# generated using pymatgen
data_Na2MnFe(PO4)2
_symmetry_space_group_name_H-M   'P 1'
_cell_length_a   22.34478914
_cell_length_b   20.09826575
_cell_length_c   19.44722560
_cell_angle_alpha   90.02665828
_cell_angle_beta   90.01568853
_cell_angle_gamma   90.01188735
_symmetry_Int_Tables_number   1
_chemical_formula_structural   Na2MnFe(PO4)2
_chemical_formula_sum   'Na96 Mn48 Fe48 P96 O384'
_cell_volume   8733.58245451
_cell_formula_units_Z   48
loop_
 _symmetry_equiv_pos_site_id
 _symmetry_equiv_pos_as_xyz
  1  'x, y, z'
loop_
 _atom_site_type_symbol
 _atom_site_label
 _atom_site_symmetry_multiplicity
 _atom_site_fract_x
 _atom_site_fract_y
 _atom_site_fract_z
 _atom_site_occupancy
  Na  Na0  1  0.14028831  0.25118490  0.24351330  1
  Na  Na1  1  0.13952043  0.25027909  0.49371852  1
  Na  Na2  1  0.13993829  0.25051071  0.74418562  1
  Na  Na3  1  0.14011406  0.25012212  0.99349237  1
  Na  Na4  1  0.14011031  0.58295759  0.24238685  1
  Na  Na5  1  0.14032616  0.58377867  0.49353722  1
  Na  Na6  1  0.14056470  0.58364886  0.74390326  1
  Na  Na7  1  0.13956860  0.58241592  0.99442155  1
  Na  Na8  1  0.14038804  0.91559544  0.24260515  1
  Na  Na9  1  0.14034504  0.91498548  0.49386735  1
  Na  Na10  1  0.13981188  0.91606942  0.74312545  1
  Na  Na11  1  0.13973442  0.91703122  0.99263917  1
  Na  Na12  1  0.64077873  0.25110221  0.24499361  1
  Na  Na13  1  0.64014516  0.24956273  0.49291443  1
  Na  Na14  1  0.63975235  0.25081694  0.74474577  1
  Na  Na15  1  0.63971356  0.24991069  0.99391464  1
  Na  Na16  1  0.64030250  0.58347434  0.24429081  1
  Na  Na17  1  0.64088995  0.58339938  0.49342706  1
  Na  Na18  1  0.64106232  0.58348456  0.74452481  1
  Na  Na19  1  0.64094148  0.58322239  0.99465254  1
  Na  Na20  1  0.64057222  0.91726465  0.24446145  1
  Na  Na21  1  0.64087035  0.91661695  0.49163686  1
  Na  Na22  1  0.64027949  0.91467469  0.74280306  1
  Na  Na23  1  0.64052295  0.91602510  0.99283030  1
  Na  Na24  1  0.35985571  0.08453906  0.00651565  1
  Na  Na25  1  0.35916277  0.08314298  0.25513350  1
  Na  Na26  1  0.35974119  0.08215858  0.50643337  1
  Na  Na27  1  0.35961479  0.08389172  0.75633963  1
  Na  Na28  1  0.35908112  0.41571928  0.00712673  1
  Na  Na29  1  0.35947160  0.41783534  0.25592472  1
  Na  Na30  1  0.36003570  0.41732722  0.50711862  1
  Na  Na31  1  0.35958255  0.41552534  0.75597553  1
  Na  Na32  1  0.35972831  0.74914982  0.00576285  1
  Na  Na33  1  0.35919444  0.74953609  0.25630886  1
  Na  Na34  1  0.35925424  0.74940354  0.50616791  1
  Na  Na35  1  0.36016937  0.74998822  0.75412486  1
  Na  Na36  1  0.85960286  0.08258886  0.00570957  1
  Na  Na37  1  0.85907712  0.08439713  0.25707396  1
  Na  Na38  1  0.85992127  0.08362627  0.50611162  1
  Na  Na39  1  0.85985361  0.08324236  0.75717247  1
  Na  Na40  1  0.85972764  0.41665893  0.00826679  1
  Na  Na41  1  0.85991034  0.41807124  0.25705503  1
  Na  Na42  1  0.86005884  0.41712197  0.50654654  1
  Na  Na43  1  0.85980383  0.41761588  0.75675959  1
  Na  Na44  1  0.86013903  0.74927558  0.00681692  1
  Na  Na45  1  0.85997398  0.75060345  0.25647276  1
  Na  Na46  1  0.85996445  0.75052215  0.50484286  1
  Na  Na47  1  0.86004594  0.74995162  0.75714931  1
  Na  Na48  1  0.10929113  0.08360605  0.11764214  1
  Na  Na49  1  0.10926305  0.08366872  0.36868954  1
  Na  Na50  1  0.10912528  0.08406858  0.62001569  1
  Na  Na51  1  0.10911740  0.08265944  0.86849205  1
  Na  Na52  1  0.10950489  0.41778063  0.11734676  1
  Na  Na53  1  0.10925871  0.41772762  0.36907340  1
  Na  Na54  1  0.10927246  0.41619929  0.61828444  1
  Na  Na55  1  0.10970673  0.41585142  0.86978560  1
  Na  Na56  1  0.10921725  0.74957966  0.11857034  1
  Na  Na57  1  0.11021816  0.74902136  0.36685127  1
  Na  Na58  1  0.11009613  0.74984053  0.61805442  1
  Na  Na59  1  0.10939642  0.75044687  0.86902853  1
  Na  Na60  1  0.60979893  0.08488163  0.11852793  1
  Na  Na61  1  0.61008360  0.08365077  0.36914471  1
  Na  Na62  1  0.60929543  0.08307543  0.61729287  1
  Na  Na63  1  0.60894897  0.08325872  0.86938172  1
  Na  Na64  1  0.60979297  0.41681738  0.11922773  1
  Na  Na65  1  0.60980951  0.41648651  0.36983808  1
  Na  Na66  1  0.60930502  0.41512643  0.61907845  1
  Na  Na67  1  0.60998602  0.41523586  0.87007830  1
  Na  Na68  1  0.61003403  0.75008287  0.11864017  1
  Na  Na69  1  0.61002007  0.74983370  0.36836036  1
  Na  Na70  1  0.61044766  0.74949892  0.61781282  1
  Na  Na71  1  0.61034315  0.74962877  0.86818634  1
  Na  Na72  1  0.38946506  0.25049669  0.13073551  1
  Na  Na73  1  0.39068821  0.25013124  0.38162744  1
  Na  Na74  1  0.39058427  0.24939386  0.63063203  1
  Na  Na75  1  0.38971230  0.24934555  0.88267345  1
  Na  Na76  1  0.38983399  0.58350486  0.13203648  1
  Na  Na77  1  0.39021142  0.58319663  0.38191795  1
  Na  Na78  1  0.39031814  0.58249817  0.63116955  1
  Na  Na79  1  0.39045834  0.58256192  0.88062411  1
  Na  Na80  1  0.39060025  0.91759549  0.13018627  1
  Na  Na81  1  0.39024044  0.91675558  0.38206950  1
  Na  Na82  1  0.39054012  0.91602501  0.62957642  1
  Na  Na83  1  0.39075077  0.91657294  0.87974482  1
  Na  Na84  1  0.88991554  0.25106755  0.13211567  1
  Na  Na85  1  0.89042491  0.25117198  0.38286962  1
  Na  Na86  1  0.89046622  0.24933477  0.63059021  1
  Na  Na87  1  0.89052023  0.24967739  0.88249432  1
  Na  Na88  1  0.89015103  0.58468870  0.13217192  1
  Na  Na89  1  0.89050040  0.58376274  0.38076090  1
  Na  Na90  1  0.89058631  0.58422462  0.63130059  1
  Na  Na91  1  0.89066760  0.58396777  0.88339428  1
  Na  Na92  1  0.89058425  0.91610944  0.13074199  1
  Na  Na93  1  0.89037162  0.91708093  0.38109000  1
  Na  Na94  1  0.89062413  0.91717202  0.63126817  1
  Na  Na95  1  0.89080819  0.91529369  0.88094949  1
  Mn  Mn96  1  0.25048479  0.83245991  0.12438244  1
  Mn  Mn97  1  0.75065590  0.83226454  0.62377828  1
  Mn  Mn98  1  -0.00073098  0.16639530  -0.00006420  1
  Mn  Mn99  1  0.50005482  0.66641710  -0.00009851  1
  Mn  Mn100  1  0.75040839  0.50002340  0.87573064  1
  Mn  Mn101  1  -0.00008914  0.49969614  0.75063422  1
  Mn  Mn102  1  0.24977518  0.83280596  0.87439605  1
  Mn  Mn103  1  0.75041840  0.33358374  0.62528943  1
  Mn  Mn104  1  0.75000289  0.16687382  0.62519463  1
  Mn  Mn105  1  0.50049219  0.66615433  0.50009109  1
  Mn  Mn106  1  -0.00029304  0.66616741  0.49916919  1
  Mn  Mn107  1  0.49954625  0.16705538  0.74936181  1
  Mn  Mn108  1  0.75040361  0.50091305  0.37547386  1
  Mn  Mn109  1  0.00025287  0.33510071  0.25087931  1
  Mn  Mn110  1  0.24981403  0.00062512  0.12416747  1
  Mn  Mn111  1  0.49958230  0.83400339  -0.00052628  1
  Mn  Mn112  1  0.25013361  0.16655965  0.37453242  1
  Mn  Mn113  1  0.50020830  0.33421064  0.25101511  1
  Mn  Mn114  1  0.75019415  0.83262297  0.12505358  1
  Mn  Mn115  1  0.25032852  0.33388303  0.62507655  1
  Mn  Mn116  1  0.25007613  0.33412080  0.37436691  1
  Mn  Mn117  1  0.00082832  0.66718652  0.75098360  1
  Mn  Mn118  1  0.75000756  -0.00042596  0.62474499  1
  Mn  Mn119  1  0.74997610  0.33322258  0.12608812  1
  Mn  Mn120  1  -0.00119473  0.33247933  0.74959809  1
  Mn  Mn121  1  0.00039003  0.83344748  0.49985403  1
  Mn  Mn122  1  0.24906768  -0.00125176  0.37503933  1
  Mn  Mn123  1  0.50031010  0.49803953  0.75076624  1
  Mn  Mn124  1  0.24987750  0.16691990  0.62508772  1
  Mn  Mn125  1  0.50027748  0.83406566  0.24954870  1
  Mn  Mn126  1  0.74988323  0.50110564  0.62594472  1
  Mn  Mn127  1  0.75024642  0.00043081  0.12500043  1
  Mn  Mn128  1  0.24917839  -0.00083423  0.62510400  1
  Mn  Mn129  1  0.49988244  0.00078938  0.25040169  1
  Mn  Mn130  1  0.49976231  0.16714161  0.24992077  1
  Mn  Mn131  1  0.25076239  0.00069102  0.87432373  1
  Mn  Mn132  1  0.50088025  0.66647087  0.74953604  1
  Mn  Mn133  1  0.49978021  -0.00083592  0.74853928  1
  Mn  Mn134  1  0.74916443  0.16711451  0.87543089  1
  Mn  Mn135  1  0.74918599  -0.00086129  0.87528832  1
  Mn  Mn136  1  0.50036662  0.49901773  0.00012599  1
  Mn  Mn137  1  -0.00001361  0.16760733  0.24942033  1
  Mn  Mn138  1  0.25063397  0.49924576  0.87489056  1
  Mn  Mn139  1  0.25014410  0.66611628  0.87438769  1
  Mn  Mn140  1  -0.00056300  -0.00022951  0.24958901  1
  Mn  Mn141  1  0.49974905  0.66637004  0.25038265  1
  Mn  Mn142  1  0.00101333  0.00094986  0.50077238  1
  Mn  Mn143  1  0.24936517  0.50107961  0.37498959  1
  Fe  Fe144  1  0.49951147  0.16696677  -0.00036692  1
  Fe  Fe145  1  0.00015265  0.83325157  0.75061860  1
  Fe  Fe146  1  0.24935651  0.50036350  0.62530460  1
  Fe  Fe147  1  0.50009046  0.16670107  0.50026925  1
  Fe  Fe148  1  0.00020937  0.83341525  0.00007360  1
  Fe  Fe149  1  0.75017601  0.83317631  0.37450780  1
  Fe  Fe150  1  0.25020043  0.66634999  0.37506656  1
  Fe  Fe151  1  -0.00030093  0.33356337  0.00021633  1
  Fe  Fe152  1  0.25012516  0.83232590  0.62398638  1
  Fe  Fe153  1  0.00014613  0.66678152  0.24939310  1
  Fe  Fe154  1  0.50008559  0.49965738  0.25044935  1
  Fe  Fe155  1  0.24912008  0.16715299  0.12490887  1
  Fe  Fe156  1  -0.00004216  0.33370817  0.50009108  1
  Fe  Fe157  1  -0.00060177  0.50052539  0.00050313  1
  Fe  Fe158  1  0.49944433  0.33226986  0.74987410  1
  Fe  Fe159  1  0.50067690  0.83331396  0.74930180  1
  Fe  Fe160  1  -0.00020012  -0.00031201  0.75025103  1
  Fe  Fe161  1  0.75014136  0.50042135  0.12592335  1
  Fe  Fe162  1  0.24938751  0.16738663  0.87570910  1
  Fe  Fe163  1  0.50042438  -0.00007953  0.50004643  1
  Fe  Fe164  1  0.50025063  0.49910053  0.50079399  1
  Fe  Fe165  1  0.24939944  0.33328253  0.87552151  1
  Fe  Fe166  1  0.75077594  0.66635221  0.87556300  1
  Fe  Fe167  1  0.50050562  0.83329180  0.49966230  1
  Fe  Fe168  1  0.74943119  0.66706212  0.12521552  1
  Fe  Fe169  1  0.24990180  0.83205745  0.37416406  1
  Fe  Fe170  1  0.75060719  0.66686763  0.62522098  1
  Fe  Fe171  1  0.75018497  0.83214611  0.87454272  1
  Fe  Fe172  1  -0.00031982  0.16689735  0.50041083  1
  Fe  Fe173  1  0.75042864  0.33332330  0.87629529  1
  Fe  Fe174  1  0.49912060  0.33319029  0.00016666  1
  Fe  Fe175  1  0.24963826  0.33306428  0.12481488  1
  Fe  Fe176  1  0.50002244  0.33316501  0.49996073  1
  Fe  Fe177  1  0.25014700  0.49991222  0.12481144  1
  Fe  Fe178  1  -0.00044108  0.50066438  0.24947494  1
  Fe  Fe179  1  0.50038529  0.00027710  -0.00058369  1
  Fe  Fe180  1  0.24937966  0.66618143  0.12513920  1
  Fe  Fe181  1  0.75020067  0.33397081  0.37508249  1
  Fe  Fe182  1  -0.00005263  0.66721072  0.00087925  1
  Fe  Fe183  1  0.75045037  0.66695583  0.37452059  1
  Fe  Fe184  1  0.75040800  0.16720698  0.37507216  1
  Fe  Fe185  1  0.24991379  0.66668894  0.62408438  1
  Fe  Fe186  1  0.00052209  0.83367090  0.24923001  1
  Fe  Fe187  1  0.00027151  0.50049721  0.49980032  1
  Fe  Fe188  1  -0.00034091  -0.00060689  -0.00073214  1
  Fe  Fe189  1  -0.00006758  0.16640165  0.75025643  1
  Fe  Fe190  1  0.75000741  0.16721939  0.12595034  1
  Fe  Fe191  1  0.75035268  0.00062922  0.37441773  1
  P  P192  1  0.04171148  0.25159699  0.10217570  1
  P  P193  1  0.04235912  0.25064574  0.35412847  1
  P  P194  1  0.04120315  0.24970524  0.60195901  1
  P  P195  1  0.04153727  0.24881220  0.85279899  1
  P  P196  1  0.04056230  0.58370350  0.10245891  1
  P  P197  1  0.04136342  0.58295786  0.35119078  1
  P  P198  1  0.04234371  0.58250062  0.60234691  1
  P  P199  1  0.04272937  0.58306702  0.85462724  1
  P  P200  1  0.04148714  0.91653188  0.10138819  1
  P  P201  1  0.04265696  0.91568956  0.35188626  1
  P  P202  1  0.04276222  0.91683745  0.60429443  1
  P  P203  1  0.04151813  0.91643882  0.85229750  1
  P  P204  1  0.54091672  0.25060874  0.10152355  1
  P  P205  1  0.54260385  0.25006513  0.35436827  1
  P  P206  1  0.54164490  0.25010697  0.60169104  1
  P  P207  1  0.54132462  0.25084032  0.85335366  1
  P  P208  1  0.54266516  0.58278286  0.10389380  1
  P  P209  1  0.54201284  0.58140265  0.35327076  1
  P  P210  1  0.54273958  0.58135841  0.60258541  1
  P  P211  1  0.54325019  0.58242345  0.85315639  1
  P  P212  1  0.54289755  0.91846792  0.10200281  1
  P  P213  1  0.54259471  0.91700072  0.35411092  1
  P  P214  1  0.54235545  0.91622359  0.60110820  1
  P  P215  1  0.54243819  0.91593655  0.85202091  1
  P  P216  1  0.45753977  0.08382696  0.14571983  1
  P  P217  1  0.45853303  0.08358915  0.39883841  1
  P  P218  1  0.45720998  0.08313975  0.64550696  1
  P  P219  1  0.45827588  0.08305637  0.89795692  1
  P  P220  1  0.45771990  0.41751360  0.14760901  1
  P  P221  1  0.45839016  0.41700972  0.39858317  1
  P  P222  1  0.45787379  0.41441430  0.64685050  1
  P  P223  1  0.45707191  0.41450656  0.89744720  1
  P  P224  1  0.45700003  0.75026208  0.14683120  1
  P  P225  1  0.45805211  0.75072608  0.39777746  1
  P  P226  1  0.45903104  0.75137055  0.64649697  1
  P  P227  1  0.45747370  0.75010526  0.89591217  1
  P  P228  1  0.95684986  0.08325288  0.14621546  1
  P  P229  1  0.95787402  0.08462258  0.39776052  1
  P  P230  1  0.95831590  0.08365425  0.64855737  1
  P  P231  1  0.95782013  0.08132456  0.89660582  1
  P  P232  1  0.95766213  0.41867572  0.14700475  1
  P  P233  1  0.95856109  0.41782346  0.39832262  1
  P  P234  1  0.95729437  0.41678575  0.64604497  1
  P  P235  1  0.95822781  0.41676000  0.89909235  1
  P  P236  1  0.95892356  0.75048475  0.14777416  1
  P  P237  1  0.95811549  0.75009035  0.39545736  1
  P  P238  1  0.95811155  0.75116196  0.64807942  1
  P  P239  1  0.95909550  0.75037284  0.89872753  1
  P  P240  1  0.20697812  0.08442972  0.22702552  1
  P  P241  1  0.20678583  0.08286594  0.47805745  1
  P  P242  1  0.20733239  0.08396616  0.72881977  1
  P  P243  1  0.20763211  0.08500003  0.97758046  1
  P  P244  1  0.20837854  0.41685539  0.22594710  1
  P  P245  1  0.20733786  0.41753070  0.47844428  1
  P  P246  1  0.20731355  0.41766575  0.72775344  1
  P  P247  1  0.20800460  0.41534052  0.97846930  1
  P  P248  1  0.20772053  0.74842161  0.22776763  1
  P  P249  1  0.20851254  0.74938826  0.47666698  1
  P  P250  1  0.20828076  0.74947275  0.72583077  1
  P  P251  1  0.20721995  0.74897761  0.97823080  1
  P  P252  1  0.70812254  0.08508320  0.22852938  1
  P  P253  1  0.70894783  0.08351708  0.47620500  1
  P  P254  1  0.70683951  0.08308858  0.72800437  1
  P  P255  1  0.70692253  0.08346379  0.97883732  1
  P  P256  1  0.70817788  0.41803686  0.22841665  1
  P  P257  1  0.70812769  0.41612356  0.47765709  1
  P  P258  1  0.70735678  0.41680533  0.72918439  1
  P  P259  1  0.70835278  0.41573771  0.97875256  1
  P  P260  1  0.70783186  0.74896380  0.22834652  1
  P  P261  1  0.70897922  0.74947669  0.47625496  1
  P  P262  1  0.70842684  0.74856313  0.72787259  1
  P  P263  1  0.70868559  0.74904762  0.97688321  1
  P  P264  1  0.29068362  0.24992762  0.02284409  1
  P  P265  1  0.29274178  0.25037608  0.27072259  1
  P  P266  1  0.29288217  0.25016496  0.52173146  1
  P  P267  1  0.29122779  0.25043234  0.77398932  1
  P  P268  1  0.29130573  0.58321069  0.02348317  1
  P  P269  1  0.29200083  0.58463874  0.27188996  1
  P  P270  1  0.29140766  0.58358146  0.52318654  1
  P  P271  1  0.29298093  0.58292917  0.77063586  1
  P  P272  1  0.29286931  0.91688963  0.02132232  1
  P  P273  1  0.29219426  0.91503082  0.27235050  1
  P  P274  1  0.29163727  0.91445997  0.52173823  1
  P  P275  1  0.29255687  0.91580071  0.77063749  1
  P  P276  1  0.79204511  0.24895016  0.02316360  1
  P  P277  1  0.79186220  0.25056248  0.27370169  1
  P  P278  1  0.79245032  0.25005873  0.52097497  1
  P  P279  1  0.79246185  0.25150763  0.77336302  1
  P  P280  1  0.79132139  0.58386270  0.02392156  1
  P  P281  1  0.79211432  0.58500210  0.27182013  1
  P  P282  1  0.79245004  0.58523125  0.52246820  1
  P  P283  1  0.79311414  0.58485505  0.77310491  1
  P  P284  1  0.79244040  0.91570245  0.02143871  1
  P  P285  1  0.79148029  0.91704655  0.27324463  1
  P  P286  1  0.79283520  0.91675826  0.52040950  1
  P  P287  1  0.79206431  0.91491819  0.77258626  1
  O  O288  1  0.03722566  0.25199564  0.18218786  1
  O  O289  1  0.03681632  0.25040448  0.43403877  1
  O  O290  1  0.03603476  0.24951584  0.68194660  1
  O  O291  1  0.03627733  0.24938822  0.93268427  1
  O  O292  1  0.03559345  0.58396360  0.18235859  1
  O  O293  1  0.03659669  0.58262089  0.43118995  1
  O  O294  1  0.03744615  0.58300572  0.68231584  1
  O  O295  1  0.03726446  0.58302497  0.93451925  1
  O  O296  1  0.03631746  0.91624042  0.18133233  1
  O  O297  1  0.03782559  0.91614750  0.43187818  1
  O  O298  1  0.03715357  0.91676207  0.68418071  1
  O  O299  1  0.03629783  0.91664916  0.93221727  1
  O  O300  1  0.53639076  0.25057347  0.18154212  1
  O  O301  1  0.53740824  0.24997787  0.43426898  1
  O  O302  1  0.53627636  0.25054759  0.68169759  1
  O  O303  1  0.53578333  0.25056128  0.93321201  1
  O  O304  1  0.53730418  0.58241656  0.18387147  1
  O  O305  1  0.53666079  0.58126471  0.43323538  1
  O  O306  1  0.53763027  0.58174034  0.68252845  1
  O  O307  1  0.53803573  0.58259498  0.93312402  1
  O  O308  1  0.53782450  0.91827399  0.18202147  1
  O  O309  1  0.53742742  0.91667642  0.43405113  1
  O  O310  1  0.53741791  0.91577136  0.68113295  1
  O  O311  1  0.53698758  0.91687784  0.93193623  1
  O  O312  1  0.46281349  0.08337202  0.06581097  1
  O  O313  1  0.46341577  0.08375327  0.31878845  1
  O  O314  1  0.46274691  0.08323134  0.56564648  1
  O  O315  1  0.46287376  0.08343520  0.81792180  1
  O  O316  1  0.46279472  0.41661304  0.06766795  1
  O  O317  1  0.46349313  0.41781765  0.31858604  1
  O  O318  1  0.46364170  0.41481285  0.56696526  1
  O  O319  1  0.46211392  0.41408355  0.81748499  1
  O  O320  1  0.46181033  0.75006732  0.06681579  1
  O  O321  1  0.46279479  0.75044624  0.31777982  1
  O  O322  1  0.46463603  0.75146958  0.56656835  1
  O  O323  1  0.46309336  0.75036757  0.81596173  1
  O  O324  1  0.96199113  0.08260478  0.06624635  1
  O  O325  1  0.96282043  0.08423494  0.31777318  1
  O  O326  1  0.96364125  0.08429092  0.56857625  1
  O  O327  1  0.96344791  0.08150809  0.81673289  1
  O  O328  1  0.96277437  0.41825438  0.06713252  1
  O  O329  1  0.96360832  0.41809631  0.31833126  1
  O  O330  1  0.96292837  0.41691100  0.56617275  1
  O  O331  1  0.96269462  0.41618916  0.81906675  1
  O  O332  1  0.96381995  0.75023333  0.06786476  1
  O  O333  1  0.96345744  0.75012733  0.31559238  1
  O  O334  1  0.96299230  0.75077532  0.56808632  1
  O  O335  1  0.96401043  0.75047576  0.81878115  1
  O  O336  1  0.21252050  0.08518507  0.05758646  1
  O  O337  1  0.21221265  0.08377218  0.30699243  1
  O  O338  1  0.21185942  0.08276672  0.55806796  1
  O  O339  1  0.21294562  0.08457229  0.80876700  1
  O  O340  1  0.21344553  0.41555136  0.05833786  1
  O  O341  1  0.21285913  0.41742160  0.30597945  1
  O  O342  1  0.21256448  0.41802889  0.55837364  1
  O  O343  1  0.21241822  0.41689191  0.80772877  1
  O  O344  1  0.21229935  0.74861992  0.05819390  1
  O  O345  1  0.21319675  0.74879648  0.30767338  1
  O  O346  1  0.21373463  0.74963212  0.55660980  1
  O  O347  1  0.21316498  0.74941470  0.80581749  1
  O  O348  1  0.71230004  0.08392241  0.05877218  1
  O  O349  1  0.71396165  0.08489604  0.30843644  1
  O  O350  1  0.71354376  0.08327144  0.55624441  1
  O  O351  1  0.71156438  0.08300147  0.80801350  1
  O  O352  1  0.71352575  0.41626082  0.05871338  1
  O  O353  1  0.71336719  0.41751751  0.30836840  1
  O  O354  1  0.71321019  0.41653708  0.55760111  1
  O  O355  1  0.71266968  0.41640841  0.80917302  1
  O  O356  1  0.71350739  0.74897717  0.05689814  1
  O  O357  1  0.71330016  0.74935256  0.30819537  1
  O  O358  1  0.71381916  0.74940511  0.55623521  1
  O  O359  1  0.71387309  0.74918445  0.80776631  1
  O  O360  1  0.28711203  0.25022888  0.19079371  1
  O  O361  1  0.28809511  0.25025809  0.44176328  1
  O  O362  1  0.28648493  0.25045116  0.69398109  1
  O  O363  1  0.28535924  0.24997862  0.94293362  1
  O  O364  1  0.28683815  0.58428633  0.19201887  1
  O  O365  1  0.28642052  0.58394827  0.44318396  1
  O  O366  1  0.28751831  0.58292169  0.69073393  1
  O  O367  1  0.28687381  0.58264139  0.94346036  1
  O  O368  1  0.28740701  0.91556405  0.19234392  1
  O  O369  1  0.28608494  0.91412000  0.44180604  1
  O  O370  1  0.28703087  0.91523965  0.69067876  1
  O  O371  1  0.28784180  0.91703203  0.94133775  1
  O  O372  1  0.78672818  0.25006659  0.19369909  1
  O  O373  1  0.78709165  0.25011456  0.44104744  1
  O  O374  1  0.78754821  0.25120485  0.69334672  1
  O  O375  1  0.78690583  0.24988789  0.94322625  1
  O  O376  1  0.78636887  0.58443716  0.19200973  1
  O  O377  1  0.78716839  0.58521555  0.44250953  1
  O  O378  1  0.78793554  0.58489814  0.69313840  1
  O  O379  1  0.78666054  0.58386246  0.94391155  1
  O  O380  1  0.78677142  0.91675830  0.19322122  1
  O  O381  1  0.78749711  0.91718972  0.44050615  1
  O  O382  1  0.78722548  0.91486959  0.69255224  1
  O  O383  1  0.78695203  0.91486603  0.94152020  1
  O  O384  1  0.22669718  0.25002913  0.05943215  1
  O  O385  1  0.22845850  0.25036799  0.30636612  1
  O  O386  1  0.22838290  0.25043947  0.55652417  1
  O  O387  1  0.22693779  0.25055148  0.80960743  1
  O  O388  1  0.22700870  0.58377877  0.05897083  1
  O  O389  1  0.22771842  0.58534337  0.30774721  1
  O  O390  1  0.22723388  0.58372889  0.55918859  1
  O  O391  1  0.22875728  0.58253659  0.80640806  1
  O  O392  1  0.22843111  0.91650851  0.05628636  1
  O  O393  1  0.22771311  0.91462908  0.30737899  1
  O  O394  1  0.22752732  0.91431924  0.55782056  1
  O  O395  1  0.22834349  0.91669667  0.80625649  1
  O  O396  1  0.72775675  0.24861427  0.05885023  1
  O  O397  1  0.72772519  0.25071755  0.30968960  1
  O  O398  1  0.72823441  0.25000991  0.55671635  1
  O  O399  1  0.72800174  0.25214721  0.80856018  1
  O  O400  1  0.72718649  0.58414505  0.05982543  1
  O  O401  1  0.72812064  0.58515332  0.30832420  1
  O  O402  1  0.72818863  0.58546538  0.55828967  1
  O  O403  1  0.72880042  0.58476792  0.80870977  1
  O  O404  1  0.72825573  0.91618275  0.05708911  1
  O  O405  1  0.72736448  0.91753707  0.30901643  1
  O  O406  1  0.72859404  0.91626451  0.55612709  1
  O  O407  1  0.72769526  0.91447655  0.80785967  1
  O  O408  1  0.27132872  0.08506679  0.19156935  1
  O  O409  1  0.27122429  0.08248250  0.44304387  1
  O  O410  1  0.27152392  0.08326575  0.69318017  1
  O  O411  1  0.27199458  0.08529406  0.94216040  1
  O  O412  1  0.27266619  0.41606114  0.19060167  1
  O  O413  1  0.27164490  0.41772752  0.44304127  1
  O  O414  1  0.27164977  0.41834793  0.69222984  1
  O  O415  1  0.27208764  0.41471048  0.94218399  1
  O  O416  1  0.27187560  0.74765416  0.19167400  1
  O  O417  1  0.27257869  0.74926471  0.44029550  1
  O  O418  1  0.27249393  0.74908927  0.68998311  1
  O  O419  1  0.27162238  0.74946124  0.94307699  1
  O  O420  1  0.77216763  0.08529414  0.19208916  1
  O  O421  1  0.77316535  0.08378858  0.44058070  1
  O  O422  1  0.77145704  0.08318747  0.69341858  1
  O  O423  1  0.77114045  0.08331399  0.94325433  1
  O  O424  1  0.77234974  0.41793247  0.19262081  1
  O  O425  1  0.77239351  0.41614110  0.44202649  1
  O  O426  1  0.77170269  0.41731337  0.69388267  1
  O  O427  1  0.77257742  0.41553293  0.94292836  1
  O  O428  1  0.77197970  0.74827783  0.19219569  1
  O  O429  1  0.77310835  0.74921466  0.44030082  1
  O  O430  1  0.77263169  0.74830599  0.69179067  1
  O  O431  1  0.77294207  0.74898991  0.94108242  1
  O  O432  1  0.02125723  0.08326368  0.18140137  1
  O  O433  1  0.02220772  0.08549536  0.43328608  1
  O  O434  1  0.02236159  0.08359334  0.68486705  1
  O  O435  1  0.02180101  0.08157657  0.93311953  1
  O  O436  1  0.02195177  0.41919074  0.18285309  1
  O  O437  1  0.02263876  0.41789868  0.43449919  1
  O  O438  1  0.02140137  0.41627558  0.68209612  1
  O  O439  1  0.02248865  0.41764276  0.93459459  1
  O  O440  1  0.02295372  0.75103930  0.18405850  1
  O  O441  1  0.02224936  0.74968059  0.43143309  1
  O  O442  1  0.02249992  0.75177530  0.68352291  1
  O  O443  1  0.02317961  0.75043034  0.93469727  1
  O  O444  1  0.52176599  0.08381271  0.18153216  1
  O  O445  1  0.52276843  0.08346791  0.43463038  1
  O  O446  1  0.52137893  0.08329611  0.68136833  1
  O  O447  1  0.52243467  0.08298336  0.93377842  1
  O  O448  1  0.52205257  0.41827413  0.18331249  1
  O  O449  1  0.52256740  0.41660639  0.43460164  1
  O  O450  1  0.52191352  0.41356525  0.68332460  1
  O  O451  1  0.52148308  0.41421686  0.93291081  1
  O  O452  1  0.52151897  0.75006681  0.18166482  1
  O  O453  1  0.52251061  0.75046276  0.43284070  1
  O  O454  1  0.52312576  0.75138135  0.68267069  1
  O  O455  1  0.52173642  0.75016865  0.93153324  1
  O  O456  1  0.47668904  0.25086109  0.06581963  1
  O  O457  1  0.47836811  0.25049257  0.31865943  1
  O  O458  1  0.47757002  0.24995288  0.56545191  1
  O  O459  1  0.47720060  0.25118375  0.81700724  1
  O  O460  1  0.47836353  0.58267087  0.06841146  1
  O  O461  1  0.47781968  0.58119489  0.31730796  1
  O  O462  1  0.47838883  0.58155916  0.56712879  1
  O  O463  1  0.47892585  0.58255578  0.81791615  1
  O  O464  1  0.47848104  0.91886713  0.06662446  1
  O  O465  1  0.47829242  0.91694714  0.31855598  1
  O  O466  1  0.47808459  0.91667348  0.56538192  1
  O  O467  1  0.47825192  0.91497865  0.81595917  1
  O  O468  1  0.97728044  0.25104641  0.06713581  1
  O  O469  1  0.97817676  0.25103929  0.31821005  1
  O  O470  1  0.97717583  0.24972379  0.56562464  1
  O  O471  1  0.97727639  0.24804981  0.81698449  1
  O  O472  1  0.97658806  0.58334801  0.06602753  1
  O  O473  1  0.97718151  0.58271366  0.31531888  1
  O  O474  1  0.97796759  0.58189989  0.56688458  1
  O  O475  1  0.97850736  0.58347435  0.81884246  1
  O  O476  1  0.97735422  0.91677726  0.06525858  1
  O  O477  1  0.97819942  0.91507914  0.31660575  1
  O  O478  1  0.97867192  0.91714463  0.56822375  1
  O  O479  1  0.97752405  0.91592442  0.81572604  1
  O  O480  1  0.07172599  0.31540009  0.07316875  1
  O  O481  1  0.07376438  0.31410103  0.32610423  1
  O  O482  1  0.07178378  0.31362288  0.57380766  1
  O  O483  1  0.07236763  0.31243325  0.82457743  1
  O  O484  1  0.07106647  0.64755130  0.07388062  1
  O  O485  1  0.07154380  0.64703327  0.32287659  1
  O  O486  1  0.07281458  0.64633588  0.57410637  1
  O  O487  1  0.07417661  0.64636152  0.82626871  1
  O  O488  1  0.07231086  0.98023775  0.07324091  1
  O  O489  1  0.07321686  0.97954893  0.32389808  1
  O  O490  1  0.07414054  0.98022030  0.57610999  1
  O  O491  1  0.07213505  0.98012597  0.82373698  1
  O  O492  1  0.57204511  0.31416506  0.07362564  1
  O  O493  1  0.57389778  0.31341714  0.32597710  1
  O  O494  1  0.57283721  0.31340122  0.57330734  1
  O  O495  1  0.57254418  0.31402707  0.82469584  1
  O  O496  1  0.57350652  0.64654215  0.07602509  1
  O  O497  1  0.57275155  0.64545320  0.32583656  1
  O  O498  1  0.57397542  0.64486262  0.57470285  1
  O  O499  1  0.57450442  0.64569044  0.82492556  1
  O  O500  1  0.57381330  0.98177234  0.07343782  1
  O  O501  1  0.57361352  0.98053992  0.32591622  1
  O  O502  1  0.57320020  0.98007760  0.57329291  1
  O  O503  1  0.57325991  0.97949188  0.82364819  1
  O  O504  1  0.42619703  0.02069444  0.17458814  1
  O  O505  1  0.42770694  0.01979408  0.42659355  1
  O  O506  1  0.42607222  0.01966250  0.67370695  1
  O  O507  1  0.42744918  0.01930358  0.92568702  1
  O  O508  1  0.42692929  0.35398577  0.17605313  1
  O  O509  1  0.42753401  0.35306375  0.42602123  1
  O  O510  1  0.42630905  0.35130611  0.67522251  1
  O  O511  1  0.42586111  0.35163299  0.92671314  1
  O  O512  1  0.42589300  0.68699412  0.17530674  1
  O  O513  1  0.42688822  0.68714334  0.42561795  1
  O  O514  1  0.42797400  0.68743251  0.67368158  1
  O  O515  1  0.42652317  0.68638539  0.92383339  1
  O  O516  1  0.92546740  0.02019020  0.17490119  1
  O  O517  1  0.92757981  0.02059745  0.42572802  1
  O  O518  1  0.92755651  0.01970595  0.67620218  1
  O  O519  1  0.92701118  0.01781603  0.92522583  1
  O  O520  1  0.92682670  0.35508265  0.17552654  1
  O  O521  1  0.92812219  0.35383655  0.42640920  1
  O  O522  1  0.92570088  0.35350897  0.67420506  1
  O  O523  1  0.92837510  0.35258050  0.92766964  1
  O  O524  1  0.92861905  0.68659162  0.17649993  1
  O  O525  1  0.92674232  0.68677334  0.42393566  1
  O  O526  1  0.92758093  0.68731145  0.67612841  1
  O  O527  1  0.92865312  0.68645744  0.92717053  1
  O  O528  1  0.17627020  0.02060575  0.19898779  1
  O  O529  1  0.17552556  0.01943785  0.44999850  1
  O  O530  1  0.17593754  0.02045452  0.70121099  1
  O  O531  1  0.17695049  0.02108295  0.94971919  1
  O  O532  1  0.17686538  0.35354928  0.19803803  1
  O  O533  1  0.17657757  0.35379417  0.45041619  1
  O  O534  1  0.17637664  0.35406341  0.69946915  1
  O  O535  1  0.17675303  0.35212649  0.94965974  1
  O  O536  1  0.17637540  0.68521254  0.19914966  1
  O  O537  1  0.17761975  0.68561533  0.44852409  1
  O  O538  1  0.17718867  0.68591840  0.69775366  1
  O  O539  1  0.17632288  0.68563456  0.94956382  1
  O  O540  1  0.67692458  0.02145561  0.20067286  1
  O  O541  1  0.67838035  0.01972784  0.44788617  1
  O  O542  1  0.67604192  0.01959331  0.69950355  1
  O  O543  1  0.67594966  0.01982056  0.95082360  1
  O  O544  1  0.67656039  0.35469880  0.20053310  1
  O  O545  1  0.67754159  0.35248867  0.44923963  1
  O  O546  1  0.67623846  0.35359046  0.70052568  1
  O  O547  1  0.67781426  0.35197328  0.95035630  1
  O  O548  1  0.67643760  0.68584250  0.19967229  1
  O  O549  1  0.67751074  0.68622815  0.44809965  1
  O  O550  1  0.67754973  0.68501002  0.69937261  1
  O  O551  1  0.67765354  0.68556262  0.94857854  1
  O  O552  1  0.32175646  0.31346509  0.05123358  1
  O  O553  1  0.32380629  0.31389926  0.29908200  1
  O  O554  1  0.32397347  0.31351802  0.55012611  1
  O  O555  1  0.32187826  0.31417341  0.80218228  1
  O  O556  1  0.32253677  0.64661834  0.05143385  1
  O  O557  1  0.32332038  0.64763247  0.30100987  1
  O  O558  1  0.32260151  0.64706314  0.55138021  1
  O  O559  1  0.32391593  0.64651733  0.79901144  1
  O  O560  1  0.32350558  0.98056007  0.04962048  1
  O  O561  1  0.32303948  0.97874566  0.30048459  1
  O  O562  1  0.32253772  0.97839082  0.54917419  1
  O  O563  1  0.32411003  0.97927758  0.79830207  1
  O  O564  1  0.82325484  0.31226728  0.05169003  1
  O  O565  1  0.82250488  0.31465714  0.30137547  1
  O  O566  1  0.82369416  0.31341126  0.54932375  1
  O  O567  1  0.82349500  0.31482183  0.80199084  1
  O  O568  1  0.82255682  0.64723147  0.05221725  1
  O  O569  1  0.82318131  0.64842609  0.30019772  1
  O  O570  1  0.82357370  0.64847154  0.55110649  1
  O  O571  1  0.82407651  0.64807183  0.80205323  1
  O  O572  1  0.82364454  0.97930870  0.04913475  1
  O  O573  1  0.82281795  0.98057298  0.30098185  1
  O  O574  1  0.82380069  0.98008028  0.54945807  1
  O  O575  1  0.82274806  0.97884087  0.80022051  1
  O  O576  1  0.42654798  0.14740816  0.17395885  1
  O  O577  1  0.42778186  0.14733629  0.42680452  1
  O  O578  1  0.42583712  0.14634771  0.67416983  1
  O  O579  1  0.42784212  0.14688697  0.92651376  1
  O  O580  1  0.42679156  0.48103116  0.17585021  1
  O  O581  1  0.42748184  0.48038649  0.42744932  1
  O  O582  1  0.42723827  0.47829099  0.67493108  1
  O  O583  1  0.42656678  0.47867285  0.92495456  1
  O  O584  1  0.42631305  0.81403377  0.17471665  1
  O  O585  1  0.42760700  0.81435279  0.42634534  1
  O  O586  1  0.42802531  0.81465537  0.67509503  1
  O  O587  1  0.42597269  0.81324016  0.92422791  1
  O  O588  1  0.92622027  0.14711124  0.17416100  1
  O  O589  1  0.92662613  0.14783757  0.42609443  1
  O  O590  1  0.92721684  0.14707292  0.67703456  1
  O  O591  1  0.92627556  0.14477096  0.92442341  1
  O  O592  1  0.92655921  0.48194598  0.17581520  1
  O  O593  1  0.92734126  0.48124521  0.42645668  1
  O  O594  1  0.92634491  0.48021890  0.67473733  1
  O  O595  1  0.92671102  0.48008584  0.92691400  1
  O  O596  1  0.92753604  0.81385376  0.17606457  1
  O  O597  1  0.92704833  0.81347193  0.42395288  1
  O  O598  1  0.92707653  0.81452521  0.67648161  1
  O  O599  1  0.92782753  0.81367310  0.92707276  1
  O  O600  1  0.07307701  0.18813914  0.07458231  1
  O  O601  1  0.07343577  0.18739422  0.32524938  1
  O  O602  1  0.07237816  0.18622801  0.57393006  1
  O  O603  1  0.07246576  0.18530201  0.82446322  1
  O  O604  1  0.07194542  0.52036078  0.07423351  1
  O  O605  1  0.07274608  0.51979454  0.32261728  1
  O  O606  1  0.07334802  0.51915147  0.57400419  1
  O  O607  1  0.07368169  0.51963656  0.82599280  1
  O  O608  1  0.07240689  0.85291512  0.07317050  1
  O  O609  1  0.07359518  0.85233616  0.32336347  1
  O  O610  1  0.07389891  0.85349446  0.57572269  1
  O  O611  1  0.07276134  0.85288359  0.82416394  1
  O  O612  1  0.57112187  0.18668645  0.07298579  1
  O  O613  1  0.57350017  0.18669847  0.32560841  1
  O  O614  1  0.57237260  0.18609701  0.57406162  1
  O  O615  1  0.57232129  0.18716648  0.82514012  1
  O  O616  1  0.57412511  0.51968584  0.07542084  1
  O  O617  1  0.57323318  0.51829875  0.32453392  1
  O  O618  1  0.57325588  0.51762071  0.57442187  1
  O  O619  1  0.57410889  0.51865185  0.82553425  1
  O  O620  1  0.57359389  0.85451690  0.07433039  1
  O  O621  1  0.57383661  0.85379713  0.32529384  1
  O  O622  1  0.57317276  0.85269789  0.57252552  1
  O  O623  1  0.57347760  0.85234849  0.82399602  1
  O  O624  1  0.32156170  0.18630996  0.05113995  1
  O  O625  1  0.32402991  0.18706882  0.29915395  1
  O  O626  1  0.32361318  0.18657472  0.54996607  1
  O  O627  1  0.32197660  0.18669514  0.80208632  1
  O  O628  1  0.32138328  0.51911631  0.05195915  1
  O  O629  1  0.32262790  0.52082590  0.30023823  1
  O  O630  1  0.32185684  0.51971202  0.55137333  1
  O  O631  1  0.32444599  0.51983486  0.79933378  1
  O  O632  1  0.32421930  0.85358008  0.04928222  1
  O  O633  1  0.32293650  0.85148897  0.30073787  1
  O  O634  1  0.32282957  0.85125260  0.55035381  1
  O  O635  1  0.32338341  0.85235274  0.79905773  1
  O  O636  1  0.82276017  0.18523670  0.05122544  1
  O  O637  1  0.82296883  0.18720770  0.30208398  1
  O  O638  1  0.82355377  0.18667154  0.54956511  1
  O  O639  1  0.82296509  0.18755489  0.80111208  1
  O  O640  1  0.82145427  0.51975160  0.05223569  1
  O  O641  1  0.82335933  0.52156791  0.30012627  1
  O  O642  1  0.82310584  0.52132754  0.55028454  1
  O  O643  1  0.82406695  0.52114663  0.80106275  1
  O  O644  1  0.82361179  0.85252629  0.05018175  1
  O  O645  1  0.82167658  0.85297286  0.30138301  1
  O  O646  1  0.82423318  0.85337603  0.54849131  1
  O  O647  1  0.82302521  0.85158130  0.80120419  1
  O  O648  1  0.17587692  0.14786286  0.19898409  1
  O  O649  1  0.17610034  0.14650247  0.44998237  1
  O  O650  1  0.17632564  0.14736289  0.70041672  1
  O  O651  1  0.17649779  0.14820543  0.94892112  1
  O  O652  1  0.17844863  0.48095447  0.19735235  1
  O  O653  1  0.17590278  0.48060727  0.44982926  1
  O  O654  1  0.17644148  0.48117835  0.69939001  1
  O  O655  1  0.17718484  0.47906883  0.95044637  1
  O  O656  1  0.17697218  0.81213576  0.19948488  1
  O  O657  1  0.17752766  0.81279844  0.44795192  1
  O  O658  1  0.17778966  0.81335560  0.69787625  1
  O  O659  1  0.17617857  0.81256872  0.95019519  1
  O  O660  1  0.67719433  0.14860940  0.20004873  1
  O  O661  1  0.67790907  0.14714545  0.44837679  1
  O  O662  1  0.67599099  0.14671304  0.69992042  1
  O  O663  1  0.67557967  0.14665693  0.95046562  1
  O  O664  1  0.67778897  0.48176796  0.19987953  1
  O  O665  1  0.67697775  0.47971762  0.44998773  1
  O  O666  1  0.67633176  0.48043267  0.70120227  1
  O  O667  1  0.67706911  0.47913712  0.95075997  1
  O  O668  1  0.67706124  0.81274571  0.20013653  1
  O  O669  1  0.67883388  0.81356524  0.44780815  1
  O  O670  1  0.67721698  0.81182113  0.69914947  1
  O  O671  1  0.67818973  0.81293060  0.94862179  1
