# generated using pymatgen
data_Na2MnFe(PO4)2
_symmetry_space_group_name_H-M   'P 1'
_cell_length_a   22.34819214
_cell_length_b   20.09469071
_cell_length_c   19.44525252
_cell_angle_alpha   90.04475694
_cell_angle_beta   90.01736012
_cell_angle_gamma   89.99919770
_symmetry_Int_Tables_number   1
_chemical_formula_structural   Na2MnFe(PO4)2
_chemical_formula_sum   'Na96 Mn48 Fe48 P96 O384'
_cell_volume   8732.47111209
_cell_formula_units_Z   48
loop_
 _symmetry_equiv_pos_site_id
 _symmetry_equiv_pos_as_xyz
  1  'x, y, z'
loop_
 _atom_site_type_symbol
 _atom_site_label
 _atom_site_symmetry_multiplicity
 _atom_site_fract_x
 _atom_site_fract_y
 _atom_site_fract_z
 _atom_site_occupancy
  Na  Na0  1  0.14027160  0.25163773  0.24434247  1
  Na  Na1  1  0.14007858  0.25032288  0.49231788  1
  Na  Na2  1  0.14058209  0.24932608  0.74301205  1
  Na  Na3  1  0.14024345  0.24980819  0.99424569  1
  Na  Na4  1  0.14009581  0.58394016  0.24365617  1
  Na  Na5  1  0.14017466  0.58334195  0.49357076  1
  Na  Na6  1  0.14032712  0.58330396  0.74269838  1
  Na  Na7  1  0.14036233  0.58404859  0.99523061  1
  Na  Na8  1  0.14022202  0.91763678  0.24359943  1
  Na  Na9  1  0.14032926  0.91721077  0.49461860  1
  Na  Na10  1  0.14009065  0.91569626  0.74348834  1
  Na  Na11  1  0.14038804  0.91787553  0.99471426  1
  Na  Na12  1  0.64062073  0.24851221  0.24313111  1
  Na  Na13  1  0.64024566  0.24815636  0.49504239  1
  Na  Na14  1  0.64004557  0.24976197  0.74422750  1
  Na  Na15  1  0.64066350  0.25103635  0.99265504  1
  Na  Na16  1  0.64005671  0.58227903  0.24353575  1
  Na  Na17  1  0.63995647  0.58314548  0.49416021  1
  Na  Na18  1  0.64057803  0.58308376  0.74317375  1
  Na  Na19  1  0.64041534  0.58287698  0.99391528  1
  Na  Na20  1  0.64016264  0.91569362  0.24360769  1
  Na  Na21  1  0.64021761  0.91416113  0.49412660  1
  Na  Na22  1  0.63988031  0.91631348  0.74232761  1
  Na  Na23  1  0.64034453  0.91872409  0.99362742  1
  Na  Na24  1  0.36052438  0.08335210  0.00628201  1
  Na  Na25  1  0.36003851  0.08392247  0.25544041  1
  Na  Na26  1  0.35957499  0.08305325  0.50582903  1
  Na  Na27  1  0.36015053  0.08188446  0.75752642  1
  Na  Na28  1  0.36000418  0.41716048  0.00564868  1
  Na  Na29  1  0.35984327  0.41772205  0.25621396  1
  Na  Na30  1  0.35944790  0.41704661  0.50540438  1
  Na  Na31  1  0.35917336  0.41613776  0.75596096  1
  Na  Na32  1  0.35942652  0.75098303  0.00627294  1
  Na  Na33  1  0.35978255  0.75130679  0.25706858  1
  Na  Na34  1  0.36019865  0.74982501  0.50753940  1
  Na  Na35  1  0.36016587  0.74959086  0.75613163  1
  Na  Na36  1  0.85969468  0.08532475  0.00619734  1
  Na  Na37  1  0.85969962  0.08254033  0.25605134  1
  Na  Na38  1  0.85943514  0.08316582  0.50667553  1
  Na  Na39  1  0.85979030  0.08429624  0.75644501  1
  Na  Na40  1  0.85936958  0.41758571  0.00585936  1
  Na  Na41  1  0.85980106  0.41624360  0.25658327  1
  Na  Na42  1  0.85960755  0.41586114  0.50668802  1
  Na  Na43  1  0.85936336  0.41602606  0.75642986  1
  Na  Na44  1  0.85942640  0.75100087  0.00647145  1
  Na  Na45  1  0.85980809  0.74980549  0.25688490  1
  Na  Na46  1  0.85976265  0.74911249  0.50586690  1
  Na  Na47  1  0.85948737  0.74988438  0.75548846  1
  Na  Na48  1  0.10970289  0.08288513  0.11932837  1
  Na  Na49  1  0.10928159  0.08371007  0.36860672  1
  Na  Na50  1  0.10960674  0.08364900  0.61858599  1
  Na  Na51  1  0.10987191  0.08362207  0.86866615  1
  Na  Na52  1  0.10974614  0.41673368  0.12025077  1
  Na  Na53  1  0.10966674  0.41753666  0.36785086  1
  Na  Na54  1  0.10940269  0.41794327  0.61718066  1
  Na  Na55  1  0.10951229  0.41705888  0.86878623  1
  Na  Na56  1  0.10985738  0.75053897  0.11961418  1
  Na  Na57  1  0.10898260  0.74998278  0.36825697  1
  Na  Na58  1  0.10949300  0.75035745  0.61928008  1
  Na  Na59  1  0.10985037  0.75051913  0.86856584  1
  Na  Na60  1  0.60971927  0.08330299  0.11818263  1
  Na  Na61  1  0.60987686  0.08110741  0.36858618  1
  Na  Na62  1  0.60952773  0.08236337  0.61937712  1
  Na  Na63  1  0.60935723  0.08414662  0.86807796  1
  Na  Na64  1  0.60997049  0.41591561  0.11778983  1
  Na  Na65  1  0.60950324  0.41527526  0.36859466  1
  Na  Na66  1  0.60957487  0.41570369  0.61971065  1
  Na  Na67  1  0.60999454  0.41704929  0.86788774  1
  Na  Na68  1  0.60937329  0.75009886  0.11902693  1
  Na  Na69  1  0.60966259  0.74794589  0.36922883  1
  Na  Na70  1  0.60984206  0.74959692  0.61844856  1
  Na  Na71  1  0.60939033  0.75087176  0.86821998  1
  Na  Na72  1  0.39106135  0.25022139  0.13058749  1
  Na  Na73  1  0.39073611  0.24937649  0.38027584  1
  Na  Na74  1  0.39030839  0.24883242  0.63198528  1
  Na  Na75  1  0.39033675  0.24943368  0.88118796  1
  Na  Na76  1  0.39051813  0.58297450  0.13162676  1
  Na  Na77  1  0.39023647  0.58291891  0.38177039  1
  Na  Na78  1  0.38992474  0.58404673  0.63177151  1
  Na  Na79  1  0.39054984  0.58404015  0.88005329  1
  Na  Na80  1  0.39016944  0.91806453  0.13156468  1
  Na  Na81  1  0.39018791  0.91584742  0.38116707  1
  Na  Na82  1  0.39091785  0.91623282  0.63227459  1
  Na  Na83  1  0.39063556  0.91712621  0.88126607  1
  Na  Na84  1  0.89033364  0.24994896  0.13104062  1
  Na  Na85  1  0.89048991  0.25025181  0.38183364  1
  Na  Na86  1  0.88999222  0.25033461  0.63192988  1
  Na  Na87  1  0.88999661  0.25051433  0.88113905  1
  Na  Na88  1  0.89046043  0.58350406  0.13300936  1
  Na  Na89  1  0.89015542  0.58286738  0.38070548  1
  Na  Na90  1  0.89025574  0.58458133  0.63129464  1
  Na  Na91  1  0.89024202  0.58312491  0.88072809  1
  Na  Na92  1  0.89054060  0.91654312  0.13258537  1
  Na  Na93  1  0.89023490  0.91685337  0.38106261  1
  Na  Na94  1  0.89052969  0.91652430  0.63137667  1
  Na  Na95  1  0.89054879  0.91800918  0.88020844  1
  Mn  Mn96  1  0.25035724  0.66723925  0.87538246  1
  Mn  Mn97  1  0.74913440  0.50000428  0.37559745  1
  Mn  Mn98  1  0.49927736  0.49977737  0.50053121  1
  Mn  Mn99  1  0.24975730  0.16667274  0.37450767  1
  Mn  Mn100  1  0.00076976  0.33433113  0.74992830  1
  Mn  Mn101  1  0.24989777  -0.00050370  0.87558137  1
  Mn  Mn102  1  0.00022912  0.16704158  0.25049267  1
  Mn  Mn103  1  0.50037263  0.33211419  0.49951354  1
  Mn  Mn104  1  0.74923843  0.66635220  0.87495659  1
  Mn  Mn105  1  0.49998829  0.33359976  -0.00012998  1
  Mn  Mn106  1  0.74991932  0.83228530  0.37439567  1
  Mn  Mn107  1  -0.00042980  0.50066154  0.49913470  1
  Mn  Mn108  1  0.00049949  0.00066227  0.50020032  1
  Mn  Mn109  1  0.75003675  0.16685116  0.12480691  1
  Mn  Mn110  1  0.25041957  0.16537824  0.62357205  1
  Mn  Mn111  1  0.24903337  0.33263987  0.87500943  1
  Mn  Mn112  1  0.25041585  0.66744565  0.12547667  1
  Mn  Mn113  1  0.49948810  0.66607509  0.24979772  1
  Mn  Mn114  1  0.74960148  0.83382300  0.87533919  1
  Mn  Mn115  1  0.49962897  -0.00180042  0.49978130  1
  Mn  Mn116  1  0.74996979  0.33216715  0.37561321  1
  Mn  Mn117  1  0.25035298  0.83319520  0.62500418  1
  Mn  Mn118  1  0.50005072  0.16535529  0.50083695  1
  Mn  Mn119  1  0.00058384  0.16681411  0.74987174  1
  Mn  Mn120  1  -0.00018807  0.66684832  0.00018784  1
  Mn  Mn121  1  0.25049984  0.16699413  0.12531658  1
  Mn  Mn122  1  0.75012091  -0.00044714  0.62512277  1
  Mn  Mn123  1  0.50006403  -0.00059648  0.25002226  1
  Mn  Mn124  1  0.24966274  0.83486290  0.37619744  1
  Mn  Mn125  1  0.49964115  0.83451193  -0.00079818  1
  Mn  Mn126  1  0.75044653  0.16488927  0.37434937  1
  Mn  Mn127  1  0.74981945  0.49915486  0.62494448  1
  Mn  Mn128  1  0.00023701  0.49998405  0.00085857  1
  Mn  Mn129  1  -0.00043182  0.33295256  0.00002517  1
  Mn  Mn130  1  0.50041347  0.33252216  0.24898768  1
  Mn  Mn131  1  0.75007265  0.49992135  0.12487255  1
  Mn  Mn132  1  0.75040144  0.00136230  0.87370615  1
  Mn  Mn133  1  0.25058914  0.33456374  0.12421607  1
  Mn  Mn134  1  0.74994931  0.83366032  0.12522670  1
  Mn  Mn135  1  0.49934727  0.66659791  -0.00006445  1
  Mn  Mn136  1  0.24993952  0.50023009  0.87464457  1
  Mn  Mn137  1  0.00036617  0.00056532  0.00043188  1
  Mn  Mn138  1  0.49998392  0.50050357  0.74921046  1
  Mn  Mn139  1  0.00004046  0.66707214  0.75010881  1
  Mn  Mn140  1  0.24982473  0.66679076  0.37541362  1
  Mn  Mn141  1  -0.00002846  0.83378058  0.00031448  1
  Mn  Mn142  1  0.25030497  0.33361535  0.62424969  1
  Mn  Mn143  1  0.00035500  0.83318979  0.49994953  1
  Fe  Fe144  1  -0.00030271  0.50071048  0.74942306  1
  Fe  Fe145  1  0.24950771  0.66640527  0.62518196  1
  Fe  Fe146  1  0.25030332  0.33427127  0.37455774  1
  Fe  Fe147  1  0.74946627  0.33238170  0.62606526  1
  Fe  Fe148  1  0.50063137  0.66726211  0.75002737  1
  Fe  Fe149  1  0.74986569  -0.00119797  0.37563317  1
  Fe  Fe150  1  0.00021717  0.33302993  0.25038643  1
  Fe  Fe151  1  -0.00049158  0.83373262  0.74975448  1
  Fe  Fe152  1  0.75046955  0.83234354  0.62391851  1
  Fe  Fe153  1  0.25025170  0.50073313  0.37506104  1
  Fe  Fe154  1  0.49944659  0.33339799  0.75034245  1
  Fe  Fe155  1  0.25017136  -0.00051278  0.62576852  1
  Fe  Fe156  1  0.74985065  0.33355450  0.87454030  1
  Fe  Fe157  1  0.24985308  0.00048819  0.12498816  1
  Fe  Fe158  1  0.50040427  0.16587730  0.24943681  1
  Fe  Fe159  1  0.50041823  0.50026504  -0.00103199  1
  Fe  Fe160  1  0.50050720  -0.00014556  0.75029473  1
  Fe  Fe161  1  0.75015575  0.66606091  0.37521967  1
  Fe  Fe162  1  0.50020338  0.49942305  0.24992752  1
  Fe  Fe163  1  0.50068258  0.16661086  -0.00075586  1
  Fe  Fe164  1  0.24967924  0.49983834  0.62459001  1
  Fe  Fe165  1  0.74994782  0.66657493  0.12482365  1
  Fe  Fe166  1  0.25008769  0.83444619  0.12582930  1
  Fe  Fe167  1  0.50028461  0.83335044  0.75002731  1
  Fe  Fe168  1  0.00002374  0.49970049  0.25074178  1
  Fe  Fe169  1  0.75013668  0.66591225  0.62494588  1
  Fe  Fe170  1  0.74976876  0.16776079  0.87528406  1
  Fe  Fe171  1  0.24998278  0.50064617  0.12529390  1
  Fe  Fe172  1  0.00037223  0.16652238  0.00051722  1
  Fe  Fe173  1  0.25013999  0.00031752  0.37477194  1
  Fe  Fe174  1  0.00004818  0.83316324  0.25057403  1
  Fe  Fe175  1  0.50048871  0.00047492  -0.00002329  1
  Fe  Fe176  1  0.49955894  0.16622085  0.75077135  1
  Fe  Fe177  1  -0.00041903  0.33403276  0.49990060  1
  Fe  Fe178  1  -0.00025461  0.66687531  0.49952255  1
  Fe  Fe179  1  0.75004638  0.00041628  0.12466268  1
  Fe  Fe180  1  -0.00006364  0.66663147  0.25029597  1
  Fe  Fe181  1  0.50017490  0.66641202  0.49998025  1
  Fe  Fe182  1  -0.00038164  0.00045105  0.25029502  1
  Fe  Fe183  1  -0.00058623  0.16719699  0.49984117  1
  Fe  Fe184  1  -0.00025391  0.00056923  0.74979373  1
  Fe  Fe185  1  0.50001329  0.83205979  0.50096139  1
  Fe  Fe186  1  0.24973381  0.83351168  0.87531709  1
  Fe  Fe187  1  0.49988305  0.83259660  0.25045857  1
  Fe  Fe188  1  0.75049337  0.50002156  0.87498147  1
  Fe  Fe189  1  0.74962687  0.16624402  0.62527812  1
  Fe  Fe190  1  0.25032846  0.16602526  0.87489211  1
  Fe  Fe191  1  0.75025878  0.33367398  0.12435030  1
  P  P192  1  0.04226929  0.24891780  0.10312143  1
  P  P193  1  0.04221616  0.25164889  0.35358556  1
  P  P194  1  0.04140168  0.25034150  0.60117026  1
  P  P195  1  0.04326035  0.25011708  0.85334521  1
  P  P196  1  0.04243254  0.58370550  0.10469095  1
  P  P197  1  0.04122942  0.58376475  0.35189887  1
  P  P198  1  0.04170361  0.58490848  0.60216200  1
  P  P199  1  0.04273028  0.58236666  0.85225508  1
  P  P200  1  0.04228467  0.91677976  0.10451372  1
  P  P201  1  0.04127696  0.91714398  0.35163955  1
  P  P202  1  0.04251989  0.91702046  0.60400342  1
  P  P203  1  0.04137412  0.91727879  0.85134820  1
  P  P204  1  0.54256576  0.24838036  0.10199960  1
  P  P205  1  0.54278548  0.24777500  0.35192016  1
  P  P206  1  0.54208116  0.24936832  0.60465714  1
  P  P207  1  0.54093006  0.24980088  0.85194513  1
  P  P208  1  0.54198289  0.58171913  0.10251857  1
  P  P209  1  0.54197286  0.58195707  0.35265030  1
  P  P210  1  0.54180352  0.58496389  0.60296203  1
  P  P211  1  0.54255524  0.58450704  0.85233260  1
  P  P212  1  0.54219796  0.91799385  0.10256021  1
  P  P213  1  0.54208783  0.91397938  0.35299639  1
  P  P214  1  0.54200770  0.91467233  0.60342223  1
  P  P215  1  0.54167285  0.91708666  0.85173451  1
  P  P216  1  0.45829784  0.08434318  0.14653183  1
  P  P217  1  0.45747162  0.08252658  0.39649074  1
  P  P218  1  0.45848834  0.08268758  0.64902726  1
  P  P219  1  0.45906738  0.08310638  0.89760825  1
  P  P220  1  0.45822882  0.41792542  0.14674421  1
  P  P221  1  0.45750968  0.41619625  0.39622213  1
  P  P222  1  0.45745756  0.41531586  0.64754904  1
  P  P223  1  0.45797129  0.41777431  0.89661150  1
  P  P224  1  0.45740197  0.75136267  0.14760505  1
  P  P225  1  0.45830246  0.74955042  0.39856012  1
  P  P226  1  0.45895826  0.75004891  0.64801978  1
  P  P227  1  0.45731860  0.75043072  0.89589524  1
  P  P228  1  0.95767730  0.08276631  0.14770599  1
  P  P229  1  0.95765842  0.08452554  0.39740223  1
  P  P230  1  0.95759569  0.08296298  0.64717194  1
  P  P231  1  0.95800865  0.08462329  0.89744065  1
  P  P232  1  0.95868829  0.41608914  0.14900807  1
  P  P233  1  0.95772971  0.41560899  0.39675123  1
  P  P234  1  0.95783607  0.41820128  0.64691595  1
  P  P235  1  0.95718998  0.41731092  0.89658804  1
  P  P236  1  0.95854143  0.74991901  0.14899777  1
  P  P237  1  0.95804350  0.74880135  0.39655256  1
  P  P238  1  0.95771507  0.75115387  0.64716423  1
  P  P239  1  0.95713472  0.75065864  0.89646099  1
  P  P240  1  0.20789495  0.08247883  0.22778182  1
  P  P241  1  0.20761671  0.08169833  0.47741557  1
  P  P242  1  0.20810847  0.08199495  0.72775030  1
  P  P243  1  0.20804088  0.08428980  0.97785427  1
  P  P244  1  0.20844888  0.41849021  0.22822807  1
  P  P245  1  0.20856304  0.41760113  0.47636101  1
  P  P246  1  0.20724012  0.41741720  0.72677286  1
  P  P247  1  0.20695369  0.41739601  0.97839619  1
  P  P248  1  0.20794744  0.75205636  0.22792459  1
  P  P249  1  0.20724883  0.75003783  0.47894875  1
  P  P250  1  0.20784283  0.74906387  0.72773157  1
  P  P251  1  0.20775715  0.75217928  0.97829333  1
  P  P252  1  0.70770721  0.08144971  0.22754233  1
  P  P253  1  0.70774241  0.08136971  0.47790978  1
  P  P254  1  0.70781855  0.08487529  0.72775453  1
  P  P255  1  0.70796371  0.08505232  0.97718105  1
  P  P256  1  0.70763275  0.41509712  0.22718309  1
  P  P257  1  0.70688964  0.41565510  0.47896364  1
  P  P258  1  0.70798721  0.41493971  0.72848654  1
  P  P259  1  0.70862841  0.41682642  0.97642692  1
  P  P260  1  0.70789787  0.74813740  0.22763992  1
  P  P261  1  0.70818309  0.74805091  0.47802314  1
  P  P262  1  0.70865222  0.74972374  0.72610976  1
  P  P263  1  0.70683456  0.75004472  0.97864429  1
  P  P264  1  0.29314437  0.24975123  0.02122164  1
  P  P265  1  0.29232205  0.25173108  0.27240279  1
  P  P266  1  0.29275063  0.25043293  0.52070124  1
  P  P267  1  0.29203090  0.24818441  0.77229713  1
  P  P268  1  0.29270404  0.58277042  0.02294496  1
  P  P269  1  0.29220796  0.58276421  0.27246145  1
  P  P270  1  0.29126758  0.58297167  0.52327410  1
  P  P271  1  0.29247787  0.58361503  0.77082940  1
  P  P272  1  0.29148323  0.91688481  0.02351930  1
  P  P273  1  0.29206397  0.91833659  0.27201577  1
  P  P274  1  0.29269997  0.91847979  0.52273836  1
  P  P275  1  0.29214526  0.91515862  0.77274164  1
  P  P276  1  0.79195780  0.25190158  0.02161072  1
  P  P277  1  0.79311617  0.24953349  0.27151611  1
  P  P278  1  0.79125723  0.24934188  0.52408145  1
  P  P279  1  0.79122531  0.24997801  0.77286196  1
  P  P280  1  0.79262660  0.58439336  0.02238599  1
  P  P281  1  0.79170086  0.58418441  0.27235117  1
  P  P282  1  0.79211974  0.58412615  0.52234900  1
  P  P283  1  0.79200821  0.58213198  0.77214376  1
  P  P284  1  0.79249095  0.91861503  0.02252572  1
  P  P285  1  0.79190635  0.91778353  0.27225779  1
  P  P286  1  0.79236013  0.91507116  0.52203619  1
  P  P287  1  0.79242227  0.91612973  0.77091235  1
  O  O288  1  0.03708131  0.24951295  0.18309011  1
  O  O289  1  0.03675623  0.25158955  0.43346699  1
  O  O290  1  0.03684587  0.25040345  0.68123532  1
  O  O291  1  0.03805308  0.24965327  0.93330033  1
  O  O292  1  0.03699700  0.58380028  0.18460188  1
  O  O293  1  0.03626217  0.58396940  0.43186771  1
  O  O294  1  0.03655887  0.58414276  0.68209244  1
  O  O295  1  0.03770985  0.58269406  0.93227938  1
  O  O296  1  0.03687184  0.91692360  0.18438430  1
  O  O297  1  0.03675329  0.91690744  0.43166609  1
  O  O298  1  0.03690297  0.91703311  0.68386835  1
  O  O299  1  0.03644884  0.91724837  0.93140316  1
  O  O300  1  0.53739298  0.24820664  0.18196016  1
  O  O301  1  0.53744833  0.24813633  0.43190925  1
  O  O302  1  0.53634846  0.24975819  0.68453864  1
  O  O303  1  0.53615321  0.24962012  0.93197011  1
  O  O304  1  0.53662044  0.58137613  0.18251394  1
  O  O305  1  0.53676059  0.58277368  0.43261910  1
  O  O306  1  0.53663547  0.58535597  0.68292101  1
  O  O307  1  0.53713851  0.58367842  0.93229177  1
  O  O308  1  0.53712897  0.91733897  0.18247366  1
  O  O309  1  0.53677513  0.91376832  0.43295984  1
  O  O310  1  0.53693027  0.91509131  0.68333931  1
  O  O311  1  0.53680558  0.91793362  0.93170213  1
  O  O312  1  0.46388554  0.08421451  0.06664033  1
  O  O313  1  0.46274647  0.08294096  0.31654922  1
  O  O314  1  0.46299239  0.08209844  0.56900001  1
  O  O315  1  0.46423046  0.08306148  0.81768207  1
  O  O316  1  0.46358890  0.41822196  0.06676114  1
  O  O317  1  0.46298218  0.41662482  0.31624813  1
  O  O318  1  0.46250580  0.41529493  0.56756012  1
  O  O319  1  0.46331919  0.41695256  0.81665708  1
  O  O320  1  0.46237839  0.75122555  0.06765395  1
  O  O321  1  0.46319128  0.74978879  0.31855803  1
  O  O322  1  0.46402858  0.74989104  0.56804867  1
  O  O323  1  0.46296550  0.75032007  0.81600870  1
  O  O324  1  0.96306697  0.08347117  0.06777323  1
  O  O325  1  0.96313629  0.08389138  0.31748281  1
  O  O326  1  0.96285074  0.08386846  0.56723109  1
  O  O327  1  0.96318602  0.08378838  0.81746240  1
  O  O328  1  0.96351040  0.41640411  0.06900395  1
  O  O329  1  0.96304618  0.41544543  0.31687251  1
  O  O330  1  0.96294033  0.41750006  0.56691481  1
  O  O331  1  0.96239560  0.41790373  0.81661044  1
  O  O332  1  0.96293494  0.75019704  0.06893246  1
  O  O333  1  0.96356351  0.74895221  0.31665376  1
  O  O334  1  0.96284539  0.75062667  0.56721325  1
  O  O335  1  0.96222674  0.75120197  0.81647640  1
  O  O336  1  0.21305778  0.08386937  0.05780458  1
  O  O337  1  0.21312780  0.08236250  0.30773722  1
  O  O338  1  0.21301999  0.08150203  0.55737768  1
  O  O339  1  0.21323630  0.08293271  0.80774105  1
  O  O340  1  0.21230394  0.41797214  0.05835882  1
  O  O341  1  0.21405845  0.41813058  0.30811166  1
  O  O342  1  0.21334143  0.41776104  0.55637858  1
  O  O343  1  0.21210533  0.41684407  0.80675416  1
  O  O344  1  0.21327305  0.75236806  0.05826131  1
  O  O345  1  0.21270514  0.75181548  0.30793894  1
  O  O346  1  0.21250785  0.74940930  0.55889255  1
  O  O347  1  0.21280930  0.74954889  0.80771569  1
  O  O348  1  0.71314206  0.08425240  0.05713123  1
  O  O349  1  0.71302340  0.08105222  0.30752559  1
  O  O350  1  0.71298871  0.08237408  0.55786514  1
  O  O351  1  0.71291928  0.08547658  0.80769536  1
  O  O352  1  0.71380796  0.41650385  0.05643730  1
  O  O353  1  0.71241383  0.41537784  0.30717685  1
  O  O354  1  0.71209971  0.41533654  0.55893508  1
  O  O355  1  0.71362963  0.41531277  0.80836470  1
  O  O356  1  0.71218380  0.74978668  0.05858604  1
  O  O357  1  0.71336810  0.74802996  0.30760715  1
  O  O358  1  0.71384614  0.74849669  0.55789196  1
  O  O359  1  0.71319704  0.74990606  0.80615967  1
  O  O360  1  0.28741581  0.25155650  0.19239271  1
  O  O361  1  0.28743243  0.25104952  0.44075990  1
  O  O362  1  0.28726078  0.24837980  0.69224630  1
  O  O363  1  0.28774462  0.24899696  0.94125624  1
  O  O364  1  0.28726134  0.58288106  0.19249064  1
  O  O365  1  0.28641010  0.58272701  0.44323444  1
  O  O366  1  0.28704133  0.58361723  0.69088537  1
  O  O367  1  0.28753656  0.58330090  0.94296496  1
  O  O368  1  0.28661169  0.91779970  0.19210933  1
  O  O369  1  0.28754598  0.91876983  0.44275129  1
  O  O370  1  0.28726783  0.91576842  0.69280015  1
  O  O371  1  0.28627069  0.91621065  0.94354201  1
  O  O372  1  0.78810263  0.25012238  0.19155330  1
  O  O373  1  0.78668936  0.24881833  0.44405857  1
  O  O374  1  0.78580759  0.24966565  0.69297191  1
  O  O375  1  0.78633948  0.25181501  0.94172509  1
  O  O376  1  0.78664915  0.58429006  0.19237393  1
  O  O377  1  0.78674868  0.58414583  0.44238094  1
  O  O378  1  0.78680002  0.58252986  0.69218772  1
  O  O379  1  0.78715851  0.58348522  0.94245061  1
  O  O380  1  0.78660746  0.91814531  0.19231047  1
  O  O381  1  0.78705687  0.91548594  0.44205982  1
  O  O382  1  0.78723659  0.91540234  0.69094175  1
  O  O383  1  0.78732109  0.91822798  0.94252237  1
  O  O384  1  0.22886509  0.25030660  0.05662402  1
  O  O385  1  0.22802949  0.25159386  0.30780739  1
  O  O386  1  0.22844443  0.24991265  0.55605987  1
  O  O387  1  0.22767335  0.24786032  0.80761691  1
  O  O388  1  0.22839950  0.58274370  0.05851909  1
  O  O389  1  0.22787599  0.58259916  0.30795948  1
  O  O390  1  0.22706208  0.58267573  0.55912428  1
  O  O391  1  0.22829256  0.58392395  0.80657765  1
  O  O392  1  0.22739528  0.91730063  0.05965343  1
  O  O393  1  0.22789902  0.91894883  0.30820565  1
  O  O394  1  0.22838384  0.91817812  0.55826166  1
  O  O395  1  0.22782310  0.91514997  0.80829117  1
  O  O396  1  0.72791561  0.25188549  0.05796635  1
  O  O397  1  0.72870920  0.24879749  0.30661887  1
  O  O398  1  0.72697636  0.24967606  0.55956472  1
  O  O399  1  0.72725487  0.25007224  0.80948239  1
  O  O400  1  0.72833871  0.58464571  0.05818084  1
  O  O401  1  0.72744900  0.58433879  0.30810374  1
  O  O402  1  0.72791152  0.58400237  0.55814356  1
  O  O403  1  0.72778357  0.58155381  0.80791575  1
  O  O404  1  0.72811477  0.91834225  0.05791884  1
  O  O405  1  0.72772507  0.91753951  0.30816994  1
  O  O406  1  0.72817311  0.91480265  0.55788131  1
  O  O407  1  0.72809290  0.91696657  0.80622451  1
  O  O408  1  0.27213261  0.08221015  0.19203135  1
  O  O409  1  0.27187286  0.08203254  0.44167554  1
  O  O410  1  0.27242963  0.08162539  0.69212050  1
  O  O411  1  0.27231657  0.08405995  0.94223426  1
  O  O412  1  0.27246364  0.41903450  0.19174472  1
  O  O413  1  0.27274924  0.41789641  0.44055243  1
  O  O414  1  0.27169289  0.41811108  0.69159373  1
  O  O415  1  0.27125353  0.41656164  0.94303760  1
  O  O416  1  0.27228586  0.75189925  0.19258922  1
  O  O417  1  0.27157282  0.75051345  0.44367061  1
  O  O418  1  0.27208617  0.74855422  0.69210439  1
  O  O419  1  0.27196731  0.75222466  0.94238001  1
  O  O420  1  0.77194531  0.08185535  0.19174415  1
  O  O421  1  0.77202728  0.08075898  0.44216516  1
  O  O422  1  0.77206340  0.08436242  0.69214715  1
  O  O423  1  0.77221948  0.08561635  0.94145519  1
  O  O424  1  0.77204445  0.41511616  0.19186498  1
  O  O425  1  0.77122390  0.41624072  0.44367559  1
  O  O426  1  0.77197964  0.41470590  0.69209761  1
  O  O427  1  0.77268713  0.41683876  0.94027825  1
  O  O428  1  0.77207001  0.74839002  0.19166325  1
  O  O429  1  0.77222221  0.74794784  0.44164993  1
  O  O430  1  0.77285766  0.74975198  0.69041766  1
  O  O431  1  0.77114182  0.75006132  0.94329514  1
  O  O432  1  0.02189746  0.08218570  0.18356896  1
  O  O433  1  0.02188504  0.08551100  0.43326535  1
  O  O434  1  0.02189921  0.08216412  0.68284286  1
  O  O435  1  0.02228315  0.08513511  0.93322097  1
  O  O436  1  0.02285791  0.41586632  0.18481137  1
  O  O437  1  0.02186630  0.41575901  0.43281825  1
  O  O438  1  0.02214282  0.41891267  0.68258446  1
  O  O439  1  0.02149643  0.41665098  0.93197339  1
  O  O440  1  0.02284168  0.74939567  0.18436027  1
  O  O441  1  0.02212436  0.74849436  0.43286219  1
  O  O442  1  0.02189703  0.75151678  0.68301509  1
  O  O443  1  0.02153933  0.75028880  0.93168722  1
  O  O444  1  0.52234496  0.08425519  0.18296710  1
  O  O445  1  0.52173928  0.08195255  0.43198389  1
  O  O446  1  0.52276425  0.08370765  0.68448948  1
  O  O447  1  0.52310885  0.08273770  0.93399949  1
  O  O448  1  0.52244139  0.41754647  0.18262647  1
  O  O449  1  0.52171563  0.41646569  0.43188499  1
  O  O450  1  0.52178377  0.41543210  0.68293568  1
  O  O451  1  0.52217556  0.41808466  0.93258378  1
  O  O452  1  0.52172598  0.75088610  0.18309458  1
  O  O453  1  0.52248650  0.74908240  0.43457515  1
  O  O454  1  0.52304256  0.75038114  0.68437144  1
  O  O455  1  0.52143491  0.75035758  0.93181708  1
  O  O456  1  0.47834066  0.24858606  0.06623663  1
  O  O457  1  0.47853567  0.24777979  0.31613542  1
  O  O458  1  0.47799001  0.24922469  0.56855656  1
  O  O459  1  0.47681551  0.24948458  0.81600423  1
  O  O460  1  0.47778014  0.58133716  0.06658283  1
  O  O461  1  0.47773070  0.58152338  0.31685054  1
  O  O462  1  0.47758902  0.58505037  0.56712909  1
  O  O463  1  0.47837510  0.58505138  0.81644341  1
  O  O464  1  0.47793084  0.91880932  0.06678112  1
  O  O465  1  0.47788711  0.91446413  0.31708970  1
  O  O466  1  0.47782360  0.91437576  0.56741551  1
  O  O467  1  0.47752705  0.91618931  0.81587897  1
  O  O468  1  0.97802971  0.24831199  0.06726746  1
  O  O469  1  0.97809479  0.25162432  0.31742565  1
  O  O470  1  0.97705231  0.24997189  0.56573298  1
  O  O471  1  0.97892371  0.25051863  0.81801248  1
  O  O472  1  0.97818999  0.58380242  0.06892630  1
  O  O473  1  0.97711921  0.58399797  0.31596176  1
  O  O474  1  0.97748204  0.58513028  0.56631642  1
  O  O475  1  0.97831365  0.58229599  0.81684959  1
  O  O476  1  0.97811598  0.91720799  0.06865899  1
  O  O477  1  0.97705008  0.91754324  0.31608447  1
  O  O478  1  0.97843684  0.91695519  0.56797558  1
  O  O479  1  0.97719152  0.91752564  0.81545608  1
  O  O480  1  0.07330046  0.31245475  0.07512832  1
  O  O481  1  0.07311079  0.31493322  0.32454916  1
  O  O482  1  0.07175388  0.31431901  0.57310183  1
  O  O483  1  0.07438315  0.31362753  0.82525173  1
  O  O484  1  0.07369353  0.64693412  0.07598964  1
  O  O485  1  0.07285153  0.64681978  0.32363527  1
  O  O486  1  0.07224001  0.64868116  0.57400401  1
  O  O487  1  0.07376982  0.64605047  0.82454782  1
  O  O488  1  0.07383061  0.97984856  0.07584076  1
  O  O489  1  0.07229531  0.98072384  0.32377057  1
  O  O490  1  0.07378514  0.98036040  0.57559593  1
  O  O491  1  0.07226840  0.98101285  0.82354755  1
  O  O492  1  0.57350815  0.31227023  0.07443569  1
  O  O493  1  0.57390603  0.31139210  0.32415724  1
  O  O494  1  0.57341322  0.31251797  0.57595580  1
  O  O495  1  0.57117341  0.31394520  0.82396173  1
  O  O496  1  0.57243155  0.64599443  0.07527822  1
  O  O497  1  0.57292179  0.64544207  0.32421822  1
  O  O498  1  0.57292312  0.64797362  0.57393090  1
  O  O499  1  0.57351128  0.64813401  0.82433821  1
  O  O500  1  0.57315094  0.98146451  0.07414510  1
  O  O501  1  0.57343325  0.97753894  0.32541564  1
  O  O502  1  0.57302172  0.97826369  0.57515604  1
  O  O503  1  0.57200729  0.98088797  0.82291922  1
  O  O504  1  0.42693620  0.02093169  0.17459040  1
  O  O505  1  0.42629212  0.01897712  0.42439852  1
  O  O506  1  0.42871384  0.01853652  0.67766390  1
  O  O507  1  0.42785549  0.01969221  0.92602703  1
  O  O508  1  0.42711279  0.35397384  0.17387315  1
  O  O509  1  0.42678216  0.35234753  0.42392942  1
  O  O510  1  0.42679643  0.35188849  0.67632749  1
  O  O511  1  0.42672777  0.35441685  0.92485810  1
  O  O512  1  0.42608970  0.68783293  0.17530325  1
  O  O513  1  0.42743948  0.68577131  0.42659238  1
  O  O514  1  0.42826480  0.68633052  0.67640388  1
  O  O515  1  0.42595234  0.68718943  0.92436253  1
  O  O516  1  0.92679310  0.01920841  0.17594939  1
  O  O517  1  0.92686413  0.02089053  0.42549711  1
  O  O518  1  0.92667986  0.01940232  0.67532194  1
  O  O519  1  0.92681236  0.02121421  0.92560354  1
  O  O520  1  0.92768161  0.35241181  0.17663122  1
  O  O521  1  0.92680506  0.35241526  0.42601629  1
  O  O522  1  0.92701878  0.35457089  0.67509977  1
  O  O523  1  0.92601780  0.35373806  0.92444841  1
  O  O524  1  0.92719421  0.68658702  0.17697390  1
  O  O525  1  0.92709291  0.68546057  0.42532884  1
  O  O526  1  0.92651581  0.68772424  0.67523126  1
  O  O527  1  0.92621310  0.68693552  0.92433967  1
  O  O528  1  0.17686579  0.01935294  0.19875628  1
  O  O529  1  0.17675256  0.01839715  0.44859989  1
  O  O530  1  0.17762837  0.01801247  0.69984280  1
  O  O531  1  0.17652566  0.02090191  0.94984684  1
  O  O532  1  0.17744288  0.35478258  0.20017127  1
  O  O533  1  0.17837377  0.35348448  0.44801985  1
  O  O534  1  0.17672068  0.35354861  0.69855528  1
  O  O535  1  0.17562846  0.35383054  0.95056519  1
  O  O536  1  0.17687303  0.68842020  0.20008582  1
  O  O537  1  0.17620835  0.68683450  0.45006425  1
  O  O538  1  0.17693388  0.68558166  0.69909334  1
  O  O539  1  0.17686600  0.68821775  0.95074904  1
  O  O540  1  0.67690469  0.01815113  0.19856229  1
  O  O541  1  0.67696457  0.01755177  0.45000102  1
  O  O542  1  0.67663837  0.02108348  0.70032265  1
  O  O543  1  0.67694082  0.02162837  0.94866228  1
  O  O544  1  0.67705793  0.35154275  0.19852646  1
  O  O545  1  0.67590509  0.35227945  0.45039784  1
  O  O546  1  0.67695528  0.35148241  0.69997961  1
  O  O547  1  0.67728347  0.35353899  0.94807370  1
  O  O548  1  0.67690706  0.68487697  0.19891561  1
  O  O549  1  0.67717909  0.68461692  0.44947300  1
  O  O550  1  0.67818364  0.68565345  0.69824651  1
  O  O551  1  0.67551475  0.68685974  0.95008880  1
  O  O552  1  0.32435989  0.31342088  0.04887213  1
  O  O553  1  0.32285775  0.31541652  0.30081554  1
  O  O554  1  0.32382403  0.31365376  0.54955039  1
  O  O555  1  0.32274829  0.31208031  0.80004655  1
  O  O556  1  0.32377577  0.64645108  0.05080827  1
  O  O557  1  0.32291725  0.64671718  0.30041836  1
  O  O558  1  0.32149129  0.64713857  0.55141154  1
  O  O559  1  0.32393577  0.64673724  0.79952736  1
  O  O560  1  0.32223670  0.98092193  0.05111516  1
  O  O561  1  0.32329273  0.98167425  0.30039181  1
  O  O562  1  0.32347423  0.98168349  0.55198468  1
  O  O563  1  0.32339519  0.97850913  0.80113708  1
  O  O564  1  0.82287679  0.31534573  0.05036967  1
  O  O565  1  0.82389866  0.31283813  0.30053695  1
  O  O566  1  0.82207002  0.31307517  0.55214551  1
  O  O567  1  0.82233250  0.31360367  0.80094172  1
  O  O568  1  0.82327058  0.64814146  0.05051549  1
  O  O569  1  0.82280487  0.64735058  0.30121114  1
  O  O570  1  0.82303256  0.64745552  0.55111609  1
  O  O571  1  0.82296824  0.64578433  0.80015715  1
  O  O572  1  0.82291283  0.98241575  0.05075356  1
  O  O573  1  0.82289331  0.98086146  0.30143094  1
  O  O574  1  0.82363588  0.97849077  0.55013393  1
  O  O575  1  0.82364911  0.97988037  0.79842580  1
  O  O576  1  0.42745922  0.14786355  0.17520929  1
  O  O577  1  0.42643507  0.14584079  0.42510493  1
  O  O578  1  0.42691294  0.14595192  0.67695521  1
  O  O579  1  0.42849448  0.14697734  0.92592207  1
  O  O580  1  0.42740203  0.48109652  0.17593383  1
  O  O581  1  0.42596258  0.47924632  0.42483311  1
  O  O582  1  0.42640040  0.47916065  0.67483973  1
  O  O583  1  0.42725255  0.48156700  0.92454664  1
  O  O584  1  0.42713650  0.81509109  0.17628522  1
  O  O585  1  0.42753933  0.81311641  0.42712980  1
  O  O586  1  0.42775074  0.81352721  0.67637451  1
  O  O587  1  0.42613949  0.81390190  0.92418105  1
  O  O588  1  0.92653432  0.14623171  0.17585060  1
  O  O589  1  0.92655482  0.14803350  0.42559577  1
  O  O590  1  0.92668520  0.14648441  0.67559291  1
  O  O591  1  0.92738947  0.14833039  0.92584723  1
  O  O592  1  0.92824216  0.47997563  0.17747337  1
  O  O593  1  0.92636955  0.47924767  0.42448750  1
  O  O594  1  0.92700887  0.48182739  0.67516059  1
  O  O595  1  0.92623453  0.48055381  0.92548814  1
  O  O596  1  0.92845645  0.81400115  0.17755932  1
  O  O597  1  0.92703787  0.81258159  0.42439292  1
  O  O598  1  0.92704705  0.81482353  0.67556518  1
  O  O599  1  0.92603540  0.81388329  0.92527673  1
  O  O600  1  0.07300088  0.18522258  0.07482669  1
  O  O601  1  0.07354641  0.18810837  0.32560680  1
  O  O602  1  0.07233377  0.18668848  0.57311647  1
  O  O603  1  0.07436933  0.18689194  0.82457578  1
  O  O604  1  0.07350882  0.52015115  0.07649255  1
  O  O605  1  0.07132323  0.51947170  0.32380944  1
  O  O606  1  0.07294869  0.52159819  0.57370463  1
  O  O607  1  0.07321306  0.51883024  0.82350322  1
  O  O608  1  0.07314638  0.85320291  0.07601988  1
  O  O609  1  0.07157890  0.85306164  0.32346719  1
  O  O610  1  0.07384955  0.85372112  0.57553558  1
  O  O611  1  0.07188174  0.85334906  0.82330066  1
  O  O612  1  0.57353027  0.18520546  0.07300509  1
  O  O613  1  0.57346680  0.18411569  0.32372958  1
  O  O614  1  0.57328345  0.18579934  0.57653627  1
  O  O615  1  0.57223068  0.18644077  0.82370906  1
  O  O616  1  0.57342995  0.51882998  0.07344500  1
  O  O617  1  0.57294298  0.51835064  0.32451146  1
  O  O618  1  0.57259434  0.52083743  0.57577084  1
  O  O619  1  0.57362649  0.52105946  0.82395487  1
  O  O620  1  0.57305330  0.85438724  0.07426770  1
  O  O621  1  0.57265652  0.85044397  0.32413435  1
  O  O622  1  0.57296418  0.85131067  0.57460121  1
  O  O623  1  0.57306439  0.85359537  0.82389023  1
  O  O624  1  0.32427387  0.18663358  0.05007627  1
  O  O625  1  0.32349970  0.18805843  0.29989783  1
  O  O626  1  0.32397705  0.18681612  0.54841695  1
  O  O627  1  0.32282609  0.18470547  0.80082344  1
  O  O628  1  0.32332128  0.51914927  0.05113278  1
  O  O629  1  0.32322106  0.51963774  0.30138707  1
  O  O630  1  0.32255872  0.51965524  0.55154469  1
  O  O631  1  0.32349881  0.52004320  0.79908652  1
  O  O632  1  0.32247161  0.85351353  0.05219061  1
  O  O633  1  0.32285025  0.85469488  0.30055929  1
  O  O634  1  0.32371786  0.85460608  0.55017784  1
  O  O635  1  0.32253328  0.85143212  0.80118624  1
  O  O636  1  0.82322603  0.18837212  0.04954572  1
  O  O637  1  0.82428414  0.18598235  0.29948628  1
  O  O638  1  0.82173988  0.18553698  0.55248184  1
  O  O639  1  0.82221216  0.18646725  0.80144925  1
  O  O640  1  0.82386813  0.52103498  0.05076670  1
  O  O641  1  0.82236546  0.52017366  0.30001516  1
  O  O642  1  0.82320423  0.52037689  0.54995140  1
  O  O643  1  0.82285796  0.51861862  0.80059525  1
  O  O644  1  0.82375959  0.85516027  0.05054634  1
  O  O645  1  0.82288383  0.85378759  0.29944703  1
  O  O646  1  0.82307020  0.85132691  0.55014027  1
  O  O647  1  0.82331758  0.85298080  0.79992769  1
  O  O648  1  0.17707853  0.14652116  0.20048843  1
  O  O649  1  0.17649534  0.14545334  0.44982059  1
  O  O650  1  0.17682003  0.14514531  0.69899592  1
  O  O651  1  0.17770939  0.14796639  0.94911135  1
  O  O652  1  0.17730159  0.48183996  0.19974544  1
  O  O653  1  0.17722819  0.48091479  0.44805962  1
  O  O654  1  0.17632193  0.48080553  0.69836756  1
  O  O655  1  0.17602476  0.48077438  0.94986703  1
  O  O656  1  0.17737838  0.81567342  0.19957586  1
  O  O657  1  0.17609937  0.81375125  0.45138627  1
  O  O658  1  0.17681908  0.81260557  0.69965506  1
  O  O659  1  0.17669705  0.81535471  0.94938470  1
  O  O660  1  0.67667907  0.14524975  0.20000342  1
  O  O661  1  0.67675937  0.14476216  0.44933307  1
  O  O662  1  0.67715446  0.14817242  0.69864805  1
  O  O663  1  0.67716450  0.14876416  0.94918634  1
  O  O664  1  0.67667163  0.47874141  0.19923854  1
  O  O665  1  0.67573875  0.47924208  0.45101038  1
  O  O666  1  0.67667522  0.47842324  0.70045770  1
  O  O667  1  0.67817101  0.48088553  0.94853802  1
  O  O668  1  0.67684345  0.81203587  0.20030576  1
  O  O669  1  0.67692741  0.81150985  0.44979432  1
  O  O670  1  0.67786429  0.81329612  0.69773607  1
  O  O671  1  0.67593542  0.81376627  0.95063037  1
