# generated using pymatgen
data_Na2MnFe(PO4)2
_symmetry_space_group_name_H-M   'P 1'
_cell_length_a   22.34584825
_cell_length_b   20.09802724
_cell_length_c   19.44773784
_cell_angle_alpha   90.00304493
_cell_angle_beta   89.95049678
_cell_angle_gamma   89.99019455
_symmetry_Int_Tables_number   1
_chemical_formula_structural   Na2MnFe(PO4)2
_chemical_formula_sum   'Na96 Mn48 Fe48 P96 O384'
_cell_volume   8734.12087833
_cell_formula_units_Z   48
loop_
 _symmetry_equiv_pos_site_id
 _symmetry_equiv_pos_as_xyz
  1  'x, y, z'
loop_
 _atom_site_type_symbol
 _atom_site_label
 _atom_site_symmetry_multiplicity
 _atom_site_fract_x
 _atom_site_fract_y
 _atom_site_fract_z
 _atom_site_occupancy
  Na  Na0  1  0.14048484  0.24980664  0.24332529  1
  Na  Na1  1  0.14123844  0.25090021  0.49316306  1
  Na  Na2  1  0.14107358  0.25021385  0.74508849  1
  Na  Na3  1  0.14120792  0.25003958  0.99305727  1
  Na  Na4  1  0.14035325  0.58532136  0.24382635  1
  Na  Na5  1  0.14048862  0.58503019  0.49315444  1
  Na  Na6  1  0.14073712  0.58405435  0.74351580  1
  Na  Na7  1  0.14113664  0.58406027  0.99230935  1
  Na  Na8  1  0.14075833  0.91806311  0.24338476  1
  Na  Na9  1  0.14080007  0.91714233  0.49289283  1
  Na  Na10  1  0.14038231  0.91559651  0.74377131  1
  Na  Na11  1  0.14081443  0.91561938  0.99288845  1
  Na  Na12  1  0.63989665  0.24891694  0.24353854  1
  Na  Na13  1  0.63993676  0.25003167  0.49339754  1
  Na  Na14  1  0.64036421  0.24974345  0.74269519  1
  Na  Na15  1  0.64040647  0.24835741  0.99454262  1
  Na  Na16  1  0.64019120  0.58286749  0.24415639  1
  Na  Na17  1  0.63982060  0.58330057  0.49451516  1
  Na  Na18  1  0.64037237  0.58216972  0.74286300  1
  Na  Na19  1  0.64034594  0.58334860  0.99484673  1
  Na  Na20  1  0.64038432  0.91660545  0.24234443  1
  Na  Na21  1  0.64026546  0.91700731  0.49370209  1
  Na  Na22  1  0.64022159  0.91644076  0.74501482  1
  Na  Na23  1  0.63996590  0.91635080  0.99478939  1
  Na  Na24  1  0.35913708  0.08206568  0.00663286  1
  Na  Na25  1  0.35948771  0.08349546  0.25758940  1
  Na  Na26  1  0.35988329  0.08353902  0.50661900  1
  Na  Na27  1  0.35899826  0.08275715  0.75690305  1
  Na  Na28  1  0.35968311  0.41580283  0.00569367  1
  Na  Na29  1  0.35932060  0.41685733  0.25772565  1
  Na  Na30  1  0.35898119  0.41806329  0.50662873  1
  Na  Na31  1  0.35976713  0.41601771  0.75792405  1
  Na  Na32  1  0.35961902  0.75009761  0.00597228  1
  Na  Na33  1  0.35921669  0.75085966  0.25719317  1
  Na  Na34  1  0.35913781  0.74990831  0.50580232  1
  Na  Na35  1  0.35877649  0.74991660  0.75654781  1
  Na  Na36  1  0.85930295  0.08187598  0.00691639  1
  Na  Na37  1  0.86036445  0.08323488  0.25548907  1
  Na  Na38  1  0.86000945  0.08312667  0.50495430  1
  Na  Na39  1  0.85925352  0.08278662  0.75476797  1
  Na  Na40  1  0.85966559  0.41590362  0.00636344  1
  Na  Na41  1  0.85958927  0.41681444  0.25586349  1
  Na  Na42  1  0.85912554  0.41851161  0.50623396  1
  Na  Na43  1  0.85961406  0.41644375  0.75465809  1
  Na  Na44  1  0.86010492  0.75080521  0.00733650  1
  Na  Na45  1  0.85957846  0.74962628  0.25518898  1
  Na  Na46  1  0.85915166  0.75045196  0.50697047  1
  Na  Na47  1  0.86007649  0.75022186  0.75676438  1
  Na  Na48  1  0.11042779  0.08424608  0.11826597  1
  Na  Na49  1  0.11040760  0.08365786  0.36769120  1
  Na  Na50  1  0.11000028  0.08325762  0.61878200  1
  Na  Na51  1  0.10995129  0.08266452  0.86864272  1
  Na  Na52  1  0.10976222  0.41789677  0.11801362  1
  Na  Na53  1  0.10953607  0.41853770  0.36868661  1
  Na  Na54  1  0.11061845  0.41721192  0.61880209  1
  Na  Na55  1  0.11018504  0.41729201  0.86847522  1
  Na  Na56  1  0.11023961  0.75040264  0.11821570  1
  Na  Na57  1  0.11009782  0.75144523  0.36806046  1
  Na  Na58  1  0.11035673  0.75072226  0.61809281  1
  Na  Na59  1  0.11035083  0.75021697  0.86808398  1
  Na  Na60  1  0.60989436  0.08251347  0.11866191  1
  Na  Na61  1  0.60964939  0.08202172  0.36835409  1
  Na  Na62  1  0.60928090  0.08279832  0.61835125  1
  Na  Na63  1  0.60969853  0.08258137  0.86944831  1
  Na  Na64  1  0.60903295  0.41612848  0.12073146  1
  Na  Na65  1  0.60923408  0.41579846  0.36878211  1
  Na  Na66  1  0.60977248  0.41665923  0.61808297  1
  Na  Na67  1  0.60966704  0.41623077  0.86762176  1
  Na  Na68  1  0.60976282  0.75062959  0.11888559  1
  Na  Na69  1  0.60924122  0.74863244  0.36903402  1
  Na  Na70  1  0.60946294  0.74971757  0.61894271  1
  Na  Na71  1  0.60976129  0.74973751  0.86990537  1
  Na  Na72  1  0.39011217  0.24977972  0.13223829  1
  Na  Na73  1  0.39039091  0.24836192  0.38138302  1
  Na  Na74  1  0.39021816  0.25029475  0.63221537  1
  Na  Na75  1  0.39016379  0.24938054  0.88197273  1
  Na  Na76  1  0.39030115  0.58345629  0.13192580  1
  Na  Na77  1  0.38961218  0.58250759  0.38187403  1
  Na  Na78  1  0.38968804  0.58330361  0.63199591  1
  Na  Na79  1  0.38997066  0.58266525  0.88142629  1
  Na  Na80  1  0.38972957  0.91691430  0.13150998  1
  Na  Na81  1  0.39004171  0.91575968  0.38213220  1
  Na  Na82  1  0.38974738  0.91638182  0.63067958  1
  Na  Na83  1  0.38961447  0.91618382  0.88244724  1
  Na  Na84  1  0.89096945  0.24948325  0.13092746  1
  Na  Na85  1  0.89100015  0.24963971  0.38077974  1
  Na  Na86  1  0.89060058  0.25052487  0.63015639  1
  Na  Na87  1  0.89020480  0.25000588  0.88075241  1
  Na  Na88  1  0.89055007  0.58437071  0.13058184  1
  Na  Na89  1  0.88994043  0.58412697  0.38129886  1
  Na  Na90  1  0.89006596  0.58424024  0.63161144  1
  Na  Na91  1  0.89063313  0.58435351  0.88095339  1
  Na  Na92  1  0.89037332  0.91637179  0.13192498  1
  Na  Na93  1  0.89010120  0.91790147  0.37989981  1
  Na  Na94  1  0.89034244  0.91706058  0.63096509  1
  Na  Na95  1  0.89009699  0.91570498  0.88187331  1
  Mn  Mn96  1  0.00056353  0.33391182  0.74936345  1
  Mn  Mn97  1  0.24960979  0.16747988  0.62598204  1
  Mn  Mn98  1  0.49987790  0.83347013  0.74986274  1
  Mn  Mn99  1  0.49983725  0.83255052  0.50022544  1
  Mn  Mn100  1  0.24982065  -0.00008064  0.12502827  1
  Mn  Mn101  1  -0.00082211  0.66712718  0.49975874  1
  Mn  Mn102  1  0.75030884  0.16585832  0.37462809  1
  Mn  Mn103  1  0.24970761  0.33418837  0.37503634  1
  Mn  Mn104  1  0.75019365  0.49976807  0.87481556  1
  Mn  Mn105  1  -0.00033442  0.50191311  0.24836117  1
  Mn  Mn106  1  0.00008783  -0.00086002  -0.00035551  1
  Mn  Mn107  1  0.74939845  0.50016100  0.12516134  1
  Mn  Mn108  1  0.75013728  0.66676518  0.87529322  1
  Mn  Mn109  1  0.50057833  0.66685818  0.00084838  1
  Mn  Mn110  1  0.74958536  0.16629526  0.62437727  1
  Mn  Mn111  1  0.49949657  -0.00019557  0.75025188  1
  Mn  Mn112  1  0.74966585  0.83366559  0.87582188  1
  Mn  Mn113  1  -0.00014654  0.33395739  0.24988402  1
  Mn  Mn114  1  0.25082612  0.66766608  0.12445461  1
  Mn  Mn115  1  0.49901365  0.16664302  0.74983691  1
  Mn  Mn116  1  0.00018021  0.50094337  -0.00046279  1
  Mn  Mn117  1  0.50003171  0.33309811  0.00086991  1
  Mn  Mn118  1  0.00008894  0.83370405  0.24994712  1
  Mn  Mn119  1  0.74944331  0.33215871  0.12541895  1
  Mn  Mn120  1  -0.00046624  0.83460082  0.49900273  1
  Mn  Mn121  1  0.00096817  0.16613208  0.49993567  1
  Mn  Mn122  1  0.50059320  0.16602577  0.00052810  1
  Mn  Mn123  1  -0.00044705  0.50105316  0.75020269  1
  Mn  Mn124  1  0.49966889  0.49934397  0.00051082  1
  Mn  Mn125  1  0.00025135  0.16660510  0.74985483  1
  Mn  Mn126  1  0.24946111  -0.00068787  0.62528410  1
  Mn  Mn127  1  0.74943017  0.83411328  0.37535874  1
  Mn  Mn128  1  0.24994409  0.50063760  0.62558664  1
  Mn  Mn129  1  0.49970806  -0.00065767  0.25028039  1
  Mn  Mn130  1  0.75028019  0.16494379  0.87359005  1
  Mn  Mn131  1  0.49885979  0.33206972  0.49960093  1
  Mn  Mn132  1  0.49948905  0.66642134  0.24990801  1
  Mn  Mn133  1  0.49909185  0.66628120  0.75058260  1
  Mn  Mn134  1  -0.00017880  0.16720955  -0.00030853  1
  Mn  Mn135  1  0.75035528  0.33374133  0.37442133  1
  Mn  Mn136  1  0.25031121  0.50029275  0.12485360  1
  Mn  Mn137  1  0.74999110  0.83385674  0.62541077  1
  Mn  Mn138  1  -0.00051737  -0.00095824  0.74990851  1
  Mn  Mn139  1  0.24970433  0.33258754  0.12566821  1
  Mn  Mn140  1  0.49904044  0.49962960  0.49998031  1
  Mn  Mn141  1  0.74936638  0.66621239  0.37578688  1
  Mn  Mn142  1  0.74993546  0.33248403  0.87483435  1
  Mn  Mn143  1  0.00069175  0.33436886  0.49958967  1
  Fe  Fe144  1  0.50023704  0.16600428  0.50006918  1
  Fe  Fe145  1  0.25036867  0.16612780  0.12473984  1
  Fe  Fe146  1  0.25047563  0.33280034  0.87574858  1
  Fe  Fe147  1  0.49931783  0.33229391  0.25078445  1
  Fe  Fe148  1  0.00006028  0.66753086  0.24967654  1
  Fe  Fe149  1  0.00039039  0.66760844  0.75004745  1
  Fe  Fe150  1  0.49932594  0.66584557  0.49998300  1
  Fe  Fe151  1  0.75007898  -0.00057589  0.87572762  1
  Fe  Fe152  1  0.00075491  0.66750059  -0.00053769  1
  Fe  Fe153  1  0.00093867  0.00027821  0.24959218  1
  Fe  Fe154  1  0.25010889  0.00056048  0.37465525  1
  Fe  Fe155  1  0.25048638  0.83317614  0.62452053  1
  Fe  Fe156  1  0.25039453  0.66702624  0.87433869  1
  Fe  Fe157  1  0.75000844  -0.00036398  0.12493685  1
  Fe  Fe158  1  0.75062730  0.16546318  0.12468025  1
  Fe  Fe159  1  0.24935686  0.50111839  0.37576466  1
  Fe  Fe160  1  0.49981910  0.16558783  0.25036752  1
  Fe  Fe161  1  0.75000701  0.50021373  0.62506322  1
  Fe  Fe162  1  0.00021371  0.83291798  0.75036632  1
  Fe  Fe163  1  0.74992042  0.00001917  0.37408106  1
  Fe  Fe164  1  0.25000637  0.66726723  0.62438513  1
  Fe  Fe165  1  0.49925250  0.83353889  0.00036078  1
  Fe  Fe166  1  0.25018912  0.16625691  0.87519316  1
  Fe  Fe167  1  0.24977992  0.83388271  0.37496930  1
  Fe  Fe168  1  0.49961693  0.49944714  0.25084546  1
  Fe  Fe169  1  0.49981615  0.83309467  0.25020690  1
  Fe  Fe170  1  0.25041242  0.16740889  0.37557383  1
  Fe  Fe171  1  0.25045452  0.33366519  0.62593847  1
  Fe  Fe172  1  0.00030688  0.50120493  0.49959054  1
  Fe  Fe173  1  0.74999837  0.83344599  0.12545353  1
  Fe  Fe174  1  0.49937026  -0.00032137  0.00054615  1
  Fe  Fe175  1  0.75015010  0.33365336  0.62371902  1
  Fe  Fe176  1  0.00047493  0.00026506  0.49959688  1
  Fe  Fe177  1  0.74981441  -0.00026592  0.62486391  1
  Fe  Fe178  1  0.24987792  0.66768485  0.37497999  1
  Fe  Fe179  1  0.49991827  -0.00061672  0.49974425  1
  Fe  Fe180  1  0.25014199  0.83372555  0.12501625  1
  Fe  Fe181  1  0.00102695  0.16690417  0.24973988  1
  Fe  Fe182  1  0.00055359  0.83275672  0.00052028  1
  Fe  Fe183  1  0.50049504  0.33290766  0.74997029  1
  Fe  Fe184  1  0.50023382  0.49984240  0.75002891  1
  Fe  Fe185  1  0.00044682  0.33383302  -0.00015101  1
  Fe  Fe186  1  0.25018936  0.49985273  0.87437381  1
  Fe  Fe187  1  0.74969517  0.50030300  0.37544294  1
  Fe  Fe188  1  0.74945710  0.66675466  0.62544343  1
  Fe  Fe189  1  0.25010316  0.83270172  0.87423430  1
  Fe  Fe190  1  0.24975694  -0.00075957  0.87513399  1
  Fe  Fe191  1  0.75022156  0.66654631  0.12569705  1
  P  P192  1  0.04270252  0.25143603  0.10243909  1
  P  P193  1  0.04270233  0.24938741  0.35212265  1
  P  P194  1  0.04377142  0.25033954  0.60269178  1
  P  P195  1  0.04280580  0.25061551  0.85345384  1
  P  P196  1  0.04297416  0.58582118  0.10192599  1
  P  P197  1  0.04196139  0.58520691  0.35220076  1
  P  P198  1  0.04232499  0.58336088  0.60252043  1
  P  P199  1  0.04238576  0.58574602  0.85253607  1
  P  P200  1  0.04260457  0.91569209  0.10269141  1
  P  P201  1  0.04255293  0.91859082  0.35226644  1
  P  P202  1  0.04241160  0.91768306  0.60233818  1
  P  P203  1  0.04219803  0.91459635  0.85290068  1
  P  P204  1  0.54239441  0.24959335  0.10480227  1
  P  P205  1  0.54130205  0.24844577  0.35202235  1
  P  P206  1  0.54175448  0.24887667  0.60257093  1
  P  P207  1  0.54244811  0.25040208  0.85230058  1
  P  P208  1  0.54239109  0.58259071  0.10426364  1
  P  P209  1  0.54166097  0.58210929  0.35291142  1
  P  P210  1  0.54133423  0.58376791  0.60290872  1
  P  P211  1  0.54250629  0.58201889  0.85252174  1
  P  P212  1  0.54083033  0.91644378  0.10222559  1
  P  P213  1  0.54205235  0.91499514  0.35269033  1
  P  P214  1  0.54211418  0.91756743  0.60216960  1
  P  P215  1  0.54201672  0.91645642  0.85444368  1
  P  P216  1  0.45760374  0.08361523  0.14771682  1
  P  P217  1  0.45891743  0.08310748  0.39823317  1
  P  P218  1  0.45671101  0.08292378  0.64598760  1
  P  P219  1  0.45732953  0.08203831  0.89813693  1
  P  P220  1  0.45771300  0.41616212  0.14960288  1
  P  P221  1  0.45678121  0.41573849  0.39619109  1
  P  P222  1  0.45836466  0.41648176  0.64881002  1
  P  P223  1  0.45782155  0.41603171  0.89619881  1
  P  P224  1  0.45756824  0.75182016  0.14738126  1
  P  P225  1  0.45757823  0.74820423  0.39739201  1
  P  P226  1  0.45678406  0.74964205  0.64658497  1
  P  P227  1  0.45781908  0.75060557  0.89810173  1
  P  P228  1  0.95941892  0.08347387  0.14823153  1
  P  P229  1  0.95870453  0.08213119  0.39633342  1
  P  P230  1  0.95735903  0.08290445  0.64621540  1
  P  P231  1  0.95690309  0.08283117  0.89693142  1
  P  P232  1  0.95719331  0.41707057  0.14582691  1
  P  P233  1  0.95772148  0.41886216  0.39718043  1
  P  P234  1  0.95777388  0.41787318  0.64590255  1
  P  P235  1  0.95775859  0.41617497  0.89748797  1
  P  P236  1  0.95836941  0.74923436  0.14676246  1
  P  P237  1  0.95658779  0.75058475  0.39622739  1
  P  P238  1  0.95870820  0.75065606  0.64832707  1
  P  P239  1  0.95879330  0.75030363  0.89791990  1
  P  P240  1  0.20850971  0.08473776  0.22802911  1
  P  P241  1  0.20908417  0.08372636  0.47654160  1
  P  P242  1  0.20740415  0.08310654  0.72920769  1
  P  P243  1  0.20877028  0.08313132  0.97671252  1
  P  P244  1  0.20714624  0.41739546  0.22857824  1
  P  P245  1  0.20752063  0.41868935  0.47802677  1
  P  P246  1  0.20850394  0.41561174  0.72869820  1
  P  P247  1  0.20888478  0.41681925  0.97637390  1
  P  P248  1  0.20825676  0.75206026  0.22782013  1
  P  P249  1  0.20849424  0.75079572  0.47674603  1
  P  P250  1  0.20905122  0.75028617  0.72661915  1
  P  P251  1  0.20906303  0.75024240  0.97616187  1
  P  P252  1  0.70861613  0.08254048  0.22654133  1
  P  P253  1  0.70781648  0.08159988  0.47733129  1
  P  P254  1  0.70717631  0.08133351  0.72738146  1
  P  P255  1  0.70806422  0.08152733  0.97825952  1
  P  P256  1  0.70704298  0.41680625  0.22881869  1
  P  P257  1  0.70783181  0.41798521  0.47807971  1
  P  P258  1  0.70866014  0.41608151  0.72589664  1
  P  P259  1  0.70696838  0.41612361  0.97807572  1
  P  P260  1  0.70837776  0.74985929  0.22698646  1
  P  P261  1  0.70692695  0.75008705  0.47895479  1
  P  P262  1  0.70750156  0.74914251  0.72772221  1
  P  P263  1  0.70755683  0.75001287  0.97970741  1
  P  P264  1  0.29215416  0.24831927  0.02214627  1
  P  P265  1  0.29202427  0.24889031  0.27269755  1
  P  P266  1  0.29208834  0.25154445  0.52296734  1
  P  P267  1  0.29165283  0.24990653  0.77381578  1
  P  P268  1  0.29298036  0.58336255  0.02082147  1
  P  P269  1  0.29110785  0.58395429  0.27383329  1
  P  P270  1  0.29172579  0.58505472  0.52211960  1
  P  P271  1  0.29136065  0.58348692  0.77300928  1
  P  P272  1  0.29166305  0.91516167  0.02181817  1
  P  P273  1  0.29137892  0.91682604  0.27341181  1
  P  P274  1  0.29182969  0.91547801  0.52153277  1
  P  P275  1  0.29133375  0.91589435  0.77313308  1
  P  P276  1  0.79235423  0.24783474  0.02238886  1
  P  P277  1  0.79287491  0.24900802  0.27115364  1
  P  P278  1  0.79229659  0.25097728  0.52192422  1
  P  P279  1  0.79272029  0.24987951  0.77056458  1
  P  P280  1  0.79247385  0.58458872  0.02295052  1
  P  P281  1  0.79194232  0.58250418  0.27259972  1
  P  P282  1  0.79102447  0.58373674  0.52357647  1
  P  P283  1  0.79265293  0.58336898  0.77099408  1
  P  P284  1  0.79153518  0.91667818  0.02367014  1
  P  P285  1  0.79184075  0.91771881  0.27133574  1
  P  P286  1  0.79224223  0.91829817  0.52207050  1
  P  P287  1  0.79213175  0.91799903  0.77261978  1
  O  O288  1  0.03736299  0.25067770  0.18242714  1
  O  O289  1  0.03766096  0.24945610  0.43208201  1
  O  O290  1  0.03863882  0.25030160  0.68266655  1
  O  O291  1  0.03747058  0.25122310  0.93341890  1
  O  O292  1  0.03770267  0.58597144  0.18189197  1
  O  O293  1  0.03655311  0.58421461  0.43213650  1
  O  O294  1  0.03709689  0.58416801  0.68248559  1
  O  O295  1  0.03734523  0.58594479  0.93248998  1
  O  O296  1  0.03749880  0.91657569  0.18266991  1
  O  O297  1  0.03749242  0.91874119  0.43222105  1
  O  O298  1  0.03720155  0.91679536  0.68227750  1
  O  O299  1  0.03715678  0.91427414  0.93288338  1
  O  O300  1  0.53674626  0.24947725  0.18469530  1
  O  O301  1  0.53625217  0.24800915  0.43203650  1
  O  O302  1  0.53643139  0.24978027  0.68251848  1
  O  O303  1  0.53780107  0.25014689  0.93235677  1
  O  O304  1  0.53681315  0.58210736  0.18418443  1
  O  O305  1  0.53633316  0.58284674  0.43287178  1
  O  O306  1  0.53607610  0.58295843  0.68285658  1
  O  O307  1  0.53766181  0.58228720  0.93255298  1
  O  O308  1  0.53604015  0.91598452  0.18225251  1
  O  O309  1  0.53690675  0.91577000  0.43260719  1
  O  O310  1  0.53718604  0.91756214  0.68214582  1
  O  O311  1  0.53647879  0.91638719  0.93437598  1
  O  O312  1  0.46293717  0.08281582  0.06779802  1
  O  O313  1  0.46373232  0.08339132  0.31821895  1
  O  O314  1  0.46224610  0.08280076  0.56606510  1
  O  O315  1  0.46200989  0.08242563  0.81812222  1
  O  O316  1  0.46271096  0.41604887  0.06955145  1
  O  O317  1  0.46213887  0.41580097  0.31632972  1
  O  O318  1  0.46279735  0.41630883  0.56872487  1
  O  O319  1  0.46335243  0.41612377  0.81629088  1
  O  O320  1  0.46299424  0.75195246  0.06742715  1
  O  O321  1  0.46280359  0.74881824  0.31745280  1
  O  O322  1  0.46198752  0.74896435  0.56663014  1
  O  O323  1  0.46243909  0.75038145  0.81808075  1
  O  O324  1  0.96397076  0.08343573  0.06822805  1
  O  O325  1  0.96446708  0.08257676  0.31644365  1
  O  O326  1  0.96279777  0.08242226  0.56626386  1
  O  O327  1  0.96182930  0.08262532  0.81696636  1
  O  O328  1  0.96252003  0.41652168  0.06588191  1
  O  O329  1  0.96280902  0.41867308  0.31716184  1
  O  O330  1  0.96309960  0.41855640  0.56595787  1
  O  O331  1  0.96297293  0.41654343  0.81748316  1
  O  O332  1  0.96399314  0.74961094  0.06689946  1
  O  O333  1  0.96171853  0.75012706  0.31630256  1
  O  O334  1  0.96298941  0.75067659  0.56829404  1
  O  O335  1  0.96371390  0.75044144  0.81792644  1
  O  O336  1  0.21363153  0.08324003  0.05672264  1
  O  O337  1  0.21393922  0.08467366  0.30787376  1
  O  O338  1  0.21352018  0.08321750  0.55654272  1
  O  O339  1  0.21287797  0.08303002  0.80905435  1
  O  O340  1  0.21357707  0.41645410  0.05638836  1
  O  O341  1  0.21224004  0.41813162  0.30854519  1
  O  O342  1  0.21294550  0.41826707  0.55791063  1
  O  O343  1  0.21392781  0.41579776  0.80855766  1
  O  O344  1  0.21373464  0.75020040  0.05607775  1
  O  O345  1  0.21343123  0.75189653  0.30766930  1
  O  O346  1  0.21351860  0.75048308  0.55660095  1
  O  O347  1  0.21443061  0.75001458  0.80647258  1
  O  O348  1  0.71360404  0.08209511  0.05814255  1
  O  O349  1  0.71364429  0.08213913  0.30651121  1
  O  O350  1  0.71298942  0.08166368  0.55726369  1
  O  O351  1  0.71270278  0.08124181  0.80733042  1
  O  O352  1  0.71185646  0.41608816  0.05806645  1
  O  O353  1  0.71238289  0.41753381  0.30874833  1
  O  O354  1  0.71355270  0.41735219  0.55795471  1
  O  O355  1  0.71314777  0.41618905  0.80592034  1
  O  O356  1  0.71290560  0.74985588  0.05960892  1
  O  O357  1  0.71289046  0.75028868  0.30702343  1
  O  O358  1  0.71223289  0.74985078  0.55888358  1
  O  O359  1  0.71256549  0.74956990  0.80772438  1
  O  O360  1  0.28687694  0.24862450  0.19275573  1
  O  O361  1  0.28682759  0.25101695  0.44303299  1
  O  O362  1  0.28674691  0.25096288  0.69385708  1
  O  O363  1  0.28677507  0.24842669  0.94225850  1
  O  O364  1  0.28664754  0.58424131  0.19380401  1
  O  O365  1  0.28641026  0.58456982  0.44227839  1
  O  O366  1  0.28644183  0.58415601  0.69306942  1
  O  O367  1  0.28772571  0.58315021  0.94094482  1
  O  O368  1  0.28661470  0.91705194  0.19344829  1
  O  O369  1  0.28634206  0.91589708  0.44169380  1
  O  O370  1  0.28641545  0.91594071  0.69316056  1
  O  O371  1  0.28634163  0.91516971  0.94198893  1
  O  O372  1  0.78756010  0.24833743  0.19121974  1
  O  O373  1  0.78737475  0.25067029  0.44191838  1
  O  O374  1  0.78729020  0.25063383  0.69062007  1
  O  O375  1  0.78726622  0.24790734  0.94236594  1
  O  O376  1  0.78659766  0.58342934  0.19269011  1
  O  O377  1  0.78616535  0.58295139  0.44358812  1
  O  O378  1  0.78725865  0.58371559  0.69108946  1
  O  O379  1  0.78759577  0.58426297  0.94294958  1
  O  O380  1  0.78631935  0.91730777  0.19145475  1
  O  O381  1  0.78682727  0.91817750  0.44211601  1
  O  O382  1  0.78680457  0.91789699  0.69267173  1
  O  O383  1  0.78700019  0.91661397  0.94366808  1
  O  O384  1  0.22801236  0.24807236  0.05839132  1
  O  O385  1  0.22779305  0.24893957  0.30852826  1
  O  O386  1  0.22785337  0.25228264  0.55884731  1
  O  O387  1  0.22755722  0.24909582  0.80985016  1
  O  O388  1  0.22873904  0.58378964  0.05659765  1
  O  O389  1  0.22685917  0.58373829  0.30940924  1
  O  O390  1  0.22762138  0.58493500  0.55831200  1
  O  O391  1  0.22730219  0.58291100  0.80915451  1
  O  O392  1  0.22758007  0.91509622  0.05816130  1
  O  O393  1  0.22719220  0.91664691  0.30924006  1
  O  O394  1  0.22778654  0.91464268  0.55801123  1
  O  O395  1  0.22718186  0.91527031  0.80914367  1
  O  O396  1  0.72803731  0.24743191  0.05797962  1
  O  O397  1  0.72856442  0.24949148  0.30658490  1
  O  O398  1  0.72792073  0.25098239  0.55729931  1
  O  O399  1  0.72842050  0.24930483  0.80609845  1
  O  O400  1  0.72805726  0.58507552  0.05828809  1
  O  O401  1  0.72766968  0.58177022  0.30852546  1
  O  O402  1  0.72688898  0.58444136  0.55956419  1
  O  O403  1  0.72837235  0.58319740  0.80668436  1
  O  O404  1  0.72729391  0.91710507  0.05936044  1
  O  O405  1  0.72772427  0.91834241  0.30768654  1
  O  O406  1  0.72798282  0.91808371  0.55791933  1
  O  O407  1  0.72790588  0.91812534  0.80858786  1
  O  O408  1  0.27259042  0.08459220  0.19170908  1
  O  O409  1  0.27332530  0.08427165  0.44088375  1
  O  O410  1  0.27148762  0.08304923  0.69311357  1
  O  O411  1  0.27284353  0.08346193  0.94065167  1
  O  O412  1  0.27156084  0.41666631  0.19337306  1
  O  O413  1  0.27171024  0.41889659  0.44202753  1
  O  O414  1  0.27259096  0.41570681  0.69232813  1
  O  O415  1  0.27305442  0.41770634  0.94059653  1
  O  O416  1  0.27247526  0.75227911  0.19172979  1
  O  O417  1  0.27254430  0.75135597  0.44044282  1
  O  O418  1  0.27301567  0.75082221  0.68999903  1
  O  O419  1  0.27323566  0.75088408  0.94025929  1
  O  O420  1  0.77281752  0.08242046  0.19051598  1
  O  O421  1  0.77210308  0.08123968  0.44150689  1
  O  O422  1  0.77138743  0.08158699  0.69137459  1
  O  O423  1  0.77219517  0.08126511  0.94195050  1
  O  O424  1  0.77127265  0.41642850  0.19325390  1
  O  O425  1  0.77190829  0.41855062  0.44160908  1
  O  O426  1  0.77289225  0.41582161  0.69030829  1
  O  O427  1  0.77152798  0.41609280  0.94321561  1
  O  O428  1  0.77260025  0.74930926  0.19130910  1
  O  O429  1  0.77118488  0.75024017  0.44341834  1
  O  O430  1  0.77183850  0.74889831  0.69220931  1
  O  O431  1  0.77178929  0.75026323  0.94389174  1
  O  O432  1  0.02367372  0.08356067  0.18374864  1
  O  O433  1  0.02279942  0.08159657  0.43269006  1
  O  O434  1  0.02163196  0.08274827  0.68165422  1
  O  O435  1  0.02141262  0.08303196  0.93169445  1
  O  O436  1  0.02148945  0.41747176  0.18113015  1
  O  O437  1  0.02208811  0.41937395  0.43260157  1
  O  O438  1  0.02203582  0.41800176  0.68135983  1
  O  O439  1  0.02211940  0.41616885  0.93292480  1
  O  O440  1  0.02240674  0.74911766  0.18312490  1
  O  O441  1  0.02097690  0.75059993  0.43129514  1
  O  O442  1  0.02304122  0.75092444  0.68368649  1
  O  O443  1  0.02304692  0.75036299  0.93381804  1
  O  O444  1  0.52185800  0.08367517  0.18343104  1
  O  O445  1  0.52304459  0.08345971  0.43409997  1
  O  O446  1  0.52093938  0.08329598  0.68163889  1
  O  O447  1  0.52173457  0.08124521  0.93336248  1
  O  O448  1  0.52187306  0.41605689  0.18536979  1
  O  O449  1  0.52093635  0.41586822  0.43192585  1
  O  O450  1  0.52273113  0.41680305  0.68410129  1
  O  O451  1  0.52198419  0.41613543  0.93204388  1
  O  O452  1  0.52178021  0.75133271  0.18315308  1
  O  O453  1  0.52174001  0.74778098  0.43327035  1
  O  O454  1  0.52114198  0.74950411  0.68178646  1
  O  O455  1  0.52215204  0.75101200  0.93335651  1
  O  O456  1  0.47827873  0.24931911  0.06885479  1
  O  O457  1  0.47713517  0.24828346  0.31612219  1
  O  O458  1  0.47750864  0.24748177  0.56687152  1
  O  O459  1  0.47796387  0.25113757  0.81731142  1
  O  O460  1  0.47817356  0.58322222  0.06872627  1
  O  O461  1  0.47742655  0.58188381  0.31721657  1
  O  O462  1  0.47709492  0.58433269  0.56712929  1
  O  O463  1  0.47801792  0.58133861  0.81745072  1
  O  O464  1  0.47667557  0.91709489  0.06634148  1
  O  O465  1  0.47771021  0.91478495  0.31715441  1
  O  O466  1  0.47778994  0.91734966  0.56684647  1
  O  O467  1  0.47777205  0.91625963  0.81875692  1
  O  O468  1  0.97842189  0.25218310  0.06674260  1
  O  O469  1  0.97844156  0.24892090  0.31659029  1
  O  O470  1  0.97935406  0.25027228  0.56772258  1
  O  O471  1  0.97853328  0.25045787  0.81802706  1
  O  O472  1  0.97866961  0.58564726  0.06640642  1
  O  O473  1  0.97773493  0.58603474  0.31633603  1
  O  O474  1  0.97800594  0.58235729  0.56683677  1
  O  O475  1  0.97810226  0.58591428  0.81699407  1
  O  O476  1  0.97827365  0.91509945  0.06727249  1
  O  O477  1  0.97831121  0.91861887  0.31664692  1
  O  O478  1  0.97810013  0.91876270  0.56666039  1
  O  O479  1  0.97788716  0.91433333  0.81738990  1
  O  O480  1  0.07368213  0.31496393  0.07419339  1
  O  O481  1  0.07349194  0.31331676  0.32469527  1
  O  O482  1  0.07466614  0.31383756  0.57444288  1
  O  O483  1  0.07418874  0.31374725  0.82495980  1
  O  O484  1  0.07400345  0.64897432  0.07304639  1
  O  O485  1  0.07292017  0.64892303  0.32440227  1
  O  O486  1  0.07293909  0.64710080  0.57414348  1
  O  O487  1  0.07340969  0.64885983  0.82341139  1
  O  O488  1  0.07365915  0.97916327  0.07431669  1
  O  O489  1  0.07365951  0.98166319  0.32324205  1
  O  O490  1  0.07367852  0.98104183  0.57412296  1
  O  O491  1  0.07288512  0.97859605  0.82538173  1
  O  O492  1  0.57345803  0.31311057  0.07656412  1
  O  O493  1  0.57162302  0.31266468  0.32432577  1
  O  O494  1  0.57211371  0.31267922  0.57404160  1
  O  O495  1  0.57349452  0.31362599  0.82347440  1
  O  O496  1  0.57362835  0.64622939  0.07660733  1
  O  O497  1  0.57306434  0.64538506  0.32466367  1
  O  O498  1  0.57211468  0.64739492  0.57468450  1
  O  O499  1  0.57304429  0.64594629  0.82467862  1
  O  O500  1  0.57178146  0.98020073  0.07437434  1
  O  O501  1  0.57320748  0.97830380  0.32413521  1
  O  O502  1  0.57254313  0.98112245  0.57331449  1
  O  O503  1  0.57308873  0.97986971  0.82599689  1
  O  O504  1  0.42620210  0.02032046  0.17602948  1
  O  O505  1  0.42883881  0.01874765  0.42609697  1
  O  O506  1  0.42561211  0.01953625  0.67456326  1
  O  O507  1  0.42626585  0.01872007  0.92657220  1
  O  O508  1  0.42687266  0.35243935  0.17765846  1
  O  O509  1  0.42573157  0.35225375  0.42460806  1
  O  O510  1  0.42811463  0.35250440  0.67709785  1
  O  O511  1  0.42668011  0.35267026  0.92480230  1
  O  O512  1  0.42616146  0.68816593  0.17483973  1
  O  O513  1  0.42685114  0.68456124  0.42565842  1
  O  O514  1  0.42527108  0.68674694  0.67546085  1
  O  O515  1  0.42715177  0.68674599  0.92591422  1
  O  O516  1  0.92873113  0.01965558  0.17623936  1
  O  O517  1  0.92753281  0.01886007  0.42493931  1
  O  O518  1  0.92581546  0.01991281  0.67481641  1
  O  O519  1  0.92618805  0.01927521  0.92539369  1
  O  O520  1  0.92595072  0.35402121  0.17472048  1
  O  O521  1  0.92711972  0.35479878  0.42465428  1
  O  O522  1  0.92702612  0.35394460  0.67350814  1
  O  O523  1  0.92708805  0.35262578  0.92584852  1
  O  O524  1  0.92745303  0.68579971  0.17533746  1
  O  O525  1  0.92518804  0.68761525  0.42512430  1
  O  O526  1  0.92847049  0.68671514  0.67673503  1
  O  O527  1  0.92793837  0.68666795  0.92633093  1
  O  O528  1  0.17726744  0.02118793  0.19993411  1
  O  O529  1  0.17889136  0.01981845  0.44790573  1
  O  O530  1  0.17608067  0.01981903  0.70074434  1
  O  O531  1  0.17862219  0.01883833  0.94869706  1
  O  O532  1  0.17604298  0.35374975  0.20080240  1
  O  O533  1  0.17626404  0.35525881  0.45002630  1
  O  O534  1  0.17778781  0.35213969  0.69989039  1
  O  O535  1  0.17896029  0.35258196  0.94818905  1
  O  O536  1  0.17736915  0.68843676  0.19952312  1
  O  O537  1  0.17819343  0.68692593  0.44780806  1
  O  O538  1  0.17860348  0.68641998  0.69804550  1
  O  O539  1  0.17918714  0.68608497  0.94743276  1
  O  O540  1  0.67733285  0.01923424  0.19819122  1
  O  O541  1  0.67662789  0.01858600  0.44842887  1
  O  O542  1  0.67627147  0.01802854  0.69878328  1
  O  O543  1  0.67728607  0.01787897  0.94998867  1
  O  O544  1  0.67600665  0.35303988  0.20132331  1
  O  O545  1  0.67681923  0.35436102  0.44986213  1
  O  O546  1  0.67752513  0.35268858  0.69762543  1
  O  O547  1  0.67603280  0.35262557  0.94987550  1
  O  O548  1  0.67725542  0.68625831  0.19934033  1
  O  O549  1  0.67566971  0.68683776  0.45056243  1
  O  O550  1  0.67668344  0.68561836  0.69947601  1
  O  O551  1  0.67634310  0.68676099  0.95106877  1
  O  O552  1  0.32311735  0.31204464  0.05019546  1
  O  O553  1  0.32291340  0.31272670  0.30026987  1
  O  O554  1  0.32304224  0.31507251  0.55129392  1
  O  O555  1  0.32206536  0.31350478  0.80294355  1
  O  O556  1  0.32425582  0.64668557  0.04932892  1
  O  O557  1  0.32151321  0.64788823  0.30209155  1
  O  O558  1  0.32236474  0.64866889  0.55070699  1
  O  O559  1  0.32183748  0.64724369  0.80171667  1
  O  O560  1  0.32268350  0.97880912  0.04993740  1
  O  O561  1  0.32169851  0.98082816  0.30193527  1
  O  O562  1  0.32252917  0.97923062  0.54980047  1
  O  O563  1  0.32125358  0.98004950  0.80171732  1
  O  O564  1  0.82312348  0.31163088  0.05010777  1
  O  O565  1  0.82409456  0.31259478  0.29882623  1
  O  O566  1  0.82292286  0.31469415  0.55000611  1
  O  O567  1  0.82386956  0.31301125  0.79942944  1
  O  O568  1  0.82332264  0.64799829  0.05146295  1
  O  O569  1  0.82281063  0.64605627  0.30094182  1
  O  O570  1  0.82224225  0.64741466  0.55121465  1
  O  O571  1  0.82385158  0.64663139  0.79965984  1
  O  O572  1  0.82310114  0.97981623  0.05189064  1
  O  O573  1  0.82312864  0.98101127  0.29964793  1
  O  O574  1  0.82310757  0.98155054  0.55077726  1
  O  O575  1  0.82317729  0.98117965  0.80130556  1
  O  O576  1  0.42698973  0.14726365  0.17612988  1
  O  O577  1  0.42746548  0.14620095  0.42674393  1
  O  O578  1  0.42527339  0.14616110  0.67449989  1
  O  O579  1  0.42690379  0.14597004  0.92608034  1
  O  O580  1  0.42693512  0.48002616  0.17741598  1
  O  O581  1  0.42541901  0.47895143  0.42481990  1
  O  O582  1  0.42741815  0.48012009  0.67685256  1
  O  O583  1  0.42649050  0.47931830  0.92473534  1
  O  O584  1  0.42698162  0.81520979  0.17642633  1
  O  O585  1  0.42646451  0.81174320  0.42538245  1
  O  O586  1  0.42621496  0.81361367  0.67437913  1
  O  O587  1  0.42688339  0.81403965  0.92655349  1
  O  O588  1  0.92875988  0.14724635  0.17644458  1
  O  O589  1  0.92762623  0.14581545  0.42437934  1
  O  O590  1  0.92660900  0.14680727  0.67392069  1
  O  O591  1  0.92584534  0.14628382  0.92503297  1
  O  O592  1  0.92613434  0.48085912  0.17344599  1
  O  O593  1  0.92677753  0.48222517  0.42565676  1
  O  O594  1  0.92624369  0.48077505  0.67478628  1
  O  O595  1  0.92669870  0.47997749  0.92498320  1
  O  O596  1  0.92703405  0.81271048  0.17482456  1
  O  O597  1  0.92580415  0.81438760  0.42421895  1
  O  O598  1  0.92767520  0.81414843  0.67660682  1
  O  O599  1  0.92786497  0.81373309  0.92689322  1
  O  O600  1  0.07355501  0.18777194  0.07426128  1
  O  O601  1  0.07365141  0.18597085  0.32361954  1
  O  O602  1  0.07490546  0.18684610  0.57469633  1
  O  O603  1  0.07363600  0.18674415  0.82574223  1
  O  O604  1  0.07396161  0.52197310  0.07422101  1
  O  O605  1  0.07295167  0.52183651  0.32361030  1
  O  O606  1  0.07350100  0.52000572  0.57421491  1
  O  O607  1  0.07314630  0.52174679  0.82504634  1
  O  O608  1  0.07343096  0.85208426  0.07445334  1
  O  O609  1  0.07336573  0.85465926  0.32466685  1
  O  O610  1  0.07294029  0.85397084  0.57379395  1
  O  O611  1  0.07331009  0.85157203  0.82369566  1
  O  O612  1  0.57384403  0.18639528  0.07620440  1
  O  O613  1  0.57266742  0.18523524  0.32346994  1
  O  O614  1  0.57332391  0.18565354  0.57450230  1
  O  O615  1  0.57290360  0.18644177  0.82436213  1
  O  O616  1  0.57345857  0.51930550  0.07571625  1
  O  O617  1  0.57225944  0.51829302  0.32480398  1
  O  O618  1  0.57240292  0.52028838  0.57461094  1
  O  O619  1  0.57352375  0.51876062  0.82374868  1
  O  O620  1  0.57139852  0.85275812  0.07368272  1
  O  O621  1  0.57260145  0.85122861  0.32436555  1
  O  O622  1  0.57338848  0.85393418  0.57470911  1
  O  O623  1  0.57336466  0.85318181  0.82583886  1
  O  O624  1  0.32315215  0.18498726  0.05087831  1
  O  O625  1  0.32302242  0.18569817  0.30165932  1
  O  O626  1  0.32282820  0.18787105  0.55117534  1
  O  O627  1  0.32289968  0.18617311  0.80116873  1
  O  O628  1  0.32400062  0.52001316  0.04964504  1
  O  O629  1  0.32199421  0.52034948  0.30191360  1
  O  O630  1  0.32325399  0.52182508  0.55056695  1
  O  O631  1  0.32259023  0.51986613  0.80063745  1
  O  O632  1  0.32261440  0.85193223  0.05088894  1
  O  O633  1  0.32266535  0.85354945  0.30159581  1
  O  O634  1  0.32324145  0.85230808  0.55005009  1
  O  O635  1  0.32303294  0.85276782  0.80118825  1
  O  O636  1  0.82332274  0.18437662  0.05073729  1
  O  O637  1  0.82396475  0.18577311  0.29981649  1
  O  O638  1  0.82342719  0.18734992  0.54958958  1
  O  O639  1  0.82384400  0.18616124  0.79814631  1
  O  O640  1  0.82322619  0.52074689  0.05064212  1
  O  O641  1  0.82285722  0.51893596  0.30071453  1
  O  O642  1  0.82143705  0.52002947  0.55239698  1
  O  O643  1  0.82379237  0.51985095  0.79923596  1
  O  O644  1  0.82156825  0.85262841  0.05236837  1
  O  O645  1  0.82267841  0.85398674  0.29948450  1
  O  O646  1  0.82332639  0.85454791  0.54986695  1
  O  O647  1  0.82292591  0.85407781  0.80036513  1
  O  O648  1  0.17761848  0.14799105  0.19897676  1
  O  O649  1  0.17795801  0.14735401  0.44883054  1
  O  O650  1  0.17626500  0.14656322  0.70086107  1
  O  O651  1  0.17720791  0.14624705  0.94847819  1
  O  O652  1  0.17623788  0.48063542  0.19964198  1
  O  O653  1  0.17677818  0.48231583  0.44965201  1
  O  O654  1  0.17709923  0.47910308  0.70075944  1
  O  O655  1  0.17732419  0.48006305  0.94838355  1
  O  O656  1  0.17738526  0.81542376  0.19889448  1
  O  O657  1  0.17692090  0.81399643  0.44844866  1
  O  O658  1  0.17772535  0.81361004  0.69827723  1
  O  O659  1  0.17739615  0.81325071  0.94780591  1
  O  O660  1  0.67815374  0.14652616  0.19861012  1
  O  O661  1  0.67721872  0.14567653  0.44970131  1
  O  O662  1  0.67610836  0.14513448  0.69978763  1
  O  O663  1  0.67677342  0.14484712  0.94979531  1
  O  O664  1  0.67573431  0.47990960  0.20020623  1
  O  O665  1  0.67664586  0.48145358  0.45000229  1
  O  O666  1  0.67835644  0.48011964  0.69762441  1
  O  O667  1  0.67623595  0.47975356  0.94983731  1
  O  O668  1  0.67825447  0.81387314  0.19846022  1
  O  O669  1  0.67588851  0.81361149  0.45079774  1
  O  O670  1  0.67645924  0.81283384  0.70003477  1
  O  O671  1  0.67634016  0.81341831  0.95133507  1
