# generated using pymatgen
data_Na2MnFe(PO4)2
_symmetry_space_group_name_H-M   'P 1'
_cell_length_a   22.34763225
_cell_length_b   20.09582195
_cell_length_c   19.44612082
_cell_angle_alpha   89.97184522
_cell_angle_beta   90.01882402
_cell_angle_gamma   89.95831619
_symmetry_Int_Tables_number   1
_chemical_formula_structural   Na2MnFe(PO4)2
_chemical_formula_sum   'Na96 Mn48 Fe48 P96 O384'
_cell_volume   8733.13310288
_cell_formula_units_Z   48
loop_
 _symmetry_equiv_pos_site_id
 _symmetry_equiv_pos_as_xyz
  1  'x, y, z'
loop_
 _atom_site_type_symbol
 _atom_site_label
 _atom_site_symmetry_multiplicity
 _atom_site_fract_x
 _atom_site_fract_y
 _atom_site_fract_z
 _atom_site_occupancy
  Na  Na0  1  0.14055523  0.24892823  0.24344785  1
  Na  Na1  1  0.14060461  0.25050150  0.49414244  1
  Na  Na2  1  0.13994900  0.25071006  0.74454467  1
  Na  Na3  1  0.13963252  0.25029710  0.99446018  1
  Na  Na4  1  0.14036813  0.58290928  0.24386137  1
  Na  Na5  1  0.14056645  0.58278068  0.49329698  1
  Na  Na6  1  0.14140577  0.58494915  0.74457396  1
  Na  Na7  1  0.14104701  0.58530836  0.99440525  1
  Na  Na8  1  0.14113269  0.91658562  0.24267009  1
  Na  Na9  1  0.14082705  0.91676008  0.49366447  1
  Na  Na10  1  0.14047567  0.91673612  0.74358306  1
  Na  Na11  1  0.14071747  0.91634843  0.99353773  1
  Na  Na12  1  0.63943829  0.25079712  0.24425265  1
  Na  Na13  1  0.63904251  0.24977382  0.49379283  1
  Na  Na14  1  0.63990064  0.24991695  0.74349723  1
  Na  Na15  1  0.63985439  0.25041718  0.99409959  1
  Na  Na16  1  0.64034237  0.58347875  0.24449831  1
  Na  Na17  1  0.64009613  0.58393520  0.49281386  1
  Na  Na18  1  0.64013369  0.58336206  0.74239309  1
  Na  Na19  1  0.63981960  0.58342794  0.99361630  1
  Na  Na20  1  0.64010430  0.91575846  0.24330765  1
  Na  Na21  1  0.64062858  0.91533183  0.49391719  1
  Na  Na22  1  0.64041321  0.91753796  0.74382692  1
  Na  Na23  1  0.63965713  0.91704095  0.99169979  1
  Na  Na24  1  0.35948398  0.08273845  0.00770296  1
  Na  Na25  1  0.35983428  0.08337312  0.25550577  1
  Na  Na26  1  0.35975160  0.08325676  0.50608437  1
  Na  Na27  1  0.35958043  0.08219407  0.75612262  1
  Na  Na28  1  0.35979444  0.41598039  0.00766127  1
  Na  Na29  1  0.35938465  0.41554487  0.25774351  1
  Na  Na30  1  0.36040528  0.41611596  0.50730720  1
  Na  Na31  1  0.36062947  0.41730811  0.75741773  1
  Na  Na32  1  0.36053479  0.75077946  0.00759241  1
  Na  Na33  1  0.36052924  0.74886556  0.25600556  1
  Na  Na34  1  0.36002647  0.74871598  0.50494929  1
  Na  Na35  1  0.35985589  0.75074764  0.75659324  1
  Na  Na36  1  0.85969008  0.08437803  0.00578971  1
  Na  Na37  1  0.85918898  0.08364181  0.25562250  1
  Na  Na38  1  0.85904088  0.08319204  0.50662559  1
  Na  Na39  1  0.85923968  0.08396571  0.75615404  1
  Na  Na40  1  0.85926706  0.41684508  0.00595774  1
  Na  Na41  1  0.85978466  0.41734276  0.25696640  1
  Na  Na42  1  0.85989252  0.41611422  0.50721893  1
  Na  Na43  1  0.85938754  0.41576070  0.75571759  1
  Na  Na44  1  0.85961602  0.74955343  0.00447753  1
  Na  Na45  1  0.85955959  0.75011180  0.25562066  1
  Na  Na46  1  0.85948622  0.75000556  0.50553726  1
  Na  Na47  1  0.85973306  0.75104593  0.75527038  1
  Na  Na48  1  0.10964594  0.08481563  0.11768541  1
  Na  Na49  1  0.10997067  0.08353786  0.36919887  1
  Na  Na50  1  0.10965858  0.08453188  0.61839083  1
  Na  Na51  1  0.10948782  0.08385091  0.86948732  1
  Na  Na52  1  0.10954834  0.41713470  0.11915990  1
  Na  Na53  1  0.10996562  0.41676623  0.36944660  1
  Na  Na54  1  0.10955598  0.41631652  0.61945689  1
  Na  Na55  1  0.10959307  0.41627600  0.87072961  1
  Na  Na56  1  0.11060431  0.75055647  0.11771996  1
  Na  Na57  1  0.11002503  0.74894806  0.36796403  1
  Na  Na58  1  0.11026486  0.75103556  0.61866815  1
  Na  Na59  1  0.11081804  0.74993998  0.86890228  1
  Na  Na60  1  0.60898738  0.08418763  0.11765817  1
  Na  Na61  1  0.60885256  0.08419114  0.36871690  1
  Na  Na62  1  0.60930029  0.08379771  0.61928499  1
  Na  Na63  1  0.60974735  0.08346021  0.86815352  1
  Na  Na64  1  0.60932544  0.41661256  0.11986037  1
  Na  Na65  1  0.60946607  0.41589616  0.36916064  1
  Na  Na66  1  0.60864281  0.41566354  0.61797827  1
  Na  Na67  1  0.60871972  0.41575481  0.86894579  1
  Na  Na68  1  0.60928988  0.75065808  0.11868122  1
  Na  Na69  1  0.61009630  0.74942100  0.36818158  1
  Na  Na70  1  0.61018260  0.74881561  0.61734321  1
  Na  Na71  1  0.60965012  0.74931166  0.86752519  1
  Na  Na72  1  0.38986103  0.25009623  0.13250691  1
  Na  Na73  1  0.39027678  0.25012456  0.38143217  1
  Na  Na74  1  0.39032591  0.24948090  0.63135665  1
  Na  Na75  1  0.39042665  0.24936925  0.88175885  1
  Na  Na76  1  0.39057856  0.58458663  0.13253824  1
  Na  Na77  1  0.39044273  0.58261217  0.38221557  1
  Na  Na78  1  0.39079656  0.58235275  0.63052411  1
  Na  Na79  1  0.39103564  0.58322981  0.88242113  1
  Na  Na80  1  0.39061855  0.91660746  0.13143543  1
  Na  Na81  1  0.39076586  0.91549679  0.38037934  1
  Na  Na82  1  0.39041858  0.91557691  0.63110053  1
  Na  Na83  1  0.39066002  0.91556298  0.88230463  1
  Na  Na84  1  0.88983105  0.25160352  0.13097957  1
  Na  Na85  1  0.88994203  0.25066452  0.38232242  1
  Na  Na86  1  0.88964105  0.25026432  0.63109907  1
  Na  Na87  1  0.89005492  0.24934465  0.88158370  1
  Na  Na88  1  0.89064675  0.58409018  0.13017363  1
  Na  Na89  1  0.89044104  0.58245092  0.38165511  1
  Na  Na90  1  0.89041754  0.58319700  0.63119979  1
  Na  Na91  1  0.89017182  0.58340313  0.88028256  1
  Na  Na92  1  0.89014276  0.91751091  0.12980175  1
  Na  Na93  1  0.89039766  0.91640768  0.38086143  1
  Na  Na94  1  0.89036439  0.91687768  0.63067082  1
  Na  Na95  1  0.89075066  0.91673689  0.88096105  1
  Mn  Mn96  1  0.74967021  0.00004793  0.62468769  1
  Mn  Mn97  1  -0.00022609  0.66609238  0.24962873  1
  Mn  Mn98  1  0.74919277  -0.00098705  0.37589756  1
  Mn  Mn99  1  0.00055290  0.49889026  0.75100024  1
  Mn  Mn100  1  0.24985318  0.33308429  0.62558992  1
  Mn  Mn101  1  0.00025681  0.00075363  0.24940244  1
  Mn  Mn102  1  0.00094732  0.66679357  0.74956444  1
  Mn  Mn103  1  0.24993507  0.50145477  0.87664814  1
  Mn  Mn104  1  0.50017863  0.83318108  0.75001765  1
  Mn  Mn105  1  0.74979534  0.83344600  0.87380360  1
  Mn  Mn106  1  0.00033784  0.83409637  0.49917626  1
  Mn  Mn107  1  0.25064108  0.50018506  0.12567215  1
  Mn  Mn108  1  0.74907340  0.16745337  0.37545008  1
  Mn  Mn109  1  0.49954411  0.49937329  0.00081650  1
  Mn  Mn110  1  0.74973174  0.50018951  0.62464571  1
  Mn  Mn111  1  0.74979764  0.49986077  0.37558106  1
  Mn  Mn112  1  0.00005596  0.50038805  -0.00041065  1
  Mn  Mn113  1  0.25051060  0.50068343  0.62576074  1
  Mn  Mn114  1  0.49983546  0.16712845  -0.00057230  1
  Mn  Mn115  1  0.50049253  0.00010083  0.49943211  1
  Mn  Mn116  1  0.25011842  0.16673349  0.87604670  1
  Mn  Mn117  1  0.74904176  0.33277363  0.87497583  1
  Mn  Mn118  1  -0.00026419  0.16707446  0.50020798  1
  Mn  Mn119  1  0.49954352  0.16610487  0.75026366  1
  Mn  Mn120  1  0.25021839  0.33232252  0.37581492  1
  Mn  Mn121  1  0.49961266  0.49994994  0.25042289  1
  Mn  Mn122  1  -0.00002557  0.66587674  0.49965115  1
  Mn  Mn123  1  0.75051841  0.49958852  0.12489163  1
  Mn  Mn124  1  0.25028394  -0.00024854  0.62498051  1
  Mn  Mn125  1  0.49960024  0.66516812  0.74997051  1
  Mn  Mn126  1  0.50054983  0.83212333  0.50031420  1
  Mn  Mn127  1  0.74915402  0.50056514  0.87440112  1
  Mn  Mn128  1  0.74968162  0.66648380  0.12474999  1
  Mn  Mn129  1  0.74966249  0.83311635  0.12382477  1
  Mn  Mn130  1  0.25077023  0.66758246  0.62456005  1
  Mn  Mn131  1  0.74936008  0.00025519  0.12453195  1
  Mn  Mn132  1  0.50047477  0.00005459  0.24966917  1
  Mn  Mn133  1  0.24965038  -0.00070668  0.87541363  1
  Mn  Mn134  1  0.74920296  0.16773435  0.12570679  1
  Mn  Mn135  1  0.25061852  0.00025323  0.37442761  1
  Mn  Mn136  1  -0.00076565  0.16723765  0.25012739  1
  Mn  Mn137  1  0.00057235  0.83383835  0.24926270  1
  Mn  Mn138  1  0.00010175  0.83338063  -0.00020302  1
  Mn  Mn139  1  0.25061224  0.33354481  0.87581212  1
  Mn  Mn140  1  -0.00025216  0.16777810  0.74953708  1
  Mn  Mn141  1  0.00021320  0.33456320  0.25059930  1
  Mn  Mn142  1  0.25062273  0.83230493  0.37353901  1
  Mn  Mn143  1  -0.00030373  -0.00001044  0.74983645  1
  Fe  Fe144  1  0.50010618  0.66572848  0.49964021  1
  Fe  Fe145  1  0.24999285  0.49958304  0.37477750  1
  Fe  Fe146  1  0.00013685  0.00048702  -0.00027977  1
  Fe  Fe147  1  0.74903961  0.16682823  0.62513170  1
  Fe  Fe148  1  0.49964502  0.16736309  0.24953454  1
  Fe  Fe149  1  0.75030572  0.83318753  0.62460095  1
  Fe  Fe150  1  -0.00108006  0.33382459  0.00018530  1
  Fe  Fe151  1  0.25067121  0.66662387  0.12510101  1
  Fe  Fe152  1  0.24982307  0.16609977  0.12534922  1
  Fe  Fe153  1  0.25080880  0.83347289  0.87551808  1
  Fe  Fe154  1  0.00038500  0.33372939  0.50020507  1
  Fe  Fe155  1  0.50012064  0.49922488  0.50018201  1
  Fe  Fe156  1  0.49887779  0.16668556  0.49997132  1
  Fe  Fe157  1  0.00056407  0.83358901  0.74992229  1
  Fe  Fe158  1  0.75025837  0.00079690  0.87394997  1
  Fe  Fe159  1  0.00018079  0.49934188  0.50079466  1
  Fe  Fe160  1  0.25033233  0.83254271  0.12480774  1
  Fe  Fe161  1  0.50060528  0.66673025  0.00088749  1
  Fe  Fe162  1  0.50054677  0.83325171  0.00020527  1
  Fe  Fe163  1  0.74951070  0.33280770  0.62568965  1
  Fe  Fe164  1  -0.00005696  0.49998558  0.25000081  1
  Fe  Fe165  1  0.50041612  0.49911699  0.75000841  1
  Fe  Fe166  1  0.24977079  0.66627365  0.37499739  1
  Fe  Fe167  1  0.50039558  0.66670607  0.25047566  1
  Fe  Fe168  1  0.74994425  0.33332758  0.37580482  1
  Fe  Fe169  1  0.74955171  0.33362512  0.12510852  1
  Fe  Fe170  1  0.25148080  0.66809025  0.87521337  1
  Fe  Fe171  1  0.50045630  0.83307443  0.24965066  1
  Fe  Fe172  1  0.25002448  0.16607476  0.37444991  1
  Fe  Fe173  1  0.50002946  -0.00045494  0.75000379  1
  Fe  Fe174  1  0.49937305  0.33335649  0.25074608  1
  Fe  Fe175  1  0.75001994  0.66695932  0.87370862  1
  Fe  Fe176  1  0.24979505  -0.00047316  0.12511785  1
  Fe  Fe177  1  0.75011085  0.16704864  0.87472945  1
  Fe  Fe178  1  0.75018274  0.66688697  0.37480409  1
  Fe  Fe179  1  0.00023189  0.00040333  0.49993831  1
  Fe  Fe180  1  -0.00028538  0.33337110  0.75020840  1
  Fe  Fe181  1  0.74995749  0.66716534  0.62381159  1
  Fe  Fe182  1  0.49956239  0.33305986  0.74992158  1
  Fe  Fe183  1  0.25020416  0.83313277  0.62466134  1
  Fe  Fe184  1  0.00046484  0.66698171  -0.00029543  1
  Fe  Fe185  1  0.75018398  0.83278329  0.37462891  1
  Fe  Fe186  1  0.24946730  0.33285231  0.12643875  1
  Fe  Fe187  1  -0.00038871  0.16753263  -0.00051882  1
  Fe  Fe188  1  0.49968881  0.00004009  0.00023769  1
  Fe  Fe189  1  0.25029369  0.16654237  0.62530436  1
  Fe  Fe190  1  0.49942694  0.33314488  0.00041118  1
  Fe  Fe191  1  0.49964032  0.33300495  0.50009877  1
  P  P192  1  0.04068593  0.25090991  0.10153837  1
  P  P193  1  0.04265069  0.25066242  0.35367188  1
  P  P194  1  0.04217520  0.25182351  0.60273883  1
  P  P195  1  0.04164070  0.25152630  0.85344566  1
  P  P196  1  0.04263415  0.58458260  0.10246177  1
  P  P197  1  0.04207122  0.58129024  0.35284868  1
  P  P198  1  0.04278967  0.58195589  0.60252580  1
  P  P199  1  0.04329440  0.58347780  0.85363293  1
  P  P200  1  0.04272014  0.91840904  0.10178273  1
  P  P201  1  0.04346433  0.91741342  0.35306415  1
  P  P202  1  0.04264725  0.91812695  0.60246812  1
  P  P203  1  0.04238790  0.91589876  0.85265275  1
  P  P204  1  0.54140127  0.25137816  0.10324139  1
  P  P205  1  0.54065623  0.24998831  0.35233468  1
  P  P206  1  0.54052710  0.24977107  0.60175236  1
  P  P207  1  0.54177492  0.25107348  0.85242489  1
  P  P208  1  0.54193571  0.58447668  0.10323225  1
  P  P209  1  0.54191005  0.58395756  0.35327223  1
  P  P210  1  0.54140044  0.58230659  0.60159815  1
  P  P211  1  0.54235294  0.58123877  0.85267472  1
  P  P212  1  0.54149010  0.91678766  0.10168532  1
  P  P213  1  0.54235523  0.91524312  0.35211070  1
  P  P214  1  0.54295236  0.91672102  0.60339132  1
  P  P215  1  0.54201414  0.91779672  0.85323916  1
  P  P216  1  0.45819103  0.08441618  0.14708502  1
  P  P217  1  0.45776916  0.08492228  0.39677965  1
  P  P218  1  0.45751176  0.08195438  0.64736511  1
  P  P219  1  0.45754602  0.08159195  0.89747336  1
  P  P220  1  0.45723599  0.41531105  0.14808259  1
  P  P221  1  0.45860365  0.41609932  0.39852130  1
  P  P222  1  0.45856180  0.41630935  0.64786335  1
  P  P223  1  0.45739794  0.41492435  0.89750809  1
  P  P224  1  0.45937057  0.75011551  0.14792474  1
  P  P225  1  0.45851407  0.74804764  0.39674350  1
  P  P226  1  0.45769881  0.74878864  0.64663971  1
  P  P227  1  0.45942935  0.74946861  0.89901455  1
  P  P228  1  0.95709014  0.08424248  0.14551668  1
  P  P229  1  0.95720690  0.08248443  0.39768808  1
  P  P230  1  0.95707947  0.08356217  0.64638623  1
  P  P231  1  0.95866687  0.08352320  0.89819477  1
  P  P232  1  0.95761069  0.41822375  0.14729197  1
  P  P233  1  0.95847523  0.41704074  0.39866520  1
  P  P234  1  0.95785066  0.41542392  0.64712388  1
  P  P235  1  0.95702958  0.41525677  0.89732579  1
  P  P236  1  0.95756264  0.75012254  0.14595490  1
  P  P237  1  0.95730418  0.74973386  0.39643637  1
  P  P238  1  0.95831948  0.75155930  0.64727632  1
  P  P239  1  0.95826216  0.74902615  0.89672688  1
  P  P240  1  0.20835649  0.08316506  0.22672360  1
  P  P241  1  0.20828175  0.08460264  0.47772227  1
  P  P242  1  0.20745925  0.08433085  0.72748874  1
  P  P243  1  0.20760912  0.08279546  0.97955735  1
  P  P244  1  0.20821561  0.41576387  0.22852717  1
  P  P245  1  0.20838595  0.41750020  0.47765588  1
  P  P246  1  0.20752506  0.41741894  0.72902121  1
  P  P247  1  0.20764904  0.41667740  0.97981021  1
  P  P248  1  0.20886986  0.74898109  0.22656504  1
  P  P249  1  0.20777524  0.74913535  0.47709800  1
  P  P250  1  0.20844511  0.75176088  0.72812802  1
  P  P251  1  0.20951099  0.75044859  0.97741074  1
  P  P252  1  0.70627085  0.08345966  0.22818326  1
  P  P253  1  0.70650303  0.08354625  0.47878629  1
  P  P254  1  0.70769190  0.08464833  0.72803220  1
  P  P255  1  0.70829144  0.08399068  0.97601355  1
  P  P256  1  0.70791797  0.41541883  0.22814830  1
  P  P257  1  0.70772808  0.41511125  0.47837212  1
  P  P258  1  0.70719089  0.41561987  0.72709717  1
  P  P259  1  0.70668510  0.41659959  0.97828068  1
  P  P260  1  0.70729058  0.74996831  0.22851266  1
  P  P261  1  0.70867406  0.74994013  0.47675552  1
  P  P262  1  0.70850450  0.74997323  0.72600359  1
  P  P263  1  0.70728999  0.74881448  0.97616704  1
  P  P264  1  0.29121533  0.24980324  0.02461169  1
  P  P265  1  0.29177219  0.24822624  0.27190191  1
  P  P266  1  0.29218684  0.24828973  0.52257955  1
  P  P267  1  0.29290863  0.24954996  0.77204832  1
  P  P268  1  0.29307105  0.58520208  0.02281080  1
  P  P269  1  0.29146857  0.58338715  0.27341721  1
  P  P270  1  0.29281057  0.58316017  0.52098095  1
  P  P271  1  0.29313429  0.58531587  0.77340240  1
  P  P272  1  0.29141956  0.91602982  0.02359870  1
  P  P273  1  0.29300498  0.91660399  0.27040015  1
  P  P274  1  0.29274400  0.91505403  0.52219733  1
  P  P275  1  0.29239850  0.91525379  0.77256700  1
  P  P276  1  0.79161508  0.25115137  0.02241390  1
  P  P277  1  0.79205603  0.25190202  0.27286098  1
  P  P278  1  0.79062115  0.25023483  0.52352451  1
  P  P279  1  0.79174879  0.24889212  0.77175108  1
  P  P280  1  0.79270423  0.58360039  0.02094899  1
  P  P281  1  0.79237330  0.58416293  0.27287000  1
  P  P282  1  0.79201675  0.58482236  0.52186263  1
  P  P283  1  0.79191345  0.58499526  0.77123258  1
  P  P284  1  0.79214070  0.91730744  0.02041389  1
  P  P285  1  0.79204278  0.91568207  0.27242306  1
  P  P286  1  0.79215014  0.91487343  0.52206852  1
  P  P287  1  0.79230283  0.91810924  0.77171153  1
  O  O288  1  0.03616127  0.25060924  0.18156110  1
  O  O289  1  0.03768425  0.25093187  0.43363868  1
  O  O290  1  0.03694498  0.25184974  0.68270942  1
  O  O291  1  0.03590620  0.25118866  0.93330674  1
  O  O292  1  0.03730331  0.58380696  0.18239645  1
  O  O293  1  0.03688314  0.58111848  0.43280832  1
  O  O294  1  0.03801168  0.58228481  0.68252223  1
  O  O295  1  0.03796485  0.58413360  0.93356022  1
  O  O296  1  0.03792514  0.91808413  0.18177111  1
  O  O297  1  0.03830263  0.91782682  0.43305266  1
  O  O298  1  0.03733164  0.91728045  0.68243342  1
  O  O299  1  0.03707183  0.91645341  0.93257130  1
  O  O300  1  0.53602757  0.25078164  0.18313112  1
  O  O301  1  0.53532703  0.24958401  0.43221137  1
  O  O302  1  0.53544245  0.25021431  0.68168724  1
  O  O303  1  0.53662555  0.25124379  0.93236598  1
  O  O304  1  0.53651489  0.58475937  0.18314445  1
  O  O305  1  0.53661463  0.58367173  0.43316472  1
  O  O306  1  0.53650137  0.58155365  0.68157048  1
  O  O307  1  0.53741132  0.58188465  0.93259107  1
  O  O308  1  0.53677274  0.91618690  0.18168560  1
  O  O309  1  0.53732807  0.91533477  0.43206032  1
  O  O310  1  0.53762936  0.91711136  0.68335375  1
  O  O311  1  0.53670557  0.91779422  0.93315510  1
  O  O312  1  0.46342599  0.08383168  0.06712855  1
  O  O313  1  0.46337334  0.08516731  0.31685757  1
  O  O314  1  0.46276890  0.08282768  0.56741477  1
  O  O315  1  0.46270532  0.08140603  0.81750834  1
  O  O316  1  0.46222876  0.41524829  0.06812696  1
  O  O317  1  0.46322634  0.41625818  0.31854545  1
  O  O318  1  0.46391186  0.41641568  0.56796683  1
  O  O319  1  0.46295604  0.41502889  0.81764576  1
  O  O320  1  0.46455242  0.74997829  0.06800366  1
  O  O321  1  0.46397625  0.74835902  0.31684847  1
  O  O322  1  0.46295161  0.74818250  0.56670829  1
  O  O323  1  0.46369446  0.74971773  0.81899338  1
  O  O324  1  0.96242923  0.08412260  0.06558595  1
  O  O325  1  0.96223389  0.08305859  0.31766268  1
  O  O326  1  0.96233878  0.08304616  0.56646707  1
  O  O327  1  0.96320539  0.08392201  0.81817917  1
  O  O328  1  0.96261738  0.41755380  0.06735278  1
  O  O329  1  0.96319065  0.41760103  0.31863847  1
  O  O330  1  0.96343038  0.41586449  0.56722597  1
  O  O331  1  0.96231808  0.41500028  0.81739325  1
  O  O332  1  0.96288742  0.74963522  0.06598663  1
  O  O333  1  0.96229593  0.74974483  0.31645413  1
  O  O334  1  0.96334015  0.75135680  0.56730536  1
  O  O335  1  0.96371759  0.74989963  0.81680321  1
  O  O336  1  0.21293164  0.08263200  0.05947940  1
  O  O337  1  0.21354814  0.08353938  0.30672735  1
  O  O338  1  0.21367497  0.08446102  0.55767332  1
  O  O339  1  0.21243578  0.08375311  0.80750654  1
  O  O340  1  0.21292185  0.41613862  0.05980445  1
  O  O341  1  0.21356300  0.41618003  0.30849833  1
  O  O342  1  0.21312181  0.41745729  0.55765397  1
  O  O343  1  0.21259382  0.41753186  0.80902334  1
  O  O344  1  0.21441472  0.75005975  0.05734287  1
  O  O345  1  0.21353700  0.74866285  0.30653745  1
  O  O346  1  0.21311463  0.75008901  0.55703949  1
  O  O347  1  0.21402950  0.75156132  0.80800950  1
  O  O348  1  0.71280542  0.08374580  0.05606942  1
  O  O349  1  0.71110309  0.08342221  0.30816850  1
  O  O350  1  0.71185220  0.08402213  0.55873426  1
  O  O351  1  0.71353307  0.08438790  0.80790311  1
  O  O352  1  0.71203559  0.41636672  0.05825571  1
  O  O353  1  0.71322031  0.41535432  0.30814143  1
  O  O354  1  0.71303450  0.41504755  0.55830837  1
  O  O355  1  0.71200440  0.41605220  0.80708022  1
  O  O356  1  0.71227566  0.74909859  0.05615083  1
  O  O357  1  0.71268461  0.75021146  0.30844202  1
  O  O358  1  0.71393702  0.74992860  0.55670197  1
  O  O359  1  0.71353912  0.74944520  0.80598647  1
  O  O360  1  0.28601219  0.24891887  0.19205358  1
  O  O361  1  0.28680950  0.24821262  0.44260801  1
  O  O362  1  0.28769576  0.24915189  0.69207331  1
  O  O363  1  0.28672103  0.25013917  0.94456234  1
  O  O364  1  0.28669839  0.58365997  0.19338938  1
  O  O365  1  0.28727361  0.58278440  0.44108766  1
  O  O366  1  0.28804990  0.58492490  0.69341148  1
  O  O367  1  0.28790473  0.58541122  0.94287369  1
  O  O368  1  0.28750585  0.91693842  0.19052262  1
  O  O369  1  0.28762314  0.91554056  0.44221209  1
  O  O370  1  0.28735012  0.91525612  0.69258229  1
  O  O371  1  0.28662365  0.91541907  0.94358652  1
  O  O372  1  0.78691296  0.25213030  0.19288787  1
  O  O373  1  0.78574678  0.25101989  0.44351877  1
  O  O374  1  0.78630647  0.24903147  0.69185700  1
  O  O375  1  0.78646079  0.25015176  0.94247308  1
  O  O376  1  0.78735329  0.58348191  0.19288348  1
  O  O377  1  0.78672476  0.58468001  0.44191330  1
  O  O378  1  0.78657208  0.58504802  0.69124579  1
  O  O379  1  0.78750237  0.58386634  0.94096053  1
  O  O380  1  0.78681144  0.91615619  0.19239568  1
  O  O381  1  0.78667453  0.91443757  0.44214395  1
  O  O382  1  0.78719981  0.91761611  0.69176143  1
  O  O383  1  0.78701358  0.91792670  0.94043396  1
  O  O384  1  0.22690874  0.24911816  0.06002099  1
  O  O385  1  0.22778989  0.24823091  0.30839546  1
  O  O386  1  0.22799789  0.24833969  0.55850184  1
  O  O387  1  0.22855071  0.25004943  0.80731152  1
  O  O388  1  0.22877399  0.58502272  0.05842523  1
  O  O389  1  0.22729573  0.58360683  0.30924791  1
  O  O390  1  0.22867835  0.58369857  0.55689697  1
  O  O391  1  0.22882268  0.58604974  0.80890836  1
  O  O392  1  0.22730813  0.91654598  0.05947940  1
  O  O393  1  0.22886014  0.91660368  0.30623352  1
  O  O394  1  0.22847149  0.91506130  0.55785348  1
  O  O395  1  0.22810253  0.91471681  0.80818049  1
  O  O396  1  0.72736212  0.25209440  0.05823743  1
  O  O397  1  0.72764699  0.25212446  0.30828186  1
  O  O398  1  0.72644544  0.24975794  0.55939928  1
  O  O399  1  0.72755653  0.24806809  0.80773081  1
  O  O400  1  0.72837772  0.58294576  0.05624999  1
  O  O401  1  0.72806650  0.58452346  0.30838009  1
  O  O402  1  0.72774910  0.58475092  0.55753682  1
  O  O403  1  0.72764766  0.58520092  0.80697217  1
  O  O404  1  0.72775619  0.91693133  0.05566963  1
  O  O405  1  0.72773223  0.91498003  0.30796509  1
  O  O406  1  0.72798867  0.91487351  0.55801247  1
  O  O407  1  0.72803698  0.91827785  0.80731388  1
  O  O408  1  0.27248276  0.08311304  0.19067722  1
  O  O409  1  0.27246230  0.08483526  0.44172347  1
  O  O410  1  0.27184302  0.08449112  0.69208225  1
  O  O411  1  0.27181622  0.08268890  0.94384902  1
  O  O412  1  0.27235949  0.41537475  0.19271986  1
  O  O413  1  0.27268258  0.41694678  0.44237452  1
  O  O414  1  0.27194866  0.41684348  0.69400919  1
  O  O415  1  0.27193578  0.41721686  0.94441307  1
  O  O416  1  0.27316280  0.74872087  0.19096959  1
  O  O417  1  0.27203571  0.74802979  0.44133155  1
  O  O418  1  0.27257336  0.75198312  0.69186108  1
  O  O419  1  0.27366533  0.75079318  0.94119736  1
  O  O420  1  0.77076533  0.08368613  0.19334540  1
  O  O421  1  0.77078419  0.08333576  0.44339397  1
  O  O422  1  0.77163666  0.08512252  0.69146250  1
  O  O423  1  0.77259191  0.08436168  0.94043187  1
  O  O424  1  0.77213051  0.41502937  0.19226648  1
  O  O425  1  0.77195999  0.41524018  0.44257355  1
  O  O426  1  0.77157739  0.41568029  0.69191688  1
  O  O427  1  0.77091955  0.41678084  0.94279665  1
  O  O428  1  0.77151722  0.75011708  0.19281438  1
  O  O429  1  0.77268071  0.74985641  0.44027929  1
  O  O430  1  0.77267340  0.75021640  0.69006367  1
  O  O431  1  0.77164797  0.74878880  0.94073115  1
  O  O432  1  0.02142188  0.08448306  0.18109987  1
  O  O433  1  0.02161223  0.08245491  0.43303217  1
  O  O434  1  0.02137122  0.08375157  0.68177852  1
  O  O435  1  0.02283349  0.08333188  0.93389500  1
  O  O436  1  0.02197503  0.41861034  0.18289313  1
  O  O437  1  0.02276574  0.41706366  0.43436693  1
  O  O438  1  0.02197485  0.41474542  0.68343360  1
  O  O439  1  0.02126643  0.41507979  0.93314889  1
  O  O440  1  0.02192025  0.74990845  0.18128965  1
  O  O441  1  0.02175742  0.74966706  0.43136521  1
  O  O442  1  0.02266758  0.75179387  0.68273831  1
  O  O443  1  0.02244078  0.74868857  0.93274567  1
  O  O444  1  0.52232315  0.08474417  0.18300758  1
  O  O445  1  0.52186131  0.08532629  0.43296967  1
  O  O446  1  0.52172738  0.08153266  0.68331834  1
  O  O447  1  0.52183911  0.08181961  0.93312968  1
  O  O448  1  0.52149982  0.41547166  0.18378523  1
  O  O449  1  0.52275182  0.41560914  0.43432760  1
  O  O450  1  0.52253701  0.41626949  0.68450250  1
  O  O451  1  0.52148753  0.41479125  0.93389812  1
  O  O452  1  0.52330304  0.74997212  0.18447213  1
  O  O453  1  0.52258200  0.74778248  0.43308296  1
  O  O454  1  0.52196310  0.74899982  0.68212679  1
  O  O455  1  0.52372272  0.74932197  0.93434304  1
  O  O456  1  0.47728409  0.25131672  0.06699532  1
  O  O457  1  0.47671620  0.25004917  0.31565389  1
  O  O458  1  0.47649290  0.24961846  0.56545333  1
  O  O459  1  0.47754085  0.25103079  0.81667332  1
  O  O460  1  0.47779958  0.58450841  0.06720969  1
  O  O461  1  0.47779408  0.58412106  0.31711339  1
  O  O462  1  0.47732807  0.58295053  0.56553505  1
  O  O463  1  0.47800175  0.58067012  0.81706961  1
  O  O464  1  0.47728862  0.91708590  0.06589326  1
  O  O465  1  0.47814645  0.91535057  0.31641547  1
  O  O466  1  0.47870913  0.91640408  0.56788042  1
  O  O467  1  0.47787744  0.91779352  0.81703510  1
  O  O468  1  0.97648178  0.25118038  0.06584385  1
  O  O469  1  0.97819376  0.25097843  0.31862698  1
  O  O470  1  0.97792354  0.25183958  0.56699691  1
  O  O471  1  0.97758189  0.25188557  0.81696383  1
  O  O472  1  0.97841877  0.58521214  0.06655529  1
  O  O473  1  0.97781010  0.58138751  0.31706432  1
  O  O474  1  0.97832673  0.58163930  0.56733592  1
  O  O475  1  0.97901536  0.58333238  0.81816242  1
  O  O476  1  0.97830916  0.91834992  0.06657277  1
  O  O477  1  0.97901913  0.91704424  0.31795749  1
  O  O478  1  0.97838174  0.91874968  0.56665337  1
  O  O479  1  0.97813238  0.91534047  0.81686875  1
  O  O480  1  0.07167514  0.31460095  0.07383955  1
  O  O481  1  0.07404369  0.31376046  0.32507992  1
  O  O482  1  0.07320539  0.31501914  0.57394277  1
  O  O483  1  0.07283357  0.31478478  0.82493896  1
  O  O484  1  0.07348032  0.64819188  0.07422971  1
  O  O485  1  0.07310750  0.64505493  0.32519227  1
  O  O486  1  0.07349858  0.64574338  0.57452786  1
  O  O487  1  0.07468696  0.64647107  0.82488865  1
  O  O488  1  0.07314367  0.98204154  0.07326175  1
  O  O489  1  0.07448773  0.98071895  0.32452409  1
  O  O490  1  0.07336908  0.98187873  0.57444236  1
  O  O491  1  0.07340144  0.97949067  0.82463067  1
  O  O492  1  0.57209978  0.31496821  0.07478804  1
  O  O493  1  0.57143528  0.31387148  0.32429355  1
  O  O494  1  0.57143379  0.31327465  0.57321906  1
  O  O495  1  0.57280904  0.31414887  0.82339550  1
  O  O496  1  0.57304987  0.64761501  0.07427439  1
  O  O497  1  0.57292545  0.64723672  0.32452738  1
  O  O498  1  0.57252076  0.64598691  0.57386809  1
  O  O499  1  0.57313874  0.64479797  0.82412014  1
  O  O500  1  0.57237597  0.98056600  0.07383094  1
  O  O501  1  0.57344569  0.97897743  0.32461647  1
  O  O502  1  0.57409792  0.97993944  0.57482262  1
  O  O503  1  0.57286039  0.98110103  0.82423091  1
  O  O504  1  0.42711006  0.02090692  0.17519061  1
  O  O505  1  0.42716431  0.02072433  0.42405580  1
  O  O506  1  0.42678207  0.01827819  0.67551336  1
  O  O507  1  0.42662298  0.01846380  0.92659269  1
  O  O508  1  0.42647047  0.35207488  0.17713046  1
  O  O509  1  0.42715959  0.35283142  0.42670753  1
  O  O510  1  0.42747138  0.35269438  0.67593939  1
  O  O511  1  0.42640814  0.35160838  0.92637643  1
  O  O512  1  0.42824953  0.68671511  0.17651134  1
  O  O513  1  0.42751344  0.68472542  0.42544815  1
  O  O514  1  0.42645777  0.68564092  0.67529937  1
  O  O515  1  0.42863558  0.68584214  0.92723662  1
  O  O516  1  0.92606048  0.02081692  0.17407393  1
  O  O517  1  0.92672538  0.01879357  0.42594472  1
  O  O518  1  0.92573774  0.02049107  0.67506503  1
  O  O519  1  0.92781020  0.01976147  0.92594607  1
  O  O520  1  0.92662026  0.35485540  0.17584691  1
  O  O521  1  0.92808630  0.35297722  0.42668188  1
  O  O522  1  0.92660558  0.35217811  0.67562024  1
  O  O523  1  0.92583694  0.35222747  0.92625491  1
  O  O524  1  0.92598680  0.68714844  0.17449317  1
  O  O525  1  0.92642899  0.68620515  0.42465418  1
  O  O526  1  0.92738607  0.68773468  0.67475274  1
  O  O527  1  0.92758308  0.68531467  0.92484625  1
  O  O528  1  0.17765140  0.01935925  0.19878524  1
  O  O529  1  0.17762555  0.02064851  0.44997218  1
  O  O530  1  0.17658037  0.02069788  0.69940950  1
  O  O531  1  0.17650761  0.01955078  0.95077904  1
  O  O532  1  0.17739878  0.35208342  0.20035135  1
  O  O533  1  0.17682944  0.35408373  0.45015208  1
  O  O534  1  0.17626330  0.35410533  0.70086879  1
  O  O535  1  0.17666273  0.35340883  0.95119004  1
  O  O536  1  0.17753143  0.68584008  0.19804757  1
  O  O537  1  0.17666165  0.68557597  0.44920630  1
  O  O538  1  0.17733266  0.68816416  0.70005432  1
  O  O539  1  0.17901364  0.68681057  0.94851927  1
  O  O540  1  0.67547752  0.02000044  0.19976496  1
  O  O541  1  0.67551690  0.01983753  0.45110078  1
  O  O542  1  0.67663378  0.02100559  0.70011602  1
  O  O543  1  0.67797386  0.02018415  0.94747038  1
  O  O544  1  0.67666450  0.35237810  0.19937686  1
  O  O545  1  0.67670534  0.35194557  0.44958420  1
  O  O546  1  0.67671611  0.35184073  0.69895882  1
  O  O547  1  0.67549364  0.35327228  0.95001378  1
  O  O548  1  0.67630662  0.68635379  0.20047063  1
  O  O549  1  0.67779107  0.68628735  0.44844393  1
  O  O550  1  0.67754476  0.68659846  0.69727282  1
  O  O551  1  0.67675263  0.68525240  0.94770302  1
  O  O552  1  0.32127320  0.31375717  0.05315272  1
  O  O553  1  0.32322556  0.31148856  0.30027292  1
  O  O554  1  0.32305382  0.31221070  0.55008803  1
  O  O555  1  0.32406965  0.31304416  0.80006707  1
  O  O556  1  0.32390108  0.64847283  0.05167610  1
  O  O557  1  0.32264715  0.64666782  0.30178712  1
  O  O558  1  0.32426951  0.64642438  0.54916480  1
  O  O559  1  0.32419783  0.64879824  0.80147939  1
  O  O560  1  0.32255901  0.97961603  0.05138167  1
  O  O561  1  0.32433160  0.97972767  0.29918620  1
  O  O562  1  0.32381001  0.97864798  0.55009055  1
  O  O563  1  0.32269448  0.97933858  0.80055154  1
  O  O564  1  0.82258611  0.31468125  0.05046693  1
  O  O565  1  0.82325812  0.31484204  0.30202760  1
  O  O566  1  0.82134854  0.31373064  0.55233783  1
  O  O567  1  0.82233965  0.31273700  0.79982471  1
  O  O568  1  0.82357771  0.64699452  0.04943078  1
  O  O569  1  0.82321979  0.64773238  0.30084011  1
  O  O570  1  0.82298474  0.64811639  0.55041825  1
  O  O571  1  0.82293792  0.64824061  0.79990781  1
  O  O572  1  0.82321510  0.98042697  0.04930718  1
  O  O573  1  0.82265369  0.97950404  0.30045855  1
  O  O574  1  0.82297707  0.97884709  0.54938024  1
  O  O575  1  0.82287866  0.98175940  0.80022930  1
  O  O576  1  0.42727887  0.14799267  0.17525455  1
  O  O577  1  0.42638165  0.14787628  0.42567481  1
  O  O578  1  0.42646508  0.14542162  0.67568722  1
  O  O579  1  0.42653349  0.14550644  0.92496652  1
  O  O580  1  0.42622963  0.47916186  0.17571358  1
  O  O581  1  0.42844962  0.48010092  0.42711526  1
  O  O582  1  0.42775288  0.47994549  0.67645786  1
  O  O583  1  0.42627013  0.47854063  0.92560376  1
  O  O584  1  0.42861012  0.81397357  0.17611711  1
  O  O585  1  0.42732683  0.81172649  0.42461373  1
  O  O586  1  0.42671399  0.81248523  0.67450275  1
  O  O587  1  0.42897980  0.81332370  0.92755493  1
  O  O588  1  0.92577915  0.14751994  0.17416017  1
  O  O589  1  0.92598879  0.14604508  0.42553444  1
  O  O590  1  0.92615259  0.14730526  0.67422216  1
  O  O591  1  0.92814368  0.14736907  0.92656696  1
  O  O592  1  0.92705222  0.48196078  0.17565637  1
  O  O593  1  0.92730031  0.48022999  0.42749304  1
  O  O594  1  0.92698311  0.47916067  0.67532313  1
  O  O595  1  0.92630642  0.47933403  0.92470518  1
  O  O596  1  0.92687261  0.81408635  0.17362010  1
  O  O597  1  0.92624819  0.81317185  0.42454322  1
  O  O598  1  0.92765717  0.81507887  0.67588680  1
  O  O599  1  0.92684726  0.81239368  0.92481381  1
  O  O600  1  0.07108789  0.18711620  0.07288086  1
  O  O601  1  0.07323624  0.18690034  0.32538422  1
  O  O602  1  0.07318384  0.18800308  0.57518089  1
  O  O603  1  0.07271612  0.18781697  0.82537273  1
  O  O604  1  0.07373754  0.52105788  0.07441579  1
  O  O605  1  0.07284033  0.51798515  0.32383826  1
  O  O606  1  0.07357839  0.51842303  0.57417991  1
  O  O607  1  0.07418109  0.51956064  0.82619395  1
  O  O608  1  0.07388080  0.85477322  0.07412473  1
  O  O609  1  0.07452190  0.85378999  0.32494240  1
  O  O610  1  0.07380065  0.85470544  0.57417932  1
  O  O611  1  0.07318324  0.85230458  0.82423603  1
  O  O612  1  0.57281779  0.18807388  0.07470866  1
  O  O613  1  0.57186132  0.18669559  0.32354573  1
  O  O614  1  0.57128911  0.18592770  0.57386367  1
  O  O615  1  0.57260746  0.18710472  0.82485289  1
  O  O616  1  0.57283405  0.52047886  0.07595036  1
  O  O617  1  0.57304248  0.52028581  0.32523781  1
  O  O618  1  0.57192046  0.51860899  0.57280503  1
  O  O619  1  0.57312037  0.51772290  0.82407419  1
  O  O620  1  0.57209660  0.85314717  0.07283386  1
  O  O621  1  0.57295101  0.85167082  0.32359932  1
  O  O622  1  0.57409466  0.85307003  0.57558852  1
  O  O623  1  0.57323670  0.85408431  0.82542482  1
  O  O624  1  0.32256976  0.18622719  0.05227715  1
  O  O625  1  0.32259306  0.18456203  0.30009058  1
  O  O626  1  0.32320657  0.18504098  0.55130719  1
  O  O627  1  0.32388120  0.18615491  0.80073615  1
  O  O628  1  0.32409561  0.52144275  0.05062786  1
  O  O629  1  0.32175245  0.51915822  0.30146608  1
  O  O630  1  0.32385299  0.51976374  0.54977886  1
  O  O631  1  0.32373953  0.52152246  0.80152212  1
  O  O632  1  0.32195588  0.85225816  0.05232835  1
  O  O633  1  0.32413423  0.85297270  0.29841872  1
  O  O634  1  0.32341054  0.85135732  0.55035227  1
  O  O635  1  0.32394248  0.85238196  0.80159340  1
  O  O636  1  0.82231065  0.18750045  0.05085762  1
  O  O637  1  0.82269906  0.18780894  0.30056399  1
  O  O638  1  0.82155862  0.18633297  0.55108833  1
  O  O639  1  0.82321535  0.18584639  0.80070184  1
  O  O640  1  0.82405707  0.52021128  0.04922418  1
  O  O641  1  0.82323048  0.52049859  0.30109700  1
  O  O642  1  0.82301020  0.52104422  0.54971748  1
  O  O643  1  0.82274733  0.52102704  0.79885086  1
  O  O644  1  0.82313474  0.85348847  0.04811744  1
  O  O645  1  0.82326018  0.85228398  0.30054662  1
  O  O646  1  0.82328903  0.85174278  0.55101829  1
  O  O647  1  0.82358285  0.85462240  0.79967424  1
  O  O648  1  0.17723351  0.14669844  0.19845908  1
  O  O649  1  0.17702064  0.14776304  0.44902782  1
  O  O650  1  0.17674975  0.14798907  0.69930655  1
  O  O651  1  0.17647583  0.14634098  0.95138149  1
  O  O652  1  0.17702284  0.47924200  0.20046239  1
  O  O653  1  0.17816567  0.48121253  0.44868011  1
  O  O654  1  0.17682690  0.48112111  0.70086246  1
  O  O655  1  0.17647377  0.48037641  0.95212662  1
  O  O656  1  0.17872262  0.81315112  0.19815040  1
  O  O657  1  0.17699223  0.81264505  0.44846545  1
  O  O658  1  0.17745051  0.81503047  0.69908490  1
  O  O659  1  0.17826268  0.81394474  0.94915780  1
  O  O660  1  0.67534608  0.14702953  0.19989383  1
  O  O661  1  0.67527745  0.14676934  0.45016466  1
  O  O662  1  0.67628759  0.14790970  0.69951078  1
  O  O663  1  0.67730244  0.14773816  0.94819997  1
  O  O664  1  0.67717294  0.47946929  0.20054652  1
  O  O665  1  0.67678133  0.47902238  0.45075720  1
  O  O666  1  0.67607862  0.47912295  0.69898142  1
  O  O667  1  0.67555350  0.48009656  0.95005688  1
  O  O668  1  0.67595669  0.81309904  0.19951738  1
  O  O669  1  0.67765033  0.81354316  0.44841538  1
  O  O670  1  0.67778144  0.81401430  0.69837780  1
  O  O671  1  0.67627300  0.81249709  0.94833146  1
