# generated using pymatgen
data_Na2MnFe(PO4)2
_symmetry_space_group_name_H-M   'P 1'
_cell_length_a   22.34437384
_cell_length_b   20.09820788
_cell_length_c   19.44710209
_cell_angle_alpha   89.99494970
_cell_angle_beta   90.07427329
_cell_angle_gamma   90.01383644
_symmetry_Int_Tables_number   1
_chemical_formula_structural   Na2MnFe(PO4)2
_chemical_formula_sum   'Na96 Mn48 Fe48 P96 O384'
_cell_volume   8733.33335593
_cell_formula_units_Z   48
loop_
 _symmetry_equiv_pos_site_id
 _symmetry_equiv_pos_as_xyz
  1  'x, y, z'
loop_
 _atom_site_type_symbol
 _atom_site_label
 _atom_site_symmetry_multiplicity
 _atom_site_fract_x
 _atom_site_fract_y
 _atom_site_fract_z
 _atom_site_occupancy
  Na  Na0  1  0.13962396  0.25088998  0.24414149  1
  Na  Na1  1  0.14041525  0.25013344  0.49412741  1
  Na  Na2  1  0.14089249  0.25001212  0.74293254  1
  Na  Na3  1  0.13997256  0.25027001  0.99419335  1
  Na  Na4  1  0.13983034  0.58463489  0.24375310  1
  Na  Na5  1  0.13982283  0.58255794  0.49200912  1
  Na  Na6  1  0.13959515  0.58180023  0.74216146  1
  Na  Na7  1  0.14022757  0.58385057  0.99504666  1
  Na  Na8  1  0.14000807  0.91511648  0.24397780  1
  Na  Na9  1  0.13965976  0.91619031  0.49299902  1
  Na  Na10  1  0.13924978  0.91812976  0.74273952  1
  Na  Na11  1  0.14011230  0.91670094  0.99478882  1
  Na  Na12  1  0.63994496  0.24914132  0.24325882  1
  Na  Na13  1  0.64046712  0.24895047  0.49383001  1
  Na  Na14  1  0.64088951  0.24922868  0.74281795  1
  Na  Na15  1  0.64045434  0.24821996  0.99456180  1
  Na  Na16  1  0.64042284  0.58382113  0.24410122  1
  Na  Na17  1  0.63991858  0.58342944  0.49289979  1
  Na  Na18  1  0.64006678  0.58313950  0.74313733  1
  Na  Na19  1  0.64062677  0.58357215  0.99385406  1
  Na  Na20  1  0.64032268  0.91796449  0.24457139  1
  Na  Na21  1  0.63959487  0.91724848  0.49341091  1
  Na  Na22  1  0.63960265  0.91757586  0.74309915  1
  Na  Na23  1  0.64028886  0.91688420  0.99420254  1
  Na  Na24  1  0.36004307  0.08270852  0.00611647  1
  Na  Na25  1  0.35990148  0.08333758  0.25770397  1
  Na  Na26  1  0.35975208  0.08383644  0.50710991  1
  Na  Na27  1  0.36017030  0.08372699  0.75538688  1
  Na  Na28  1  0.36026777  0.41822863  0.00706809  1
  Na  Na29  1  0.36054419  0.41763593  0.25773260  1
  Na  Na30  1  0.36016457  0.41607561  0.50708277  1
  Na  Na31  1  0.36004157  0.41734020  0.75485898  1
  Na  Na32  1  0.35936472  0.75008530  0.00551176  1
  Na  Na33  1  0.35953033  0.74990365  0.25637379  1
  Na  Na34  1  0.35995836  0.75013179  0.50638834  1
  Na  Na35  1  0.35930653  0.75053181  0.75422580  1
  Na  Na36  1  0.85973498  0.08170845  0.00717946  1
  Na  Na37  1  0.85987281  0.08256997  0.25550498  1
  Na  Na38  1  0.85958424  0.08179524  0.50611850  1
  Na  Na39  1  0.86010211  0.08189003  0.75643250  1
  Na  Na40  1  0.86012320  0.41531190  0.00698699  1
  Na  Na41  1  0.86054107  0.41625050  0.25710941  1
  Na  Na42  1  0.86066930  0.41593283  0.50741083  1
  Na  Na43  1  0.86019924  0.41703258  0.75565981  1
  Na  Na44  1  0.85922759  0.75159270  0.00669293  1
  Na  Na45  1  0.86022817  0.75165725  0.25727965  1
  Na  Na46  1  0.86011442  0.75072691  0.50638862  1
  Na  Na47  1  0.85925293  0.75084540  0.75566833  1
  Na  Na48  1  0.10916378  0.08453535  0.11874228  1
  Na  Na49  1  0.10904776  0.08284027  0.36936195  1
  Na  Na50  1  0.10964685  0.08281134  0.61775907  1
  Na  Na51  1  0.10941558  0.08329189  0.86934495  1
  Na  Na52  1  0.10928719  0.41608445  0.12020089  1
  Na  Na53  1  0.10927204  0.41609414  0.36907907  1
  Na  Na54  1  0.10974595  0.41748397  0.61712571  1
  Na  Na55  1  0.10951258  0.41595657  0.86883599  1
  Na  Na56  1  0.11007418  0.75056934  0.11926576  1
  Na  Na57  1  0.10964486  0.74912389  0.36761698  1
  Na  Na58  1  0.10824876  0.74954089  0.61649089  1
  Na  Na59  1  0.10905611  0.75009359  0.86894118  1
  Na  Na60  1  0.60992541  0.08321714  0.11917180  1
  Na  Na61  1  0.60922635  0.08309120  0.36843511  1
  Na  Na62  1  0.60999409  0.08327114  0.61814963  1
  Na  Na63  1  0.60980511  0.08221032  0.86752296  1
  Na  Na64  1  0.60946522  0.41622853  0.11996011  1
  Na  Na65  1  0.60947356  0.41580738  0.36966313  1
  Na  Na66  1  0.60957797  0.41805509  0.61795430  1
  Na  Na67  1  0.60959347  0.41674635  0.86882646  1
  Na  Na68  1  0.60983301  0.75009605  0.11878197  1
  Na  Na69  1  0.60948533  0.75067717  0.36887362  1
  Na  Na70  1  0.60846328  0.75105331  0.61775145  1
  Na  Na71  1  0.60939176  0.75064718  0.86808383  1
  Na  Na72  1  0.39124769  0.25016130  0.13302726  1
  Na  Na73  1  0.39064043  0.25062779  0.38236106  1
  Na  Na74  1  0.39056071  0.25123957  0.63206125  1
  Na  Na75  1  0.39096659  0.25057944  0.87983098  1
  Na  Na76  1  0.39080879  0.58264978  0.13148902  1
  Na  Na77  1  0.39094618  0.58311717  0.38226027  1
  Na  Na78  1  0.39042239  0.58406987  0.63001441  1
  Na  Na79  1  0.39035045  0.58301594  0.88027712  1
  Na  Na80  1  0.39015981  0.91658103  0.13213191  1
  Na  Na81  1  0.39035723  0.91634255  0.38188317  1
  Na  Na82  1  0.39051398  0.91819031  0.63079788  1
  Na  Na83  1  0.39002257  0.91671319  0.87958252  1
  Na  Na84  1  0.89113596  0.25002046  0.13130812  1
  Na  Na85  1  0.89077328  0.24925833  0.38084671  1
  Na  Na86  1  0.89069240  0.25001200  0.63157179  1
  Na  Na87  1  0.89096562  0.24875928  0.88178270  1
  Na  Na88  1  0.89110880  0.58342192  0.13268785  1
  Na  Na89  1  0.89135477  0.58302144  0.38192467  1
  Na  Na90  1  0.89032972  0.58312998  0.63037112  1
  Na  Na91  1  0.89080097  0.58194949  0.88038919  1
  Na  Na92  1  0.88977653  0.91731570  0.13246055  1
  Na  Na93  1  0.89011667  0.91555651  0.38185893  1
  Na  Na94  1  0.89003862  0.91700571  0.63061666  1
  Na  Na95  1  0.88948502  0.91778868  0.88228772  1
  Mn  Mn96  1  0.24861740  0.66606824  0.62446612  1
  Mn  Mn97  1  -0.00025386  0.66637728  0.00024807  1
  Mn  Mn98  1  -0.00078115  0.83424521  0.74923390  1
  Mn  Mn99  1  0.75051100  0.66776181  0.87485510  1
  Mn  Mn100  1  -0.00042717  0.16647932  0.50009757  1
  Mn  Mn101  1  0.24934439  0.66670924  0.87444943  1
  Mn  Mn102  1  0.50000072  0.66549676  0.24997234  1
  Mn  Mn103  1  0.75054816  0.50014876  0.12508251  1
  Mn  Mn104  1  0.00058350  0.16581856  0.75053210  1
  Mn  Mn105  1  0.00065029  0.49859005  0.00118515  1
  Mn  Mn106  1  0.24911493  0.83355170  0.87453295  1
  Mn  Mn107  1  0.49969589  0.83336764  -0.00049932  1
  Mn  Mn108  1  0.75041551  0.49996806  0.37500357  1
  Mn  Mn109  1  0.75049855  0.33211600  0.37554273  1
  Mn  Mn110  1  0.74905712  0.83460868  0.62569346  1
  Mn  Mn111  1  0.00000937  -0.00008074  0.25033484  1
  Mn  Mn112  1  0.75046006  0.16487557  0.37447359  1
  Mn  Mn113  1  0.00063301  0.33379157  0.75050589  1
  Mn  Mn114  1  0.24929136  -0.00036706  0.37531250  1
  Mn  Mn115  1  0.24945897  0.16761422  0.37632484  1
  Mn  Mn116  1  -0.00079498  0.83436801  -0.00038513  1
  Mn  Mn117  1  0.49998546  0.16702712  0.49987564  1
  Mn  Mn118  1  0.49985630  0.66525714  -0.00127890  1
  Mn  Mn119  1  0.25053562  0.16707821  0.12569743  1
  Mn  Mn120  1  0.75073765  0.66858452  0.12462419  1
  Mn  Mn121  1  0.49966049  0.83357158  0.24987097  1
  Mn  Mn122  1  0.75028887  0.33258457  0.87452544  1
  Mn  Mn123  1  -0.00065356  0.66583933  0.74882370  1
  Mn  Mn124  1  0.75010604  0.33261450  0.62487865  1
  Mn  Mn125  1  0.74973297  0.33207807  0.12526116  1
  Mn  Mn126  1  0.50047558  0.33370459  0.00055373  1
  Mn  Mn127  1  0.25040500  0.16672955  0.87445022  1
  Mn  Mn128  1  0.49982948  0.16649616  0.00051042  1
  Mn  Mn129  1  0.24870309  0.83386537  0.62467925  1
  Mn  Mn130  1  0.24957734  0.50152701  0.12637529  1
  Mn  Mn131  1  0.75078016  0.66798248  0.37490295  1
  Mn  Mn132  1  0.25051507  0.33414754  0.12513522  1
  Mn  Mn133  1  0.75060847  0.16483101  0.87437144  1
  Mn  Mn134  1  0.24974278  0.50032892  0.87472604  1
  Mn  Mn135  1  0.50034893  0.33442836  0.75047508  1
  Mn  Mn136  1  0.24977122  0.00020391  0.87477985  1
  Mn  Mn137  1  0.25048295  0.33379501  0.87466212  1
  Mn  Mn138  1  0.24955459  -0.00098602  0.12615345  1
  Mn  Mn139  1  0.49956681  0.00022428  -0.00070977  1
  Mn  Mn140  1  0.74902339  0.66680963  0.62529403  1
  Mn  Mn141  1  0.75014720  0.50014634  0.87519468  1
  Mn  Mn142  1  0.49995853  0.66716609  0.74932155  1
  Mn  Mn143  1  0.24997787  0.49998761  0.37488024  1
  Fe  Fe144  1  0.50084031  0.16730588  0.74948475  1
  Fe  Fe145  1  -0.00005323  0.83295786  0.49967685  1
  Fe  Fe146  1  0.75013820  -0.00047415  0.62505091  1
  Fe  Fe147  1  0.00027814  0.00055954  0.00094856  1
  Fe  Fe148  1  -0.00004773  0.49998861  0.49913186  1
  Fe  Fe149  1  0.50005062  0.66691697  0.49983491  1
  Fe  Fe150  1  0.75000379  -0.00068761  0.12533446  1
  Fe  Fe151  1  0.75042188  0.16529305  0.12457548  1
  Fe  Fe152  1  0.75003665  0.49989585  0.62489960  1
  Fe  Fe153  1  0.50071469  0.49939462  0.25109445  1
  Fe  Fe154  1  0.25018025  0.00028475  0.62415829  1
  Fe  Fe155  1  0.00006940  0.49965572  0.74927674  1
  Fe  Fe156  1  0.25023972  0.66698241  0.37458125  1
  Fe  Fe157  1  0.74971408  0.83444037  0.12575244  1
  Fe  Fe158  1  0.49916090  0.83396093  0.74841882  1
  Fe  Fe159  1  0.74970139  0.83435372  0.37548177  1
  Fe  Fe160  1  0.50006993  0.50013725  0.49986863  1
  Fe  Fe161  1  -0.00014544  0.66627262  0.49897070  1
  Fe  Fe162  1  0.00043107  0.83328448  0.25050402  1
  Fe  Fe163  1  0.00014445  0.16677057  0.00032503  1
  Fe  Fe164  1  -0.00003620  0.33294247  0.25045953  1
  Fe  Fe165  1  -0.00000295  0.33337523  0.49977324  1
  Fe  Fe166  1  -0.00024274  0.00005384  0.75008571  1
  Fe  Fe167  1  0.75073917  0.16537572  0.62464836  1
  Fe  Fe168  1  0.49993997  0.16652727  0.25100431  1
  Fe  Fe169  1  0.25018702  0.33346333  0.37599223  1
  Fe  Fe170  1  0.00005031  0.16683215  0.24969505  1
  Fe  Fe171  1  0.50007890  0.33348557  0.25095119  1
  Fe  Fe172  1  0.74942531  -0.00066158  0.87573859  1
  Fe  Fe173  1  0.50073198  0.33361577  0.50019136  1
  Fe  Fe174  1  0.25029333  0.16702126  0.62482312  1
  Fe  Fe175  1  -0.00007960  0.66667872  0.25070846  1
  Fe  Fe176  1  0.49988112  0.00038178  0.74887584  1
  Fe  Fe177  1  -0.00032587  -0.00065904  0.49939201  1
  Fe  Fe178  1  0.50004479  0.00001941  0.25068849  1
  Fe  Fe179  1  0.49942941  0.00055879  0.50008792  1
  Fe  Fe180  1  0.74909800  0.83421637  0.87527819  1
  Fe  Fe181  1  0.25034559  0.83277870  0.12496409  1
  Fe  Fe182  1  0.74955369  -0.00012264  0.37479741  1
  Fe  Fe183  1  0.49990792  0.83413158  0.49945175  1
  Fe  Fe184  1  0.25026502  0.49961194  0.62373445  1
  Fe  Fe185  1  0.50005202  0.50066829  0.74909553  1
  Fe  Fe186  1  -0.00000486  0.33291644  0.00062211  1
  Fe  Fe187  1  0.25034973  0.83305370  0.37478803  1
  Fe  Fe188  1  0.00001044  0.49954077  0.25060596  1
  Fe  Fe189  1  0.50024213  0.49933986  0.00050212  1
  Fe  Fe190  1  0.25005190  0.33332194  0.62487672  1
  Fe  Fe191  1  0.25031634  0.66750332  0.12505963  1
  P  P192  1  0.04162670  0.25007237  0.10255839  1
  P  P193  1  0.04111538  0.24967679  0.35205884  1
  P  P194  1  0.04213225  0.25121887  0.60225001  1
  P  P195  1  0.04316108  0.24948692  0.85400378  1
  P  P196  1  0.04242846  0.58317667  0.10467901  1
  P  P197  1  0.04114592  0.58287831  0.35223671  1
  P  P198  1  0.04111448  0.58297609  0.60065992  1
  P  P199  1  0.04221323  0.58161973  0.85189987  1
  P  P200  1  0.04174129  0.91775019  0.10323974  1
  P  P201  1  0.04196992  0.91506322  0.35339324  1
  P  P202  1  0.04107584  0.91661751  0.60130991  1
  P  P203  1  0.04164109  0.91848739  0.85274855  1
  P  P204  1  0.54251609  0.24996808  0.10467146  1
  P  P205  1  0.54142826  0.25032205  0.35238112  1
  P  P206  1  0.54219096  0.25135032  0.60280098  1
  P  P207  1  0.54305990  0.24916006  0.85226695  1
  P  P208  1  0.54256765  0.58137782  0.10277687  1
  P  P209  1  0.54233200  0.58179070  0.35362119  1
  P  P210  1  0.54127244  0.58359435  0.60141492  1
  P  P211  1  0.54225896  0.58185933  0.85206967  1
  P  P212  1  0.54221107  0.91728635  0.10328786  1
  P  P213  1  0.54161851  0.91775548  0.35337908  1
  P  P214  1  0.54079048  0.91732470  0.60164692  1
  P  P215  1  0.54076651  0.91665481  0.85035332  1
  P  P216  1  0.45849597  0.08316998  0.14933779  1
  P  P217  1  0.45771510  0.08238624  0.39720294  1
  P  P218  1  0.45919292  0.08412887  0.64763742  1
  P  P219  1  0.45753317  0.08390264  0.89548337  1
  P  P220  1  0.45867834  0.41689558  0.14908616  1
  P  P221  1  0.45896932  0.41645343  0.39835445  1
  P  P222  1  0.45845861  0.41843842  0.64649454  1
  P  P223  1  0.45784664  0.41802843  0.89743123  1
  P  P224  1  0.45729061  0.74926199  0.14677225  1
  P  P225  1  0.45871347  0.75016138  0.39840805  1
  P  P226  1  0.45774785  0.75168827  0.64575647  1
  P  P227  1  0.45703762  0.75007124  0.89555670  1
  P  P228  1  0.95836913  0.08476267  0.14697188  1
  P  P229  1  0.95767006  0.08195882  0.39723132  1
  P  P230  1  0.95819041  0.08173536  0.64720946  1
  P  P231  1  0.95849206  0.08303673  0.89887152  1
  P  P232  1  0.95869696  0.41602030  0.14892017  1
  P  P233  1  0.95875611  0.41627609  0.39771902  1
  P  P234  1  0.95833147  0.41768724  0.64649931  1
  P  P235  1  0.95782356  0.41507326  0.89785563  1
  P  P236  1  0.95881425  0.75039021  0.14904840  1
  P  P237  1  0.95898087  0.74997095  0.39754903  1
  P  P238  1  0.95692675  0.75010241  0.64540819  1
  P  P239  1  0.95663141  0.74994057  0.89673933  1
  P  P240  1  0.20690568  0.08349525  0.22879730  1
  P  P241  1  0.20716112  0.08340183  0.47937769  1
  P  P242  1  0.20853834  0.08362262  0.72574020  1
  P  P243  1  0.20731129  0.08341427  0.97832478  1
  P  P244  1  0.20748232  0.41688767  0.22940460  1
  P  P245  1  0.20821195  0.41524794  0.47835272  1
  P  P246  1  0.20846626  0.41679325  0.72568009  1
  P  P247  1  0.20727496  0.41723926  0.97833594  1
  P  P248  1  0.20891279  0.75003403  0.22742274  1
  P  P249  1  0.20833273  0.74995781  0.47589181  1
  P  P250  1  0.20551554  0.74999617  0.72725493  1
  P  P251  1  0.20687220  0.75007331  0.97871478  1
  P  P252  1  0.70872355  0.08258020  0.22660448  1
  P  P253  1  0.70768413  0.08161344  0.47794147  1
  P  P254  1  0.70879762  0.08226523  0.72652040  1
  P  P255  1  0.70767088  0.08139173  0.97807173  1
  P  P256  1  0.70765785  0.41640983  0.22848211  1
  P  P257  1  0.70805225  0.41630403  0.47881770  1
  P  P258  1  0.70791189  0.41739255  0.72715133  1
  P  P259  1  0.70744683  0.41585283  0.97823362  1
  P  P260  1  0.70785075  0.75249197  0.22820716  1
  P  P261  1  0.70757050  0.75172361  0.47750924  1
  P  P262  1  0.70644013  0.75099253  0.72868981  1
  P  P263  1  0.70750561  0.75230185  0.97778477  1
  P  P264  1  0.29374502  0.25031379  0.02210400  1
  P  P265  1  0.29240500  0.25156401  0.27364145  1
  P  P266  1  0.29176871  0.25042848  0.52359283  1
  P  P267  1  0.29295072  0.25035205  0.77040059  1
  P  P268  1  0.29238390  0.58499745  0.02297282  1
  P  P269  1  0.29237072  0.58531370  0.27254889  1
  P  P270  1  0.29167099  0.58254314  0.52152985  1
  P  P271  1  0.29225218  0.58304353  0.77057994  1
  P  P272  1  0.29241969  0.91543740  0.02286899  1
  P  P273  1  0.29212152  0.91495397  0.27256282  1
  P  P274  1  0.29183821  0.91733136  0.52194927  1
  P  P275  1  0.29198586  0.91733632  0.77073703  1
  P  P276  1  0.79259389  0.24754718  0.02253941  1
  P  P277  1  0.79275226  0.24857363  0.27134174  1
  P  P278  1  0.79269584  0.24766089  0.52264453  1
  P  P279  1  0.79331598  0.24871486  0.77109359  1
  P  P280  1  0.79356707  0.58416920  0.02207675  1
  P  P281  1  0.79351690  0.58427109  0.27204474  1
  P  P282  1  0.79184891  0.58273245  0.52269259  1
  P  P283  1  0.79259973  0.58337354  0.77128333  1
  P  P284  1  0.79125076  0.91657516  0.02335398  1
  P  P285  1  0.79145426  0.91702300  0.27322092  1
  P  P286  1  0.79163594  0.91782146  0.52201744  1
  P  P287  1  0.79118063  0.91717691  0.77367769  1
  O  O288  1  0.03642427  0.24971196  0.18248171  1
  O  O289  1  0.03596706  0.25029315  0.43197958  1
  O  O290  1  0.03737572  0.25096994  0.68218810  1
  O  O291  1  0.03790885  0.24943063  0.93390688  1
  O  O292  1  0.03696967  0.58318354  0.18456956  1
  O  O293  1  0.03606860  0.58331531  0.43212166  1
  O  O294  1  0.03670894  0.58270160  0.68061988  1
  O  O295  1  0.03714727  0.58171071  0.93186982  1
  O  O296  1  0.03661568  0.91682902  0.18319680  1
  O  O297  1  0.03649237  0.91518505  0.43326291  1
  O  O298  1  0.03605101  0.91709895  0.68127053  1
  O  O299  1  0.03655007  0.91876758  0.93271756  1
  O  O300  1  0.53707142  0.25002383  0.18457693  1
  O  O301  1  0.53684973  0.25032767  0.43241457  1
  O  O302  1  0.53699279  0.25079279  0.68271906  1
  O  O303  1  0.53786805  0.24925235  0.93225016  1
  O  O304  1  0.53743839  0.58146954  0.18278044  1
  O  O305  1  0.53682637  0.58234774  0.43348747  1
  O  O306  1  0.53648742  0.58386205  0.68138670  1
  O  O307  1  0.53701485  0.58150356  0.93203280  1
  O  O308  1  0.53712388  0.91770988  0.18325448  1
  O  O309  1  0.53601243  0.91765287  0.43322877  1
  O  O310  1  0.53537906  0.91699985  0.68151273  1
  O  O311  1  0.53606144  0.91690505  0.93033871  1
  O  O312  1  0.46292763  0.08362516  0.06929036  1
  O  O313  1  0.46308100  0.08254186  0.31735546  1
  O  O314  1  0.46386093  0.08356432  0.56764203  1
  O  O315  1  0.46303830  0.08422750  0.81560133  1
  O  O316  1  0.46363189  0.41709783  0.06909109  1
  O  O317  1  0.46432179  0.41621370  0.31847523  1
  O  O318  1  0.46403493  0.41781695  0.56666765  1
  O  O319  1  0.46303749  0.41816237  0.81746800  1
  O  O320  1  0.46227490  0.74917513  0.06681969  1
  O  O321  1  0.46341476  0.74964413  0.31842945  1
  O  O322  1  0.46345798  0.75152225  0.56589352  1
  O  O323  1  0.46223254  0.75059873  0.81556098  1
  O  O324  1  0.96413834  0.08454340  0.06713948  1
  O  O325  1  0.96308109  0.08274431  0.31737345  1
  O  O326  1  0.96318477  0.08151460  0.56727315  1
  O  O327  1  0.96336175  0.08274596  0.81885752  1
  O  O328  1  0.96358836  0.41513399  0.06898242  1
  O  O329  1  0.96374796  0.41680114  0.31784175  1
  O  O330  1  0.96355043  0.41706737  0.56660943  1
  O  O331  1  0.96298814  0.41600529  0.81793218  1
  O  O332  1  0.96326922  0.75022973  0.06904015  1
  O  O333  1  0.96406382  0.75003033  0.31764260  1
  O  O334  1  0.96239139  0.75030340  0.56550311  1
  O  O335  1  0.96156851  0.75001668  0.81675455  1
  O  O336  1  0.21226063  0.08335351  0.05831681  1
  O  O337  1  0.21174571  0.08356429  0.30882998  1
  O  O338  1  0.21280297  0.08332284  0.55927844  1
  O  O339  1  0.21340907  0.08364107  0.80578538  1
  O  O340  1  0.21218342  0.41759497  0.05835734  1
  O  O341  1  0.21278974  0.41623711  0.30938792  1
  O  O342  1  0.21370516  0.41554787  0.55826429  1
  O  O343  1  0.21322581  0.41699156  0.80573277  1
  O  O344  1  0.21250053  0.75015141  0.05865799  1
  O  O345  1  0.21437978  0.75003720  0.30735348  1
  O  O346  1  0.21235724  0.74981862  0.55591255  1
  O  O347  1  0.21048857  0.74992317  0.80724998  1
  O  O348  1  0.71299071  0.08195233  0.05793070  1
  O  O349  1  0.71346117  0.08186909  0.30657044  1
  O  O350  1  0.71318779  0.08206492  0.55779936  1
  O  O351  1  0.71328075  0.08202123  0.80651213  1
  O  O352  1  0.71263973  0.41580406  0.05823508  1
  O  O353  1  0.71284017  0.41626569  0.30847868  1
  O  O354  1  0.71321528  0.41680849  0.55881156  1
  O  O355  1  0.71279795  0.41712013  0.80718521  1
  O  O356  1  0.71287224  0.75261318  0.05778768  1
  O  O357  1  0.71320455  0.75241541  0.30818568  1
  O  O358  1  0.71208058  0.75128165  0.55753209  1
  O  O359  1  0.71178193  0.75143679  0.80863687  1
  O  O360  1  0.28769380  0.25126888  0.19364596  1
  O  O361  1  0.28672925  0.25098194  0.44360762  1
  O  O362  1  0.28743630  0.25035040  0.69045718  1
  O  O363  1  0.28871274  0.25017085  0.94203933  1
  O  O364  1  0.28732350  0.58574403  0.19259222  1
  O  O365  1  0.28664987  0.58321996  0.44155937  1
  O  O366  1  0.28694645  0.58218509  0.69059182  1
  O  O367  1  0.28725532  0.58426871  0.94295934  1
  O  O368  1  0.28702002  0.91467877  0.19258498  1
  O  O369  1  0.28679417  0.91659819  0.44196861  1
  O  O370  1  0.28672530  0.91797388  0.69076748  1
  O  O371  1  0.28716140  0.91605168  0.94286594  1
  O  O372  1  0.78741990  0.24823098  0.19141881  1
  O  O373  1  0.78772969  0.24771761  0.44263069  1
  O  O374  1  0.78805946  0.24824199  0.69111441  1
  O  O375  1  0.78760263  0.24776920  0.94252213  1
  O  O376  1  0.78868660  0.58444870  0.19205557  1
  O  O377  1  0.78725850  0.58304925  0.44265554  1
  O  O378  1  0.78694491  0.58274118  0.69131937  1
  O  O379  1  0.78839117  0.58419101  0.94206872  1
  O  O380  1  0.78643275  0.91668863  0.19332283  1
  O  O381  1  0.78632077  0.91758877  0.44216490  1
  O  O382  1  0.78620328  0.91765184  0.69370988  1
  O  O383  1  0.78632373  0.91676485  0.94345846  1
  O  O384  1  0.22917962  0.25028610  0.05682785  1
  O  O385  1  0.22790687  0.25206925  0.30866408  1
  O  O386  1  0.22757971  0.24986387  0.55935181  1
  O  O387  1  0.22877137  0.25042206  0.80620070  1
  O  O388  1  0.22805260  0.58564526  0.05845305  1
  O  O389  1  0.22803485  0.58489056  0.30791244  1
  O  O390  1  0.22734194  0.58169658  0.55690643  1
  O  O391  1  0.22785950  0.58327239  0.80573431  1
  O  O392  1  0.22809972  0.91479403  0.05839011  1
  O  O393  1  0.22779182  0.91470855  0.30800088  1
  O  O394  1  0.22747229  0.91822546  0.55721100  1
  O  O395  1  0.22764365  0.91715852  0.80600188  1
  O  O396  1  0.72823206  0.24720669  0.05787423  1
  O  O397  1  0.72846176  0.24871520  0.30672438  1
  O  O398  1  0.72836449  0.24778258  0.55785559  1
  O  O399  1  0.72896900  0.24875739  0.80634270  1
  O  O400  1  0.72909190  0.58436445  0.05693931  1
  O  O401  1  0.72899815  0.58439479  0.30670179  1
  O  O402  1  0.72741787  0.58253369  0.55765806  1
  O  O403  1  0.72838373  0.58388765  0.80683784  1
  O  O404  1  0.72713553  0.91615767  0.05940563  1
  O  O405  1  0.72733256  0.91718518  0.30943977  1
  O  O406  1  0.72743770  0.91869415  0.55796942  1
  O  O407  1  0.72688715  0.91708144  0.80946873  1
  O  O408  1  0.27145253  0.08309348  0.19417543  1
  O  O409  1  0.27132424  0.08346511  0.44368302  1
  O  O410  1  0.27281918  0.08375293  0.69016837  1
  O  O411  1  0.27177249  0.08334440  0.94340006  1
  O  O412  1  0.27180473  0.41752766  0.19416612  1
  O  O413  1  0.27234434  0.41530680  0.44232918  1
  O  O414  1  0.27275608  0.41673535  0.69021097  1
  O  O415  1  0.27177963  0.41733027  0.94352227  1
  O  O416  1  0.27285444  0.75007157  0.19079518  1
  O  O417  1  0.27281558  0.75015799  0.44099029  1
  O  O418  1  0.27005067  0.74992635  0.69259761  1
  O  O419  1  0.27103330  0.75012946  0.94283088  1
  O  O420  1  0.77286136  0.08303011  0.19075157  1
  O  O421  1  0.77188761  0.08082442  0.44198974  1
  O  O422  1  0.77306715  0.08171635  0.69089456  1
  O  O423  1  0.77193300  0.08064986  0.94220061  1
  O  O424  1  0.77205186  0.41601287  0.19348261  1
  O  O425  1  0.77242513  0.41596220  0.44371102  1
  O  O426  1  0.77226748  0.41710280  0.69199688  1
  O  O427  1  0.77189408  0.41596601  0.94328802  1
  O  O428  1  0.77213569  0.75287401  0.19255443  1
  O  O429  1  0.77206007  0.75229984  0.44257053  1
  O  O430  1  0.77072496  0.75077228  0.69337363  1
  O  O431  1  0.77174172  0.75270046  0.94204360  1
  O  O432  1  0.02229748  0.08479474  0.18370746  1
  O  O433  1  0.02181538  0.08187338  0.43329367  1
  O  O434  1  0.02246785  0.08138207  0.68305571  1
  O  O435  1  0.02268585  0.08297480  0.93485677  1
  O  O436  1  0.02279467  0.41685469  0.18506196  1
  O  O437  1  0.02281733  0.41586008  0.43406860  1
  O  O438  1  0.02252163  0.41809692  0.68267325  1
  O  O439  1  0.02216282  0.41419236  0.93363012  1
  O  O440  1  0.02306791  0.75063930  0.18477375  1
  O  O441  1  0.02298180  0.75036402  0.43399142  1
  O  O442  1  0.02105881  0.75017455  0.68142812  1
  O  O443  1  0.02104970  0.75023635  0.93193826  1
  O  O444  1  0.52280977  0.08256763  0.18487487  1
  O  O445  1  0.52187880  0.08217198  0.43335248  1
  O  O446  1  0.52332121  0.08434684  0.68361389  1
  O  O447  1  0.52177615  0.08356155  0.93138647  1
  O  O448  1  0.52282882  0.41664845  0.18529220  1
  O  O449  1  0.52297029  0.41690884  0.43495060  1
  O  O450  1  0.52248862  0.41868014  0.68300248  1
  O  O451  1  0.52217292  0.41806007  0.93325334  1
  O  O452  1  0.52166880  0.74954969  0.18205153  1
  O  O453  1  0.52290121  0.75082351  0.43414634  1
  O  O454  1  0.52173592  0.75198020  0.68232717  1
  O  O455  1  0.52135009  0.74973676  0.93111578  1
  O  O456  1  0.47835817  0.25031452  0.06862889  1
  O  O457  1  0.47722858  0.25076676  0.31664335  1
  O  O458  1  0.47800212  0.25170203  0.56680579  1
  O  O459  1  0.47876455  0.24906419  0.81656363  1
  O  O460  1  0.47826407  0.58120733  0.06694284  1
  O  O461  1  0.47817753  0.58126388  0.31742838  1
  O  O462  1  0.47714949  0.58308717  0.56537555  1
  O  O463  1  0.47801294  0.58209693  0.81613230  1
  O  O464  1  0.47782927  0.91699018  0.06795616  1
  O  O465  1  0.47753959  0.91817539  0.31700986  1
  O  O466  1  0.47682728  0.91734851  0.56494637  1
  O  O467  1  0.47660577  0.91654410  0.81445750  1
  O  O468  1  0.97763670  0.25025795  0.06585632  1
  O  O469  1  0.97708601  0.24878884  0.31576469  1
  O  O470  1  0.97778029  0.25141466  0.56672526  1
  O  O471  1  0.97889742  0.24967879  0.81827610  1
  O  O472  1  0.97830904  0.58271197  0.06855465  1
  O  O473  1  0.97719722  0.58224342  0.31572983  1
  O  O474  1  0.97690428  0.58310395  0.56494594  1
  O  O475  1  0.97785939  0.58127794  0.81617595  1
  O  O476  1  0.97747315  0.91862987  0.06744453  1
  O  O477  1  0.97787597  0.91498339  0.31710332  1
  O  O478  1  0.97693164  0.91610526  0.56519696  1
  O  O479  1  0.97730136  0.91861543  0.81701057  1
  O  O480  1  0.07259608  0.31378056  0.07450652  1
  O  O481  1  0.07145041  0.31352753  0.32339274  1
  O  O482  1  0.07291240  0.31462866  0.57366946  1
  O  O483  1  0.07459069  0.31264264  0.82541546  1
  O  O484  1  0.07331433  0.64666734  0.07610529  1
  O  O485  1  0.07145310  0.64685653  0.32358917  1
  O  O486  1  0.07171430  0.64680937  0.57226085  1
  O  O487  1  0.07296518  0.64539074  0.82401843  1
  O  O488  1  0.07288297  0.98132866  0.07543357  1
  O  O489  1  0.07324520  0.97860268  0.32548974  1
  O  O490  1  0.07172999  0.98023718  0.57273015  1
  O  O491  1  0.07264860  0.98166197  0.82372195  1
  O  O492  1  0.57395389  0.31316870  0.07619523  1
  O  O493  1  0.57299457  0.31344364  0.32417959  1
  O  O494  1  0.57304791  0.31493553  0.57455127  1
  O  O495  1  0.57402985  0.31294924  0.82475720  1
  O  O496  1  0.57340007  0.64519056  0.07482473  1
  O  O497  1  0.57326891  0.64546346  0.32535091  1
  O  O498  1  0.57139373  0.64777200  0.57304216  1
  O  O499  1  0.57330091  0.64571696  0.82459984  1
  O  O500  1  0.57326745  0.98050984  0.07451647  1
  O  O501  1  0.57283327  0.98100809  0.32472915  1
  O  O502  1  0.57175989  0.98107362  0.57373421  1
  O  O503  1  0.57129769  0.98053158  0.82198861  1
  O  O504  1  0.42718837  0.01972093  0.17715058  1
  O  O505  1  0.42654091  0.01919769  0.42602825  1
  O  O506  1  0.42848268  0.02041831  0.67607317  1
  O  O507  1  0.42622542  0.02041775  0.92368679  1
  O  O508  1  0.42776474  0.35320714  0.17719501  1
  O  O509  1  0.42846082  0.35267353  0.42702910  1
  O  O510  1  0.42725246  0.35504702  0.67487694  1
  O  O511  1  0.42712217  0.35406062  0.92511714  1
  O  O512  1  0.42653447  0.68571509  0.17508446  1
  O  O513  1  0.42858260  0.68611982  0.42686476  1
  O  O514  1  0.42658808  0.68804485  0.67359714  1
  O  O515  1  0.42605785  0.68636108  0.92334828  1
  O  O516  1  0.92702985  0.02122908  0.17488067  1
  O  O517  1  0.92710887  0.01808353  0.42519358  1
  O  O518  1  0.92704290  0.01864070  0.67616282  1
  O  O519  1  0.92738183  0.01972199  0.92749716  1
  O  O520  1  0.92831027  0.35226619  0.17775486  1
  O  O521  1  0.92754433  0.35271263  0.42577586  1
  O  O522  1  0.92718662  0.35427897  0.67494728  1
  O  O523  1  0.92683226  0.35152393  0.92603200  1
  O  O524  1  0.92842442  0.68655752  0.17758901  1
  O  O525  1  0.92856429  0.68595384  0.42590812  1
  O  O526  1  0.92578751  0.68659128  0.67349510  1
  O  O527  1  0.92591116  0.68634752  0.92495382  1
  O  O528  1  0.17575441  0.02000247  0.20081533  1
  O  O529  1  0.17578210  0.02023540  0.45076515  1
  O  O530  1  0.17788909  0.01984298  0.69758431  1
  O  O531  1  0.17631484  0.01989418  0.95008111  1
  O  O532  1  0.17640991  0.35368385  0.20067595  1
  O  O533  1  0.17736342  0.35171927  0.44977878  1
  O  O534  1  0.17763378  0.35295874  0.69790160  1
  O  O535  1  0.17661597  0.35357305  0.95009080  1
  O  O536  1  0.17791929  0.68641972  0.19916508  1
  O  O537  1  0.17791453  0.68611420  0.44736996  1
  O  O538  1  0.17450390  0.68661675  0.69877225  1
  O  O539  1  0.17564554  0.68666942  0.95035332  1
  O  O540  1  0.67810050  0.01896875  0.19788172  1
  O  O541  1  0.67635893  0.01858800  0.44898799  1
  O  O542  1  0.67733014  0.01913033  0.69803686  1
  O  O543  1  0.67646011  0.01807216  0.94940668  1
  O  O544  1  0.67627675  0.35310109  0.20045517  1
  O  O545  1  0.67708079  0.35250904  0.45105863  1
  O  O546  1  0.67650393  0.35388280  0.69949678  1
  O  O547  1  0.67660618  0.35222523  0.95008326  1
  O  O548  1  0.67714722  0.68858347  0.20022317  1
  O  O549  1  0.67695588  0.68796850  0.44930459  1
  O  O550  1  0.67535397  0.68743038  0.70061866  1
  O  O551  1  0.67688290  0.68820793  0.95026891  1
  O  O552  1  0.32458561  0.31393997  0.05020585  1
  O  O553  1  0.32333261  0.31494967  0.30221778  1
  O  O554  1  0.32251881  0.31397083  0.55219317  1
  O  O555  1  0.32421040  0.31377246  0.79870521  1
  O  O556  1  0.32342252  0.64849198  0.05096728  1
  O  O557  1  0.32312064  0.64857299  0.30179395  1
  O  O558  1  0.32247325  0.64615167  0.54983133  1
  O  O559  1  0.32311917  0.64692641  0.79811739  1
  O  O560  1  0.32320504  0.97914756  0.05105017  1
  O  O561  1  0.32280432  0.97890519  0.30029992  1
  O  O562  1  0.32289441  0.98086205  0.55025396  1
  O  O563  1  0.32330548  0.98046197  0.79939795  1
  O  O564  1  0.82346219  0.31130365  0.05037584  1
  O  O565  1  0.82378529  0.31213566  0.29952236  1
  O  O566  1  0.82400242  0.31118093  0.55030538  1
  O  O567  1  0.82413709  0.31248719  0.79902899  1
  O  O568  1  0.82460679  0.64770865  0.05016920  1
  O  O569  1  0.82451495  0.64772492  0.30040024  1
  O  O570  1  0.82277275  0.64646320  0.55046446  1
  O  O571  1  0.82384566  0.64703242  0.79885761  1
  O  O572  1  0.82163818  0.98035914  0.05239124  1
  O  O573  1  0.82236176  0.98073362  0.30135760  1
  O  O574  1  0.82309358  0.98080506  0.55096589  1
  O  O575  1  0.82215063  0.98052462  0.80240732  1
  O  O576  1  0.42841119  0.14713920  0.17807108  1
  O  O577  1  0.42675050  0.14609374  0.42526693  1
  O  O578  1  0.42838043  0.14789075  0.67542964  1
  O  O579  1  0.42642476  0.14708734  0.92440502  1
  O  O580  1  0.42787116  0.48044240  0.17755746  1
  O  O581  1  0.42751138  0.47985723  0.42631783  1
  O  O582  1  0.42751433  0.48199897  0.67469112  1
  O  O583  1  0.42684616  0.48116748  0.92635000  1
  O  O584  1  0.42615744  0.81264880  0.17491613  1
  O  O585  1  0.42732184  0.81359599  0.42603708  1
  O  O586  1  0.42656275  0.81501243  0.67424110  1
  O  O587  1  0.42592706  0.81333908  0.92406941  1
  O  O588  1  0.92746054  0.14817023  0.17548881  1
  O  O589  1  0.92628914  0.14519756  0.42552361  1
  O  O590  1  0.92773902  0.14578407  0.67495062  1
  O  O591  1  0.92794795  0.14697512  0.92685975  1
  O  O592  1  0.92740487  0.47956641  0.17659111  1
  O  O593  1  0.92817615  0.47995917  0.42658152  1
  O  O594  1  0.92755286  0.48127358  0.67498922  1
  O  O595  1  0.92704446  0.47858849  0.92637921  1
  O  O596  1  0.92784674  0.81403167  0.17700990  1
  O  O597  1  0.92740168  0.81310084  0.42596620  1
  O  O598  1  0.92554663  0.81335520  0.67389892  1
  O  O599  1  0.92561947  0.81343335  0.92494163  1
  O  O600  1  0.07245193  0.18652988  0.07395231  1
  O  O601  1  0.07252496  0.18620980  0.32433571  1
  O  O602  1  0.07282606  0.18739123  0.57445891  1
  O  O603  1  0.07407796  0.18600485  0.82534984  1
  O  O604  1  0.07393533  0.51987285  0.07656239  1
  O  O605  1  0.07273322  0.51952312  0.32448057  1
  O  O606  1  0.07206644  0.51959786  0.57191390  1
  O  O607  1  0.07289111  0.51808844  0.82330000  1
  O  O608  1  0.07247933  0.85423145  0.07471936  1
  O  O609  1  0.07294247  0.85172638  0.32461516  1
  O  O610  1  0.07222857  0.85297716  0.57348276  1
  O  O611  1  0.07243011  0.85463446  0.82500677  1
  O  O612  1  0.57346333  0.18643694  0.07630498  1
  O  O613  1  0.57146328  0.18606369  0.32410473  1
  O  O614  1  0.57331606  0.18789487  0.57464467  1
  O  O615  1  0.57392360  0.18580247  0.82359673  1
  O  O616  1  0.57350261  0.51803501  0.07427200  1
  O  O617  1  0.57354687  0.51848170  0.32524669  1
  O  O618  1  0.57278768  0.52043840  0.57331972  1
  O  O619  1  0.57313809  0.51865221  0.82309249  1
  O  O620  1  0.57315983  0.85365652  0.07526078  1
  O  O621  1  0.57257534  0.85406171  0.32542529  1
  O  O622  1  0.57184981  0.85388067  0.57306825  1
  O  O623  1  0.57173631  0.85311205  0.82237652  1
  O  O624  1  0.32471683  0.18692731  0.05066004  1
  O  O625  1  0.32297934  0.18771824  0.30168753  1
  O  O626  1  0.32283154  0.18666505  0.55129232  1
  O  O627  1  0.32405777  0.18692478  0.79875431  1
  O  O628  1  0.32307143  0.52134444  0.05140467  1
  O  O629  1  0.32353324  0.52161196  0.30016796  1
  O  O630  1  0.32269510  0.51900553  0.54971095  1
  O  O631  1  0.32355440  0.52004787  0.79960244  1
  O  O632  1  0.32346572  0.85197131  0.05095113  1
  O  O633  1  0.32328263  0.85181306  0.30145267  1
  O  O634  1  0.32255966  0.85370906  0.55025308  1
  O  O635  1  0.32281944  0.85354997  0.79854602  1
  O  O636  1  0.82333357  0.18401989  0.05094080  1
  O  O637  1  0.82398590  0.18531038  0.29974741  1
  O  O638  1  0.82318182  0.18395149  0.55109078  1
  O  O639  1  0.82460857  0.18553792  0.79971314  1
  O  O640  1  0.82443537  0.52056633  0.05016066  1
  O  O641  1  0.82435329  0.52068158  0.30022428  1
  O  O642  1  0.82240907  0.51903792  0.55115879  1
  O  O643  1  0.82383843  0.52014191  0.79982892  1
  O  O644  1  0.82268106  0.85343509  0.05208331  1
  O  O645  1  0.82225751  0.85352497  0.30211284  1
  O  O646  1  0.82222305  0.85404941  0.55042754  1
  O  O647  1  0.82174582  0.85325834  0.80168552  1
  O  O648  1  0.17627648  0.14714257  0.20053264  1
  O  O649  1  0.17590683  0.14690512  0.45126676  1
  O  O650  1  0.17761187  0.14730213  0.69773659  1
  O  O651  1  0.17648143  0.14687047  0.94986973  1
  O  O652  1  0.17633701  0.48059331  0.20187752  1
  O  O653  1  0.17687013  0.47864217  0.45017006  1
  O  O654  1  0.17775970  0.48035753  0.69704424  1
  O  O655  1  0.17609345  0.48056586  0.94996945  1
  O  O656  1  0.17792599  0.81360454  0.19903884  1
  O  O657  1  0.17765204  0.81364094  0.44761378  1
  O  O658  1  0.17465686  0.81355396  0.69904912  1
  O  O659  1  0.17556242  0.81342848  0.95031117  1
  O  O660  1  0.67786835  0.14635334  0.19873792  1
  O  O661  1  0.67689952  0.14534382  0.44951904  1
  O  O662  1  0.67894879  0.14645768  0.69790133  1
  O  O663  1  0.67684664  0.14486971  0.94926286  1
  O  O664  1  0.67698797  0.48018242  0.20052892  1
  O  O665  1  0.67684447  0.47947762  0.45020165  1
  O  O666  1  0.67761466  0.48115441  0.69849817  1
  O  O667  1  0.67639734  0.47939084  0.95023601  1
  O  O668  1  0.67655169  0.81564797  0.19973498  1
  O  O669  1  0.67673086  0.81522282  0.44916987  1
  O  O670  1  0.67528700  0.81425120  0.70014194  1
  O  O671  1  0.67615486  0.81533349  0.94893692  1
