# generated using pymatgen
data_Na2MnFe(PO4)2
_symmetry_space_group_name_H-M   'P 1'
_cell_length_a   22.34357976
_cell_length_b   20.09268264
_cell_length_c   19.44902899
_cell_angle_alpha   89.95594928
_cell_angle_beta   89.96545905
_cell_angle_gamma   90.06814645
_symmetry_Int_Tables_number   1
_chemical_formula_structural   Na2MnFe(PO4)2
_chemical_formula_sum   'Na96 Mn48 Fe48 P96 O384'
_cell_volume   8731.48451451
_cell_formula_units_Z   48
loop_
 _symmetry_equiv_pos_site_id
 _symmetry_equiv_pos_as_xyz
  1  'x, y, z'
loop_
 _atom_site_type_symbol
 _atom_site_label
 _atom_site_symmetry_multiplicity
 _atom_site_fract_x
 _atom_site_fract_y
 _atom_site_fract_z
 _atom_site_occupancy
  Na  Na0  1  0.14052921  0.25065030  0.24396236  1
  Na  Na1  1  0.14004862  0.25092384  0.49416325  1
  Na  Na2  1  0.14031127  0.25121407  0.74415733  1
  Na  Na3  1  0.14056753  0.25070060  0.99560972  1
  Na  Na4  1  0.14070337  0.58319910  0.24264308  1
  Na  Na5  1  0.14083058  0.58400119  0.49449783  1
  Na  Na6  1  0.14056673  0.58544509  0.74420502  1
  Na  Na7  1  0.13977580  0.58342210  0.99471267  1
  Na  Na8  1  0.13987153  0.91644517  0.24346266  1
  Na  Na9  1  0.13938979  0.91714883  0.49268938  1
  Na  Na10  1  0.14020108  0.91755159  0.74310092  1
  Na  Na11  1  0.14080228  0.91661263  0.99437837  1
  Na  Na12  1  0.64089201  0.25019413  0.24383354  1
  Na  Na13  1  0.64027989  0.24984479  0.49445309  1
  Na  Na14  1  0.64022127  0.24981686  0.74283900  1
  Na  Na15  1  0.64079263  0.24996957  0.99383343  1
  Na  Na16  1  0.64066699  0.58275402  0.24363194  1
  Na  Na17  1  0.64083219  0.58103643  0.49329161  1
  Na  Na18  1  0.64081147  0.58223714  0.74292800  1
  Na  Na19  1  0.64036328  0.58351333  0.99310367  1
  Na  Na20  1  0.64015040  0.91747835  0.24277691  1
  Na  Na21  1  0.64030578  0.91460809  0.49338925  1
  Na  Na22  1  0.64074010  0.91581631  0.74365704  1
  Na  Na23  1  0.64088630  0.91669129  0.99282844  1
  Na  Na24  1  0.35951564  0.08395589  0.00656934  1
  Na  Na25  1  0.36012626  0.08351627  0.25655834  1
  Na  Na26  1  0.35950676  0.08379783  0.50520107  1
  Na  Na27  1  0.35950464  0.08395098  0.75601765  1
  Na  Na28  1  0.35944103  0.41738505  0.00758493  1
  Na  Na29  1  0.35985970  0.41695571  0.25553450  1
  Na  Na30  1  0.36001437  0.41717828  0.50602036  1
  Na  Na31  1  0.35969395  0.41749368  0.75666020  1
  Na  Na32  1  0.35984273  0.74906562  0.00687418  1
  Na  Na33  1  0.35992206  0.75004604  0.25464704  1
  Na  Na34  1  0.35957838  0.75056193  0.50529209  1
  Na  Na35  1  0.35960784  0.75074690  0.75529688  1
  Na  Na36  1  0.85899074  0.08331843  0.00584666  1
  Na  Na37  1  0.85928106  0.08398976  0.25669429  1
  Na  Na38  1  0.85937710  0.08225104  0.50746396  1
  Na  Na39  1  0.85925264  0.08256769  0.75669809  1
  Na  Na40  1  0.85962788  0.41691252  0.00696088  1
  Na  Na41  1  0.85975543  0.41687347  0.25783815  1
  Na  Na42  1  0.85942432  0.41552733  0.50678622  1
  Na  Na43  1  0.85946922  0.41536881  0.75633292  1
  Na  Na44  1  0.85951234  0.75043295  0.00555168  1
  Na  Na45  1  0.85936110  0.75004946  0.25665416  1
  Na  Na46  1  0.85928384  0.74818145  0.50660018  1
  Na  Na47  1  0.85918984  0.74908764  0.75560321  1
  Na  Na48  1  0.10959494  0.08360192  0.11997478  1
  Na  Na49  1  0.10907097  0.08365877  0.36828590  1
  Na  Na50  1  0.10886852  0.08296637  0.61830245  1
  Na  Na51  1  0.10980718  0.08496207  0.86866706  1
  Na  Na52  1  0.10972907  0.41665209  0.11960743  1
  Na  Na53  1  0.10942919  0.41645417  0.36903795  1
  Na  Na54  1  0.10999505  0.41670790  0.61958559  1
  Na  Na55  1  0.10947420  0.41842377  0.87004062  1
  Na  Na56  1  0.10986653  0.74981879  0.11882502  1
  Na  Na57  1  0.10965715  0.75133320  0.36781801  1
  Na  Na58  1  0.10952544  0.75103382  0.61841061  1
  Na  Na59  1  0.10989072  0.75077934  0.86873220  1
  Na  Na60  1  0.60981308  0.08316411  0.11840287  1
  Na  Na61  1  0.60935789  0.08367382  0.36913506  1
  Na  Na62  1  0.60965434  0.08325379  0.61931011  1
  Na  Na63  1  0.61022797  0.08421142  0.86788773  1
  Na  Na64  1  0.61022451  0.41712053  0.11897469  1
  Na  Na65  1  0.61055494  0.41602854  0.36838675  1
  Na  Na66  1  0.61015704  0.41454735  0.61785781  1
  Na  Na67  1  0.60981884  0.41674019  0.86823421  1
  Na  Na68  1  0.60989092  0.74977183  0.11733858  1
  Na  Na69  1  0.60995384  0.74971058  0.36862395  1
  Na  Na70  1  0.61033277  0.74858124  0.61748333  1
  Na  Na71  1  0.60996629  0.75006819  0.86873647  1
  Na  Na72  1  0.39035001  0.25012743  0.13254903  1
  Na  Na73  1  0.39037247  0.24994778  0.38027305  1
  Na  Na74  1  0.39065864  0.24967262  0.63107434  1
  Na  Na75  1  0.39018357  0.25062261  0.88145527  1
  Na  Na76  1  0.39039389  0.58385312  0.13056795  1
  Na  Na77  1  0.39065110  0.58360928  0.38033308  1
  Na  Na78  1  0.39051796  0.58198550  0.63121621  1
  Na  Na79  1  0.39044136  0.58464856  0.88241648  1
  Na  Na80  1  0.39078648  0.91648199  0.13137567  1
  Na  Na81  1  0.39035539  0.91766126  0.38055374  1
  Na  Na82  1  0.39020648  0.91646946  0.62997741  1
  Na  Na83  1  0.39054932  0.91607113  0.88117692  1
  Na  Na84  1  0.88952776  0.25017708  0.13296253  1
  Na  Na85  1  0.89002994  0.24987712  0.38199555  1
  Na  Na86  1  0.88983001  0.24918760  0.63208534  1
  Na  Na87  1  0.88991708  0.25080025  0.88143863  1
  Na  Na88  1  0.89035387  0.58279615  0.13230206  1
  Na  Na89  1  0.89002097  0.58235042  0.38235622  1
  Na  Na90  1  0.88985037  0.58182649  0.63172387  1
  Na  Na91  1  0.89028674  0.58342658  0.88041554  1
  Na  Na92  1  0.88999147  0.91615266  0.13115506  1
  Na  Na93  1  0.89036129  0.91617851  0.38084125  1
  Na  Na94  1  0.89008413  0.91501454  0.63134737  1
  Na  Na95  1  0.88970606  0.91709709  0.88087540  1
  Mn  Mn96  1  -0.00024277  0.16700390  0.74963777  1
  Mn  Mn97  1  0.00018061  0.00043231  0.00025124  1
  Mn  Mn98  1  0.50044588  0.33421473  0.00061546  1
  Mn  Mn99  1  0.75017902  0.00020277  0.12435495  1
  Mn  Mn100  1  0.00029502  0.83389959  -0.00050110  1
  Mn  Mn101  1  0.50005708  0.33261246  0.49916712  1
  Mn  Mn102  1  0.24919084  0.00003735  0.62456085  1
  Mn  Mn103  1  0.00065100  0.66679418  0.49949070  1
  Mn  Mn104  1  0.75053064  0.66733053  0.12423191  1
  Mn  Mn105  1  -0.00014586  0.66649542  0.25034647  1
  Mn  Mn106  1  -0.00012875  0.83354635  0.74956839  1
  Mn  Mn107  1  0.75013744  0.83178181  0.37477543  1
  Mn  Mn108  1  -0.00051853  0.16632656  0.25123440  1
  Mn  Mn109  1  0.50036678  0.00021801  0.74986051  1
  Mn  Mn110  1  0.25022981  0.00087256  0.87486960  1
  Mn  Mn111  1  0.50001338  0.66619716  0.74981840  1
  Mn  Mn112  1  0.50021805  0.33397468  0.25028072  1
  Mn  Mn113  1  0.00026817  0.49887225  0.50126890  1
  Mn  Mn114  1  0.49990208  0.00052007  0.50020701  1
  Mn  Mn115  1  0.25010445  0.50033094  0.37432632  1
  Mn  Mn116  1  0.75085963  0.49963335  0.12539778  1
  Mn  Mn117  1  -0.00061137  0.16721749  0.00024574  1
  Mn  Mn118  1  0.74959690  -0.00037252  0.37513737  1
  Mn  Mn119  1  0.25033915  0.66789218  0.62436688  1
  Mn  Mn120  1  0.25097573  0.33465617  0.62528159  1
  Mn  Mn121  1  0.50029914  0.66613361  0.24934094  1
  Mn  Mn122  1  0.50022337  0.66586571  0.49920226  1
  Mn  Mn123  1  -0.00028761  0.33458330  0.00149534  1
  Mn  Mn124  1  0.50068695  0.49891911  0.75045510  1
  Mn  Mn125  1  0.25048208  0.66776467  0.37429425  1
  Mn  Mn126  1  0.50008790  0.16701014  -0.00007775  1
  Mn  Mn127  1  0.74964693  0.16745549  0.37585166  1
  Mn  Mn128  1  0.49968350  -0.00020948  -0.00072896  1
  Mn  Mn129  1  0.24940754  0.33337385  0.87625042  1
  Mn  Mn130  1  0.00013609  0.50021111  0.75016480  1
  Mn  Mn131  1  0.74998049  0.66621503  0.87418394  1
  Mn  Mn132  1  0.24998740  0.50137056  0.87629870  1
  Mn  Mn133  1  0.24962042  0.16719558  0.62501250  1
  Mn  Mn134  1  0.74956559  -0.00097102  0.62572379  1
  Mn  Mn135  1  0.74965774  0.33288178  0.87464173  1
  Mn  Mn136  1  0.24968897  0.33330527  0.37534364  1
  Mn  Mn137  1  -0.00082519  0.66643388  0.00062438  1
  Mn  Mn138  1  -0.00039377  0.16645626  0.50016800  1
  Mn  Mn139  1  0.25023078  0.00025839  0.12504649  1
  Mn  Mn140  1  0.50026422  0.83405803  0.24918264  1
  Mn  Mn141  1  0.25044236  0.83292925  0.87471176  1
  Mn  Mn142  1  0.24982424  0.00005899  0.37425106  1
  Mn  Mn143  1  0.50013545  0.83270797  0.74990848  1
  Fe  Fe144  1  0.75025800  0.49943171  0.37546931  1
  Fe  Fe145  1  0.75017653  0.33280769  0.62533276  1
  Fe  Fe146  1  0.74986457  0.49880264  0.62422725  1
  Fe  Fe147  1  0.50066654  0.66644977  0.00011871  1
  Fe  Fe148  1  0.74961082  0.16603052  0.62550546  1
  Fe  Fe149  1  0.24994159  0.16698104  0.12554822  1
  Fe  Fe150  1  0.50039539  0.50035099  0.24934334  1
  Fe  Fe151  1  0.24983450  0.16739074  0.87593996  1
  Fe  Fe152  1  0.24979292  0.66706347  0.87537758  1
  Fe  Fe153  1  0.25017293  0.16707723  0.37478195  1
  Fe  Fe154  1  -0.00030622  0.33294799  0.50024566  1
  Fe  Fe155  1  0.50010979  0.50022101  -0.00064268  1
  Fe  Fe156  1  0.74985209  0.83291779  0.87451923  1
  Fe  Fe157  1  0.49937226  0.16707105  0.74943942  1
  Fe  Fe158  1  0.75035812  0.49933665  0.87450264  1
  Fe  Fe159  1  0.74979728  -0.00026837  0.87489015  1
  Fe  Fe160  1  0.49986848  0.16647667  0.49979362  1
  Fe  Fe161  1  0.75062761  0.33309573  0.37541074  1
  Fe  Fe162  1  0.74981563  0.83344488  0.12472273  1
  Fe  Fe163  1  -0.00001633  0.49943759  0.25130672  1
  Fe  Fe164  1  -0.00072543  -0.00075703  0.49934689  1
  Fe  Fe165  1  0.49928332  0.33317678  0.74970332  1
  Fe  Fe166  1  0.24983109  0.66703618  0.12518882  1
  Fe  Fe167  1  -0.00003804  0.33342107  0.25065227  1
  Fe  Fe168  1  0.00009333  0.66690904  0.75002239  1
  Fe  Fe169  1  0.50059613  0.16650132  0.25014578  1
  Fe  Fe170  1  -0.00033399  0.83364414  0.25007902  1
  Fe  Fe171  1  0.50010221  0.83349950  0.49904881  1
  Fe  Fe172  1  0.25010225  0.50137412  0.62565335  1
  Fe  Fe173  1  0.75032916  0.16672227  0.87515930  1
  Fe  Fe174  1  0.75003460  0.33337517  0.12514320  1
  Fe  Fe175  1  0.74977484  0.83220531  0.62488263  1
  Fe  Fe176  1  0.25043630  0.33311302  0.12533850  1
  Fe  Fe177  1  0.00004636  0.33370949  0.75072444  1
  Fe  Fe178  1  -0.00062467  0.83334030  0.49972355  1
  Fe  Fe179  1  0.25006669  0.83308735  0.12409819  1
  Fe  Fe180  1  0.74951911  0.66556536  0.37577528  1
  Fe  Fe181  1  -0.00057511  -0.00030967  0.25014969  1
  Fe  Fe182  1  0.24983700  0.83399582  0.62464847  1
  Fe  Fe183  1  0.49997481  0.49907489  0.49994824  1
  Fe  Fe184  1  -0.00034529  -0.00013986  0.74936252  1
  Fe  Fe185  1  0.75015774  0.66525229  0.62522941  1
  Fe  Fe186  1  0.74997816  0.16674830  0.12490921  1
  Fe  Fe187  1  0.50079745  0.00030422  0.25018065  1
  Fe  Fe188  1  0.50071779  0.83324925  0.00032761  1
  Fe  Fe189  1  -0.00037960  0.50027769  0.00060428  1
  Fe  Fe190  1  0.25013274  0.50036357  0.12501683  1
  Fe  Fe191  1  0.24996706  0.83347418  0.37396397  1
  P  P192  1  0.04193475  0.25040011  0.10449917  1
  P  P193  1  0.04197904  0.25136976  0.35324818  1
  P  P194  1  0.04179407  0.25120431  0.60297466  1
  P  P195  1  0.04209135  0.25178824  0.85286249  1
  P  P196  1  0.04161998  0.58173182  0.10358113  1
  P  P197  1  0.04264426  0.58212482  0.35271220  1
  P  P198  1  0.04279681  0.58363367  0.60374077  1
  P  P199  1  0.04228826  0.58476958  0.85298922  1
  P  P200  1  0.04273909  0.91673169  0.10409193  1
  P  P201  1  0.04100096  0.91692188  0.35219065  1
  P  P202  1  0.04098506  0.91670292  0.60137742  1
  P  P203  1  0.04247861  0.91838190  0.85187047  1
  P  P204  1  0.54277308  0.24995147  0.10383108  1
  P  P205  1  0.54239268  0.24866679  0.35250045  1
  P  P206  1  0.54182747  0.24837201  0.60276713  1
  P  P207  1  0.54143100  0.25047081  0.85117543  1
  P  P208  1  0.54186222  0.58245553  0.10142490  1
  P  P209  1  0.54243630  0.58164539  0.35243679  1
  P  P210  1  0.54253082  0.58104865  0.60202599  1
  P  P211  1  0.54307352  0.58329510  0.85382415  1
  P  P212  1  0.54266770  0.91627490  0.10228964  1
  P  P213  1  0.54256449  0.91778938  0.35260472  1
  P  P214  1  0.54241697  0.91536787  0.60190214  1
  P  P215  1  0.54290797  0.91621200  0.85340721  1
  P  P216  1  0.45877614  0.08317329  0.14857042  1
  P  P217  1  0.45795641  0.08471077  0.39659312  1
  P  P218  1  0.45764529  0.08452327  0.64711443  1
  P  P219  1  0.45710501  0.08413951  0.89623591  1
  P  P220  1  0.45812600  0.41858987  0.14703064  1
  P  P221  1  0.45806775  0.41797606  0.39682477  1
  P  P222  1  0.45787869  0.41515964  0.64708327  1
  P  P223  1  0.45753060  0.41751751  0.89741646  1
  P  P224  1  0.45823557  0.74984739  0.14559313  1
  P  P225  1  0.45803244  0.75114120  0.39688037  1
  P  P226  1  0.45761538  0.74970581  0.64576629  1
  P  P227  1  0.45904014  0.74998541  0.89898018  1
  P  P228  1  0.95713452  0.08215391  0.14816930  1
  P  P229  1  0.95719182  0.08170339  0.39754088  1
  P  P230  1  0.95735757  0.08156953  0.64698931  1
  P  P231  1  0.95697721  0.08363606  0.89636887  1
  P  P232  1  0.95822310  0.41712060  0.14920881  1
  P  P233  1  0.95799144  0.41511168  0.39752903  1
  P  P234  1  0.95781367  0.41478342  0.64776894  1
  P  P235  1  0.95755446  0.41818424  0.89796851  1
  P  P236  1  0.95759749  0.75090883  0.14791273  1
  P  P237  1  0.95781198  0.75140495  0.39701148  1
  P  P238  1  0.95776060  0.74877031  0.64693415  1
  P  P239  1  0.95724176  0.74992909  0.89626660  1
  P  P240  1  0.20797378  0.08470757  0.22795300  1
  P  P241  1  0.20735328  0.08472859  0.47681983  1
  P  P242  1  0.20661817  0.08393736  0.72843113  1
  P  P243  1  0.20778170  0.08516827  0.97832796  1
  P  P244  1  0.20892412  0.41655549  0.22643169  1
  P  P245  1  0.20735000  0.41767957  0.47868641  1
  P  P246  1  0.20801794  0.41909614  0.72805845  1
  P  P247  1  0.20756056  0.41706685  0.97993883  1
  P  P248  1  0.20856499  0.75070772  0.22645798  1
  P  P249  1  0.20773482  0.75197755  0.47710697  1
  P  P250  1  0.20748165  0.75162038  0.72731689  1
  P  P251  1  0.20782888  0.74875637  0.97826848  1
  P  P252  1  0.70780673  0.08470852  0.22721168  1
  P  P253  1  0.70721404  0.08311527  0.47900224  1
  P  P254  1  0.70783621  0.08414180  0.72850424  1
  P  P255  1  0.70873922  0.08366140  0.97658264  1
  P  P256  1  0.70837543  0.41525473  0.22826573  1
  P  P257  1  0.70912710  0.41580664  0.47723894  1
  P  P258  1  0.70853997  0.41632314  0.72643819  1
  P  P259  1  0.70803994  0.41734136  0.97739501  1
  P  P260  1  0.70763286  0.75063369  0.22731960  1
  P  P261  1  0.70787593  0.74734516  0.47839398  1
  P  P262  1  0.70861352  0.74937326  0.72660936  1
  P  P263  1  0.70805201  0.75107757  0.97712252  1
  P  P264  1  0.29186195  0.24978113  0.02373509  1
  P  P265  1  0.29204735  0.24915122  0.27180573  1
  P  P266  1  0.29295369  0.25031200  0.52155024  1
  P  P267  1  0.29208346  0.24960759  0.77334247  1
  P  P268  1  0.29100467  0.58428033  0.02348114  1
  P  P269  1  0.29266185  0.58401485  0.27043544  1
  P  P270  1  0.29274992  0.58292918  0.52239570  1
  P  P271  1  0.29251436  0.58530558  0.77276149  1
  P  P272  1  0.29260255  0.91575699  0.02240400  1
  P  P273  1  0.29230631  0.91528585  0.27143704  1
  P  P274  1  0.29159909  0.91568633  0.52147616  1
  P  P275  1  0.29301146  0.91687562  0.77125833  1
  P  P276  1  0.79135897  0.25008943  0.02335254  1
  P  P277  1  0.79230815  0.25140672  0.27241287  1
  P  P278  1  0.79107217  0.24960833  0.52384724  1
  P  P279  1  0.79193104  0.24838825  0.77201752  1
  P  P280  1  0.79312479  0.58311661  0.02140673  1
  P  P281  1  0.79143902  0.58332135  0.27399057  1
  P  P282  1  0.79128965  0.58209057  0.52286460  1
  P  P283  1  0.79189184  0.58118277  0.77135655  1
  P  P284  1  0.79197852  0.91528018  0.02148673  1
  P  P285  1  0.79229110  0.91635327  0.27141092  1
  P  P286  1  0.79187931  0.91444312  0.52280147  1
  P  P287  1  0.79093356  0.91594495  0.77298657  1
  O  O288  1  0.03665006  0.25047978  0.18443540  1
  O  O289  1  0.03670987  0.25131202  0.43322283  1
  O  O290  1  0.03648042  0.25117778  0.68292642  1
  O  O291  1  0.03672539  0.25148685  0.93283034  1
  O  O292  1  0.03637551  0.58167688  0.18352994  1
  O  O293  1  0.03770620  0.58235087  0.43268807  1
  O  O294  1  0.03742399  0.58427615  0.68365794  1
  O  O295  1  0.03676695  0.58407125  0.93292253  1
  O  O296  1  0.03735366  0.91648454  0.18402380  1
  O  O297  1  0.03557860  0.91663801  0.43211889  1
  O  O298  1  0.03598533  0.91708525  0.68136268  1
  O  O299  1  0.03766873  0.91803156  0.93186659  1
  O  O300  1  0.53747395  0.24949314  0.18374347  1
  O  O301  1  0.53697082  0.24854676  0.43242283  1
  O  O302  1  0.53602112  0.24894146  0.68260144  1
  O  O303  1  0.53664433  0.25073035  0.93122140  1
  O  O304  1  0.53701227  0.58225846  0.18142480  1
  O  O305  1  0.53703334  0.58150763  0.43235591  1
  O  O306  1  0.53750309  0.58148780  0.68201128  1
  O  O307  1  0.53796704  0.58346020  0.93376084  1
  O  O308  1  0.53771372  0.91724461  0.18228816  1
  O  O309  1  0.53705180  0.91698044  0.43253870  1
  O  O310  1  0.53750256  0.91550711  0.68190222  1
  O  O311  1  0.53760219  0.91562397  0.93335056  1
  O  O312  1  0.46347182  0.08317162  0.06853697  1
  O  O313  1  0.46389072  0.08430156  0.31675486  1
  O  O314  1  0.46291026  0.08460285  0.56715102  1
  O  O315  1  0.46214232  0.08462878  0.81628985  1
  O  O316  1  0.46338775  0.41864386  0.06708666  1
  O  O317  1  0.46342898  0.41829733  0.31688432  1
  O  O318  1  0.46299295  0.41559477  0.56710851  1
  O  O319  1  0.46271461  0.41648311  0.81745198  1
  O  O320  1  0.46366786  0.74988757  0.06572639  1
  O  O321  1  0.46323238  0.75085112  0.31690714  1
  O  O322  1  0.46289019  0.75022471  0.56581209  1
  O  O323  1  0.46358675  0.74953493  0.81891821  1
  O  O324  1  0.96234474  0.08282593  0.06819131  1
  O  O325  1  0.96247232  0.08187367  0.31759713  1
  O  O326  1  0.96272369  0.08146225  0.56701753  1
  O  O327  1  0.96211770  0.08339977  0.81639210  1
  O  O328  1  0.96293997  0.41783284  0.06919399  1
  O  O329  1  0.96334003  0.41540407  0.31762177  1
  O  O330  1  0.96294453  0.41451435  0.56781505  1
  O  O331  1  0.96282416  0.41751326  0.81806005  1
  O  O332  1  0.96252576  0.75062239  0.06791109  1
  O  O333  1  0.96306684  0.75159569  0.31704175  1
  O  O334  1  0.96321797  0.74955904  0.56698815  1
  O  O335  1  0.96259072  0.74949112  0.81631057  1
  O  O336  1  0.21327934  0.08498347  0.05829368  1
  O  O337  1  0.21332156  0.08466887  0.30786065  1
  O  O338  1  0.21239498  0.08410437  0.55679171  1
  O  O339  1  0.21174985  0.08410974  0.80840656  1
  O  O340  1  0.21309201  0.41662067  0.05977992  1
  O  O341  1  0.21361604  0.41664528  0.30643041  1
  O  O342  1  0.21269802  0.41818206  0.55862838  1
  O  O343  1  0.21293774  0.41869949  0.80804968  1
  O  O344  1  0.21303357  0.74898287  0.05818229  1
  O  O345  1  0.21363395  0.75125626  0.30643337  1
  O  O346  1  0.21292034  0.75203477  0.55704947  1
  O  O347  1  0.21252293  0.75072945  0.80724978  1
  O  O348  1  0.71373098  0.08362223  0.05655302  1
  O  O349  1  0.71257791  0.08444378  0.30718667  1
  O  O350  1  0.71248024  0.08314905  0.55893869  1
  O  O351  1  0.71341928  0.08412924  0.80834327  1
  O  O352  1  0.71338912  0.41677194  0.05729559  1
  O  O353  1  0.71367200  0.41518944  0.30811600  1
  O  O354  1  0.71406099  0.41628631  0.55711878  1
  O  O355  1  0.71317815  0.41635823  0.80640588  1
  O  O356  1  0.71328110  0.75131179  0.05704537  1
  O  O357  1  0.71265329  0.74952849  0.30725933  1
  O  O358  1  0.71337153  0.74770478  0.55822899  1
  O  O359  1  0.71376310  0.74979047  0.80656130  1
  O  O360  1  0.28653049  0.24927796  0.19191597  1
  O  O361  1  0.28772924  0.24991912  0.44159076  1
  O  O362  1  0.28721546  0.25024469  0.69337553  1
  O  O363  1  0.28663378  0.24945334  0.94377451  1
  O  O364  1  0.28707242  0.58420452  0.19056915  1
  O  O365  1  0.28764988  0.58320179  0.44242978  1
  O  O366  1  0.28745891  0.58463859  0.69278236  1
  O  O367  1  0.28627266  0.58467131  0.94350600  1
  O  O368  1  0.28700709  0.91537579  0.19149689  1
  O  O369  1  0.28629963  0.91573244  0.44150365  1
  O  O370  1  0.28766371  0.91666517  0.69128336  1
  O  O371  1  0.28753565  0.91621227  0.94244758  1
  O  O372  1  0.78723920  0.25129997  0.19255785  1
  O  O373  1  0.78628634  0.25050850  0.44388532  1
  O  O374  1  0.78663915  0.24846124  0.69219438  1
  O  O375  1  0.78617634  0.24964827  0.94339677  1
  O  O376  1  0.78708911  0.58315051  0.19398214  1
  O  O377  1  0.78621754  0.58256130  0.44296253  1
  O  O378  1  0.78635373  0.58112947  0.69150956  1
  O  O379  1  0.78799612  0.58268749  0.94148906  1
  O  O380  1  0.78713406  0.91627995  0.19145043  1
  O  O381  1  0.78669187  0.91477713  0.44286895  1
  O  O382  1  0.78587757  0.91562932  0.69303133  1
  O  O383  1  0.78629675  0.91545368  0.94162559  1
  O  O384  1  0.22769439  0.25036426  0.05979809  1
  O  O385  1  0.22795596  0.24875101  0.30817909  1
  O  O386  1  0.22860871  0.25117339  0.55685087  1
  O  O387  1  0.22767460  0.24899312  0.80875284  1
  O  O388  1  0.22691814  0.58448141  0.05948314  1
  O  O389  1  0.22848388  0.58428909  0.30632716  1
  O  O390  1  0.22843843  0.58288762  0.55804083  1
  O  O391  1  0.22814267  0.58558862  0.80837810  1
  O  O392  1  0.22827645  0.91600562  0.05789424  1
  O  O393  1  0.22804475  0.91534106  0.30728551  1
  O  O394  1  0.22736135  0.91535450  0.55743991  1
  O  O395  1  0.22870759  0.91690013  0.80669828  1
  O  O396  1  0.72727314  0.25050866  0.05958475  1
  O  O397  1  0.72806568  0.25179241  0.30840555  1
  O  O398  1  0.72694640  0.24904765  0.55980648  1
  O  O399  1  0.72775500  0.24815744  0.80814464  1
  O  O400  1  0.72882231  0.58308377  0.05683923  1
  O  O401  1  0.72713668  0.58352150  0.30947855  1
  O  O402  1  0.72730157  0.58146018  0.55930405  1
  O  O403  1  0.72786404  0.58095617  0.80779691  1
  O  O404  1  0.72792673  0.91507784  0.05799884  1
  O  O405  1  0.72798492  0.91592044  0.30685639  1
  O  O406  1  0.72758541  0.91430024  0.55847619  1
  O  O407  1  0.72686622  0.91573637  0.80909383  1
  O  O408  1  0.27219852  0.08463346  0.19208449  1
  O  O409  1  0.27170513  0.08486125  0.44131520  1
  O  O410  1  0.27102145  0.08349353  0.69323148  1
  O  O411  1  0.27199313  0.08537880  0.94231714  1
  O  O412  1  0.27307170  0.41606380  0.19062601  1
  O  O413  1  0.27166547  0.41713379  0.44324035  1
  O  O414  1  0.27238071  0.41948355  0.69251133  1
  O  O415  1  0.27167739  0.41707003  0.94394572  1
  O  O416  1  0.27267472  0.75008372  0.19036800  1
  O  O417  1  0.27207797  0.75226359  0.44141383  1
  O  O418  1  0.27179432  0.75240572  0.69154292  1
  O  O419  1  0.27207741  0.74844435  0.94225895  1
  O  O420  1  0.77215421  0.08469005  0.19176474  1
  O  O421  1  0.77150784  0.08323367  0.44351227  1
  O  O422  1  0.77187659  0.08398708  0.69205846  1
  O  O423  1  0.77280131  0.08385634  0.94043054  1
  O  O424  1  0.77255086  0.41479312  0.19209003  1
  O  O425  1  0.77317569  0.41542736  0.44095657  1
  O  O426  1  0.77278161  0.41684376  0.69067063  1
  O  O427  1  0.77221958  0.41720684  0.94136769  1
  O  O428  1  0.77202015  0.75162075  0.19175326  1
  O  O429  1  0.77199308  0.74702106  0.44209714  1
  O  O430  1  0.77268321  0.74984034  0.69044651  1
  O  O431  1  0.77221136  0.75098691  0.94113986  1
  O  O432  1  0.02141250  0.08199568  0.18376039  1
  O  O433  1  0.02146032  0.08194221  0.43316495  1
  O  O434  1  0.02156036  0.08180314  0.68284585  1
  O  O435  1  0.02137394  0.08409633  0.93159610  1
  O  O436  1  0.02250251  0.41735886  0.18489423  1
  O  O437  1  0.02216028  0.41491040  0.43352214  1
  O  O438  1  0.02206976  0.41517086  0.68345960  1
  O  O439  1  0.02177709  0.41863782  0.93381113  1
  O  O440  1  0.02193488  0.75066733  0.18322523  1
  O  O441  1  0.02208320  0.75186195  0.43264949  1
  O  O442  1  0.02192512  0.74861351  0.68292521  1
  O  O443  1  0.02149182  0.74981490  0.93179046  1
  O  O444  1  0.52306378  0.08298247  0.18417037  1
  O  O445  1  0.52193171  0.08491842  0.43317996  1
  O  O446  1  0.52187822  0.08480136  0.68286449  1
  O  O447  1  0.52155468  0.08371712  0.93127779  1
  O  O448  1  0.52236849  0.41842281  0.18277535  1
  O  O449  1  0.52227553  0.41772696  0.43267257  1
  O  O450  1  0.52217864  0.41439771  0.68269491  1
  O  O451  1  0.52194120  0.41837669  0.93283326  1
  O  O452  1  0.52234846  0.75005622  0.18147623  1
  O  O453  1  0.52229297  0.75071451  0.43240223  1
  O  O454  1  0.52196898  0.74934753  0.68112069  1
  O  O455  1  0.52332556  0.75038731  0.93441410  1
  O  O456  1  0.47843718  0.25034647  0.06853801  1
  O  O457  1  0.47823813  0.24882853  0.31663067  1
  O  O458  1  0.47784169  0.24817208  0.56621333  1
  O  O459  1  0.47713683  0.25060675  0.81555201  1
  O  O460  1  0.47769906  0.58244426  0.06550536  1
  O  O461  1  0.47820286  0.58163569  0.31660442  1
  O  O462  1  0.47820211  0.58116900  0.56657105  1
  O  O463  1  0.47871912  0.58290196  0.81843350  1
  O  O464  1  0.47829088  0.91552134  0.06694659  1
  O  O465  1  0.47839635  0.91853863  0.31665774  1
  O  O466  1  0.47805313  0.91556512  0.56661295  1
  O  O467  1  0.47858665  0.91654195  0.81805682  1
  O  O468  1  0.97764561  0.25047352  0.06906836  1
  O  O469  1  0.97771381  0.25115490  0.31765435  1
  O  O470  1  0.97753873  0.25094762  0.56719176  1
  O  O471  1  0.97782463  0.25178794  0.81718122  1
  O  O472  1  0.97738794  0.58163506  0.06778976  1
  O  O473  1  0.97815976  0.58189181  0.31763853  1
  O  O474  1  0.97853019  0.58342265  0.56827323  1
  O  O475  1  0.97814851  0.58506128  0.81687859  1
  O  O476  1  0.97846938  0.91674724  0.06848230  1
  O  O477  1  0.97701157  0.91695211  0.31569941  1
  O  O478  1  0.97680538  0.91631381  0.56543868  1
  O  O479  1  0.97802195  0.91819203  0.81668200  1
  O  O480  1  0.07327364  0.31375129  0.07627155  1
  O  O481  1  0.07287164  0.31470124  0.32428341  1
  O  O482  1  0.07276501  0.31454984  0.57429559  1
  O  O483  1  0.07283762  0.31560772  0.82485919  1
  O  O484  1  0.07254815  0.64564616  0.07592007  1
  O  O485  1  0.07357439  0.64588946  0.32480546  1
  O  O486  1  0.07428063  0.64665530  0.57491485  1
  O  O487  1  0.07305568  0.64844261  0.82468311  1
  O  O488  1  0.07399611  0.98023083  0.07583240  1
  O  O489  1  0.07201285  0.98065417  0.32402194  1
  O  O490  1  0.07194056  0.98023180  0.57281494  1
  O  O491  1  0.07295957  0.98206435  0.82334129  1
  O  O492  1  0.57389521  0.31360303  0.07588456  1
  O  O493  1  0.57349923  0.31258540  0.32509312  1
  O  O494  1  0.57308085  0.31193162  0.57446298  1
  O  O495  1  0.57227559  0.31417769  0.82288438  1
  O  O496  1  0.57230169  0.64662073  0.07334932  1
  O  O497  1  0.57325126  0.64565258  0.32469499  1
  O  O498  1  0.57377520  0.64453806  0.57403345  1
  O  O499  1  0.57399982  0.64677590  0.82498828  1
  O  O500  1  0.57364605  0.97977891  0.07373104  1
  O  O501  1  0.57357077  0.98147129  0.32452147  1
  O  O502  1  0.57364341  0.97912746  0.57445576  1
  O  O503  1  0.57389249  0.97997381  0.82556632  1
  O  O504  1  0.42794787  0.01942757  0.17670659  1
  O  O505  1  0.42667846  0.02109288  0.42471344  1
  O  O506  1  0.42691516  0.02042787  0.67463868  1
  O  O507  1  0.42599285  0.02049774  0.92429732  1
  O  O508  1  0.42708082  0.35479777  0.17488195  1
  O  O509  1  0.42696941  0.35400891  0.42414329  1
  O  O510  1  0.42679547  0.35168905  0.67555463  1
  O  O511  1  0.42665985  0.35401963  0.92609738  1
  O  O512  1  0.42724170  0.68625438  0.17402495  1
  O  O513  1  0.42650855  0.68762089  0.42448613  1
  O  O514  1  0.42659831  0.68599155  0.67385530  1
  O  O515  1  0.42875079  0.68601984  0.92758399  1
  O  O516  1  0.92638220  0.01840764  0.17615938  1
  O  O517  1  0.92620813  0.01828495  0.42603794  1
  O  O518  1  0.92649408  0.01811573  0.67571594  1
  O  O519  1  0.92597040  0.02023830  0.92490292  1
  O  O520  1  0.92802595  0.35280172  0.17704116  1
  O  O521  1  0.92690710  0.35175137  0.42634783  1
  O  O522  1  0.92699235  0.35149119  0.67683585  1
  O  O523  1  0.92629899  0.35473237  0.92631961  1
  O  O524  1  0.92618062  0.68735088  0.17570163  1
  O  O525  1  0.92719020  0.68722167  0.42452412  1
  O  O526  1  0.92700858  0.68506702  0.67513989  1
  O  O527  1  0.92562744  0.68690010  0.92487935  1
  O  O528  1  0.17688052  0.02092759  0.20033404  1
  O  O529  1  0.17627906  0.02113440  0.44884998  1
  O  O530  1  0.17542614  0.02055536  0.69996235  1
  O  O531  1  0.17680789  0.02132881  0.95068101  1
  O  O532  1  0.17754547  0.35311111  0.19869301  1
  O  O533  1  0.17610637  0.35413387  0.45069694  1
  O  O534  1  0.17718101  0.35529823  0.70025056  1
  O  O535  1  0.17617665  0.35380286  0.95134753  1
  O  O536  1  0.17731855  0.68695824  0.19897140  1
  O  O537  1  0.17716191  0.68783164  0.44948913  1
  O  O538  1  0.17664143  0.68809698  0.69881614  1
  O  O539  1  0.17690396  0.68540187  0.94936737  1
  O  O540  1  0.67664352  0.02121630  0.19917866  1
  O  O541  1  0.67630718  0.01945107  0.45085267  1
  O  O542  1  0.67634962  0.02055489  0.70081525  1
  O  O543  1  0.67837205  0.01961499  0.94830026  1
  O  O544  1  0.67708561  0.35224061  0.19910371  1
  O  O545  1  0.67772212  0.35235095  0.44926119  1
  O  O546  1  0.67861019  0.35196990  0.69814275  1
  O  O547  1  0.67640244  0.35403832  0.94937744  1
  O  O548  1  0.67692531  0.68699419  0.19868469  1
  O  O549  1  0.67682199  0.68392195  0.44980754  1
  O  O550  1  0.67852186  0.68503378  0.69872489  1
  O  O551  1  0.67712338  0.68713915  0.94960283  1
  O  O552  1  0.32298360  0.31349689  0.05159161  1
  O  O553  1  0.32310698  0.31293659  0.29956138  1
  O  O554  1  0.32444303  0.31368055  0.54959406  1
  O  O555  1  0.32269953  0.31344451  0.80146258  1
  O  O556  1  0.32257746  0.64734770  0.05186219  1
  O  O557  1  0.32412100  0.64725524  0.29892247  1
  O  O558  1  0.32384180  0.64671488  0.54986504  1
  O  O559  1  0.32302526  0.64913033  0.80108880  1
  O  O560  1  0.32404087  0.97918073  0.05026228  1
  O  O561  1  0.32328658  0.97910230  0.29920686  1
  O  O562  1  0.32239963  0.97974485  0.54894203  1
  O  O563  1  0.32408545  0.98039931  0.79943796  1
  O  O564  1  0.82245774  0.31381505  0.05111426  1
  O  O565  1  0.82347483  0.31450086  0.30157756  1
  O  O566  1  0.82166435  0.31326839  0.55269482  1
  O  O567  1  0.82283679  0.31217366  0.80013304  1
  O  O568  1  0.82394888  0.64692353  0.04936222  1
  O  O569  1  0.82249167  0.64683939  0.30208682  1
  O  O570  1  0.82172413  0.64586997  0.55182658  1
  O  O571  1  0.82294740  0.64500468  0.79904578  1
  O  O572  1  0.82318175  0.97901545  0.04925265  1
  O  O573  1  0.82286837  0.98019848  0.29959507  1
  O  O574  1  0.82294093  0.97803972  0.55065773  1
  O  O575  1  0.82115192  0.98011404  0.80119428  1
  O  O576  1  0.42828891  0.14702299  0.17667013  1
  O  O577  1  0.42687478  0.14803924  0.42496927  1
  O  O578  1  0.42649820  0.14765987  0.67581214  1
  O  O579  1  0.42617078  0.14732696  0.92520819  1
  O  O580  1  0.42724276  0.48189013  0.17560865  1
  O  O581  1  0.42714098  0.48112911  0.42581425  1
  O  O582  1  0.42711424  0.47873711  0.67536645  1
  O  O583  1  0.42659417  0.48111277  0.92539944  1
  O  O584  1  0.42674452  0.81301059  0.17391705  1
  O  O585  1  0.42772415  0.81500224  0.42507231  1
  O  O586  1  0.42649985  0.81286731  0.67450786  1
  O  O587  1  0.42797829  0.81355411  0.92679754  1
  O  O588  1  0.92604561  0.14562855  0.17621317  1
  O  O589  1  0.92613653  0.14539367  0.42539432  1
  O  O590  1  0.92632446  0.14533351  0.67451245  1
  O  O591  1  0.92592025  0.14715540  0.92457106  1
  O  O592  1  0.92694045  0.48019568  0.17809657  1
  O  O593  1  0.92700061  0.47873789  0.42566447  1
  O  O594  1  0.92679847  0.47860609  0.67518302  1
  O  O595  1  0.92695667  0.48185919  0.92623238  1
  O  O596  1  0.92721846  0.81458063  0.17635249  1
  O  O597  1  0.92651462  0.81434623  0.42592788  1
  O  O598  1  0.92652036  0.81219235  0.67498017  1
  O  O599  1  0.92658645  0.81381849  0.92402025  1
  O  O600  1  0.07283771  0.18687055  0.07628564  1
  O  O601  1  0.07306307  0.18760783  0.32575631  1
  O  O602  1  0.07282413  0.18743117  0.57527740  1
  O  O603  1  0.07321342  0.18837058  0.82482818  1
  O  O604  1  0.07246061  0.51849056  0.07471428  1
  O  O605  1  0.07339783  0.51865191  0.32429399  1
  O  O606  1  0.07363169  0.51976067  0.57626344  1
  O  O607  1  0.07351654  0.52128469  0.82505992  1
  O  O608  1  0.07384765  0.85348429  0.07527017  1
  O  O609  1  0.07190613  0.85337748  0.32364253  1
  O  O610  1  0.07168545  0.85286509  0.57340265  1
  O  O611  1  0.07353321  0.85478277  0.82400584  1
  O  O612  1  0.57381020  0.18674924  0.07506504  1
  O  O613  1  0.57337547  0.18543337  0.32381539  1
  O  O614  1  0.57289313  0.18501610  0.57442221  1
  O  O615  1  0.57193714  0.18661411  0.82323549  1
  O  O616  1  0.57303409  0.51921718  0.07296009  1
  O  O617  1  0.57353006  0.51853522  0.32364857  1
  O  O618  1  0.57294963  0.51723994  0.57389873  1
  O  O619  1  0.57437440  0.52002104  0.82540699  1
  O  O620  1  0.57342740  0.85261747  0.07416632  1
  O  O621  1  0.57363733  0.85436765  0.32436346  1
  O  O622  1  0.57281816  0.85179153  0.57311011  1
  O  O623  1  0.57404501  0.85303769  0.82478548  1
  O  O624  1  0.32257624  0.18618907  0.05222489  1
  O  O625  1  0.32305027  0.18581654  0.30049660  1
  O  O626  1  0.32364839  0.18678927  0.55001996  1
  O  O627  1  0.32293007  0.18611952  0.80158690  1
  O  O628  1  0.32117755  0.51999987  0.05143021  1
  O  O629  1  0.32366723  0.52047721  0.29862709  1
  O  O630  1  0.32330106  0.51944043  0.55107772  1
  O  O631  1  0.32368855  0.52201674  0.80128751  1
  O  O632  1  0.32288044  0.85186409  0.05052426  1
  O  O633  1  0.32325136  0.85199160  0.30003536  1
  O  O634  1  0.32275837  0.85257698  0.55021730  1
  O  O635  1  0.32430336  0.85358698  0.79959296  1
  O  O636  1  0.82192036  0.18634389  0.05187096  1
  O  O637  1  0.82307387  0.18765759  0.30074796  1
  O  O638  1  0.82210954  0.18583560  0.55143203  1
  O  O639  1  0.82311922  0.18530413  0.80101136  1
  O  O640  1  0.82445180  0.52013444  0.05034610  1
  O  O641  1  0.82168009  0.51937351  0.30252981  1
  O  O642  1  0.82283701  0.51868259  0.55072273  1
  O  O643  1  0.82295887  0.51795496  0.80026298  1
  O  O644  1  0.82297489  0.85200255  0.05032297  1
  O  O645  1  0.82381240  0.85326592  0.29975395  1
  O  O646  1  0.82255441  0.85079562  0.55097831  1
  O  O647  1  0.82244321  0.85270287  0.80112320  1
  O  O648  1  0.17702276  0.14805405  0.19939493  1
  O  O649  1  0.17676641  0.14847069  0.44882276  1
  O  O650  1  0.17564378  0.14735258  0.70003080  1
  O  O651  1  0.17686480  0.14861957  0.94992799  1
  O  O652  1  0.17884644  0.48073418  0.19831898  1
  O  O653  1  0.17632707  0.48093203  0.44997627  1
  O  O654  1  0.17737459  0.48270915  0.69972190  1
  O  O655  1  0.17641769  0.48054874  0.95181781  1
  O  O656  1  0.17799368  0.81432321  0.19779730  1
  O  O657  1  0.17654110  0.81493425  0.44805927  1
  O  O658  1  0.17656441  0.81517528  0.69912589  1
  O  O659  1  0.17685960  0.81244015  0.95019576  1
  O  O660  1  0.67741019  0.14839929  0.19866903  1
  O  O661  1  0.67598964  0.14641672  0.45074027  1
  O  O662  1  0.67702634  0.14751464  0.69958986  1
  O  O663  1  0.67744059  0.14708163  0.94854339  1
  O  O664  1  0.67762629  0.47916129  0.20034678  1
  O  O665  1  0.67876621  0.47955250  0.44813242  1
  O  O666  1  0.67694998  0.47922362  0.69780656  1
  O  O667  1  0.67775960  0.48113881  0.94891634  1
  O  O668  1  0.67669938  0.81417421  0.19914727  1
  O  O669  1  0.67682822  0.81087661  0.45010092  1
  O  O670  1  0.67706375  0.81247831  0.69818312  1
  O  O671  1  0.67700574  0.81420387  0.94825171  1
