# generated using pymatgen
data_Na2MnFe(PO4)2
_symmetry_space_group_name_H-M   'P 1'
_cell_length_a   22.34123764
_cell_length_b   20.09500230
_cell_length_c   19.45073994
_cell_angle_alpha   90.01311064
_cell_angle_beta   90.02951351
_cell_angle_gamma   90.01455794
_symmetry_Int_Tables_number   1
_chemical_formula_structural   Na2MnFe(PO4)2
_chemical_formula_sum   'Na96 Mn48 Fe48 P96 O384'
_cell_volume   8732.35398926
_cell_formula_units_Z   48
loop_
 _symmetry_equiv_pos_site_id
 _symmetry_equiv_pos_as_xyz
  1  'x, y, z'
loop_
 _atom_site_type_symbol
 _atom_site_label
 _atom_site_symmetry_multiplicity
 _atom_site_fract_x
 _atom_site_fract_y
 _atom_site_fract_z
 _atom_site_occupancy
  Na  Na0  1  0.14080862  0.25024691  0.24409614  1
  Na  Na1  1  0.14005603  0.25200355  0.49426230  1
  Na  Na2  1  0.13969623  0.25044689  0.74345570  1
  Na  Na3  1  0.14049210  0.25046764  0.99412620  1
  Na  Na4  1  0.14002051  0.58359716  0.24418346  1
  Na  Na5  1  0.14042718  0.58353115  0.49260887  1
  Na  Na6  1  0.13960629  0.58292139  0.74382997  1
  Na  Na7  1  0.13999948  0.58442975  0.99408696  1
  Na  Na8  1  0.14054084  0.91651430  0.24342409  1
  Na  Na9  1  0.14027799  0.91656075  0.49302599  1
  Na  Na10  1  0.14052187  0.91634944  0.74411544  1
  Na  Na11  1  0.14059114  0.91631184  0.99499823  1
  Na  Na12  1  0.64004968  0.24826278  0.24248440  1
  Na  Na13  1  0.63981626  0.24967180  0.49282711  1
  Na  Na14  1  0.63996284  0.24976438  0.74341155  1
  Na  Na15  1  0.64031315  0.25021134  0.99367312  1
  Na  Na16  1  0.64041642  0.58243993  0.24343991  1
  Na  Na17  1  0.63993098  0.58296147  0.49362499  1
  Na  Na18  1  0.63910930  0.58274852  0.74290725  1
  Na  Na19  1  0.64039276  0.58288859  0.99358427  1
  Na  Na20  1  0.64066677  0.91563107  0.24196063  1
  Na  Na21  1  0.64085781  0.91728633  0.49359866  1
  Na  Na22  1  0.64042412  0.91698107  0.74505439  1
  Na  Na23  1  0.64022968  0.91722457  0.99447837  1
  Na  Na24  1  0.36005183  0.08413348  0.00756366  1
  Na  Na25  1  0.36014881  0.08429948  0.25588915  1
  Na  Na26  1  0.36001173  0.08500375  0.50603685  1
  Na  Na27  1  0.35998309  0.08444757  0.75614867  1
  Na  Na28  1  0.35917169  0.41825839  0.00629534  1
  Na  Na29  1  0.36008984  0.41765718  0.25773964  1
  Na  Na30  1  0.36049251  0.41763089  0.50533024  1
  Na  Na31  1  0.35990224  0.41774724  0.75577603  1
  Na  Na32  1  0.35985013  0.75098659  0.00659826  1
  Na  Na33  1  0.35990034  0.74964326  0.25687118  1
  Na  Na34  1  0.36001901  0.74934530  0.50479474  1
  Na  Na35  1  0.35998393  0.74903802  0.75673873  1
  Na  Na36  1  0.85914524  0.08352823  0.00717855  1
  Na  Na37  1  0.85953945  0.08130054  0.25601274  1
  Na  Na38  1  0.85985876  0.08316794  0.50575457  1
  Na  Na39  1  0.85954524  0.08398656  0.75645302  1
  Na  Na40  1  0.85911589  0.41619665  0.00530129  1
  Na  Na41  1  0.85949355  0.41492033  0.25599934  1
  Na  Na42  1  0.85995916  0.41587702  0.50663819  1
  Na  Na43  1  0.85918579  0.41585970  0.75695451  1
  Na  Na44  1  0.85965813  0.74955337  0.00720768  1
  Na  Na45  1  0.85979485  0.74921853  0.25601208  1
  Na  Na46  1  0.85962499  0.75059446  0.50617234  1
  Na  Na47  1  0.86002380  0.74873678  0.75690836  1
  Na  Na48  1  0.11045527  0.08254579  0.11895151  1
  Na  Na49  1  0.10961120  0.08221727  0.36866693  1
  Na  Na50  1  0.10886790  0.08446017  0.61911491  1
  Na  Na51  1  0.10949739  0.08327013  0.86946173  1
  Na  Na52  1  0.10954311  0.41857655  0.11964659  1
  Na  Na53  1  0.10963763  0.41675962  0.36895302  1
  Na  Na54  1  0.10964156  0.41694438  0.61928942  1
  Na  Na55  1  0.10897264  0.41690571  0.86745285  1
  Na  Na56  1  0.10985790  0.74934658  0.11978036  1
  Na  Na57  1  0.10968722  0.74976165  0.36698988  1
  Na  Na58  1  0.10938055  0.75055738  0.61961333  1
  Na  Na59  1  0.10934780  0.74816846  0.86862669  1
  Na  Na60  1  0.60976266  0.08361998  0.11734801  1
  Na  Na61  1  0.60970764  0.08413318  0.36764167  1
  Na  Na62  1  0.60972489  0.08456018  0.61852119  1
  Na  Na63  1  0.60985372  0.08383994  0.86960294  1
  Na  Na64  1  0.60942268  0.41532027  0.11872656  1
  Na  Na65  1  0.60929795  0.41553907  0.36843923  1
  Na  Na66  1  0.60917655  0.41759057  0.61816929  1
  Na  Na67  1  0.60967066  0.41697546  0.86727999  1
  Na  Na68  1  0.61009176  0.75119123  0.11838752  1
  Na  Na69  1  0.61006459  0.74889533  0.36785432  1
  Na  Na70  1  0.60934620  0.74904964  0.61855722  1
  Na  Na71  1  0.60920414  0.75005866  0.86985449  1
  Na  Na72  1  0.39063798  0.25037294  0.13250544  1
  Na  Na73  1  0.39073785  0.25135444  0.38117262  1
  Na  Na74  1  0.39046977  0.25205610  0.63039445  1
  Na  Na75  1  0.39042822  0.24933832  0.88104625  1
  Na  Na76  1  0.39032947  0.58414051  0.13218619  1
  Na  Na77  1  0.39089257  0.58236494  0.38155224  1
  Na  Na78  1  0.39057948  0.58370100  0.63038136  1
  Na  Na79  1  0.38958688  0.58411900  0.88132563  1
  Na  Na80  1  0.39053234  0.91813222  0.13191176  1
  Na  Na81  1  0.39091955  0.91577570  0.38075400  1
  Na  Na82  1  0.39094816  0.91681079  0.63063428  1
  Na  Na83  1  0.39109845  0.91792020  0.88225869  1
  Na  Na84  1  0.88966608  0.24942882  0.13191232  1
  Na  Na85  1  0.89016450  0.24845863  0.38079181  1
  Na  Na86  1  0.89095211  0.25086619  0.63174901  1
  Na  Na87  1  0.88938990  0.24971890  0.88137002  1
  Na  Na88  1  0.89022050  0.58415869  0.13137220  1
  Na  Na89  1  0.89060387  0.58243832  0.38037249  1
  Na  Na90  1  0.89047615  0.58269215  0.63245886  1
  Na  Na91  1  0.88976319  0.58254907  0.88059878  1
  Na  Na92  1  0.89043497  0.91526434  0.13303376  1
  Na  Na93  1  0.89003317  0.91577704  0.38062311  1
  Na  Na94  1  0.89050627  0.91753552  0.63113032  1
  Na  Na95  1  0.89069408  0.91482341  0.88124577  1
  Mn  Mn96  1  0.74972097  -0.00053745  0.37412690  1
  Mn  Mn97  1  0.25046365  0.83294316  0.62469037  1
  Mn  Mn98  1  0.00021965  0.16661580  0.49999646  1
  Mn  Mn99  1  0.00046604  0.33368139  0.25025450  1
  Mn  Mn100  1  0.00008036  0.66655060  0.50026018  1
  Mn  Mn101  1  0.25044918  0.00019956  0.62463375  1
  Mn  Mn102  1  0.49907054  0.33283844  -0.00055523  1
  Mn  Mn103  1  0.25057183  0.33453322  0.87535930  1
  Mn  Mn104  1  0.50057137  0.66654444  0.24989163  1
  Mn  Mn105  1  0.74883239  0.66563618  0.87546448  1
  Mn  Mn106  1  -0.00021030  -0.00123948  -0.00029870  1
  Mn  Mn107  1  0.24975149  0.66659423  0.62442088  1
  Mn  Mn108  1  0.25023081  0.00002986  0.37503772  1
  Mn  Mn109  1  0.00070194  0.16533624  0.25117375  1
  Mn  Mn110  1  -0.00017960  0.33338434  0.00006376  1
  Mn  Mn111  1  0.74993162  0.83391928  0.62563473  1
  Mn  Mn112  1  0.50050489  0.00114716  0.50013726  1
  Mn  Mn113  1  0.00033388  0.83155189  0.00074013  1
  Mn  Mn114  1  0.24964652  0.16726335  0.87520926  1
  Mn  Mn115  1  -0.00022115  0.16631781  0.00021490  1
  Mn  Mn116  1  0.49991465  0.50004011  -0.00010744  1
  Mn  Mn117  1  -0.00015315  0.00000287  0.75043743  1
  Mn  Mn118  1  0.74970174  0.33139524  0.37510954  1
  Mn  Mn119  1  0.24953187  0.16808526  0.37541191  1
  Mn  Mn120  1  0.25005073  0.00049084  0.87533248  1
  Mn  Mn121  1  0.75019468  0.83334829  0.87557104  1
  Mn  Mn122  1  0.75077228  0.66657278  0.37491241  1
  Mn  Mn123  1  0.75044116  0.16607310  0.62491665  1
  Mn  Mn124  1  0.50053068  0.83313851  0.75031032  1
  Mn  Mn125  1  0.75107505  0.00059374  0.87585800  1
  Mn  Mn126  1  0.25077706  0.83300379  0.87530846  1
  Mn  Mn127  1  0.24932537  0.33418071  0.12509213  1
  Mn  Mn128  1  0.74957185  0.66577704  0.62538561  1
  Mn  Mn129  1  -0.00014752  0.83382374  0.49931808  1
  Mn  Mn130  1  0.50041622  0.66752537  0.00081388  1
  Mn  Mn131  1  0.74979789  0.49892846  0.12455477  1
  Mn  Mn132  1  0.00032664  0.49904947  0.50094967  1
  Mn  Mn133  1  0.50048992  0.00148395  0.75063427  1
  Mn  Mn134  1  0.75007770  0.49892310  0.37414989  1
  Mn  Mn135  1  0.74996930  0.33341059  0.62470837  1
  Mn  Mn136  1  0.50008636  0.33359744  0.74907853  1
  Mn  Mn137  1  0.25042825  0.49979137  0.62418521  1
  Mn  Mn138  1  0.24971701  0.16816757  0.62534548  1
  Mn  Mn139  1  -0.00041269  0.50091946  -0.00092034  1
  Mn  Mn140  1  0.24998633  0.83287592  0.12482501  1
  Mn  Mn141  1  0.50103631  0.83223540  0.50075080  1
  Mn  Mn142  1  0.50054152  0.00050121  0.24996931  1
  Mn  Mn143  1  0.24993032  0.50156669  0.12612673  1
  Fe  Fe144  1  0.49935676  0.50082999  0.74892176  1
  Fe  Fe145  1  0.50007468  0.33347083  0.25035650  1
  Fe  Fe146  1  0.25065900  0.16737075  0.12537728  1
  Fe  Fe147  1  0.74999706  0.16539467  0.37386844  1
  Fe  Fe148  1  0.49931629  0.66679544  0.74988925  1
  Fe  Fe149  1  0.74972344  0.49952545  0.62521528  1
  Fe  Fe150  1  0.00018005  0.83271668  0.25027297  1
  Fe  Fe151  1  0.49986564  0.00065074  0.00043978  1
  Fe  Fe152  1  0.74930485  0.33301848  0.87506309  1
  Fe  Fe153  1  0.50015973  0.16691053  0.00036831  1
  Fe  Fe154  1  0.74956347  0.33243127  0.12418584  1
  Fe  Fe155  1  0.24994037  0.50044436  0.37483634  1
  Fe  Fe156  1  -0.00018019  0.33316150  0.74995079  1
  Fe  Fe157  1  0.50030957  0.83370914  0.24977261  1
  Fe  Fe158  1  0.75007286  0.66624875  0.12470208  1
  Fe  Fe159  1  -0.00085241  0.16699271  0.74966509  1
  Fe  Fe160  1  0.74927423  0.16694007  0.87563564  1
  Fe  Fe161  1  0.25048282  0.33425501  0.37474314  1
  Fe  Fe162  1  0.75017589  0.16636126  0.12467453  1
  Fe  Fe163  1  0.50054838  0.49946542  0.25088828  1
  Fe  Fe164  1  0.25050494  0.00016211  0.12547785  1
  Fe  Fe165  1  -0.00045735  0.66654684  0.75000737  1
  Fe  Fe166  1  0.74939373  0.49938425  0.87519907  1
  Fe  Fe167  1  0.50033222  0.49998574  0.49985968  1
  Fe  Fe168  1  0.74998440  0.00036245  0.62464546  1
  Fe  Fe169  1  -0.00030066  0.49987194  0.74992762  1
  Fe  Fe170  1  0.50028527  0.33361272  0.49945344  1
  Fe  Fe171  1  0.50013278  0.66581334  0.49940187  1
  Fe  Fe172  1  -0.00023378  0.33339583  0.50032587  1
  Fe  Fe173  1  0.25036680  0.66674248  0.12567591  1
  Fe  Fe174  1  0.74973298  0.83292548  0.37459630  1
  Fe  Fe175  1  0.25045683  0.83324461  0.37407524  1
  Fe  Fe176  1  0.49967742  0.16721419  0.74998356  1
  Fe  Fe177  1  0.24954902  0.66647031  0.87555202  1
  Fe  Fe178  1  0.24918680  0.50061152  0.87527062  1
  Fe  Fe179  1  0.50000749  0.16717275  0.24958950  1
  Fe  Fe180  1  0.00015871  0.66617009  0.24993631  1
  Fe  Fe181  1  0.24990679  0.33462286  0.62463290  1
  Fe  Fe182  1  0.00008566  -0.00092992  0.24996211  1
  Fe  Fe183  1  -0.00080648  0.50009789  0.24997530  1
  Fe  Fe184  1  0.00020816  0.83312473  0.74989861  1
  Fe  Fe185  1  0.49995765  0.16777533  0.49917425  1
  Fe  Fe186  1  0.49968407  0.83413026  -0.00023379  1
  Fe  Fe187  1  0.25012414  0.66688708  0.37472309  1
  Fe  Fe188  1  0.75010497  -0.00021885  0.12514765  1
  Fe  Fe189  1  0.75027007  0.83293069  0.12528781  1
  Fe  Fe190  1  -0.00035807  0.66624664  0.00002738  1
  Fe  Fe191  1  0.00022123  -0.00035663  0.50015343  1
  P  P192  1  0.04287274  0.24996541  0.10344280  1
  P  P193  1  0.04305765  0.25004866  0.35400487  1
  P  P194  1  0.04177795  0.25171058  0.60334240  1
  P  P195  1  0.04108353  0.24967702  0.85143455  1
  P  P196  1  0.04166105  0.58483240  0.10315431  1
  P  P197  1  0.04141107  0.58268653  0.35163565  1
  P  P198  1  0.04266052  0.58341893  0.60417543  1
  P  P199  1  0.04085866  0.58346261  0.85151435  1
  P  P200  1  0.04256779  0.91583087  0.10417502  1
  P  P201  1  0.04153470  0.91658457  0.35173104  1
  P  P202  1  0.04236685  0.91760599  0.60270189  1
  P  P203  1  0.04251755  0.91453260  0.85254623  1
  P  P204  1  0.54178608  0.24924464  0.10289646  1
  P  P205  1  0.54135186  0.24990616  0.35177317  1
  P  P206  1  0.54141492  0.25044715  0.60130528  1
  P  P207  1  0.54196708  0.24885251  0.85232240  1
  P  P208  1  0.54287650  0.58296061  0.10372330  1
  P  P209  1  0.54252908  0.58162839  0.35306501  1
  P  P210  1  0.54125285  0.58336737  0.60197891  1
  P  P211  1  0.54086307  0.58375824  0.85121756  1
  P  P212  1  0.54106048  0.91684044  0.10184750  1
  P  P213  1  0.54280064  0.91545852  0.35219192  1
  P  P214  1  0.54336916  0.91712861  0.60325770  1
  P  P215  1  0.54265194  0.91730190  0.85430419  1
  P  P216  1  0.45844566  0.08484939  0.14698036  1
  P  P217  1  0.45811980  0.08519717  0.39690491  1
  P  P218  1  0.45798417  0.08580963  0.64703917  1
  P  P219  1  0.45863870  0.08423873  0.89866720  1
  P  P220  1  0.45851913  0.41696188  0.14901926  1
  P  P221  1  0.45941555  0.41686620  0.39765655  1
  P  P222  1  0.45800524  0.41855043  0.64629004  1
  P  P223  1  0.45708235  0.41710138  0.89609115  1
  P  P224  1  0.45823900  0.75193724  0.14746934  1
  P  P225  1  0.45856670  0.74850148  0.39717780  1
  P  P226  1  0.45788765  0.74846127  0.64717619  1
  P  P227  1  0.45761603  0.75111973  0.89759549  1
  P  P228  1  0.95795935  0.08170117  0.14802720  1
  P  P229  1  0.95807564  0.08098593  0.39735915  1
  P  P230  1  0.95749266  0.08447587  0.64735947  1
  P  P231  1  0.95669144  0.08308499  0.89658086  1
  P  P232  1  0.95748380  0.41817897  0.14749544  1
  P  P233  1  0.95759449  0.41551648  0.39745212  1
  P  P234  1  0.95840589  0.41625619  0.64848135  1
  P  P235  1  0.95731248  0.41640080  0.89577500  1
  P  P236  1  0.95874618  0.74921848  0.14858600  1
  P  P237  1  0.95770212  0.74941621  0.39590837  1
  P  P238  1  0.95825086  0.75029129  0.64844754  1
  P  P239  1  0.95747628  0.74768206  0.89709010  1
  P  P240  1  0.20904852  0.08389965  0.22671796  1
  P  P241  1  0.20705666  0.08407870  0.47818883  1
  P  P242  1  0.20684839  0.08360211  0.72806755  1
  P  P243  1  0.20757885  0.08381803  0.97967942  1
  P  P244  1  0.20750546  0.41756958  0.22935482  1
  P  P245  1  0.20870345  0.41699367  0.47653560  1
  P  P246  1  0.20781859  0.41648024  0.72768477  1
  P  P247  1  0.20703340  0.41869680  0.97766974  1
  P  P248  1  0.20830778  0.74869724  0.22847989  1
  P  P249  1  0.20831580  0.75024559  0.47564691  1
  P  P250  1  0.20763192  0.74939352  0.72859075  1
  P  P251  1  0.20782389  0.74875806  0.97802098  1
  P  P252  1  0.70856430  0.08296607  0.22624602  1
  P  P253  1  0.70764055  0.08399077  0.47683119  1
  P  P254  1  0.70773600  0.08230965  0.72779507  1
  P  P255  1  0.70823574  0.08498800  0.97873114  1
  P  P256  1  0.70765577  0.41412543  0.22688718  1
  P  P257  1  0.70716725  0.41634079  0.47809824  1
  P  P258  1  0.70733428  0.41747637  0.72798855  1
  P  P259  1  0.70795541  0.41595286  0.97672148  1
  P  P260  1  0.70879536  0.74957059  0.22667306  1
  P  P261  1  0.70785412  0.75099861  0.47728177  1
  P  P262  1  0.70683894  0.74960641  0.72840823  1
  P  P263  1  0.70744571  0.74999386  0.97949016  1
  P  P264  1  0.29260630  0.25002229  0.02306652  1
  P  P265  1  0.29234665  0.25145855  0.27229000  1
  P  P266  1  0.29200577  0.25281875  0.52203020  1
  P  P267  1  0.29270587  0.25119559  0.77162093  1
  P  P268  1  0.29221219  0.58525229  0.02237574  1
  P  P269  1  0.29184172  0.58397650  0.27349713  1
  P  P270  1  0.29249570  0.58353235  0.52042722  1
  P  P271  1  0.29105364  0.58321566  0.77348591  1
  P  P272  1  0.29253866  0.91783252  0.02311715  1
  P  P273  1  0.29230482  0.91603582  0.27183902  1
  P  P274  1  0.29315204  0.91606833  0.52088929  1
  P  P275  1  0.29361790  0.91681197  0.77209245  1
  P  P276  1  0.79129386  0.24975675  0.02251757  1
  P  P277  1  0.79198479  0.24736314  0.27129229  1
  P  P278  1  0.79302968  0.24923735  0.52150491  1
  P  P279  1  0.79063952  0.24964994  0.77373022  1
  P  P280  1  0.79182034  0.58340423  0.02220972  1
  P  P281  1  0.79269997  0.58297240  0.27090752  1
  P  P282  1  0.79245530  0.58180639  0.52281143  1
  P  P283  1  0.79120921  0.58103753  0.77242416  1
  P  P284  1  0.79175871  0.91652809  0.02410511  1
  P  P285  1  0.79164291  0.91436463  0.27148612  1
  P  P286  1  0.79224385  0.91794302  0.52219448  1
  P  P287  1  0.79302510  0.91711503  0.77193924  1
  O  O288  1  0.03817456  0.24992969  0.18344218  1
  O  O289  1  0.03766772  0.25051313  0.43393341  1
  O  O290  1  0.03597938  0.25153340  0.68321621  1
  O  O291  1  0.03623127  0.24972487  0.93143763  1
  O  O292  1  0.03625282  0.58453113  0.18301507  1
  O  O293  1  0.03678504  0.58253361  0.43163900  1
  O  O294  1  0.03733963  0.58352939  0.68404889  1
  O  O295  1  0.03619626  0.58367343  0.93147580  1
  O  O296  1  0.03726664  0.91621482  0.18407911  1
  O  O297  1  0.03683509  0.91697764  0.43172608  1
  O  O298  1  0.03716519  0.91689555  0.68259639  1
  O  O299  1  0.03734268  0.91450011  0.93250777  1
  O  O300  1  0.53676347  0.24959561  0.18276060  1
  O  O301  1  0.53639398  0.25014833  0.43166393  1
  O  O302  1  0.53663256  0.25042800  0.68124239  1
  O  O303  1  0.53661867  0.24876630  0.93221774  1
  O  O304  1  0.53785560  0.58235954  0.18364893  1
  O  O305  1  0.53691494  0.58196235  0.43291560  1
  O  O306  1  0.53573430  0.58346705  0.68186861  1
  O  O307  1  0.53625167  0.58356442  0.93121812  1
  O  O308  1  0.53650256  0.91659354  0.18186415  1
  O  O309  1  0.53780319  0.91575617  0.43210300  1
  O  O310  1  0.53815693  0.91736132  0.68320214  1
  O  O311  1  0.53699142  0.91735665  0.93419075  1
  O  O312  1  0.46368462  0.08454059  0.06712766  1
  O  O313  1  0.46340802  0.08511287  0.31695797  1
  O  O314  1  0.46337739  0.08581895  0.56710092  1
  O  O315  1  0.46325716  0.08430474  0.81867169  1
  O  O316  1  0.46286233  0.41663178  0.06899510  1
  O  O317  1  0.46441628  0.41655790  0.31777316  1
  O  O318  1  0.46352098  0.41838609  0.56645667  1
  O  O319  1  0.46231503  0.41753727  0.81617069  1
  O  O320  1  0.46351669  0.75215417  0.06755754  1
  O  O321  1  0.46375818  0.74914413  0.31728380  1
  O  O322  1  0.46347193  0.74800032  0.56726949  1
  O  O323  1  0.46281958  0.75027360  0.81766438  1
  O  O324  1  0.96267863  0.08200724  0.06804070  1
  O  O325  1  0.96357160  0.08053825  0.31744578  1
  O  O326  1  0.96299615  0.08397653  0.56747554  1
  O  O327  1  0.96171203  0.08373944  0.81660429  1
  O  O328  1  0.96246241  0.41811233  0.06753539  1
  O  O329  1  0.96276215  0.41646500  0.31752519  1
  O  O330  1  0.96323970  0.41598601  0.56847541  1
  O  O331  1  0.96274702  0.41613464  0.81590325  1
  O  O332  1  0.96324079  0.74926757  0.06861393  1
  O  O333  1  0.96319927  0.74912749  0.31604478  1
  O  O334  1  0.96336329  0.75049595  0.56845942  1
  O  O335  1  0.96247507  0.74796191  0.81723380  1
  O  O336  1  0.21327349  0.08391743  0.05960494  1
  O  O337  1  0.21371262  0.08387314  0.30673981  1
  O  O338  1  0.21218496  0.08394209  0.55811682  1
  O  O339  1  0.21170752  0.08368721  0.80811866  1
  O  O340  1  0.21205849  0.41855459  0.05765228  1
  O  O341  1  0.21296974  0.41739806  0.30924672  1
  O  O342  1  0.21378336  0.41659357  0.55653399  1
  O  O343  1  0.21287479  0.41738161  0.80762276  1
  O  O344  1  0.21306789  0.74863317  0.05799291  1
  O  O345  1  0.21400545  0.74914793  0.30833714  1
  O  O346  1  0.21313267  0.75020595  0.55567679  1
  O  O347  1  0.21279260  0.74898503  0.80854097  1
  O  O348  1  0.71380091  0.08505126  0.05857341  1
  O  O349  1  0.71309806  0.08283896  0.30624906  1
  O  O350  1  0.71271328  0.08343851  0.55676419  1
  O  O351  1  0.71292073  0.08297552  0.80773763  1
  O  O352  1  0.71290318  0.41513700  0.05667164  1
  O  O353  1  0.71289333  0.41420305  0.30679851  1
  O  O354  1  0.71217424  0.41707940  0.55807462  1
  O  O355  1  0.71247381  0.41724118  0.80790487  1
  O  O356  1  0.71320811  0.74987623  0.05939659  1
  O  O357  1  0.71379218  0.74993133  0.30667754  1
  O  O358  1  0.71281829  0.75082247  0.55723209  1
  O  O359  1  0.71175226  0.74937829  0.80839650  1
  O  O360  1  0.28686445  0.25062454  0.19237076  1
  O  O361  1  0.28659449  0.25289266  0.44207309  1
  O  O362  1  0.28744887  0.25178439  0.69166534  1
  O  O363  1  0.28777367  0.25016438  0.94306581  1
  O  O364  1  0.28690518  0.58458070  0.19350268  1
  O  O365  1  0.28718958  0.58347220  0.44056141  1
  O  O366  1  0.28624927  0.58323240  0.69347341  1
  O  O367  1  0.28661103  0.58464669  0.94250910  1
  O  O368  1  0.28674589  0.91671860  0.19191122  1
  O  O369  1  0.28781148  0.91552620  0.44089512  1
  O  O370  1  0.28869886  0.91677618  0.69205655  1
  O  O371  1  0.28767596  0.91757276  0.94316335  1
  O  O372  1  0.78658945  0.24762472  0.19141411  1
  O  O373  1  0.78815673  0.24869793  0.44155433  1
  O  O374  1  0.78611791  0.24999025  0.69376076  1
  O  O375  1  0.78583976  0.24978409  0.94262765  1
  O  O376  1  0.78722339  0.58352944  0.19100043  1
  O  O377  1  0.78771641  0.58221786  0.44277137  1
  O  O378  1  0.78615468  0.58081962  0.69245336  1
  O  O379  1  0.78632409  0.58295850  0.94228062  1
  O  O380  1  0.78643089  0.91432240  0.19162107  1
  O  O381  1  0.78691403  0.91726239  0.44225041  1
  O  O382  1  0.78779671  0.91763893  0.69201031  1
  O  O383  1  0.78740462  0.91693495  0.94407834  1
  O  O384  1  0.22814026  0.24949619  0.05809792  1
  O  O385  1  0.22812202  0.25233103  0.30807636  1
  O  O386  1  0.22783810  0.25296156  0.55803145  1
  O  O387  1  0.22835047  0.25118973  0.80693126  1
  O  O388  1  0.22801993  0.58568265  0.05848108  1
  O  O389  1  0.22762969  0.58373690  0.30931497  1
  O  O390  1  0.22825526  0.58314158  0.55605709  1
  O  O391  1  0.22684576  0.58299854  0.80935395  1
  O  O392  1  0.22819782  0.91769077  0.05842474  1
  O  O393  1  0.22813739  0.91564541  0.30776028  1
  O  O394  1  0.22879132  0.91639012  0.55616963  1
  O  O395  1  0.22908924  0.91663454  0.80689912  1
  O  O396  1  0.72727560  0.24958468  0.05898833  1
  O  O397  1  0.72778319  0.24713648  0.30736402  1
  O  O398  1  0.72857538  0.24946369  0.55648909  1
  O  O399  1  0.72642339  0.24912389  0.80935372  1
  O  O400  1  0.72766157  0.58344429  0.05807172  1
  O  O401  1  0.72847843  0.58310142  0.30650071  1
  O  O402  1  0.72793726  0.58152098  0.55785084  1
  O  O403  1  0.72691937  0.58091924  0.80809349  1
  O  O404  1  0.72740180  0.91603386  0.05932199  1
  O  O405  1  0.72751722  0.91446921  0.30757921  1
  O  O406  1  0.72802642  0.91824800  0.55807241  1
  O  O407  1  0.72875640  0.91722147  0.80743800  1
  O  O408  1  0.27328161  0.08398572  0.19113149  1
  O  O409  1  0.27148527  0.08419758  0.44319101  1
  O  O410  1  0.27140172  0.08394022  0.69334632  1
  O  O411  1  0.27178968  0.08407757  0.94384904  1
  O  O412  1  0.27169379  0.41750211  0.19363633  1
  O  O413  1  0.27285804  0.41762628  0.44051049  1
  O  O414  1  0.27212429  0.41570812  0.69198306  1
  O  O415  1  0.27150220  0.41940278  0.94249405  1
  O  O416  1  0.27232940  0.74854021  0.19204410  1
  O  O417  1  0.27263291  0.75027157  0.44011307  1
  O  O418  1  0.27199721  0.74951117  0.69330387  1
  O  O419  1  0.27211279  0.74847025  0.94241369  1
  O  O420  1  0.77285148  0.08317607  0.19084658  1
  O  O421  1  0.77195469  0.08415425  0.44118557  1
  O  O422  1  0.77205027  0.08166328  0.69207344  1
  O  O423  1  0.77229122  0.08571988  0.94243136  1
  O  O424  1  0.77190830  0.41411328  0.19127111  1
  O  O425  1  0.77156872  0.41554551  0.44296848  1
  O  O426  1  0.77160763  0.41778032  0.69204395  1
  O  O427  1  0.77207141  0.41672785  0.94077030  1
  O  O428  1  0.77292256  0.74961540  0.19068081  1
  O  O429  1  0.77224045  0.75144092  0.44188944  1
  O  O430  1  0.77131074  0.74959922  0.69353200  1
  O  O431  1  0.77154681  0.74928856  0.94352484  1
  O  O432  1  0.02241083  0.08123446  0.18325612  1
  O  O433  1  0.02224194  0.08134406  0.43338114  1
  O  O434  1  0.02162863  0.08501554  0.68350042  1
  O  O435  1  0.02116364  0.08277996  0.93168378  1
  O  O436  1  0.02185301  0.41858561  0.18293778  1
  O  O437  1  0.02189885  0.41473653  0.43329955  1
  O  O438  1  0.02257231  0.41583167  0.68429183  1
  O  O439  1  0.02150340  0.41668496  0.93167806  1
  O  O440  1  0.02292223  0.74882302  0.18444636  1
  O  O441  1  0.02192602  0.74984864  0.43170090  1
  O  O442  1  0.02240537  0.75017088  0.68446802  1
  O  O443  1  0.02182081  0.74743720  0.93290878  1
  O  O444  1  0.52260660  0.08513620  0.18309371  1
  O  O445  1  0.52237771  0.08561466  0.43269039  1
  O  O446  1  0.52221869  0.08592782  0.68299720  1
  O  O447  1  0.52282904  0.08442183  0.93452591  1
  O  O448  1  0.52288110  0.41741242  0.18438779  1
  O  O449  1  0.52330945  0.41724785  0.43419710  1
  O  O450  1  0.52201818  0.41867833  0.68275193  1
  O  O451  1  0.52143190  0.41645854  0.93150001  1
  O  O452  1  0.52253237  0.75162551  0.18318333  1
  O  O453  1  0.52277673  0.74775819  0.43309377  1
  O  O454  1  0.52205972  0.74810660  0.68324501  1
  O  O455  1  0.52188523  0.75201174  0.93342116  1
  O  O456  1  0.47750281  0.24865260  0.06706154  1
  O  O457  1  0.47727820  0.24955515  0.31553691  1
  O  O458  1  0.47726955  0.25015798  0.56531061  1
  O  O459  1  0.47773684  0.24918101  0.81641355  1
  O  O460  1  0.47846526  0.58347259  0.06852943  1
  O  O461  1  0.47842404  0.58163187  0.31678207  1
  O  O462  1  0.47733876  0.58352633  0.56520582  1
  O  O463  1  0.47662183  0.58422847  0.81541735  1
  O  O464  1  0.47690924  0.91650574  0.06599162  1
  O  O465  1  0.47843284  0.91581494  0.31669272  1
  O  O466  1  0.47904374  0.91681262  0.56795421  1
  O  O467  1  0.47859735  0.91723991  0.81813086  1
  O  O468  1  0.97826470  0.24997676  0.06875585  1
  O  O469  1  0.97878568  0.24961950  0.31847466  1
  O  O470  1  0.97777366  0.25163810  0.56676490  1
  O  O471  1  0.97681442  0.24976589  0.81566482  1
  O  O472  1  0.97750840  0.58491399  0.06690923  1
  O  O473  1  0.97719004  0.58303290  0.31581977  1
  O  O474  1  0.97837056  0.58305474  0.56860555  1
  O  O475  1  0.97672292  0.58380073  0.81558277  1
  O  O476  1  0.97829803  0.91542839  0.06846350  1
  O  O477  1  0.97732194  0.91667154  0.31596033  1
  O  O478  1  0.97803803  0.91799794  0.56694257  1
  O  O479  1  0.97818213  0.91469782  0.81698037  1
  O  O480  1  0.07371207  0.31357662  0.07522927  1
  O  O481  1  0.07425988  0.31320435  0.32541191  1
  O  O482  1  0.07261839  0.31517063  0.57462196  1
  O  O483  1  0.07206458  0.31335099  0.82351700  1
  O  O484  1  0.07243657  0.64827552  0.07429606  1
  O  O485  1  0.07253876  0.64622373  0.32369255  1
  O  O486  1  0.07367119  0.64682570  0.57549081  1
  O  O487  1  0.07231838  0.64656511  0.82308691  1
  O  O488  1  0.07358344  0.97910485  0.07529416  1
  O  O489  1  0.07293218  0.97975750  0.32323068  1
  O  O490  1  0.07299603  0.98134401  0.57443089  1
  O  O491  1  0.07368789  0.97823239  0.82510893  1
  O  O492  1  0.57242838  0.31295587  0.07427028  1
  O  O493  1  0.57178355  0.31379736  0.32311716  1
  O  O494  1  0.57165264  0.31457703  0.57300179  1
  O  O495  1  0.57314358  0.31248475  0.82451649  1
  O  O496  1  0.57388104  0.64665083  0.07589541  1
  O  O497  1  0.57394070  0.64501877  0.32492163  1
  O  O498  1  0.57252578  0.64676159  0.57352985  1
  O  O499  1  0.57194994  0.64741321  0.82349508  1
  O  O500  1  0.57111797  0.98120043  0.07388717  1
  O  O501  1  0.57410277  0.97897187  0.32431049  1
  O  O502  1  0.57414152  0.98067008  0.57488504  1
  O  O503  1  0.57393917  0.98075706  0.82611754  1
  O  O504  1  0.42747386  0.02122556  0.17525847  1
  O  O505  1  0.42747640  0.02116863  0.42461336  1
  O  O506  1  0.42708632  0.02196829  0.67479254  1
  O  O507  1  0.42838477  0.02020601  0.92717354  1
  O  O508  1  0.42838919  0.35298447  0.17766315  1
  O  O509  1  0.42892731  0.35300721  0.42633173  1
  O  O510  1  0.42683204  0.35496057  0.67422748  1
  O  O511  1  0.42583442  0.35360939  0.92412990  1
  O  O512  1  0.42710393  0.68818329  0.17505503  1
  O  O513  1  0.42755033  0.68490774  0.42522012  1
  O  O514  1  0.42648597  0.68542049  0.67596398  1
  O  O515  1  0.42692383  0.68750725  0.92607910  1
  O  O516  1  0.92700943  0.01823693  0.17633936  1
  O  O517  1  0.92722016  0.01770200  0.42625640  1
  O  O518  1  0.92645784  0.02096595  0.67542682  1
  O  O519  1  0.92584672  0.01927157  0.92441376  1
  O  O520  1  0.92672320  0.35434044  0.17523694  1
  O  O521  1  0.92670369  0.35187253  0.42550063  1
  O  O522  1  0.92673397  0.35321763  0.67686584  1
  O  O523  1  0.92619594  0.35306061  0.92443661  1
  O  O524  1  0.92727444  0.68601939  0.17674702  1
  O  O525  1  0.92664549  0.68605277  0.42459027  1
  O  O526  1  0.92730263  0.68650543  0.67610631  1
  O  O527  1  0.92664493  0.68435699  0.92621634  1
  O  O528  1  0.17851824  0.01991490  0.19873601  1
  O  O529  1  0.17613256  0.02063172  0.44972641  1
  O  O530  1  0.17609007  0.01998047  0.69993175  1
  O  O531  1  0.17645626  0.02029049  0.95138732  1
  O  O532  1  0.17601986  0.35444156  0.20074233  1
  O  O533  1  0.17808312  0.35333481  0.44809428  1
  O  O534  1  0.17686937  0.35296192  0.69936650  1
  O  O535  1  0.17652411  0.35472795  0.94981362  1
  O  O536  1  0.17733926  0.68520752  0.20010264  1
  O  O537  1  0.17757443  0.68638908  0.44770195  1
  O  O538  1  0.17642589  0.68620016  0.69988036  1
  O  O539  1  0.17663251  0.68564897  0.94910834  1
  O  O540  1  0.67842859  0.01876380  0.19782094  1
  O  O541  1  0.67635200  0.02066289  0.44845774  1
  O  O542  1  0.67695185  0.01880068  0.69921841  1
  O  O543  1  0.67761552  0.02093246  0.95110328  1
  O  O544  1  0.67688807  0.35063327  0.19838572  1
  O  O545  1  0.67592000  0.35275487  0.45026019  1
  O  O546  1  0.67640367  0.35372828  0.69980885  1
  O  O547  1  0.67752171  0.35227678  0.94770735  1
  O  O548  1  0.67819728  0.68558056  0.19870249  1
  O  O549  1  0.67717208  0.68709841  0.44945383  1
  O  O550  1  0.67591464  0.68612268  0.69998765  1
  O  O551  1  0.67550493  0.68691560  0.95133710  1
  O  O552  1  0.32326114  0.31403604  0.05067907  1
  O  O553  1  0.32344227  0.31503006  0.30035408  1
  O  O554  1  0.32310345  0.31610976  0.55053010  1
  O  O555  1  0.32416816  0.31425466  0.80026006  1
  O  O556  1  0.32340676  0.64852534  0.05105154  1
  O  O557  1  0.32292812  0.64734772  0.30195929  1
  O  O558  1  0.32338701  0.64703236  0.54901356  1
  O  O559  1  0.32169308  0.64699190  0.80167961  1
  O  O560  1  0.32304773  0.98150117  0.05168483  1
  O  O561  1  0.32363437  0.97948566  0.29983006  1
  O  O562  1  0.32425467  0.97979330  0.54860214  1
  O  O563  1  0.32447361  0.98041365  0.80028359  1
  O  O564  1  0.82199903  0.31362504  0.05084972  1
  O  O565  1  0.82316982  0.31092125  0.29939260  1
  O  O566  1  0.82387932  0.31286283  0.54984464  1
  O  O567  1  0.82076232  0.31369400  0.80222764  1
  O  O568  1  0.82240650  0.64712699  0.05066692  1
  O  O569  1  0.82421502  0.64594636  0.29962911  1
  O  O570  1  0.82325115  0.64560367  0.55086766  1
  O  O571  1  0.82207939  0.64498917  0.79993911  1
  O  O572  1  0.82183071  0.98059097  0.05267441  1
  O  O573  1  0.82283660  0.97804700  0.29930488  1
  O  O574  1  0.82272802  0.98176433  0.55050202  1
  O  O575  1  0.82451537  0.98010565  0.80065568  1
  O  O576  1  0.42730611  0.14809115  0.17568515  1
  O  O577  1  0.42682726  0.14834384  0.42549514  1
  O  O578  1  0.42700541  0.14913520  0.67572290  1
  O  O579  1  0.42733637  0.14752692  0.92698247  1
  O  O580  1  0.42742232  0.48043684  0.17718539  1
  O  O581  1  0.42793463  0.48017910  0.42576512  1
  O  O582  1  0.42692543  0.48191581  0.67499428  1
  O  O583  1  0.42618708  0.48044193  0.92482976  1
  O  O584  1  0.42749802  0.81528163  0.17640420  1
  O  O585  1  0.42768022  0.81208579  0.42537549  1
  O  O586  1  0.42724984  0.81253879  0.67461831  1
  O  O587  1  0.42653274  0.81465364  0.92564292  1
  O  O588  1  0.92729524  0.14546805  0.17610083  1
  O  O589  1  0.92693691  0.14485847  0.42455409  1
  O  O590  1  0.92654820  0.14812753  0.67547389  1
  O  O591  1  0.92563403  0.14625039  0.92548459  1
  O  O592  1  0.92662622  0.48160382  0.17604943  1
  O  O593  1  0.92672764  0.47904240  0.42593836  1
  O  O594  1  0.92836701  0.48050301  0.67668552  1
  O  O595  1  0.92603670  0.47980585  0.92391671  1
  O  O596  1  0.92873272  0.81337792  0.17705937  1
  O  O597  1  0.92632207  0.81277353  0.42413816  1
  O  O598  1  0.92760603  0.81408453  0.67653916  1
  O  O599  1  0.92652307  0.81125118  0.92559250  1
  O  O600  1  0.07370873  0.18648315  0.07510776  1
  O  O601  1  0.07416770  0.18628930  0.32642406  1
  O  O602  1  0.07320235  0.18820178  0.57558678  1
  O  O603  1  0.07171778  0.18586322  0.82338253  1
  O  O604  1  0.07290010  0.52138400  0.07488691  1
  O  O605  1  0.07163404  0.51867431  0.32349754  1
  O  O606  1  0.07400964  0.52012184  0.57568437  1
  O  O607  1  0.07095715  0.51922476  0.82332524  1
  O  O608  1  0.07393855  0.85237699  0.07616625  1
  O  O609  1  0.07173548  0.85244015  0.32349852  1
  O  O610  1  0.07345623  0.85418718  0.57424149  1
  O  O611  1  0.07302243  0.85093184  0.82396823  1
  O  O612  1  0.57303717  0.18606670  0.07417786  1
  O  O613  1  0.57267220  0.18659811  0.32334010  1
  O  O614  1  0.57280747  0.18727167  0.57283096  1
  O  O615  1  0.57266631  0.18544265  0.82352003  1
  O  O616  1  0.57387875  0.51975973  0.07477208  1
  O  O617  1  0.57342607  0.51814538  0.32453988  1
  O  O618  1  0.57215786  0.51971609  0.57366949  1
  O  O619  1  0.57116481  0.51987764  0.82270629  1
  O  O620  1  0.57249410  0.85377735  0.07324273  1
  O  O621  1  0.57307053  0.85171811  0.32358389  1
  O  O622  1  0.57460424  0.85359188  0.57557437  1
  O  O623  1  0.57407431  0.85397170  0.82611978  1
  O  O624  1  0.32353841  0.18675366  0.05187469  1
  O  O625  1  0.32323802  0.18793721  0.30064007  1
  O  O626  1  0.32286788  0.18890069  0.54955652  1
  O  O627  1  0.32350071  0.18741505  0.79955892  1
  O  O628  1  0.32326067  0.52170997  0.05086147  1
  O  O629  1  0.32250728  0.52000600  0.30120468  1
  O  O630  1  0.32390450  0.52035759  0.54902311  1
  O  O631  1  0.32184120  0.51951397  0.80155254  1
  O  O632  1  0.32373244  0.85426458  0.05082942  1
  O  O633  1  0.32309387  0.85230732  0.29985924  1
  O  O634  1  0.32433077  0.85283318  0.54947533  1
  O  O635  1  0.32460431  0.85335502  0.80035908  1
  O  O636  1  0.82263929  0.18648765  0.05097541  1
  O  O637  1  0.82283011  0.18390914  0.30006643  1
  O  O638  1  0.82421809  0.18608611  0.55022569  1
  O  O639  1  0.82182057  0.18620647  0.80169687  1
  O  O640  1  0.82330089  0.51997228  0.04989389  1
  O  O641  1  0.82342062  0.51903253  0.29853686  1
  O  O642  1  0.82313144  0.51826959  0.55129782  1
  O  O643  1  0.82226568  0.51792579  0.80142356  1
  O  O644  1  0.82300959  0.85305064  0.05196497  1
  O  O645  1  0.82246840  0.85108417  0.30060249  1
  O  O646  1  0.82357763  0.85456429  0.55031822  1
  O  O647  1  0.82365352  0.85318506  0.79986361  1
  O  O648  1  0.17815820  0.14759524  0.19874952  1
  O  O649  1  0.17595869  0.14763496  0.45039595  1
  O  O650  1  0.17579825  0.14707550  0.69993500  1
  O  O651  1  0.17611362  0.14703460  0.95116383  1
  O  O652  1  0.17643740  0.48110428  0.20112819  1
  O  O653  1  0.17754560  0.48069763  0.44880720  1
  O  O654  1  0.17700558  0.47997962  0.69911055  1
  O  O655  1  0.17597072  0.48198278  0.94913762  1
  O  O656  1  0.17702373  0.81217233  0.20041285  1
  O  O657  1  0.17753494  0.81388264  0.44738390  1
  O  O658  1  0.17674439  0.81302721  0.70042026  1
  O  O659  1  0.17712713  0.81278131  0.95049269  1
  O  O660  1  0.67720796  0.14608908  0.19783804  1
  O  O661  1  0.67708041  0.14765670  0.44830323  1
  O  O662  1  0.67685974  0.14592500  0.69953142  1
  O  O663  1  0.67674551  0.14794684  0.94978922  1
  O  O664  1  0.67657636  0.47783466  0.19934304  1
  O  O665  1  0.67635555  0.47962454  0.44916145  1
  O  O666  1  0.67640817  0.48075595  0.69899883  1
  O  O667  1  0.67673637  0.47963192  0.94908234  1
  O  O668  1  0.67762528  0.81294966  0.19828748  1
  O  O669  1  0.67698224  0.81439332  0.44869080  1
  O  O670  1  0.67585786  0.81313926  0.70048092  1
  O  O671  1  0.67674023  0.81369877  0.95121470  1
