# generated using pymatgen
data_Na2MnFe(PO4)2
_symmetry_space_group_name_H-M   'P 1'
_cell_length_a   22.34370685
_cell_length_b   20.09295785
_cell_length_c   19.44980836
_cell_angle_alpha   90.06904100
_cell_angle_beta   89.98409981
_cell_angle_gamma   90.02783933
_symmetry_Int_Tables_number   1
_chemical_formula_structural   Na2MnFe(PO4)2
_chemical_formula_sum   'Na96 Mn48 Fe48 P96 O384'
_cell_volume   8732.00631458
_cell_formula_units_Z   48
loop_
 _symmetry_equiv_pos_site_id
 _symmetry_equiv_pos_as_xyz
  1  'x, y, z'
loop_
 _atom_site_type_symbol
 _atom_site_label
 _atom_site_symmetry_multiplicity
 _atom_site_fract_x
 _atom_site_fract_y
 _atom_site_fract_z
 _atom_site_occupancy
  Na  Na0  1  0.14029812  0.24951144  0.24434905  1
  Na  Na1  1  0.14073484  0.25050584  0.49429069  1
  Na  Na2  1  0.14064197  0.25016321  0.74422558  1
  Na  Na3  1  0.14085299  0.24932515  0.99333528  1
  Na  Na4  1  0.14081608  0.58230171  0.24323241  1
  Na  Na5  1  0.14045360  0.58426347  0.49420599  1
  Na  Na6  1  0.14059597  0.58284471  0.74289379  1
  Na  Na7  1  0.14077169  0.58358840  0.99344686  1
  Na  Na8  1  0.14069549  0.91569383  0.24508708  1
  Na  Na9  1  0.14078171  0.91751070  0.49443272  1
  Na  Na10  1  0.14059345  0.91672668  0.74444928  1
  Na  Na11  1  0.14104963  0.91653243  0.99381537  1
  Na  Na12  1  0.64009800  0.24842236  0.24305885  1
  Na  Na13  1  0.63962159  0.24873258  0.49368272  1
  Na  Na14  1  0.63937830  0.24925215  0.74355039  1
  Na  Na15  1  0.63991685  0.25064080  0.99342265  1
  Na  Na16  1  0.63997807  0.58266889  0.24324381  1
  Na  Na17  1  0.64021114  0.58471121  0.49366492  1
  Na  Na18  1  0.64015558  0.58486996  0.74366123  1
  Na  Na19  1  0.64002115  0.58222251  0.99343061  1
  Na  Na20  1  0.64008843  0.91530178  0.24422036  1
  Na  Na21  1  0.64024686  0.91599374  0.49351051  1
  Na  Na22  1  0.64061820  0.91637649  0.74201732  1
  Na  Na23  1  0.64017638  0.91688523  0.99334114  1
  Na  Na24  1  0.35946213  0.08328559  0.00581466  1
  Na  Na25  1  0.35968621  0.08338544  0.25644099  1
  Na  Na26  1  0.36005509  0.08460567  0.50671654  1
  Na  Na27  1  0.35908966  0.08352418  0.75708672  1
  Na  Na28  1  0.36040396  0.41668534  0.00729397  1
  Na  Na29  1  0.36008885  0.41655734  0.25577026  1
  Na  Na30  1  0.35962446  0.41715814  0.50591246  1
  Na  Na31  1  0.35968397  0.41541611  0.75699012  1
  Na  Na32  1  0.36012273  0.75095801  0.00700840  1
  Na  Na33  1  0.35983617  0.75023099  0.25701342  1
  Na  Na34  1  0.35994470  0.75148476  0.50671103  1
  Na  Na35  1  0.36045912  0.75087742  0.75726046  1
  Na  Na36  1  0.85903957  0.08477444  0.00597807  1
  Na  Na37  1  0.85919131  0.08184144  0.25643788  1
  Na  Na38  1  0.85924163  0.08259345  0.50734242  1
  Na  Na39  1  0.85926723  0.08437251  0.75536627  1
  Na  Na40  1  0.85976453  0.41682703  0.00563786  1
  Na  Na41  1  0.85953303  0.41598938  0.25608066  1
  Na  Na42  1  0.85884501  0.41689984  0.50613872  1
  Na  Na43  1  0.85923531  0.41712162  0.75673056  1
  Na  Na44  1  0.85947054  0.75007597  0.00450216  1
  Na  Na45  1  0.85947195  0.74950927  0.25636347  1
  Na  Na46  1  0.85933913  0.75013396  0.50654697  1
  Na  Na47  1  0.86003887  0.75068949  0.75549754  1
  Na  Na48  1  0.10974276  0.08331770  0.11921986  1
  Na  Na49  1  0.10990173  0.08261886  0.37061853  1
  Na  Na50  1  0.10986126  0.08309264  0.61915492  1
  Na  Na51  1  0.11000598  0.08345974  0.86867706  1
  Na  Na52  1  0.10966538  0.41571220  0.11844391  1
  Na  Na53  1  0.10991282  0.41693006  0.36926458  1
  Na  Na54  1  0.11025588  0.41781792  0.61845975  1
  Na  Na55  1  0.11017616  0.41739126  0.86829140  1
  Na  Na56  1  0.11056018  0.74918465  0.11838023  1
  Na  Na57  1  0.10981970  0.74902488  0.36864592  1
  Na  Na58  1  0.10975696  0.75125256  0.61945162  1
  Na  Na59  1  0.11000360  0.74975579  0.86852136  1
  Na  Na60  1  0.60943282  0.08335761  0.11820324  1
  Na  Na61  1  0.60947074  0.08375999  0.36856490  1
  Na  Na62  1  0.60957019  0.08295699  0.61787599  1
  Na  Na63  1  0.60937162  0.08398574  0.86738982  1
  Na  Na64  1  0.60959558  0.41607200  0.11872421  1
  Na  Na65  1  0.60907500  0.41635180  0.36737143  1
  Na  Na66  1  0.60915177  0.41521214  0.61964594  1
  Na  Na67  1  0.60925498  0.41608727  0.86899860  1
  Na  Na68  1  0.60949890  0.74900631  0.11956350  1
  Na  Na69  1  0.60960142  0.74976744  0.36837776  1
  Na  Na70  1  0.61008616  0.74999218  0.61821798  1
  Na  Na71  1  0.60965443  0.75022711  0.86769144  1
  Na  Na72  1  0.39040780  0.25159912  0.13105549  1
  Na  Na73  1  0.39069984  0.25072263  0.38019935  1
  Na  Na74  1  0.39021028  0.24975021  0.63236090  1
  Na  Na75  1  0.38965418  0.25123527  0.88217200  1
  Na  Na76  1  0.39103409  0.58313229  0.13246057  1
  Na  Na77  1  0.39030626  0.58336433  0.38072025  1
  Na  Na78  1  0.39046324  0.58314440  0.63188818  1
  Na  Na79  1  0.39117438  0.58421332  0.88160078  1
  Na  Na80  1  0.39045272  0.91553242  0.13203623  1
  Na  Na81  1  0.38986072  0.91716366  0.38213958  1
  Na  Na82  1  0.39047795  0.91694457  0.63219655  1
  Na  Na83  1  0.39026974  0.91611610  0.88159322  1
  Na  Na84  1  0.89004746  0.25038867  0.13072972  1
  Na  Na85  1  0.89015127  0.24865325  0.38179632  1
  Na  Na86  1  0.88993350  0.25008017  0.63139269  1
  Na  Na87  1  0.88953869  0.25110850  0.88176413  1
  Na  Na88  1  0.89034695  0.58255224  0.13006331  1
  Na  Na89  1  0.89008974  0.58295461  0.38076619  1
  Na  Na90  1  0.89040069  0.58523212  0.63133248  1
  Na  Na91  1  0.89046107  0.58408383  0.87934305  1
  Na  Na92  1  0.89006047  0.91684880  0.13074194  1
  Na  Na93  1  0.89003294  0.91581546  0.38256545  1
  Na  Na94  1  0.89004982  0.91644008  0.63133517  1
  Na  Na95  1  0.89025992  0.91696566  0.88023674  1
  Mn  Mn96  1  0.24984787  -0.00093308  0.12551404  1
  Mn  Mn97  1  0.00053206  0.33454802  0.75027543  1
  Mn  Mn98  1  0.50015105  0.49976886  0.75061186  1
  Mn  Mn99  1  0.50019081  0.49996837  0.50015378  1
  Mn  Mn100  1  0.74915758  0.33248211  0.62534748  1
  Mn  Mn101  1  0.00059385  0.33357021  0.25006008  1
  Mn  Mn102  1  -0.00017477  0.16717768  0.74993578  1
  Mn  Mn103  1  0.25012815  0.66673794  0.62514000  1
  Mn  Mn104  1  0.49987275  -0.00071367  -0.00051216  1
  Mn  Mn105  1  -0.00032701  0.50098864  0.49979779  1
  Mn  Mn106  1  0.74926323  0.50110392  0.62558899  1
  Mn  Mn107  1  0.25110807  0.49957329  0.87513040  1
  Mn  Mn108  1  0.74979056  0.16623083  0.12466938  1
  Mn  Mn109  1  -0.00049334  0.16629186  0.25088041  1
  Mn  Mn110  1  -0.00013647  0.66561387  -0.00122071  1
  Mn  Mn111  1  0.74895841  0.50020419  0.37538693  1
  Mn  Mn112  1  0.25032089  0.83471664  0.62569891  1
  Mn  Mn113  1  -0.00009416  0.66489518  0.24863403  1
  Mn  Mn114  1  0.25029694  0.33431258  0.37520603  1
  Mn  Mn115  1  0.49948429  0.16768530  -0.00044614  1
  Mn  Mn116  1  0.49994979  0.66739159  0.50045445  1
  Mn  Mn117  1  0.25008883  0.49947209  0.12422692  1
  Mn  Mn118  1  0.74926396  0.33169516  0.37600477  1
  Mn  Mn119  1  0.00008028  0.83275999  0.50031341  1
  Mn  Mn120  1  -0.00021555  0.33399062  -0.00000083  1
  Mn  Mn121  1  0.00001675  0.83237614  0.25059464  1
  Mn  Mn122  1  0.75036051  0.83345670  0.87394576  1
  Mn  Mn123  1  0.50028063  -0.00034907  0.74959743  1
  Mn  Mn124  1  0.50027451  0.66668343  0.00073261  1
  Mn  Mn125  1  0.74989200  0.00116689  0.87354140  1
  Mn  Mn126  1  0.25071066  0.16649791  0.37545874  1
  Mn  Mn127  1  0.24971091  0.16683207  0.12521619  1
  Mn  Mn128  1  0.25034766  0.66676152  0.37524785  1
  Mn  Mn129  1  0.74986585  0.66641914  0.12483271  1
  Mn  Mn130  1  0.24971310  0.16672668  0.62556730  1
  Mn  Mn131  1  -0.00083919  0.00001709  0.74999957  1
  Mn  Mn132  1  0.49996041  -0.00007047  0.24989210  1
  Mn  Mn133  1  0.49950873  0.00009067  0.49994732  1
  Mn  Mn134  1  0.75042702  0.49870459  0.12405414  1
  Mn  Mn135  1  -0.00008713  0.83305211  -0.00027951  1
  Mn  Mn136  1  0.74978132  0.50025259  0.87467190  1
  Mn  Mn137  1  -0.00034532  -0.00013871  0.25034818  1
  Mn  Mn138  1  0.25078708  0.66731445  0.87468236  1
  Mn  Mn139  1  0.49959923  0.33221175  0.49912507  1
  Mn  Mn140  1  0.74934792  0.83366461  0.12471812  1
  Mn  Mn141  1  -0.00076834  0.33329046  0.49988099  1
  Mn  Mn142  1  0.00037303  0.00057581  0.00016396  1
  Mn  Mn143  1  0.74977149  -0.00084221  0.37547970  1
  Fe  Fe144  1  0.25033728  0.33356766  0.62526383  1
  Fe  Fe145  1  0.74975942  0.66724345  0.87414556  1
  Fe  Fe146  1  0.00052146  0.66704469  0.75003809  1
  Fe  Fe147  1  0.49974828  0.83317087  0.50001733  1
  Fe  Fe148  1  0.75019014  0.66761424  0.62399198  1
  Fe  Fe149  1  0.50010691  0.66658170  0.25016036  1
  Fe  Fe150  1  0.50012621  0.33396167  0.00053896  1
  Fe  Fe151  1  0.25055568  0.00019832  0.62621368  1
  Fe  Fe152  1  0.25001835  0.83355847  0.87578714  1
  Fe  Fe153  1  0.24973702  0.50017152  0.37461839  1
  Fe  Fe154  1  0.74904955  0.16694842  0.87487333  1
  Fe  Fe155  1  0.74997425  0.83299620  0.62412408  1
  Fe  Fe156  1  0.74988235  0.16673358  0.62510239  1
  Fe  Fe157  1  0.25060291  0.66690502  0.12504488  1
  Fe  Fe158  1  0.75034775  0.83304922  0.37500236  1
  Fe  Fe159  1  0.75014236  0.66687200  0.37465150  1
  Fe  Fe160  1  0.74975842  -0.00029413  0.12491228  1
  Fe  Fe161  1  0.74951400  0.33309571  0.87488909  1
  Fe  Fe162  1  0.50026104  0.33375391  0.24960698  1
  Fe  Fe163  1  0.00036751  0.66684328  0.50042152  1
  Fe  Fe164  1  0.49921553  0.33306661  0.75015127  1
  Fe  Fe165  1  -0.00006304  0.49970190  0.24998477  1
  Fe  Fe166  1  0.50025458  0.66700412  0.75070059  1
  Fe  Fe167  1  0.74958896  0.00032894  0.62419497  1
  Fe  Fe168  1  0.49979255  0.16680216  0.49932754  1
  Fe  Fe169  1  0.25026029  -0.00034002  0.87561851  1
  Fe  Fe170  1  0.24979380  0.33341776  0.87485667  1
  Fe  Fe171  1  0.25046860  0.83316495  0.12534774  1
  Fe  Fe172  1  0.25002749  0.83328122  0.37504720  1
  Fe  Fe173  1  -0.00020748  0.16697614  0.00001394  1
  Fe  Fe174  1  0.25080060  0.49980483  0.62482155  1
  Fe  Fe175  1  0.74995054  0.16542506  0.37476530  1
  Fe  Fe176  1  -0.00002388  -0.00026679  0.50084740  1
  Fe  Fe177  1  0.00053618  0.83360312  0.74960209  1
  Fe  Fe178  1  0.24989515  0.16657329  0.87513373  1
  Fe  Fe179  1  0.49990734  0.83308678  0.25050448  1
  Fe  Fe180  1  0.50047579  0.83296814  0.00020193  1
  Fe  Fe181  1  0.00042639  0.50015892  -0.00101523  1
  Fe  Fe182  1  0.49927298  0.16676240  0.74975114  1
  Fe  Fe183  1  -0.00011220  0.50087843  0.74907000  1
  Fe  Fe184  1  0.25033926  -0.00006191  0.37567953  1
  Fe  Fe185  1  0.50053819  0.83311782  0.75019447  1
  Fe  Fe186  1  0.74996431  0.33234726  0.12514845  1
  Fe  Fe187  1  0.00057350  0.16652604  0.50064783  1
  Fe  Fe188  1  0.49970883  0.16710361  0.24918164  1
  Fe  Fe189  1  0.49998933  0.49998029  0.24979608  1
  Fe  Fe190  1  0.25008414  0.33311351  0.12497370  1
  Fe  Fe191  1  0.50030800  0.49977404  0.00079713  1
  P  P192  1  0.04237060  0.24904118  0.10236450  1
  P  P193  1  0.04282693  0.24958153  0.35406558  1
  P  P194  1  0.04237074  0.24972412  0.60258214  1
  P  P195  1  0.04251106  0.25040312  0.85382046  1
  P  P196  1  0.04264900  0.58128700  0.10192701  1
  P  P197  1  0.04278265  0.58205769  0.35234144  1
  P  P198  1  0.04226655  0.58532268  0.60328005  1
  P  P199  1  0.04210459  0.58303761  0.85110387  1
  P  P200  1  0.04314814  0.91639630  0.10328340  1
  P  P201  1  0.04235771  0.91658251  0.35421756  1
  P  P202  1  0.04214652  0.91737015  0.60308231  1
  P  P203  1  0.04227570  0.91584590  0.85231049  1
  P  P204  1  0.54185223  0.25160748  0.10292442  1
  P  P205  1  0.54149192  0.24987664  0.35093775  1
  P  P206  1  0.54148433  0.24811138  0.60281360  1
  P  P207  1  0.54046515  0.25037432  0.85167681  1
  P  P208  1  0.54213843  0.58179359  0.10354260  1
  P  P209  1  0.54123505  0.58330209  0.35151959  1
  P  P210  1  0.54264373  0.58365299  0.60390788  1
  P  P211  1  0.54239737  0.58446770  0.85310790  1
  P  P212  1  0.54199491  0.91501535  0.10287261  1
  P  P213  1  0.54166750  0.91544363  0.35295604  1
  P  P214  1  0.54193103  0.91509567  0.60243718  1
  P  P215  1  0.54272614  0.91529166  0.85240488  1
  P  P216  1  0.45761836  0.08446763  0.14729433  1
  P  P217  1  0.45768579  0.08495296  0.39678423  1
  P  P218  1  0.45760321  0.08425543  0.64730011  1
  P  P219  1  0.45750575  0.08360005  0.89621984  1
  P  P220  1  0.45888768  0.41691421  0.14776742  1
  P  P221  1  0.45765301  0.41689308  0.39588254  1
  P  P222  1  0.45762892  0.41523509  0.64798272  1
  P  P223  1  0.45867678  0.41696584  0.89869239  1
  P  P224  1  0.45882227  0.74987128  0.14867817  1
  P  P225  1  0.45791101  0.75126226  0.39707895  1
  P  P226  1  0.45875375  0.75027308  0.64865607  1
  P  P227  1  0.45830925  0.75115519  0.89744349  1
  P  P228  1  0.95686211  0.08370163  0.14664888  1
  P  P229  1  0.95839627  0.08290870  0.39945984  1
  P  P230  1  0.95737850  0.08352279  0.64592443  1
  P  P231  1  0.95741286  0.08476926  0.89760076  1
  P  P232  1  0.95786235  0.41801590  0.14708149  1
  P  P233  1  0.95662680  0.41706881  0.39648710  1
  P  P234  1  0.95735513  0.41839386  0.64748109  1
  P  P235  1  0.95790327  0.41872225  0.89658694  1
  P  P236  1  0.95700153  0.74930587  0.14645506  1
  P  P237  1  0.95774128  0.74785043  0.39774108  1
  P  P238  1  0.95900694  0.75010139  0.64825614  1
  P  P239  1  0.95761650  0.74971985  0.89523808  1
  P  P240  1  0.20746890  0.08261207  0.22894382  1
  P  P241  1  0.20861567  0.08224710  0.47850780  1
  P  P242  1  0.20784455  0.08214749  0.72887470  1
  P  P243  1  0.20873297  0.08295295  0.97675695  1
  P  P244  1  0.20770281  0.41565737  0.22736042  1
  P  P245  1  0.20797620  0.41880397  0.47826555  1
  P  P246  1  0.20898429  0.41636934  0.72683799  1
  P  P247  1  0.20831200  0.41529017  0.97754419  1
  P  P248  1  0.20904890  0.75013160  0.22711967  1
  P  P249  1  0.20797096  0.75162946  0.47766136  1
  P  P250  1  0.20779681  0.75082675  0.72879533  1
  P  P251  1  0.20837602  0.75106983  0.97832073  1
  P  P252  1  0.70737706  0.08134339  0.22742783  1
  P  P253  1  0.70778440  0.08405396  0.47803005  1
  P  P254  1  0.70812846  0.08389878  0.72623129  1
  P  P255  1  0.70704036  0.08458663  0.97711288  1
  P  P256  1  0.70774013  0.41461360  0.22734108  1
  P  P257  1  0.70601873  0.41649515  0.47846956  1
  P  P258  1  0.70703531  0.41639336  0.72880593  1
  P  P259  1  0.70782215  0.41503078  0.97747761  1
  P  P260  1  0.70742964  0.74986001  0.22888072  1
  P  P261  1  0.70867492  0.75014290  0.47677089  1
  P  P262  1  0.70879212  0.75017164  0.72606427  1
  P  P263  1  0.70732762  0.74918610  0.97667836  1
  P  P264  1  0.29196747  0.25111370  0.02173790  1
  P  P265  1  0.29270732  0.25050773  0.27164458  1
  P  P266  1  0.29251074  0.25151851  0.52309018  1
  P  P267  1  0.29111225  0.25010151  0.77347974  1
  P  P268  1  0.29295093  0.58476165  0.02281861  1
  P  P269  1  0.29215545  0.58236334  0.27200785  1
  P  P270  1  0.29250799  0.58229605  0.52226379  1
  P  P271  1  0.29334801  0.58282101  0.77148553  1
  P  P272  1  0.29244925  0.91538839  0.02230894  1
  P  P273  1  0.29166063  0.91624728  0.27368222  1
  P  P274  1  0.29263590  0.91891051  0.52257989  1
  P  P275  1  0.29166974  0.91700642  0.77395009  1
  P  P276  1  0.79175292  0.25123729  0.02167837  1
  P  P277  1  0.79198827  0.24793848  0.27258826  1
  P  P278  1  0.79198860  0.24809013  0.52239718  1
  P  P279  1  0.79090612  0.24944726  0.77317766  1
  P  P280  1  0.79250715  0.58339688  0.02084246  1
  P  P281  1  0.79197339  0.58374889  0.27251038  1
  P  P282  1  0.79186035  0.58501859  0.52198901  1
  P  P283  1  0.79171413  0.58537507  0.77163704  1
  P  P284  1  0.79200168  0.91821142  0.02202155  1
  P  P285  1  0.79234583  0.91536415  0.27249620  1
  P  P286  1  0.79111140  0.91610746  0.52303939  1
  P  P287  1  0.79248507  0.91716903  0.76994618  1
  O  O288  1  0.03737940  0.24933999  0.18237043  1
  O  O289  1  0.03758219  0.24921182  0.43403017  1
  O  O290  1  0.03744610  0.25022401  0.68260061  1
  O  O291  1  0.03720825  0.25000685  0.93376052  1
  O  O292  1  0.03748929  0.58104399  0.18186629  1
  O  O293  1  0.03787969  0.58312770  0.43229203  1
  O  O294  1  0.03682643  0.58519585  0.68315629  1
  O  O295  1  0.03702116  0.58248296  0.93108401  1
  O  O296  1  0.03804780  0.91632014  0.18329155  1
  O  O297  1  0.03701971  0.91701042  0.43419262  1
  O  O298  1  0.03690095  0.91662358  0.68301605  1
  O  O299  1  0.03727551  0.91631091  0.93226719  1
  O  O300  1  0.53656698  0.25134160  0.18277946  1
  O  O301  1  0.53644692  0.24936983  0.43092263  1
  O  O302  1  0.53599833  0.24817499  0.68264604  1
  O  O303  1  0.53597014  0.25116108  0.93163672  1
  O  O304  1  0.53667501  0.58183644  0.18341543  1
  O  O305  1  0.53658440  0.58383843  0.43154667  1
  O  O306  1  0.53747046  0.58423153  0.68384847  1
  O  O307  1  0.53731492  0.58417072  0.93305524  1
  O  O308  1  0.53646337  0.91523373  0.18282086  1
  O  O309  1  0.53622496  0.91560050  0.43287627  1
  O  O310  1  0.53686152  0.91510634  0.68239517  1
  O  O311  1  0.53765253  0.91530106  0.93237468  1
  O  O312  1  0.46275926  0.08394873  0.06733734  1
  O  O313  1  0.46307449  0.08488313  0.31684651  1
  O  O314  1  0.46261655  0.08409446  0.56728927  1
  O  O315  1  0.46295934  0.08382918  0.81628959  1
  O  O316  1  0.46417964  0.41681477  0.06785925  1
  O  O317  1  0.46326095  0.41694539  0.31600222  1
  O  O318  1  0.46245295  0.41512002  0.56804826  1
  O  O319  1  0.46347545  0.41646949  0.81873837  1
  O  O320  1  0.46365045  0.74974279  0.06872834  1
  O  O321  1  0.46321378  0.75108277  0.31722892  1
  O  O322  1  0.46334142  0.75039674  0.56862508  1
  O  O323  1  0.46367702  0.75083537  0.81756107  1
  O  O324  1  0.96215061  0.08433815  0.06669752  1
  O  O325  1  0.96299356  0.08282769  0.31940256  1
  O  O326  1  0.96299437  0.08337751  0.56605514  1
  O  O327  1  0.96230119  0.08426946  0.81759249  1
  O  O328  1  0.96320961  0.41807244  0.06709391  1
  O  O329  1  0.96189641  0.41711580  0.31652523  1
  O  O330  1  0.96209404  0.41785025  0.56750024  1
  O  O331  1  0.96315462  0.41876013  0.81664159  1
  O  O332  1  0.96196332  0.74929503  0.06646198  1
  O  O333  1  0.96265374  0.74798909  0.31778046  1
  O  O334  1  0.96408868  0.74957800  0.56827997  1
  O  O335  1  0.96338710  0.74993641  0.81535425  1
  O  O336  1  0.21327525  0.08330024  0.05675554  1
  O  O337  1  0.21301632  0.08235032  0.30885850  1
  O  O338  1  0.21382320  0.08229855  0.55846946  1
  O  O339  1  0.21338595  0.08236404  0.80872900  1
  O  O340  1  0.21332147  0.41519163  0.05747191  1
  O  O341  1  0.21290918  0.41687622  0.30728413  1
  O  O342  1  0.21362331  0.41872833  0.55812215  1
  O  O343  1  0.21401227  0.41598412  0.80680942  1
  O  O344  1  0.21388733  0.75054785  0.05822458  1
  O  O345  1  0.21419942  0.75029832  0.30711809  1
  O  O346  1  0.21313299  0.75146316  0.55759994  1
  O  O347  1  0.21292755  0.75130766  0.80873160  1
  O  O348  1  0.71223394  0.08377322  0.05700050  1
  O  O349  1  0.71241353  0.08175536  0.30736765  1
  O  O350  1  0.71314877  0.08422540  0.55788332  1
  O  O351  1  0.71277424  0.08431222  0.80621884  1
  O  O352  1  0.71315641  0.41468632  0.05742345  1
  O  O353  1  0.71244978  0.41505007  0.30732493  1
  O  O354  1  0.71114789  0.41667029  0.55844497  1
  O  O355  1  0.71256740  0.41598739  0.80873399  1
  O  O356  1  0.71233114  0.74961220  0.05663978  1
  O  O357  1  0.71289693  0.74999359  0.30877658  1
  O  O358  1  0.71400042  0.75003677  0.55670236  1
  O  O359  1  0.71373132  0.75001594  0.80601217  1
  O  O360  1  0.28723804  0.25065120  0.19172807  1
  O  O361  1  0.28769797  0.25120313  0.44313573  1
  O  O362  1  0.28644241  0.25014661  0.69350106  1
  O  O363  1  0.28632289  0.25096792  0.94186243  1
  O  O364  1  0.28671810  0.58314531  0.19209602  1
  O  O365  1  0.28708769  0.58222738  0.44229064  1
  O  O366  1  0.28817621  0.58227100  0.69153496  1
  O  O367  1  0.28814068  0.58461031  0.94282932  1
  O  O368  1  0.28667885  0.91545600  0.19370228  1
  O  O369  1  0.28724625  0.91859904  0.44274747  1
  O  O370  1  0.28676931  0.91770757  0.69398040  1
  O  O371  1  0.28701064  0.91544563  0.94243751  1
  O  O372  1  0.78679767  0.24850624  0.19263550  1
  O  O373  1  0.78699886  0.24785376  0.44245716  1
  O  O374  1  0.78586843  0.24896048  0.69321091  1
  O  O375  1  0.78626905  0.25117638  0.94181800  1
  O  O376  1  0.78708058  0.58316039  0.19252434  1
  O  O377  1  0.78639688  0.58493547  0.44205604  1
  O  O378  1  0.78632013  0.58553858  0.69170518  1
  O  O379  1  0.78707326  0.58392429  0.94092719  1
  O  O380  1  0.78706294  0.91625124  0.19258780  1
  O  O381  1  0.78643919  0.91587135  0.44305257  1
  O  O382  1  0.78706064  0.91690426  0.69007670  1
  O  O383  1  0.78701033  0.91806332  0.94202896  1
  O  O384  1  0.22789349  0.25160566  0.05818844  1
  O  O385  1  0.22855808  0.25017137  0.30740743  1
  O  O386  1  0.22813609  0.25165333  0.55850272  1
  O  O387  1  0.22696538  0.25063524  0.80934632  1
  O  O388  1  0.22852965  0.58467218  0.05799619  1
  O  O389  1  0.22803700  0.58217318  0.30824102  1
  O  O390  1  0.22831607  0.58226577  0.55815446  1
  O  O391  1  0.22903461  0.58305241  0.80684295  1
  O  O392  1  0.22828607  0.91472586  0.05847039  1
  O  O393  1  0.22756810  0.91641532  0.30981877  1
  O  O394  1  0.22844015  0.91925657  0.55873415  1
  O  O395  1  0.22750230  0.91679758  0.80992479  1
  O  O396  1  0.72765151  0.25123881  0.05797005  1
  O  O397  1  0.72765529  0.24729101  0.30826306  1
  O  O398  1  0.72757715  0.24802706  0.55780448  1
  O  O399  1  0.72670666  0.24923404  0.80918611  1
  O  O400  1  0.72826145  0.58273288  0.05640637  1
  O  O401  1  0.72758004  0.58447502  0.30788574  1
  O  O402  1  0.72762462  0.58531966  0.55781492  1
  O  O403  1  0.72759157  0.58523854  0.80769847  1
  O  O404  1  0.72761657  0.91826463  0.05747939  1
  O  O405  1  0.72809126  0.91469354  0.30835243  1
  O  O406  1  0.72697845  0.91566465  0.55890805  1
  O  O407  1  0.72831066  0.91698324  0.80583496  1
  O  O408  1  0.27166663  0.08302485  0.19323998  1
  O  O409  1  0.27279823  0.08221013  0.44257544  1
  O  O410  1  0.27196697  0.08220972  0.69257032  1
  O  O411  1  0.27291768  0.08255517  0.94105845  1
  O  O412  1  0.27198257  0.41497600  0.19151551  1
  O  O413  1  0.27206771  0.41928616  0.44186525  1
  O  O414  1  0.27315962  0.41604384  0.69083330  1
  O  O415  1  0.27269483  0.41491023  0.94209123  1
  O  O416  1  0.27318893  0.75033282  0.19103442  1
  O  O417  1  0.27227484  0.75158888  0.44211774  1
  O  O418  1  0.27210202  0.75058287  0.69342098  1
  O  O419  1  0.27253411  0.75163132  0.94217424  1
  O  O420  1  0.77168826  0.08142257  0.19175222  1
  O  O421  1  0.77194502  0.08396534  0.44190548  1
  O  O422  1  0.77233599  0.08393379  0.69047307  1
  O  O423  1  0.77134818  0.08549024  0.94137532  1
  O  O424  1  0.77211060  0.41438582  0.19187812  1
  O  O425  1  0.77046692  0.41640168  0.44349986  1
  O  O426  1  0.77120540  0.41662330  0.69308414  1
  O  O427  1  0.77195405  0.41532964  0.94149795  1
  O  O428  1  0.77157462  0.75023189  0.19298966  1
  O  O429  1  0.77273499  0.75009696  0.44035020  1
  O  O430  1  0.77297606  0.75049331  0.69005219  1
  O  O431  1  0.77175377  0.74880372  0.94128013  1
  O  O432  1  0.02125211  0.08337505  0.18185037  1
  O  O433  1  0.02272235  0.08269030  0.43489324  1
  O  O434  1  0.02152074  0.08336741  0.68178320  1
  O  O435  1  0.02185567  0.08522209  0.93285224  1
  O  O436  1  0.02212335  0.41833640  0.18293739  1
  O  O437  1  0.02098579  0.41699114  0.43175189  1
  O  O438  1  0.02190555  0.41873184  0.68244585  1
  O  O439  1  0.02214238  0.41835837  0.93238063  1
  O  O440  1  0.02151712  0.74917752  0.18131858  1
  O  O441  1  0.02216582  0.74823128  0.43302190  1
  O  O442  1  0.02310099  0.75039448  0.68436083  1
  O  O443  1  0.02174827  0.74959655  0.93120470  1
  O  O444  1  0.52191487  0.08444164  0.18279714  1
  O  O445  1  0.52183342  0.08474544  0.43285120  1
  O  O446  1  0.52190913  0.08450941  0.68283312  1
  O  O447  1  0.52169739  0.08363598  0.93183238  1
  O  O448  1  0.52284666  0.41712082  0.18430556  1
  O  O449  1  0.52177445  0.41629515  0.43186291  1
  O  O450  1  0.52197401  0.41534712  0.68329122  1
  O  O451  1  0.52285637  0.41731855  0.93467126  1
  O  O452  1  0.52292858  0.75027620  0.18460939  1
  O  O453  1  0.52211774  0.75151739  0.43310138  1
  O  O454  1  0.52302289  0.75051732  0.68431083  1
  O  O455  1  0.52244797  0.75113992  0.93357143  1
  O  O456  1  0.47768516  0.25198928  0.06690487  1
  O  O457  1  0.47736867  0.25041644  0.31494016  1
  O  O458  1  0.47736287  0.24801208  0.56654731  1
  O  O459  1  0.47621080  0.24978886  0.81606697  1
  O  O460  1  0.47806833  0.58168882  0.06728996  1
  O  O461  1  0.47707974  0.58270886  0.31579779  1
  O  O462  1  0.47831848  0.58358501  0.56856375  1
  O  O463  1  0.47818147  0.58448181  0.81736798  1
  O  O464  1  0.47782682  0.91475773  0.06686489  1
  O  O465  1  0.47753208  0.91564778  0.31697151  1
  O  O466  1  0.47765115  0.91529274  0.56679093  1
  O  O467  1  0.47839930  0.91525570  0.81685872  1
  O  O468  1  0.97801532  0.24886463  0.06690446  1
  O  O469  1  0.97846523  0.25029582  0.31883025  1
  O  O470  1  0.97796671  0.24899153  0.56744086  1
  O  O471  1  0.97819759  0.25094766  0.81846742  1
  O  O472  1  0.97829522  0.58122830  0.06636839  1
  O  O473  1  0.97833539  0.58128342  0.31694114  1
  O  O474  1  0.97810092  0.58557799  0.56714302  1
  O  O475  1  0.97794870  0.58340848  0.81508211  1
  O  O476  1  0.97866981  0.91682555  0.06835848  1
  O  O477  1  0.97802415  0.91619899  0.31883344  1
  O  O478  1  0.97792865  0.91740309  0.56731454  1
  O  O479  1  0.97792404  0.91504844  0.81689182  1
  O  O480  1  0.07328758  0.31277640  0.07462734  1
  O  O481  1  0.07419418  0.31295427  0.32591206  1
  O  O482  1  0.07308633  0.31349014  0.57467320  1
  O  O483  1  0.07376946  0.31392498  0.82588578  1
  O  O484  1  0.07339618  0.64525338  0.07421668  1
  O  O485  1  0.07370630  0.64547707  0.32362605  1
  O  O486  1  0.07328155  0.64869936  0.57456414  1
  O  O487  1  0.07307632  0.64690417  0.82357208  1
  O  O488  1  0.07437540  0.97981935  0.07519615  1
  O  O489  1  0.07352745  0.97981585  0.32576647  1
  O  O490  1  0.07267110  0.98119466  0.57496656  1
  O  O491  1  0.07277467  0.97979735  0.82447928  1
  O  O492  1  0.57289792  0.31489835  0.07408087  1
  O  O493  1  0.57261135  0.31359142  0.32326856  1
  O  O494  1  0.57268659  0.31173613  0.57487209  1
  O  O495  1  0.57083272  0.31409200  0.82270199  1
  O  O496  1  0.57334140  0.64542253  0.07568457  1
  O  O497  1  0.57139022  0.64733141  0.32307727  1
  O  O498  1  0.57390355  0.64675219  0.57507143  1
  O  O499  1  0.57283317  0.64817574  0.82443262  1
  O  O500  1  0.57280138  0.97888311  0.07501739  1
  O  O501  1  0.57292768  0.97914864  0.32537202  1
  O  O502  1  0.57298774  0.97885958  0.57477547  1
  O  O503  1  0.57367310  0.97908175  0.82456160  1
  O  O504  1  0.42634730  0.02097099  0.17520383  1
  O  O505  1  0.42656081  0.02126277  0.42448008  1
  O  O506  1  0.42681511  0.02040562  0.67517767  1
  O  O507  1  0.42664347  0.01985019  0.92411905  1
  O  O508  1  0.42805464  0.35325408  0.17614718  1
  O  O509  1  0.42598112  0.35368547  0.42401628  1
  O  O510  1  0.42718565  0.35159393  0.67681782  1
  O  O511  1  0.42802033  0.35337943  0.92739617  1
  O  O512  1  0.42867783  0.68572690  0.17705543  1
  O  O513  1  0.42683744  0.68762241  0.42519139  1
  O  O514  1  0.42855828  0.68621597  0.67708456  1
  O  O515  1  0.42693042  0.68775970  0.92565137  1
  O  O516  1  0.92589203  0.02001500  0.17461523  1
  O  O517  1  0.92738747  0.01926742  0.42748485  1
  O  O518  1  0.92595845  0.02026500  0.67429378  1
  O  O519  1  0.92660394  0.02095569  0.92534127  1
  O  O520  1  0.92719261  0.35395299  0.17460991  1
  O  O521  1  0.92550071  0.35357286  0.42468939  1
  O  O522  1  0.92642813  0.35482885  0.67571303  1
  O  O523  1  0.92661005  0.35515116  0.92440667  1
  O  O524  1  0.92598640  0.68570698  0.17435122  1
  O  O525  1  0.92743665  0.68420537  0.42638522  1
  O  O526  1  0.92800114  0.68672588  0.67677739  1
  O  O527  1  0.92641690  0.68622930  0.92335812  1
  O  O528  1  0.17638457  0.01918361  0.20057241  1
  O  O529  1  0.17758596  0.01898435  0.44975238  1
  O  O530  1  0.17700206  0.01868714  0.70013840  1
  O  O531  1  0.17752366  0.01934459  0.94899885  1
  O  O532  1  0.17684479  0.35186882  0.19954301  1
  O  O533  1  0.17710621  0.35483175  0.45052327  1
  O  O534  1  0.17768559  0.35299448  0.69839921  1
  O  O535  1  0.17692389  0.35235132  0.94856108  1
  O  O536  1  0.17858504  0.68605834  0.19900670  1
  O  O537  1  0.17686749  0.68795471  0.44985502  1
  O  O538  1  0.17679494  0.68714287  0.70083979  1
  O  O539  1  0.17736969  0.68738853  0.95004894  1
  O  O540  1  0.67701889  0.01747199  0.19890763  1
  O  O541  1  0.67647621  0.02033794  0.45033119  1
  O  O542  1  0.67785340  0.01976382  0.69788962  1
  O  O543  1  0.67621879  0.02107490  0.94846991  1
  O  O544  1  0.67717920  0.35086701  0.19904721  1
  O  O545  1  0.67505588  0.35286143  0.45047614  1
  O  O546  1  0.67575567  0.35305108  0.70047757  1
  O  O547  1  0.67685641  0.35175857  0.94849078  1
  O  O548  1  0.67643115  0.68624620  0.20060266  1
  O  O549  1  0.67760420  0.68660399  0.44821903  1
  O  O550  1  0.67785441  0.68663057  0.69767828  1
  O  O551  1  0.67649023  0.68562016  0.94835349  1
  O  O552  1  0.32321427  0.31433870  0.05056005  1
  O  O553  1  0.32388983  0.31389888  0.29987335  1
  O  O554  1  0.32316373  0.31518244  0.55143548  1
  O  O555  1  0.32263876  0.31332182  0.80183544  1
  O  O556  1  0.32359928  0.64827081  0.05159885  1
  O  O557  1  0.32352369  0.64570954  0.30029836  1
  O  O558  1  0.32347796  0.64627702  0.54983383  1
  O  O559  1  0.32439916  0.64650165  0.79936719  1
  O  O560  1  0.32318375  0.97935777  0.05024277  1
  O  O561  1  0.32243039  0.98028245  0.30125163  1
  O  O562  1  0.32380573  0.98206403  0.55163598  1
  O  O563  1  0.32273873  0.98045002  0.80249346  1
  O  O564  1  0.82273960  0.31459717  0.05063489  1
  O  O565  1  0.82299309  0.31146180  0.30087676  1
  O  O566  1  0.82271651  0.31211788  0.55019257  1
  O  O567  1  0.82133305  0.31364584  0.80096676  1
  O  O568  1  0.82361574  0.64668883  0.04943503  1
  O  O569  1  0.82301694  0.64728087  0.30068874  1
  O  O570  1  0.82308822  0.64830670  0.55052177  1
  O  O571  1  0.82262021  0.64876160  0.80027108  1
  O  O572  1  0.82250703  0.98188893  0.05059759  1
  O  O573  1  0.82336885  0.97881168  0.30110704  1
  O  O574  1  0.82110702  0.98039619  0.55123894  1
  O  O575  1  0.82349835  0.98074420  0.79833338  1
  O  O576  1  0.42704251  0.14829668  0.17529124  1
  O  O577  1  0.42688607  0.14839014  0.42548254  1
  O  O578  1  0.42646960  0.14743459  0.67613008  1
  O  O579  1  0.42603951  0.14676033  0.92452746  1
  O  O580  1  0.42761284  0.48039650  0.17598182  1
  O  O581  1  0.42686637  0.48045360  0.42452231  1
  O  O582  1  0.42653732  0.47878587  0.67589584  1
  O  O583  1  0.42787068  0.48079623  0.92667198  1
  O  O584  1  0.42742042  0.81315009  0.17693054  1
  O  O585  1  0.42697032  0.81457246  0.42612686  1
  O  O586  1  0.42744039  0.81363094  0.67697746  1
  O  O587  1  0.42762465  0.81468912  0.92628209  1
  O  O588  1  0.92565941  0.14684938  0.17552820  1
  O  O589  1  0.92806150  0.14690222  0.42758237  1
  O  O590  1  0.92627447  0.14700392  0.67429357  1
  O  O591  1  0.92667308  0.14836546  0.92585424  1
  O  O592  1  0.92666740  0.48112849  0.17589693  1
  O  O593  1  0.92544060  0.48035164  0.42498738  1
  O  O594  1  0.92672381  0.48214272  0.67561228  1
  O  O595  1  0.92719632  0.48219964  0.92520737  1
  O  O596  1  0.92610403  0.81275229  0.17491102  1
  O  O597  1  0.92650977  0.81138357  0.42568912  1
  O  O598  1  0.92830063  0.81415367  0.67582573  1
  O  O599  1  0.92619294  0.81297809  0.92364851  1
  O  O600  1  0.07312114  0.18546691  0.07397708  1
  O  O601  1  0.07371532  0.18606634  0.32570681  1
  O  O602  1  0.07335720  0.18613399  0.57446111  1
  O  O603  1  0.07355206  0.18707335  0.82527210  1
  O  O604  1  0.07373894  0.51819303  0.07287496  1
  O  O605  1  0.07348713  0.51840026  0.32403551  1
  O  O606  1  0.07326185  0.52166413  0.57516558  1
  O  O607  1  0.07291888  0.51953839  0.82236715  1
  O  O608  1  0.07385999  0.85280295  0.07500313  1
  O  O609  1  0.07336255  0.85283240  0.32635991  1
  O  O610  1  0.07362916  0.85411042  0.57484228  1
  O  O611  1  0.07341501  0.85249032  0.82403011  1
  O  O612  1  0.57282715  0.18796294  0.07463517  1
  O  O613  1  0.57209267  0.18616470  0.32235513  1
  O  O614  1  0.57236912  0.18480203  0.57365030  1
  O  O615  1  0.57152083  0.18669747  0.82371585  1
  O  O616  1  0.57316101  0.51850732  0.07458646  1
  O  O617  1  0.57256444  0.51984789  0.32370249  1
  O  O618  1  0.57345300  0.51984604  0.57600441  1
  O  O619  1  0.57374659  0.52102147  0.82518585  1
  O  O620  1  0.57312182  0.85168167  0.07445909  1
  O  O621  1  0.57258747  0.85207565  0.32435321  1
  O  O622  1  0.57267033  0.85170909  0.57359650  1
  O  O623  1  0.57369678  0.85208789  0.82343489  1
  O  O624  1  0.32287312  0.18729534  0.04952762  1
  O  O625  1  0.32395988  0.18702797  0.29951627  1
  O  O626  1  0.32334950  0.18792257  0.55114155  1
  O  O627  1  0.32109909  0.18592428  0.80181622  1
  O  O628  1  0.32396426  0.52102658  0.05031839  1
  O  O629  1  0.32274610  0.51855618  0.29986464  1
  O  O630  1  0.32361164  0.51914808  0.55100522  1
  O  O631  1  0.32450899  0.51964316  0.80019399  1
  O  O632  1  0.32377130  0.85244874  0.05138403  1
  O  O633  1  0.32254746  0.85283150  0.30243998  1
  O  O634  1  0.32348496  0.85512715  0.55069612  1
  O  O635  1  0.32231455  0.85305185  0.80161841  1
  O  O636  1  0.82295244  0.18772144  0.04969989  1
  O  O637  1  0.82271473  0.18424030  0.30077784  1
  O  O638  1  0.82302190  0.18506188  0.55141820  1
  O  O639  1  0.82216405  0.18624459  0.80166273  1
  O  O640  1  0.82370855  0.51979940  0.04860204  1
  O  O641  1  0.82256879  0.51998965  0.30056803  1
  O  O642  1  0.82265813  0.52120706  0.54983028  1
  O  O643  1  0.82274465  0.52153459  0.79899845  1
  O  O644  1  0.82301307  0.85452350  0.04967738  1
  O  O645  1  0.82331539  0.85185605  0.30065235  1
  O  O646  1  0.82272981  0.85297479  0.55120389  1
  O  O647  1  0.82386809  0.85403267  0.79857575  1
  O  O648  1  0.17619507  0.14603459  0.20089993  1
  O  O649  1  0.17771389  0.14614409  0.45102761  1
  O  O650  1  0.17658535  0.14568767  0.70085091  1
  O  O651  1  0.17851888  0.14688734  0.94827973  1
  O  O652  1  0.17678799  0.47901762  0.19872039  1
  O  O653  1  0.17667749  0.48183778  0.44936061  1
  O  O654  1  0.17867779  0.48040601  0.69881976  1
  O  O655  1  0.17794414  0.47944261  0.94979868  1
  O  O656  1  0.17780261  0.81347992  0.19897151  1
  O  O657  1  0.17731455  0.81514767  0.44926245  1
  O  O658  1  0.17662055  0.81404082  0.70031724  1
  O  O659  1  0.17721038  0.81438097  0.94985952  1
  O  O660  1  0.67602231  0.14460117  0.19922935  1
  O  O661  1  0.67700833  0.14726154  0.44874919  1
  O  O662  1  0.67688863  0.14715396  0.69788177  1
  O  O663  1  0.67603388  0.14815165  0.94899953  1
  O  O664  1  0.67690291  0.47826501  0.19933066  1
  O  O665  1  0.67503041  0.47991831  0.45021664  1
  O  O666  1  0.67588414  0.48002481  0.70124458  1
  O  O667  1  0.67662277  0.47879035  0.95018630  1
  O  O668  1  0.67593917  0.81296017  0.20032208  1
  O  O669  1  0.67787610  0.81389391  0.44873389  1
  O  O670  1  0.67797644  0.81385159  0.69782586  1
  O  O671  1  0.67669162  0.81294612  0.94864374  1
