# generated using pymatgen
data_Na2MnFe(PO4)2
_symmetry_space_group_name_H-M   'P 1'
_cell_length_a   22.33986336
_cell_length_b   20.08876831
_cell_length_c   19.45264218
_cell_angle_alpha   90.05941799
_cell_angle_beta   90.00192973
_cell_angle_gamma   90.03078102
_symmetry_Int_Tables_number   1
_chemical_formula_structural   Na2MnFe(PO4)2
_chemical_formula_sum   'Na96 Mn48 Fe48 P96 O384'
_cell_volume   8729.95739513
_cell_formula_units_Z   48
loop_
 _symmetry_equiv_pos_site_id
 _symmetry_equiv_pos_as_xyz
  1  'x, y, z'
loop_
 _atom_site_type_symbol
 _atom_site_label
 _atom_site_symmetry_multiplicity
 _atom_site_fract_x
 _atom_site_fract_y
 _atom_site_fract_z
 _atom_site_occupancy
  Na  Na0  1  0.14015366  0.25033494  0.24460510  1
  Na  Na1  1  0.14046597  0.25043201  0.49265368  1
  Na  Na2  1  0.14077304  0.25078369  0.74342772  1
  Na  Na3  1  0.14077185  0.24966855  0.99515886  1
  Na  Na4  1  0.14058676  0.58289316  0.24400202  1
  Na  Na5  1  0.14018101  0.58288544  0.49338796  1
  Na  Na6  1  0.14015705  0.58344842  0.74309191  1
  Na  Na7  1  0.14059561  0.58164361  0.99382780  1
  Na  Na8  1  0.14017620  0.91728785  0.24420551  1
  Na  Na9  1  0.14057500  0.91797604  0.49413108  1
  Na  Na10  1  0.14032233  0.91781891  0.74282379  1
  Na  Na11  1  0.14050423  0.91561670  0.99378366  1
  Na  Na12  1  0.64049058  0.25011213  0.24463614  1
  Na  Na13  1  0.64018049  0.24984166  0.49275713  1
  Na  Na14  1  0.64024436  0.25199955  0.74345814  1
  Na  Na15  1  0.64010544  0.24925404  0.99382955  1
  Na  Na16  1  0.64019194  0.58371564  0.24431777  1
  Na  Na17  1  0.63996417  0.58162798  0.49340700  1
  Na  Na18  1  0.64024079  0.58458618  0.74285358  1
  Na  Na19  1  0.64053107  0.58407491  0.99333742  1
  Na  Na20  1  0.64031498  0.91679639  0.24280446  1
  Na  Na21  1  0.64005604  0.91450750  0.49313179  1
  Na  Na22  1  0.64002665  0.91538433  0.74405286  1
  Na  Na23  1  0.64023934  0.91485294  0.99391697  1
  Na  Na24  1  0.35955919  0.08297745  0.00635989  1
  Na  Na25  1  0.35990376  0.08377324  0.25665350  1
  Na  Na26  1  0.35945035  0.08475279  0.50624142  1
  Na  Na27  1  0.35941180  0.08478727  0.75559374  1
  Na  Na28  1  0.36003525  0.41649958  0.00544130  1
  Na  Na29  1  0.35968299  0.41601093  0.25780027  1
  Na  Na30  1  0.36000921  0.41705826  0.50745852  1
  Na  Na31  1  0.36001757  0.41837277  0.75598332  1
  Na  Na32  1  0.35976347  0.74991249  0.00518134  1
  Na  Na33  1  0.35985262  0.75037715  0.25623649  1
  Na  Na34  1  0.35991392  0.75065013  0.50760856  1
  Na  Na35  1  0.35985668  0.75097492  0.75640162  1
  Na  Na36  1  0.85930965  0.08221715  0.00672606  1
  Na  Na37  1  0.85981009  0.08414201  0.25730940  1
  Na  Na38  1  0.85943828  0.08220634  0.50613873  1
  Na  Na39  1  0.85931465  0.08250894  0.75655662  1
  Na  Na40  1  0.85946971  0.41630654  0.00625717  1
  Na  Na41  1  0.85930963  0.41704192  0.25663575  1
  Na  Na42  1  0.85996116  0.41683975  0.50532837  1
  Na  Na43  1  0.85978278  0.41835080  0.75611100  1
  Na  Na44  1  0.85934965  0.74937326  0.00572753  1
  Na  Na45  1  0.85978466  0.74944747  0.25684153  1
  Na  Na46  1  0.85966255  0.74831599  0.50568690  1
  Na  Na47  1  0.85933109  0.74993826  0.75501022  1
  Na  Na48  1  0.10943081  0.08341004  0.12006104  1
  Na  Na49  1  0.10927652  0.08528053  0.36895438  1
  Na  Na50  1  0.10979565  0.08265978  0.61855660  1
  Na  Na51  1  0.10994601  0.08316619  0.86814083  1
  Na  Na52  1  0.11009736  0.41526374  0.12005988  1
  Na  Na53  1  0.11023076  0.41747320  0.36817820  1
  Na  Na54  1  0.10963372  0.41746592  0.61772065  1
  Na  Na55  1  0.10986915  0.41661768  0.86915437  1
  Na  Na56  1  0.10993313  0.74904452  0.11886780  1
  Na  Na57  1  0.10957072  0.75097089  0.36974894  1
  Na  Na58  1  0.10943033  0.74914315  0.61819709  1
  Na  Na59  1  0.10964784  0.74930041  0.86800592  1
  Na  Na60  1  0.60958279  0.08245801  0.11898314  1
  Na  Na61  1  0.60947336  0.08274967  0.36829566  1
  Na  Na62  1  0.60926900  0.08286663  0.61806132  1
  Na  Na63  1  0.60894190  0.08402497  0.86926727  1
  Na  Na64  1  0.60943824  0.41651299  0.11955897  1
  Na  Na65  1  0.60978204  0.41661387  0.36932116  1
  Na  Na66  1  0.60945661  0.41652108  0.61818549  1
  Na  Na67  1  0.60959345  0.41745064  0.86741205  1
  Na  Na68  1  0.61048096  0.75027888  0.11843341  1
  Na  Na69  1  0.60935259  0.74995624  0.36778752  1
  Na  Na70  1  0.60944949  0.74890197  0.61874825  1
  Na  Na71  1  0.60987999  0.74989575  0.86794599  1
  Na  Na72  1  0.39043271  0.24993457  0.13198993  1
  Na  Na73  1  0.39030728  0.25067938  0.38290780  1
  Na  Na74  1  0.39037527  0.25101697  0.63063537  1
  Na  Na75  1  0.39023635  0.25145909  0.88103329  1
  Na  Na76  1  0.39084095  0.58391641  0.13140814  1
  Na  Na77  1  0.39020295  0.58262787  0.38271140  1
  Na  Na78  1  0.39042076  0.58302491  0.63253903  1
  Na  Na79  1  0.39046301  0.58477335  0.87965688  1
  Na  Na80  1  0.39047336  0.91611234  0.13077796  1
  Na  Na81  1  0.39094173  0.91757659  0.38079118  1
  Na  Na82  1  0.39062304  0.91646887  0.63162318  1
  Na  Na83  1  0.38994480  0.91730793  0.88132143  1
  Na  Na84  1  0.89025723  0.24894110  0.13228055  1
  Na  Na85  1  0.89030735  0.25127169  0.38104525  1
  Na  Na86  1  0.89051319  0.24931863  0.63101161  1
  Na  Na87  1  0.89024640  0.25064208  0.88142584  1
  Na  Na88  1  0.89026175  0.58223567  0.13132401  1
  Na  Na89  1  0.89032216  0.58436221  0.38158861  1
  Na  Na90  1  0.89004801  0.58277265  0.62977835  1
  Na  Na91  1  0.89017212  0.58313900  0.88090681  1
  Na  Na92  1  0.89023994  0.91595291  0.13245503  1
  Na  Na93  1  0.89047654  0.91748382  0.38164326  1
  Na  Na94  1  0.89009101  0.91520692  0.63067389  1
  Na  Na95  1  0.89006475  0.91615693  0.88066866  1
  Mn  Mn96  1  0.74914322  0.50061927  0.12509159  1
  Mn  Mn97  1  0.25007811  0.50022548  0.87488485  1
  Mn  Mn98  1  0.50032284  0.33381040  0.25091817  1
  Mn  Mn99  1  0.74967239  0.16692296  0.87528191  1
  Mn  Mn100  1  -0.00016133  -0.00016042  0.00066771  1
  Mn  Mn101  1  0.00022098  0.50030671  0.25012943  1
  Mn  Mn102  1  0.00018680  0.83282636  0.00036425  1
  Mn  Mn103  1  0.74968716  0.16650941  0.62489692  1
  Mn  Mn104  1  0.50080832  0.66788705  0.00023133  1
  Mn  Mn105  1  0.75006885  0.83266399  0.37442199  1
  Mn  Mn106  1  0.25046150  0.83389400  0.37610177  1
  Mn  Mn107  1  0.24990489  0.83431847  0.62585600  1
  Mn  Mn108  1  0.49935381  -0.00040592  0.74952973  1
  Mn  Mn109  1  0.74905684  -0.00145341  0.87574079  1
  Mn  Mn110  1  0.00013219  0.16569644  0.75035009  1
  Mn  Mn111  1  -0.00030529  0.83329136  0.74921846  1
  Mn  Mn112  1  0.49978420  0.16781154  0.74916338  1
  Mn  Mn113  1  0.50035307  0.16611930  0.25050923  1
  Mn  Mn114  1  0.00051491  0.33376920  0.00027912  1
  Mn  Mn115  1  0.74984685  0.66616489  0.62442219  1
  Mn  Mn116  1  0.50015046  -0.00019058  -0.00051482  1
  Mn  Mn117  1  0.74965852  0.50061781  0.87547584  1
  Mn  Mn118  1  0.00019124  0.83294841  0.25049437  1
  Mn  Mn119  1  0.24962467  -0.00076045  0.12572526  1
  Mn  Mn120  1  0.25040717  0.00124968  0.37484450  1
  Mn  Mn121  1  0.00008951  0.33392952  0.75003181  1
  Mn  Mn122  1  0.49965838  0.66661002  0.50003387  1
  Mn  Mn123  1  0.74937491  0.33272280  0.12564362  1
  Mn  Mn124  1  0.25075399  0.66650119  0.12521778  1
  Mn  Mn125  1  0.49998554  0.66700914  0.25045152  1
  Mn  Mn126  1  -0.00025459  0.00036142  0.49988320  1
  Mn  Mn127  1  -0.00022172  0.16626103  0.00062102  1
  Mn  Mn128  1  -0.00054055  0.66534600  0.74907323  1
  Mn  Mn129  1  0.75006963  0.16622601  0.37542401  1
  Mn  Mn130  1  0.75025091  -0.00037000  0.12469183  1
  Mn  Mn131  1  0.00016233  0.66494536  -0.00089648  1
  Mn  Mn132  1  0.50010013  0.50078860  -0.00055554  1
  Mn  Mn133  1  0.25078860  0.49845113  0.12425590  1
  Mn  Mn134  1  0.24978392  0.66617987  0.37539731  1
  Mn  Mn135  1  0.25006278  0.16729944  0.12512475  1
  Mn  Mn136  1  0.24956496  0.83327117  0.87416177  1
  Mn  Mn137  1  0.49963491  0.33340842  -0.00013032  1
  Mn  Mn138  1  0.75056579  0.33444513  0.62423086  1
  Mn  Mn139  1  0.74940067  -0.00178123  0.62590798  1
  Mn  Mn140  1  0.50055152  -0.00073400  0.49958366  1
  Mn  Mn141  1  0.00024827  0.33374522  0.50013665  1
  Mn  Mn142  1  0.25032544  0.16719036  0.87522756  1
  Mn  Mn143  1  0.24991214  0.33433455  0.62451570  1
  Fe  Fe144  1  0.24997782  0.83274122  0.12449681  1
  Fe  Fe145  1  0.49998319  0.83357644  0.24959054  1
  Fe  Fe146  1  0.75026090  0.83233533  0.87499346  1
  Fe  Fe147  1  0.00033457  0.66663577  0.25059242  1
  Fe  Fe148  1  0.25006684  0.00156641  0.62460826  1
  Fe  Fe149  1  0.74959178  0.83237492  0.62438798  1
  Fe  Fe150  1  -0.00041053  -0.00064011  0.74942865  1
  Fe  Fe151  1  0.00002162  0.49940391  0.00063691  1
  Fe  Fe152  1  0.24970406  0.50060278  0.62513317  1
  Fe  Fe153  1  -0.00035065  0.16706256  0.49954593  1
  Fe  Fe154  1  0.25069892  0.33288411  0.12605822  1
  Fe  Fe155  1  0.25071728  0.49969288  0.37524295  1
  Fe  Fe156  1  0.50012462  0.83304433  0.75009273  1
  Fe  Fe157  1  -0.00006057  0.50054683  0.49894077  1
  Fe  Fe158  1  0.49988703  0.16686009  0.49988206  1
  Fe  Fe159  1  0.49973492  0.49994231  0.25088344  1
  Fe  Fe160  1  0.00018268  0.00023187  0.25120488  1
  Fe  Fe161  1  0.49962521  0.16680353  0.00008009  1
  Fe  Fe162  1  0.25011833  0.33375878  0.87435988  1
  Fe  Fe163  1  0.50039968  0.33365062  0.74961773  1
  Fe  Fe164  1  0.74974276  -0.00063949  0.37469795  1
  Fe  Fe165  1  0.75018837  0.83224993  0.12440594  1
  Fe  Fe166  1  0.74991004  0.16642272  0.12534552  1
  Fe  Fe167  1  0.74996098  0.33347948  0.87524987  1
  Fe  Fe168  1  0.75052487  0.66678178  0.12500516  1
  Fe  Fe169  1  0.00007550  0.49980888  0.74921360  1
  Fe  Fe170  1  0.50003978  0.49974860  0.50110848  1
  Fe  Fe171  1  0.24967577  0.16748622  0.37538555  1
  Fe  Fe172  1  0.75013701  0.50003127  0.37468358  1
  Fe  Fe173  1  0.24971319  0.66663700  0.87492150  1
  Fe  Fe174  1  0.50056394  0.50006324  0.74951230  1
  Fe  Fe175  1  0.24985792  0.00043875  0.87482807  1
  Fe  Fe176  1  -0.00015533  0.16710330  0.25037910  1
  Fe  Fe177  1  0.74979490  0.49995000  0.62444138  1
  Fe  Fe178  1  0.49998768  0.83310273  0.49973273  1
  Fe  Fe179  1  0.75038942  0.33347900  0.37475672  1
  Fe  Fe180  1  0.75013098  0.66693181  0.87440746  1
  Fe  Fe181  1  0.49974369  0.66703325  0.74976040  1
  Fe  Fe182  1  -0.00045912  0.33360849  0.25015884  1
  Fe  Fe183  1  0.50021943  0.33396132  0.50063167  1
  Fe  Fe184  1  0.49970113  -0.00027764  0.24972724  1
  Fe  Fe185  1  0.00004545  0.66678185  0.49988493  1
  Fe  Fe186  1  0.25001391  0.16778987  0.62499102  1
  Fe  Fe187  1  0.74933462  0.66620144  0.37471828  1
  Fe  Fe188  1  0.25019776  0.33340023  0.37565451  1
  Fe  Fe189  1  0.49990821  0.83349965  -0.00005677  1
  Fe  Fe190  1  0.00011258  0.83354054  0.49964774  1
  Fe  Fe191  1  0.24985256  0.66684912  0.62514461  1
  P  P192  1  0.04246837  0.25000524  0.10445828  1
  P  P193  1  0.04096382  0.25073242  0.35196288  1
  P  P194  1  0.04234284  0.24861139  0.60221978  1
  P  P195  1  0.04310232  0.25015465  0.85312959  1
  P  P196  1  0.04273572  0.58169606  0.10295378  1
  P  P197  1  0.04225304  0.58508703  0.35340172  1
  P  P198  1  0.04127359  0.58274656  0.60123649  1
  P  P199  1  0.04223211  0.58125106  0.85231085  1
  P  P200  1  0.04277130  0.91668227  0.10423954  1
  P  P201  1  0.04227780  0.91777629  0.35334974  1
  P  P202  1  0.04221501  0.91561136  0.60229049  1
  P  P203  1  0.04246009  0.91761789  0.85201171  1
  P  P204  1  0.54210423  0.24879309  0.10257789  1
  P  P205  1  0.54254687  0.25003488  0.35438947  1
  P  P206  1  0.54155565  0.25044662  0.60145894  1
  P  P207  1  0.54221354  0.25149920  0.85237539  1
  P  P208  1  0.54309777  0.58359422  0.10356082  1
  P  P209  1  0.54166625  0.58198829  0.35335864  1
  P  P210  1  0.54175478  0.58222333  0.60334768  1
  P  P211  1  0.54157434  0.58389186  0.85092682  1
  P  P212  1  0.54214905  0.91539108  0.10280714  1
  P  P213  1  0.54175784  0.91651937  0.35132493  1
  P  P214  1  0.54223360  0.91445409  0.60260207  1
  P  P215  1  0.54176162  0.91557488  0.85256902  1
  P  P216  1  0.45771770  0.08201049  0.14733311  1
  P  P217  1  0.45796447  0.08397987  0.39751206  1
  P  P218  1  0.45758102  0.08369457  0.64592372  1
  P  P219  1  0.45732315  0.08500299  0.89741343  1
  P  P220  1  0.45760032  0.41788053  0.14820779  1
  P  P221  1  0.45887206  0.41717045  0.39907338  1
  P  P222  1  0.45888374  0.41668150  0.64788263  1
  P  P223  1  0.45772148  0.41734230  0.89562218  1
  P  P224  1  0.45791634  0.75150617  0.14738010  1
  P  P225  1  0.45764042  0.75152538  0.39728329  1
  P  P226  1  0.45852148  0.75015242  0.64808876  1
  P  P227  1  0.45819830  0.75165205  0.89667092  1
  P  P228  1  0.95833690  0.08287415  0.14945577  1
  P  P229  1  0.95777154  0.08509074  0.39687055  1
  P  P230  1  0.95733983  0.08174665  0.64723817  1
  P  P231  1  0.95688551  0.08267390  0.89679616  1
  P  P232  1  0.95749600  0.41564976  0.14763909  1
  P  P233  1  0.95826361  0.41791285  0.39692385  1
  P  P234  1  0.95776855  0.41795843  0.64654541  1
  P  P235  1  0.95771621  0.41820441  0.89724155  1
  P  P236  1  0.95801537  0.74795892  0.14782301  1
  P  P237  1  0.95864253  0.75004026  0.39815075  1
  P  P238  1  0.95732553  0.74925088  0.64532754  1
  P  P239  1  0.95723188  0.74948986  0.89659180  1
  P  P240  1  0.20744055  0.08439266  0.22878093  1
  P  P241  1  0.20784347  0.08542740  0.47817154  1
  P  P242  1  0.20876635  0.08440645  0.72672153  1
  P  P243  1  0.20769684  0.08219883  0.97746675  1
  P  P244  1  0.20852711  0.41520411  0.22875601  1
  P  P245  1  0.20881673  0.41717514  0.47691567  1
  P  P246  1  0.20760926  0.41832142  0.72729269  1
  P  P247  1  0.20817069  0.41473888  0.97765183  1
  P  P248  1  0.20793974  0.75103968  0.22766636  1
  P  P249  1  0.20767930  0.74982130  0.47928520  1
  P  P250  1  0.20764400  0.74894513  0.72767299  1
  P  P251  1  0.20753335  0.74871722  0.97734840  1
  P  P252  1  0.70793224  0.08416886  0.22772976  1
  P  P253  1  0.70741548  0.08098707  0.47745317  1
  P  P254  1  0.70658254  0.08315032  0.72829234  1
  P  P255  1  0.70691092  0.08298429  0.97879298  1
  P  P256  1  0.70737081  0.41710318  0.22923856  1
  P  P257  1  0.70875871  0.41675724  0.47642942  1
  P  P258  1  0.70782248  0.41843633  0.72736871  1
  P  P259  1  0.70719709  0.41545942  0.97749213  1
  P  P260  1  0.70883196  0.74946286  0.22679534  1
  P  P261  1  0.70731346  0.74813736  0.47707647  1
  P  P262  1  0.70788277  0.75088823  0.72754670  1
  P  P263  1  0.70856811  0.74944940  0.97688172  1
  P  P264  1  0.29269902  0.25163346  0.02246677  1
  P  P265  1  0.29191328  0.25049392  0.27391663  1
  P  P266  1  0.29184241  0.24961745  0.52196195  1
  P  P267  1  0.29222490  0.25166560  0.77189961  1
  P  P268  1  0.29324294  0.58319947  0.02138171  1
  P  P269  1  0.29268694  0.58188068  0.27292125  1
  P  P270  1  0.29145499  0.58312809  0.52349227  1
  P  P271  1  0.29172399  0.58525591  0.77168385  1
  P  P272  1  0.29206834  0.91522109  0.02220166  1
  P  P273  1  0.29280254  0.91643738  0.27177080  1
  P  P274  1  0.29251045  0.91884525  0.52314922  1
  P  P275  1  0.29190199  0.91899663  0.77204313  1
  P  P276  1  0.79226976  0.24864814  0.02273402  1
  P  P277  1  0.79214389  0.25069379  0.27255975  1
  P  P278  1  0.79272868  0.25005503  0.52119760  1
  P  P279  1  0.79230417  0.25176970  0.77257061  1
  P  P280  1  0.79210727  0.58479050  0.02230086  1
  P  P281  1  0.79142360  0.58373979  0.27308719  1
  P  P282  1  0.79151719  0.58135449  0.52124147  1
  P  P283  1  0.79203607  0.58450883  0.77209378  1
  P  P284  1  0.79231473  0.91420790  0.02241945  1
  P  P285  1  0.79226518  0.91745913  0.27210610  1
  P  P286  1  0.79192616  0.91459404  0.52196452  1
  P  P287  1  0.79179098  0.91447653  0.77237109  1
  O  O288  1  0.03694652  0.25039092  0.18433948  1
  O  O289  1  0.03611311  0.25012325  0.43192501  1
  O  O290  1  0.03730527  0.24893805  0.68214093  1
  O  O291  1  0.03816039  0.25015703  0.93310454  1
  O  O292  1  0.03769349  0.58254219  0.18289030  1
  O  O293  1  0.03663356  0.58497426  0.43325717  1
  O  O294  1  0.03618434  0.58202046  0.68118401  1
  O  O295  1  0.03703723  0.58100151  0.93226746  1
  O  O296  1  0.03767794  0.91713569  0.18422246  1
  O  O297  1  0.03666995  0.91706121  0.43324089  1
  O  O298  1  0.03695152  0.91625993  0.68220746  1
  O  O299  1  0.03757455  0.91724397  0.93202493  1
  O  O300  1  0.53715423  0.24908150  0.18255031  1
  O  O301  1  0.53726612  0.24996274  0.43424547  1
  O  O302  1  0.53678743  0.25131838  0.68142602  1
  O  O303  1  0.53690350  0.25077505  0.93226943  1
  O  O304  1  0.53784602  0.58331125  0.18348605  1
  O  O305  1  0.53612346  0.58203097  0.43326939  1
  O  O306  1  0.53631465  0.58266347  0.68319356  1
  O  O307  1  0.53711530  0.58444023  0.93093407  1
  O  O308  1  0.53664050  0.91576982  0.18264807  1
  O  O309  1  0.53681959  0.91608721  0.43130009  1
  O  O310  1  0.53683330  0.91445340  0.68250233  1
  O  O311  1  0.53663350  0.91570243  0.93249880  1
  O  O312  1  0.46291703  0.08257380  0.06740935  1
  O  O313  1  0.46306030  0.08319955  0.31756771  1
  O  O314  1  0.46323238  0.08383834  0.56606703  1
  O  O315  1  0.46234779  0.08481605  0.81745594  1
  O  O316  1  0.46258313  0.41748521  0.06824806  1
  O  O317  1  0.46342898  0.41728742  0.31912148  1
  O  O318  1  0.46413946  0.41674922  0.56798533  1
  O  O319  1  0.46337846  0.41720823  0.81576282  1
  O  O320  1  0.46312300  0.75146538  0.06744409  1
  O  O321  1  0.46302689  0.75146794  0.31737062  1
  O  O322  1  0.46303935  0.74996072  0.56810139  1
  O  O323  1  0.46351709  0.75123205  0.81677871  1
  O  O324  1  0.96288349  0.08298433  0.06943984  1
  O  O325  1  0.96345330  0.08452921  0.31707322  1
  O  O326  1  0.96240480  0.08252056  0.56731640  1
  O  O327  1  0.96170309  0.08210696  0.81682316  1
  O  O328  1  0.96278906  0.41637985  0.06770850  1
  O  O329  1  0.96352002  0.41705045  0.31705154  1
  O  O330  1  0.96317408  0.41796354  0.56659577  1
  O  O331  1  0.96298047  0.41837342  0.81726352  1
  O  O332  1  0.96313730  0.74810986  0.06787803  1
  O  O333  1  0.96389050  0.74942708  0.31819168  1
  O  O334  1  0.96288587  0.74947682  0.56545281  1
  O  O335  1  0.96215979  0.74953177  0.81662113  1
  O  O336  1  0.21280208  0.08236324  0.05740557  1
  O  O337  1  0.21265463  0.08516927  0.30869749  1
  O  O338  1  0.21323937  0.08531916  0.55804765  1
  O  O339  1  0.21373218  0.08383950  0.80669799  1
  O  O340  1  0.21372752  0.41439616  0.05756530  1
  O  O341  1  0.21415740  0.41580632  0.30862465  1
  O  O342  1  0.21349733  0.41791770  0.55690028  1
  O  O343  1  0.21254979  0.41781421  0.80718694  1
  O  O344  1  0.21307878  0.74941341  0.05726391  1
  O  O345  1  0.21310000  0.75070817  0.30764631  1
  O  O346  1  0.21304643  0.74945181  0.55919833  1
  O  O347  1  0.21257821  0.74877360  0.80764267  1
  O  O348  1  0.71242673  0.08346838  0.05871822  1
  O  O349  1  0.71322547  0.08346116  0.30766100  1
  O  O350  1  0.71243335  0.08115610  0.55741999  1
  O  O351  1  0.71168983  0.08314450  0.80826022  1
  O  O352  1  0.71209378  0.41567339  0.05745999  1
  O  O353  1  0.71325259  0.41716006  0.30907477  1
  O  O354  1  0.71378066  0.41737287  0.55639909  1
  O  O355  1  0.71262990  0.41790426  0.80728996  1
  O  O356  1  0.71400537  0.74944037  0.05675961  1
  O  O357  1  0.71358398  0.74931340  0.30675678  1
  O  O358  1  0.71237166  0.74868106  0.55697551  1
  O  O359  1  0.71328646  0.75067914  0.80737650  1
  O  O360  1  0.28705921  0.25102832  0.19392367  1
  O  O361  1  0.28647362  0.24974364  0.44210126  1
  O  O362  1  0.28676175  0.25098605  0.69199873  1
  O  O363  1  0.28737108  0.25163140  0.94252445  1
  O  O364  1  0.28791504  0.58191711  0.19295438  1
  O  O365  1  0.28673276  0.58242835  0.44348043  1
  O  O366  1  0.28617244  0.58516692  0.69181789  1
  O  O367  1  0.28771703  0.58368862  0.94147970  1
  O  O368  1  0.28747571  0.91558242  0.19185970  1
  O  O369  1  0.28759952  0.91848312  0.44319638  1
  O  O370  1  0.28662376  0.91927897  0.69212905  1
  O  O371  1  0.28674122  0.91584674  0.94227753  1
  O  O372  1  0.78675402  0.24977626  0.19266782  1
  O  O373  1  0.78744551  0.25032828  0.44126916  1
  O  O374  1  0.78728906  0.25157415  0.69256096  1
  O  O375  1  0.78705602  0.24938779  0.94278983  1
  O  O376  1  0.78645184  0.58433729  0.19313957  1
  O  O377  1  0.78598733  0.58139333  0.44140784  1
  O  O378  1  0.78669067  0.58378771  0.69219679  1
  O  O379  1  0.78683225  0.58479346  0.94237697  1
  O  O380  1  0.78739980  0.91706047  0.19221718  1
  O  O381  1  0.78670220  0.91549949  0.44203273  1
  O  O382  1  0.78646939  0.91432221  0.69241901  1
  O  O383  1  0.78705767  0.91396681  0.94249102  1
  O  O384  1  0.22843798  0.25198599  0.05838016  1
  O  O385  1  0.22763678  0.25058732  0.30975789  1
  O  O386  1  0.22771217  0.24950328  0.55803659  1
  O  O387  1  0.22807455  0.25160620  0.80796234  1
  O  O388  1  0.22900535  0.58274995  0.05695912  1
  O  O389  1  0.22825426  0.58165384  0.30815198  1
  O  O390  1  0.22716158  0.58339497  0.55914494  1
  O  O391  1  0.22768459  0.58519955  0.80810546  1
  O  O392  1  0.22784915  0.91470998  0.05818323  1
  O  O393  1  0.22849947  0.91701015  0.30723391  1
  O  O394  1  0.22812087  0.91868664  0.55844027  1
  O  O395  1  0.22767067  0.91866246  0.80787892  1
  O  O396  1  0.72792613  0.24782865  0.05842079  1
  O  O397  1  0.72800281  0.25111645  0.30852770  1
  O  O398  1  0.72838434  0.25024696  0.55652913  1
  O  O399  1  0.72790901  0.25191824  0.80796758  1
  O  O400  1  0.72781133  0.58539967  0.05800779  1
  O  O401  1  0.72721611  0.58344844  0.30903633  1
  O  O402  1  0.72748011  0.58137144  0.55761474  1
  O  O403  1  0.72782910  0.58505420  0.80806614  1
  O  O404  1  0.72805940  0.91466505  0.05807947  1
  O  O405  1  0.72789348  0.91728720  0.30762429  1
  O  O406  1  0.72762860  0.91404447  0.55770453  1
  O  O407  1  0.72756102  0.91418898  0.80823607  1
  O  O408  1  0.27169851  0.08371127  0.19330498  1
  O  O409  1  0.27202070  0.08591172  0.44207455  1
  O  O410  1  0.27287781  0.08490527  0.69064586  1
  O  O411  1  0.27204374  0.08223406  0.94192804  1
  O  O412  1  0.27265043  0.41475044  0.19243079  1
  O  O413  1  0.27309939  0.41647298  0.44131896  1
  O  O414  1  0.27196994  0.41863778  0.69179253  1
  O  O415  1  0.27230008  0.41519162  0.94151674  1
  O  O416  1  0.27225376  0.75160276  0.19200946  1
  O  O417  1  0.27198436  0.74968815  0.44387894  1
  O  O418  1  0.27198477  0.74930897  0.69224072  1
  O  O419  1  0.27172093  0.74861669  0.94128959  1
  O  O420  1  0.77216662  0.08462038  0.19185426  1
  O  O421  1  0.77177980  0.08102635  0.44202485  1
  O  O422  1  0.77106038  0.08283516  0.69331870  1
  O  O423  1  0.77117701  0.08257800  0.94331022  1
  O  O424  1  0.77139234  0.41699321  0.19305712  1
  O  O425  1  0.77286433  0.41656772  0.44026869  1
  O  O426  1  0.77221869  0.41889369  0.69189692  1
  O  O427  1  0.77161282  0.41570087  0.94214454  1
  O  O428  1  0.77304018  0.74912437  0.19093071  1
  O  O429  1  0.77165977  0.74794091  0.44151546  1
  O  O430  1  0.77194805  0.75098691  0.69117149  1
  O  O431  1  0.77260491  0.74903354  0.94034257  1
  O  O432  1  0.02259484  0.08243316  0.18502042  1
  O  O433  1  0.02185177  0.08519887  0.43321374  1
  O  O434  1  0.02171696  0.08118437  0.68280103  1
  O  O435  1  0.02140490  0.08297923  0.93176571  1
  O  O436  1  0.02176967  0.41523239  0.18335175  1
  O  O437  1  0.02244793  0.41825979  0.43286077  1
  O  O438  1  0.02205946  0.41811689  0.68233762  1
  O  O439  1  0.02203559  0.41849849  0.93300132  1
  O  O440  1  0.02235320  0.74827515  0.18336671  1
  O  O441  1  0.02267624  0.75043188  0.43444588  1
  O  O442  1  0.02143375  0.74919462  0.68132240  1
  O  O443  1  0.02168948  0.74931443  0.93160467  1
  O  O444  1  0.52197553  0.08152869  0.18315032  1
  O  O445  1  0.52223713  0.08431599  0.43315206  1
  O  O446  1  0.52171446  0.08346831  0.68172242  1
  O  O447  1  0.52165034  0.08507877  0.93299278  1
  O  O448  1  0.52199584  0.41847299  0.18366324  1
  O  O449  1  0.52311290  0.41760730  0.43476906  1
  O  O450  1  0.52294273  0.41650136  0.68425731  1
  O  O451  1  0.52184803  0.41696295  0.93164166  1
  O  O452  1  0.52221380  0.75129307  0.18307302  1
  O  O453  1  0.52191626  0.75110695  0.43305887  1
  O  O454  1  0.52273152  0.75052809  0.68376561  1
  O  O455  1  0.52239169  0.75239234  0.93281076  1
  O  O456  1  0.47771486  0.24881679  0.06716116  1
  O  O457  1  0.47832959  0.24994322  0.31868028  1
  O  O458  1  0.47735443  0.24996837  0.56568164  1
  O  O459  1  0.47793794  0.25225735  0.81655642  1
  O  O460  1  0.47876067  0.58419821  0.06818007  1
  O  O461  1  0.47753873  0.58219580  0.31726367  1
  O  O462  1  0.47763267  0.58208470  0.56716004  1
  O  O463  1  0.47736417  0.58304738  0.81532874  1
  O  O464  1  0.47804586  0.91521116  0.06647821  1
  O  O465  1  0.47754706  0.91678688  0.31543346  1
  O  O466  1  0.47801870  0.91484574  0.56670471  1
  O  O467  1  0.47748226  0.91531167  0.81686853  1
  O  O468  1  0.97829826  0.25016754  0.06853577  1
  O  O469  1  0.97686607  0.25111945  0.31594544  1
  O  O470  1  0.97799207  0.24897943  0.56671994  1
  O  O471  1  0.97863466  0.24999518  0.81816973  1
  O  O472  1  0.97835168  0.58110138  0.06737616  1
  O  O473  1  0.97813767  0.58502771  0.31717649  1
  O  O474  1  0.97718176  0.58281624  0.56506256  1
  O  O475  1  0.97790744  0.58088434  0.81658842  1
  O  O476  1  0.97832026  0.91622965  0.06907942  1
  O  O477  1  0.97813881  0.91803271  0.31729163  1
  O  O478  1  0.97796543  0.91514916  0.56652108  1
  O  O479  1  0.97797868  0.91790650  0.81675811  1
  O  O480  1  0.07401223  0.31309667  0.07585386  1
  O  O481  1  0.07197724  0.31453286  0.32435899  1
  O  O482  1  0.07372157  0.31219573  0.57458731  1
  O  O483  1  0.07390657  0.31373720  0.82484315  1
  O  O484  1  0.07379759  0.64505454  0.07438238  1
  O  O485  1  0.07311421  0.64852643  0.32465556  1
  O  O486  1  0.07187769  0.64685917  0.57377717  1
  O  O487  1  0.07268356  0.64542493  0.82464318  1
  O  O488  1  0.07382240  0.97999931  0.07568123  1
  O  O489  1  0.07309065  0.98157470  0.32558610  1
  O  O490  1  0.07335107  0.97915201  0.57428886  1
  O  O491  1  0.07309511  0.98113999  0.82334833  1
  O  O492  1  0.57329519  0.31242079  0.07488854  1
  O  O493  1  0.57360605  0.31351493  0.32591024  1
  O  O494  1  0.57216069  0.31414821  0.57269351  1
  O  O495  1  0.57326267  0.31496460  0.82405201  1
  O  O496  1  0.57432081  0.64708858  0.07542362  1
  O  O497  1  0.57286693  0.64578652  0.32594340  1
  O  O498  1  0.57296964  0.64568819  0.57504511  1
  O  O499  1  0.57153148  0.64800475  0.82237222  1
  O  O500  1  0.57340938  0.97887750  0.07463642  1
  O  O501  1  0.57233932  0.98045787  0.32333500  1
  O  O502  1  0.57358200  0.97808646  0.57497573  1
  O  O503  1  0.57246746  0.97958205  0.82486324  1
  O  O504  1  0.42696960  0.01835826  0.17565682  1
  O  O505  1  0.42668037  0.02055895  0.42561101  1
  O  O506  1  0.42646192  0.02010439  0.67390225  1
  O  O507  1  0.42633669  0.02126648  0.92506356  1
  O  O508  1  0.42706571  0.35398256  0.17628797  1
  O  O509  1  0.42884075  0.35299716  0.42756232  1
  O  O510  1  0.42776104  0.35309233  0.67600487  1
  O  O511  1  0.42611098  0.35427649  0.92418035  1
  O  O512  1  0.42673592  0.68784662  0.17524808  1
  O  O513  1  0.42630334  0.68794696  0.42507561  1
  O  O514  1  0.42834988  0.68603727  0.67657105  1
  O  O515  1  0.42759301  0.68776287  0.92488170  1
  O  O516  1  0.92709908  0.01945095  0.17752883  1
  O  O517  1  0.92639987  0.02163551  0.42496327  1
  O  O518  1  0.92667812  0.01794844  0.67538232  1
  O  O519  1  0.92571951  0.01951296  0.92566595  1
  O  O520  1  0.92653783  0.35211818  0.17585131  1
  O  O521  1  0.92696230  0.35468472  0.42533439  1
  O  O522  1  0.92697142  0.35402932  0.67430954  1
  O  O523  1  0.92705985  0.35413873  0.92478005  1
  O  O524  1  0.92759496  0.68427440  0.17636377  1
  O  O525  1  0.92769530  0.68653832  0.42659508  1
  O  O526  1  0.92607438  0.68573013  0.67339791  1
  O  O527  1  0.92618812  0.68595405  0.92455983  1
  O  O528  1  0.17608456  0.02078257  0.20121804  1
  O  O529  1  0.17694820  0.02159011  0.45017588  1
  O  O530  1  0.17811904  0.02072155  0.69797161  1
  O  O531  1  0.17701967  0.01861488  0.94889021  1
  O  O532  1  0.17742783  0.35171343  0.20043424  1
  O  O533  1  0.17765697  0.35339244  0.44925383  1
  O  O534  1  0.17644765  0.35486047  0.69894115  1
  O  O535  1  0.17728853  0.35144781  0.94866808  1
  O  O536  1  0.17732886  0.68698990  0.19996177  1
  O  O537  1  0.17624270  0.68670917  0.45064162  1
  O  O538  1  0.17683802  0.68564119  0.69860100  1
  O  O539  1  0.17684043  0.68487514  0.94925637  1
  O  O540  1  0.67677632  0.02069108  0.19949580  1
  O  O541  1  0.67684544  0.01736211  0.44876540  1
  O  O542  1  0.67530546  0.01968566  0.70032783  1
  O  O543  1  0.67573268  0.01921648  0.95112733  1
  O  O544  1  0.67583499  0.35369571  0.20123938  1
  O  O545  1  0.67812703  0.35263696  0.44880610  1
  O  O546  1  0.67687820  0.35489843  0.69881106  1
  O  O547  1  0.67692996  0.35168484  0.94882686  1
  O  O548  1  0.67743459  0.68618894  0.19846122  1
  O  O549  1  0.67666287  0.68437706  0.44872026  1
  O  O550  1  0.67669246  0.68726686  0.69943603  1
  O  O551  1  0.67733759  0.68606030  0.94818603  1
  O  O552  1  0.32405541  0.31459558  0.05144171  1
  O  O553  1  0.32307852  0.31378393  0.30277543  1
  O  O554  1  0.32303499  0.31334139  0.54988034  1
  O  O555  1  0.32264673  0.31567293  0.79989118  1
  O  O556  1  0.32444226  0.64650567  0.04997301  1
  O  O557  1  0.32352163  0.64574669  0.30074648  1
  O  O558  1  0.32229973  0.64701620  0.55139323  1
  O  O559  1  0.32272420  0.64864630  0.80046284  1
  O  O560  1  0.32318870  0.97879130  0.05034921  1
  O  O561  1  0.32391395  0.98022883  0.29941103  1
  O  O562  1  0.32298719  0.98267502  0.55134531  1
  O  O563  1  0.32272433  0.98234240  0.80102609  1
  O  O564  1  0.82311086  0.31235200  0.05093658  1
  O  O565  1  0.82288809  0.31457665  0.30051574  1
  O  O566  1  0.82428330  0.31326325  0.54942417  1
  O  O567  1  0.82288726  0.31548888  0.80108927  1
  O  O568  1  0.82365116  0.64769831  0.05116077  1
  O  O569  1  0.82219424  0.64725947  0.30199962  1
  O  O570  1  0.82280087  0.64499044  0.54912015  1
  O  O571  1  0.82294665  0.64822451  0.80006670  1
  O  O572  1  0.82370532  0.97787860  0.04998263  1
  O  O573  1  0.82247464  0.98129140  0.30097925  1
  O  O574  1  0.82309498  0.97796152  0.55052733  1
  O  O575  1  0.82245992  0.97852310  0.80010142  1
  O  O576  1  0.42658013  0.14549332  0.17558077  1
  O  O577  1  0.42732088  0.14772615  0.42584484  1
  O  O578  1  0.42628021  0.14703759  0.67408295  1
  O  O579  1  0.42677370  0.14862845  0.92602056  1
  O  O580  1  0.42667349  0.48130584  0.17667153  1
  O  O581  1  0.42739296  0.48027315  0.42767221  1
  O  O582  1  0.42806133  0.48038301  0.67626043  1
  O  O583  1  0.42677437  0.48102389  0.92380101  1
  O  O584  1  0.42705785  0.81483969  0.17613843  1
  O  O585  1  0.42708342  0.81507233  0.42605081  1
  O  O586  1  0.42715828  0.81342883  0.67642832  1
  O  O587  1  0.42680193  0.81479573  0.92530170  1
  O  O588  1  0.92819119  0.14702607  0.17769451  1
  O  O589  1  0.92700848  0.14870790  0.42538016  1
  O  O590  1  0.92630101  0.14523021  0.67560112  1
  O  O591  1  0.92607533  0.14642989  0.92495584  1
  O  O592  1  0.92641289  0.47917969  0.17587426  1
  O  O593  1  0.92756401  0.48182722  0.42469010  1
  O  O594  1  0.92667808  0.48119244  0.67514863  1
  O  O595  1  0.92651814  0.48122153  0.92634181  1
  O  O596  1  0.92675494  0.81149056  0.17569395  1
  O  O597  1  0.92776038  0.81404186  0.42555753  1
  O  O598  1  0.92602234  0.81250751  0.67388722  1
  O  O599  1  0.92646850  0.81304336  0.92501319  1
  O  O600  1  0.07344687  0.18630698  0.07632650  1
  O  O601  1  0.07153906  0.18705303  0.32318087  1
  O  O602  1  0.07255248  0.18485813  0.57359613  1
  O  O603  1  0.07427153  0.18677276  0.82491064  1
  O  O604  1  0.07338952  0.51785902  0.07490706  1
  O  O605  1  0.07356292  0.52152199  0.32550759  1
  O  O606  1  0.07242924  0.51947280  0.57242751  1
  O  O607  1  0.07355867  0.51831360  0.82332699  1
  O  O608  1  0.07373055  0.85304724  0.07603537  1
  O  O609  1  0.07359315  0.85433272  0.32534304  1
  O  O610  1  0.07310031  0.85202971  0.57399658  1
  O  O611  1  0.07332656  0.85389002  0.82403342  1
  O  O612  1  0.57244337  0.18502743  0.07404031  1
  O  O613  1  0.57396351  0.18682638  0.32579295  1
  O  O614  1  0.57254957  0.18666902  0.57369711  1
  O  O615  1  0.57312370  0.18791858  0.82402173  1
  O  O616  1  0.57400619  0.52023754  0.07480120  1
  O  O617  1  0.57249076  0.51859221  0.32472800  1
  O  O618  1  0.57277531  0.51875894  0.57483626  1
  O  O619  1  0.57303756  0.52049723  0.82311696  1
  O  O620  1  0.57307074  0.85190744  0.07420428  1
  O  O621  1  0.57270038  0.85299032  0.32281863  1
  O  O622  1  0.57281287  0.85100363  0.57361716  1
  O  O623  1  0.57291688  0.85236437  0.82391071  1
  O  O624  1  0.32312602  0.18746308  0.05014902  1
  O  O625  1  0.32239773  0.18646035  0.30166231  1
  O  O626  1  0.32288111  0.18646601  0.55093856  1
  O  O627  1  0.32374343  0.18848174  0.80012462  1
  O  O628  1  0.32447545  0.51962089  0.04908044  1
  O  O629  1  0.32345870  0.51850847  0.30167769  1
  O  O630  1  0.32216690  0.51962686  0.55235249  1
  O  O631  1  0.32295692  0.52160442  0.79937368  1
  O  O632  1  0.32275122  0.85150358  0.05035535  1
  O  O633  1  0.32393293  0.85336317  0.30070074  1
  O  O634  1  0.32369905  0.85534109  0.55106052  1
  O  O635  1  0.32295412  0.85512205  0.79936557  1
  O  O636  1  0.82320042  0.18509895  0.05102012  1
  O  O637  1  0.82344127  0.18742000  0.30078192  1
  O  O638  1  0.82338311  0.18628156  0.54932722  1
  O  O639  1  0.82332966  0.18807802  0.80021201  1
  O  O640  1  0.82240548  0.52061045  0.05008666  1
  O  O641  1  0.82230532  0.51992620  0.30078752  1
  O  O642  1  0.82244407  0.51806608  0.55012270  1
  O  O643  1  0.82307526  0.52114629  0.80052561  1
  O  O644  1  0.82294042  0.85081243  0.05142305  1
  O  O645  1  0.82371138  0.85413385  0.30014997  1
  O  O646  1  0.82256822  0.85076379  0.54984348  1
  O  O647  1  0.82308777  0.85137663  0.80096441  1
  O  O648  1  0.17658562  0.14772014  0.20002433  1
  O  O649  1  0.17668956  0.14861025  0.44928485  1
  O  O650  1  0.17774673  0.14815281  0.69896955  1
  O  O651  1  0.17670260  0.14593202  0.94981582  1
  O  O652  1  0.17743469  0.47868374  0.20034036  1
  O  O653  1  0.17835447  0.48072113  0.44791300  1
  O  O654  1  0.17701174  0.48191989  0.69871500  1
  O  O655  1  0.17698123  0.47856171  0.95039299  1
  O  O656  1  0.17688098  0.81433116  0.19929160  1
  O  O657  1  0.17690916  0.81366428  0.45157307  1
  O  O658  1  0.17654800  0.81280775  0.70031127  1
  O  O659  1  0.17612173  0.81200120  0.94913312  1
  O  O660  1  0.67709384  0.14787336  0.19976988  1
  O  O661  1  0.67634363  0.14468009  0.44993128  1
  O  O662  1  0.67589358  0.14680749  0.70005645  1
  O  O663  1  0.67567157  0.14613474  0.95027269  1
  O  O664  1  0.67617976  0.48046063  0.20080458  1
  O  O665  1  0.67764889  0.48008969  0.44799536  1
  O  O666  1  0.67715579  0.48198759  0.69877258  1
  O  O667  1  0.67599241  0.47908604  0.94990314  1
  O  O668  1  0.67872791  0.81360644  0.19849430  1
  O  O669  1  0.67616138  0.81144943  0.44868359  1
  O  O670  1  0.67697828  0.81418755  0.69866826  1
  O  O671  1  0.67789618  0.81322973  0.94861689  1
