# generated using pymatgen
data_Na2MnFe(PO4)2
_symmetry_space_group_name_H-M   'P 1'
_cell_length_a   22.34513838
_cell_length_b   20.09846382
_cell_length_c   19.44768239
_cell_angle_alpha   90.01465460
_cell_angle_beta   90.05757562
_cell_angle_gamma   89.98639861
_symmetry_Int_Tables_number   1
_chemical_formula_structural   Na2MnFe(PO4)2
_chemical_formula_sum   'Na96 Mn48 Fe48 P96 O384'
_cell_volume   8734.00669089
_cell_formula_units_Z   48
loop_
 _symmetry_equiv_pos_site_id
 _symmetry_equiv_pos_as_xyz
  1  'x, y, z'
loop_
 _atom_site_type_symbol
 _atom_site_label
 _atom_site_symmetry_multiplicity
 _atom_site_fract_x
 _atom_site_fract_y
 _atom_site_fract_z
 _atom_site_occupancy
  Na  Na0  1  0.14049748  0.24904512  0.24365218  1
  Na  Na1  1  0.14095783  0.25007117  0.49336768  1
  Na  Na2  1  0.14140143  0.25002842  0.74357494  1
  Na  Na3  1  0.14033511  0.24901023  0.99280143  1
  Na  Na4  1  0.13966793  0.58294183  0.24354284  1
  Na  Na5  1  0.14030945  0.58338375  0.49338822  1
  Na  Na6  1  0.14032012  0.58277698  0.74325592  1
  Na  Na7  1  0.13991136  0.58370041  0.99288435  1
  Na  Na8  1  0.14071757  0.91645412  0.24457537  1
  Na  Na9  1  0.14046416  0.91684895  0.49351076  1
  Na  Na10  1  0.14043649  0.91695588  0.74383240  1
  Na  Na11  1  0.14066781  0.91705484  0.99281428  1
  Na  Na12  1  0.63994148  0.24918399  0.24386240  1
  Na  Na13  1  0.64028844  0.24927487  0.49407833  1
  Na  Na14  1  0.64041266  0.24965023  0.74323964  1
  Na  Na15  1  0.64017186  0.25055352  0.99417061  1
  Na  Na16  1  0.63951301  0.58411775  0.24307107  1
  Na  Na17  1  0.64005943  0.58309087  0.49459131  1
  Na  Na18  1  0.63959841  0.58478285  0.74387852  1
  Na  Na19  1  0.63919736  0.58420415  0.99366389  1
  Na  Na20  1  0.63967675  0.91658721  0.24393814  1
  Na  Na21  1  0.63927848  0.91634134  0.49478653  1
  Na  Na22  1  0.63937218  0.91696922  0.74272507  1
  Na  Na23  1  0.63958700  0.91715938  0.99405871  1
  Na  Na24  1  0.35985952  0.08241496  0.00453107  1
  Na  Na25  1  0.35976640  0.08308463  0.25694389  1
  Na  Na26  1  0.35918193  0.08364297  0.50752515  1
  Na  Na27  1  0.35958823  0.08301189  0.75720388  1
  Na  Na28  1  0.35992610  0.41635730  0.00685666  1
  Na  Na29  1  0.35948582  0.41652446  0.25719271  1
  Na  Na30  1  0.35939243  0.41603768  0.50733231  1
  Na  Na31  1  0.35961195  0.41545068  0.75587919  1
  Na  Na32  1  0.36028459  0.75036739  0.00692560  1
  Na  Na33  1  0.35993637  0.74934560  0.25758602  1
  Na  Na34  1  0.35966482  0.74994254  0.50712148  1
  Na  Na35  1  0.36016468  0.75063847  0.75776603  1
  Na  Na36  1  0.86015281  0.08393822  0.00755021  1
  Na  Na37  1  0.85995138  0.08291248  0.25547021  1
  Na  Na38  1  0.85967135  0.08205068  0.50490844  1
  Na  Na39  1  0.85999787  0.08298744  0.75566363  1
  Na  Na40  1  0.86015841  0.41738460  0.00625232  1
  Na  Na41  1  0.85997572  0.41628123  0.25513036  1
  Na  Na42  1  0.85992717  0.41683461  0.50497462  1
  Na  Na43  1  0.85991071  0.41798838  0.75539134  1
  Na  Na44  1  0.85994588  0.75053651  0.00647441  1
  Na  Na45  1  0.85968560  0.75075548  0.25619905  1
  Na  Na46  1  0.86019075  0.75029486  0.50718099  1
  Na  Na47  1  0.86028823  0.75061497  0.75546749  1
  Na  Na48  1  0.10993612  0.08320866  0.11945937  1
  Na  Na49  1  0.11021119  0.08372608  0.36788178  1
  Na  Na50  1  0.11066977  0.08253889  0.61799959  1
  Na  Na51  1  0.11011285  0.08312089  0.86786956  1
  Na  Na52  1  0.10955997  0.41639490  0.11848336  1
  Na  Na53  1  0.10965608  0.41753194  0.36750637  1
  Na  Na54  1  0.11053057  0.41843663  0.61790682  1
  Na  Na55  1  0.11018160  0.41750694  0.86796432  1
  Na  Na56  1  0.11003434  0.74806291  0.11905418  1
  Na  Na57  1  0.10934658  0.74950417  0.36883151  1
  Na  Na58  1  0.10957957  0.74996951  0.61948053  1
  Na  Na59  1  0.10950735  0.74913100  0.86880312  1
  Na  Na60  1  0.60911640  0.08244983  0.11825953  1
  Na  Na61  1  0.60925732  0.08131759  0.36913867  1
  Na  Na62  1  0.60920193  0.08227126  0.61862995  1
  Na  Na63  1  0.60940452  0.08194273  0.86835586  1
  Na  Na64  1  0.60859175  0.41735880  0.11770037  1
  Na  Na65  1  0.60898494  0.41755196  0.36944844  1
  Na  Na66  1  0.60919822  0.41731688  0.61821607  1
  Na  Na67  1  0.60909458  0.41688172  0.86938095  1
  Na  Na68  1  0.60849210  0.75062301  0.11879275  1
  Na  Na69  1  0.60887490  0.75069249  0.36945057  1
  Na  Na70  1  0.60883601  0.75086518  0.61940437  1
  Na  Na71  1  0.60896013  0.75105877  0.86920038  1
  Na  Na72  1  0.39039230  0.25008881  0.13026224  1
  Na  Na73  1  0.39048347  0.24961601  0.38337735  1
  Na  Na74  1  0.39009488  0.24947482  0.63214364  1
  Na  Na75  1  0.39019738  0.24906633  0.88134990  1
  Na  Na76  1  0.38998223  0.58455778  0.13209589  1
  Na  Na77  1  0.38992985  0.58364914  0.38232418  1
  Na  Na78  1  0.39016731  0.58299417  0.63150148  1
  Na  Na79  1  0.39111500  0.58377802  0.88246292  1
  Na  Na80  1  0.39023260  0.91557452  0.13046139  1
  Na  Na81  1  0.39027301  0.91649068  0.38204462  1
  Na  Na82  1  0.39023514  0.91707556  0.63283583  1
  Na  Na83  1  0.39023480  0.91588567  0.88143701  1
  Na  Na84  1  0.89132255  0.25004188  0.13168963  1
  Na  Na85  1  0.89089168  0.25026842  0.37905811  1
  Na  Na86  1  0.89092803  0.25108221  0.63065136  1
  Na  Na87  1  0.89091167  0.25112974  0.88138407  1
  Na  Na88  1  0.89118725  0.58256723  0.13049491  1
  Na  Na89  1  0.89052338  0.58424139  0.38055901  1
  Na  Na90  1  0.89091517  0.58451994  0.63137431  1
  Na  Na91  1  0.89100998  0.58338170  0.87977560  1
  Na  Na92  1  0.89057875  0.91684190  0.13229190  1
  Na  Na93  1  0.89035277  0.91696821  0.38106994  1
  Na  Na94  1  0.89020022  0.91539054  0.63134259  1
  Na  Na95  1  0.89076816  0.91604542  0.88127176  1
  Mn  Mn96  1  0.74965877  0.16660869  0.12512707  1
  Mn  Mn97  1  0.25056195  0.33252831  0.12548556  1
  Mn  Mn98  1  0.74973176  0.49979873  0.12445750  1
  Mn  Mn99  1  0.25001759  0.66593485  0.62568035  1
  Mn  Mn100  1  0.49947759  0.33403787  0.25072248  1
  Mn  Mn101  1  0.75014730  0.16696232  0.87532249  1
  Mn  Mn102  1  0.49962981  0.33288851  0.75016855  1
  Mn  Mn103  1  0.50006810  0.16585461  -0.00020101  1
  Mn  Mn104  1  0.25010711  0.83303203  0.37528244  1
  Mn  Mn105  1  0.49956173  0.66736481  0.50062492  1
  Mn  Mn106  1  0.75006601  0.66701621  0.62500314  1
  Mn  Mn107  1  0.75076404  0.16547572  0.62399585  1
  Mn  Mn108  1  0.00052534  0.16694851  0.74976399  1
  Mn  Mn109  1  0.74969905  0.66693824  0.37520899  1
  Mn  Mn110  1  0.74980705  0.66790637  0.87457509  1
  Mn  Mn111  1  0.49937192  0.50047894  0.75074608  1
  Mn  Mn112  1  0.24934978  0.50036402  0.12531909  1
  Mn  Mn113  1  0.75004526  0.66785936  0.12468843  1
  Mn  Mn114  1  0.00048603  0.33429972  0.49915956  1
  Mn  Mn115  1  0.49876400  0.50126907  0.24986813  1
  Mn  Mn116  1  0.75021028  0.83448085  0.87531643  1
  Mn  Mn117  1  0.74953236  0.33279206  0.37506791  1
  Mn  Mn118  1  0.00109746  0.33496505  0.75046191  1
  Mn  Mn119  1  0.75040661  0.33390765  0.62421792  1
  Mn  Mn120  1  0.49898906  -0.00151565  0.24943883  1
  Mn  Mn121  1  0.24977491  0.83392888  0.62501100  1
  Mn  Mn122  1  0.25000919  -0.00015239  0.12459237  1
  Mn  Mn123  1  -0.00024584  -0.00104201  0.74959032  1
  Mn  Mn124  1  0.74962127  0.83434597  0.37565719  1
  Mn  Mn125  1  0.00076332  0.00019461  0.00039779  1
  Mn  Mn126  1  0.25044018  0.83261676  0.12531383  1
  Mn  Mn127  1  0.00042937  0.16706391  0.49901649  1
  Mn  Mn128  1  0.74996316  0.33402072  0.87413470  1
  Mn  Mn129  1  -0.00053292  0.50170993  0.49874321  1
  Mn  Mn130  1  0.75049831  -0.00005119  0.87522331  1
  Mn  Mn131  1  0.00012617  0.83276201  0.24992473  1
  Mn  Mn132  1  0.25078575  0.66717489  0.87451202  1
  Mn  Mn133  1  0.49977620  0.16640166  0.24992768  1
  Mn  Mn134  1  0.00044941  0.33368524  0.00005396  1
  Mn  Mn135  1  0.49986105  0.16607117  0.50078503  1
  Mn  Mn136  1  0.74970231  0.49969735  0.37407901  1
  Mn  Mn137  1  0.25107667  0.49921645  0.87496642  1
  Mn  Mn138  1  0.25041755  0.16595478  0.12433480  1
  Mn  Mn139  1  -0.00029417  -0.00075265  0.49966149  1
  Mn  Mn140  1  0.24994165  0.33285096  0.37576226  1
  Mn  Mn141  1  0.74968466  0.50074346  0.87506061  1
  Mn  Mn142  1  0.00065614  0.83188716  0.00100452  1
  Mn  Mn143  1  0.75012908  0.16503925  0.37396873  1
  Fe  Fe144  1  0.00064786  -0.00009640  0.25030455  1
  Fe  Fe145  1  0.24949851  0.49977562  0.37540267  1
  Fe  Fe146  1  0.00039308  0.83292201  0.49995213  1
  Fe  Fe147  1  -0.00032808  0.66646309  0.24947890  1
  Fe  Fe148  1  0.00032145  0.66753848  0.50021229  1
  Fe  Fe149  1  0.74974416  -0.00086277  0.37495947  1
  Fe  Fe150  1  0.25014955  0.16635479  0.87396827  1
  Fe  Fe151  1  0.49997532  0.66716571  0.75075894  1
  Fe  Fe152  1  0.74941749  -0.00002309  0.12522066  1
  Fe  Fe153  1  0.74990794  0.50046223  0.62465874  1
  Fe  Fe154  1  0.49939038  0.50063353  0.00031776  1
  Fe  Fe155  1  0.49995003  0.50078605  0.50063452  1
  Fe  Fe156  1  0.24997620  0.16621839  0.62520714  1
  Fe  Fe157  1  0.74964814  0.33333210  0.12470259  1
  Fe  Fe158  1  0.00045069  0.16644019  0.24972825  1
  Fe  Fe159  1  0.24975960  0.33287630  0.62500805  1
  Fe  Fe160  1  0.00059434  0.16652318  0.00037683  1
  Fe  Fe161  1  0.74968255  0.83384236  0.62494829  1
  Fe  Fe162  1  0.25001529  0.66638266  0.12560986  1
  Fe  Fe163  1  0.25020028  0.33295777  0.87433153  1
  Fe  Fe164  1  0.74958600  0.83420974  0.12574784  1
  Fe  Fe165  1  0.25046462  0.16652591  0.37575671  1
  Fe  Fe166  1  0.49949603  -0.00104807  -0.00089674  1
  Fe  Fe167  1  0.49924503  -0.00062846  0.50062300  1
  Fe  Fe168  1  0.25020961  0.00037899  0.62524448  1
  Fe  Fe169  1  0.49943075  0.83334802  0.75067479  1
  Fe  Fe170  1  0.49967914  0.83304735  0.25000599  1
  Fe  Fe171  1  0.00036046  0.66680623  0.74991630  1
  Fe  Fe172  1  -0.00020273  0.66551965  -0.00080398  1
  Fe  Fe173  1  0.49982305  0.83301157  -0.00054563  1
  Fe  Fe174  1  0.00048168  0.50025259  -0.00037464  1
  Fe  Fe175  1  0.49990372  -0.00054607  0.75012942  1
  Fe  Fe176  1  0.49897457  0.83330134  0.50059590  1
  Fe  Fe177  1  0.49988658  0.66724938  0.25043453  1
  Fe  Fe178  1  0.24977264  0.66581391  0.37563645  1
  Fe  Fe179  1  0.24951072  0.83380960  0.87547767  1
  Fe  Fe180  1  0.50021329  0.33331502  0.50074808  1
  Fe  Fe181  1  0.25012097  0.00030591  0.87416262  1
  Fe  Fe182  1  0.25062776  0.49948416  0.62464741  1
  Fe  Fe183  1  0.00041854  0.83226118  0.75036044  1
  Fe  Fe184  1  0.49919561  0.66750339  0.00049750  1
  Fe  Fe185  1  0.00045053  0.50111883  0.74925718  1
  Fe  Fe186  1  0.50051586  0.16628633  0.75033982  1
  Fe  Fe187  1  0.25025624  0.00042017  0.37533096  1
  Fe  Fe188  1  0.74978652  -0.00045545  0.62503723  1
  Fe  Fe189  1  0.49995217  0.33283935  -0.00003552  1
  Fe  Fe190  1  0.00061578  0.33331136  0.24861808  1
  Fe  Fe191  1  0.00006433  0.50053941  0.24933895  1
  P  P192  1  0.04248223  0.24871061  0.10302295  1
  P  P193  1  0.04188584  0.25025590  0.35066912  1
  P  P194  1  0.04342184  0.25078330  0.60259636  1
  P  P195  1  0.04336180  0.25032587  0.85353766  1
  P  P196  1  0.04180463  0.58299581  0.10176997  1
  P  P197  1  0.04116076  0.58427782  0.35132860  1
  P  P198  1  0.04233777  0.58527934  0.60266035  1
  P  P199  1  0.04199010  0.58346536  0.85165064  1
  P  P200  1  0.04322517  0.91643994  0.10394826  1
  P  P201  1  0.04224545  0.91701205  0.35272764  1
  P  P202  1  0.04226055  0.91443923  0.60273482  1
  P  P203  1  0.04234310  0.91497156  0.85253994  1
  P  P204  1  0.54209112  0.25085589  0.10238126  1
  P  P205  1  0.54225635  0.25006757  0.35401550  1
  P  P206  1  0.54209298  0.25058708  0.60317456  1
  P  P207  1  0.54221245  0.24865853  0.85286165  1
  P  P208  1  0.54050763  0.58452357  0.10197300  1
  P  P209  1  0.54166191  0.58492714  0.35302424  1
  P  P210  1  0.54181843  0.58327185  0.60326601  1
  P  P211  1  0.54167100  0.58511460  0.85382224  1
  P  P212  1  0.54048911  0.91593087  0.10132271  1
  P  P213  1  0.54141432  0.91500070  0.35315181  1
  P  P214  1  0.54011063  0.91626296  0.60272068  1
  P  P215  1  0.54109782  0.91644040  0.85208871  1
  P  P216  1  0.45684994  0.08254074  0.14618328  1
  P  P217  1  0.45761721  0.08164375  0.39823271  1
  P  P218  1  0.45857977  0.08288855  0.64875763  1
  P  P219  1  0.45822872  0.08124389  0.89638826  1
  P  P220  1  0.45680725  0.41713301  0.14633692  1
  P  P221  1  0.45835749  0.41717263  0.39943406  1
  P  P222  1  0.45755257  0.41682637  0.64644144  1
  P  P223  1  0.45860028  0.41643821  0.89893875  1
  P  P224  1  0.45816226  0.74987569  0.14814017  1
  P  P225  1  0.45726042  0.75147906  0.39753356  1
  P  P226  1  0.45807851  0.75023674  0.64897895  1
  P  P227  1  0.45835824  0.75000352  0.89785830  1
  P  P228  1  0.95914701  0.08337982  0.14823445  1
  P  P229  1  0.95789854  0.08327404  0.39541342  1
  P  P230  1  0.95756970  0.08302566  0.64650654  1
  P  P231  1  0.95800917  0.08446463  0.89783114  1
  P  P232  1  0.95931416  0.41739004  0.14749054  1
  P  P233  1  0.95779300  0.41738881  0.39489740  1
  P  P234  1  0.95835663  0.41885981  0.64714857  1
  P  P235  1  0.95837136  0.41871028  0.89710336  1
  P  P236  1  0.95781572  0.74800507  0.14702452  1
  P  P237  1  0.95827073  0.75003038  0.39817607  1
  P  P238  1  0.95899289  0.74984347  0.64776393  1
  P  P239  1  0.95821305  0.74825058  0.89693903  1
  P  P240  1  0.20796929  0.08309772  0.22895756  1
  P  P241  1  0.20863016  0.08352127  0.47741675  1
  P  P242  1  0.20889220  0.08326107  0.72718120  1
  P  P243  1  0.20859475  0.08308402  0.97556606  1
  P  P244  1  0.20740477  0.41653787  0.22872611  1
  P  P245  1  0.20769909  0.41767138  0.47808183  1
  P  P246  1  0.20922427  0.41624166  0.72657770  1
  P  P247  1  0.20810168  0.41521110  0.97716158  1
  P  P248  1  0.20818644  0.74807118  0.22838875  1
  P  P249  1  0.20789448  0.74864477  0.47759874  1
  P  P250  1  0.20780359  0.75072471  0.72875024  1
  P  P251  1  0.20807798  0.75077724  0.97767407  1
  P  P252  1  0.70711992  0.08140897  0.22762866  1
  P  P253  1  0.70763499  0.08086434  0.47755277  1
  P  P254  1  0.70758552  0.08217738  0.72711500  1
  P  P255  1  0.70717459  0.08311970  0.97874761  1
  P  P256  1  0.70692707  0.41532254  0.22686811  1
  P  P257  1  0.70695624  0.41715122  0.47836861  1
  P  P258  1  0.70732262  0.41843282  0.72684999  1
  P  P259  1  0.70696739  0.41656590  0.97834687  1
  P  P260  1  0.70726386  0.75181354  0.22762664  1
  P  P261  1  0.70717681  0.75062691  0.47890129  1
  P  P262  1  0.70738677  0.75196143  0.72723947  1
  P  P263  1  0.70715729  0.75138369  0.97874744  1
  P  P264  1  0.29264860  0.24962793  0.02054052  1
  P  P265  1  0.29289185  0.24850659  0.27341027  1
  P  P266  1  0.29134646  0.24930706  0.52378341  1
  P  P267  1  0.29139285  0.24967655  0.77241011  1
  P  P268  1  0.29214557  0.58459606  0.02292313  1
  P  P269  1  0.29111045  0.58305453  0.27372634  1
  P  P270  1  0.29194591  0.58194441  0.52204845  1
  P  P271  1  0.29335881  0.58242432  0.77151506  1
  P  P272  1  0.29223408  0.91631573  0.02084289  1
  P  P273  1  0.29238786  0.91752688  0.27313937  1
  P  P274  1  0.29195929  0.91854844  0.52251486  1
  P  P275  1  0.29126739  0.91705123  0.77322723  1
  P  P276  1  0.79269061  0.25131113  0.02266757  1
  P  P277  1  0.79242703  0.24980859  0.27095006  1
  P  P278  1  0.79334251  0.24934081  0.52115889  1
  P  P279  1  0.79335930  0.25000133  0.77143455  1
  P  P280  1  0.79275230  0.58402127  0.02165112  1
  P  P281  1  0.79251283  0.58379118  0.27139207  1
  P  P282  1  0.79264022  0.58241105  0.52244968  1
  P  P283  1  0.79241000  0.58392386  0.77107093  1
  P  P284  1  0.79189618  0.91706508  0.02421273  1
  P  P285  1  0.79205345  0.91784387  0.27183734  1
  P  P286  1  0.79152640  0.91690178  0.52329299  1
  P  P287  1  0.79274079  0.91693255  0.77092825  1
  O  O288  1  0.03699414  0.24891039  0.18290464  1
  O  O289  1  0.03707265  0.25069725  0.43065930  1
  O  O290  1  0.03850041  0.25088420  0.68258395  1
  O  O291  1  0.03814668  0.24992677  0.93350282  1
  O  O292  1  0.03612852  0.58293251  0.18160337  1
  O  O293  1  0.03620013  0.58489789  0.43126359  1
  O  O294  1  0.03710128  0.58482290  0.68253293  1
  O  O295  1  0.03683192  0.58312685  0.93153846  1
  O  O296  1  0.03788541  0.91711544  0.18389193  1
  O  O297  1  0.03687300  0.91637268  0.43266837  1
  O  O298  1  0.03703907  0.91419485  0.68270342  1
  O  O299  1  0.03757147  0.91540918  0.93253803  1
  O  O300  1  0.53685532  0.25072091  0.18233983  1
  O  O301  1  0.53695557  0.25035237  0.43400328  1
  O  O302  1  0.53688000  0.24988518  0.68312582  1
  O  O303  1  0.53701594  0.24922285  0.93279914  1
  O  O304  1  0.53572845  0.58451993  0.18198214  1
  O  O305  1  0.53660043  0.58420522  0.43298150  1
  O  O306  1  0.53693408  0.58360624  0.68320321  1
  O  O307  1  0.53579606  0.58506708  0.93365977  1
  O  O308  1  0.53551538  0.91517557  0.18122730  1
  O  O309  1  0.53608755  0.91521342  0.43298565  1
  O  O310  1  0.53524598  0.91684147  0.68258903  1
  O  O311  1  0.53624642  0.91627096  0.93196583  1
  O  O312  1  0.46216863  0.08222648  0.06624151  1
  O  O313  1  0.46220339  0.08177570  0.31825313  1
  O  O314  1  0.46322512  0.08286791  0.56874387  1
  O  O315  1  0.46411323  0.08152720  0.81656358  1
  O  O316  1  0.46213094  0.41685665  0.06646632  1
  O  O317  1  0.46294587  0.41739476  0.31936492  1
  O  O318  1  0.46306721  0.41684028  0.56658383  1
  O  O319  1  0.46334232  0.41672785  0.81894022  1
  O  O320  1  0.46327187  0.74932158  0.06825799  1
  O  O321  1  0.46265240  0.75131469  0.31771644  1
  O  O322  1  0.46294613  0.75082463  0.56901713  1
  O  O323  1  0.46333403  0.74992481  0.81800853  1
  O  O324  1  0.96422218  0.08371834  0.06824152  1
  O  O325  1  0.96350066  0.08304647  0.31550166  1
  O  O326  1  0.96262992  0.08289273  0.56652198  1
  O  O327  1  0.96291955  0.08395607  0.81784270  1
  O  O328  1  0.96426599  0.41750544  0.06751588  1
  O  O329  1  0.96341621  0.41718347  0.31502096  1
  O  O330  1  0.96315769  0.41862444  0.56714107  1
  O  O331  1  0.96365718  0.41888709  0.81716085  1
  O  O332  1  0.96305283  0.74765137  0.06712308  1
  O  O333  1  0.96327531  0.74982304  0.31822339  1
  O  O334  1  0.96425311  0.75000413  0.56786697  1
  O  O335  1  0.96377213  0.74886077  0.81705393  1
  O  O336  1  0.21311338  0.08332549  0.05558181  1
  O  O337  1  0.21328507  0.08319895  0.30888356  1
  O  O338  1  0.21385929  0.08357479  0.55737498  1
  O  O339  1  0.21414824  0.08303179  0.80706664  1
  O  O340  1  0.21298518  0.41568034  0.05716802  1
  O  O341  1  0.21249702  0.41707535  0.30869924  1
  O  O342  1  0.21320051  0.41748542  0.55795823  1
  O  O343  1  0.21442614  0.41538866  0.80652090  1
  O  O344  1  0.21303787  0.75010198  0.05768046  1
  O  O345  1  0.21341518  0.74784191  0.30835091  1
  O  O346  1  0.21282152  0.74894167  0.55757482  1
  O  O347  1  0.21319325  0.75134748  0.80866199  1
  O  O348  1  0.71208305  0.08267849  0.05874966  1
  O  O349  1  0.71242502  0.08104253  0.30759074  1
  O  O350  1  0.71308018  0.08082046  0.55751028  1
  O  O351  1  0.71250402  0.08272529  0.80712959  1
  O  O352  1  0.71207228  0.41583421  0.05831551  1
  O  O353  1  0.71199982  0.41561608  0.30687932  1
  O  O354  1  0.71233573  0.41794383  0.55831283  1
  O  O355  1  0.71237215  0.41816298  0.80688323  1
  O  O356  1  0.71230996  0.75190886  0.05870696  1
  O  O357  1  0.71226228  0.75152034  0.30764121  1
  O  O358  1  0.71241816  0.75090436  0.55883700  1
  O  O359  1  0.71237303  0.75181590  0.80724059  1
  O  O360  1  0.28797752  0.24877562  0.19338830  1
  O  O361  1  0.28665141  0.24918634  0.44379829  1
  O  O362  1  0.28618650  0.24933686  0.69252385  1
  O  O363  1  0.28737867  0.25003426  0.94062266  1
  O  O364  1  0.28618994  0.58372494  0.19371192  1
  O  O365  1  0.28621151  0.58239322  0.44216141  1
  O  O366  1  0.28808006  0.58182932  0.69157176  1
  O  O367  1  0.28757435  0.58436267  0.94291985  1
  O  O368  1  0.28729230  0.91695261  0.19314887  1
  O  O369  1  0.28667138  0.91851052  0.44258534  1
  O  O370  1  0.28631683  0.91745568  0.69322360  1
  O  O371  1  0.28671740  0.91605395  0.94091889  1
  O  O372  1  0.78706821  0.25042721  0.19099009  1
  O  O373  1  0.78788379  0.24909111  0.44120173  1
  O  O374  1  0.78850470  0.24985417  0.69141065  1
  O  O375  1  0.78771792  0.25099923  0.94262310  1
  O  O376  1  0.78746834  0.58406728  0.19143899  1
  O  O377  1  0.78744910  0.58279108  0.44245225  1
  O  O378  1  0.78720033  0.58335041  0.69109846  1
  O  O379  1  0.78769138  0.58417312  0.94166655  1
  O  O380  1  0.78670839  0.91741381  0.19195266  1
  O  O381  1  0.78648282  0.91740195  0.44329773  1
  O  O382  1  0.78754064  0.91676897  0.69099571  1
  O  O383  1  0.78751700  0.91716090  0.94411999  1
  O  O384  1  0.22844740  0.24955121  0.05632601  1
  O  O385  1  0.22847514  0.24815084  0.30864890  1
  O  O386  1  0.22716877  0.24892435  0.55943449  1
  O  O387  1  0.22746225  0.25038531  0.80882628  1
  O  O388  1  0.22769632  0.58497321  0.05801164  1
  O  O389  1  0.22689498  0.58274302  0.30946820  1
  O  O390  1  0.22793751  0.58153760  0.55844491  1
  O  O391  1  0.22904499  0.58273155  0.80673532  1
  O  O392  1  0.22814566  0.91599034  0.05679186  1
  O  O393  1  0.22811872  0.91773781  0.30861795  1
  O  O394  1  0.22772505  0.91865123  0.55822277  1
  O  O395  1  0.22712964  0.91717159  0.80920261  1
  O  O396  1  0.72821815  0.25144577  0.05777394  1
  O  O397  1  0.72815518  0.24920153  0.30637962  1
  O  O398  1  0.72899627  0.24950098  0.55631975  1
  O  O399  1  0.72876908  0.25001463  0.80610575  1
  O  O400  1  0.72826758  0.58399717  0.05646651  1
  O  O401  1  0.72800966  0.58376648  0.30621777  1
  O  O402  1  0.72825767  0.58223625  0.55779056  1
  O  O403  1  0.72806376  0.58422984  0.80634449  1
  O  O404  1  0.72737869  0.91710006  0.05919558  1
  O  O405  1  0.72781045  0.91814767  0.30774687  1
  O  O406  1  0.72730649  0.91673382  0.55921131  1
  O  O407  1  0.72834986  0.91721297  0.80615639  1
  O  O408  1  0.27217325  0.08296336  0.19323780  1
  O  O409  1  0.27271661  0.08369321  0.44112268  1
  O  O410  1  0.27290844  0.08339524  0.69077448  1
  O  O411  1  0.27283282  0.08240043  0.94005696  1
  O  O412  1  0.27171689  0.41681440  0.19344336  1
  O  O413  1  0.27185070  0.41774432  0.44204012  1
  O  O414  1  0.27321886  0.41673890  0.69039527  1
  O  O415  1  0.27251357  0.41449631  0.94189618  1
  O  O416  1  0.27241967  0.74801799  0.19263199  1
  O  O417  1  0.27221742  0.74876347  0.44235838  1
  O  O418  1  0.27202871  0.75037208  0.69327860  1
  O  O419  1  0.27238075  0.75143144  0.94220463  1
  O  O420  1  0.77141235  0.08162938  0.19204065  1
  O  O421  1  0.77183812  0.08069692  0.44166447  1
  O  O422  1  0.77201785  0.08138143  0.69196659  1
  O  O423  1  0.77168008  0.08350142  0.94384387  1
  O  O424  1  0.77140747  0.41518408  0.19172919  1
  O  O425  1  0.77129439  0.41673598  0.44306861  1
  O  O426  1  0.77176784  0.41877887  0.69161065  1
  O  O427  1  0.77140735  0.41697537  0.94331071  1
  O  O428  1  0.77168610  0.75205704  0.19248948  1
  O  O429  1  0.77150170  0.75055886  0.44362834  1
  O  O430  1  0.77173428  0.75220552  0.69193189  1
  O  O431  1  0.77157756  0.75097783  0.94364483  1
  O  O432  1  0.02323808  0.08345688  0.18446467  1
  O  O433  1  0.02206413  0.08285653  0.43135533  1
  O  O434  1  0.02201101  0.08277223  0.68159763  1
  O  O435  1  0.02249027  0.08466087  0.93310873  1
  O  O436  1  0.02333507  0.41797010  0.18365473  1
  O  O437  1  0.02192622  0.41794158  0.43097909  1
  O  O438  1  0.02278200  0.41917140  0.68252076  1
  O  O439  1  0.02260690  0.41843004  0.93301263  1
  O  O440  1  0.02205868  0.74819562  0.18284851  1
  O  O441  1  0.02250115  0.75019454  0.43429505  1
  O  O442  1  0.02295010  0.74962936  0.68447121  1
  O  O443  1  0.02229429  0.74775480  0.93333341  1
  O  O444  1  0.52113737  0.08238451  0.18175173  1
  O  O445  1  0.52198319  0.08191155  0.43353219  1
  O  O446  1  0.52282869  0.08255035  0.68449038  1
  O  O447  1  0.52215070  0.08097283  0.93313322  1
  O  O448  1  0.52101496  0.41765775  0.18218621  1
  O  O449  1  0.52258583  0.41681752  0.43509278  1
  O  O450  1  0.52162184  0.41688329  0.68256503  1
  O  O451  1  0.52268908  0.41632605  0.93485838  1
  O  O452  1  0.52221035  0.75011901  0.18472534  1
  O  O453  1  0.52138724  0.75169250  0.43383785  1
  O  O454  1  0.52221959  0.74983634  0.68503579  1
  O  O455  1  0.52235325  0.74943093  0.93428262  1
  O  O456  1  0.47786705  0.25071725  0.06657903  1
  O  O457  1  0.47789906  0.24986176  0.31860520  1
  O  O458  1  0.47785105  0.25079679  0.56737579  1
  O  O459  1  0.47790562  0.24814840  0.81714733  1
  O  O460  1  0.47636999  0.58474154  0.06600745  1
  O  O461  1  0.47731897  0.58565302  0.31736162  1
  O  O462  1  0.47753772  0.58312525  0.56761647  1
  O  O463  1  0.47766300  0.58560514  0.81719901  1
  O  O464  1  0.47647875  0.91663908  0.06499130  1
  O  O465  1  0.47726539  0.91434084  0.31686109  1
  O  O466  1  0.47609531  0.91577193  0.56632659  1
  O  O467  1  0.47696598  0.91700888  0.81593711  1
  O  O468  1  0.97840815  0.24866774  0.06663190  1
  O  O469  1  0.97778897  0.24969737  0.31468789  1
  O  O470  1  0.97892724  0.25071856  0.56761597  1
  O  O471  1  0.97903981  0.25086133  0.81813667  1
  O  O472  1  0.97782767  0.58287532  0.06495346  1
  O  O473  1  0.97705080  0.58352114  0.31518686  1
  O  O474  1  0.97814001  0.58598995  0.56654950  1
  O  O475  1  0.97799046  0.58370245  0.81504106  1
  O  O476  1  0.97892985  0.91634804  0.06845849  1
  O  O477  1  0.97810083  0.91730335  0.31673942  1
  O  O478  1  0.97800404  0.91435174  0.56690101  1
  O  O479  1  0.97800652  0.91466704  0.81707177  1
  O  O480  1  0.07376198  0.31228150  0.07521691  1
  O  O481  1  0.07223536  0.31415366  0.32228224  1
  O  O482  1  0.07428295  0.31427008  0.57431183  1
  O  O483  1  0.07451386  0.31390665  0.82566988  1
  O  O484  1  0.07255113  0.64661975  0.07331319  1
  O  O485  1  0.07166258  0.64799094  0.32276286  1
  O  O486  1  0.07356803  0.64854381  0.57413153  1
  O  O487  1  0.07312374  0.64696063  0.82344340  1
  O  O488  1  0.07462451  0.97945936  0.07520934  1
  O  O489  1  0.07310518  0.98061889  0.32460451  1
  O  O490  1  0.07314366  0.97832134  0.57516716  1
  O  O491  1  0.07311902  0.97871186  0.82452681  1
  O  O492  1  0.57259006  0.31448781  0.07395370  1
  O  O493  1  0.57341556  0.31338085  0.32568445  1
  O  O494  1  0.57271401  0.31428146  0.57490354  1
  O  O495  1  0.57324833  0.31216224  0.82472258  1
  O  O496  1  0.57196484  0.64776060  0.07387853  1
  O  O497  1  0.57249470  0.64852311  0.32477625  1
  O  O498  1  0.57309004  0.64665928  0.57519959  1
  O  O499  1  0.57296348  0.64825183  0.82506946  1
  O  O500  1  0.57170598  0.97951553  0.07361092  1
  O  O501  1  0.57209049  0.97875981  0.32481372  1
  O  O502  1  0.57046653  0.98006542  0.57371910  1
  O  O503  1  0.57266655  0.97952040  0.82357762  1
  O  O504  1  0.42538903  0.01941682  0.17452954  1
  O  O505  1  0.42749957  0.01786959  0.42706719  1
  O  O506  1  0.42721334  0.01963582  0.67693717  1
  O  O507  1  0.42711274  0.01788620  0.92482788  1
  O  O508  1  0.42585598  0.35373923  0.17509655  1
  O  O509  1  0.42737448  0.35350528  0.42735344  1
  O  O510  1  0.42635119  0.35338347  0.67472145  1
  O  O511  1  0.42773211  0.35264461  0.92658049  1
  O  O512  1  0.42752113  0.68640540  0.17729266  1
  O  O513  1  0.42616515  0.68793944  0.42574707  1
  O  O514  1  0.42726078  0.68645738  0.67679399  1
  O  O515  1  0.42663297  0.68707232  0.92648220  1
  O  O516  1  0.92873423  0.01933704  0.17620117  1
  O  O517  1  0.92630344  0.02019370  0.42389981  1
  O  O518  1  0.92654046  0.01954408  0.67462026  1
  O  O519  1  0.92706552  0.02078910  0.92580544  1
  O  O520  1  0.92932777  0.35303049  0.17546268  1
  O  O521  1  0.92689812  0.35389692  0.42344419  1
  O  O522  1  0.92753074  0.35518963  0.67512974  1
  O  O523  1  0.92719962  0.35504881  0.92483717  1
  O  O524  1  0.92688263  0.68484075  0.17597444  1
  O  O525  1  0.92746466  0.68653959  0.42666119  1
  O  O526  1  0.92784206  0.68638401  0.67605077  1
  O  O527  1  0.92713576  0.68477628  0.92508991  1
  O  O528  1  0.17674959  0.01974055  0.20045827  1
  O  O529  1  0.17784646  0.01981834  0.44900104  1
  O  O530  1  0.17808850  0.01960326  0.69856545  1
  O  O531  1  0.17718716  0.01968340  0.94771018  1
  O  O532  1  0.17687538  0.35263624  0.20080092  1
  O  O533  1  0.17651019  0.35405058  0.45006773  1
  O  O534  1  0.17855165  0.35262816  0.69778314  1
  O  O535  1  0.17696289  0.35204816  0.94860218  1
  O  O536  1  0.17727751  0.68485648  0.19931181  1
  O  O537  1  0.17730329  0.68502601  0.44913355  1
  O  O538  1  0.17676129  0.68698283  0.70114715  1
  O  O539  1  0.17714794  0.68726284  0.94929274  1
  O  O540  1  0.67618090  0.01820651  0.19860098  1
  O  O541  1  0.67653301  0.01759682  0.44902438  1
  O  O542  1  0.67652140  0.01876556  0.69877593  1
  O  O543  1  0.67624934  0.01978721  0.95003730  1
  O  O544  1  0.67625489  0.35178687  0.19842881  1
  O  O545  1  0.67591088  0.35336600  0.45090545  1
  O  O546  1  0.67662525  0.35453195  0.69909806  1
  O  O547  1  0.67590210  0.35343751  0.94935068  1
  O  O548  1  0.67623409  0.68822318  0.19970756  1
  O  O549  1  0.67622651  0.68697749  0.45079685  1
  O  O550  1  0.67647484  0.68821768  0.69956274  1
  O  O551  1  0.67613900  0.68782559  0.95064194  1
  O  O552  1  0.32384770  0.31274374  0.04964602  1
  O  O553  1  0.32359256  0.31229996  0.30147078  1
  O  O554  1  0.32143452  0.31349525  0.55206521  1
  O  O555  1  0.32291634  0.31295330  0.80069825  1
  O  O556  1  0.32285942  0.64805151  0.05162035  1
  O  O557  1  0.32195654  0.64649914  0.30257738  1
  O  O558  1  0.32312753  0.64556890  0.55008091  1
  O  O559  1  0.32437420  0.64611110  0.79925802  1
  O  O560  1  0.32314583  0.97998830  0.04888897  1
  O  O561  1  0.32319998  0.98101818  0.30150637  1
  O  O562  1  0.32297631  0.98168927  0.55149336  1
  O  O563  1  0.32244073  0.98049017  0.80148620  1
  O  O564  1  0.82335193  0.31489129  0.05109599  1
  O  O565  1  0.82355960  0.31303788  0.29950940  1
  O  O566  1  0.82446979  0.31288390  0.54902399  1
  O  O567  1  0.82415680  0.31371016  0.79946289  1
  O  O568  1  0.82385625  0.64736472  0.04987694  1
  O  O569  1  0.82342471  0.64720507  0.29994619  1
  O  O570  1  0.82352828  0.64616109  0.55031462  1
  O  O571  1  0.82328625  0.64774411  0.79878714  1
  O  O572  1  0.82256452  0.98076006  0.05253320  1
  O  O573  1  0.82301510  0.98115866  0.30060042  1
  O  O574  1  0.82260303  0.98021357  0.55184454  1
  O  O575  1  0.82407421  0.98013477  0.79965047  1
  O  O576  1  0.42616927  0.14635621  0.17422982  1
  O  O577  1  0.42621724  0.14497536  0.42623854  1
  O  O578  1  0.42845850  0.14701441  0.67715718  1
  O  O579  1  0.42695231  0.14482571  0.92414149  1
  O  O580  1  0.42534203  0.48043092  0.17473919  1
  O  O581  1  0.42803470  0.48119578  0.42751857  1
  O  O582  1  0.42623180  0.48006164  0.67497899  1
  O  O583  1  0.42801488  0.48035458  0.92703042  1
  O  O584  1  0.42711113  0.81356073  0.17603989  1
  O  O585  1  0.42620997  0.81468736  0.42653292  1
  O  O586  1  0.42735688  0.81383677  0.67768807  1
  O  O587  1  0.42822238  0.81412484  0.92636838  1
  O  O588  1  0.92781196  0.14675182  0.17633164  1
  O  O589  1  0.92697286  0.14695819  0.42343727  1
  O  O590  1  0.92667581  0.14660516  0.67450173  1
  O  O591  1  0.92742420  0.14806808  0.92629811  1
  O  O592  1  0.92750773  0.48037864  0.17570470  1
  O  O593  1  0.92619579  0.48060773  0.42314385  1
  O  O594  1  0.92761719  0.48240620  0.67549875  1
  O  O595  1  0.92749261  0.48201144  0.92587432  1
  O  O596  1  0.92686432  0.81185498  0.17462305  1
  O  O597  1  0.92758299  0.81386691  0.42631730  1
  O  O598  1  0.92813167  0.81345173  0.67629634  1
  O  O599  1  0.92717056  0.81179585  0.92536500  1
  O  O600  1  0.07331347  0.18521345  0.07433296  1
  O  O601  1  0.07314227  0.18661467  0.32321773  1
  O  O602  1  0.07430767  0.18721450  0.57440920  1
  O  O603  1  0.07439016  0.18701685  0.82495856  1
  O  O604  1  0.07302753  0.51952623  0.07344117  1
  O  O605  1  0.07236189  0.52072397  0.32340574  1
  O  O606  1  0.07309579  0.52167855  0.57410070  1
  O  O607  1  0.07281955  0.51984778  0.82297863  1
  O  O608  1  0.07408254  0.85256277  0.07641834  1
  O  O609  1  0.07353562  0.85353915  0.32477488  1
  O  O610  1  0.07337438  0.85133459  0.57375503  1
  O  O611  1  0.07313113  0.85142158  0.82432836  1
  O  O612  1  0.57339350  0.18726340  0.07485186  1
  O  O613  1  0.57320101  0.18639036  0.32592602  1
  O  O614  1  0.57348839  0.18718635  0.57521034  1
  O  O615  1  0.57299113  0.18499825  0.82455371  1
  O  O616  1  0.57079280  0.52046938  0.07356438  1
  O  O617  1  0.57255595  0.52147802  0.32445714  1
  O  O618  1  0.57229645  0.51963810  0.57447395  1
  O  O619  1  0.57258540  0.52124695  0.82613081  1
  O  O620  1  0.57090965  0.85219948  0.07253405  1
  O  O621  1  0.57274382  0.85195948  0.32414048  1
  O  O622  1  0.57146180  0.85286173  0.57461357  1
  O  O623  1  0.57126629  0.85245668  0.82328854  1
  O  O624  1  0.32376873  0.18600593  0.04858101  1
  O  O625  1  0.32382857  0.18519436  0.30198233  1
  O  O626  1  0.32286330  0.18618201  0.55224057  1
  O  O627  1  0.32169928  0.18569069  0.80105315  1
  O  O628  1  0.32281290  0.52077128  0.05079847  1
  O  O629  1  0.32198149  0.51921632  0.30158658  1
  O  O630  1  0.32307872  0.51857462  0.55047848  1
  O  O631  1  0.32455693  0.51925082  0.80029314  1
  O  O632  1  0.32380797  0.85330024  0.04963875  1
  O  O633  1  0.32327401  0.85378139  0.30101097  1
  O  O634  1  0.32276090  0.85459142  0.55019706  1
  O  O635  1  0.32176346  0.85313854  0.80136731  1
  O  O636  1  0.82360223  0.18763891  0.05061671  1
  O  O637  1  0.82356749  0.18609180  0.29854392  1
  O  O638  1  0.82440190  0.18581567  0.54912695  1
  O  O639  1  0.82428286  0.18662264  0.79999342  1
  O  O640  1  0.82365885  0.52041136  0.04968264  1
  O  O641  1  0.82343876  0.52011363  0.29910864  1
  O  O642  1  0.82345161  0.51891530  0.55074983  1
  O  O643  1  0.82365338  0.52077888  0.79969710  1
  O  O644  1  0.82245809  0.85326545  0.05243841  1
  O  O645  1  0.82311817  0.85430848  0.30031390  1
  O  O646  1  0.82207556  0.85284226  0.55108526  1
  O  O647  1  0.82374554  0.85357671  0.79975386  1
  O  O648  1  0.17693757  0.14645579  0.20021540  1
  O  O649  1  0.17767462  0.14710026  0.44894051  1
  O  O650  1  0.17765357  0.14672407  0.69897967  1
  O  O651  1  0.17856198  0.14705852  0.94687677  1
  O  O652  1  0.17588428  0.47952951  0.19999787  1
  O  O653  1  0.17665712  0.48096994  0.44923721  1
  O  O654  1  0.17808887  0.47998701  0.69902087  1
  O  O655  1  0.17771330  0.47926890  0.94920691  1
  O  O656  1  0.17725283  0.81195829  0.20087782  1
  O  O657  1  0.17676178  0.81224317  0.44977130  1
  O  O658  1  0.17657564  0.81386120  0.70004637  1
  O  O659  1  0.17707965  0.81433144  0.94938096  1
  O  O660  1  0.67602513  0.14521359  0.20015541  1
  O  O661  1  0.67677505  0.14473046  0.44981554  1
  O  O662  1  0.67695945  0.14587034  0.69883263  1
  O  O663  1  0.67617185  0.14672226  0.95068446  1
  O  O664  1  0.67598204  0.47913206  0.19914748  1
  O  O665  1  0.67581731  0.48030640  0.44947414  1
  O  O666  1  0.67643625  0.48193119  0.69858958  1
  O  O667  1  0.67592321  0.48032351  0.95072872  1
  O  O668  1  0.67658228  0.81540322  0.19919762  1
  O  O669  1  0.67586086  0.81383755  0.45051239  1
  O  O670  1  0.67650917  0.81537167  0.69872778  1
  O  O671  1  0.67613095  0.81468943  0.95009516  1
