# generated using pymatgen
data_Na2MnFe(PO4)2
_symmetry_space_group_name_H-M   'P 1'
_cell_length_a   22.34283562
_cell_length_b   20.09266069
_cell_length_c   19.44978658
_cell_angle_alpha   89.99833757
_cell_angle_beta   90.03034808
_cell_angle_gamma   89.94756779
_symmetry_Int_Tables_number   1
_chemical_formula_structural   Na2MnFe(PO4)2
_chemical_formula_sum   'Na96 Mn48 Fe48 P96 O384'
_cell_volume   8731.52974214
_cell_formula_units_Z   48
loop_
 _symmetry_equiv_pos_site_id
 _symmetry_equiv_pos_as_xyz
  1  'x, y, z'
loop_
 _atom_site_type_symbol
 _atom_site_label
 _atom_site_symmetry_multiplicity
 _atom_site_fract_x
 _atom_site_fract_y
 _atom_site_fract_z
 _atom_site_occupancy
  Na  Na0  1  0.14104959  0.24998671  0.24370137  1
  Na  Na1  1  0.14014989  0.25119760  0.49510343  1
  Na  Na2  1  0.14046698  0.25025781  0.74492199  1
  Na  Na3  1  0.14160392  0.24857977  0.99346327  1
  Na  Na4  1  0.13959286  0.58307741  0.24413238  1
  Na  Na5  1  0.13938031  0.58343437  0.49449907  1
  Na  Na6  1  0.13970562  0.58269745  0.74374992  1
  Na  Na7  1  0.13986742  0.58144400  0.99304221  1
  Na  Na8  1  0.14054946  0.91702610  0.24298876  1
  Na  Na9  1  0.14059768  0.91575963  0.49438695  1
  Na  Na10  1  0.14062340  0.91619812  0.74545538  1
  Na  Na11  1  0.14034867  0.91658848  0.99261421  1
  Na  Na12  1  0.64073264  0.25012543  0.24358199  1
  Na  Na13  1  0.64031426  0.25125978  0.49329401  1
  Na  Na14  1  0.64026132  0.25009292  0.74337646  1
  Na  Na15  1  0.64090270  0.25005539  0.99331074  1
  Na  Na16  1  0.63923822  0.58299447  0.24299901  1
  Na  Na17  1  0.63928612  0.58409046  0.49289981  1
  Na  Na18  1  0.63976370  0.58409757  0.74335526  1
  Na  Na19  1  0.63997610  0.58301872  0.99192796  1
  Na  Na20  1  0.63979896  0.91724663  0.24335697  1
  Na  Na21  1  0.64039099  0.91867930  0.49426531  1
  Na  Na22  1  0.64002498  0.91652390  0.74411034  1
  Na  Na23  1  0.63985681  0.91595207  0.99239802  1
  Na  Na24  1  0.36006332  0.08237500  0.00640311  1
  Na  Na25  1  0.36032952  0.08296363  0.25552688  1
  Na  Na26  1  0.36034032  0.08446120  0.50650365  1
  Na  Na27  1  0.35952889  0.08394127  0.75654808  1
  Na  Na28  1  0.35997655  0.41546941  0.00686834  1
  Na  Na29  1  0.36048133  0.41805481  0.25667995  1
  Na  Na30  1  0.36027893  0.41817431  0.50673739  1
  Na  Na31  1  0.35984891  0.41592252  0.75693423  1
  Na  Na32  1  0.36020661  0.74899966  0.00695357  1
  Na  Na33  1  0.35973376  0.74962756  0.25559682  1
  Na  Na34  1  0.35992148  0.74947369  0.50626541  1
  Na  Na35  1  0.36053223  0.75000112  0.75712470  1
  Na  Na36  1  0.85943828  0.08245726  0.00533910  1
  Na  Na37  1  0.85987375  0.08283582  0.25504374  1
  Na  Na38  1  0.85920037  0.08416809  0.50675080  1
  Na  Na39  1  0.85893396  0.08270784  0.75672028  1
  Na  Na40  1  0.85995436  0.41728642  0.00510887  1
  Na  Na41  1  0.85994927  0.41705236  0.25645147  1
  Na  Na42  1  0.85974094  0.41737590  0.50654042  1
  Na  Na43  1  0.85959076  0.41725090  0.75671820  1
  Na  Na44  1  0.85975271  0.74974728  0.00626353  1
  Na  Na45  1  0.85921973  0.74923031  0.25537251  1
  Na  Na46  1  0.85927141  0.75011515  0.50684622  1
  Na  Na47  1  0.85923390  0.74997251  0.75779301  1
  Na  Na48  1  0.11052948  0.08252197  0.11725407  1
  Na  Na49  1  0.10955983  0.08307394  0.36900932  1
  Na  Na50  1  0.10931698  0.08414446  0.61997263  1
  Na  Na51  1  0.11023580  0.08323197  0.86922614  1
  Na  Na52  1  0.11001195  0.41811908  0.11884962  1
  Na  Na53  1  0.10948560  0.41682279  0.37045517  1
  Na  Na54  1  0.10940747  0.41714793  0.61980877  1
  Na  Na55  1  0.10971716  0.41730486  0.86834394  1
  Na  Na56  1  0.10878160  0.74929371  0.11762657  1
  Na  Na57  1  0.10929993  0.74772630  0.36952580  1
  Na  Na58  1  0.10962726  0.74768374  0.61926963  1
  Na  Na59  1  0.10957062  0.74846802  0.86898412  1
  Na  Na60  1  0.61004015  0.08158306  0.11808005  1
  Na  Na61  1  0.60991591  0.08456023  0.36874562  1
  Na  Na62  1  0.60950422  0.08330863  0.61803916  1
  Na  Na63  1  0.60941472  0.08210631  0.86799578  1
  Na  Na64  1  0.60994833  0.41804524  0.11850082  1
  Na  Na65  1  0.60926961  0.41856319  0.36775870  1
  Na  Na66  1  0.60941072  0.41655388  0.61826216  1
  Na  Na67  1  0.60998840  0.41811611  0.86789496  1
  Na  Na68  1  0.60863042  0.74946372  0.11750297  1
  Na  Na69  1  0.60904335  0.74976638  0.36900683  1
  Na  Na70  1  0.60956135  0.75098543  0.61909828  1
  Na  Na71  1  0.60981832  0.75021189  0.86820054  1
  Na  Na72  1  0.39095150  0.24964252  0.13163201  1
  Na  Na73  1  0.39125675  0.25098866  0.38116916  1
  Na  Na74  1  0.39059837  0.25010925  0.63178198  1
  Na  Na75  1  0.39052390  0.25042182  0.88239228  1
  Na  Na76  1  0.39062051  0.58227392  0.13114614  1
  Na  Na77  1  0.39032263  0.58409154  0.38096161  1
  Na  Na78  1  0.39068137  0.58423617  0.63147009  1
  Na  Na79  1  0.39039698  0.58464397  0.88189899  1
  Na  Na80  1  0.39034221  0.91590707  0.13089663  1
  Na  Na81  1  0.39087186  0.91769081  0.38075025  1
  Na  Na82  1  0.39077584  0.91626146  0.63135376  1
  Na  Na83  1  0.39078809  0.91592785  0.88240571  1
  Na  Na84  1  0.89098528  0.25069226  0.13065154  1
  Na  Na85  1  0.89045754  0.25038088  0.38162795  1
  Na  Na86  1  0.88993728  0.25208937  0.63130300  1
  Na  Na87  1  0.89033505  0.25148962  0.88110383  1
  Na  Na88  1  0.88962524  0.58293727  0.12992121  1
  Na  Na89  1  0.88997199  0.58164392  0.38116548  1
  Na  Na90  1  0.89034285  0.58233275  0.63145204  1
  Na  Na91  1  0.89002390  0.58385700  0.88155279  1
  Na  Na92  1  0.89013118  0.91664529  0.12951926  1
  Na  Na93  1  0.89037881  0.91567698  0.38141747  1
  Na  Na94  1  0.88976833  0.91550864  0.63254041  1
  Na  Na95  1  0.88977316  0.91580764  0.88236728  1
  Mn  Mn96  1  0.49957253  0.16720017  0.74988271  1
  Mn  Mn97  1  0.49991405  0.50085655  0.74955730  1
  Mn  Mn98  1  0.50008943  0.83304637  0.24992572  1
  Mn  Mn99  1  0.25004074  0.00034637  0.37480404  1
  Mn  Mn100  1  -0.00046827  0.16767052  0.50008203  1
  Mn  Mn101  1  -0.00110078  0.16768117  0.75007359  1
  Mn  Mn102  1  0.75078074  0.00118876  0.37488605  1
  Mn  Mn103  1  0.00061671  0.16681179  0.00008589  1
  Mn  Mn104  1  0.24953699  0.50142800  0.37649177  1
  Mn  Mn105  1  0.75068944  0.16576956  0.12348759  1
  Mn  Mn106  1  0.25084951  0.33286589  0.12521069  1
  Mn  Mn107  1  0.00076655  0.33449763  0.25059537  1
  Mn  Mn108  1  0.25046461  0.83224767  0.62499883  1
  Mn  Mn109  1  0.74982656  0.83415133  0.37535697  1
  Mn  Mn110  1  0.25023569  0.50026404  0.62578993  1
  Mn  Mn111  1  -0.00012259  -0.00072387  0.50027148  1
  Mn  Mn112  1  0.00033039  0.83164041  0.75070872  1
  Mn  Mn113  1  0.00094620  0.33504667  0.00057983  1
  Mn  Mn114  1  0.00032565  -0.00077344  0.24975596  1
  Mn  Mn115  1  0.24943632  0.16787069  0.62621906  1
  Mn  Mn116  1  0.25070229  0.33423359  0.37456119  1
  Mn  Mn117  1  0.00042094  0.83100498  0.50095133  1
  Mn  Mn118  1  0.50099090  0.33460493  0.00060933  1
  Mn  Mn119  1  0.50110827  0.16609801  0.00072331  1
  Mn  Mn120  1  0.75000700  0.33412856  0.37412572  1
  Mn  Mn121  1  0.24910819  0.83335958  0.12500494  1
  Mn  Mn122  1  0.25039122  0.49892223  0.87450534  1
  Mn  Mn123  1  0.25032667  0.83251911  0.87513991  1
  Mn  Mn124  1  0.75012572  0.66765097  0.62520972  1
  Mn  Mn125  1  0.00042088  0.16669983  0.25012864  1
  Mn  Mn126  1  -0.00016120  0.83228714  0.24967374  1
  Mn  Mn127  1  0.74971716  0.16752275  0.62552294  1
  Mn  Mn128  1  0.75089791  0.33394892  0.12445882  1
  Mn  Mn129  1  0.74902708  0.66644414  0.37521877  1
  Mn  Mn130  1  0.49928327  -0.00079158  0.74958522  1
  Mn  Mn131  1  0.50048583  0.16648896  0.24996647  1
  Mn  Mn132  1  0.74949847  0.50001734  0.62517594  1
  Mn  Mn133  1  0.74981513  0.16641399  0.87430009  1
  Mn  Mn134  1  0.74905039  0.66567818  0.12488516  1
  Mn  Mn135  1  0.24926560  0.66537522  0.12524200  1
  Mn  Mn136  1  0.49990448  0.83358086  0.49937969  1
  Mn  Mn137  1  -0.00020652  -0.00044536  0.75034690  1
  Mn  Mn138  1  0.25043277  0.83258164  0.37456034  1
  Mn  Mn139  1  -0.00093861  0.66497660  0.24907884  1
  Mn  Mn140  1  0.49985685  0.33406948  0.49967582  1
  Mn  Mn141  1  0.25032338  0.16709119  0.37512172  1
  Mn  Mn142  1  0.74904040  0.83370278  0.12485916  1
  Mn  Mn143  1  0.25005098  0.00017836  0.62535510  1
  Fe  Fe144  1  0.50020202  0.66645613  -0.00044424  1
  Fe  Fe145  1  0.50001009  0.83262812  0.00037172  1
  Fe  Fe146  1  0.74940552  -0.00051144  0.87461671  1
  Fe  Fe147  1  0.49939383  0.50054917  0.00014623  1
  Fe  Fe148  1  0.50011927  -0.00108950  -0.00041843  1
  Fe  Fe149  1  -0.00102476  0.66487920  0.49997647  1
  Fe  Fe150  1  -0.00023588  0.49967593  0.25055389  1
  Fe  Fe151  1  0.74965828  0.83415076  0.62612364  1
  Fe  Fe152  1  0.25059321  0.16613076  0.87534141  1
  Fe  Fe153  1  0.74965486  0.50028590  0.37492091  1
  Fe  Fe154  1  0.74962894  0.49969148  0.87438820  1
  Fe  Fe155  1  0.25057716  0.33344396  0.62589981  1
  Fe  Fe156  1  0.50032593  0.00009867  0.25024497  1
  Fe  Fe157  1  0.24991113  0.66659467  0.62546450  1
  Fe  Fe158  1  0.74974488  0.66685797  0.87485437  1
  Fe  Fe159  1  0.24976604  0.66667666  0.37476755  1
  Fe  Fe160  1  0.75011709  0.16741641  0.37495626  1
  Fe  Fe161  1  -0.00022858  0.50049850  0.74985071  1
  Fe  Fe162  1  -0.00025938  0.49956024  0.50090285  1
  Fe  Fe163  1  0.74985632  0.00022850  0.62566177  1
  Fe  Fe164  1  0.74966660  0.49985588  0.12378086  1
  Fe  Fe165  1  0.00007610  0.33419043  0.50079700  1
  Fe  Fe166  1  -0.00005836  0.83259513  -0.00036528  1
  Fe  Fe167  1  0.50012099  0.83277658  0.75066474  1
  Fe  Fe168  1  0.49987408  0.50092003  0.49906381  1
  Fe  Fe169  1  0.25062040  -0.00012016  0.87507697  1
  Fe  Fe170  1  0.50018859  0.50086175  0.24950304  1
  Fe  Fe171  1  0.74996864  0.33350230  0.87455835  1
  Fe  Fe172  1  0.75010584  0.83367456  0.87516660  1
  Fe  Fe173  1  0.25040344  0.49962563  0.12497125  1
  Fe  Fe174  1  0.50006819  0.33381306  0.74978138  1
  Fe  Fe175  1  0.74945733  0.33402430  0.62462828  1
  Fe  Fe176  1  0.25012243  0.66558322  0.87542198  1
  Fe  Fe177  1  0.25044060  0.00024159  0.12415998  1
  Fe  Fe178  1  -0.00080134  0.66561873  0.75043354  1
  Fe  Fe179  1  0.50015675  0.00064130  0.50029535  1
  Fe  Fe180  1  0.25103731  0.16602472  0.12414716  1
  Fe  Fe181  1  -0.00050658  0.50072050  -0.00088139  1
  Fe  Fe182  1  -0.00029955  -0.00044989  -0.00034726  1
  Fe  Fe183  1  0.25018688  0.33241466  0.87598415  1
  Fe  Fe184  1  0.50047316  0.16726881  0.49963949  1
  Fe  Fe185  1  0.50059742  0.33417842  0.25034226  1
  Fe  Fe186  1  0.00009669  0.66593330  -0.00041139  1
  Fe  Fe187  1  0.00013913  0.33447316  0.75038793  1
  Fe  Fe188  1  0.50004042  0.66729399  0.75025529  1
  Fe  Fe189  1  0.49968866  0.66683003  0.49973076  1
  Fe  Fe190  1  0.74982037  -0.00023475  0.12459997  1
  Fe  Fe191  1  0.49960206  0.66623098  0.24924390  1
  P  P192  1  0.04377005  0.25076202  0.10323864  1
  P  P193  1  0.04319707  0.25077612  0.35387509  1
  P  P194  1  0.04174573  0.25230727  0.60347424  1
  P  P195  1  0.04211464  0.25178834  0.85263988  1
  P  P196  1  0.04124582  0.58264012  0.10138754  1
  P  P197  1  0.04148438  0.58133155  0.35330621  1
  P  P198  1  0.04101492  0.58274653  0.60276022  1
  P  P199  1  0.04126669  0.58304212  0.85218974  1
  P  P200  1  0.04163064  0.91592014  0.10086719  1
  P  P201  1  0.04315200  0.91523135  0.35320927  1
  P  P202  1  0.04286842  0.91538679  0.60367420  1
  P  P203  1  0.04223822  0.91579926  0.85441420  1
  P  P204  1  0.54348503  0.25057749  0.10384351  1
  P  P205  1  0.54247078  0.25154736  0.35251762  1
  P  P206  1  0.54221849  0.24943377  0.60232260  1
  P  P207  1  0.54228616  0.25169823  0.85240492  1
  P  P208  1  0.54143553  0.58352967  0.10164175  1
  P  P209  1  0.54094147  0.58404913  0.35174559  1
  P  P210  1  0.54123019  0.58378046  0.60142780  1
  P  P211  1  0.54184902  0.58523407  0.85271619  1
  P  P212  1  0.54130587  0.91621452  0.10163766  1
  P  P213  1  0.54218035  0.91823821  0.35277847  1
  P  P214  1  0.54192955  0.91744960  0.60239067  1
  P  P215  1  0.54173571  0.91509338  0.85322288  1
  P  P216  1  0.45861308  0.08130181  0.14707344  1
  P  P217  1  0.45906231  0.08381156  0.39805720  1
  P  P218  1  0.45727580  0.08350377  0.64605304  1
  P  P219  1  0.45822259  0.08212755  0.89784095  1
  P  P220  1  0.45915615  0.41714285  0.14830797  1
  P  P221  1  0.45793059  0.41870176  0.39656678  1
  P  P222  1  0.45772331  0.41609708  0.64721410  1
  P  P223  1  0.45811028  0.41841334  0.89740847  1
  P  P224  1  0.45793607  0.74836275  0.14664397  1
  P  P225  1  0.45774977  0.74869586  0.39690475  1
  P  P226  1  0.45892056  0.75015201  0.64823033  1
  P  P227  1  0.45879527  0.74997130  0.89814321  1
  P  P228  1  0.95795574  0.08282537  0.14604656  1
  P  P229  1  0.95697343  0.08322562  0.39702854  1
  P  P230  1  0.95655578  0.08357461  0.64708868  1
  P  P231  1  0.95780771  0.08248927  0.89767989  1
  P  P232  1  0.95787734  0.41875805  0.14737125  1
  P  P233  1  0.95817953  0.41693103  0.39879148  1
  P  P234  1  0.95841977  0.41733135  0.64822333  1
  P  P235  1  0.95814906  0.41858971  0.89657436  1
  P  P236  1  0.95689171  0.74936991  0.14543314  1
  P  P237  1  0.95698362  0.74740892  0.39768469  1
  P  P238  1  0.95731322  0.74716405  0.64778343  1
  P  P239  1  0.95853517  0.74898150  0.89827271  1
  P  P240  1  0.20884608  0.08359823  0.22585745  1
  P  P241  1  0.20713641  0.08399644  0.47844158  1
  P  P242  1  0.20735454  0.08344934  0.72965400  1
  P  P243  1  0.20926890  0.08292360  0.97714805  1
  P  P244  1  0.20815662  0.41807158  0.22751377  1
  P  P245  1  0.20773767  0.41672957  0.47931540  1
  P  P246  1  0.20821865  0.41501044  0.72843157  1
  P  P247  1  0.20820272  0.41497467  0.97786869  1
  P  P248  1  0.20648416  0.74938272  0.22826165  1
  P  P249  1  0.20790188  0.74822542  0.47783788  1
  P  P250  1  0.20806250  0.74813775  0.72832008  1
  P  P251  1  0.20793611  0.74800091  0.97744580  1
  P  P252  1  0.70801436  0.08263108  0.22710770  1
  P  P253  1  0.70800184  0.08535956  0.47772580  1
  P  P254  1  0.70730389  0.08195943  0.72776577  1
  P  P255  1  0.70749063  0.08165292  0.97699361  1
  P  P256  1  0.70815774  0.41826017  0.22718409  1
  P  P257  1  0.70723294  0.41812159  0.47718030  1
  P  P258  1  0.70753204  0.41556032  0.72793915  1
  P  P259  1  0.70862000  0.41679519  0.97627074  1
  P  P260  1  0.70623389  0.74969924  0.22777862  1
  P  P261  1  0.70690827  0.75114766  0.47892851  1
  P  P262  1  0.70815182  0.75171130  0.72873053  1
  P  P263  1  0.70851653  0.75010191  0.97625337  1
  P  P264  1  0.29299975  0.24814511  0.02192684  1
  P  P265  1  0.29366995  0.24984356  0.27123472  1
  P  P266  1  0.29276067  0.25172785  0.52319106  1
  P  P267  1  0.29188203  0.25012216  0.77402209  1
  P  P268  1  0.29219066  0.58144537  0.02213584  1
  P  P269  1  0.29197262  0.58418179  0.27241079  1
  P  P270  1  0.29207261  0.58514961  0.52292458  1
  P  P271  1  0.29226453  0.58439672  0.77243534  1
  P  P272  1  0.29185708  0.91749136  0.02202599  1
  P  P273  1  0.29283156  0.91695143  0.27103696  1
  P  P274  1  0.29326908  0.91639329  0.52196027  1
  P  P275  1  0.29276114  0.91732097  0.77307896  1
  P  P276  1  0.79319244  0.25036933  0.02065104  1
  P  P277  1  0.79276308  0.24890503  0.27214372  1
  P  P278  1  0.79190223  0.25178800  0.52227590  1
  P  P279  1  0.79193016  0.25154707  0.77199822  1
  P  P280  1  0.79120782  0.58206474  0.02094552  1
  P  P281  1  0.79154411  0.58179747  0.27205087  1
  P  P282  1  0.79195971  0.58336564  0.52173934  1
  P  P283  1  0.79070120  0.58332068  0.77351236  1
  P  P284  1  0.79132429  0.91752479  0.02151234  1
  P  P285  1  0.79273930  0.91706399  0.27145130  1
  P  P286  1  0.79142527  0.91730543  0.52418059  1
  P  P287  1  0.79130730  0.91656481  0.77303804  1
  O  O288  1  0.03869827  0.25064106  0.18321610  1
  O  O289  1  0.03779493  0.25117816  0.43383978  1
  O  O290  1  0.03611921  0.25249558  0.68339805  1
  O  O291  1  0.03745631  0.25150458  0.93262558  1
  O  O292  1  0.03664989  0.58252855  0.18133278  1
  O  O293  1  0.03603571  0.58157168  0.43316398  1
  O  O294  1  0.03585585  0.58312611  0.68267188  1
  O  O295  1  0.03615948  0.58303985  0.93205135  1
  O  O296  1  0.03689176  0.91578284  0.18090252  1
  O  O297  1  0.03820704  0.91519713  0.43320280  1
  O  O298  1  0.03778142  0.91532400  0.68368550  1
  O  O299  1  0.03670849  0.91585967  0.93433041  1
  O  O300  1  0.53811683  0.25104390  0.18375377  1
  O  O301  1  0.53691024  0.25096394  0.43243019  1
  O  O302  1  0.53685172  0.24995779  0.68224657  1
  O  O303  1  0.53768143  0.25147775  0.93241129  1
  O  O304  1  0.53630318  0.58342669  0.18152735  1
  O  O305  1  0.53593871  0.58382476  0.43163047  1
  O  O306  1  0.53622220  0.58389345  0.68136898  1
  O  O307  1  0.53692380  0.58522934  0.93253686  1
  O  O308  1  0.53689846  0.91621634  0.18162302  1
  O  O309  1  0.53663136  0.91847752  0.43266687  1
  O  O310  1  0.53678240  0.91665858  0.68227922  1
  O  O311  1  0.53633040  0.91547771  0.93308872  1
  O  O312  1  0.46402843  0.08116117  0.06716930  1
  O  O313  1  0.46427717  0.08329726  0.31807201  1
  O  O314  1  0.46273714  0.08390337  0.56615916  1
  O  O315  1  0.46296250  0.08239981  0.81786288  1
  O  O316  1  0.46399921  0.41782992  0.06833968  1
  O  O317  1  0.46347410  0.41837428  0.31672838  1
  O  O318  1  0.46266943  0.41641983  0.56731652  1
  O  O319  1  0.46310270  0.41772761  0.81747890  1
  O  O320  1  0.46345763  0.74855147  0.06679430  1
  O  O321  1  0.46303659  0.74861622  0.31698902  1
  O  O322  1  0.46345955  0.74963488  0.56826175  1
  O  O323  1  0.46354184  0.75054631  0.81822381  1
  O  O324  1  0.96318840  0.08240169  0.06606504  1
  O  O325  1  0.96229214  0.08327477  0.31702157  1
  O  O326  1  0.96167192  0.08358710  0.56713265  1
  O  O327  1  0.96255297  0.08271375  0.81768093  1
  O  O328  1  0.96300258  0.41885701  0.06743771  1
  O  O329  1  0.96329609  0.41741307  0.31884286  1
  O  O330  1  0.96372369  0.41708554  0.56834085  1
  O  O331  1  0.96348314  0.41823238  0.81671569  1
  O  O332  1  0.96237947  0.74962973  0.06555586  1
  O  O333  1  0.96188637  0.74786078  0.31767192  1
  O  O334  1  0.96237659  0.74698462  0.56781951  1
  O  O335  1  0.96320581  0.74838280  0.81829470  1
  O  O336  1  0.21448752  0.08294256  0.05708621  1
  O  O337  1  0.21351850  0.08358567  0.30589718  1
  O  O338  1  0.21192586  0.08409273  0.55845141  1
  O  O339  1  0.21308965  0.08325934  0.80956221  1
  O  O340  1  0.21366379  0.41590672  0.05775946  1
  O  O341  1  0.21318138  0.41825377  0.30750523  1
  O  O342  1  0.21310286  0.41618098  0.55924844  1
  O  O343  1  0.21363567  0.41474432  0.80836312  1
  O  O344  1  0.21254471  0.74840071  0.05741490  1
  O  O345  1  0.21184162  0.74909024  0.30819939  1
  O  O346  1  0.21329146  0.74811318  0.55783702  1
  O  O347  1  0.21320401  0.74792240  0.80828596  1
  O  O348  1  0.71291198  0.08152835  0.05691587  1
  O  O349  1  0.71335417  0.08375647  0.30703859  1
  O  O350  1  0.71299764  0.08488273  0.55764677  1
  O  O351  1  0.71256115  0.08177379  0.80770465  1
  O  O352  1  0.71375503  0.41738786  0.05624565  1
  O  O353  1  0.71327014  0.41854374  0.30714815  1
  O  O354  1  0.71213087  0.41742109  0.55714511  1
  O  O355  1  0.71289294  0.41554079  0.80781624  1
  O  O356  1  0.71269856  0.74968891  0.05625828  1
  O  O357  1  0.71115882  0.74972428  0.30773414  1
  O  O358  1  0.71231159  0.75170379  0.55891391  1
  O  O359  1  0.71370915  0.75136641  0.80862277  1
  O  O360  1  0.28858631  0.24917868  0.19126526  1
  O  O361  1  0.28796817  0.25142007  0.44318673  1
  O  O362  1  0.28672096  0.25094733  0.69404934  1
  O  O363  1  0.28732142  0.24838683  0.94207226  1
  O  O364  1  0.28683034  0.58288606  0.19246485  1
  O  O365  1  0.28695265  0.58547246  0.44297493  1
  O  O366  1  0.28708464  0.58477322  0.69249369  1
  O  O367  1  0.28714353  0.58197153  0.94215908  1
  O  O368  1  0.28736507  0.91750006  0.19106626  1
  O  O369  1  0.28820234  0.91626721  0.44195860  1
  O  O370  1  0.28782887  0.91678493  0.69312253  1
  O  O371  1  0.28667498  0.91751981  0.94206860  1
  O  O372  1  0.78790625  0.24912994  0.19213921  1
  O  O373  1  0.78670734  0.25113055  0.44232700  1
  O  O374  1  0.78646472  0.25169763  0.69206884  1
  O  O375  1  0.78766145  0.25088266  0.94073178  1
  O  O376  1  0.78630623  0.58150556  0.19205270  1
  O  O377  1  0.78665602  0.58285149  0.44181239  1
  O  O378  1  0.78634496  0.58373416  0.69352468  1
  O  O379  1  0.78570323  0.58258620  0.94109188  1
  O  O380  1  0.78744167  0.91720311  0.19151548  1
  O  O381  1  0.78684573  0.91738927  0.44415775  1
  O  O382  1  0.78611281  0.91644592  0.69312454  1
  O  O383  1  0.78597421  0.91716022  0.94160251  1
  O  O384  1  0.22894806  0.24809408  0.05819970  1
  O  O385  1  0.22924844  0.25020380  0.30643523  1
  O  O386  1  0.22829363  0.25228542  0.55844483  1
  O  O387  1  0.22773361  0.24949427  0.81004109  1
  O  O388  1  0.22782421  0.58066317  0.05755676  1
  O  O389  1  0.22765370  0.58508323  0.30803892  1
  O  O390  1  0.22779566  0.58477235  0.55856786  1
  O  O391  1  0.22798300  0.58384247  0.80802502  1
  O  O392  1  0.22762372  0.91793801  0.05774175  1
  O  O393  1  0.22856709  0.91657200  0.30651855  1
  O  O394  1  0.22885109  0.91613852  0.55704591  1
  O  O395  1  0.22843147  0.91732928  0.80843643  1
  O  O396  1  0.72899908  0.25027125  0.05623248  1
  O  O397  1  0.72839086  0.24908615  0.30755710  1
  O  O398  1  0.72764559  0.25196889  0.55806792  1
  O  O399  1  0.72771871  0.25125988  0.80780657  1
  O  O400  1  0.72710213  0.58148206  0.05721584  1
  O  O401  1  0.72724820  0.58172738  0.30777271  1
  O  O402  1  0.72769032  0.58385411  0.55716417  1
  O  O403  1  0.72644467  0.58316896  0.80876869  1
  O  O404  1  0.72717906  0.91821392  0.05763152  1
  O  O405  1  0.72840098  0.91752785  0.30676268  1
  O  O406  1  0.72713188  0.91739116  0.55974735  1
  O  O407  1  0.72721311  0.91628714  0.80929878  1
  O  O408  1  0.27318116  0.08345287  0.19033075  1
  O  O409  1  0.27171184  0.08376055  0.44369420  1
  O  O410  1  0.27149608  0.08395230  0.69376953  1
  O  O411  1  0.27328830  0.08326656  0.94077706  1
  O  O412  1  0.27253649  0.41807049  0.19209409  1
  O  O413  1  0.27199038  0.41743503  0.44379053  1
  O  O414  1  0.27241296  0.41532398  0.69257345  1
  O  O415  1  0.27244295  0.41472740  0.94209303  1
  O  O416  1  0.27083041  0.74942198  0.19301906  1
  O  O417  1  0.27213294  0.74786960  0.44193638  1
  O  O418  1  0.27240976  0.74809689  0.69282116  1
  O  O419  1  0.27238206  0.74810822  0.94240734  1
  O  O420  1  0.77223404  0.08148861  0.19116797  1
  O  O421  1  0.77230318  0.08578851  0.44206570  1
  O  O422  1  0.77156545  0.08231447  0.69213059  1
  O  O423  1  0.77169283  0.08182197  0.94116554  1
  O  O424  1  0.77241312  0.41882716  0.19141147  1
  O  O425  1  0.77161789  0.41841418  0.44175197  1
  O  O426  1  0.77170686  0.41546450  0.69191281  1
  O  O427  1  0.77269795  0.41656376  0.94019750  1
  O  O428  1  0.77064757  0.74973418  0.19278479  1
  O  O429  1  0.77117236  0.75025323  0.44344531  1
  O  O430  1  0.77223070  0.75189974  0.69251434  1
  O  O431  1  0.77284444  0.75048501  0.94100631  1
  O  O432  1  0.02229054  0.08297908  0.18147154  1
  O  O433  1  0.02139239  0.08343050  0.43216003  1
  O  O434  1  0.02099231  0.08380670  0.68214809  1
  O  O435  1  0.02221810  0.08217205  0.93286916  1
  O  O436  1  0.02223279  0.41878665  0.18300839  1
  O  O437  1  0.02231738  0.41672449  0.43500987  1
  O  O438  1  0.02243714  0.41762431  0.68475571  1
  O  O439  1  0.02233078  0.41923997  0.93267344  1
  O  O440  1  0.02109584  0.74878896  0.18129459  1
  O  O441  1  0.02138310  0.74671865  0.43312998  1
  O  O442  1  0.02167301  0.74688820  0.68337427  1
  O  O443  1  0.02272123  0.74971762  0.93404903  1
  O  O444  1  0.52277352  0.08149885  0.18309975  1
  O  O445  1  0.52311513  0.08420689  0.43437654  1
  O  O446  1  0.52143648  0.08330471  0.68192155  1
  O  O447  1  0.52262000  0.08159490  0.93312799  1
  O  O448  1  0.52325920  0.41650805  0.18434553  1
  O  O449  1  0.52200843  0.41882968  0.43289673  1
  O  O450  1  0.52202506  0.41603242  0.68291118  1
  O  O451  1  0.52244400  0.41920880  0.93299954  1
  O  O452  1  0.52196240  0.74823385  0.18308124  1
  O  O453  1  0.52190878  0.74863169  0.43294189  1
  O  O454  1  0.52308163  0.75092796  0.68420365  1
  O  O455  1  0.52292795  0.74927498  0.93422595  1
  O  O456  1  0.47921460  0.25038536  0.06834584  1
  O  O457  1  0.47837452  0.25183714  0.31633689  1
  O  O458  1  0.47803845  0.24899910  0.56637733  1
  O  O459  1  0.47784696  0.25191439  0.81717454  1
  O  O460  1  0.47731377  0.58388723  0.06532643  1
  O  O461  1  0.47694563  0.58444086  0.31529647  1
  O  O462  1  0.47712819  0.58352204  0.56520072  1
  O  O463  1  0.47765371  0.58499945  0.81680552  1
  O  O464  1  0.47706778  0.91668235  0.06601022  1
  O  O465  1  0.47807080  0.91800933  0.31655457  1
  O  O466  1  0.47774963  0.91786026  0.56649549  1
  O  O467  1  0.47764080  0.91453676  0.81694247  1
  O  O468  1  0.97930866  0.25089449  0.06823720  1
  O  O469  1  0.97886652  0.25076670  0.31841668  1
  O  O470  1  0.97762211  0.25253637  0.56731257  1
  O  O471  1  0.97768176  0.25231725  0.81745384  1
  O  O472  1  0.97699778  0.58253451  0.06561785  1
  O  O473  1  0.97734434  0.58100961  0.31699084  1
  O  O474  1  0.97700052  0.58247055  0.56623020  1
  O  O475  1  0.97710721  0.58275272  0.81588133  1
  O  O476  1  0.97737215  0.91576765  0.06515423  1
  O  O477  1  0.97861137  0.91567210  0.31831181  1
  O  O478  1  0.97840596  0.91503238  0.56870529  1
  O  O479  1  0.97805169  0.91537257  0.81855780  1
  O  O480  1  0.07471137  0.31434262  0.07533282  1
  O  O481  1  0.07447571  0.31403175  0.32550401  1
  O  O482  1  0.07290194  0.31550218  0.57488221  1
  O  O483  1  0.07296914  0.31525079  0.82426836  1
  O  O484  1  0.07150093  0.64663263  0.07280222  1
  O  O485  1  0.07243936  0.64480874  0.32486154  1
  O  O486  1  0.07168011  0.64624440  0.57383766  1
  O  O487  1  0.07184555  0.64681706  0.82378848  1
  O  O488  1  0.07211631  0.97986225  0.07289762  1
  O  O489  1  0.07431856  0.97862634  0.32495144  1
  O  O490  1  0.07366735  0.97903580  0.57569819  1
  O  O491  1  0.07323597  0.97930623  0.82613204  1
  O  O492  1  0.57480341  0.31371409  0.07528587  1
  O  O493  1  0.57323951  0.31528048  0.32453642  1
  O  O494  1  0.57330540  0.31296345  0.57432630  1
  O  O495  1  0.57275272  0.31530005  0.82373998  1
  O  O496  1  0.57278985  0.64678387  0.07322801  1
  O  O497  1  0.57232882  0.64734654  0.32348187  1
  O  O498  1  0.57203685  0.64747812  0.57330807  1
  O  O499  1  0.57225931  0.64879715  0.82345414  1
  O  O500  1  0.57270496  0.97928022  0.07298165  1
  O  O501  1  0.57305773  0.98156773  0.32407730  1
  O  O502  1  0.57267356  0.98118193  0.57424521  1
  O  O503  1  0.57266511  0.97867613  0.82497123  1
  O  O504  1  0.42773105  0.01805919  0.17591673  1
  O  O505  1  0.42821615  0.02026683  0.42646996  1
  O  O506  1  0.42592944  0.02011903  0.67416780  1
  O  O507  1  0.42731766  0.01862526  0.92602943  1
  O  O508  1  0.42799149  0.35351216  0.17597149  1
  O  O509  1  0.42661870  0.35526412  0.42466489  1
  O  O510  1  0.42741536  0.35237388  0.67603435  1
  O  O511  1  0.42734771  0.35490942  0.92599516  1
  O  O512  1  0.42687900  0.68497532  0.17510088  1
  O  O513  1  0.42677491  0.68557998  0.42589375  1
  O  O514  1  0.42883403  0.68625305  0.67717884  1
  O  O515  1  0.42732826  0.68665974  0.92626471  1
  O  O516  1  0.92677789  0.01952471  0.17440926  1
  O  O517  1  0.92612264  0.01957087  0.42495952  1
  O  O518  1  0.92576088  0.01999735  0.67525138  1
  O  O519  1  0.92705960  0.01889518  0.92601511  1
  O  O520  1  0.92709276  0.35490274  0.17525026  1
  O  O521  1  0.92747889  0.35305637  0.42669077  1
  O  O522  1  0.92768078  0.35376729  0.67692372  1
  O  O523  1  0.92740868  0.35498283  0.92503631  1
  O  O524  1  0.92539530  0.68607189  0.17360793  1
  O  O525  1  0.92601640  0.68396031  0.42587218  1
  O  O526  1  0.92612713  0.68409604  0.67668940  1
  O  O527  1  0.92829596  0.68512861  0.92695532  1
  O  O528  1  0.17808858  0.01988606  0.19758940  1
  O  O529  1  0.17615765  0.02052702  0.45021138  1
  O  O530  1  0.17634144  0.02000403  0.70121229  1
  O  O531  1  0.17861862  0.01913973  0.94878663  1
  O  O532  1  0.17723736  0.35431136  0.19994928  1
  O  O533  1  0.17679731  0.35361495  0.45030396  1
  O  O534  1  0.17735454  0.35178604  0.69967098  1
  O  O535  1  0.17760190  0.35112071  0.94993830  1
  O  O536  1  0.17508855  0.68622838  0.19981330  1
  O  O537  1  0.17667871  0.68508223  0.44919980  1
  O  O538  1  0.17705277  0.68494823  0.69937548  1
  O  O539  1  0.17754670  0.68417777  0.94917631  1
  O  O540  1  0.67693784  0.01904345  0.19916630  1
  O  O541  1  0.67703131  0.02179984  0.44957548  1
  O  O542  1  0.67663037  0.01856781  0.69889726  1
  O  O543  1  0.67653241  0.01842001  0.94822803  1
  O  O544  1  0.67790442  0.35393710  0.19978539  1
  O  O545  1  0.67615341  0.35478396  0.44866126  1
  O  O546  1  0.67668727  0.35233038  0.69879124  1
  O  O547  1  0.67774131  0.35292576  0.94864625  1
  O  O548  1  0.67540939  0.68620158  0.19940325  1
  O  O549  1  0.67548414  0.68771880  0.45110806  1
  O  O550  1  0.67700208  0.68810092  0.70073975  1
  O  O551  1  0.67827493  0.68620440  0.94759073  1
  O  O552  1  0.32430595  0.31166427  0.04992490  1
  O  O553  1  0.32448820  0.31365044  0.29900694  1
  O  O554  1  0.32369273  0.31512758  0.55166965  1
  O  O555  1  0.32258001  0.31362709  0.80282753  1
  O  O556  1  0.32291364  0.64508035  0.05036360  1
  O  O557  1  0.32279934  0.64794623  0.30014449  1
  O  O558  1  0.32295666  0.64833733  0.55194514  1
  O  O559  1  0.32287384  0.64769603  0.80168416  1
  O  O560  1  0.32311421  0.98063851  0.05061494  1
  O  O561  1  0.32398645  0.98017555  0.29966099  1
  O  O562  1  0.32404647  0.97995167  0.55006374  1
  O  O563  1  0.32337530  0.98099052  0.80134390  1
  O  O564  1  0.82454766  0.31349902  0.04927068  1
  O  O565  1  0.82378962  0.31264333  0.29984842  1
  O  O566  1  0.82224789  0.31569286  0.55054237  1
  O  O567  1  0.82277496  0.31483850  0.80079863  1
  O  O568  1  0.82202394  0.64572598  0.04930508  1
  O  O569  1  0.82229308  0.64581410  0.29951588  1
  O  O570  1  0.82316357  0.64683223  0.54970747  1
  O  O571  1  0.82126805  0.64703277  0.80214571  1
  O  O572  1  0.82253613  0.98076033  0.05008360  1
  O  O573  1  0.82435978  0.98004202  0.29992263  1
  O  O574  1  0.82215376  0.98104752  0.55230484  1
  O  O575  1  0.82201103  0.98036801  0.80124218  1
  O  O576  1  0.42756195  0.14518068  0.17460094  1
  O  O577  1  0.42817475  0.14780410  0.42555857  1
  O  O578  1  0.42606458  0.14680569  0.67484551  1
  O  O579  1  0.42767886  0.14602632  0.92584163  1
  O  O580  1  0.42862781  0.48093632  0.17693722  1
  O  O581  1  0.42704059  0.48218194  0.42530304  1
  O  O582  1  0.42635935  0.47953850  0.67514408  1
  O  O583  1  0.42711935  0.48198627  0.92568212  1
  O  O584  1  0.42675231  0.81197425  0.17471200  1
  O  O585  1  0.42687589  0.81267878  0.42444717  1
  O  O586  1  0.42759299  0.81355824  0.67640053  1
  O  O587  1  0.42841568  0.81372007  0.92732673  1
  O  O588  1  0.92690565  0.14655710  0.17388646  1
  O  O589  1  0.92576579  0.14666773  0.42509318  1
  O  O590  1  0.92540336  0.14712371  0.67505186  1
  O  O591  1  0.92686742  0.14631419  0.92524423  1
  O  O592  1  0.92689520  0.48195205  0.17629443  1
  O  O593  1  0.92714460  0.48029940  0.42740492  1
  O  O594  1  0.92715526  0.48090315  0.67628581  1
  O  O595  1  0.92686945  0.48190349  0.92507161  1
  O  O596  1  0.92592464  0.81282918  0.17409788  1
  O  O597  1  0.92635049  0.81122610  0.42587905  1
  O  O598  1  0.92668412  0.81114209  0.67567525  1
  O  O599  1  0.92716861  0.81248122  0.92610880  1
  O  O600  1  0.07472662  0.18729847  0.07490896  1
  O  O601  1  0.07421014  0.18713166  0.32583031  1
  O  O602  1  0.07268725  0.18832404  0.57608006  1
  O  O603  1  0.07273151  0.18788135  0.82478499  1
  O  O604  1  0.07251620  0.51946989  0.07271403  1
  O  O605  1  0.07256347  0.51791918  0.32468247  1
  O  O606  1  0.07221984  0.51908880  0.57483576  1
  O  O607  1  0.07253955  0.51972195  0.82360683  1
  O  O608  1  0.07261904  0.85229217  0.07278352  1
  O  O609  1  0.07373330  0.85152043  0.32490106  1
  O  O610  1  0.07409723  0.85185295  0.57577214  1
  O  O611  1  0.07380540  0.85248582  0.82622344  1
  O  O612  1  0.57448309  0.18682869  0.07595319  1
  O  O613  1  0.57378583  0.18809079  0.32455699  1
  O  O614  1  0.57319096  0.18588819  0.57400441  1
  O  O615  1  0.57319814  0.18789612  0.82466967  1
  O  O616  1  0.57182434  0.51960004  0.07305189  1
  O  O617  1  0.57143723  0.52024321  0.32283580  1
  O  O618  1  0.57202331  0.51997814  0.57325487  1
  O  O619  1  0.57338344  0.52197016  0.82441046  1
  O  O620  1  0.57136197  0.85197334  0.07317372  1
  O  O621  1  0.57327522  0.85437473  0.32530725  1
  O  O622  1  0.57313462  0.85407579  0.57406861  1
  O  O623  1  0.57284846  0.85172295  0.82463991  1
  O  O624  1  0.32402780  0.18470168  0.05049957  1
  O  O625  1  0.32481205  0.18663706  0.30004318  1
  O  O626  1  0.32329244  0.18788267  0.55138272  1
  O  O627  1  0.32304269  0.18631768  0.80154933  1
  O  O628  1  0.32320871  0.51798216  0.05065748  1
  O  O629  1  0.32294614  0.52085471  0.30125035  1
  O  O630  1  0.32317795  0.52132272  0.55051111  1
  O  O631  1  0.32361315  0.52058644  0.79964560  1
  O  O632  1  0.32251949  0.85343975  0.04969607  1
  O  O633  1  0.32404715  0.85327093  0.29872653  1
  O  O634  1  0.32436386  0.85283060  0.55009277  1
  O  O635  1  0.32385995  0.85372666  0.80118516  1
  O  O636  1  0.82424843  0.18660197  0.04829379  1
  O  O637  1  0.82326838  0.18530820  0.30076132  1
  O  O638  1  0.82334928  0.18858933  0.55068789  1
  O  O639  1  0.82310125  0.18767511  0.79935619  1
  O  O640  1  0.82248182  0.51872960  0.04935543  1
  O  O641  1  0.82266848  0.51868760  0.30111785  1
  O  O642  1  0.82305391  0.52006386  0.55041291  1
  O  O643  1  0.82159560  0.51953595  0.80134612  1
  O  O644  1  0.82216175  0.85370697  0.04957378  1
  O  O645  1  0.82337338  0.85320200  0.29970159  1
  O  O646  1  0.82203857  0.85345493  0.55238152  1
  O  O647  1  0.82261968  0.85320775  0.80169746  1
  O  O648  1  0.17823091  0.14739322  0.19766038  1
  O  O649  1  0.17640827  0.14765229  0.45014045  1
  O  O650  1  0.17578398  0.14682462  0.70156401  1
  O  O651  1  0.17792074  0.14637360  0.94886395  1
  O  O652  1  0.17742845  0.48156452  0.19882865  1
  O  O653  1  0.17641938  0.48045970  0.45181531  1
  O  O654  1  0.17716340  0.47897364  0.70111030  1
  O  O655  1  0.17678268  0.47814889  0.94927954  1
  O  O656  1  0.17554347  0.81304625  0.20010441  1
  O  O657  1  0.17719905  0.81225270  0.45023215  1
  O  O658  1  0.17719101  0.81206665  0.70060928  1
  O  O659  1  0.17680236  0.81153322  0.94946431  1
  O  O660  1  0.67719850  0.14618163  0.19854594  1
  O  O661  1  0.67737492  0.14898261  0.44901210  1
  O  O662  1  0.67607368  0.14571936  0.70026909  1
  O  O663  1  0.67640716  0.14554828  0.94948399  1
  O  O664  1  0.67657528  0.48107890  0.19815554  1
  O  O665  1  0.67655551  0.48186567  0.44888715  1
  O  O666  1  0.67631185  0.47934022  0.70019591  1
  O  O667  1  0.67763531  0.48026223  0.94756105  1
  O  O668  1  0.67512460  0.81316004  0.19954181  1
  O  O669  1  0.67606809  0.81461748  0.45032901  1
  O  O670  1  0.67709928  0.81511769  0.70010828  1
  O  O671  1  0.67743250  0.81368386  0.94832924  1
