# generated using pymatgen
data_Na2MnFe(PO4)2
_symmetry_space_group_name_H-M   'P 1'
_cell_length_a   22.34336356
_cell_length_b   20.09204305
_cell_length_c   19.44931234
_cell_angle_alpha   90.02853856
_cell_angle_beta   90.00129694
_cell_angle_gamma   90.00054518
_symmetry_Int_Tables_number   1
_chemical_formula_structural   Na2MnFe(PO4)2
_chemical_formula_sum   'Na96 Mn48 Fe48 P96 O384'
_cell_volume   8731.25855334
_cell_formula_units_Z   48
loop_
 _symmetry_equiv_pos_site_id
 _symmetry_equiv_pos_as_xyz
  1  'x, y, z'
loop_
 _atom_site_type_symbol
 _atom_site_label
 _atom_site_symmetry_multiplicity
 _atom_site_fract_x
 _atom_site_fract_y
 _atom_site_fract_z
 _atom_site_occupancy
  Na  Na0  1  0.14033812  0.25064420  0.24418750  1
  Na  Na1  1  0.14003821  0.24780800  0.49413928  1
  Na  Na2  1  0.13952224  0.24780686  0.74283136  1
  Na  Na3  1  0.14002714  0.24832442  0.99325277  1
  Na  Na4  1  0.14022200  0.58450739  0.24279317  1
  Na  Na5  1  0.13983608  0.58379155  0.49205394  1
  Na  Na6  1  0.14016114  0.58320517  0.74284838  1
  Na  Na7  1  0.14011026  0.58313522  0.99601822  1
  Na  Na8  1  0.14034231  0.91709910  0.24357031  1
  Na  Na9  1  0.14073121  0.91665403  0.49333755  1
  Na  Na10  1  0.14070392  0.91655069  0.74320173  1
  Na  Na11  1  0.13992792  0.91696407  0.99395321  1
  Na  Na12  1  0.64038570  0.25141555  0.24426773  1
  Na  Na13  1  0.63970662  0.25062484  0.49392297  1
  Na  Na14  1  0.63996080  0.25033610  0.74322510  1
  Na  Na15  1  0.64029361  0.24953049  0.99472285  1
  Na  Na16  1  0.64091966  0.58285653  0.24427017  1
  Na  Na17  1  0.64032981  0.58354866  0.49455017  1
  Na  Na18  1  0.63996604  0.58372127  0.74279668  1
  Na  Na19  1  0.64065469  0.58151794  0.99312891  1
  Na  Na20  1  0.64067089  0.91764772  0.24381031  1
  Na  Na21  1  0.64097724  0.91658603  0.49464087  1
  Na  Na22  1  0.64064968  0.91722138  0.74375973  1
  Na  Na23  1  0.64050007  0.91615068  0.99297744  1
  Na  Na24  1  0.35997604  0.08213362  0.00558298  1
  Na  Na25  1  0.35951861  0.08390861  0.25596196  1
  Na  Na26  1  0.35976649  0.08303770  0.50674051  1
  Na  Na27  1  0.36016667  0.08283091  0.75658438  1
  Na  Na28  1  0.35904040  0.41581508  0.00604618  1
  Na  Na29  1  0.35937015  0.41664976  0.25592650  1
  Na  Na30  1  0.35922671  0.41539763  0.50636289  1
  Na  Na31  1  0.35911478  0.41610802  0.75570565  1
  Na  Na32  1  0.35949061  0.74964831  0.00701637  1
  Na  Na33  1  0.35972811  0.75087643  0.25602283  1
  Na  Na34  1  0.35955409  0.75078157  0.50656131  1
  Na  Na35  1  0.35957316  0.74988860  0.75607326  1
  Na  Na36  1  0.86024482  0.08369364  0.00730552  1
  Na  Na37  1  0.86015637  0.08509408  0.25715249  1
  Na  Na38  1  0.85962561  0.08493161  0.50627991  1
  Na  Na39  1  0.85961367  0.08500565  0.75604589  1
  Na  Na40  1  0.85902940  0.41551845  0.00643441  1
  Na  Na41  1  0.85929478  0.41751985  0.25686525  1
  Na  Na42  1  0.85965133  0.41665139  0.50656085  1
  Na  Na43  1  0.85933877  0.41654549  0.75556507  1
  Na  Na44  1  0.85937229  0.74874917  0.00612617  1
  Na  Na45  1  0.86038229  0.75033611  0.25752763  1
  Na  Na46  1  0.86054489  0.74988570  0.50653414  1
  Na  Na47  1  0.86029343  0.75055939  0.75491645  1
  Na  Na48  1  0.10975791  0.08384573  0.11906430  1
  Na  Na49  1  0.10956629  0.08283552  0.36868906  1
  Na  Na50  1  0.11014155  0.08263782  0.61863061  1
  Na  Na51  1  0.10989649  0.08249345  0.86730881  1
  Na  Na52  1  0.10943960  0.41769999  0.11980085  1
  Na  Na53  1  0.10946913  0.41710703  0.36804228  1
  Na  Na54  1  0.10888762  0.41549606  0.61806318  1
  Na  Na55  1  0.10912551  0.41555521  0.86893676  1
  Na  Na56  1  0.10997988  0.75132218  0.11909086  1
  Na  Na57  1  0.10976333  0.75087357  0.36743759  1
  Na  Na58  1  0.10978747  0.74935307  0.61720361  1
  Na  Na59  1  0.10979606  0.74980950  0.86940106  1
  Na  Na60  1  0.60974725  0.08318336  0.11874851  1
  Na  Na61  1  0.60990599  0.08568428  0.36926172  1
  Na  Na62  1  0.60976246  0.08526606  0.61909411  1
  Na  Na63  1  0.60971630  0.08360046  0.86931642  1
  Na  Na64  1  0.61020666  0.41482992  0.11847954  1
  Na  Na65  1  0.60980633  0.41596490  0.36911402  1
  Na  Na66  1  0.60901232  0.41688316  0.61866965  1
  Na  Na67  1  0.60950635  0.41592833  0.86827325  1
  Na  Na68  1  0.60977321  0.75029483  0.11839038  1
  Na  Na69  1  0.61007469  0.74915345  0.37020546  1
  Na  Na70  1  0.61030748  0.74951010  0.61895474  1
  Na  Na71  1  0.60952527  0.74999550  0.86759506  1
  Na  Na72  1  0.38970912  0.24852682  0.13072991  1
  Na  Na73  1  0.39007395  0.25068083  0.38151079  1
  Na  Na74  1  0.39020593  0.24896104  0.63154820  1
  Na  Na75  1  0.38985594  0.24768182  0.88092244  1
  Na  Na76  1  0.39014601  0.58251287  0.13164686  1
  Na  Na77  1  0.39037896  0.58267723  0.38101841  1
  Na  Na78  1  0.39024637  0.58393732  0.63113257  1
  Na  Na79  1  0.39036796  0.58403021  0.88052871  1
  Na  Na80  1  0.39051638  0.91620894  0.13064880  1
  Na  Na81  1  0.38998713  0.91674584  0.38222601  1
  Na  Na82  1  0.39068838  0.91738565  0.63157666  1
  Na  Na83  1  0.39087842  0.91772323  0.88148878  1
  Na  Na84  1  0.89000352  0.25026107  0.13331345  1
  Na  Na85  1  0.88977134  0.25058568  0.38204177  1
  Na  Na86  1  0.88984946  0.24962329  0.63161769  1
  Na  Na87  1  0.89000610  0.24970423  0.88090756  1
  Na  Na88  1  0.89003315  0.58402609  0.13264386  1
  Na  Na89  1  0.89100537  0.58492435  0.38190007  1
  Na  Na90  1  0.89082247  0.58390263  0.63060756  1
  Na  Na91  1  0.88996487  0.58361109  0.88076001  1
  Na  Na92  1  0.89112391  0.91746331  0.13197608  1
  Na  Na93  1  0.89111803  0.91695607  0.38133016  1
  Na  Na94  1  0.89071537  0.91641803  0.63077939  1
  Na  Na95  1  0.89086606  0.91635791  0.87988178  1
  Mn  Mn96  1  0.75058174  0.83307293  0.37493557  1
  Mn  Mn97  1  0.24991157  -0.00000035  0.12483714  1
  Mn  Mn98  1  0.00009448  0.33288896  0.49938013  1
  Mn  Mn99  1  0.25041440  0.83387848  0.62497141  1
  Mn  Mn100  1  0.00021889  0.49917319  0.74997724  1
  Mn  Mn101  1  0.24974914  0.49982558  0.87520162  1
  Mn  Mn102  1  0.25047273  0.66785045  0.37368577  1
  Mn  Mn103  1  0.00008394  0.66738205  0.00059944  1
  Mn  Mn104  1  0.75000589  0.83288989  0.12469356  1
  Mn  Mn105  1  0.50074330  0.66692845  -0.00010669  1
  Mn  Mn106  1  0.75021233  0.00104682  0.62457159  1
  Mn  Mn107  1  0.75081766  0.83231907  0.87403726  1
  Mn  Mn108  1  0.49974780  0.50009891  0.49982072  1
  Mn  Mn109  1  0.50080267  0.49820670  0.25062807  1
  Mn  Mn110  1  0.50010066  0.66617993  0.24970347  1
  Mn  Mn111  1  0.49887299  0.33181588  -0.00165191  1
  Mn  Mn112  1  0.74990742  0.16807557  0.87601776  1
  Mn  Mn113  1  -0.00002863  -0.00000520  0.49979620  1
  Mn  Mn114  1  0.25028966  0.49978212  0.37504017  1
  Mn  Mn115  1  0.49943730  0.33282558  0.74969741  1
  Mn  Mn116  1  0.24968367  0.33279334  0.12456549  1
  Mn  Mn117  1  0.74962360  0.66552921  0.12512676  1
  Mn  Mn118  1  0.50028975  0.83383796  0.75015067  1
  Mn  Mn119  1  -0.00074526  0.83438270  0.00047297  1
  Mn  Mn120  1  0.49951501  0.16720527  0.24963099  1
  Mn  Mn121  1  0.75010572  0.50026572  0.37560998  1
  Mn  Mn122  1  -0.00013866  0.33378401  0.25091187  1
  Mn  Mn123  1  0.50046244  0.83325731  0.25040979  1
  Mn  Mn124  1  -0.00072737  0.50040215  -0.00001280  1
  Mn  Mn125  1  0.00076392  0.66712979  0.74936921  1
  Mn  Mn126  1  0.24894646  0.33155311  0.87557413  1
  Mn  Mn127  1  0.75082685  0.00106626  0.12510773  1
  Mn  Mn128  1  0.50077880  0.83276045  0.50153050  1
  Mn  Mn129  1  0.00013643  -0.00072960  0.74900187  1
  Mn  Mn130  1  0.75030907  0.00148692  0.37486344  1
  Mn  Mn131  1  0.24918803  0.33144631  0.62563282  1
  Mn  Mn132  1  0.24889562  0.49986796  0.62472781  1
  Mn  Mn133  1  0.24975786  0.66639983  0.87594599  1
  Mn  Mn134  1  0.49950162  0.49931957  -0.00036412  1
  Mn  Mn135  1  0.75050031  0.00060335  0.87472889  1
  Mn  Mn136  1  0.50094077  0.00119072  0.50081423  1
  Mn  Mn137  1  0.25031216  0.16638128  0.37505390  1
  Mn  Mn138  1  0.50000692  -0.00006910  0.25014150  1
  Mn  Mn139  1  0.24936799  0.83356567  0.87483119  1
  Mn  Mn140  1  0.74994837  0.50005556  0.62502110  1
  Mn  Mn141  1  -0.00031086  0.33322751  0.00056239  1
  Mn  Mn142  1  0.00010063  0.16600535  0.00043054  1
  Mn  Mn143  1  0.74962056  0.49937826  0.87425123  1
  Fe  Fe144  1  0.25070451  -0.00008748  0.62480417  1
  Fe  Fe145  1  0.74964752  0.16801612  0.62534691  1
  Fe  Fe146  1  0.00042901  0.16670302  0.25023676  1
  Fe  Fe147  1  0.49991333  0.83376563  -0.00088326  1
  Fe  Fe148  1  0.24958927  0.33294552  0.37464367  1
  Fe  Fe149  1  0.24978441  0.16509192  0.87415777  1
  Fe  Fe150  1  0.25039278  -0.00002832  0.87478781  1
  Fe  Fe151  1  0.24979490  0.00012315  0.37473842  1
  Fe  Fe152  1  0.00074609  0.83334124  0.49920760  1
  Fe  Fe153  1  0.50077601  0.00078386  0.75102568  1
  Fe  Fe154  1  0.49996653  0.66632857  0.50033975  1
  Fe  Fe155  1  -0.00025594  0.50103078  0.25036932  1
  Fe  Fe156  1  -0.00052042  0.16581441  0.74994906  1
  Fe  Fe157  1  0.25026216  0.66706503  0.12533270  1
  Fe  Fe158  1  0.74989349  0.16769306  0.12604324  1
  Fe  Fe159  1  0.49929896  0.16735291  0.50025267  1
  Fe  Fe160  1  0.49949204  0.33361926  0.50030148  1
  Fe  Fe161  1  0.74968212  0.16819337  0.37584693  1
  Fe  Fe162  1  0.00060120  0.66688858  0.49934236  1
  Fe  Fe163  1  -0.00080148  0.33236406  0.74921064  1
  Fe  Fe164  1  0.49936310  0.50031123  0.74891599  1
  Fe  Fe165  1  0.74981468  0.33356957  0.37527203  1
  Fe  Fe166  1  0.74984016  0.33308209  0.87559487  1
  Fe  Fe167  1  0.24953069  0.16607612  0.12462078  1
  Fe  Fe168  1  0.50050620  -0.00009727  -0.00020999  1
  Fe  Fe169  1  0.75017290  0.33321479  0.12575909  1
  Fe  Fe170  1  0.00009491  0.66738414  0.25087270  1
  Fe  Fe171  1  0.25040243  0.83406032  0.12502236  1
  Fe  Fe172  1  0.74939167  0.33355245  0.62500170  1
  Fe  Fe173  1  0.75013313  0.66688091  0.37514747  1
  Fe  Fe174  1  0.25027952  0.16514981  0.62436036  1
  Fe  Fe175  1  0.75042692  0.49925220  0.12479397  1
  Fe  Fe176  1  0.50010991  0.16580961  0.00027418  1
  Fe  Fe177  1  0.75057568  0.66689954  0.62466648  1
  Fe  Fe178  1  0.00035323  0.83413600  0.25007398  1
  Fe  Fe179  1  0.24962326  0.49966596  0.12552061  1
  Fe  Fe180  1  0.49961699  0.33257572  0.24970052  1
  Fe  Fe181  1  0.00064870  0.83304680  0.74964747  1
  Fe  Fe182  1  0.50023642  0.16635419  0.75036279  1
  Fe  Fe183  1  -0.00002766  0.50016287  0.49955353  1
  Fe  Fe184  1  0.74990385  0.66621942  0.87425414  1
  Fe  Fe185  1  0.25017869  0.83409587  0.37508877  1
  Fe  Fe186  1  -0.00005309  0.00074935  0.25069938  1
  Fe  Fe187  1  0.24968729  0.66699883  0.62453261  1
  Fe  Fe188  1  -0.00033294  0.16639909  0.50007839  1
  Fe  Fe189  1  0.00022777  0.00035854  0.00001466  1
  Fe  Fe190  1  0.49978030  0.66716420  0.75020666  1
  Fe  Fe191  1  0.75067161  0.83327362  0.62460355  1
  P  P192  1  0.04256325  0.24971136  0.10401607  1
  P  P193  1  0.04196531  0.24856635  0.35306681  1
  P  P194  1  0.04141621  0.24824976  0.60299767  1
  P  P195  1  0.04091088  0.24951449  0.85123181  1
  P  P196  1  0.04187479  0.58380525  0.10464394  1
  P  P197  1  0.04163398  0.58393807  0.35228136  1
  P  P198  1  0.04161655  0.58304730  0.60091008  1
  P  P199  1  0.04298162  0.58332489  0.85287873  1
  P  P200  1  0.04200010  0.91884895  0.10342649  1
  P  P201  1  0.04151211  0.91699370  0.35184578  1
  P  P202  1  0.04246997  0.91522662  0.60205949  1
  P  P203  1  0.04272789  0.91555599  0.85216272  1
  P  P204  1  0.54175544  0.24886941  0.10234059  1
  P  P205  1  0.54169534  0.25153403  0.35316619  1
  P  P206  1  0.54083623  0.25009875  0.60198849  1
  P  P207  1  0.54208943  0.24810063  0.85256519  1
  P  P208  1  0.54310723  0.58239737  0.10290117  1
  P  P209  1  0.54303356  0.58306176  0.35367803  1
  P  P210  1  0.54178139  0.58454940  0.60331257  1
  P  P211  1  0.54127614  0.58305964  0.85095026  1
  P  P212  1  0.54187591  0.91642333  0.10115506  1
  P  P213  1  0.54327195  0.91688990  0.35375314  1
  P  P214  1  0.54341057  0.91763066  0.60438493  1
  P  P215  1  0.54240957  0.91821042  0.85338012  1
  P  P216  1  0.45732157  0.08273415  0.14599310  1
  P  P217  1  0.45763473  0.08502357  0.39796967  1
  P  P218  1  0.45896336  0.08373974  0.64865723  1
  P  P219  1  0.45913015  0.08305861  0.89792818  1
  P  P220  1  0.45747255  0.41453892  0.14726995  1
  P  P221  1  0.45755049  0.41499760  0.39735712  1
  P  P222  1  0.45732548  0.41747924  0.64691328  1
  P  P223  1  0.45654187  0.41660599  0.89549760  1
  P  P224  1  0.45756481  0.75048590  0.14624608  1
  P  P225  1  0.45780043  0.74874974  0.39825175  1
  P  P226  1  0.45798803  0.74889023  0.64763945  1
  P  P227  1  0.45781180  0.75105416  0.89713314  1
  P  P228  1  0.95861893  0.08329410  0.14864320  1
  P  P229  1  0.95798029  0.08464002  0.39691227  1
  P  P230  1  0.95771380  0.08428554  0.64694621  1
  P  P231  1  0.95797867  0.08197973  0.89719684  1
  P  P232  1  0.95760157  0.41819821  0.14847053  1
  P  P233  1  0.95792718  0.41856797  0.39716390  1
  P  P234  1  0.95778775  0.41535678  0.64677977  1
  P  P235  1  0.95685402  0.41593627  0.89639587  1
  P  P236  1  0.95868161  0.75061225  0.14921711  1
  P  P237  1  0.95940322  0.75041831  0.39753469  1
  P  P238  1  0.95872805  0.75146367  0.64613723  1
  P  P239  1  0.95728514  0.75062216  0.89658802  1
  P  P240  1  0.20794768  0.08430115  0.22764310  1
  P  P241  1  0.20801310  0.08169399  0.47786076  1
  P  P242  1  0.20884231  0.08251742  0.72684063  1
  P  P243  1  0.20814794  0.08290915  0.97642418  1
  P  P244  1  0.20757928  0.41724075  0.22799172  1
  P  P245  1  0.20726997  0.41468002  0.47722961  1
  P  P246  1  0.20620534  0.41570140  0.72809157  1
  P  P247  1  0.20675429  0.41633054  0.97878120  1
  P  P248  1  0.20902930  0.75125511  0.22665819  1
  P  P249  1  0.20799513  0.75152660  0.47704461  1
  P  P250  1  0.20745759  0.74927285  0.72702405  1
  P  P251  1  0.20723614  0.75030897  0.97944533  1
  P  P252  1  0.70793549  0.08588173  0.22827252  1
  P  P253  1  0.70803155  0.08567673  0.47817100  1
  P  P254  1  0.70786368  0.08535411  0.72747943  1
  P  P255  1  0.70767681  0.08399173  0.97894226  1
  P  P256  1  0.70877089  0.41666565  0.22708314  1
  P  P257  1  0.70779618  0.41531804  0.47794852  1
  P  P258  1  0.70723566  0.41549177  0.72751634  1
  P  P259  1  0.70757564  0.41501651  0.97793393  1
  P  P260  1  0.70726873  0.74961082  0.22852188  1
  P  P261  1  0.70864678  0.74875592  0.47847442  1
  P  P262  1  0.70904204  0.74992672  0.72643191  1
  P  P263  1  0.70760271  0.74799512  0.97678488  1
  P  P264  1  0.29170705  0.24729325  0.02181797  1
  P  P265  1  0.29207363  0.25096787  0.27210991  1
  P  P266  1  0.29216370  0.24811568  0.52229775  1
  P  P267  1  0.29158687  0.24742181  0.77212571  1
  P  P268  1  0.29129072  0.58282296  0.02405310  1
  P  P269  1  0.29275675  0.58333969  0.27084824  1
  P  P270  1  0.29168524  0.58454383  0.52239082  1
  P  P271  1  0.29214184  0.58361017  0.77138870  1
  P  P272  1  0.29213731  0.91602945  0.02208197  1
  P  P273  1  0.29160837  0.91688517  0.27318736  1
  P  P274  1  0.29258758  0.91816622  0.52189729  1
  P  P275  1  0.29245170  0.91807356  0.77223210  1
  P  P276  1  0.79188339  0.25032859  0.02421759  1
  P  P277  1  0.79146403  0.25072913  0.27342931  1
  P  P278  1  0.79115552  0.25076902  0.52306644  1
  P  P279  1  0.79167084  0.25182526  0.77219476  1
  P  P280  1  0.79239007  0.58131836  0.02216299  1
  P  P281  1  0.79257555  0.58424573  0.27284945  1
  P  P282  1  0.79229326  0.58452413  0.52231919  1
  P  P283  1  0.79205809  0.58468176  0.77166486  1
  P  P284  1  0.79332108  0.91647265  0.02179570  1
  P  P285  1  0.79324842  0.91748466  0.27200643  1
  P  P286  1  0.79263331  0.91587870  0.52244262  1
  P  P287  1  0.79292089  0.91682692  0.77081821  1
  O  O288  1  0.03756960  0.24940032  0.18397409  1
  O  O289  1  0.03661376  0.24842716  0.43300410  1
  O  O290  1  0.03570182  0.24855287  0.68286159  1
  O  O291  1  0.03608430  0.24952611  0.93128263  1
  O  O292  1  0.03655274  0.58388905  0.18459713  1
  O  O293  1  0.03647859  0.58368480  0.43223100  1
  O  O294  1  0.03700620  0.58341187  0.68089716  1
  O  O295  1  0.03776995  0.58347720  0.93284981  1
  O  O296  1  0.03662956  0.91883510  0.18327526  1
  O  O297  1  0.03651196  0.91624493  0.43178379  1
  O  O298  1  0.03743791  0.91507559  0.68199006  1
  O  O299  1  0.03729894  0.91658567  0.93205393  1
  O  O300  1  0.53643163  0.24999527  0.18227031  1
  O  O301  1  0.53626429  0.25151867  0.43303000  1
  O  O302  1  0.53601736  0.24967381  0.68195337  1
  O  O303  1  0.53685353  0.24783001  0.93246591  1
  O  O304  1  0.53821975  0.58228453  0.18288656  1
  O  O305  1  0.53763494  0.58345573  0.43363672  1
  O  O306  1  0.53614600  0.58425185  0.68316772  1
  O  O307  1  0.53651680  0.58309873  0.93097030  1
  O  O308  1  0.53709870  0.91643303  0.18121903  1
  O  O309  1  0.53849044  0.91699525  0.43376196  1
  O  O310  1  0.53809323  0.91810530  0.68432554  1
  O  O311  1  0.53697239  0.91777326  0.93328122  1
  O  O312  1  0.46271067  0.08248013  0.06610431  1
  O  O313  1  0.46246149  0.08458460  0.31799051  1
  O  O314  1  0.46393797  0.08441914  0.56870765  1
  O  O315  1  0.46449653  0.08296499  0.81803438  1
  O  O316  1  0.46216897  0.41485612  0.06723495  1
  O  O317  1  0.46275877  0.41459641  0.31739613  1
  O  O318  1  0.46271116  0.41685732  0.56696505  1
  O  O319  1  0.46181980  0.41721301  0.81555713  1
  O  O320  1  0.46280176  0.75125253  0.06627787  1
  O  O321  1  0.46300587  0.74922169  0.31827464  1
  O  O322  1  0.46331957  0.74861646  0.56773086  1
  O  O323  1  0.46303953  0.75036288  0.81716265  1
  O  O324  1  0.96349109  0.08285519  0.06862809  1
  O  O325  1  0.96366912  0.08436985  0.31704771  1
  O  O326  1  0.96286077  0.08463556  0.56701394  1
  O  O327  1  0.96306041  0.08248203  0.81722685  1
  O  O328  1  0.96229685  0.41772971  0.06846226  1
  O  O329  1  0.96332697  0.41896487  0.31726839  1
  O  O330  1  0.96321189  0.41590160  0.56685277  1
  O  O331  1  0.96213319  0.41502960  0.81642943  1
  O  O332  1  0.96308939  0.75086449  0.06920506  1
  O  O333  1  0.96427764  0.74993471  0.31763654  1
  O  O334  1  0.96427102  0.75126723  0.56626761  1
  O  O335  1  0.96271519  0.75075721  0.81664891  1
  O  O336  1  0.21295494  0.08346859  0.05640986  1
  O  O337  1  0.21311331  0.08366852  0.30752540  1
  O  O338  1  0.21345471  0.08185921  0.55773198  1
  O  O339  1  0.21387652  0.08256568  0.80677836  1
  O  O340  1  0.21220572  0.41676582  0.05875813  1
  O  O341  1  0.21312584  0.41649042  0.30791621  1
  O  O342  1  0.21222862  0.41497808  0.55720811  1
  O  O343  1  0.21131189  0.41575270  0.80805111  1
  O  O344  1  0.21275465  0.75061948  0.05933075  1
  O  O345  1  0.21380860  0.75177426  0.30665110  1
  O  O346  1  0.21302874  0.75094632  0.55700079  1
  O  O347  1  0.21225008  0.74942410  0.80702112  1
  O  O348  1  0.71276363  0.08430805  0.05890158  1
  O  O349  1  0.71309699  0.08605828  0.30826465  1
  O  O350  1  0.71343627  0.08575205  0.55811146  1
  O  O351  1  0.71315431  0.08509175  0.80743358  1
  O  O352  1  0.71299279  0.41565050  0.05776629  1
  O  O353  1  0.71375476  0.41627287  0.30705125  1
  O  O354  1  0.71299856  0.41530761  0.55786106  1
  O  O355  1  0.71232773  0.41556035  0.80744424  1
  O  O356  1  0.71250623  0.74826694  0.05678201  1
  O  O357  1  0.71260696  0.74948545  0.30846583  1
  O  O358  1  0.71454655  0.74911317  0.55834627  1
  O  O359  1  0.71410504  0.74934652  0.80641573  1
  O  O360  1  0.28675148  0.25040667  0.19221664  1
  O  O361  1  0.28703237  0.24900824  0.44237069  1
  O  O362  1  0.28651004  0.24717278  0.69216154  1
  O  O363  1  0.28638672  0.24701312  0.94187223  1
  O  O364  1  0.28749790  0.58305635  0.19097212  1
  O  O365  1  0.28688851  0.58432179  0.44238320  1
  O  O366  1  0.28669603  0.58424902  0.69144669  1
  O  O367  1  0.28635655  0.58301753  0.94403175  1
  O  O368  1  0.28633096  0.91620281  0.19324143  1
  O  O369  1  0.28726424  0.91800092  0.44203085  1
  O  O370  1  0.28751693  0.91827319  0.69224974  1
  O  O371  1  0.28703494  0.91670878  0.94217328  1
  O  O372  1  0.78638539  0.25037384  0.19354666  1
  O  O373  1  0.78592624  0.25073061  0.44315550  1
  O  O374  1  0.78616830  0.25130535  0.69234892  1
  O  O375  1  0.78706125  0.25086225  0.94424688  1
  O  O376  1  0.78744735  0.58327635  0.19293883  1
  O  O377  1  0.78697439  0.58451853  0.44241576  1
  O  O378  1  0.78687881  0.58488319  0.69171183  1
  O  O379  1  0.78710496  0.58182398  0.94223418  1
  O  O380  1  0.78820682  0.91747564  0.19204448  1
  O  O381  1  0.78744225  0.91621079  0.44248932  1
  O  O382  1  0.78738812  0.91653728  0.69089199  1
  O  O383  1  0.78831885  0.91638809  0.94177878  1
  O  O384  1  0.22749526  0.24781801  0.05768820  1
  O  O385  1  0.22787134  0.25088416  0.30804274  1
  O  O386  1  0.22783549  0.24724431  0.55788013  1
  O  O387  1  0.22728025  0.24719640  0.80774911  1
  O  O388  1  0.22719786  0.58249215  0.06001285  1
  O  O389  1  0.22852165  0.58346386  0.30651977  1
  O  O390  1  0.22723702  0.58467900  0.55753957  1
  O  O391  1  0.22782928  0.58343165  0.80681655  1
  O  O392  1  0.22790473  0.91553239  0.05789934  1
  O  O393  1  0.22744519  0.91716100  0.30936033  1
  O  O394  1  0.22842677  0.91831278  0.55797518  1
  O  O395  1  0.22811301  0.91834336  0.80774589  1
  O  O396  1  0.72761526  0.24981964  0.05998110  1
  O  O397  1  0.72734349  0.25099895  0.30974092  1
  O  O398  1  0.72703779  0.25072433  0.55940253  1
  O  O399  1  0.72754211  0.25197132  0.80842015  1
  O  O400  1  0.72809826  0.58077791  0.05790740  1
  O  O401  1  0.72830250  0.58493092  0.30865859  1
  O  O402  1  0.72809655  0.58450301  0.55814520  1
  O  O403  1  0.72778301  0.58449089  0.80742760  1
  O  O404  1  0.72882713  0.91682116  0.05671386  1
  O  O405  1  0.72882660  0.91731133  0.30703134  1
  O  O406  1  0.72842865  0.91584721  0.55812298  1
  O  O407  1  0.72874178  0.91667638  0.80655026  1
  O  O408  1  0.27211677  0.08469217  0.19171171  1
  O  O409  1  0.27213873  0.08142531  0.44171788  1
  O  O410  1  0.27299349  0.08267960  0.69062887  1
  O  O411  1  0.27244755  0.08290044  0.94061139  1
  O  O412  1  0.27166588  0.41763551  0.19182082  1
  O  O413  1  0.27168729  0.41443348  0.44193308  1
  O  O414  1  0.27062169  0.41592152  0.69302366  1
  O  O415  1  0.27102657  0.41568198  0.94327030  1
  O  O416  1  0.27314662  0.75145183  0.19069669  1
  O  O417  1  0.27232019  0.75198372  0.44147584  1
  O  O418  1  0.27188878  0.74896820  0.69177688  1
  O  O419  1  0.27142400  0.75052866  0.94355530  1
  O  O420  1  0.77223956  0.08613297  0.19260624  1
  O  O421  1  0.77221273  0.08583997  0.44227656  1
  O  O422  1  0.77209657  0.08574328  0.69180748  1
  O  O423  1  0.77204869  0.08416045  0.94369092  1
  O  O424  1  0.77287174  0.41705626  0.19097281  1
  O  O425  1  0.77200235  0.41529074  0.44212089  1
  O  O426  1  0.77153382  0.41530330  0.69185787  1
  O  O427  1  0.77170938  0.41504441  0.94169502  1
  O  O428  1  0.77164205  0.74953023  0.19324599  1
  O  O429  1  0.77265690  0.74830035  0.44191395  1
  O  O430  1  0.77317633  0.75024715  0.69042113  1
  O  O431  1  0.77208275  0.74754963  0.94162669  1
  O  O432  1  0.02283693  0.08301350  0.18452487  1
  O  O433  1  0.02204228  0.08455473  0.43323925  1
  O  O434  1  0.02195147  0.08408128  0.68270054  1
  O  O435  1  0.02230363  0.08189098  0.93286002  1
  O  O436  1  0.02198213  0.41803923  0.18367599  1
  O  O437  1  0.02214513  0.41819810  0.43297751  1
  O  O438  1  0.02190317  0.41467434  0.68281704  1
  O  O439  1  0.02116849  0.41649069  0.93184707  1
  O  O440  1  0.02300244  0.74999395  0.18462427  1
  O  O441  1  0.02351472  0.75063786  0.43359795  1
  O  O442  1  0.02282889  0.75181060  0.68249181  1
  O  O443  1  0.02152848  0.75088820  0.93218286  1
  O  O444  1  0.52154258  0.08312786  0.18177469  1
  O  O445  1  0.52204209  0.08582857  0.43326637  1
  O  O446  1  0.52314520  0.08378900  0.68466636  1
  O  O447  1  0.52305558  0.08344228  0.93457953  1
  O  O448  1  0.52195740  0.41382561  0.18252649  1
  O  O449  1  0.52180938  0.41531044  0.43302214  1
  O  O450  1  0.52148681  0.41766581  0.68283422  1
  O  O451  1  0.52089905  0.41603114  0.93079218  1
  O  O452  1  0.52192740  0.75011747  0.18158800  1
  O  O453  1  0.52214810  0.74822386  0.43382174  1
  O  O454  1  0.52221822  0.74919536  0.68342334  1
  O  O455  1  0.52215697  0.75145985  0.93268159  1
  O  O456  1  0.47752425  0.24773547  0.06646181  1
  O  O457  1  0.47751495  0.25178342  0.31700988  1
  O  O458  1  0.47668220  0.24978926  0.56603130  1
  O  O459  1  0.47778139  0.24805628  0.81691792  1
  O  O460  1  0.47859453  0.58309320  0.06803910  1
  O  O461  1  0.47874783  0.58236442  0.31825306  1
  O  O462  1  0.47772455  0.58485683  0.56690144  1
  O  O463  1  0.47701996  0.58304947  0.81535877  1
  O  O464  1  0.47764537  0.91633993  0.06544497  1
  O  O465  1  0.47868050  0.91671213  0.31905737  1
  O  O466  1  0.47913140  0.91732589  0.56893432  1
  O  O467  1  0.47832366  0.91836051  0.81717330  1
  O  O468  1  0.97813891  0.24953466  0.06889868  1
  O  O469  1  0.97778908  0.24872104  0.31722525  1
  O  O470  1  0.97740864  0.24850325  0.56650324  1
  O  O471  1  0.97670885  0.24961207  0.81547928  1
  O  O472  1  0.97769624  0.58399826  0.06879532  1
  O  O473  1  0.97750322  0.58446220  0.31613671  1
  O  O474  1  0.97739664  0.58287821  0.56526173  1
  O  O475  1  0.97863672  0.58349669  0.81761631  1
  O  O476  1  0.97786058  0.91930201  0.06716567  1
  O  O477  1  0.97739685  0.91775953  0.31594912  1
  O  O478  1  0.97820274  0.91524237  0.56637390  1
  O  O479  1  0.97853318  0.91492483  0.81612275  1
  O  O480  1  0.07329497  0.31343270  0.07589950  1
  O  O481  1  0.07294174  0.31252335  0.32577443  1
  O  O482  1  0.07304224  0.31156899  0.57495760  1
  O  O483  1  0.07185947  0.31303753  0.82303762  1
  O  O484  1  0.07318711  0.64722164  0.07646058  1
  O  O485  1  0.07294140  0.64740788  0.32405503  1
  O  O486  1  0.07209211  0.64683300  0.57233507  1
  O  O487  1  0.07424678  0.64665672  0.82469001  1
  O  O488  1  0.07310234  0.98198502  0.07427387  1
  O  O489  1  0.07281325  0.98055984  0.32421113  1
  O  O490  1  0.07317662  0.97927803  0.57449528  1
  O  O491  1  0.07372425  0.97898248  0.82361619  1
  O  O492  1  0.57252433  0.31231043  0.07365060  1
  O  O493  1  0.57281529  0.31469075  0.32410625  1
  O  O494  1  0.57106901  0.31428118  0.57403204  1
  O  O495  1  0.57283992  0.31198980  0.82480256  1
  O  O496  1  0.57448900  0.64568191  0.07475738  1
  O  O497  1  0.57400468  0.64636827  0.32515844  1
  O  O498  1  0.57292607  0.64784401  0.57473345  1
  O  O499  1  0.57190540  0.64699572  0.82300009  1
  O  O500  1  0.57256817  0.98031606  0.07328274  1
  O  O501  1  0.57399833  0.98048321  0.32532356  1
  O  O502  1  0.57466481  0.98081813  0.57587137  1
  O  O503  1  0.57336468  0.98172143  0.82496517  1
  O  O504  1  0.42634713  0.01929383  0.17465784  1
  O  O505  1  0.42718271  0.02116560  0.42608940  1
  O  O506  1  0.42853863  0.01973309  0.67666918  1
  O  O507  1  0.42842332  0.01930784  0.92633194  1
  O  O508  1  0.42636628  0.35116774  0.17548556  1
  O  O509  1  0.42666903  0.35187078  0.42657638  1
  O  O510  1  0.42595360  0.35407515  0.67490053  1
  O  O511  1  0.42538938  0.35287981  0.92313545  1
  O  O512  1  0.42661104  0.68671489  0.17389474  1
  O  O513  1  0.42680625  0.68519544  0.42623938  1
  O  O514  1  0.42708845  0.68565566  0.67651650  1
  O  O515  1  0.42665029  0.68762853  0.92541661  1
  O  O516  1  0.92717959  0.02026124  0.17732281  1
  O  O517  1  0.92668669  0.02110912  0.42493295  1
  O  O518  1  0.92670862  0.02037351  0.67424781  1
  O  O519  1  0.92751175  0.01826187  0.92564402  1
  O  O520  1  0.92650174  0.35464094  0.17649879  1
  O  O521  1  0.92682024  0.35469380  0.42444633  1
  O  O522  1  0.92675553  0.35186444  0.67504600  1
  O  O523  1  0.92588843  0.35274875  0.92549494  1
  O  O524  1  0.92728094  0.68736386  0.17735448  1
  O  O525  1  0.92882814  0.68679917  0.42664415  1
  O  O526  1  0.92774805  0.68765606  0.67398822  1
  O  O527  1  0.92650905  0.68690595  0.92476203  1
  O  O528  1  0.17698025  0.02074028  0.19936266  1
  O  O529  1  0.17690875  0.01843798  0.44896757  1
  O  O530  1  0.17800702  0.01885346  0.69841137  1
  O  O531  1  0.17787036  0.01880606  0.94835792  1
  O  O532  1  0.17628104  0.35382412  0.19991275  1
  O  O533  1  0.17652232  0.35109968  0.44885473  1
  O  O534  1  0.17538587  0.35202475  0.70010802  1
  O  O535  1  0.17552356  0.35265246  0.95103076  1
  O  O536  1  0.17888884  0.68691274  0.19878493  1
  O  O537  1  0.17693026  0.68810373  0.44864381  1
  O  O538  1  0.17668040  0.68586858  0.69818080  1
  O  O539  1  0.17620281  0.68663256  0.95137740  1
  O  O540  1  0.67720951  0.02188383  0.20058290  1
  O  O541  1  0.67714474  0.02173274  0.45061022  1
  O  O542  1  0.67697923  0.02161069  0.69972572  1
  O  O543  1  0.67694005  0.02034897  0.95054717  1
  O  O544  1  0.67812173  0.35295823  0.19850657  1
  O  O545  1  0.67671825  0.35217443  0.44906651  1
  O  O546  1  0.67602767  0.35238851  0.69871204  1
  O  O547  1  0.67691058  0.35127971  0.94951498  1
  O  O548  1  0.67588172  0.68640494  0.20018736  1
  O  O549  1  0.67746302  0.68539658  0.45001862  1
  O  O550  1  0.67807407  0.68640284  0.69802743  1
  O  O551  1  0.67676927  0.68449714  0.94828065  1
  O  O552  1  0.32310349  0.31097833  0.04921324  1
  O  O553  1  0.32236038  0.31480862  0.30063077  1
  O  O554  1  0.32303494  0.31156719  0.55088856  1
  O  O555  1  0.32231183  0.31139293  0.79980561  1
  O  O556  1  0.32159364  0.64698225  0.05204104  1
  O  O557  1  0.32395359  0.64690008  0.29899038  1
  O  O558  1  0.32229229  0.64818492  0.55087614  1
  O  O559  1  0.32345108  0.64669141  0.80030032  1
  O  O560  1  0.32302087  0.97961408  0.05046274  1
  O  O561  1  0.32233715  0.98089338  0.30078862  1
  O  O562  1  0.32370822  0.98136449  0.55090618  1
  O  O563  1  0.32353960  0.98117428  0.80131931  1
  O  O564  1  0.82242508  0.31398087  0.05301002  1
  O  O565  1  0.82247875  0.31441768  0.30162109  1
  O  O566  1  0.82210464  0.31440132  0.55138719  1
  O  O567  1  0.82250605  0.31528521  0.80088156  1
  O  O568  1  0.82343979  0.64488017  0.05038477  1
  O  O569  1  0.82343538  0.64788669  0.30102412  1
  O  O570  1  0.82343174  0.64772870  0.55097124  1
  O  O571  1  0.82291807  0.64799271  0.80056840  1
  O  O572  1  0.82452576  0.97985631  0.04997193  1
  O  O573  1  0.82403454  0.98111618  0.30016224  1
  O  O574  1  0.82382189  0.97960489  0.54991899  1
  O  O575  1  0.82377085  0.98064393  0.79872445  1
  O  O576  1  0.42591997  0.14601838  0.17435333  1
  O  O577  1  0.42656246  0.14843348  0.42628028  1
  O  O578  1  0.42778381  0.14706638  0.67728474  1
  O  O579  1  0.42782465  0.14648723  0.92617809  1
  O  O580  1  0.42713893  0.47845297  0.17552634  1
  O  O581  1  0.42635639  0.47881067  0.42478947  1
  O  O582  1  0.42665386  0.48128162  0.67494925  1
  O  O583  1  0.42547867  0.47978008  0.92444994  1
  O  O584  1  0.42644200  0.81363101  0.17525224  1
  O  O585  1  0.42712397  0.81253920  0.42637677  1
  O  O586  1  0.42682032  0.81273481  0.67504670  1
  O  O587  1  0.42712763  0.81485772  0.92515922  1
  O  O588  1  0.92839870  0.14752796  0.17664542  1
  O  O589  1  0.92699357  0.14806705  0.42546649  1
  O  O590  1  0.92674886  0.14742673  0.67612443  1
  O  O591  1  0.92668034  0.14538576  0.92546958  1
  O  O592  1  0.92709262  0.48186693  0.17694097  1
  O  O593  1  0.92702074  0.48180321  0.42614869  1
  O  O594  1  0.92680412  0.47907397  0.67468758  1
  O  O595  1  0.92571046  0.47969645  0.92388636  1
  O  O596  1  0.92872522  0.81483823  0.17756561  1
  O  O597  1  0.92820736  0.81401015  0.42557181  1
  O  O598  1  0.92763636  0.81468572  0.67497123  1
  O  O599  1  0.92578985  0.81375737  0.92499905  1
  O  O600  1  0.07386103  0.18657027  0.07524884  1
  O  O601  1  0.07306162  0.18536868  0.32429634  1
  O  O602  1  0.07221001  0.18464255  0.57448601  1
  O  O603  1  0.07143801  0.18548201  0.82329932  1
  O  O604  1  0.07290777  0.52036281  0.07616223  1
  O  O605  1  0.07221097  0.52015902  0.32371196  1
  O  O606  1  0.07257281  0.51931730  0.57311299  1
  O  O607  1  0.07383956  0.51968841  0.82481609  1
  O  O608  1  0.07280254  0.85498769  0.07549196  1
  O  O609  1  0.07190533  0.85328475  0.32283344  1
  O  O610  1  0.07361492  0.85220972  0.57296367  1
  O  O611  1  0.07368285  0.85191686  0.82417168  1
  O  O612  1  0.57292375  0.18523928  0.07468235  1
  O  O613  1  0.57268189  0.18785013  0.32503545  1
  O  O614  1  0.57210610  0.18687577  0.57337563  1
  O  O615  1  0.57321520  0.18495191  0.82372318  1
  O  O616  1  0.57353168  0.51863611  0.07450542  1
  O  O617  1  0.57436332  0.51943168  0.32594780  1
  O  O618  1  0.57289948  0.52085705  0.57532337  1
  O  O619  1  0.57207598  0.51938969  0.82269306  1
  O  O620  1  0.57275777  0.85282558  0.07286611  1
  O  O621  1  0.57431160  0.85340162  0.32558314  1
  O  O622  1  0.57442982  0.85388892  0.57661766  1
  O  O623  1  0.57370463  0.85472203  0.82518550  1
  O  O624  1  0.32224644  0.18385929  0.05080195  1
  O  O625  1  0.32359572  0.18767391  0.30011557  1
  O  O626  1  0.32307329  0.18447510  0.55034609  1
  O  O627  1  0.32278249  0.18427329  0.80086834  1
  O  O628  1  0.32253463  0.51929604  0.05180698  1
  O  O629  1  0.32400057  0.52014339  0.29969265  1
  O  O630  1  0.32260289  0.52071765  0.54998169  1
  O  O631  1  0.32304994  0.51980432  0.79911126  1
  O  O632  1  0.32310802  0.85261650  0.05052210  1
  O  O633  1  0.32257080  0.85347804  0.30185429  1
  O  O634  1  0.32372085  0.85459930  0.55012064  1
  O  O635  1  0.32305843  0.85403593  0.79982196  1
  O  O636  1  0.82292430  0.18670312  0.05226117  1
  O  O637  1  0.82227137  0.18723873  0.30225909  1
  O  O638  1  0.82209552  0.18719106  0.55155915  1
  O  O639  1  0.82295013  0.18839949  0.80055210  1
  O  O640  1  0.82317172  0.51779125  0.05070451  1
  O  O641  1  0.82339909  0.52072772  0.30134997  1
  O  O642  1  0.82314627  0.52062371  0.55000803  1
  O  O643  1  0.82302409  0.52080063  0.79911871  1
  O  O644  1  0.82400349  0.85275365  0.04995688  1
  O  O645  1  0.82444790  0.85408459  0.30002766  1
  O  O646  1  0.82332254  0.85221720  0.55061775  1
  O  O647  1  0.82445090  0.85366973  0.79901267  1
  O  O648  1  0.17715108  0.14791122  0.19939224  1
  O  O649  1  0.17688189  0.14526820  0.44981696  1
  O  O650  1  0.17781703  0.14598567  0.69823521  1
  O  O651  1  0.17695474  0.14609292  0.94761415  1
  O  O652  1  0.17675813  0.48098511  0.20011253  1
  O  O653  1  0.17648420  0.47851674  0.44946095  1
  O  O654  1  0.17503353  0.47902987  0.69972995  1
  O  O655  1  0.17573695  0.47968599  0.95039024  1
  O  O656  1  0.17755882  0.81441913  0.19831461  1
  O  O657  1  0.17734094  0.81521621  0.44864969  1
  O  O658  1  0.17677619  0.81312209  0.69923048  1
  O  O659  1  0.17581521  0.81339747  0.95059852  1
  O  O660  1  0.67680021  0.14908045  0.19960714  1
  O  O661  1  0.67689749  0.14891412  0.44958816  1
  O  O662  1  0.67686612  0.14881274  0.69924603  1
  O  O663  1  0.67634645  0.14722899  0.95058965  1
  O  O664  1  0.67789519  0.48036380  0.19906992  1
  O  O665  1  0.67691231  0.47923236  0.45036322  1
  O  O666  1  0.67662211  0.47945250  0.69960678  1
  O  O667  1  0.67612891  0.47819514  0.94921890  1
  O  O668  1  0.67639833  0.81331818  0.20035479  1
  O  O669  1  0.67746741  0.81245820  0.45074053  1
  O  O670  1  0.67825311  0.81385968  0.69866472  1
  O  O671  1  0.67695371  0.81179120  0.94877130  1
