# generated using pymatgen
data_Na2MnFe(PO4)2
_symmetry_space_group_name_H-M   'P 1'
_cell_length_a   22.34082856
_cell_length_b   20.09528280
_cell_length_c   19.45147771
_cell_angle_alpha   90.02591967
_cell_angle_beta   90.07318611
_cell_angle_gamma   90.01544132
_symmetry_Int_Tables_number   1
_chemical_formula_structural   Na2MnFe(PO4)2
_chemical_formula_sum   'Na96 Mn48 Fe48 P96 O384'
_cell_volume   8732.64053538
_cell_formula_units_Z   48
loop_
 _symmetry_equiv_pos_site_id
 _symmetry_equiv_pos_as_xyz
  1  'x, y, z'
loop_
 _atom_site_type_symbol
 _atom_site_label
 _atom_site_symmetry_multiplicity
 _atom_site_fract_x
 _atom_site_fract_y
 _atom_site_fract_z
 _atom_site_occupancy
  Na  Na0  1  0.13994734  0.25050262  0.24370790  1
  Na  Na1  1  0.13961959  0.25048308  0.49317274  1
  Na  Na2  1  0.13994792  0.25091617  0.74436731  1
  Na  Na3  1  0.14027493  0.24894734  0.99478560  1
  Na  Na4  1  0.13997196  0.58356972  0.24434994  1
  Na  Na5  1  0.13982047  0.58504337  0.49315907  1
  Na  Na6  1  0.14027507  0.58476408  0.74422034  1
  Na  Na7  1  0.14017588  0.58165091  0.99413921  1
  Na  Na8  1  0.14025068  0.91717635  0.24384035  1
  Na  Na9  1  0.14046473  0.91594312  0.49301232  1
  Na  Na10  1  0.14003663  0.91531954  0.74330567  1
  Na  Na11  1  0.13990726  0.91544996  0.99318006  1
  Na  Na12  1  0.63968123  0.25067641  0.24271296  1
  Na  Na13  1  0.63989076  0.24976178  0.49305834  1
  Na  Na14  1  0.64039698  0.24978309  0.74309179  1
  Na  Na15  1  0.63994482  0.25107394  0.99430525  1
  Na  Na16  1  0.64017299  0.58265359  0.24304389  1
  Na  Na17  1  0.63966927  0.58446895  0.49349625  1
  Na  Na18  1  0.64009047  0.58477348  0.74223336  1
  Na  Na19  1  0.64011905  0.58309958  0.99451829  1
  Na  Na20  1  0.64054487  0.91530994  0.24475756  1
  Na  Na21  1  0.64025767  0.91607994  0.49460518  1
  Na  Na22  1  0.64032963  0.91573989  0.74227287  1
  Na  Na23  1  0.63996259  0.91508796  0.99257556  1
  Na  Na24  1  0.35995223  0.08303050  0.00548919  1
  Na  Na25  1  0.35962076  0.08346663  0.25625573  1
  Na  Na26  1  0.35931446  0.08325341  0.50597236  1
  Na  Na27  1  0.35997354  0.08381170  0.75639693  1
  Na  Na28  1  0.35983122  0.41458853  0.00685343  1
  Na  Na29  1  0.36031661  0.41689464  0.25748959  1
  Na  Na30  1  0.36038269  0.41798078  0.50669036  1
  Na  Na31  1  0.35989950  0.41785376  0.75627043  1
  Na  Na32  1  0.36035584  0.74843071  0.00573270  1
  Na  Na33  1  0.35997640  0.74946273  0.25690253  1
  Na  Na34  1  0.36039965  0.75023220  0.50700923  1
  Na  Na35  1  0.36043881  0.75002996  0.75564547  1
  Na  Na36  1  0.86006297  0.08373187  0.00709903  1
  Na  Na37  1  0.85960474  0.08234028  0.25628688  1
  Na  Na38  1  0.85916452  0.08264730  0.50569716  1
  Na  Na39  1  0.85959172  0.08302859  0.75572466  1
  Na  Na40  1  0.85944830  0.41781224  0.00799528  1
  Na  Na41  1  0.86042759  0.41705364  0.25626984  1
  Na  Na42  1  0.86011582  0.41784896  0.50684696  1
  Na  Na43  1  0.85939987  0.41846056  0.75565459  1
  Na  Na44  1  0.86001709  0.74872067  0.00613655  1
  Na  Na45  1  0.85968897  0.75025323  0.25631213  1
  Na  Na46  1  0.85987006  0.75098238  0.50778932  1
  Na  Na47  1  0.86055199  0.75069198  0.75555835  1
  Na  Na48  1  0.10923494  0.08239547  0.11869803  1
  Na  Na49  1  0.10924893  0.08524486  0.36824271  1
  Na  Na50  1  0.10911661  0.08377561  0.61792835  1
  Na  Na51  1  0.10907644  0.08238042  0.86994397  1
  Na  Na52  1  0.10963416  0.41677295  0.11881044  1
  Na  Na53  1  0.10901530  0.41733523  0.36920414  1
  Na  Na54  1  0.10892615  0.41705457  0.61834417  1
  Na  Na55  1  0.10946390  0.41679225  0.86996776  1
  Na  Na56  1  0.10925515  0.74944421  0.11847531  1
  Na  Na57  1  0.11018905  0.75037185  0.36918766  1
  Na  Na58  1  0.11026797  0.74982002  0.61704858  1
  Na  Na59  1  0.10984216  0.74937382  0.86899581  1
  Na  Na60  1  0.60902235  0.08359602  0.11897240  1
  Na  Na61  1  0.60920473  0.08324900  0.36841541  1
  Na  Na62  1  0.60924298  0.08282323  0.61873147  1
  Na  Na63  1  0.60916612  0.08238906  0.86759302  1
  Na  Na64  1  0.60979813  0.41646472  0.11913194  1
  Na  Na65  1  0.60891084  0.41684133  0.36864455  1
  Na  Na66  1  0.60921320  0.41852625  0.61795783  1
  Na  Na67  1  0.60928269  0.41647104  0.86874133  1
  Na  Na68  1  0.60971626  0.74845342  0.11894629  1
  Na  Na69  1  0.61014470  0.74928332  0.36950366  1
  Na  Na70  1  0.60996966  0.74962109  0.61772542  1
  Na  Na71  1  0.60946479  0.74948607  0.86730292  1
  Na  Na72  1  0.39063635  0.25047991  0.13222391  1
  Na  Na73  1  0.39053174  0.25042897  0.38078818  1
  Na  Na74  1  0.39080051  0.25090771  0.63125428  1
  Na  Na75  1  0.39060494  0.24959785  0.88114183  1
  Na  Na76  1  0.39050992  0.58203800  0.13256274  1
  Na  Na77  1  0.39122423  0.58382275  0.38189701  1
  Na  Na78  1  0.39065699  0.58467819  0.63141078  1
  Na  Na79  1  0.39060912  0.58328512  0.88097927  1
  Na  Na80  1  0.39103013  0.91563548  0.13098782  1
  Na  Na81  1  0.39050037  0.91529071  0.38199151  1
  Na  Na82  1  0.39072453  0.91561386  0.63203410  1
  Na  Na83  1  0.39083816  0.91606034  0.87964123  1
  Na  Na84  1  0.89079432  0.24999189  0.13181489  1
  Na  Na85  1  0.89073998  0.25159614  0.38109351  1
  Na  Na86  1  0.89045519  0.25028765  0.63015437  1
  Na  Na87  1  0.89032608  0.24999046  0.88214758  1
  Na  Na88  1  0.89022652  0.58278554  0.13135723  1
  Na  Na89  1  0.89091050  0.58342461  0.38206808  1
  Na  Na90  1  0.89006295  0.58437486  0.63138188  1
  Na  Na91  1  0.89013032  0.58459772  0.88225099  1
  Na  Na92  1  0.89047843  0.91620786  0.13090971  1
  Na  Na93  1  0.89003698  0.91726221  0.38223921  1
  Na  Na94  1  0.89007596  0.91641037  0.63072417  1
  Na  Na95  1  0.89123541  0.91588632  0.88097244  1
  Mn  Mn96  1  -0.00055009  0.33358208  0.75026438  1
  Mn  Mn97  1  0.24971736  0.66537737  0.12588938  1
  Mn  Mn98  1  -0.00050670  0.16695555  0.25008897  1
  Mn  Mn99  1  0.00008109  0.16657675  0.75003284  1
  Mn  Mn100  1  0.49979054  0.49917600  0.00053352  1
  Mn  Mn101  1  0.75106242  0.66738780  0.37520374  1
  Mn  Mn102  1  0.50054104  0.83179224  0.25050966  1
  Mn  Mn103  1  0.50006961  0.33390231  0.74952827  1
  Mn  Mn104  1  0.24990295  -0.00016887  0.37499455  1
  Mn  Mn105  1  0.74950729  0.50168574  0.87572966  1
  Mn  Mn106  1  0.24920718  0.16722046  0.87535019  1
  Mn  Mn107  1  0.24995337  0.33419743  0.62491759  1
  Mn  Mn108  1  0.74950376  0.33384941  0.37495140  1
  Mn  Mn109  1  0.49962038  0.16738264  0.49947301  1
  Mn  Mn110  1  -0.00012389  0.33346457  0.00054791  1
  Mn  Mn111  1  0.00065508  0.66772683  0.75046755  1
  Mn  Mn112  1  0.50054440  0.66648581  -0.00020920  1
  Mn  Mn113  1  0.75001473  0.50054533  0.37462822  1
  Mn  Mn114  1  0.75009312  0.83197714  0.12438955  1
  Mn  Mn115  1  0.75000928  0.33428214  0.62460006  1
  Mn  Mn116  1  0.74971942  -0.00086172  0.12505565  1
  Mn  Mn117  1  0.25011443  0.33278132  0.12595443  1
  Mn  Mn118  1  0.75012044  0.33453228  0.87449035  1
  Mn  Mn119  1  0.74900522  0.16708653  0.12561475  1
  Mn  Mn120  1  0.75000392  0.16702332  0.87512185  1
  Mn  Mn121  1  0.49954169  0.16711303  -0.00059887  1
  Mn  Mn122  1  0.49907496  -0.00062943  0.49991936  1
  Mn  Mn123  1  0.75014404  0.16586741  0.37433768  1
  Mn  Mn124  1  0.24969805  0.83251571  0.12484848  1
  Mn  Mn125  1  -0.00013266  -0.00093275  0.74956569  1
  Mn  Mn126  1  0.50040205  -0.00026041  0.25015172  1
  Mn  Mn127  1  0.75004967  -0.00042722  0.87469616  1
  Mn  Mn128  1  -0.00056515  0.83413263  0.24954841  1
  Mn  Mn129  1  0.25059841  0.83190046  0.87431521  1
  Mn  Mn130  1  0.75022937  0.16576221  0.62402120  1
  Mn  Mn131  1  0.49980973  -0.00098398  -0.00090601  1
  Mn  Mn132  1  0.75049311  0.83202718  0.87400468  1
  Mn  Mn133  1  0.00000101  0.00053412  0.50010154  1
  Mn  Mn134  1  0.24989784  0.50147067  0.37619012  1
  Mn  Mn135  1  0.24950078  0.33347723  0.37530885  1
  Mn  Mn136  1  -0.00044642  0.66621427  0.24989560  1
  Mn  Mn137  1  0.24978866  -0.00037872  0.87462529  1
  Mn  Mn138  1  0.24906861  0.50180744  0.62610525  1
  Mn  Mn139  1  0.24917232  -0.00039815  0.62448883  1
  Mn  Mn140  1  0.25079290  -0.00002856  0.12507017  1
  Mn  Mn141  1  -0.00001768  0.50076474  0.74991837  1
  Mn  Mn142  1  0.25010943  0.49980389  0.87513151  1
  Mn  Mn143  1  0.25001640  0.16731348  0.62543714  1
  Fe  Fe144  1  -0.00024177  0.33417346  0.49977664  1
  Fe  Fe145  1  0.25061001  0.83309000  0.37496520  1
  Fe  Fe146  1  -0.00036443  0.50040795  0.49997011  1
  Fe  Fe147  1  0.75061787  0.33380538  0.12464081  1
  Fe  Fe148  1  0.49958781  0.16722010  0.24956301  1
  Fe  Fe149  1  0.50014110  -0.00047765  0.74951521  1
  Fe  Fe150  1  0.00034163  0.83397515  0.49961277  1
  Fe  Fe151  1  0.50042153  0.83247179  0.50076337  1
  Fe  Fe152  1  0.75034420  0.83359970  0.62475329  1
  Fe  Fe153  1  -0.00009845  0.66715771  0.49995856  1
  Fe  Fe154  1  0.25018747  0.66617019  0.87504691  1
  Fe  Fe155  1  0.50027980  0.33384374  0.49987714  1
  Fe  Fe156  1  -0.00055715  0.16762212  0.49910299  1
  Fe  Fe157  1  0.74980474  0.66646478  0.12554289  1
  Fe  Fe158  1  0.50016779  0.66653244  0.74958142  1
  Fe  Fe159  1  0.24996378  0.33329268  0.87572102  1
  Fe  Fe160  1  0.25041699  0.66758125  0.62459895  1
  Fe  Fe161  1  0.00008339  0.33401740  0.25067448  1
  Fe  Fe162  1  0.50022380  0.49944439  0.25068977  1
  Fe  Fe163  1  0.50023448  0.66647586  0.50046154  1
  Fe  Fe164  1  0.25056442  0.49936866  0.12518845  1
  Fe  Fe165  1  0.25073181  0.66731950  0.37501270  1
  Fe  Fe166  1  -0.00054711  0.49999475  0.00062259  1
  Fe  Fe167  1  0.24988051  0.16675661  0.37501686  1
  Fe  Fe168  1  0.00004136  0.00012057  0.24960197  1
  Fe  Fe169  1  0.74966943  -0.00058137  0.62469930  1
  Fe  Fe170  1  0.49996364  0.66601345  0.25057496  1
  Fe  Fe171  1  0.50000542  0.50061946  0.49932131  1
  Fe  Fe172  1  0.25044897  0.83271221  0.62426759  1
  Fe  Fe173  1  0.24995335  0.16638788  0.12508178  1
  Fe  Fe174  1  0.74959932  0.50136139  0.62544494  1
  Fe  Fe175  1  0.50058482  0.83281220  0.74952596  1
  Fe  Fe176  1  0.50036330  0.16699439  0.74955010  1
  Fe  Fe177  1  0.00035066  0.50008709  0.25068918  1
  Fe  Fe178  1  0.00005333  -0.00082698  -0.00018306  1
  Fe  Fe179  1  0.74934901  -0.00093148  0.37540945  1
  Fe  Fe180  1  0.50007882  0.33313709  -0.00004569  1
  Fe  Fe181  1  0.75016921  0.50023846  0.12464472  1
  Fe  Fe182  1  0.00022831  0.83306035  0.00024544  1
  Fe  Fe183  1  0.50018387  0.83272491  -0.00066019  1
  Fe  Fe184  1  0.49978541  0.50047303  0.74893952  1
  Fe  Fe185  1  0.00037270  0.66659186  0.00017821  1
  Fe  Fe186  1  -0.00005920  0.16600553  0.00094928  1
  Fe  Fe187  1  0.49998818  0.33383025  0.25055956  1
  Fe  Fe188  1  0.75001349  0.83331929  0.37578104  1
  Fe  Fe189  1  0.75022797  0.66728286  0.62476851  1
  Fe  Fe190  1  0.00071896  0.83296206  0.75017748  1
  Fe  Fe191  1  0.74986049  0.66682800  0.87420792  1
  P  P192  1  0.04191652  0.24893685  0.10327313  1
  P  P193  1  0.04173141  0.25187045  0.35317781  1
  P  P194  1  0.04130804  0.25039483  0.60108470  1
  P  P195  1  0.04231856  0.24974240  0.85401628  1
  P  P196  1  0.04127041  0.58277562  0.10215542  1
  P  P197  1  0.04181337  0.58258362  0.35347615  1
  P  P198  1  0.04130116  0.58372636  0.60131963  1
  P  P199  1  0.04243209  0.58365502  0.85429548  1
  P  P200  1  0.04147908  0.91650499  0.10179312  1
  P  P201  1  0.04186507  0.91823047  0.35249678  1
  P  P202  1  0.04251083  0.91523168  0.60247627  1
  P  P203  1  0.04238458  0.91494725  0.85317644  1
  P  P204  1  0.54163667  0.25141432  0.10315925  1
  P  P205  1  0.54139225  0.25065046  0.35166830  1
  P  P206  1  0.54220684  0.25144428  0.60237687  1
  P  P207  1  0.54252160  0.24921459  0.85210566  1
  P  P208  1  0.54234114  0.58270616  0.10410937  1
  P  P209  1  0.54156554  0.58299139  0.35233500  1
  P  P210  1  0.54111037  0.58331727  0.60191005  1
  P  P211  1  0.54127640  0.58281722  0.85095372  1
  P  P212  1  0.54242012  0.91469418  0.10199819  1
  P  P213  1  0.54253690  0.91557989  0.35396469  1
  P  P214  1  0.54166222  0.91527504  0.60318785  1
  P  P215  1  0.54171487  0.91582191  0.85109876  1
  P  P216  1  0.45783626  0.08420737  0.14748219  1
  P  P217  1  0.45708716  0.08367030  0.39620868  1
  P  P218  1  0.45850375  0.08353683  0.64829197  1
  P  P219  1  0.45747373  0.08297997  0.89543598  1
  P  P220  1  0.45862344  0.41621372  0.14880596  1
  P  P221  1  0.45870953  0.41674479  0.39788675  1
  P  P222  1  0.45771972  0.41860501  0.64640263  1
  P  P223  1  0.45769330  0.41533988  0.89730151  1
  P  P224  1  0.45776380  0.74804792  0.14768889  1
  P  P225  1  0.45924478  0.74915288  0.39875683  1
  P  P226  1  0.45948559  0.74976350  0.64770210  1
  P  P227  1  0.45841938  0.75077678  0.89643210  1
  P  P228  1  0.95779343  0.08178546  0.14692481  1
  P  P229  1  0.95750131  0.08488739  0.39706445  1
  P  P230  1  0.95734887  0.08357391  0.64620380  1
  P  P231  1  0.95852640  0.08293166  0.89881056  1
  P  P232  1  0.95906628  0.41730664  0.14865365  1
  P  P233  1  0.95833883  0.41741723  0.39792424  1
  P  P234  1  0.95729999  0.41716124  0.64599738  1
  P  P235  1  0.95697448  0.41809623  0.89828482  1
  P  P236  1  0.95745680  0.74971099  0.14609052  1
  P  P237  1  0.95859807  0.75061922  0.39858163  1
  P  P238  1  0.95876889  0.75145157  0.64663052  1
  P  P239  1  0.95885882  0.75028877  0.89844869  1
  P  P240  1  0.20785504  0.08474579  0.22780408  1
  P  P241  1  0.20738359  0.08430583  0.47708854  1
  P  P242  1  0.20660105  0.08351016  0.72800517  1
  P  P243  1  0.20726538  0.08309711  0.97867421  1
  P  P244  1  0.20793380  0.41818745  0.22791927  1
  P  P245  1  0.20689857  0.41764917  0.47852752  1
  P  P246  1  0.20673435  0.41713835  0.72897168  1
  P  P247  1  0.20793946  0.41517689  0.97828247  1
  P  P248  1  0.20704412  0.74984761  0.22912742  1
  P  P249  1  0.20925342  0.75019036  0.47706134  1
  P  P250  1  0.20855319  0.74966143  0.72639910  1
  P  P251  1  0.20780300  0.74766006  0.97736394  1
  P  P252  1  0.70684891  0.08206769  0.22874780  1
  P  P253  1  0.70745686  0.08131473  0.47744617  1
  P  P254  1  0.70751483  0.08189442  0.72691797  1
  P  P255  1  0.70677920  0.08336566  0.97798920  1
  P  P256  1  0.70910722  0.41681817  0.22616564  1
  P  P257  1  0.70709359  0.41794511  0.47853881  1
  P  P258  1  0.70737233  0.41893386  0.72724638  1
  P  P259  1  0.70739481  0.41728892  0.97899825  1
  P  P260  1  0.70778415  0.74896958  0.22804686  1
  P  P261  1  0.70852385  0.75144684  0.47854421  1
  P  P262  1  0.70904554  0.75007423  0.72611418  1
  P  P263  1  0.70757084  0.74777642  0.97707892  1
  P  P264  1  0.29243753  0.24869416  0.02284569  1
  P  P265  1  0.29178267  0.24885880  0.27260786  1
  P  P266  1  0.29268435  0.24998811  0.52143479  1
  P  P267  1  0.29243688  0.25174645  0.77292181  1
  P  P268  1  0.29260879  0.58143105  0.02268052  1
  P  P269  1  0.29271344  0.58433463  0.27289474  1
  P  P270  1  0.29221890  0.58558377  0.52255744  1
  P  P271  1  0.29232693  0.58515311  0.77236096  1
  P  P272  1  0.29314146  0.91573170  0.02156817  1
  P  P273  1  0.29261910  0.91544102  0.27275761  1
  P  P274  1  0.29229686  0.91511058  0.52203654  1
  P  P275  1  0.29245431  0.91585199  0.77081937  1
  P  P276  1  0.79241617  0.25121502  0.02285201  1
  P  P277  1  0.79243803  0.25061018  0.27128335  1
  P  P278  1  0.79260792  0.25009159  0.52138431  1
  P  P279  1  0.79298514  0.25039938  0.77155653  1
  P  P280  1  0.79123584  0.58419566  0.02338272  1
  P  P281  1  0.79297124  0.58366681  0.27112874  1
  P  P282  1  0.79134554  0.58385134  0.52359649  1
  P  P283  1  0.79217739  0.58520051  0.77180744  1
  P  P284  1  0.79279499  0.91577982  0.02160632  1
  P  P285  1  0.79153449  0.91582040  0.27385249  1
  P  P286  1  0.79131517  0.91670684  0.52266745  1
  P  P287  1  0.79286634  0.91623754  0.77072312  1
  O  O288  1  0.03641676  0.24958368  0.18315167  1
  O  O289  1  0.03619398  0.25172254  0.43301837  1
  O  O290  1  0.03633865  0.25043954  0.68109507  1
  O  O291  1  0.03712328  0.24926460  0.93395839  1
  O  O292  1  0.03631914  0.58253036  0.18213186  1
  O  O293  1  0.03622412  0.58286613  0.43329764  1
  O  O294  1  0.03690251  0.58438305  0.68133492  1
  O  O295  1  0.03698507  0.58366234  0.93415334  1
  O  O296  1  0.03650037  0.91749250  0.18174193  1
  O  O297  1  0.03678144  0.91773362  0.43241688  1
  O  O298  1  0.03738808  0.91495699  0.68242888  1
  O  O299  1  0.03698717  0.91502526  0.93304048  1
  O  O300  1  0.53622470  0.25116654  0.18303135  1
  O  O301  1  0.53637094  0.25110979  0.43164174  1
  O  O302  1  0.53701327  0.25063997  0.68227675  1
  O  O303  1  0.53717611  0.24974711  0.93201846  1
  O  O304  1  0.53714701  0.58302014  0.18394498  1
  O  O305  1  0.53656348  0.58241069  0.43221692  1
  O  O306  1  0.53626296  0.58347973  0.68175441  1
  O  O307  1  0.53660411  0.58305760  0.93090983  1
  O  O308  1  0.53740215  0.91494143  0.18196349  1
  O  O309  1  0.53695445  0.91525934  0.43384528  1
  O  O310  1  0.53633641  0.91547374  0.68305162  1
  O  O311  1  0.53687475  0.91576108  0.93107646  1
  O  O312  1  0.46280034  0.08397302  0.06750626  1
  O  O313  1  0.46256456  0.08398647  0.31631513  1
  O  O314  1  0.46309464  0.08331521  0.56825960  1
  O  O315  1  0.46287953  0.08324494  0.81557398  1
  O  O316  1  0.46306901  0.41607214  0.06885125  1
  O  O317  1  0.46407401  0.41641044  0.31800844  1
  O  O318  1  0.46315067  0.41850715  0.56658119  1
  O  O319  1  0.46267977  0.41586918  0.81744337  1
  O  O320  1  0.46279323  0.74867711  0.06778258  1
  O  O321  1  0.46397129  0.74824407  0.31885959  1
  O  O322  1  0.46434459  0.74959060  0.56785245  1
  O  O323  1  0.46387605  0.75074369  0.81660292  1
  O  O324  1  0.96326018  0.08202281  0.06708967  1
  O  O325  1  0.96285715  0.08414331  0.31718640  1
  O  O326  1  0.96262348  0.08424420  0.56627988  1
  O  O327  1  0.96329337  0.08265116  0.81879958  1
  O  O328  1  0.96388134  0.41737241  0.06870418  1
  O  O329  1  0.96377487  0.41739704  0.31803545  1
  O  O330  1  0.96276293  0.41722954  0.56609849  1
  O  O331  1  0.96200266  0.41789148  0.81832556  1
  O  O332  1  0.96304989  0.74958742  0.06626031  1
  O  O333  1  0.96288120  0.75020373  0.31858573  1
  O  O334  1  0.96409008  0.75115686  0.56677750  1
  O  O335  1  0.96399574  0.75055780  0.81845673  1
  O  O336  1  0.21282004  0.08339283  0.05860031  1
  O  O337  1  0.21332511  0.08478793  0.30776610  1
  O  O338  1  0.21214780  0.08396701  0.55707278  1
  O  O339  1  0.21162911  0.08341608  0.80800115  1
  O  O340  1  0.21336536  0.41575807  0.05822611  1
  O  O341  1  0.21289316  0.41819645  0.30786566  1
  O  O342  1  0.21166750  0.41772959  0.55850064  1
  O  O343  1  0.21218482  0.41642688  0.80893604  1
  O  O344  1  0.21246189  0.74791169  0.05733048  1
  O  O345  1  0.21241977  0.75015422  0.30906421  1
  O  O346  1  0.21441893  0.75026682  0.55700308  1
  O  O347  1  0.21339107  0.74907776  0.80635882  1
  O  O348  1  0.71159328  0.08340956  0.05802713  1
  O  O349  1  0.71219982  0.08159108  0.30870753  1
  O  O350  1  0.71276910  0.08134118  0.55740124  1
  O  O351  1  0.71255107  0.08234581  0.80687737  1
  O  O352  1  0.71295044  0.41690415  0.05889142  1
  O  O353  1  0.71346058  0.41707307  0.30619683  1
  O  O354  1  0.71224460  0.41869014  0.55846581  1
  O  O355  1  0.71255612  0.41889171  0.80723836  1
  O  O356  1  0.71258453  0.74772548  0.05704927  1
  O  O357  1  0.71324416  0.75008513  0.30794693  1
  O  O358  1  0.71383435  0.75129306  0.55840875  1
  O  O359  1  0.71359538  0.74912142  0.80608187  1
  O  O360  1  0.28662314  0.24865348  0.19265621  1
  O  O361  1  0.28718613  0.24917172  0.44148456  1
  O  O362  1  0.28750848  0.25161357  0.69292050  1
  O  O363  1  0.28688028  0.24986300  0.94294648  1
  O  O364  1  0.28769018  0.58318218  0.19296517  1
  O  O365  1  0.28726508  0.58576198  0.44260911  1
  O  O366  1  0.28695045  0.58561088  0.69243362  1
  O  O367  1  0.28741886  0.58198543  0.94275257  1
  O  O368  1  0.28761416  0.91570721  0.19278282  1
  O  O369  1  0.28720888  0.91490621  0.44203430  1
  O  O370  1  0.28702234  0.91546252  0.69086961  1
  O  O371  1  0.28808322  0.91564211  0.94155784  1
  O  O372  1  0.78718797  0.25109608  0.19131189  1
  O  O373  1  0.78736688  0.24993843  0.44143264  1
  O  O374  1  0.78784831  0.25015324  0.69157370  1
  O  O375  1  0.78752996  0.25111497  0.94283526  1
  O  O376  1  0.78765214  0.58373304  0.19125466  1
  O  O377  1  0.78706015  0.58401572  0.44358117  1
  O  O378  1  0.78687287  0.58465542  0.69191683  1
  O  O379  1  0.78651726  0.58438485  0.94341552  1
  O  O380  1  0.78660516  0.91557633  0.19385940  1
  O  O381  1  0.78590785  0.91662493  0.44277868  1
  O  O382  1  0.78745077  0.91637095  0.69079990  1
  O  O383  1  0.78793371  0.91575295  0.94165315  1
  O  O384  1  0.22820601  0.24824213  0.05871490  1
  O  O385  1  0.22749501  0.24910257  0.30811169  1
  O  O386  1  0.22829910  0.25033533  0.55662428  1
  O  O387  1  0.22796953  0.25222999  0.80805762  1
  O  O388  1  0.22826727  0.58082829  0.05828024  1
  O  O389  1  0.22835160  0.58537618  0.30826253  1
  O  O390  1  0.22782953  0.58599340  0.55792952  1
  O  O391  1  0.22808550  0.58475276  0.80807729  1
  O  O392  1  0.22867376  0.91632812  0.05646708  1
  O  O393  1  0.22824953  0.91524527  0.30804933  1
  O  O394  1  0.22795766  0.91480923  0.55742355  1
  O  O395  1  0.22824010  0.91558291  0.80636133  1
  O  O396  1  0.72797643  0.25184447  0.05800635  1
  O  O397  1  0.72806174  0.25002640  0.30644393  1
  O  O398  1  0.72824812  0.25001967  0.55647602  1
  O  O399  1  0.72850420  0.25044350  0.80645452  1
  O  O400  1  0.72711529  0.58426972  0.05927574  1
  O  O401  1  0.72868154  0.58426966  0.30663140  1
  O  O402  1  0.72701003  0.58347498  0.55882163  1
  O  O403  1  0.72783364  0.58559366  0.80753663  1
  O  O404  1  0.72827177  0.91552377  0.05633563  1
  O  O405  1  0.72730966  0.91528078  0.30959397  1
  O  O406  1  0.72738127  0.91652123  0.55931130  1
  O  O407  1  0.72856080  0.91587161  0.80619033  1
  O  O408  1  0.27212211  0.08495027  0.19203779  1
  O  O409  1  0.27184820  0.08405839  0.44210834  1
  O  O410  1  0.27111704  0.08316979  0.69323906  1
  O  O411  1  0.27147202  0.08328753  0.94309006  1
  O  O412  1  0.27232615  0.41775311  0.19265108  1
  O  O413  1  0.27140860  0.41736389  0.44387111  1
  O  O414  1  0.27109266  0.41786307  0.69370940  1
  O  O415  1  0.27212169  0.41498835  0.94237394  1
  O  O416  1  0.27135712  0.74944880  0.19374116  1
  O  O417  1  0.27335521  0.75008553  0.44086011  1
  O  O418  1  0.27287004  0.74954073  0.69069334  1
  O  O419  1  0.27226405  0.74757024  0.94221729  1
  O  O420  1  0.77115118  0.08284444  0.19341248  1
  O  O421  1  0.77169810  0.08140727  0.44178270  1
  O  O422  1  0.77187575  0.08133245  0.69156271  1
  O  O423  1  0.77139794  0.08327684  0.94344893  1
  O  O424  1  0.77335882  0.41653481  0.19076027  1
  O  O425  1  0.77151263  0.41749162  0.44348342  1
  O  O426  1  0.77170574  0.41927518  0.69184305  1
  O  O427  1  0.77162987  0.41777830  0.94334767  1
  O  O428  1  0.77201881  0.74820979  0.19223700  1
  O  O429  1  0.77270030  0.75189779  0.44256176  1
  O  O430  1  0.77325977  0.75095037  0.69057569  1
  O  O431  1  0.77201433  0.74762311  0.94173787  1
  O  O432  1  0.02190459  0.08203966  0.18326974  1
  O  O433  1  0.02172408  0.08541734  0.43305064  1
  O  O434  1  0.02166395  0.08301160  0.68173279  1
  O  O435  1  0.02268612  0.08357220  0.93471875  1
  O  O436  1  0.02318912  0.41759502  0.18480589  1
  O  O437  1  0.02231771  0.41763530  0.43456079  1
  O  O438  1  0.02150914  0.41699162  0.68192715  1
  O  O439  1  0.02139528  0.41824228  0.93374880  1
  O  O440  1  0.02155099  0.75001530  0.18221823  1
  O  O441  1  0.02297738  0.75091483  0.43390824  1
  O  O442  1  0.02291988  0.75184602  0.68295632  1
  O  O443  1  0.02296506  0.75037882  0.93467371  1
  O  O444  1  0.52213311  0.08437953  0.18309315  1
  O  O445  1  0.52129178  0.08319991  0.43195096  1
  O  O446  1  0.52274235  0.08408261  0.68401227  1
  O  O447  1  0.52159374  0.08301091  0.93152119  1
  O  O448  1  0.52290126  0.41580853  0.18455134  1
  O  O449  1  0.52267716  0.41685997  0.43454935  1
  O  O450  1  0.52187682  0.41874605  0.68266258  1
  O  O451  1  0.52200129  0.41519333  0.93315074  1
  O  O452  1  0.52214761  0.74718884  0.18333905  1
  O  O453  1  0.52341757  0.74984336  0.43472609  1
  O  O454  1  0.52356614  0.75016837  0.68394156  1
  O  O455  1  0.52257082  0.75103591  0.93274897  1
  O  O456  1  0.47753456  0.25169245  0.06676737  1
  O  O457  1  0.47723921  0.25088861  0.31555985  1
  O  O458  1  0.47791979  0.25200956  0.56656435  1
  O  O459  1  0.47827023  0.24882408  0.81618726  1
  O  O460  1  0.47819253  0.58294349  0.06806906  1
  O  O461  1  0.47751758  0.58345296  0.31597514  1
  O  O462  1  0.47707859  0.58300624  0.56553669  1
  O  O463  1  0.47703868  0.58248794  0.81519366  1
  O  O464  1  0.47804541  0.91448034  0.06640117  1
  O  O465  1  0.47835983  0.91577994  0.31816759  1
  O  O466  1  0.47752002  0.91452052  0.56697544  1
  O  O467  1  0.47760391  0.91537038  0.81501825  1
  O  O468  1  0.97779332  0.24872532  0.06712284  1
  O  O469  1  0.97766775  0.25189004  0.31681425  1
  O  O470  1  0.97713538  0.25022427  0.56505677  1
  O  O471  1  0.97795351  0.24982825  0.81856843  1
  O  O472  1  0.97714416  0.58309979  0.06597932  1
  O  O473  1  0.97774160  0.58173144  0.31706959  1
  O  O474  1  0.97698974  0.58315138  0.56583007  1
  O  O475  1  0.97826192  0.58417474  0.81833102  1
  O  O476  1  0.97734237  0.91531514  0.06578240  1
  O  O477  1  0.97753438  0.91866159  0.31679375  1
  O  O478  1  0.97818183  0.91545739  0.56678957  1
  O  O479  1  0.97826985  0.91456601  0.81677290  1
  O  O480  1  0.07331505  0.31239595  0.07551769  1
  O  O481  1  0.07259328  0.31538122  0.32453690  1
  O  O482  1  0.07196869  0.31426043  0.57316435  1
  O  O483  1  0.07304651  0.31355382  0.82603596  1
  O  O484  1  0.07210642  0.64659165  0.07420259  1
  O  O485  1  0.07246804  0.64643623  0.32537080  1
  O  O486  1  0.07143438  0.64768339  0.57257970  1
  O  O487  1  0.07395922  0.64683434  0.82577535  1
  O  O488  1  0.07164608  0.98026067  0.07269124  1
  O  O489  1  0.07264967  0.98181257  0.32410964  1
  O  O490  1  0.07356700  0.97902870  0.57497111  1
  O  O491  1  0.07327903  0.97868678  0.82511352  1
  O  O492  1  0.57246571  0.31488781  0.07440001  1
  O  O493  1  0.57288383  0.31387928  0.32339724  1
  O  O494  1  0.57300678  0.31511311  0.57426002  1
  O  O495  1  0.57368588  0.31272203  0.82409258  1
  O  O496  1  0.57383084  0.64571840  0.07525105  1
  O  O497  1  0.57289067  0.64650519  0.32449590  1
  O  O498  1  0.57161611  0.64724579  0.57333331  1
  O  O499  1  0.57156580  0.64680131  0.82251313  1
  O  O500  1  0.57335787  0.97837751  0.07417303  1
  O  O501  1  0.57368011  0.97911147  0.32606893  1
  O  O502  1  0.57238174  0.97908286  0.57514812  1
  O  O503  1  0.57176425  0.97998527  0.82269463  1
  O  O504  1  0.42677698  0.02050227  0.17512239  1
  O  O505  1  0.42573224  0.02022445  0.42415988  1
  O  O506  1  0.42836982  0.01938863  0.67640368  1
  O  O507  1  0.42632404  0.01944181  0.92360101  1
  O  O508  1  0.42704130  0.35321512  0.17736224  1
  O  O509  1  0.42774177  0.35321723  0.42636664  1
  O  O510  1  0.42652381  0.35507838  0.67446255  1
  O  O511  1  0.42732172  0.35161712  0.92596535  1
  O  O512  1  0.42671791  0.68472798  0.17624107  1
  O  O513  1  0.42879712  0.68553471  0.42777034  1
  O  O514  1  0.42913881  0.68583253  0.67642776  1
  O  O515  1  0.42739400  0.68706236  0.92433679  1
  O  O516  1  0.92722428  0.01813224  0.17564048  1
  O  O517  1  0.92643145  0.02141560  0.42525851  1
  O  O518  1  0.92630441  0.01990066  0.67399361  1
  O  O519  1  0.92841099  0.01873449  0.92690746  1
  O  O520  1  0.92875688  0.35321025  0.17678012  1
  O  O521  1  0.92749466  0.35371804  0.42619096  1
  O  O522  1  0.92600704  0.35382445  0.67430842  1
  O  O523  1  0.92600702  0.35448181  0.92619785  1
  O  O524  1  0.92634735  0.68637517  0.17460481  1
  O  O525  1  0.92818737  0.68679160  0.42721171  1
  O  O526  1  0.92784309  0.68774325  0.67479410  1
  O  O527  1  0.92841867  0.68626263  0.92648053  1
  O  O528  1  0.17711090  0.02069523  0.20019625  1
  O  O529  1  0.17612137  0.02074669  0.44917682  1
  O  O530  1  0.17535588  0.02019420  0.69968968  1
  O  O531  1  0.17640330  0.01934524  0.95068686  1
  O  O532  1  0.17656831  0.35461695  0.20033165  1
  O  O533  1  0.17581051  0.35427089  0.45015410  1
  O  O534  1  0.17567838  0.35394405  0.70010502  1
  O  O535  1  0.17720004  0.35141257  0.95018551  1
  O  O536  1  0.17563374  0.68648584  0.20083860  1
  O  O537  1  0.17822090  0.68662181  0.44864385  1
  O  O538  1  0.17733996  0.68640045  0.69761663  1
  O  O539  1  0.17732422  0.68394782  0.94888841  1
  O  O540  1  0.67594871  0.01862398  0.20018388  1
  O  O541  1  0.67657148  0.01783637  0.44897761  1
  O  O542  1  0.67654570  0.01839759  0.69863667  1
  O  O543  1  0.67579618  0.01986395  0.94967625  1
  O  O544  1  0.67801028  0.35327415  0.19815638  1
  O  O545  1  0.67604947  0.35420745  0.45072253  1
  O  O546  1  0.67653663  0.35505786  0.69964265  1
  O  O547  1  0.67633300  0.35402121  0.95006820  1
  O  O548  1  0.67681587  0.68533412  0.20008816  1
  O  O549  1  0.67767460  0.68766065  0.45042636  1
  O  O550  1  0.67871584  0.68629479  0.69702579  1
  O  O551  1  0.67652386  0.68462450  0.94802894  1
  O  O552  1  0.32364060  0.31201005  0.05144686  1
  O  O553  1  0.32284884  0.31275699  0.30013139  1
  O  O554  1  0.32372552  0.31376688  0.54902555  1
  O  O555  1  0.32338415  0.31510395  0.80156326  1
  O  O556  1  0.32361197  0.64494512  0.05094894  1
  O  O557  1  0.32372515  0.64793140  0.30102042  1
  O  O558  1  0.32349926  0.64870016  0.55135041  1
  O  O559  1  0.32306052  0.64850114  0.80141072  1
  O  O560  1  0.32456151  0.97903168  0.04970465  1
  O  O561  1  0.32363845  0.97911344  0.30060898  1
  O  O562  1  0.32301791  0.97913935  0.54967937  1
  O  O563  1  0.32325074  0.97964506  0.79871699  1
  O  O564  1  0.82351825  0.31463003  0.05126502  1
  O  O565  1  0.82343656  0.31395959  0.29992281  1
  O  O566  1  0.82359152  0.31366067  0.54937911  1
  O  O567  1  0.82388336  0.31409195  0.79950145  1
  O  O568  1  0.82249310  0.64740259  0.05191560  1
  O  O569  1  0.82463203  0.64667567  0.29997611  1
  O  O570  1  0.82161002  0.64793921  0.55188652  1
  O  O571  1  0.82315032  0.64870315  0.80039280  1
  O  O572  1  0.82354249  0.97935353  0.04998576  1
  O  O573  1  0.82181127  0.97989747  0.30191617  1
  O  O574  1  0.82220874  0.98040021  0.55096307  1
  O  O575  1  0.82396986  0.97961249  0.79934651  1
  O  O576  1  0.42723738  0.14786754  0.17589453  1
  O  O577  1  0.42607522  0.14704974  0.42461933  1
  O  O578  1  0.42740236  0.14711258  0.67617118  1
  O  O579  1  0.42605790  0.14615821  0.92406810  1
  O  O580  1  0.42868847  0.48034354  0.17748307  1
  O  O581  1  0.42768721  0.48050960  0.42575027  1
  O  O582  1  0.42683155  0.48196159  0.67537863  1
  O  O583  1  0.42647418  0.47876146  0.92549573  1
  O  O584  1  0.42709725  0.81175804  0.17608155  1
  O  O585  1  0.42812091  0.81280118  0.42654937  1
  O  O586  1  0.42793189  0.81290387  0.67605808  1
  O  O587  1  0.42748658  0.81409992  0.92536170  1
  O  O588  1  0.92620469  0.14510288  0.17494105  1
  O  O589  1  0.92664112  0.14860095  0.42496519  1
  O  O590  1  0.92626813  0.14679469  0.67490071  1
  O  O591  1  0.92727319  0.14635014  0.92690467  1
  O  O592  1  0.92776516  0.48057784  0.17698270  1
  O  O593  1  0.92705181  0.48083500  0.42625619  1
  O  O594  1  0.92628467  0.48064338  0.67443511  1
  O  O595  1  0.92627704  0.48165742  0.92676510  1
  O  O596  1  0.92607761  0.81305335  0.17442159  1
  O  O597  1  0.92773405  0.81429966  0.42654112  1
  O  O598  1  0.92762750  0.81464315  0.67542058  1
  O  O599  1  0.92749943  0.81355677  0.92660631  1
  O  O600  1  0.07253145  0.18519119  0.07512259  1
  O  O601  1  0.07307365  0.18845853  0.32512332  1
  O  O602  1  0.07218501  0.18672322  0.57302367  1
  O  O603  1  0.07362638  0.18661523  0.82535069  1
  O  O604  1  0.07209880  0.51919593  0.07377536  1
  O  O605  1  0.07335182  0.51953069  0.32483769  1
  O  O606  1  0.07258097  0.52027171  0.57360191  1
  O  O607  1  0.07337205  0.52017593  0.82580818  1
  O  O608  1  0.07306231  0.85298870  0.07437959  1
  O  O609  1  0.07282837  0.85464557  0.32437081  1
  O  O610  1  0.07333368  0.85204727  0.57327036  1
  O  O611  1  0.07351568  0.85167348  0.82442660  1
  O  O612  1  0.57288340  0.18791700  0.07506519  1
  O  O613  1  0.57159437  0.18649703  0.32362592  1
  O  O614  1  0.57321221  0.18793609  0.57403370  1
  O  O615  1  0.57334906  0.18563862  0.82375781  1
  O  O616  1  0.57320986  0.51908149  0.07583122  1
  O  O617  1  0.57197703  0.51920744  0.32331101  1
  O  O618  1  0.57250363  0.52022850  0.57321692  1
  O  O619  1  0.57231005  0.51931553  0.82290908  1
  O  O620  1  0.57298878  0.85103762  0.07352270  1
  O  O621  1  0.57381874  0.85227892  0.32571228  1
  O  O622  1  0.57300201  0.85204759  0.57462433  1
  O  O623  1  0.57336820  0.85267441  0.82293330  1
  O  O624  1  0.32322378  0.18496634  0.05075540  1
  O  O625  1  0.32259480  0.18555544  0.30146813  1
  O  O626  1  0.32395921  0.18688925  0.55028696  1
  O  O627  1  0.32302625  0.18780337  0.80063998  1
  O  O628  1  0.32330628  0.51773870  0.05110176  1
  O  O629  1  0.32354807  0.52087843  0.30152139  1
  O  O630  1  0.32271282  0.52163471  0.55048195  1
  O  O631  1  0.32355556  0.52147482  0.79984228  1
  O  O632  1  0.32366453  0.85198654  0.04976537  1
  O  O633  1  0.32341668  0.85190700  0.30115565  1
  O  O634  1  0.32346556  0.85202141  0.55098207  1
  O  O635  1  0.32402113  0.85273988  0.79916011  1
  O  O636  1  0.82298614  0.18738777  0.05082278  1
  O  O637  1  0.82366267  0.18700727  0.29900126  1
  O  O638  1  0.82373621  0.18658486  0.54924597  1
  O  O639  1  0.82395669  0.18693861  0.79992251  1
  O  O640  1  0.82154061  0.52008319  0.05166565  1
  O  O641  1  0.82366112  0.52003202  0.29965024  1
  O  O642  1  0.82240278  0.52047943  0.55187983  1
  O  O643  1  0.82319925  0.52183724  0.80055348  1
  O  O644  1  0.82382611  0.85233934  0.04982323  1
  O  O645  1  0.82278009  0.85244071  0.30209541  1
  O  O646  1  0.82246151  0.85322952  0.55104047  1
  O  O647  1  0.82415811  0.85289300  0.79911639  1
  O  O648  1  0.17668327  0.14789248  0.19911880  1
  O  O649  1  0.17700935  0.14799321  0.44851272  1
  O  O650  1  0.17590242  0.14726246  0.70002033  1
  O  O651  1  0.17572464  0.14625042  0.95046941  1
  O  O652  1  0.17766119  0.48185489  0.19916228  1
  O  O653  1  0.17609431  0.48125254  0.45047191  1
  O  O654  1  0.17552469  0.48084754  0.70138185  1
  O  O655  1  0.17661778  0.47851599  0.95016239  1
  O  O656  1  0.17600664  0.81316023  0.20025489  1
  O  O657  1  0.17835202  0.81378748  0.44860279  1
  O  O658  1  0.17825782  0.81363136  0.69810772  1
  O  O659  1  0.17693828  0.81127610  0.94927881  1
  O  O660  1  0.67548202  0.14560561  0.20107275  1
  O  O661  1  0.67634691  0.14501885  0.44963485  1
  O  O662  1  0.67676434  0.14563697  0.69887423  1
  O  O663  1  0.67600260  0.14698178  0.94976957  1
  O  O664  1  0.67883502  0.48082642  0.19785075  1
  O  O665  1  0.67606378  0.48107585  0.44943109  1
  O  O666  1  0.67648055  0.48237971  0.69886393  1
  O  O667  1  0.67595288  0.48070562  0.95095861  1
  O  O668  1  0.67673250  0.81230714  0.19938150  1
  O  O669  1  0.67732085  0.81459543  0.44973283  1
  O  O670  1  0.67770138  0.81350750  0.69825039  1
  O  O671  1  0.67694912  0.81162442  0.94894577  1
