# generated using pymatgen
data_Na2MnFe(PO4)2
_symmetry_space_group_name_H-M   'P 1'
_cell_length_a   22.34454383
_cell_length_b   20.09903327
_cell_length_c   19.44762335
_cell_angle_alpha   90.01778612
_cell_angle_beta   90.02627076
_cell_angle_gamma   89.98759419
_symmetry_Int_Tables_number   1
_chemical_formula_structural   Na2MnFe(PO4)2
_chemical_formula_sum   'Na96 Mn48 Fe48 P96 O384'
_cell_volume   8733.99864117
_cell_formula_units_Z   48
loop_
 _symmetry_equiv_pos_site_id
 _symmetry_equiv_pos_as_xyz
  1  'x, y, z'
loop_
 _atom_site_type_symbol
 _atom_site_label
 _atom_site_symmetry_multiplicity
 _atom_site_fract_x
 _atom_site_fract_y
 _atom_site_fract_z
 _atom_site_occupancy
  Na  Na0  1  0.14040190  0.25007714  0.24305231  1
  Na  Na1  1  0.13997106  0.24928426  0.49432673  1
  Na  Na2  1  0.13986995  0.25076471  0.74409130  1
  Na  Na3  1  0.14032710  0.25032998  0.99411157  1
  Na  Na4  1  0.14024368  0.58382757  0.24140172  1
  Na  Na5  1  0.13993999  0.58390492  0.49432972  1
  Na  Na6  1  0.14012282  0.58554595  0.74509607  1
  Na  Na7  1  0.13986155  0.58306422  0.99386653  1
  Na  Na8  1  0.13996572  0.91609936  0.24253896  1
  Na  Na9  1  0.13947427  0.91603569  0.49372108  1
  Na  Na10  1  0.13955888  0.91669656  0.74398648  1
  Na  Na11  1  0.13942223  0.91579376  0.99406584  1
  Na  Na12  1  0.63997440  0.25110356  0.24397269  1
  Na  Na13  1  0.64023208  0.25045719  0.49339907  1
  Na  Na14  1  0.64042501  0.24822889  0.74328726  1
  Na  Na15  1  0.64044313  0.25002755  0.99280622  1
  Na  Na16  1  0.64044766  0.58229806  0.24277065  1
  Na  Na17  1  0.64063222  0.58284214  0.49334203  1
  Na  Na18  1  0.64051509  0.58312911  0.74389710  1
  Na  Na19  1  0.64060553  0.58312502  0.99302716  1
  Na  Na20  1  0.64041932  0.91662997  0.24366961  1
  Na  Na21  1  0.64061957  0.91698048  0.49583321  1
  Na  Na22  1  0.64086908  0.91697685  0.74324422  1
  Na  Na23  1  0.64098889  0.91612889  0.99259316  1
  Na  Na24  1  0.35968533  0.08423954  0.00621365  1
  Na  Na25  1  0.35941713  0.08352233  0.25531039  1
  Na  Na26  1  0.35950942  0.08281460  0.50655245  1
  Na  Na27  1  0.36010224  0.08471494  0.75714633  1
  Na  Na28  1  0.35999226  0.41720016  0.00748631  1
  Na  Na29  1  0.36055659  0.41699046  0.25557056  1
  Na  Na30  1  0.36032051  0.41710601  0.50597814  1
  Na  Na31  1  0.36016640  0.41831240  0.75663422  1
  Na  Na32  1  0.35937330  0.74960218  0.00693215  1
  Na  Na33  1  0.35968914  0.75020749  0.25452724  1
  Na  Na34  1  0.35960107  0.75039249  0.50468141  1
  Na  Na35  1  0.35963678  0.75072060  0.75579277  1
  Na  Na36  1  0.85970988  0.08207945  0.00578727  1
  Na  Na37  1  0.85925709  0.08311161  0.25572445  1
  Na  Na38  1  0.85933310  0.08217094  0.50771792  1
  Na  Na39  1  0.85989111  0.08152518  0.75757497  1
  Na  Na40  1  0.85980529  0.41686311  0.00599785  1
  Na  Na41  1  0.85984522  0.41611555  0.25636701  1
  Na  Na42  1  0.85961098  0.41636007  0.50603152  1
  Na  Na43  1  0.85938284  0.41605099  0.75731627  1
  Na  Na44  1  0.86006916  0.74951121  0.00611525  1
  Na  Na45  1  0.86018979  0.75002030  0.25643137  1
  Na  Na46  1  0.85979446  0.75062704  0.50803035  1
  Na  Na47  1  0.85947926  0.74953352  0.75811196  1
  Na  Na48  1  0.10910119  0.08102970  0.11912045  1
  Na  Na49  1  0.10928971  0.08229490  0.36802074  1
  Na  Na50  1  0.10911921  0.08220735  0.61922839  1
  Na  Na51  1  0.10887730  0.08238894  0.86849837  1
  Na  Na52  1  0.10966958  0.41657039  0.11779613  1
  Na  Na53  1  0.10936527  0.41767315  0.36781529  1
  Na  Na54  1  0.10920820  0.41622961  0.62030203  1
  Na  Na55  1  0.10957266  0.41679672  0.86905993  1
  Na  Na56  1  0.10924375  0.74981720  0.11754679  1
  Na  Na57  1  0.10881076  0.75152495  0.36813200  1
  Na  Na58  1  0.10938676  0.75075567  0.61992059  1
  Na  Na59  1  0.10957246  0.75023406  0.86926283  1
  Na  Na60  1  0.60945506  0.08438416  0.11767970  1
  Na  Na61  1  0.60950818  0.08517338  0.37014045  1
  Na  Na62  1  0.61016163  0.08459022  0.61926242  1
  Na  Na63  1  0.61024484  0.08417550  0.86752186  1
  Na  Na64  1  0.61029942  0.41549404  0.11847222  1
  Na  Na65  1  0.61018933  0.41750440  0.36816619  1
  Na  Na66  1  0.60937286  0.41642270  0.61807134  1
  Na  Na67  1  0.60950843  0.41577692  0.86915903  1
  Na  Na68  1  0.61005459  0.74887239  0.11789121  1
  Na  Na69  1  0.60996489  0.74950073  0.36881200  1
  Na  Na70  1  0.61027350  0.74946743  0.61871470  1
  Na  Na71  1  0.61007643  0.74992533  0.86735602  1
  Na  Na72  1  0.39073155  0.25151700  0.13045476  1
  Na  Na73  1  0.39085559  0.25189106  0.38093694  1
  Na  Na74  1  0.39082166  0.25084572  0.63105760  1
  Na  Na75  1  0.39073186  0.25120986  0.88180679  1
  Na  Na76  1  0.39070579  0.58194678  0.13159592  1
  Na  Na77  1  0.39066600  0.58275024  0.37918055  1
  Na  Na78  1  0.39069105  0.58300677  0.63051969  1
  Na  Na79  1  0.39050291  0.58268341  0.88203834  1
  Na  Na80  1  0.39027615  0.91653756  0.13160003  1
  Na  Na81  1  0.39013978  0.91799217  0.38085637  1
  Na  Na82  1  0.39010189  0.91764617  0.63134390  1
  Na  Na83  1  0.39060517  0.91837725  0.88104358  1
  Na  Na84  1  0.89032408  0.24935408  0.13132407  1
  Na  Na85  1  0.89019439  0.25059610  0.38085382  1
  Na  Na86  1  0.89038891  0.24826381  0.63228453  1
  Na  Na87  1  0.89050277  0.24886351  0.88119737  1
  Na  Na88  1  0.89067483  0.58305728  0.13100499  1
  Na  Na89  1  0.89058901  0.58474368  0.38143361  1
  Na  Na90  1  0.89014573  0.58372247  0.63282003  1
  Na  Na91  1  0.89018717  0.58395970  0.88248244  1
  Na  Na92  1  0.88991464  0.91465233  0.13050174  1
  Na  Na93  1  0.89027443  0.91659987  0.38073069  1
  Na  Na94  1  0.89043317  0.91539912  0.63380803  1
  Na  Na95  1  0.89016156  0.91525469  0.88188671  1
  Mn  Mn96  1  0.25060002  0.66831630  0.62427147  1
  Mn  Mn97  1  0.24947127  0.33348367  0.37465928  1
  Mn  Mn98  1  0.00002171  0.50052337  0.24986882  1
  Mn  Mn99  1  0.24957360  0.50117626  0.62567122  1
  Mn  Mn100  1  0.50051427  0.00192353  0.50060614  1
  Mn  Mn101  1  0.50021083  0.83333488  -0.00029052  1
  Mn  Mn102  1  0.49989670  0.66536412  0.74903371  1
  Mn  Mn103  1  0.25058649  0.83295941  0.87549956  1
  Mn  Mn104  1  -0.00017197  0.50055436  0.50060667  1
  Mn  Mn105  1  -0.00076009  -0.00123104  0.49966011  1
  Mn  Mn106  1  0.24953896  -0.00046461  0.62551325  1
  Mn  Mn107  1  0.25052496  0.16553952  0.37396558  1
  Mn  Mn108  1  0.24982813  0.50009712  0.37403830  1
  Mn  Mn109  1  0.49961523  0.16876221  0.24950137  1
  Mn  Mn110  1  0.24911762  0.16810608  0.87630797  1
  Mn  Mn111  1  0.50012722  0.00121139  0.25026782  1
  Mn  Mn112  1  0.74948380  0.16740875  0.12532107  1
  Mn  Mn113  1  0.74982961  -0.00034126  0.37579359  1
  Mn  Mn114  1  0.24937139  0.83414232  0.37406521  1
  Mn  Mn115  1  0.49987006  0.33349965  0.74985909  1
  Mn  Mn116  1  0.74943959  0.66616404  0.37532047  1
  Mn  Mn117  1  0.75079061  0.66690641  0.12439829  1
  Mn  Mn118  1  0.24954396  0.66705909  0.37414601  1
  Mn  Mn119  1  0.75067530  0.49920151  0.12466274  1
  Mn  Mn120  1  -0.00036005  0.16622055  0.50003164  1
  Mn  Mn121  1  0.75006187  0.83326473  0.37631097  1
  Mn  Mn122  1  0.75018348  0.33272663  0.87442205  1
  Mn  Mn123  1  0.24996637  0.16668780  0.62495442  1
  Mn  Mn124  1  0.49978581  0.66553171  0.49903117  1
  Mn  Mn125  1  0.24949401  0.16688185  0.12511428  1
  Mn  Mn126  1  0.00019549  0.33282184  -0.00006865  1
  Mn  Mn127  1  0.24984155  -0.00002111  0.87541550  1
  Mn  Mn128  1  -0.00019655  0.50030963  0.75062247  1
  Mn  Mn129  1  0.25009575  0.50069025  0.87568471  1
  Mn  Mn130  1  0.49994032  0.83376478  0.49963079  1
  Mn  Mn131  1  0.00024169  0.66822009  0.50098310  1
  Mn  Mn132  1  0.50106799  0.83276498  0.25017449  1
  Mn  Mn133  1  0.49969453  0.83406017  0.74948918  1
  Mn  Mn134  1  0.24990621  0.33395905  0.62520636  1
  Mn  Mn135  1  0.00043223  0.16493312  0.00035270  1
  Mn  Mn136  1  0.74954571  0.33230878  0.62569869  1
  Mn  Mn137  1  0.74928799  -0.00085696  0.12474090  1
  Mn  Mn138  1  0.00007655  0.33331067  0.50043582  1
  Mn  Mn139  1  -0.00030584  0.16577214  0.24962492  1
  Mn  Mn140  1  0.50071434  0.00121997  -0.00006826  1
  Mn  Mn141  1  0.74957801  0.16704562  0.37532767  1
  Mn  Mn142  1  0.74985570  0.50030292  0.62533946  1
  Mn  Mn143  1  0.50006481  0.66525297  -0.00091569  1
  Fe  Fe144  1  -0.00001585  -0.00125210  0.75016618  1
  Fe  Fe145  1  0.24991780  0.66671380  0.12460424  1
  Fe  Fe146  1  -0.00031063  0.49994854  -0.00016011  1
  Fe  Fe147  1  0.50042187  0.33355098  -0.00029406  1
  Fe  Fe148  1  0.50082857  0.49984765  0.49901858  1
  Fe  Fe149  1  0.24977076  0.83380790  0.62474241  1
  Fe  Fe150  1  0.74974526  0.83262851  0.12418986  1
  Fe  Fe151  1  0.24962684  0.49993375  0.12413031  1
  Fe  Fe152  1  0.75038113  -0.00052480  0.62639442  1
  Fe  Fe153  1  0.00014020  0.33332095  0.24975159  1
  Fe  Fe154  1  0.75091232  0.49978663  0.37497383  1
  Fe  Fe155  1  -0.00001052  0.66675273  0.00053082  1
  Fe  Fe156  1  0.49938325  0.16796911  0.50039356  1
  Fe  Fe157  1  -0.00032154  0.83269525  0.75135108  1
  Fe  Fe158  1  -0.00077143  0.33309066  0.75046922  1
  Fe  Fe159  1  0.00010107  0.66704631  0.75158390  1
  Fe  Fe160  1  0.00025747  0.66709266  0.24984095  1
  Fe  Fe161  1  0.50045819  0.16773177  0.74987879  1
  Fe  Fe162  1  0.50014712  0.00148569  0.75031509  1
  Fe  Fe163  1  -0.00070288  -0.00153096  -0.00070776  1
  Fe  Fe164  1  0.75001422  0.66674789  0.87486594  1
  Fe  Fe165  1  0.75043056  0.33331169  0.12443893  1
  Fe  Fe166  1  0.50041375  0.66580352  0.24916102  1
  Fe  Fe167  1  0.50066603  0.49914363  0.00075933  1
  Fe  Fe168  1  -0.00114825  -0.00120992  0.24932159  1
  Fe  Fe169  1  0.74976951  0.83271953  0.87452724  1
  Fe  Fe170  1  0.75033515  0.33320337  0.37497636  1
  Fe  Fe171  1  0.74991887  -0.00051293  0.87464140  1
  Fe  Fe172  1  0.24955979  -0.00001691  0.12500114  1
  Fe  Fe173  1  -0.00025187  0.83261888  0.00027776  1
  Fe  Fe174  1  0.75014004  0.83297520  0.62641966  1
  Fe  Fe175  1  0.50004210  0.16746228  -0.00045443  1
  Fe  Fe176  1  0.74983919  0.49995790  0.87509126  1
  Fe  Fe177  1  0.24987796  -0.00062507  0.37487976  1
  Fe  Fe178  1  0.25050826  0.33374178  0.12492696  1
  Fe  Fe179  1  0.50057692  0.49922147  0.24999070  1
  Fe  Fe180  1  0.25002054  0.33435507  0.87548374  1
  Fe  Fe181  1  0.75067098  0.16587475  0.62480792  1
  Fe  Fe182  1  0.50080511  0.33410977  0.24993958  1
  Fe  Fe183  1  0.75045932  0.66640389  0.62565213  1
  Fe  Fe184  1  0.75058929  0.16595636  0.87476462  1
  Fe  Fe185  1  -0.00036593  0.83304864  0.24941679  1
  Fe  Fe186  1  0.50016631  0.33425691  0.49999338  1
  Fe  Fe187  1  0.25006567  0.66686235  0.87566609  1
  Fe  Fe188  1  0.24991348  0.83369516  0.12470030  1
  Fe  Fe189  1  -0.00014488  0.16574789  0.75034252  1
  Fe  Fe190  1  0.50023097  0.49923586  0.74977170  1
  Fe  Fe191  1  -0.00068014  0.83350230  0.50053754  1
  P  P192  1  0.04262019  0.24933234  0.10354415  1
  P  P193  1  0.04215748  0.25076653  0.35194296  1
  P  P194  1  0.04218705  0.24933826  0.60440960  1
  P  P195  1  0.04103033  0.24959946  0.85167521  1
  P  P196  1  0.04104118  0.58343572  0.10177742  1
  P  P197  1  0.04255618  0.58553803  0.35225079  1
  P  P198  1  0.04255666  0.58411919  0.60439990  1
  P  P199  1  0.04177343  0.58471230  0.85410743  1
  P  P200  1  0.04037059  0.91583838  0.10196564  1
  P  P201  1  0.04118899  0.91629330  0.35112038  1
  P  P202  1  0.04151038  0.91509745  0.60348205  1
  P  P203  1  0.04102903  0.91618897  0.85246274  1
  P  P204  1  0.54176662  0.25063596  0.10134916  1
  P  P205  1  0.54215663  0.25259632  0.35327301  1
  P  P206  1  0.54167189  0.25058585  0.60179107  1
  P  P207  1  0.54235825  0.24939346  0.85284289  1
  P  P208  1  0.54268494  0.58150836  0.10286159  1
  P  P209  1  0.54188118  0.58276577  0.35100876  1
  P  P210  1  0.54250364  0.58128599  0.60210867  1
  P  P211  1  0.54213164  0.58099916  0.85242011  1
  P  P212  1  0.54324543  0.91682514  0.10291003  1
  P  P213  1  0.54321267  0.91756147  0.35332686  1
  P  P214  1  0.54224320  0.91790326  0.60391240  1
  P  P215  1  0.54243164  0.91860231  0.85203086  1
  P  P216  1  0.45737276  0.08475633  0.14622554  1
  P  P217  1  0.45757235  0.08604976  0.39779639  1
  P  P218  1  0.45860744  0.08503332  0.64842991  1
  P  P219  1  0.45825991  0.08543068  0.89678412  1
  P  P220  1  0.45947170  0.41648376  0.14771072  1
  P  P221  1  0.45890769  0.41709944  0.39745300  1
  P  P222  1  0.45802435  0.41771208  0.64663351  1
  P  P223  1  0.45863391  0.41699374  0.89852642  1
  P  P224  1  0.45839299  0.74817444  0.14713104  1
  P  P225  1  0.45756603  0.74940397  0.39569149  1
  P  P226  1  0.45727526  0.74969978  0.64628974  1
  P  P227  1  0.45721403  0.74987073  0.89639936  1
  P  P228  1  0.95725668  0.08061508  0.14675731  1
  P  P229  1  0.95661809  0.08266391  0.39642075  1
  P  P230  1  0.95851803  0.08202221  0.64902273  1
  P  P231  1  0.95802806  0.08106470  0.89666761  1
  P  P232  1  0.95815871  0.41590107  0.14704893  1
  P  P233  1  0.95753045  0.41701767  0.39657299  1
  P  P234  1  0.95703001  0.41556555  0.64829446  1
  P  P235  1  0.95790504  0.41722954  0.89737119  1
  P  P236  1  0.95865116  0.74936159  0.14756167  1
  P  P237  1  0.95748708  0.75202672  0.39744240  1
  P  P238  1  0.95828151  0.74974815  0.64968144  1
  P  P239  1  0.95890991  0.74958924  0.89849498  1
  P  P240  1  0.20743297  0.08163116  0.22761242  1
  P  P241  1  0.20733511  0.08167066  0.47704322  1
  P  P242  1  0.20691780  0.08395137  0.72860713  1
  P  P243  1  0.20669761  0.08301166  0.97903837  1
  P  P244  1  0.20847196  0.41689017  0.22582194  1
  P  P245  1  0.20673875  0.41706842  0.47798009  1
  P  P246  1  0.20718080  0.41744931  0.72928764  1
  P  P247  1  0.20794611  0.41587950  0.97853362  1
  P  P248  1  0.20827645  0.75024466  0.22560523  1
  P  P249  1  0.20668729  0.75095048  0.47772051  1
  P  P250  1  0.20783258  0.75167780  0.72778059  1
  P  P251  1  0.20804061  0.74856234  0.97857254  1
  P  P252  1  0.70662035  0.08345892  0.22796744  1
  P  P253  1  0.70757792  0.08330216  0.47961118  1
  P  P254  1  0.70960407  0.08326572  0.72749049  1
  P  P255  1  0.70885264  0.08312771  0.97615981  1
  P  P256  1  0.70857129  0.41499754  0.22791297  1
  P  P257  1  0.70889313  0.41676506  0.47651804  1
  P  P258  1  0.70732119  0.41667804  0.72860133  1
  P  P259  1  0.70819729  0.41712341  0.97732059  1
  P  P260  1  0.70789466  0.75072447  0.22710857  1
  P  P261  1  0.70738080  0.74965738  0.47969119  1
  P  P262  1  0.70894242  0.74938089  0.72773552  1
  P  P263  1  0.70863189  0.75008020  0.97630442  1
  P  P264  1  0.29199374  0.25179724  0.02244289  1
  P  P265  1  0.29279246  0.25044685  0.27105193  1
  P  P266  1  0.29286991  0.24988749  0.52172931  1
  P  P267  1  0.29229842  0.25200141  0.77330544  1
  P  P268  1  0.29124331  0.58366726  0.02319128  1
  P  P269  1  0.29213486  0.58372880  0.26989170  1
  P  P270  1  0.29302060  0.58379539  0.52148475  1
  P  P271  1  0.29251913  0.58547238  0.77298655  1
  P  P272  1  0.29146752  0.91682914  0.02355485  1
  P  P273  1  0.29202483  0.91822430  0.27113687  1
  P  P274  1  0.29217437  0.91581439  0.52213046  1
  P  P275  1  0.29290995  0.91655372  0.77176023  1
  P  P276  1  0.79244323  0.25068552  0.02192103  1
  P  P277  1  0.79206510  0.25136014  0.27220608  1
  P  P278  1  0.79221792  0.24908681  0.52250246  1
  P  P279  1  0.79238177  0.24747335  0.77216799  1
  P  P280  1  0.79268290  0.58311390  0.02079233  1
  P  P281  1  0.79242530  0.58209035  0.27254103  1
  P  P282  1  0.79256268  0.58411673  0.52274952  1
  P  P283  1  0.79131618  0.58349052  0.77361856  1
  P  P284  1  0.79158339  0.91475385  0.02132983  1
  P  P285  1  0.79231326  0.91602377  0.27180526  1
  P  P286  1  0.79167103  0.91637521  0.52506563  1
  P  P287  1  0.79109017  0.91587822  0.77319458  1
  O  O288  1  0.03730616  0.24993927  0.18344004  1
  O  O289  1  0.03712768  0.25058563  0.43197042  1
  O  O290  1  0.03654403  0.24937402  0.68428933  1
  O  O291  1  0.03641439  0.24917000  0.93171024  1
  O  O292  1  0.03641776  0.58347621  0.18175792  1
  O  O293  1  0.03764041  0.58530993  0.43223933  1
  O  O294  1  0.03723990  0.58431947  0.68435826  1
  O  O295  1  0.03595932  0.58430852  0.93396685  1
  O  O296  1  0.03515260  0.91566103  0.18179779  1
  O  O297  1  0.03619773  0.91615013  0.43108854  1
  O  O298  1  0.03629995  0.91541756  0.68332927  1
  O  O299  1  0.03596082  0.91620699  0.93233030  1
  O  O300  1  0.53698538  0.25153630  0.18131453  1
  O  O301  1  0.53651064  0.25241199  0.43309204  1
  O  O302  1  0.53671931  0.25029049  0.68179492  1
  O  O303  1  0.53735123  0.24945688  0.93269818  1
  O  O304  1  0.53745299  0.58226236  0.18272480  1
  O  O305  1  0.53709924  0.58220526  0.43097489  1
  O  O306  1  0.53720339  0.58110933  0.68205401  1
  O  O307  1  0.53686735  0.58094998  0.93237290  1
  O  O308  1  0.53822050  0.91680374  0.18288885  1
  O  O309  1  0.53794106  0.91753521  0.43332819  1
  O  O310  1  0.53674067  0.91850883  0.68385493  1
  O  O311  1  0.53769145  0.91830566  0.93204876  1
  O  O312  1  0.46265227  0.08508957  0.06628229  1
  O  O313  1  0.46266987  0.08585320  0.31782619  1
  O  O314  1  0.46349061  0.08540753  0.56843343  1
  O  O315  1  0.46373048  0.08487202  0.81688656  1
  O  O316  1  0.46420101  0.41674127  0.06782920  1
  O  O317  1  0.46407975  0.41679417  0.31755661  1
  O  O318  1  0.46361170  0.41745921  0.56681294  1
  O  O319  1  0.46309759  0.41695058  0.81854034  1
  O  O320  1  0.46341014  0.74844437  0.06711872  1
  O  O321  1  0.46327416  0.74884295  0.31575634  1
  O  O322  1  0.46237886  0.74966040  0.56630318  1
  O  O323  1  0.46220251  0.74993917  0.81642562  1
  O  O324  1  0.96288307  0.08055275  0.06682486  1
  O  O325  1  0.96151765  0.08218296  0.31643391  1
  O  O326  1  0.96295327  0.08236113  0.56898294  1
  O  O327  1  0.96367030  0.08131837  0.81681059  1
  O  O328  1  0.96341964  0.41667757  0.06708195  1
  O  O329  1  0.96297865  0.41660899  0.31659002  1
  O  O330  1  0.96228472  0.41610949  0.56830898  1
  O  O331  1  0.96307129  0.41662459  0.81742589  1
  O  O332  1  0.96399241  0.74878745  0.06770268  1
  O  O333  1  0.96267017  0.75187443  0.31760827  1
  O  O334  1  0.96278368  0.75045412  0.56972620  1
  O  O335  1  0.96385298  0.74975524  0.81865917  1
  O  O336  1  0.21197217  0.08253764  0.05899516  1
  O  O337  1  0.21281747  0.08130833  0.30755319  1
  O  O338  1  0.21229223  0.08205051  0.55708890  1
  O  O339  1  0.21176035  0.08417868  0.80859958  1
  O  O340  1  0.21353506  0.41593882  0.05843488  1
  O  O341  1  0.21275096  0.41719501  0.30587206  1
  O  O342  1  0.21176555  0.41722347  0.55800642  1
  O  O343  1  0.21258423  0.41713196  0.80928277  1
  O  O344  1  0.21325616  0.74865894  0.05844976  1
  O  O345  1  0.21265205  0.75064504  0.30561089  1
  O  O346  1  0.21186277  0.75162345  0.55767222  1
  O  O347  1  0.21300591  0.75086644  0.80772314  1
  O  O348  1  0.71314643  0.08295449  0.05617133  1
  O  O349  1  0.71165919  0.08352335  0.30795391  1
  O  O350  1  0.71326991  0.08340574  0.55951947  1
  O  O351  1  0.71461117  0.08338675  0.80743268  1
  O  O352  1  0.71371007  0.41622177  0.05723750  1
  O  O353  1  0.71412678  0.41534795  0.30778194  1
  O  O354  1  0.71334081  0.41673156  0.55656430  1
  O  O355  1  0.71264205  0.41711384  0.80850025  1
  O  O356  1  0.71339320  0.75032117  0.05628756  1
  O  O357  1  0.71272657  0.75029886  0.30711727  1
  O  O358  1  0.71264533  0.74916370  0.55960375  1
  O  O359  1  0.71390525  0.74969192  0.80768844  1
  O  O360  1  0.28744703  0.25089957  0.19108899  1
  O  O361  1  0.28783557  0.24967856  0.44174620  1
  O  O362  1  0.28728175  0.25144884  0.69330949  1
  O  O363  1  0.28655351  0.25221854  0.94252495  1
  O  O364  1  0.28660868  0.58351806  0.18996733  1
  O  O365  1  0.28792616  0.58355899  0.44146999  1
  O  O366  1  0.28757969  0.58524213  0.69301175  1
  O  O367  1  0.28651913  0.58387831  0.94319148  1
  O  O368  1  0.28678350  0.91826172  0.19120825  1
  O  O369  1  0.28702526  0.91673208  0.44213646  1
  O  O370  1  0.28787803  0.91608230  0.69177601  1
  O  O371  1  0.28706621  0.91649932  0.94350958  1
  O  O372  1  0.78693055  0.25162550  0.19221544  1
  O  O373  1  0.78692963  0.25000711  0.44253440  1
  O  O374  1  0.78706337  0.24718139  0.69223612  1
  O  O375  1  0.78716481  0.24980689  0.94196874  1
  O  O376  1  0.78757717  0.58222208  0.19253937  1
  O  O377  1  0.78735111  0.58349932  0.44279758  1
  O  O378  1  0.78659052  0.58433533  0.69362309  1
  O  O379  1  0.78735696  0.58304487  0.94091277  1
  O  O380  1  0.78704519  0.91546037  0.19184375  1
  O  O381  1  0.78708681  0.91642275  0.44505059  1
  O  O382  1  0.78627541  0.91623832  0.69331814  1
  O  O383  1  0.78608938  0.91484497  0.94145345  1
  O  O384  1  0.22781087  0.25178193  0.05824514  1
  O  O385  1  0.22843280  0.24972893  0.30628350  1
  O  O386  1  0.22839297  0.25011932  0.55671298  1
  O  O387  1  0.22786235  0.25269135  0.80864292  1
  O  O388  1  0.22702608  0.58404134  0.05882466  1
  O  O389  1  0.22791042  0.58347329  0.30567696  1
  O  O390  1  0.22858565  0.58434554  0.55653016  1
  O  O391  1  0.22814775  0.58521562  0.80837081  1
  O  O392  1  0.22703967  0.91693292  0.05861084  1
  O  O393  1  0.22775509  0.91870013  0.30706845  1
  O  O394  1  0.22783009  0.91522677  0.55776153  1
  O  O395  1  0.22849537  0.91635868  0.80687911  1
  O  O396  1  0.72814092  0.25168967  0.05762913  1
  O  O397  1  0.72781988  0.25138640  0.30787446  1
  O  O398  1  0.72796440  0.24810410  0.55825939  1
  O  O399  1  0.72813646  0.24771738  0.80784984  1
  O  O400  1  0.72857608  0.58312387  0.05665219  1
  O  O401  1  0.72809384  0.58138965  0.30796694  1
  O  O402  1  0.72823557  0.58497641  0.55838158  1
  O  O403  1  0.72714230  0.58283708  0.80939622  1
  O  O404  1  0.72751830  0.91428613  0.05769158  1
  O  O405  1  0.72803709  0.91624854  0.30731748  1
  O  O406  1  0.72746046  0.91653818  0.56061388  1
  O  O407  1  0.72701666  0.91553296  0.80924725  1
  O  O408  1  0.27163420  0.08211551  0.19182614  1
  O  O409  1  0.27179393  0.08116561  0.44179239  1
  O  O410  1  0.27142157  0.08346355  0.69378456  1
  O  O411  1  0.27106296  0.08371664  0.94383933  1
  O  O412  1  0.27289106  0.41699516  0.19075666  1
  O  O413  1  0.27126467  0.41698575  0.44309803  1
  O  O414  1  0.27149472  0.41764558  0.69389920  1
  O  O415  1  0.27208602  0.41574244  0.94236902  1
  O  O416  1  0.27256679  0.74994728  0.19021974  1
  O  O417  1  0.27104643  0.75070931  0.44244989  1
  O  O418  1  0.27205821  0.75265269  0.69189634  1
  O  O419  1  0.27225200  0.74838189  0.94263320  1
  O  O420  1  0.77100331  0.08333652  0.19285931  1
  O  O421  1  0.77169559  0.08338044  0.44360591  1
  O  O422  1  0.77361497  0.08345151  0.69118860  1
  O  O423  1  0.77313244  0.08319689  0.94073142  1
  O  O424  1  0.77268060  0.41436166  0.19160863  1
  O  O425  1  0.77311719  0.41714622  0.44089435  1
  O  O426  1  0.77159921  0.41635801  0.69324741  1
  O  O427  1  0.77229726  0.41749148  0.94129257  1
  O  O428  1  0.77230596  0.75160324  0.19172585  1
  O  O429  1  0.77163662  0.74934384  0.44405669  1
  O  O430  1  0.77301814  0.74898269  0.69156382  1
  O  O431  1  0.77286112  0.75045506  0.94062214  1
  O  O432  1  0.02135554  0.08067121  0.18292870  1
  O  O433  1  0.02103990  0.08247683  0.43160337  1
  O  O434  1  0.02275441  0.08172251  0.68459270  1
  O  O435  1  0.02205630  0.08053329  0.93312052  1
  O  O436  1  0.02233218  0.41586709  0.18296840  1
  O  O437  1  0.02181254  0.41724458  0.43213960  1
  O  O438  1  0.02132709  0.41525226  0.68388104  1
  O  O439  1  0.02211422  0.41750640  0.93314906  1
  O  O440  1  0.02263066  0.74985561  0.18421435  1
  O  O441  1  0.02173257  0.75246417  0.43351601  1
  O  O442  1  0.02256267  0.74924234  0.68535227  1
  O  O443  1  0.02290353  0.74920058  0.93486946  1
  O  O444  1  0.52166486  0.08489805  0.18167351  1
  O  O445  1  0.52190937  0.08648736  0.43333519  1
  O  O446  1  0.52285650  0.08494603  0.68432916  1
  O  O447  1  0.52246269  0.08588595  0.93285982  1
  O  O448  1  0.52356613  0.41580306  0.18387291  1
  O  O449  1  0.52298491  0.41702183  0.43395001  1
  O  O450  1  0.52213838  0.41774101  0.68301772  1
  O  O451  1  0.52294714  0.41735422  0.93414209  1
  O  O452  1  0.52272868  0.74765865  0.18256026  1
  O  O453  1  0.52176064  0.74952204  0.43143905  1
  O  O454  1  0.52166056  0.74963173  0.68148245  1
  O  O455  1  0.52174679  0.74960968  0.93122780  1
  O  O456  1  0.47757763  0.24997032  0.06546181  1
  O  O457  1  0.47809410  0.25306548  0.31679880  1
  O  O458  1  0.47749885  0.25108128  0.56581358  1
  O  O459  1  0.47812039  0.24922907  0.81691771  1
  O  O460  1  0.47842681  0.58104070  0.06689058  1
  O  O461  1  0.47776397  0.58354083  0.31501649  1
  O  O462  1  0.47826109  0.58093420  0.56629105  1
  O  O463  1  0.47789229  0.58094781  0.81657439  1
  O  O464  1  0.47876318  0.91719302  0.06794492  1
  O  O465  1  0.47882305  0.91710613  0.31813508  1
  O  O466  1  0.47809868  0.91793388  0.56809807  1
  O  O467  1  0.47801303  0.91886106  0.81691426  1
  O  O468  1  0.97837624  0.24899408  0.06801946  1
  O  O469  1  0.97783487  0.25077712  0.31643974  1
  O  O470  1  0.97799889  0.24952577  0.56841724  1
  O  O471  1  0.97682502  0.24992621  0.81599965  1
  O  O472  1  0.97691201  0.58363725  0.06586876  1
  O  O473  1  0.97814119  0.58543567  0.31690768  1
  O  O474  1  0.97827128  0.58428813  0.56882775  1
  O  O475  1  0.97774129  0.58498785  0.81765823  1
  O  O476  1  0.97645968  0.91599039  0.06530419  1
  O  O477  1  0.97696717  0.91590747  0.31512047  1
  O  O478  1  0.97725976  0.91496357  0.56743187  1
  O  O479  1  0.97697000  0.91652521  0.81616066  1
  O  O480  1  0.07386206  0.31245399  0.07487506  1
  O  O481  1  0.07280507  0.31439354  0.32351159  1
  O  O482  1  0.07364806  0.31260746  0.57618333  1
  O  O483  1  0.07192618  0.31336274  0.82405817  1
  O  O484  1  0.07235039  0.64680714  0.07374349  1
  O  O485  1  0.07295038  0.64919988  0.32364338  1
  O  O486  1  0.07398294  0.64724971  0.57606720  1
  O  O487  1  0.07278383  0.64816693  0.82572663  1
  O  O488  1  0.07161328  0.97913691  0.07355364  1
  O  O489  1  0.07139542  0.98027433  0.32274947  1
  O  O490  1  0.07265970  0.97850494  0.57499064  1
  O  O491  1  0.07248174  0.97927554  0.82372997  1
  O  O492  1  0.57216637  0.31424930  0.07230353  1
  O  O493  1  0.57336988  0.31574890  0.32444720  1
  O  O494  1  0.57272184  0.31421798  0.57384502  1
  O  O495  1  0.57328909  0.31301735  0.82462023  1
  O  O496  1  0.57369500  0.64489053  0.07401300  1
  O  O497  1  0.57328162  0.64616170  0.32309717  1
  O  O498  1  0.57315394  0.64527247  0.57448118  1
  O  O499  1  0.57296688  0.64493723  0.82480246  1
  O  O500  1  0.57452279  0.98017487  0.07485743  1
  O  O501  1  0.57380916  0.98138580  0.32551079  1
  O  O502  1  0.57371670  0.98110716  0.57574710  1
  O  O503  1  0.57312603  0.98216270  0.82359645  1
  O  O504  1  0.42658193  0.02104126  0.17429564  1
  O  O505  1  0.42686687  0.02220381  0.42557629  1
  O  O506  1  0.42800876  0.02112952  0.67648633  1
  O  O507  1  0.42711905  0.02189695  0.92503632  1
  O  O508  1  0.42795287  0.35332165  0.17608904  1
  O  O509  1  0.42785082  0.35379532  0.42628111  1
  O  O510  1  0.42684598  0.35421783  0.67487913  1
  O  O511  1  0.42870673  0.35283330  0.92705862  1
  O  O512  1  0.42742454  0.68472758  0.17527584  1
  O  O513  1  0.42620821  0.68617454  0.42396040  1
  O  O514  1  0.42631093  0.68611739  0.67422656  1
  O  O515  1  0.42616069  0.68643770  0.92452756  1
  O  O516  1  0.92620150  0.01732885  0.17523288  1
  O  O517  1  0.92529806  0.01958494  0.42521368  1
  O  O518  1  0.92748989  0.01841152  0.67688376  1
  O  O519  1  0.92670584  0.01781981  0.92510013  1
  O  O520  1  0.92783640  0.35195305  0.17521310  1
  O  O521  1  0.92625467  0.35381121  0.42495470  1
  O  O522  1  0.92617729  0.35200399  0.67640900  1
  O  O523  1  0.92655202  0.35383674  0.92531662  1
  O  O524  1  0.92802463  0.68572354  0.17640026  1
  O  O525  1  0.92667627  0.68836779  0.42583412  1
  O  O526  1  0.92734445  0.68616035  0.67788562  1
  O  O527  1  0.92736501  0.68645242  0.92683850  1
  O  O528  1  0.17667814  0.01832106  0.19859204  1
  O  O529  1  0.17646939  0.01812285  0.44881775  1
  O  O530  1  0.17571703  0.02051723  0.70059375  1
  O  O531  1  0.17581435  0.01965377  0.95038578  1
  O  O532  1  0.17787311  0.35304890  0.19786612  1
  O  O533  1  0.17581816  0.35347645  0.44986571  1
  O  O534  1  0.17597217  0.35423397  0.70082594  1
  O  O535  1  0.17679563  0.35266809  0.94974692  1
  O  O536  1  0.17714811  0.68677599  0.19765020  1
  O  O537  1  0.17574362  0.68725915  0.44979438  1
  O  O538  1  0.17705266  0.68804810  0.69953691  1
  O  O539  1  0.17725441  0.68523579  0.94944884  1
  O  O540  1  0.67555378  0.02012844  0.19962984  1
  O  O541  1  0.67645978  0.01976201  0.45149433  1
  O  O542  1  0.67912095  0.01924763  0.69929854  1
  O  O543  1  0.67837789  0.01933697  0.94756672  1
  O  O544  1  0.67726709  0.35192328  0.19896854  1
  O  O545  1  0.67857082  0.35278138  0.44839423  1
  O  O546  1  0.67632326  0.35293304  0.70078862  1
  O  O547  1  0.67688412  0.35378834  0.94913164  1
  O  O548  1  0.67768021  0.68664650  0.19903885  1
  O  O549  1  0.67585058  0.68671252  0.45057589  1
  O  O550  1  0.67766442  0.68597995  0.69950103  1
  O  O551  1  0.67854421  0.68586392  0.94797841  1
  O  O552  1  0.32313186  0.31497125  0.05126552  1
  O  O553  1  0.32365643  0.31384312  0.29964386  1
  O  O554  1  0.32395773  0.31331078  0.54985020  1
  O  O555  1  0.32336358  0.31546850  0.80146779  1
  O  O556  1  0.32281072  0.64667275  0.05165320  1
  O  O557  1  0.32299981  0.64731180  0.29819059  1
  O  O558  1  0.32430155  0.64724557  0.54934693  1
  O  O559  1  0.32283094  0.64917285  0.80155842  1
  O  O560  1  0.32236670  0.98045244  0.05154448  1
  O  O561  1  0.32325129  0.98122702  0.30031976  1
  O  O562  1  0.32320645  0.97926603  0.55060597  1
  O  O563  1  0.32350721  0.98042514  0.79984199  1
  O  O564  1  0.82358088  0.31417037  0.04994924  1
  O  O565  1  0.82304289  0.31448899  0.30131267  1
  O  O566  1  0.82289068  0.31272319  0.55098444  1
  O  O567  1  0.82339824  0.31133927  0.79960696  1
  O  O568  1  0.82376471  0.64662215  0.04918852  1
  O  O569  1  0.82293430  0.64605538  0.30029603  1
  O  O570  1  0.82371049  0.64739698  0.55131310  1
  O  O571  1  0.82173336  0.64718356  0.80260195  1
  O  O572  1  0.82246809  0.97852593  0.04927217  1
  O  O573  1  0.82316767  0.97977134  0.29978137  1
  O  O574  1  0.82261408  0.97995244  0.55328938  1
  O  O575  1  0.82148590  0.97965265  0.80217135  1
  O  O576  1  0.42594046  0.14793781  0.17454571  1
  O  O577  1  0.42667276  0.14946580  0.42623722  1
  O  O578  1  0.42761375  0.14850480  0.67688241  1
  O  O579  1  0.42715107  0.14878258  0.92534526  1
  O  O580  1  0.42925431  0.48036404  0.17671085  1
  O  O581  1  0.42809888  0.48093576  0.42545924  1
  O  O582  1  0.42706941  0.48102040  0.67549951  1
  O  O583  1  0.42729256  0.48008696  0.92721591  1
  O  O584  1  0.42764796  0.81205133  0.17482610  1
  O  O585  1  0.42647077  0.81313214  0.42334878  1
  O  O586  1  0.42622572  0.81316203  0.67433579  1
  O  O587  1  0.42640143  0.81346343  0.92468266  1
  O  O588  1  0.92618249  0.14445039  0.17420950  1
  O  O589  1  0.92595552  0.14643388  0.42458249  1
  O  O590  1  0.92814636  0.14584518  0.67762510  1
  O  O591  1  0.92713990  0.14478849  0.92479311  1
  O  O592  1  0.92658311  0.47915416  0.17511783  1
  O  O593  1  0.92659513  0.48073883  0.42453222  1
  O  O594  1  0.92600793  0.47919785  0.67621742  1
  O  O595  1  0.92730089  0.48099435  0.92565231  1
  O  O596  1  0.92731180  0.81286836  0.17540485  1
  O  O597  1  0.92650656  0.81525422  0.42664622  1
  O  O598  1  0.92783746  0.81336167  0.67875591  1
  O  O599  1  0.92851880  0.81353961  0.92707770  1
  O  O600  1  0.07366049  0.18561078  0.07581041  1
  O  O601  1  0.07328068  0.18708800  0.32433128  1
  O  O602  1  0.07316118  0.18583256  0.57579974  1
  O  O603  1  0.07141869  0.18564973  0.82339264  1
  O  O604  1  0.07132964  0.51943257  0.07334930  1
  O  O605  1  0.07376082  0.52209778  0.32413905  1
  O  O606  1  0.07331644  0.52033233  0.57636505  1
  O  O607  1  0.07308704  0.52122913  0.82614978  1
  O  O608  1  0.07109380  0.85203764  0.07347476  1
  O  O609  1  0.07252928  0.85305971  0.32265919  1
  O  O610  1  0.07215515  0.85163110  0.57453400  1
  O  O611  1  0.07151073  0.85218873  0.82419949  1
  O  O612  1  0.57288907  0.18699596  0.07355244  1
  O  O613  1  0.57312176  0.18893013  0.32509817  1
  O  O614  1  0.57228235  0.18689175  0.57338039  1
  O  O615  1  0.57338807  0.18621391  0.82367575  1
  O  O616  1  0.57375559  0.51800926  0.07459219  1
  O  O617  1  0.57211394  0.51883003  0.32235209  1
  O  O618  1  0.57382559  0.51829238  0.57313783  1
  O  O619  1  0.57317087  0.51779508  0.82371132  1
  O  O620  1  0.57390963  0.85315909  0.07463918  1
  O  O621  1  0.57465185  0.85423218  0.32535286  1
  O  O622  1  0.57320902  0.85412402  0.57631999  1
  O  O623  1  0.57338857  0.85486262  0.82428816  1
  O  O624  1  0.32290927  0.18785692  0.04972981  1
  O  O625  1  0.32408674  0.18690267  0.29877500  1
  O  O626  1  0.32355861  0.18623728  0.55004396  1
  O  O627  1  0.32283772  0.18819644  0.80147684  1
  O  O628  1  0.32128958  0.51934689  0.05126769  1
  O  O629  1  0.32363447  0.52049828  0.29821763  1
  O  O630  1  0.32367090  0.52029569  0.55005718  1
  O  O631  1  0.32378029  0.52200222  0.80095247  1
  O  O632  1  0.32190328  0.85290830  0.05190309  1
  O  O633  1  0.32275077  0.85426794  0.29893991  1
  O  O634  1  0.32298908  0.85218685  0.55024812  1
  O  O635  1  0.32443273  0.85364746  0.80054222  1
  O  O636  1  0.82312315  0.18701795  0.05032609  1
  O  O637  1  0.82303355  0.18745603  0.29966890  1
  O  O638  1  0.82348329  0.18559600  0.55041294  1
  O  O639  1  0.82336324  0.18435488  0.80124526  1
  O  O640  1  0.82407741  0.51992870  0.04930820  1
  O  O641  1  0.82351920  0.51878084  0.30097050  1
  O  O642  1  0.82326336  0.52038135  0.55100629  1
  O  O643  1  0.82240880  0.51975776  0.80124505  1
  O  O644  1  0.82270578  0.85146794  0.05007259  1
  O  O645  1  0.82355931  0.85292468  0.30063179  1
  O  O646  1  0.82214627  0.85253406  0.55343190  1
  O  O647  1  0.82248234  0.85247673  0.80131366  1
  O  O648  1  0.17609680  0.14536233  0.20031342  1
  O  O649  1  0.17660435  0.14539303  0.44893148  1
  O  O650  1  0.17626930  0.14750721  0.70016664  1
  O  O651  1  0.17539548  0.14658173  0.95130355  1
  O  O652  1  0.17765988  0.48047703  0.19722454  1
  O  O653  1  0.17575382  0.48047000  0.44959004  1
  O  O654  1  0.17614673  0.48118827  0.70158292  1
  O  O655  1  0.17683576  0.47960248  0.95080530  1
  O  O656  1  0.17812785  0.81425842  0.19705950  1
  O  O657  1  0.17552278  0.81406511  0.44879520  1
  O  O658  1  0.17681486  0.81517342  0.69955260  1
  O  O659  1  0.17693884  0.81221580  0.95060126  1
  O  O660  1  0.67573396  0.14708075  0.19984057  1
  O  O661  1  0.67616572  0.14650897  0.45109821  1
  O  O662  1  0.67823443  0.14644501  0.69881163  1
  O  O663  1  0.67804376  0.14683689  0.94813955  1
  O  O664  1  0.67778199  0.47879970  0.19984130  1
  O  O665  1  0.67803062  0.48037186  0.44823945  1
  O  O666  1  0.67618573  0.47982380  0.69986609  1
  O  O667  1  0.67745253  0.48091862  0.94947057  1
  O  O668  1  0.67664319  0.81387391  0.19862740  1
  O  O669  1  0.67652132  0.81339905  0.45164538  1
  O  O670  1  0.67846623  0.81326821  0.69917714  1
  O  O671  1  0.67697950  0.81302036  0.94772267  1
