# generated using pymatgen
data_Na2MnFe(PO4)2
_symmetry_space_group_name_H-M   'P 1'
_cell_length_a   22.34867049
_cell_length_b   20.10171654
_cell_length_c   19.44293159
_cell_angle_alpha   90.04037806
_cell_angle_beta   89.96075643
_cell_angle_gamma   89.94227998
_symmetry_Int_Tables_number   1
_chemical_formula_structural   Na2MnFe(PO4)2
_chemical_formula_sum   'Na96 Mn48 Fe48 P96 O384'
_cell_volume   8734.66301790
_cell_formula_units_Z   48
loop_
 _symmetry_equiv_pos_site_id
 _symmetry_equiv_pos_as_xyz
  1  'x, y, z'
loop_
 _atom_site_type_symbol
 _atom_site_label
 _atom_site_symmetry_multiplicity
 _atom_site_fract_x
 _atom_site_fract_y
 _atom_site_fract_z
 _atom_site_occupancy
  Na  Na0  1  0.14045973  0.25031075  0.24395048  1
  Na  Na1  1  0.14027136  0.25106152  0.49336225  1
  Na  Na2  1  0.14103046  0.24943253  0.74267860  1
  Na  Na3  1  0.14089163  0.25019906  0.99479630  1
  Na  Na4  1  0.13955783  0.58213251  0.24315422  1
  Na  Na5  1  0.14078112  0.58243928  0.49282765  1
  Na  Na6  1  0.14016856  0.58249690  0.74453613  1
  Na  Na7  1  0.13979136  0.58341585  0.99356305  1
  Na  Na8  1  0.14079161  0.91623241  0.24257811  1
  Na  Na9  1  0.14107288  0.91665632  0.49383359  1
  Na  Na10  1  0.14085439  0.91701813  0.74388668  1
  Na  Na11  1  0.14011831  0.91651115  0.99272065  1
  Na  Na12  1  0.64066431  0.24929699  0.24381783  1
  Na  Na13  1  0.64079381  0.24908937  0.49332658  1
  Na  Na14  1  0.64085309  0.24960035  0.74536125  1
  Na  Na15  1  0.64071250  0.24869822  0.99407021  1
  Na  Na16  1  0.64036269  0.58374199  0.24295672  1
  Na  Na17  1  0.64031652  0.58336259  0.49530392  1
  Na  Na18  1  0.63971594  0.58358740  0.74504756  1
  Na  Na19  1  0.63994537  0.58380168  0.99246880  1
  Na  Na20  1  0.64066066  0.91759514  0.24162410  1
  Na  Na21  1  0.64051228  0.91755046  0.49350317  1
  Na  Na22  1  0.64062199  0.91713930  0.74430738  1
  Na  Na23  1  0.64046765  0.91663680  0.99277337  1
  Na  Na24  1  0.35972728  0.08377024  0.00748010  1
  Na  Na25  1  0.35984406  0.08362962  0.25478616  1
  Na  Na26  1  0.35945199  0.08459627  0.50648705  1
  Na  Na27  1  0.35944390  0.08351707  0.75581454  1
  Na  Na28  1  0.35935479  0.41776364  0.00685850  1
  Na  Na29  1  0.35918688  0.41688288  0.25708445  1
  Na  Na30  1  0.35917514  0.41744369  0.50619715  1
  Na  Na31  1  0.35905841  0.41757235  0.75672610  1
  Na  Na32  1  0.36009525  0.75019852  0.00621601  1
  Na  Na33  1  0.35922166  0.74901081  0.25511381  1
  Na  Na34  1  0.35928218  0.75034165  0.50676553  1
  Na  Na35  1  0.35957677  0.74974163  0.75768512  1
  Na  Na36  1  0.85970195  0.08193214  0.00655337  1
  Na  Na37  1  0.85933555  0.08375990  0.25588563  1
  Na  Na38  1  0.86003668  0.08328128  0.50529163  1
  Na  Na39  1  0.86003174  0.08326882  0.75560098  1
  Na  Na40  1  0.85950914  0.41731220  0.00765778  1
  Na  Na41  1  0.85992847  0.41569767  0.25758177  1
  Na  Na42  1  0.85985552  0.41555838  0.50683069  1
  Na  Na43  1  0.85946740  0.41645618  0.75668651  1
  Na  Na44  1  0.85946488  0.74999430  0.00751458  1
  Na  Na45  1  0.85950540  0.75013884  0.25429396  1
  Na  Na46  1  0.85934196  0.74994520  0.50542781  1
  Na  Na47  1  0.85946491  0.74931830  0.75717516  1
  Na  Na48  1  0.11016207  0.08230427  0.11758059  1
  Na  Na49  1  0.11006113  0.08416650  0.36940064  1
  Na  Na50  1  0.11009284  0.08412578  0.61715275  1
  Na  Na51  1  0.11043325  0.08225314  0.86887325  1
  Na  Na52  1  0.10966276  0.41717634  0.11972660  1
  Na  Na53  1  0.10967376  0.41713151  0.36837934  1
  Na  Na54  1  0.10966883  0.41597033  0.61750389  1
  Na  Na55  1  0.10964084  0.41739444  0.86961959  1
  Na  Na56  1  0.10917661  0.74842928  0.11768246  1
  Na  Na57  1  0.10970274  0.74805137  0.36826521  1
  Na  Na58  1  0.10968564  0.74890618  0.61825510  1
  Na  Na59  1  0.10963162  0.74912608  0.86955892  1
  Na  Na60  1  0.61022389  0.08221679  0.11720614  1
  Na  Na61  1  0.61028335  0.08436733  0.36706871  1
  Na  Na62  1  0.61024385  0.08432984  0.61885190  1
  Na  Na63  1  0.61061719  0.08281689  0.86958082  1
  Na  Na64  1  0.60911722  0.41614610  0.11883646  1
  Na  Na65  1  0.60989073  0.41663682  0.36900687  1
  Na  Na66  1  0.60941535  0.41778403  0.62031734  1
  Na  Na67  1  0.60937656  0.41836379  0.86958612  1
  Na  Na68  1  0.60944833  0.74961420  0.11639223  1
  Na  Na69  1  0.60942982  0.75126424  0.36817236  1
  Na  Na70  1  0.60976035  0.74994898  0.62043411  1
  Na  Na71  1  0.60952805  0.74894262  0.86881443  1
  Na  Na72  1  0.39007908  0.24901831  0.13192122  1
  Na  Na73  1  0.38985908  0.25130846  0.38089637  1
  Na  Na74  1  0.38991929  0.25120348  0.63184254  1
  Na  Na75  1  0.39051906  0.25033701  0.88165741  1
  Na  Na76  1  0.38992480  0.58325886  0.13066568  1
  Na  Na77  1  0.38968527  0.58397306  0.38131054  1
  Na  Na78  1  0.38987739  0.58507862  0.63259793  1
  Na  Na79  1  0.38970333  0.58447942  0.88213106  1
  Na  Na80  1  0.39024009  0.91671991  0.12968552  1
  Na  Na81  1  0.39044375  0.91783195  0.37988658  1
  Na  Na82  1  0.39039260  0.91661871  0.63194859  1
  Na  Na83  1  0.39074756  0.91691820  0.88193283  1
  Na  Na84  1  0.89030993  0.24985389  0.13208416  1
  Na  Na85  1  0.89030486  0.25015013  0.38274781  1
  Na  Na86  1  0.89006617  0.24924043  0.62999135  1
  Na  Na87  1  0.89070042  0.24908857  0.88195482  1
  Na  Na88  1  0.89019478  0.58267323  0.13114751  1
  Na  Na89  1  0.89024044  0.58242286  0.38051419  1
  Na  Na90  1  0.88999197  0.58287300  0.63145426  1
  Na  Na91  1  0.88967682  0.58386251  0.88288987  1
  Na  Na92  1  0.88999340  0.91571900  0.13094766  1
  Na  Na93  1  0.89033193  0.91742058  0.38022026  1
  Na  Na94  1  0.89060019  0.91733110  0.63020432  1
  Na  Na95  1  0.89059498  0.91613498  0.88256518  1
  Mn  Mn96  1  0.00041045  -0.00029606  0.74989792  1
  Mn  Mn97  1  0.75052622  0.49952796  0.37550165  1
  Mn  Mn98  1  0.74913267  0.50035227  0.12584227  1
  Mn  Mn99  1  0.24984185  0.83311615  0.62524972  1
  Mn  Mn100  1  0.50020916  0.49951529  0.25011259  1
  Mn  Mn101  1  0.49974739  0.50093101  0.50018128  1
  Mn  Mn102  1  0.25033177  0.83232013  0.37438775  1
  Mn  Mn103  1  0.50060472  0.33470599  0.75150505  1
  Mn  Mn104  1  0.75071203  0.83306091  0.62472282  1
  Mn  Mn105  1  0.00069075  -0.00031121  0.24988611  1
  Mn  Mn106  1  0.50035817  0.16670378  0.75079987  1
  Mn  Mn107  1  0.74966032  0.33194218  0.62645596  1
  Mn  Mn108  1  0.74994760  0.33241472  0.12535610  1
  Mn  Mn109  1  0.75030037  0.83326923  0.87487542  1
  Mn  Mn110  1  0.49950528  0.33339855  -0.00002890  1
  Mn  Mn111  1  0.74968573  0.50015909  0.62587493  1
  Mn  Mn112  1  -0.00006767  0.33325928  0.74995434  1
  Mn  Mn113  1  0.75046591  0.33273744  0.87575524  1
  Mn  Mn114  1  0.00018172  0.83297200  0.75000209  1
  Mn  Mn115  1  0.24996156  0.50031281  0.12553486  1
  Mn  Mn116  1  0.00099703  0.83227986  0.25002866  1
  Mn  Mn117  1  0.49993199  0.66766853  0.50058910  1
  Mn  Mn118  1  0.49948461  0.83447394  0.24844846  1
  Mn  Mn119  1  0.00110364  0.16615896  0.00093236  1
  Mn  Mn120  1  0.49992621  0.66694277  0.24907473  1
  Mn  Mn121  1  0.25018025  0.83353405  0.87502093  1
  Mn  Mn122  1  0.25046686  0.33380321  0.87489191  1
  Mn  Mn123  1  0.24987749  0.00039396  0.37464002  1
  Mn  Mn124  1  0.25068165  0.16621040  0.87461111  1
  Mn  Mn125  1  -0.00017780  0.16721492  0.25006646  1
  Mn  Mn126  1  0.24926585  0.83273715  0.12427612  1
  Mn  Mn127  1  0.50040956  0.00051300  0.49992449  1
  Mn  Mn128  1  0.50000778  0.33444846  0.50078493  1
  Mn  Mn129  1  0.49999552  0.16633946  0.24979138  1
  Mn  Mn130  1  0.74923950  0.83422706  0.37431670  1
  Mn  Mn131  1  -0.00094290  0.66536066  0.49898382  1
  Mn  Mn132  1  0.74941006  0.66714609  0.37445500  1
  Mn  Mn133  1  -0.00029291  0.66624919  0.75009857  1
  Mn  Mn134  1  0.49996578  0.16767088  0.49951719  1
  Mn  Mn135  1  -0.00022214  0.83344098  0.49884054  1
  Mn  Mn136  1  0.00039551  0.33407136  0.00093441  1
  Mn  Mn137  1  0.50008128  0.83390872  0.50004132  1
  Mn  Mn138  1  -0.00063505  0.49975653  0.74990020  1
  Mn  Mn139  1  0.75015994  0.00091412  0.62420165  1
  Mn  Mn140  1  0.49987313  -0.00053041  0.75032913  1
  Mn  Mn141  1  0.24965705  0.16779345  0.37528830  1
  Mn  Mn142  1  0.24984309  0.50036271  0.62486253  1
  Mn  Mn143  1  0.00056864  0.16649961  0.74983895  1
  Fe  Fe144  1  0.75021772  0.00037282  0.12441885  1
  Fe  Fe145  1  0.74978027  0.50029428  0.87579874  1
  Fe  Fe146  1  0.49922568  0.50010378  -0.00013512  1
  Fe  Fe147  1  0.49883911  0.50132883  0.75049775  1
  Fe  Fe148  1  -0.00051281  0.66558543  0.24896948  1
  Fe  Fe149  1  0.24942407  0.66620493  0.37522437  1
  Fe  Fe150  1  0.75007878  0.16599253  0.37434811  1
  Fe  Fe151  1  0.00013997  0.16714927  0.49957227  1
  Fe  Fe152  1  0.75033123  0.00049305  0.37379443  1
  Fe  Fe153  1  0.49962255  0.66624296  -0.00096906  1
  Fe  Fe154  1  0.24958904  0.66640094  0.87524906  1
  Fe  Fe155  1  0.50005136  0.83307160  -0.00043065  1
  Fe  Fe156  1  0.75007787  0.66680681  0.12451739  1
  Fe  Fe157  1  0.24996835  0.33378048  0.12543303  1
  Fe  Fe158  1  0.00012563  0.83242288  0.00039462  1
  Fe  Fe159  1  0.74974571  0.66659568  0.87554125  1
  Fe  Fe160  1  0.24970134  0.33394642  0.62493354  1
  Fe  Fe161  1  0.74997552  0.16617351  0.62466301  1
  Fe  Fe162  1  0.50038112  0.00018811  0.24864363  1
  Fe  Fe163  1  -0.00009145  0.49961334  0.49913973  1
  Fe  Fe164  1  0.25014984  0.16715700  0.62494711  1
  Fe  Fe165  1  -0.00016596  0.33367468  0.49970095  1
  Fe  Fe166  1  0.50036346  0.16628180  0.00088306  1
  Fe  Fe167  1  0.74978480  0.33237202  0.37574152  1
  Fe  Fe168  1  0.75073101  -0.00009069  0.87499327  1
  Fe  Fe169  1  0.50033646  -0.00053826  -0.00066310  1
  Fe  Fe170  1  0.25010912  0.50010572  0.37513555  1
  Fe  Fe171  1  0.75080625  0.16577930  0.87515587  1
  Fe  Fe172  1  0.00003864  -0.00080137  -0.00007821  1
  Fe  Fe173  1  0.24955731  0.50012943  0.87532016  1
  Fe  Fe174  1  0.49943344  0.33303445  0.24935381  1
  Fe  Fe175  1  0.74947424  0.83368184  0.12434084  1
  Fe  Fe176  1  0.25034139  0.00032452  0.62460565  1
  Fe  Fe177  1  0.75059524  0.16620452  0.12519217  1
  Fe  Fe178  1  -0.00065162  0.49976095  0.00059614  1
  Fe  Fe179  1  -0.00048744  0.49957243  0.24999879  1
  Fe  Fe180  1  0.24984251  0.66648740  0.62531480  1
  Fe  Fe181  1  0.25008986  0.00054995  0.87458816  1
  Fe  Fe182  1  0.50074078  0.83321139  0.75106933  1
  Fe  Fe183  1  0.24991269  0.16702085  0.12497276  1
  Fe  Fe184  1  0.75002941  0.66639055  0.62570852  1
  Fe  Fe185  1  -0.00020266  0.66597924  0.00041524  1
  Fe  Fe186  1  0.25021092  0.33336507  0.37502158  1
  Fe  Fe187  1  0.00099329  0.00016161  0.50003952  1
  Fe  Fe188  1  0.24978726  0.66600978  0.12517381  1
  Fe  Fe189  1  0.49945273  0.66721379  0.75109543  1
  Fe  Fe190  1  0.25000393  0.00012437  0.12447985  1
  Fe  Fe191  1  0.00003524  0.33386002  0.25108400  1
  P  P192  1  0.04298550  0.25082857  0.10441900  1
  P  P193  1  0.04172492  0.25163862  0.35351465  1
  P  P194  1  0.04142868  0.25044814  0.60102179  1
  P  P195  1  0.04350999  0.25009197  0.85331566  1
  P  P196  1  0.04088243  0.58251951  0.10223434  1
  P  P197  1  0.04093206  0.58247780  0.35118329  1
  P  P198  1  0.04226374  0.58155154  0.60160007  1
  P  P199  1  0.04188807  0.58305020  0.85419796  1
  P  P200  1  0.04179262  0.91568877  0.10136615  1
  P  P201  1  0.04359913  0.91671117  0.35334590  1
  P  P202  1  0.04270950  0.91725450  0.60199407  1
  P  P203  1  0.04267835  0.91597748  0.85416574  1
  P  P204  1  0.54211610  0.24892806  0.10285986  1
  P  P205  1  0.54221196  0.25164460  0.35199791  1
  P  P206  1  0.54304981  0.25085427  0.60365758  1
  P  P207  1  0.54297233  0.24985167  0.85458420  1
  P  P208  1  0.54122214  0.58297641  0.10090503  1
  P  P209  1  0.54296485  0.58391262  0.35278640  1
  P  P210  1  0.54204362  0.58424575  0.60473057  1
  P  P211  1  0.54049237  0.58369544  0.85279961  1
  P  P212  1  0.54149917  0.91651959  0.10089103  1
  P  P213  1  0.54274373  0.91848408  0.35123652  1
  P  P214  1  0.54320715  0.91655320  0.60382224  1
  P  P215  1  0.54235917  0.91523803  0.85365161  1
  P  P216  1  0.45838780  0.08187475  0.14604071  1
  P  P217  1  0.45718821  0.08371832  0.39609252  1
  P  P218  1  0.45729910  0.08368665  0.64713415  1
  P  P219  1  0.45882080  0.08349490  0.89895592  1
  P  P220  1  0.45731257  0.41558483  0.14713319  1
  P  P221  1  0.45709574  0.41685413  0.39652052  1
  P  P222  1  0.45724401  0.41866064  0.64848121  1
  P  P223  1  0.45719433  0.41870217  0.89739504  1
  P  P224  1  0.45732456  0.75012144  0.14498697  1
  P  P225  1  0.45674513  0.75090553  0.39663456  1
  P  P226  1  0.45832140  0.75078197  0.64952445  1
  P  P227  1  0.45881225  0.75024741  0.89774208  1
  P  P228  1  0.95779266  0.08263406  0.14651393  1
  P  P229  1  0.95933835  0.08329715  0.39839274  1
  P  P230  1  0.95818841  0.08334389  0.64559426  1
  P  P231  1  0.95840100  0.08214892  0.89809005  1
  P  P232  1  0.95828641  0.41664274  0.14879922  1
  P  P233  1  0.95835594  0.41651541  0.39765911  1
  P  P234  1  0.95699812  0.41620088  0.64581310  1
  P  P235  1  0.95699968  0.41762657  0.89828994  1
  P  P236  1  0.95844455  0.74831481  0.14639444  1
  P  P237  1  0.95687409  0.74911377  0.39551129  1
  P  P238  1  0.95689118  0.74970356  0.64661115  1
  P  P239  1  0.95838596  0.74949314  0.89906453  1
  P  P240  1  0.20851136  0.08355759  0.22621865  1
  P  P241  1  0.20784479  0.08401430  0.47897922  1
  P  P242  1  0.20868106  0.08313905  0.72634170  1
  P  P243  1  0.20852872  0.08247208  0.97806734  1
  P  P244  1  0.20810244  0.41559730  0.22846078  1
  P  P245  1  0.20871358  0.41646055  0.47659330  1
  P  P246  1  0.20747604  0.41606486  0.72745512  1
  P  P247  1  0.20801221  0.41786432  0.97804395  1
  P  P248  1  0.20739208  0.74775877  0.22749796  1
  P  P249  1  0.20768249  0.74844011  0.47781377  1
  P  P250  1  0.20783118  0.74837605  0.72806284  1
  P  P251  1  0.20811421  0.74862923  0.97769080  1
  P  P252  1  0.70868373  0.08334367  0.22657670  1
  P  P253  1  0.70838180  0.08342517  0.47588317  1
  P  P254  1  0.70813489  0.08461040  0.72811560  1
  P  P255  1  0.70942265  0.08278191  0.97725158  1
  P  P256  1  0.70734984  0.41553195  0.22915691  1
  P  P257  1  0.70792798  0.41513105  0.47804804  1
  P  P258  1  0.70736801  0.41683424  0.72966706  1
  P  P259  1  0.70788779  0.41754281  0.97796164  1
  P  P260  1  0.70805428  0.75023134  0.22561230  1
  P  P261  1  0.70690133  0.75023173  0.47825232  1
  P  P262  1  0.70841337  0.74872977  0.72817880  1
  P  P263  1  0.70815969  0.74919291  0.97805489  1
  P  P264  1  0.29155796  0.25065437  0.02373010  1
  P  P265  1  0.29179033  0.25129716  0.27171849  1
  P  P266  1  0.29126814  0.25111409  0.52333375  1
  P  P267  1  0.29282149  0.25006517  0.77104603  1
  P  P268  1  0.29166645  0.58461010  0.02199427  1
  P  P269  1  0.29090805  0.58356338  0.27325618  1
  P  P270  1  0.29203350  0.58478647  0.52213461  1
  P  P271  1  0.29104820  0.58332411  0.77351329  1
  P  P272  1  0.29164205  0.91794247  0.02187163  1
  P  P273  1  0.29229261  0.91665432  0.27080971  1
  P  P274  1  0.29257785  0.91755789  0.52259378  1
  P  P275  1  0.29222980  0.91832496  0.77221313  1
  P  P276  1  0.79249578  0.24784689  0.02256215  1
  P  P277  1  0.79164728  0.24921796  0.27347210  1
  P  P278  1  0.79168670  0.24839296  0.52185108  1
  P  P279  1  0.79279721  0.24786272  0.77283709  1
  P  P280  1  0.79138530  0.58430781  0.02212859  1
  P  P281  1  0.79238103  0.58365610  0.27132307  1
  P  P282  1  0.79220840  0.58423232  0.52301555  1
  P  P283  1  0.79135778  0.58358818  0.77389386  1
  P  P284  1  0.79114640  0.91694220  0.02286482  1
  P  P285  1  0.79191832  0.91813306  0.27082668  1
  P  P286  1  0.79288942  0.91732075  0.52086710  1
  P  P287  1  0.79286713  0.91790886  0.77255563  1
  O  O288  1  0.03746281  0.25138173  0.18436950  1
  O  O289  1  0.03627224  0.25131942  0.43344601  1
  O  O290  1  0.03714046  0.25004591  0.68109924  1
  O  O291  1  0.03874207  0.25010425  0.93336525  1
  O  O292  1  0.03589976  0.58295433  0.18214524  1
  O  O293  1  0.03587801  0.58197352  0.43112735  1
  O  O294  1  0.03736605  0.58189486  0.68162433  1
  O  O295  1  0.03658841  0.58300402  0.93411684  1
  O  O296  1  0.03735275  0.91565725  0.18143636  1
  O  O297  1  0.03823536  0.91735237  0.43329759  1
  O  O298  1  0.03768563  0.91691737  0.68206460  1
  O  O299  1  0.03717495  0.91586169  0.93412687  1
  O  O300  1  0.53657401  0.24963997  0.18279879  1
  O  O301  1  0.53729699  0.25142523  0.43202432  1
  O  O302  1  0.53822192  0.25073211  0.68369535  1
  O  O303  1  0.53739119  0.24927572  0.93454180  1
  O  O304  1  0.53678335  0.58319404  0.18093381  1
  O  O305  1  0.53791084  0.58417934  0.43281771  1
  O  O306  1  0.53642461  0.58422721  0.68468527  1
  O  O307  1  0.53522735  0.58348027  0.93273190  1
  O  O308  1  0.53668830  0.91740683  0.18086587  1
  O  O309  1  0.53793720  0.91813381  0.43126929  1
  O  O310  1  0.53816586  0.91599423  0.68385781  1
  O  O311  1  0.53686569  0.91533747  0.93355399  1
  O  O312  1  0.46381694  0.08234363  0.06614995  1
  O  O313  1  0.46219246  0.08331132  0.31603623  1
  O  O314  1  0.46232644  0.08388843  0.56711446  1
  O  O315  1  0.46358703  0.08325343  0.81894714  1
  O  O316  1  0.46250089  0.41631407  0.06713732  1
  O  O317  1  0.46217832  0.41591172  0.31651251  1
  O  O318  1  0.46231864  0.41831877  0.56845021  1
  O  O319  1  0.46270155  0.41892760  0.81748713  1
  O  O320  1  0.46276538  0.74989561  0.06506415  1
  O  O321  1  0.46154611  0.75084966  0.31658890  1
  O  O322  1  0.46302388  0.75072273  0.56947032  1
  O  O323  1  0.46392916  0.74999773  0.81782096  1
  O  O324  1  0.96316654  0.08206974  0.06657679  1
  O  O325  1  0.96405429  0.08367905  0.31836852  1
  O  O326  1  0.96366201  0.08321642  0.56566192  1
  O  O327  1  0.96338795  0.08243802  0.81805458  1
  O  O328  1  0.96315813  0.41732794  0.06882046  1
  O  O329  1  0.96339910  0.41619636  0.31772036  1
  O  O330  1  0.96223962  0.41636100  0.56585234  1
  O  O331  1  0.96176858  0.41709414  0.81826207  1
  O  O332  1  0.96405324  0.74874682  0.06646923  1
  O  O333  1  0.96243596  0.74842477  0.31554624  1
  O  O334  1  0.96167990  0.74963002  0.56658963  1
  O  O335  1  0.96279345  0.74948444  0.81898127  1
  O  O336  1  0.21387958  0.08270050  0.05797872  1
  O  O337  1  0.21309991  0.08392462  0.30626607  1
  O  O338  1  0.21340762  0.08403838  0.55886217  1
  O  O339  1  0.21375976  0.08295900  0.80640747  1
  O  O340  1  0.21330781  0.41752210  0.05798598  1
  O  O341  1  0.21362294  0.41583688  0.30830529  1
  O  O342  1  0.21335565  0.41662829  0.55660927  1
  O  O343  1  0.21282963  0.41672496  0.80737684  1
  O  O344  1  0.21325592  0.74849936  0.05764165  1
  O  O345  1  0.21288100  0.74779800  0.30746031  1
  O  O346  1  0.21282116  0.74852533  0.55782871  1
  O  O347  1  0.21332621  0.74849662  0.80802378  1
  O  O348  1  0.71466193  0.08267502  0.05716409  1
  O  O349  1  0.71389161  0.08318878  0.30647523  1
  O  O350  1  0.71326692  0.08405774  0.55587222  1
  O  O351  1  0.71372346  0.08404074  0.80798338  1
  O  O352  1  0.71256378  0.41738540  0.05801828  1
  O  O353  1  0.71279062  0.41505109  0.30912006  1
  O  O354  1  0.71284380  0.41531734  0.55809417  1
  O  O355  1  0.71290977  0.41745664  0.80960778  1
  O  O356  1  0.71339797  0.74942178  0.05794972  1
  O  O357  1  0.71253430  0.75077906  0.30564181  1
  O  O358  1  0.71248100  0.74988576  0.55819471  1
  O  O359  1  0.71378371  0.74870675  0.80816569  1
  O  O360  1  0.28633913  0.25102383  0.19184905  1
  O  O361  1  0.28612654  0.25140687  0.44331880  1
  O  O362  1  0.28729503  0.25013074  0.69116922  1
  O  O363  1  0.28708672  0.25016973  0.94368970  1
  O  O364  1  0.28625302  0.58339610  0.19321944  1
  O  O365  1  0.28664162  0.58464798  0.44224501  1
  O  O366  1  0.28616190  0.58348840  0.69351413  1
  O  O367  1  0.28615188  0.58422062  0.94214043  1
  O  O368  1  0.28651409  0.91694670  0.19086915  1
  O  O369  1  0.28738117  0.91684471  0.44259839  1
  O  O370  1  0.28692236  0.91814281  0.69226047  1
  O  O371  1  0.28648626  0.91817259  0.94189621  1
  O  O372  1  0.78691414  0.24889651  0.19344211  1
  O  O373  1  0.78614919  0.24917192  0.44194860  1
  O  O374  1  0.78728267  0.24782707  0.69287153  1
  O  O375  1  0.78731820  0.24792796  0.94262990  1
  O  O376  1  0.78695489  0.58388141  0.19136163  1
  O  O377  1  0.78714427  0.58377392  0.44301838  1
  O  O378  1  0.78643301  0.58390645  0.69388067  1
  O  O379  1  0.78593785  0.58385774  0.94221098  1
  O  O380  1  0.78638670  0.91790412  0.19089939  1
  O  O381  1  0.78763448  0.91765733  0.44087897  1
  O  O382  1  0.78782130  0.91764471  0.69258472  1
  O  O383  1  0.78660093  0.91690754  0.94285349  1
  O  O384  1  0.22734616  0.25118632  0.05938440  1
  O  O385  1  0.22770313  0.25188694  0.30807188  1
  O  O386  1  0.22716267  0.25100236  0.55951178  1
  O  O387  1  0.22868077  0.24991837  0.80699631  1
  O  O388  1  0.22756696  0.58466201  0.05830714  1
  O  O389  1  0.22675621  0.58370589  0.30913660  1
  O  O390  1  0.22785158  0.58500725  0.55830633  1
  O  O391  1  0.22692313  0.58306780  0.80958725  1
  O  O392  1  0.22744194  0.91791483  0.05773756  1
  O  O393  1  0.22816048  0.91624791  0.30670440  1
  O  O394  1  0.22828918  0.91782895  0.55826158  1
  O  O395  1  0.22803689  0.91834109  0.80817168  1
  O  O396  1  0.72822208  0.24772147  0.05831206  1
  O  O397  1  0.72743481  0.24927426  0.30927260  1
  O  O398  1  0.72768111  0.24789480  0.55844054  1
  O  O399  1  0.72864512  0.24804223  0.80888451  1
  O  O400  1  0.72722863  0.58500573  0.05821363  1
  O  O401  1  0.72812823  0.58293693  0.30682286  1
  O  O402  1  0.72790476  0.58475923  0.55868616  1
  O  O403  1  0.72715515  0.58373154  0.80987847  1
  O  O404  1  0.72696596  0.91773285  0.05862922  1
  O  O405  1  0.72781879  0.91897717  0.30712985  1
  O  O406  1  0.72865892  0.91689686  0.55647079  1
  O  O407  1  0.72853276  0.91806380  0.80808942  1
  O  O408  1  0.27270241  0.08301901  0.19052688  1
  O  O409  1  0.27189182  0.08425523  0.44279878  1
  O  O410  1  0.27281315  0.08336679  0.69030161  1
  O  O411  1  0.27267485  0.08198176  0.94182691  1
  O  O412  1  0.27215243  0.41555913  0.19205994  1
  O  O413  1  0.27284831  0.41621540  0.44066240  1
  O  O414  1  0.27173089  0.41578573  0.69160397  1
  O  O415  1  0.27218919  0.41835029  0.94209006  1
  O  O416  1  0.27156347  0.74809880  0.19147574  1
  O  O417  1  0.27196881  0.74816610  0.44211587  1
  O  O418  1  0.27202946  0.74841176  0.69206577  1
  O  O419  1  0.27225969  0.74866799  0.94174227  1
  O  O420  1  0.77280225  0.08313315  0.19024864  1
  O  O421  1  0.77262015  0.08295423  0.43986380  1
  O  O422  1  0.77221621  0.08502724  0.69167247  1
  O  O423  1  0.77341594  0.08253058  0.94071287  1
  O  O424  1  0.77161139  0.41617963  0.19363420  1
  O  O425  1  0.77226688  0.41487930  0.44258317  1
  O  O426  1  0.77151148  0.41633162  0.69385885  1
  O  O427  1  0.77224228  0.41742189  0.94274669  1
  O  O428  1  0.77235294  0.74972980  0.19011671  1
  O  O429  1  0.77114302  0.75064445  0.44258967  1
  O  O430  1  0.77255582  0.74838903  0.69213117  1
  O  O431  1  0.77228660  0.74869416  0.94192799  1
  O  O432  1  0.02210677  0.08339308  0.18176674  1
  O  O433  1  0.02347871  0.08306316  0.43403288  1
  O  O434  1  0.02238959  0.08319287  0.68141898  1
  O  O435  1  0.02274937  0.08165634  0.93338943  1
  O  O436  1  0.02244541  0.41622166  0.18466856  1
  O  O437  1  0.02248606  0.41683621  0.43385655  1
  O  O438  1  0.02132430  0.41637850  0.68130277  1
  O  O439  1  0.02152011  0.41829582  0.93330896  1
  O  O440  1  0.02245675  0.74762674  0.18271449  1
  O  O441  1  0.02110968  0.74908175  0.43101925  1
  O  O442  1  0.02145033  0.74940189  0.68136064  1
  O  O443  1  0.02266727  0.74984068  0.93445289  1
  O  O444  1  0.52248888  0.08200959  0.18220602  1
  O  O445  1  0.52167046  0.08401220  0.43105524  1
  O  O446  1  0.52173870  0.08317296  0.68207061  1
  O  O447  1  0.52308881  0.08417883  0.93442726  1
  O  O448  1  0.52162801  0.41502937  0.18266020  1
  O  O449  1  0.52148834  0.41732838  0.43167666  1
  O  O450  1  0.52157486  0.41945818  0.68389824  1
  O  O451  1  0.52139669  0.41834682  0.93323546  1
  O  O452  1  0.52153377  0.75044068  0.18069622  1
  O  O453  1  0.52133206  0.75072444  0.43130234  1
  O  O454  1  0.52256259  0.75041251  0.68520528  1
  O  O455  1  0.52277037  0.75056433  0.93405488  1
  O  O456  1  0.47790687  0.24864161  0.06703437  1
  O  O457  1  0.47784915  0.25145721  0.31666530  1
  O  O458  1  0.47849804  0.25075758  0.56891656  1
  O  O459  1  0.47872779  0.25040164  0.81913644  1
  O  O460  1  0.47687738  0.58260702  0.06559147  1
  O  O461  1  0.47848558  0.58367103  0.31789342  1
  O  O462  1  0.47786477  0.58418409  0.56887329  1
  O  O463  1  0.47651725  0.58400468  0.81633637  1
  O  O464  1  0.47736600  0.91575787  0.06506384  1
  O  O465  1  0.47826022  0.91888990  0.31609221  1
  O  O466  1  0.47877884  0.91712812  0.56871863  1
  O  O467  1  0.47824329  0.91478994  0.81752475  1
  O  O468  1  0.97878327  0.25022591  0.06886127  1
  O  O469  1  0.97760722  0.25169200  0.31740551  1
  O  O470  1  0.97719930  0.25101075  0.56559243  1
  O  O471  1  0.97892381  0.24983635  0.81868370  1
  O  O472  1  0.97683937  0.58216679  0.06601362  1
  O  O473  1  0.97683461  0.58303274  0.31515271  1
  O  O474  1  0.97777531  0.58090581  0.56651687  1
  O  O475  1  0.97762094  0.58318628  0.81857801  1
  O  O476  1  0.97747116  0.91551213  0.06597634  1
  O  O477  1  0.97924314  0.91623258  0.31809037  1
  O  O478  1  0.97838092  0.91774446  0.56662087  1
  O  O479  1  0.97844390  0.91618461  0.81851559  1
  O  O480  1  0.07397009  0.31409982  0.07588052  1
  O  O481  1  0.07257965  0.31506827  0.32496692  1
  O  O482  1  0.07260530  0.31386366  0.57302339  1
  O  O483  1  0.07406261  0.31370099  0.82491287  1
  O  O484  1  0.07143097  0.64613480  0.07327818  1
  O  O485  1  0.07195037  0.64600615  0.32313889  1
  O  O486  1  0.07279080  0.64534328  0.57356428  1
  O  O487  1  0.07303740  0.64639421  0.82566689  1
  O  O488  1  0.07213444  0.97959713  0.07323276  1
  O  O489  1  0.07464948  0.97991925  0.32462316  1
  O  O490  1  0.07357160  0.98077282  0.57385369  1
  O  O491  1  0.07402877  0.97919708  0.82576107  1
  O  O492  1  0.57344089  0.31216953  0.07466131  1
  O  O493  1  0.57266491  0.31514761  0.32339445  1
  O  O494  1  0.57380488  0.31451799  0.57572556  1
  O  O495  1  0.57403878  0.31357591  0.82707683  1
  O  O496  1  0.57137406  0.64682931  0.07223511  1
  O  O497  1  0.57384916  0.64725527  0.32423635  1
  O  O498  1  0.57313256  0.64765705  0.57641359  1
  O  O499  1  0.57154332  0.64729772  0.82471009  1
  O  O500  1  0.57186628  0.98020308  0.07195685  1
  O  O501  1  0.57344493  0.98189902  0.32261922  1
  O  O502  1  0.57436294  0.98002674  0.57578873  1
  O  O503  1  0.57319772  0.97900293  0.82576460  1
  O  O504  1  0.42781790  0.01824464  0.17453241  1
  O  O505  1  0.42614339  0.02055118  0.42477641  1
  O  O506  1  0.42617935  0.02029766  0.67524512  1
  O  O507  1  0.42887393  0.01921418  0.92694292  1
  O  O508  1  0.42667266  0.35193476  0.17535788  1
  O  O509  1  0.42602031  0.35381430  0.42554232  1
  O  O510  1  0.42685031  0.35480972  0.67652881  1
  O  O511  1  0.42601267  0.35500522  0.92486170  1
  O  O512  1  0.42629962  0.68674442  0.17352598  1
  O  O513  1  0.42582923  0.68760862  0.42522678  1
  O  O514  1  0.42732577  0.68727389  0.67773344  1
  O  O515  1  0.42830008  0.68640718  0.92626603  1
  O  O516  1  0.92691181  0.01927988  0.17500935  1
  O  O517  1  0.92838430  0.01969457  0.42621001  1
  O  O518  1  0.92683652  0.02016838  0.67414599  1
  O  O519  1  0.92751719  0.01863341  0.92634245  1
  O  O520  1  0.92736663  0.35296133  0.17673058  1
  O  O521  1  0.92757757  0.35302449  0.42636026  1
  O  O522  1  0.92613781  0.35272082  0.67438929  1
  O  O523  1  0.92647140  0.35390397  0.92657174  1
  O  O524  1  0.92713610  0.68503102  0.17462203  1
  O  O525  1  0.92539668  0.68611571  0.42407171  1
  O  O526  1  0.92591959  0.68634455  0.67504921  1
  O  O527  1  0.92811168  0.68563150  0.92746367  1
  O  O528  1  0.17729840  0.02009078  0.19826428  1
  O  O529  1  0.17676242  0.02062685  0.45057824  1
  O  O530  1  0.17772913  0.01963294  0.69814464  1
  O  O531  1  0.17739845  0.01927345  0.94926832  1
  O  O532  1  0.17720483  0.35231968  0.19958843  1
  O  O533  1  0.17745023  0.35319442  0.44837680  1
  O  O534  1  0.17684160  0.35240117  0.69910264  1
  O  O535  1  0.17696758  0.35434006  0.95004986  1
  O  O536  1  0.17669559  0.68432445  0.19886164  1
  O  O537  1  0.17654021  0.68527994  0.44903191  1
  O  O538  1  0.17686474  0.68507081  0.69951328  1
  O  O539  1  0.17705163  0.68540879  0.94909800  1
  O  O540  1  0.67748918  0.02013997  0.19777657  1
  O  O541  1  0.67762124  0.01971125  0.44782750  1
  O  O542  1  0.67711539  0.02104767  0.69977922  1
  O  O543  1  0.67844059  0.01929905  0.94860475  1
  O  O544  1  0.67653802  0.35222107  0.20034368  1
  O  O545  1  0.67717903  0.35164923  0.44954670  1
  O  O546  1  0.67620101  0.35317848  0.70215312  1
  O  O547  1  0.67674448  0.35392736  0.95040483  1
  O  O548  1  0.67704605  0.68663479  0.19775225  1
  O  O549  1  0.67579672  0.68691008  0.44985885  1
  O  O550  1  0.67734880  0.68543301  0.69973732  1
  O  O551  1  0.67690821  0.68601575  0.94933642  1
  O  O552  1  0.32261964  0.31420972  0.05157235  1
  O  O553  1  0.32296573  0.31442428  0.30058952  1
  O  O554  1  0.32224971  0.31460737  0.55163823  1
  O  O555  1  0.32396058  0.31339432  0.79960629  1
  O  O556  1  0.32257304  0.64802615  0.05056500  1
  O  O557  1  0.32224707  0.64682827  0.30139435  1
  O  O558  1  0.32301699  0.64793907  0.55128391  1
  O  O559  1  0.32197380  0.64685918  0.80179546  1
  O  O560  1  0.32268119  0.98107166  0.05077954  1
  O  O561  1  0.32337588  0.98002666  0.29905856  1
  O  O562  1  0.32333650  0.98121288  0.55050026  1
  O  O563  1  0.32319449  0.98160847  0.80082875  1
  O  O564  1  0.82318526  0.31177449  0.05042735  1
  O  O565  1  0.82218302  0.31299386  0.30182145  1
  O  O566  1  0.82271922  0.31177522  0.55048850  1
  O  O567  1  0.82382594  0.31166181  0.80045846  1
  O  O568  1  0.82263850  0.64758476  0.05060006  1
  O  O569  1  0.82318211  0.64724162  0.29933693  1
  O  O570  1  0.82307200  0.64771702  0.55121729  1
  O  O571  1  0.82253623  0.64690143  0.80236079  1
  O  O572  1  0.82291921  0.97983994  0.05118507  1
  O  O573  1  0.82332516  0.98125635  0.29945440  1
  O  O574  1  0.82382626  0.98069544  0.54932800  1
  O  O575  1  0.82355956  0.98136703  0.80110456  1
  O  O576  1  0.42682556  0.14515139  0.17433393  1
  O  O577  1  0.42622399  0.14747044  0.42412039  1
  O  O578  1  0.42649829  0.14722168  0.67549466  1
  O  O579  1  0.42730498  0.14674866  0.92710675  1
  O  O580  1  0.42629176  0.47916741  0.17536616  1
  O  O581  1  0.42612593  0.48065422  0.42423678  1
  O  O582  1  0.42591838  0.48202567  0.67662739  1
  O  O583  1  0.42633822  0.48203846  0.92621803  1
  O  O584  1  0.42592932  0.81348612  0.17321538  1
  O  O585  1  0.42606178  0.81458400  0.42500504  1
  O  O586  1  0.42783869  0.81463222  0.67775192  1
  O  O587  1  0.42733096  0.81357130  0.92601095  1
  O  O588  1  0.92645916  0.14612981  0.17450188  1
  O  O589  1  0.92883572  0.14727881  0.42662431  1
  O  O590  1  0.92718050  0.14688911  0.67404907  1
  O  O591  1  0.92757326  0.14585925  0.92605230  1
  O  O592  1  0.92748184  0.48024687  0.17741926  1
  O  O593  1  0.92731873  0.48017943  0.42583915  1
  O  O594  1  0.92560384  0.47939553  0.67458331  1
  O  O595  1  0.92606708  0.48102615  0.92680307  1
  O  O596  1  0.92752598  0.81205337  0.17451720  1
  O  O597  1  0.92600633  0.81299835  0.42311285  1
  O  O598  1  0.92622978  0.81335304  0.67500749  1
  O  O599  1  0.92721442  0.81296987  0.92732740  1
  O  O600  1  0.07438727  0.18729493  0.07672577  1
  O  O601  1  0.07308098  0.18811706  0.32539461  1
  O  O602  1  0.07161447  0.18647189  0.57239130  1
  O  O603  1  0.07459845  0.18667022  0.82490169  1
  O  O604  1  0.07210064  0.51896414  0.07405810  1
  O  O605  1  0.07161278  0.51873939  0.32270513  1
  O  O606  1  0.07329662  0.51823608  0.57289930  1
  O  O607  1  0.07305720  0.51973125  0.82551956  1
  O  O608  1  0.07281388  0.85206245  0.07334730  1
  O  O609  1  0.07470101  0.85305837  0.32542543  1
  O  O610  1  0.07357534  0.85349864  0.57410048  1
  O  O611  1  0.07376076  0.85251604  0.82556372  1
  O  O612  1  0.57290988  0.18510827  0.07492851  1
  O  O613  1  0.57339569  0.18799170  0.32422037  1
  O  O614  1  0.57400383  0.18748671  0.57495939  1
  O  O615  1  0.57419677  0.18663019  0.82603800  1
  O  O616  1  0.57232089  0.51933707  0.07301920  1
  O  O617  1  0.57404822  0.52036790  0.32476105  1
  O  O618  1  0.57342582  0.52093751  0.57624525  1
  O  O619  1  0.57143000  0.52014118  0.82431449  1
  O  O620  1  0.57277739  0.85292483  0.07319179  1
  O  O621  1  0.57350580  0.85474717  0.32301817  1
  O  O622  1  0.57402844  0.85313871  0.57500114  1
  O  O623  1  0.57362962  0.85198944  0.82494107  1
  O  O624  1  0.32169637  0.18663129  0.05224889  1
  O  O625  1  0.32267661  0.18750991  0.29972630  1
  O  O626  1  0.32201768  0.18721838  0.55116386  1
  O  O627  1  0.32423838  0.18680742  0.79952672  1
  O  O628  1  0.32296397  0.52122369  0.05032329  1
  O  O629  1  0.32124482  0.51950894  0.30156918  1
  O  O630  1  0.32305356  0.52106546  0.55006653  1
  O  O631  1  0.32164868  0.51948616  0.80168769  1
  O  O632  1  0.32255928  0.85398173  0.04917322  1
  O  O633  1  0.32360705  0.85308936  0.29850209  1
  O  O634  1  0.32352041  0.85397739  0.55083720  1
  O  O635  1  0.32315727  0.85450394  0.80001045  1
  O  O636  1  0.82362342  0.18469161  0.05127549  1
  O  O637  1  0.82269246  0.18568950  0.30177591  1
  O  O638  1  0.82277334  0.18480194  0.54979704  1
  O  O639  1  0.82384616  0.18461826  0.80145685  1
  O  O640  1  0.82232990  0.52070547  0.05039931  1
  O  O641  1  0.82384224  0.52033265  0.29936701  1
  O  O642  1  0.82292955  0.52041825  0.55090306  1
  O  O643  1  0.82177680  0.51956226  0.80200393  1
  O  O644  1  0.82096987  0.85262584  0.05128779  1
  O  O645  1  0.82264213  0.85424411  0.29872676  1
  O  O646  1  0.82421596  0.85391130  0.54890746  1
  O  O647  1  0.82386646  0.85423267  0.80040022  1
  O  O648  1  0.17833449  0.14764622  0.19797731  1
  O  O649  1  0.17643371  0.14734998  0.45072348  1
  O  O650  1  0.17795502  0.14703733  0.69832112  1
  O  O651  1  0.17760209  0.14623704  0.95007583  1
  O  O652  1  0.17682550  0.47914964  0.20045657  1
  O  O653  1  0.17851307  0.48053214  0.44809811  1
  O  O654  1  0.17621810  0.47940532  0.69917674  1
  O  O655  1  0.17716723  0.48140755  0.94964085  1
  O  O656  1  0.17605727  0.81135893  0.19983642  1
  O  O657  1  0.17692087  0.81229278  0.44995377  1
  O  O658  1  0.17678758  0.81219438  0.70044356  1
  O  O659  1  0.17716173  0.81246846  0.95010924  1
  O  O660  1  0.67804143  0.14720695  0.19838263  1
  O  O661  1  0.67757464  0.14694098  0.44727057  1
  O  O662  1  0.67697427  0.14792283  0.69960529  1
  O  O663  1  0.67852127  0.14646883  0.94913171  1
  O  O664  1  0.67578539  0.47894504  0.20145441  1
  O  O665  1  0.67698218  0.47894905  0.45048449  1
  O  O666  1  0.67617795  0.48004621  0.70106774  1
  O  O667  1  0.67737443  0.48121063  0.94944021  1
  O  O668  1  0.67780078  0.81416677  0.19707489  1
  O  O669  1  0.67569230  0.81369737  0.45006636  1
  O  O670  1  0.67761609  0.81268406  0.70069700  1
  O  O671  1  0.67728876  0.81288925  0.94990980  1
