# generated using pymatgen
data_Na2MnFe(PO4)2
_symmetry_space_group_name_H-M   'P 1'
_cell_length_a   22.34419351
_cell_length_b   20.09148470
_cell_length_c   19.45020316
_cell_angle_alpha   89.96735037
_cell_angle_beta   89.99910974
_cell_angle_gamma   89.97025485
_symmetry_Int_Tables_number   1
_chemical_formula_structural   Na2MnFe(PO4)2
_chemical_formula_sum   'Na96 Mn48 Fe48 P96 O384'
_cell_volume   8731.73863780
_cell_formula_units_Z   48
loop_
 _symmetry_equiv_pos_site_id
 _symmetry_equiv_pos_as_xyz
  1  'x, y, z'
loop_
 _atom_site_type_symbol
 _atom_site_label
 _atom_site_symmetry_multiplicity
 _atom_site_fract_x
 _atom_site_fract_y
 _atom_site_fract_z
 _atom_site_occupancy
  Na  Na0  1  0.14043777  0.25142040  0.24300715  1
  Na  Na1  1  0.14060783  0.24897394  0.49402449  1
  Na  Na2  1  0.14065633  0.24876300  0.74438424  1
  Na  Na3  1  0.14058107  0.25119313  0.99334148  1
  Na  Na4  1  0.14098370  0.58346894  0.24341040  1
  Na  Na5  1  0.14028587  0.58490188  0.49371707  1
  Na  Na6  1  0.14038219  0.58277241  0.74462963  1
  Na  Na7  1  0.14068970  0.58287954  0.99434434  1
  Na  Na8  1  0.14005268  0.91624939  0.24308025  1
  Na  Na9  1  0.14024019  0.91673824  0.49284404  1
  Na  Na10  1  0.13993150  0.91695225  0.74203654  1
  Na  Na11  1  0.14009649  0.91749404  0.99263400  1
  Na  Na12  1  0.64037024  0.24992772  0.24475785  1
  Na  Na13  1  0.64047106  0.25023589  0.49447945  1
  Na  Na14  1  0.64066625  0.25054667  0.74522024  1
  Na  Na15  1  0.64080203  0.25115690  0.99468891  1
  Na  Na16  1  0.64048107  0.58323237  0.24371769  1
  Na  Na17  1  0.64022051  0.58127519  0.49388473  1
  Na  Na18  1  0.64008753  0.58154568  0.74337084  1
  Na  Na19  1  0.64024476  0.58262933  0.99242030  1
  Na  Na20  1  0.64010812  0.91770382  0.24360496  1
  Na  Na21  1  0.64006663  0.91654064  0.49253143  1
  Na  Na22  1  0.64012173  0.91654727  0.74368145  1
  Na  Na23  1  0.63973149  0.91800908  0.99380634  1
  Na  Na24  1  0.35951233  0.08453781  0.00691234  1
  Na  Na25  1  0.35963681  0.08358562  0.25673934  1
  Na  Na26  1  0.35972349  0.08226106  0.50594277  1
  Na  Na27  1  0.35965016  0.08336376  0.75603683  1
  Na  Na28  1  0.35925833  0.41755038  0.00688672  1
  Na  Na29  1  0.35930307  0.41814096  0.25592959  1
  Na  Na30  1  0.35957954  0.41764928  0.50729782  1
  Na  Na31  1  0.35938720  0.41648217  0.75762175  1
  Na  Na32  1  0.35962587  0.74951548  0.00675911  1
  Na  Na33  1  0.35961967  0.75091362  0.25719164  1
  Na  Na34  1  0.35981681  0.75141523  0.50530823  1
  Na  Na35  1  0.35946152  0.74852452  0.75525437  1
  Na  Na36  1  0.85966506  0.08420728  0.00555191  1
  Na  Na37  1  0.85960802  0.08462373  0.25605380  1
  Na  Na38  1  0.85973105  0.08418509  0.50646882  1
  Na  Na39  1  0.86007948  0.08302695  0.75707095  1
  Na  Na40  1  0.85963054  0.41520606  0.00625340  1
  Na  Na41  1  0.85968568  0.41505664  0.25637265  1
  Na  Na42  1  0.85952585  0.41545950  0.50578910  1
  Na  Na43  1  0.85931983  0.41550452  0.75627382  1
  Na  Na44  1  0.85992532  0.75052407  0.00570484  1
  Na  Na45  1  0.86011985  0.75012273  0.25581094  1
  Na  Na46  1  0.85966125  0.74805762  0.50622637  1
  Na  Na47  1  0.85971824  0.74932477  0.75678431  1
  Na  Na48  1  0.10954665  0.08392838  0.11782587  1
  Na  Na49  1  0.10963701  0.08230080  0.36838082  1
  Na  Na50  1  0.11017656  0.08400749  0.61852616  1
  Na  Na51  1  0.10972444  0.08248069  0.86734998  1
  Na  Na52  1  0.11021951  0.41675585  0.11769343  1
  Na  Na53  1  0.10976919  0.41603724  0.36902612  1
  Na  Na54  1  0.10965655  0.41710613  0.61957521  1
  Na  Na55  1  0.11040271  0.41533370  0.86927931  1
  Na  Na56  1  0.10955124  0.75081903  0.11835854  1
  Na  Na57  1  0.11008899  0.74936481  0.36825991  1
  Na  Na58  1  0.10942375  0.75129302  0.61801769  1
  Na  Na59  1  0.10939637  0.75054796  0.86921930  1
  Na  Na60  1  0.60959834  0.08404367  0.12002615  1
  Na  Na61  1  0.60944354  0.08299820  0.36838921  1
  Na  Na62  1  0.60958676  0.08206818  0.61892556  1
  Na  Na63  1  0.60948519  0.08346737  0.86968391  1
  Na  Na64  1  0.60993578  0.41647286  0.11852992  1
  Na  Na65  1  0.60938616  0.41653619  0.36919005  1
  Na  Na66  1  0.61004258  0.41676700  0.61927363  1
  Na  Na67  1  0.61001387  0.41793952  0.86806770  1
  Na  Na68  1  0.60911738  0.75045932  0.11908231  1
  Na  Na69  1  0.60954129  0.75088479  0.36787446  1
  Na  Na70  1  0.60925318  0.74907914  0.61846417  1
  Na  Na71  1  0.60912454  0.75021836  0.86778585  1
  Na  Na72  1  0.38963686  0.24990330  0.13210623  1
  Na  Na73  1  0.39037778  0.24924531  0.38123553  1
  Na  Na74  1  0.39041073  0.24935899  0.63272092  1
  Na  Na75  1  0.38971203  0.25042367  0.88295046  1
  Na  Na76  1  0.39014292  0.58446760  0.13187094  1
  Na  Na77  1  0.39025686  0.58561687  0.38133558  1
  Na  Na78  1  0.39003589  0.58342955  0.63140615  1
  Na  Na79  1  0.39006660  0.58340781  0.88104927  1
  Na  Na80  1  0.39084375  0.91740173  0.13239245  1
  Na  Na81  1  0.39007585  0.91696129  0.38099342  1
  Na  Na82  1  0.39042160  0.91608543  0.62967768  1
  Na  Na83  1  0.39031278  0.91708390  0.87978870  1
  Na  Na84  1  0.88973233  0.25011145  0.13151128  1
  Na  Na85  1  0.89001868  0.24971433  0.38138624  1
  Na  Na86  1  0.89044847  0.24994822  0.63130367  1
  Na  Na87  1  0.89005249  0.24831441  0.88228917  1
  Na  Na88  1  0.89071933  0.58356560  0.13081116  1
  Na  Na89  1  0.89037951  0.58254731  0.38149324  1
  Na  Na90  1  0.89030412  0.58356112  0.63118283  1
  Na  Na91  1  0.89033250  0.58270818  0.88179932  1
  Na  Na92  1  0.89054533  0.91655923  0.12929602  1
  Na  Na93  1  0.89083025  0.91532295  0.38107190  1
  Na  Na94  1  0.89085111  0.91753278  0.63153931  1
  Na  Na95  1  0.89101517  0.91560591  0.88081863  1
  Mn  Mn96  1  0.50015408  0.16546114  0.50099625  1
  Mn  Mn97  1  0.25048219  0.33354418  0.37518542  1
  Mn  Mn98  1  0.25055822  0.83326350  0.12492300  1
  Mn  Mn99  1  0.49987222  0.16614887  0.00099509  1
  Mn  Mn100  1  0.74932876  0.66444440  0.62598541  1
  Mn  Mn101  1  0.00007028  0.16663645  0.49961355  1
  Mn  Mn102  1  0.74979755  0.00022323  0.87544644  1
  Mn  Mn103  1  0.74977127  0.16753541  0.62613243  1
  Mn  Mn104  1  -0.00004839  0.50004082  0.75029326  1
  Mn  Mn105  1  0.75045068  0.83247643  0.37443519  1
  Mn  Mn106  1  0.25043681  0.00129539  0.87421491  1
  Mn  Mn107  1  -0.00055347  0.33218391  0.74972716  1
  Mn  Mn108  1  -0.00005331  0.16683757  0.24935638  1
  Mn  Mn109  1  0.75000994  0.66609360  0.87441261  1
  Mn  Mn110  1  0.00008866  0.49993254  0.50006022  1
  Mn  Mn111  1  -0.00034805  -0.00129543  0.24880422  1
  Mn  Mn112  1  0.49985256  0.83350264  0.74960034  1
  Mn  Mn113  1  0.49987903  0.16561129  0.75109136  1
  Mn  Mn114  1  0.24936006  0.66558118  0.87583153  1
  Mn  Mn115  1  0.00002790  0.83344717  0.50017864  1
  Mn  Mn116  1  0.00049410  0.49893844  0.25053969  1
  Mn  Mn117  1  0.24966825  0.50118007  0.37553355  1
  Mn  Mn118  1  0.00005266  0.16602928  -0.00024281  1
  Mn  Mn119  1  0.75059500  0.49901390  0.12485665  1
  Mn  Mn120  1  0.24973241  0.83320696  0.62422245  1
  Mn  Mn121  1  0.75060049  0.00123888  0.37442053  1
  Mn  Mn122  1  0.25044079  0.16621167  0.37444428  1
  Mn  Mn123  1  0.00010780  0.49921911  0.00058675  1
  Mn  Mn124  1  0.49984124  0.33441553  0.75097082  1
  Mn  Mn125  1  0.24976719  0.83315312  0.87429051  1
  Mn  Mn126  1  0.74982784  0.66668015  0.12370939  1
  Mn  Mn127  1  0.49946963  0.66662251  -0.00041978  1
  Mn  Mn128  1  0.50033142  0.66716986  0.49969642  1
  Mn  Mn129  1  0.25014021  0.00117974  0.12416942  1
  Mn  Mn130  1  0.50013145  0.33427752  0.00082386  1
  Mn  Mn131  1  0.24973380  0.33241787  0.62627022  1
  Mn  Mn132  1  0.74996675  0.83215274  0.62412580  1
  Mn  Mn133  1  0.49977847  0.33406407  0.50090447  1
  Mn  Mn134  1  0.75042529  0.00163940  0.12415221  1
  Mn  Mn135  1  0.00030747  0.66704005  0.25011902  1
  Mn  Mn136  1  0.74998669  -0.00009813  0.62534038  1
  Mn  Mn137  1  0.24939378  0.50049363  0.62572496  1
  Mn  Mn138  1  0.49915322  0.33340823  0.25042287  1
  Mn  Mn139  1  0.75003811  0.49889434  0.37452600  1
  Mn  Mn140  1  0.49983581  0.50118519  0.24987947  1
  Mn  Mn141  1  0.00062525  0.66778735  0.75091758  1
  Mn  Mn142  1  0.74949761  0.83377691  0.12509769  1
  Mn  Mn143  1  0.49957088  0.83436111  -0.00057926  1
  Fe  Fe144  1  0.50024788  0.83358657  0.49922457  1
  Fe  Fe145  1  0.24953222  0.66715790  0.62441822  1
  Fe  Fe146  1  0.25068260  0.16644031  0.62497305  1
  Fe  Fe147  1  0.00007615  -0.00059426  -0.00127714  1
  Fe  Fe148  1  0.75039977  0.49881577  0.87453731  1
  Fe  Fe149  1  0.74973957  0.16751282  0.37564960  1
  Fe  Fe150  1  0.49981863  -0.00001829  0.25060041  1
  Fe  Fe151  1  0.74972199  0.16736339  0.87561116  1
  Fe  Fe152  1  0.49995352  0.16621728  0.25079926  1
  Fe  Fe153  1  0.00027338  0.33297709  0.24991872  1
  Fe  Fe154  1  0.50000224  -0.00094596  0.49912337  1
  Fe  Fe155  1  0.00046998  0.83365842  -0.00078688  1
  Fe  Fe156  1  0.24958776  0.83383455  0.37484198  1
  Fe  Fe157  1  0.74955314  0.33274983  0.37531597  1
  Fe  Fe158  1  0.00023581  0.66692625  0.50028307  1
  Fe  Fe159  1  0.25004781  0.00019672  0.62418030  1
  Fe  Fe160  1  0.50022977  -0.00073966  0.74959807  1
  Fe  Fe161  1  0.25034449  0.66732598  0.37455819  1
  Fe  Fe162  1  0.24920828  0.00033397  0.37467143  1
  Fe  Fe163  1  0.00006855  0.83311486  0.24915222  1
  Fe  Fe164  1  0.75023315  0.33333792  0.87513483  1
  Fe  Fe165  1  0.49945050  0.50069364  0.50005208  1
  Fe  Fe166  1  0.74994418  0.66548157  0.37498773  1
  Fe  Fe167  1  0.75034947  0.33289108  0.62566482  1
  Fe  Fe168  1  0.24986432  0.16726482  0.87521082  1
  Fe  Fe169  1  0.50011982  0.50097588  -0.00003183  1
  Fe  Fe170  1  0.50050107  0.66753092  0.25008620  1
  Fe  Fe171  1  -0.00009495  0.33241721  -0.00045412  1
  Fe  Fe172  1  0.50017015  0.83422713  0.24980656  1
  Fe  Fe173  1  0.00035191  0.16597779  0.74991943  1
  Fe  Fe174  1  0.49949634  0.00040511  0.00117456  1
  Fe  Fe175  1  0.00034362  0.33306333  0.50031387  1
  Fe  Fe176  1  0.75046606  0.49826361  0.62438715  1
  Fe  Fe177  1  0.24959504  0.66687367  0.12542767  1
  Fe  Fe178  1  -0.00025870  0.83380167  0.75001954  1
  Fe  Fe179  1  0.00012485  0.66702236  0.00043152  1
  Fe  Fe180  1  0.25020700  0.33395136  0.12448718  1
  Fe  Fe181  1  0.74968072  0.33299321  0.12491123  1
  Fe  Fe182  1  0.25024800  0.33314974  0.87579297  1
  Fe  Fe183  1  0.24956666  0.16766799  0.12500097  1
  Fe  Fe184  1  0.00048606  -0.00011591  0.74955515  1
  Fe  Fe185  1  0.25026090  0.50033924  0.12534172  1
  Fe  Fe186  1  0.75002649  0.16805080  0.12560845  1
  Fe  Fe187  1  0.49929850  0.50059604  0.74980136  1
  Fe  Fe188  1  0.49956866  0.66639688  0.74921898  1
  Fe  Fe189  1  -0.00003850  0.00041354  0.50027364  1
  Fe  Fe190  1  0.74960426  0.83323954  0.87473297  1
  Fe  Fe191  1  0.25030809  0.49976295  0.87575282  1
  P  P192  1  0.04207774  0.25117920  0.10242680  1
  P  P193  1  0.04229313  0.25089959  0.35255936  1
  P  P194  1  0.04247537  0.25049170  0.60270981  1
  P  P195  1  0.04202530  0.24808203  0.85257204  1
  P  P196  1  0.04225400  0.58453260  0.10264537  1
  P  P197  1  0.04314863  0.58315790  0.35357053  1
  P  P198  1  0.04240381  0.58490884  0.60273972  1
  P  P199  1  0.04260134  0.58346151  0.85427392  1
  P  P200  1  0.04171747  0.91665219  0.10084955  1
  P  P201  1  0.04219192  0.91484950  0.35205892  1
  P  P202  1  0.04229437  0.91864889  0.60282259  1
  P  P203  1  0.04191313  0.91656349  0.85162301  1
  P  P204  1  0.54217714  0.24957195  0.10440532  1
  P  P205  1  0.54169710  0.24882860  0.35302032  1
  P  P206  1  0.54272059  0.24984701  0.60393237  1
  P  P207  1  0.54237966  0.25030449  0.85394636  1
  P  P208  1  0.54261769  0.58310117  0.10240453  1
  P  P209  1  0.54222563  0.58512613  0.35266024  1
  P  P210  1  0.54182228  0.58213296  0.60294185  1
  P  P211  1  0.54127977  0.58351218  0.85146666  1
  P  P212  1  0.54193733  0.91805997  0.10354282  1
  P  P213  1  0.54160560  0.91683572  0.35202572  1
  P  P214  1  0.54178352  0.91635381  0.60126470  1
  P  P215  1  0.54222848  0.91815665  0.85269222  1
  P  P216  1  0.45837115  0.08301226  0.14896719  1
  P  P217  1  0.45800776  0.08179070  0.39700640  1
  P  P218  1  0.45804774  0.08103777  0.64740185  1
  P  P219  1  0.45757290  0.08174485  0.89796164  1
  P  P220  1  0.45718738  0.41767745  0.14665120  1
  P  P221  1  0.45730735  0.41845770  0.39792254  1
  P  P222  1  0.45727158  0.41835430  0.64765808  1
  P  P223  1  0.45797140  0.41912393  0.89768914  1
  P  P224  1  0.45834948  0.75060013  0.14856124  1
  P  P225  1  0.45829285  0.75199409  0.39640438  1
  P  P226  1  0.45786370  0.74908105  0.64671521  1
  P  P227  1  0.45684836  0.75004483  0.89606817  1
  P  P228  1  0.95717948  0.08291326  0.14583802  1
  P  P229  1  0.95778907  0.08177802  0.39728117  1
  P  P230  1  0.95861045  0.08333635  0.64799648  1
  P  P231  1  0.95830184  0.08146856  0.89623109  1
  P  P232  1  0.95811972  0.41502007  0.14728038  1
  P  P233  1  0.95806316  0.41458211  0.39744346  1
  P  P234  1  0.95730650  0.41642208  0.64655785  1
  P  P235  1  0.95781619  0.41478956  0.89766066  1
  P  P236  1  0.95797426  0.75128773  0.14641933  1
  P  P237  1  0.95784708  0.74869581  0.39756961  1
  P  P238  1  0.95777639  0.75146443  0.64771639  1
  P  P239  1  0.95876891  0.75022270  0.89833112  1
  P  P240  1  0.20752067  0.08470375  0.22718322  1
  P  P241  1  0.20794695  0.08213368  0.47780915  1
  P  P242  1  0.20891373  0.08372497  0.72642622  1
  P  P243  1  0.20772462  0.08567365  0.97746048  1
  P  P244  1  0.20862242  0.41697549  0.22638749  1
  P  P245  1  0.20716938  0.41685895  0.47850232  1
  P  P246  1  0.20731699  0.41623216  0.72977490  1
  P  P247  1  0.20903614  0.41679002  0.97770089  1
  P  P248  1  0.20806505  0.74916358  0.22811573  1
  P  P249  1  0.20877988  0.74999933  0.47638135  1
  P  P250  1  0.20727876  0.74845320  0.72711880  1
  P  P251  1  0.20724355  0.74974584  0.97864653  1
  P  P252  1  0.70816154  0.08570919  0.22784422  1
  P  P253  1  0.70754895  0.08488700  0.47765472  1
  P  P254  1  0.70724267  0.08369465  0.72918538  1
  P  P255  1  0.70789718  0.08581271  0.97819795  1
  P  P256  1  0.70773156  0.41466773  0.22771330  1
  P  P257  1  0.70773850  0.41480425  0.47801220  1
  P  P258  1  0.70877301  0.41610802  0.72732858  1
  P  P259  1  0.70856275  0.41597670  0.97672379  1
  P  P260  1  0.70728762  0.74925501  0.22830711  1
  P  P261  1  0.70763638  0.74755658  0.47711841  1
  P  P262  1  0.70700107  0.74955852  0.72850051  1
  P  P263  1  0.70732691  0.75105769  0.97672577  1
  P  P264  1  0.29142474  0.25061470  0.02280928  1
  P  P265  1  0.29265262  0.25056480  0.27084975  1
  P  P266  1  0.29289836  0.24864098  0.52302448  1
  P  P267  1  0.29189632  0.24960729  0.77375477  1
  P  P268  1  0.29133807  0.58335900  0.02378956  1
  P  P269  1  0.29209965  0.58489755  0.27204562  1
  P  P270  1  0.29192712  0.58538577  0.52240892  1
  P  P271  1  0.29197098  0.58203449  0.77276053  1
  P  P272  1  0.29312498  0.91720437  0.02158559  1
  P  P273  1  0.29090909  0.91732115  0.27329735  1
  P  P274  1  0.29138790  0.91787726  0.52121656  1
  P  P275  1  0.29220881  0.91705960  0.77058246  1
  P  P276  1  0.79164843  0.25032528  0.02292306  1
  P  P277  1  0.79138544  0.25012361  0.27322443  1
  P  P278  1  0.79217244  0.25113936  0.52255477  1
  P  P279  1  0.79180255  0.25030138  0.77383682  1
  P  P280  1  0.79278680  0.58225002  0.02083282  1
  P  P281  1  0.79269176  0.58373063  0.27230070  1
  P  P282  1  0.79217266  0.58114714  0.52221793  1
  P  P283  1  0.79236106  0.58057932  0.77213517  1
  P  P284  1  0.79220789  0.91673792  0.02093571  1
  P  P285  1  0.79319957  0.91719562  0.27152513  1
  P  P286  1  0.79289680  0.91657905  0.52159026  1
  P  P287  1  0.79220774  0.91538531  0.77267791  1
  O  O288  1  0.03701651  0.25145927  0.18239631  1
  O  O289  1  0.03716905  0.25093408  0.43253289  1
  O  O290  1  0.03699204  0.24926577  0.68260567  1
  O  O291  1  0.03687240  0.24847594  0.93250269  1
  O  O292  1  0.03708804  0.58407623  0.18259886  1
  O  O293  1  0.03800866  0.58364756  0.43353049  1
  O  O294  1  0.03721976  0.58468413  0.68273104  1
  O  O295  1  0.03718825  0.58377069  0.93419424  1
  O  O296  1  0.03675664  0.91573398  0.18078495  1
  O  O297  1  0.03721629  0.91537473  0.43192399  1
  O  O298  1  0.03705069  0.91857593  0.68267691  1
  O  O299  1  0.03679687  0.91658447  0.93152259  1
  O  O300  1  0.53667103  0.24905572  0.18431826  1
  O  O301  1  0.53670161  0.24899847  0.43299345  1
  O  O302  1  0.53757316  0.24990342  0.68389619  1
  O  O303  1  0.53726045  0.25046076  0.93391645  1
  O  O304  1  0.53766919  0.58392059  0.18232034  1
  O  O305  1  0.53693156  0.58445174  0.43255724  1
  O  O306  1  0.53637554  0.58232595  0.68281778  1
  O  O307  1  0.53637040  0.58322933  0.93147579  1
  O  O308  1  0.53631136  0.91743358  0.18343164  1
  O  O309  1  0.53657350  0.91652242  0.43194134  1
  O  O310  1  0.53667205  0.91652833  0.68123253  1
  O  O311  1  0.53692688  0.91822838  0.93261592  1
  O  O312  1  0.46315693  0.08273053  0.06897004  1
  O  O313  1  0.46351907  0.08249035  0.31713143  1
  O  O314  1  0.46342089  0.08104509  0.56747897  1
  O  O315  1  0.46291656  0.08172361  0.81804235  1
  O  O316  1  0.46265224  0.41808785  0.06673076  1
  O  O317  1  0.46252700  0.41810667  0.31796350  1
  O  O318  1  0.46215498  0.41832290  0.56767040  1
  O  O319  1  0.46308503  0.41930562  0.81769831  1
  O  O320  1  0.46310219  0.75061706  0.06851103  1
  O  O321  1  0.46372265  0.75195526  0.31654267  1
  O  O322  1  0.46333001  0.74975973  0.56681845  1
  O  O323  1  0.46210478  0.74940380  0.81612307  1
  O  O324  1  0.96243440  0.08273372  0.06590787  1
  O  O325  1  0.96291640  0.08207166  0.31734662  1
  O  O326  1  0.96366339  0.08318088  0.56799487  1
  O  O327  1  0.96381416  0.08199327  0.81634717  1
  O  O328  1  0.96313635  0.41493965  0.06729433  1
  O  O329  1  0.96353214  0.41438990  0.31747203  1
  O  O330  1  0.96276874  0.41615600  0.56666178  1
  O  O331  1  0.96277444  0.41519303  0.81771642  1
  O  O332  1  0.96337774  0.75088746  0.06656721  1
  O  O333  1  0.96281024  0.74927883  0.31765680  1
  O  O334  1  0.96291945  0.75076804  0.56781132  1
  O  O335  1  0.96360068  0.75104012  0.81837342  1
  O  O336  1  0.21277043  0.08582917  0.05740418  1
  O  O337  1  0.21266067  0.08370656  0.30712859  1
  O  O338  1  0.21341396  0.08214894  0.55767160  1
  O  O339  1  0.21383572  0.08429392  0.80639377  1
  O  O340  1  0.21441149  0.41668837  0.05758627  1
  O  O341  1  0.21314178  0.41715713  0.30639603  1
  O  O342  1  0.21212911  0.41669440  0.55847275  1
  O  O343  1  0.21287820  0.41618285  0.80967646  1
  O  O344  1  0.21261688  0.74960724  0.05856520  1
  O  O345  1  0.21344600  0.74956237  0.30801041  1
  O  O346  1  0.21340029  0.74995436  0.55637741  1
  O  O347  1  0.21219676  0.74873732  0.80709718  1
  O  O348  1  0.71354522  0.08605206  0.05809492  1
  O  O349  1  0.71341725  0.08570076  0.30779195  1
  O  O350  1  0.71253154  0.08429529  0.55766355  1
  O  O351  1  0.71236860  0.08391921  0.80913355  1
  O  O352  1  0.71346761  0.41552919  0.05669495  1
  O  O353  1  0.71286945  0.41477506  0.30764398  1
  O  O354  1  0.71324113  0.41506508  0.55785435  1
  O  O355  1  0.71400834  0.41654609  0.80723226  1
  O  O356  1  0.71228347  0.75075047  0.05672571  1
  O  O357  1  0.71275188  0.74842869  0.30824154  1
  O  O358  1  0.71262923  0.74767158  0.55713465  1
  O  O359  1  0.71229948  0.75045084  0.80843235  1
  O  O360  1  0.28714146  0.25080600  0.19094807  1
  O  O361  1  0.28799877  0.24909528  0.44303200  1
  O  O362  1  0.28697452  0.24922794  0.69379961  1
  O  O363  1  0.28633782  0.25045684  0.94286359  1
  O  O364  1  0.28668973  0.58456391  0.19220446  1
  O  O365  1  0.28683166  0.58547276  0.44244183  1
  O  O366  1  0.28667942  0.58277521  0.69291642  1
  O  O367  1  0.28638513  0.58234086  0.94385499  1
  O  O368  1  0.28666149  0.91693448  0.19328192  1
  O  O369  1  0.28583449  0.91781609  0.44135825  1
  O  O370  1  0.28673676  0.91741290  0.69064478  1
  O  O371  1  0.28808830  0.91720643  0.94161109  1
  O  O372  1  0.78614982  0.25031999  0.19333421  1
  O  O373  1  0.78675514  0.25067260  0.44272052  1
  O  O374  1  0.78673405  0.25085487  0.69391838  1
  O  O375  1  0.78638836  0.25023555  0.94307121  1
  O  O376  1  0.78757805  0.58354213  0.19230884  1
  O  O377  1  0.78693859  0.58210854  0.44225700  1
  O  O378  1  0.78709887  0.58023831  0.69217452  1
  O  O379  1  0.78760284  0.58165458  0.94087771  1
  O  O380  1  0.78795187  0.91743071  0.19156406  1
  O  O381  1  0.78796114  0.91680567  0.44160343  1
  O  O382  1  0.78720806  0.91556280  0.69267931  1
  O  O383  1  0.78669556  0.91602520  0.94101520  1
  O  O384  1  0.22739040  0.25059699  0.05920945  1
  O  O385  1  0.22848280  0.25025340  0.30672091  1
  O  O386  1  0.22844627  0.24816990  0.55827318  1
  O  O387  1  0.22767779  0.24976299  0.80970374  1
  O  O388  1  0.22721004  0.58428523  0.05974179  1
  O  O389  1  0.22794802  0.58542178  0.30818662  1
  O  O390  1  0.22759992  0.58531327  0.55803093  1
  O  O391  1  0.22776800  0.58115725  0.80872743  1
  O  O392  1  0.22865033  0.91701641  0.05648116  1
  O  O393  1  0.22660011  0.91776298  0.30864784  1
  O  O394  1  0.22740108  0.91792991  0.55763134  1
  O  O395  1  0.22801489  0.91730285  0.80630043  1
  O  O396  1  0.72760909  0.25054982  0.05947323  1
  O  O397  1  0.72732446  0.24993942  0.30973496  1
  O  O398  1  0.72802029  0.25170684  0.55871504  1
  O  O399  1  0.72762456  0.25014115  0.80987249  1
  O  O400  1  0.72844959  0.58218338  0.05615433  1
  O  O401  1  0.72833255  0.58382765  0.30777953  1
  O  O402  1  0.72794483  0.58032559  0.55809124  1
  O  O403  1  0.72809753  0.58096081  0.80780703  1
  O  O404  1  0.72801183  0.91748965  0.05659850  1
  O  O405  1  0.72881462  0.91712605  0.30668255  1
  O  O406  1  0.72835588  0.91645506  0.55638631  1
  O  O407  1  0.72782254  0.91546852  0.80799325  1
  O  O408  1  0.27185430  0.08534776  0.19163129  1
  O  O409  1  0.27208655  0.08163876  0.44163397  1
  O  O410  1  0.27304781  0.08358332  0.69037256  1
  O  O411  1  0.27209867  0.08576838  0.94197964  1
  O  O412  1  0.27286870  0.41643079  0.19085579  1
  O  O413  1  0.27163907  0.41735560  0.44354998  1
  O  O414  1  0.27145240  0.41649771  0.69385484  1
  O  O415  1  0.27293258  0.41703728  0.94097824  1
  O  O416  1  0.27225673  0.74854526  0.19205272  1
  O  O417  1  0.27290683  0.74996467  0.44050474  1
  O  O418  1  0.27164853  0.74846253  0.69171678  1
  O  O419  1  0.27152125  0.74972132  0.94316351  1
  O  O420  1  0.77234508  0.08580763  0.19195785  1
  O  O421  1  0.77195448  0.08549830  0.44233707  1
  O  O422  1  0.77162477  0.08355707  0.69392341  1
  O  O423  1  0.77199334  0.08547957  0.94204079  1
  O  O424  1  0.77202461  0.41434117  0.19200585  1
  O  O425  1  0.77182259  0.41444684  0.44167725  1
  O  O426  1  0.77279281  0.41586730  0.69079698  1
  O  O427  1  0.77278145  0.41606322  0.94082915  1
  O  O428  1  0.77157648  0.74971540  0.19283194  1
  O  O429  1  0.77202554  0.74733961  0.44174737  1
  O  O430  1  0.77135141  0.74888249  0.69322399  1
  O  O431  1  0.77175136  0.75095127  0.94146781  1
  O  O432  1  0.02147229  0.08295585  0.18126041  1
  O  O433  1  0.02211130  0.08188428  0.43282692  1
  O  O434  1  0.02280251  0.08344046  0.68401350  1
  O  O435  1  0.02236423  0.08136061  0.93253389  1
  O  O436  1  0.02249667  0.41508972  0.18272005  1
  O  O437  1  0.02222554  0.41484451  0.43343665  1
  O  O438  1  0.02156241  0.41627983  0.68206693  1
  O  O439  1  0.02216170  0.41474717  0.93309515  1
  O  O440  1  0.02214178  0.75155562  0.18261067  1
  O  O441  1  0.02218497  0.74856997  0.43318266  1
  O  O442  1  0.02212827  0.75215166  0.68326810  1
  O  O443  1  0.02289335  0.74937855  0.93425064  1
  O  O444  1  0.52252936  0.08264759  0.18487724  1
  O  O445  1  0.52210997  0.08140647  0.43321285  1
  O  O446  1  0.52223769  0.08124336  0.68335618  1
  O  O447  1  0.52181501  0.08156010  0.93383654  1
  O  O448  1  0.52145152  0.41717776  0.18211365  1
  O  O449  1  0.52163612  0.41857726  0.43344789  1
  O  O450  1  0.52164182  0.41837474  0.68308769  1
  O  O451  1  0.52227343  0.41907176  0.93332318  1
  O  O452  1  0.52259372  0.75066508  0.18423735  1
  O  O453  1  0.52237539  0.75199436  0.43266362  1
  O  O454  1  0.52193650  0.74874583  0.68288340  1
  O  O455  1  0.52114294  0.75022976  0.93148350  1
  O  O456  1  0.47795794  0.25012696  0.06879079  1
  O  O457  1  0.47741420  0.24875917  0.31751532  1
  O  O458  1  0.47832755  0.24974923  0.56883055  1
  O  O459  1  0.47800845  0.25029172  0.81881585  1
  O  O460  1  0.47812906  0.58234120  0.06708509  1
  O  O461  1  0.47797775  0.58568113  0.31690465  1
  O  O462  1  0.47772453  0.58246614  0.56668777  1
  O  O463  1  0.47708174  0.58387773  0.81552874  1
  O  O464  1  0.47779614  0.91845955  0.06729055  1
  O  O465  1  0.47748456  0.91687622  0.31579752  1
  O  O466  1  0.47764503  0.91622519  0.56504197  1
  O  O467  1  0.47800521  0.91809481  0.81679603  1
  O  O468  1  0.97777359  0.25091617  0.06683365  1
  O  O469  1  0.97798045  0.25089876  0.31692883  1
  O  O470  1  0.97826617  0.25117339  0.56672265  1
  O  O471  1  0.97773923  0.24737411  0.81696371  1
  O  O472  1  0.97803420  0.58440551  0.06694266  1
  O  O473  1  0.97880047  0.58285938  0.31830237  1
  O  O474  1  0.97812063  0.58484954  0.56713745  1
  O  O475  1  0.97834799  0.58382962  0.81869808  1
  O  O476  1  0.97760103  0.91740379  0.06481749  1
  O  O477  1  0.97788285  0.91443612  0.31635032  1
  O  O478  1  0.97811793  0.91842919  0.56678527  1
  O  O479  1  0.97785506  0.91680201  0.81521897  1
  O  O480  1  0.07281306  0.31446481  0.07323682  1
  O  O481  1  0.07326613  0.31414952  0.32366074  1
  O  O482  1  0.07341580  0.31421209  0.57496793  1
  O  O483  1  0.07288795  0.31177824  0.82466521  1
  O  O484  1  0.07277441  0.64824729  0.07449324  1
  O  O485  1  0.07433692  0.64627967  0.32482312  1
  O  O486  1  0.07284785  0.64866936  0.57436553  1
  O  O487  1  0.07423744  0.64652213  0.82590882  1
  O  O488  1  0.07279747  0.98039947  0.07314404  1
  O  O489  1  0.07318723  0.97837555  0.32374268  1
  O  O490  1  0.07287878  0.98212290  0.57372855  1
  O  O491  1  0.07316786  0.97993705  0.82316350  1
  O  O492  1  0.57349045  0.31308757  0.07656875  1
  O  O493  1  0.57269121  0.31258459  0.32538489  1
  O  O494  1  0.57355072  0.31345045  0.57573862  1
  O  O495  1  0.57342172  0.31380453  0.82585765  1
  O  O496  1  0.57337371  0.64662806  0.07376015  1
  O  O497  1  0.57290668  0.64875413  0.32423129  1
  O  O498  1  0.57340942  0.64549008  0.57497219  1
  O  O499  1  0.57200227  0.64730194  0.82331808  1
  O  O500  1  0.57294226  0.98162692  0.07540250  1
  O  O501  1  0.57254346  0.98051853  0.32378713  1
  O  O502  1  0.57273883  0.97984915  0.57287304  1
  O  O503  1  0.57317250  0.98142092  0.82389641  1
  O  O504  1  0.42692104  0.01981836  0.17737905  1
  O  O505  1  0.42710582  0.01818938  0.42530346  1
  O  O506  1  0.42729444  0.01753997  0.67586879  1
  O  O507  1  0.42645575  0.01862142  0.92681741  1
  O  O508  1  0.42592365  0.35419031  0.17457324  1
  O  O509  1  0.42623776  0.35481626  0.42576878  1
  O  O510  1  0.42641669  0.35454368  0.67571065  1
  O  O511  1  0.42705796  0.35520189  0.92520770  1
  O  O512  1  0.42795438  0.68667149  0.17670553  1
  O  O513  1  0.42706122  0.68851129  0.42454556  1
  O  O514  1  0.42713121  0.68537321  0.67489646  1
  O  O515  1  0.42554983  0.68694049  0.92488803  1
  O  O516  1  0.92588467  0.01965620  0.17406838  1
  O  O517  1  0.92726730  0.01818248  0.42584319  1
  O  O518  1  0.92756696  0.01992969  0.67639349  1
  O  O519  1  0.92744584  0.01791809  0.92461320  1
  O  O520  1  0.92731062  0.35173349  0.17629496  1
  O  O521  1  0.92720337  0.35131459  0.42629584  1
  O  O522  1  0.92588882  0.35320630  0.67487784  1
  O  O523  1  0.92736528  0.35092783  0.92581246  1
  O  O524  1  0.92673080  0.68782810  0.17472367  1
  O  O525  1  0.92746741  0.68489878  0.42618068  1
  O  O526  1  0.92679120  0.68798503  0.67613598  1
  O  O527  1  0.92752595  0.68661265  0.92612457  1
  O  O528  1  0.17651790  0.02125728  0.19871592  1
  O  O529  1  0.17666865  0.01906237  0.44879102  1
  O  O530  1  0.17818787  0.01989959  0.69848683  1
  O  O531  1  0.17706381  0.02176303  0.94955963  1
  O  O532  1  0.17740565  0.35368530  0.19805141  1
  O  O533  1  0.17663310  0.35317900  0.45017450  1
  O  O534  1  0.17630992  0.35267036  0.70149271  1
  O  O535  1  0.17833299  0.35304340  0.94928316  1
  O  O536  1  0.17685903  0.68593931  0.19948960  1
  O  O537  1  0.17761400  0.68670108  0.44807127  1
  O  O538  1  0.17670867  0.68482785  0.69878042  1
  O  O539  1  0.17593457  0.68642256  0.95065042  1
  O  O540  1  0.67728599  0.02185657  0.20013906  1
  O  O541  1  0.67685235  0.02120562  0.44944130  1
  O  O542  1  0.67633527  0.02012386  0.70090119  1
  O  O543  1  0.67663119  0.02205618  0.95095113  1
  O  O544  1  0.67657498  0.35155019  0.19904521  1
  O  O545  1  0.67653179  0.35160181  0.44930461  1
  O  O546  1  0.67781766  0.35233552  0.69947195  1
  O  O547  1  0.67759388  0.35256421  0.94816976  1
  O  O548  1  0.67616550  0.68617565  0.19934269  1
  O  O549  1  0.67687900  0.68402091  0.44883982  1
  O  O550  1  0.67593109  0.68573304  0.70112664  1
  O  O551  1  0.67626551  0.68740311  0.94895224  1
  O  O552  1  0.32238749  0.31431841  0.05086338  1
  O  O553  1  0.32376774  0.31391144  0.29945278  1
  O  O554  1  0.32360615  0.31225520  0.55133571  1
  O  O555  1  0.32253109  0.31340833  0.80201658  1
  O  O556  1  0.32262818  0.64698441  0.05134714  1
  O  O557  1  0.32331258  0.64811826  0.30073500  1
  O  O558  1  0.32264046  0.64889572  0.55099867  1
  O  O559  1  0.32278487  0.64570541  0.80089770  1
  O  O560  1  0.32379369  0.98084807  0.04981844  1
  O  O561  1  0.32194912  0.98087964  0.30119372  1
  O  O562  1  0.32247539  0.98108243  0.55007940  1
  O  O563  1  0.32375733  0.98012039  0.79896250  1
  O  O564  1  0.82260066  0.31382871  0.05144413  1
  O  O565  1  0.82217782  0.31370691  0.30175704  1
  O  O566  1  0.82333897  0.31431398  0.55129380  1
  O  O567  1  0.82278762  0.31372384  0.80230046  1
  O  O568  1  0.82349780  0.64617436  0.04846995  1
  O  O569  1  0.82345149  0.64712997  0.30087362  1
  O  O570  1  0.82305917  0.64458363  0.55081721  1
  O  O571  1  0.82348068  0.64445818  0.79947034  1
  O  O572  1  0.82349182  0.98043881  0.04823515  1
  O  O573  1  0.82428049  0.98064957  0.29955478  1
  O  O574  1  0.82370702  0.98006707  0.55006111  1
  O  O575  1  0.82330750  0.97899811  0.80038789  1
  O  O576  1  0.42815203  0.14716959  0.17707057  1
  O  O577  1  0.42670914  0.14516557  0.42539770  1
  O  O578  1  0.42691933  0.14473618  0.67525147  1
  O  O579  1  0.42677721  0.14572358  0.92569883  1
  O  O580  1  0.42606736  0.48102645  0.17501850  1
  O  O581  1  0.42668085  0.48222654  0.42601595  1
  O  O582  1  0.42631315  0.48164253  0.67640826  1
  O  O583  1  0.42703820  0.48238451  0.92653767  1
  O  O584  1  0.42737761  0.81424769  0.17656009  1
  O  O585  1  0.42738482  0.81538862  0.42525573  1
  O  O586  1  0.42649193  0.81251785  0.67461599  1
  O  O587  1  0.42591194  0.81375529  0.92396030  1
  O  O588  1  0.92630646  0.14656800  0.17408107  1
  O  O589  1  0.92662489  0.14541341  0.42504004  1
  O  O590  1  0.92788636  0.14723467  0.67597953  1
  O  O591  1  0.92694183  0.14486683  0.92447760  1
  O  O592  1  0.92712943  0.47884711  0.17503609  1
  O  O593  1  0.92689522  0.47847140  0.42470514  1
  O  O594  1  0.92652792  0.48016338  0.67462720  1
  O  O595  1  0.92662955  0.47823895  0.92563685  1
  O  O596  1  0.92724493  0.81487587  0.17510236  1
  O  O597  1  0.92651042  0.81200773  0.42580718  1
  O  O598  1  0.92699306  0.81511216  0.67605345  1
  O  O599  1  0.92844688  0.81409086  0.92697938  1
  O  O600  1  0.07315760  0.18740080  0.07488067  1
  O  O601  1  0.07317029  0.18699919  0.32483534  1
  O  O602  1  0.07350508  0.18710181  0.57413335  1
  O  O603  1  0.07305797  0.18468889  0.82400211  1
  O  O604  1  0.07353296  0.52088977  0.07513951  1
  O  O605  1  0.07414997  0.51941271  0.32569323  1
  O  O606  1  0.07370401  0.52134581  0.57515945  1
  O  O607  1  0.07320724  0.51957488  0.82627401  1
  O  O608  1  0.07231945  0.85303764  0.07199203  1
  O  O609  1  0.07279107  0.85121100  0.32341973  1
  O  O610  1  0.07367988  0.85512712  0.57486328  1
  O  O611  1  0.07246045  0.85266976  0.82326704  1
  O  O612  1  0.57326805  0.18624701  0.07595910  1
  O  O613  1  0.57234493  0.18520255  0.32459276  1
  O  O614  1  0.57390281  0.18640199  0.57593533  1
  O  O615  1  0.57340209  0.18671802  0.82614035  1
  O  O616  1  0.57348977  0.51950460  0.07406448  1
  O  O617  1  0.57344024  0.52161234  0.32463445  1
  O  O618  1  0.57237143  0.51852834  0.57407317  1
  O  O619  1  0.57212417  0.51989223  0.82312968  1
  O  O620  1  0.57300541  0.85456142  0.07506316  1
  O  O621  1  0.57267538  0.85344048  0.32335419  1
  O  O622  1  0.57249867  0.85245680  0.57329670  1
  O  O623  1  0.57313703  0.85436666  0.82481633  1
  O  O624  1  0.32235860  0.18703884  0.05145569  1
  O  O625  1  0.32400661  0.18715382  0.29907339  1
  O  O626  1  0.32373649  0.18499134  0.55119669  1
  O  O627  1  0.32290573  0.18609451  0.80215487  1
  O  O628  1  0.32166490  0.51959316  0.05277808  1
  O  O629  1  0.32297168  0.52115127  0.30031232  1
  O  O630  1  0.32287350  0.52163780  0.55030678  1
  O  O631  1  0.32303520  0.51864330  0.80131795  1
  O  O632  1  0.32435516  0.85387975  0.04991552  1
  O  O633  1  0.32110663  0.85333484  0.30194875  1
  O  O634  1  0.32267939  0.85419494  0.54903634  1
  O  O635  1  0.32299661  0.85312873  0.79827707  1
  O  O636  1  0.82252554  0.18669839  0.05146430  1
  O  O637  1  0.82240014  0.18653690  0.30167769  1
  O  O638  1  0.82313411  0.18747340  0.55098762  1
  O  O639  1  0.82242534  0.18632833  0.80175842  1
  O  O640  1  0.82423983  0.51923924  0.04969268  1
  O  O641  1  0.82362517  0.51985507  0.29991235  1
  O  O642  1  0.82319084  0.51745130  0.55004811  1
  O  O643  1  0.82330257  0.51735776  0.80109133  1
  O  O644  1  0.82327985  0.85345585  0.04956986  1
  O  O645  1  0.82420548  0.85357840  0.29949147  1
  O  O646  1  0.82387818  0.85289944  0.54943312  1
  O  O647  1  0.82277240  0.85168310  0.80114000  1
  O  O648  1  0.17666894  0.14841386  0.19909694  1
  O  O649  1  0.17708354  0.14596422  0.44981603  1
  O  O650  1  0.17805397  0.14730035  0.69785547  1
  O  O651  1  0.17668221  0.14886825  0.94858244  1
  O  O652  1  0.17841653  0.48108535  0.19804429  1
  O  O653  1  0.17591419  0.48027895  0.45044865  1
  O  O654  1  0.17574594  0.47942270  0.70132741  1
  O  O655  1  0.17774410  0.48031696  0.94960149  1
  O  O656  1  0.17722155  0.81294172  0.19990495  1
  O  O657  1  0.17837512  0.81410456  0.44809914  1
  O  O658  1  0.17630490  0.81208001  0.69903748  1
  O  O659  1  0.17632495  0.81335534  0.95031403  1
  O  O660  1  0.67707726  0.14898897  0.19922908  1
  O  O661  1  0.67659962  0.14844795  0.44955687  1
  O  O662  1  0.67608467  0.14707615  0.70089433  1
  O  O663  1  0.67701457  0.14920582  0.94952979  1
  O  O664  1  0.67706198  0.47864878  0.19979407  1
  O  O665  1  0.67672377  0.47843618  0.44969692  1
  O  O666  1  0.67791507  0.47955768  0.69834493  1
  O  O667  1  0.67787442  0.47984446  0.94860143  1
  O  O668  1  0.67612005  0.81309207  0.20089458  1
  O  O669  1  0.67685362  0.81149243  0.44945267  1
  O  O670  1  0.67586139  0.81266029  0.69942963  1
  O  O671  1  0.67668338  0.81476971  0.94847855  1
