# generated using pymatgen
data_Na2MnFe(PO4)2
_symmetry_space_group_name_H-M   'P 1'
_cell_length_a   22.33996745
_cell_length_b   20.08879553
_cell_length_c   19.45217571
_cell_angle_alpha   89.94378655
_cell_angle_beta   89.99786377
_cell_angle_gamma   90.05509226
_symmetry_Int_Tables_number   1
_chemical_formula_structural   Na2MnFe(PO4)2
_chemical_formula_sum   'Na96 Mn48 Fe48 P96 O384'
_cell_volume   8729.79827141
_cell_formula_units_Z   48
loop_
 _symmetry_equiv_pos_site_id
 _symmetry_equiv_pos_as_xyz
  1  'x, y, z'
loop_
 _atom_site_type_symbol
 _atom_site_label
 _atom_site_symmetry_multiplicity
 _atom_site_fract_x
 _atom_site_fract_y
 _atom_site_fract_z
 _atom_site_occupancy
  Na  Na0  1  0.14035048  0.24852457  0.24319494  1
  Na  Na1  1  0.14017047  0.25143699  0.49398796  1
  Na  Na2  1  0.14076837  0.25137358  0.74336689  1
  Na  Na3  1  0.14032345  0.25095174  0.99464154  1
  Na  Na4  1  0.13990732  0.58198426  0.24269609  1
  Na  Na5  1  0.14095101  0.58370822  0.49345048  1
  Na  Na6  1  0.14061836  0.58318768  0.74363078  1
  Na  Na7  1  0.13979175  0.58480265  0.99336815  1
  Na  Na8  1  0.14091236  0.91655026  0.24296803  1
  Na  Na9  1  0.14059199  0.91744917  0.49433232  1
  Na  Na10  1  0.13981205  0.91740162  0.74296370  1
  Na  Na11  1  0.14025253  0.91838571  0.99325231  1
  Na  Na12  1  0.63989833  0.24986006  0.24334450  1
  Na  Na13  1  0.64042468  0.24917025  0.49179747  1
  Na  Na14  1  0.64004865  0.24928089  0.74445573  1
  Na  Na15  1  0.64026364  0.24903527  0.99419013  1
  Na  Na16  1  0.64053025  0.58245491  0.24451269  1
  Na  Na17  1  0.64081108  0.58284783  0.49357217  1
  Na  Na18  1  0.64053086  0.58398614  0.74371154  1
  Na  Na19  1  0.64015408  0.58239754  0.99437537  1
  Na  Na20  1  0.64007723  0.91712294  0.24319370  1
  Na  Na21  1  0.64081439  0.91663996  0.49359949  1
  Na  Na22  1  0.64000964  0.91681503  0.74477295  1
  Na  Na23  1  0.63976337  0.91782211  0.99368562  1
  Na  Na24  1  0.35889207  0.08432081  0.00662541  1
  Na  Na25  1  0.35971678  0.08312141  0.25620362  1
  Na  Na26  1  0.35965896  0.08431600  0.50616068  1
  Na  Na27  1  0.35915352  0.08311571  0.75614667  1
  Na  Na28  1  0.36007328  0.41675114  0.00783215  1
  Na  Na29  1  0.35926386  0.41489842  0.25622961  1
  Na  Na30  1  0.35956706  0.41629220  0.50708687  1
  Na  Na31  1  0.36029232  0.41540477  0.75653963  1
  Na  Na32  1  0.35952366  0.75225021  0.00621503  1
  Na  Na33  1  0.35940329  0.74917331  0.25597922  1
  Na  Na34  1  0.35934973  0.74973449  0.50643998  1
  Na  Na35  1  0.36038975  0.75082011  0.75668778  1
  Na  Na36  1  0.85965785  0.08325095  0.00595990  1
  Na  Na37  1  0.85937827  0.08329721  0.25665860  1
  Na  Na38  1  0.85937827  0.08231545  0.50436449  1
  Na  Na39  1  0.85951904  0.08301571  0.75645267  1
  Na  Na40  1  0.86021481  0.41582843  0.00691015  1
  Na  Na41  1  0.85960545  0.41622516  0.25644866  1
  Na  Na42  1  0.86008280  0.41591497  0.50557549  1
  Na  Na43  1  0.86060766  0.41580376  0.75714469  1
  Na  Na44  1  0.85974695  0.74958567  0.00679890  1
  Na  Na45  1  0.85931681  0.74940529  0.25653502  1
  Na  Na46  1  0.85992738  0.75055817  0.50516704  1
  Na  Na47  1  0.85980822  0.75162631  0.75654145  1
  Na  Na48  1  0.11007242  0.08462293  0.11872236  1
  Na  Na49  1  0.11000444  0.08399827  0.36778663  1
  Na  Na50  1  0.10943432  0.08451214  0.61882482  1
  Na  Na51  1  0.10962753  0.08459374  0.86773049  1
  Na  Na52  1  0.10911631  0.41770099  0.11830716  1
  Na  Na53  1  0.11002263  0.41657683  0.36831537  1
  Na  Na54  1  0.11057987  0.41704247  0.61918190  1
  Na  Na55  1  0.10965048  0.41701197  0.86977254  1
  Na  Na56  1  0.10953695  0.74881951  0.11822055  1
  Na  Na57  1  0.10994467  0.75003465  0.36748316  1
  Na  Na58  1  0.10991101  0.75128499  0.61905128  1
  Na  Na59  1  0.10929229  0.75019174  0.86810489  1
  Na  Na60  1  0.61013735  0.08380675  0.11806201  1
  Na  Na61  1  0.60962832  0.08377299  0.36704971  1
  Na  Na62  1  0.60964083  0.08286542  0.61888968  1
  Na  Na63  1  0.60977712  0.08253347  0.86928841  1
  Na  Na64  1  0.60942133  0.41638029  0.11962457  1
  Na  Na65  1  0.60994596  0.41612630  0.36815468  1
  Na  Na66  1  0.60973660  0.41489111  0.61850962  1
  Na  Na67  1  0.60922165  0.41705642  0.87013002  1
  Na  Na68  1  0.60908704  0.75077157  0.11904792  1
  Na  Na69  1  0.60962147  0.75007232  0.36893440  1
  Na  Na70  1  0.60989153  0.74941837  0.61929572  1
  Na  Na71  1  0.60919131  0.75017271  0.86914080  1
  Na  Na72  1  0.38994685  0.25011193  0.13179511  1
  Na  Na73  1  0.39002010  0.25038097  0.38111728  1
  Na  Na74  1  0.39007122  0.24927153  0.63142101  1
  Na  Na75  1  0.39014232  0.25008289  0.88197757  1
  Na  Na76  1  0.39021549  0.58326485  0.13155098  1
  Na  Na77  1  0.39005026  0.58240957  0.38142674  1
  Na  Na78  1  0.39083271  0.58201674  0.63179023  1
  Na  Na79  1  0.39098963  0.58406494  0.88132535  1
  Na  Na80  1  0.39005434  0.91794921  0.13091960  1
  Na  Na81  1  0.39008210  0.91631135  0.38120200  1
  Na  Na82  1  0.39030133  0.91536021  0.63156832  1
  Na  Na83  1  0.38989097  0.91617481  0.88160288  1
  Na  Na84  1  0.89034442  0.25012719  0.13208056  1
  Na  Na85  1  0.88983422  0.24967411  0.38110592  1
  Na  Na86  1  0.89033183  0.25056323  0.63099320  1
  Na  Na87  1  0.89060168  0.25085470  0.88159076  1
  Na  Na88  1  0.89039998  0.58282341  0.13098787  1
  Na  Na89  1  0.89062309  0.58205840  0.38044225  1
  Na  Na90  1  0.89103494  0.58307621  0.63123135  1
  Na  Na91  1  0.89113330  0.58220590  0.88137865  1
  Na  Na92  1  0.89032792  0.91713707  0.13232408  1
  Na  Na93  1  0.88999996  0.91709032  0.38040510  1
  Na  Na94  1  0.89015064  0.91657531  0.63144652  1
  Na  Na95  1  0.89030144  0.91660601  0.88112479  1
  Mn  Mn96  1  0.75116152  0.66790281  0.62393801  1
  Mn  Mn97  1  0.74995889  0.16602951  0.62425188  1
  Mn  Mn98  1  0.25024922  0.66730958  0.62461407  1
  Mn  Mn99  1  0.74957011  0.83465622  0.87632990  1
  Mn  Mn100  1  0.75032846  0.66694569  0.87519285  1
  Mn  Mn101  1  0.74926861  0.66571485  0.12633364  1
  Mn  Mn102  1  0.74950165  0.33179042  0.87603041  1
  Mn  Mn103  1  0.50037313  0.00032404  0.49989082  1
  Mn  Mn104  1  0.25025569  0.00056452  0.62493259  1
  Mn  Mn105  1  0.49956472  0.66546163  0.50011043  1
  Mn  Mn106  1  0.25062522  0.66839463  0.87376963  1
  Mn  Mn107  1  0.74991009  0.66643438  0.37526742  1
  Mn  Mn108  1  0.74984210  0.33243583  0.12521546  1
  Mn  Mn109  1  0.74940639  -0.00065895  0.62489236  1
  Mn  Mn110  1  0.24960869  0.83360259  0.12488566  1
  Mn  Mn111  1  0.49953622  0.16663226  0.75029472  1
  Mn  Mn112  1  0.00046789  0.83241785  0.00071359  1
  Mn  Mn113  1  -0.00016659  0.83314453  0.24945132  1
  Mn  Mn114  1  -0.00069203  0.16748266  0.50004452  1
  Mn  Mn115  1  0.25065993  0.50043339  0.87539705  1
  Mn  Mn116  1  0.50024826  0.33238554  0.49975348  1
  Mn  Mn117  1  0.50003442  0.00034986  0.24969954  1
  Mn  Mn118  1  0.00013070  0.00046523  0.49985585  1
  Mn  Mn119  1  0.24969787  0.33293116  0.37555709  1
  Mn  Mn120  1  0.49964645  0.66715336  0.00058191  1
  Mn  Mn121  1  0.49985692  0.16693207  -0.00019386  1
  Mn  Mn122  1  0.00008909  0.16778757  0.74983151  1
  Mn  Mn123  1  0.25012883  0.33293327  0.87536430  1
  Mn  Mn124  1  0.50024451  0.66704478  0.25017469  1
  Mn  Mn125  1  -0.00041605  0.16792622  -0.00080853  1
  Mn  Mn126  1  0.00030958  0.83384750  0.49900909  1
  Mn  Mn127  1  0.00034390  0.66675878  0.50024081  1
  Mn  Mn128  1  0.75025542  0.49947375  0.87494079  1
  Mn  Mn129  1  0.24981178  0.50012823  0.12491521  1
  Mn  Mn130  1  0.49923301  -0.00108255  0.74954584  1
  Mn  Mn131  1  0.50049221  0.49914043  0.75072305  1
  Mn  Mn132  1  0.74941854  0.83426076  0.12552249  1
  Mn  Mn133  1  0.00037204  0.66628222  0.75010569  1
  Mn  Mn134  1  0.49983178  0.49919125  0.25031642  1
  Mn  Mn135  1  0.25000194  -0.00007950  0.37546330  1
  Mn  Mn136  1  -0.00000891  0.00025126  -0.00011337  1
  Mn  Mn137  1  0.24923332  0.00132814  0.87440340  1
  Mn  Mn138  1  0.00108030  0.49931905  0.50026230  1
  Mn  Mn139  1  0.75041832  0.49967598  0.62487353  1
  Mn  Mn140  1  0.49989459  0.83254134  0.50038447  1
  Mn  Mn141  1  0.00014419  0.33385618  0.24986964  1
  Mn  Mn142  1  0.75027493  0.33269984  0.62457049  1
  Mn  Mn143  1  0.24989463  0.66591797  0.37561362  1
  Fe  Fe144  1  0.74955719  0.16604869  0.37404298  1
  Fe  Fe145  1  -0.00007977  0.66595787  0.24888076  1
  Fe  Fe146  1  0.24997455  0.16667678  0.37512102  1
  Fe  Fe147  1  -0.00007690  0.50010290  -0.00008227  1
  Fe  Fe148  1  0.74968788  0.83366797  0.37494340  1
  Fe  Fe149  1  0.74962769  -0.00026077  0.37452947  1
  Fe  Fe150  1  0.49934925  0.00001448  0.00008795  1
  Fe  Fe151  1  0.75005056  0.00047687  0.87513917  1
  Fe  Fe152  1  0.00068988  0.00054670  0.24978012  1
  Fe  Fe153  1  0.24980313  0.66684645  0.12494380  1
  Fe  Fe154  1  -0.00020170  0.83314729  0.75031757  1
  Fe  Fe155  1  0.00076277  0.49944547  0.75060191  1
  Fe  Fe156  1  0.49985461  0.16722358  0.24899134  1
  Fe  Fe157  1  0.24948625  0.33267779  0.12586346  1
  Fe  Fe158  1  0.24973751  0.00055318  0.12465610  1
  Fe  Fe159  1  0.00000687  0.33388924  0.50009212  1
  Fe  Fe160  1  0.50064088  0.83263424  0.75069749  1
  Fe  Fe161  1  0.49985161  0.49978884  0.00026038  1
  Fe  Fe162  1  0.24955662  0.16725329  0.62521686  1
  Fe  Fe163  1  0.50042996  0.49899217  0.50044388  1
  Fe  Fe164  1  0.24992077  0.16657334  0.12519171  1
  Fe  Fe165  1  0.75041082  0.83394327  0.62499719  1
  Fe  Fe166  1  0.24989585  0.49942203  0.37471293  1
  Fe  Fe167  1  0.00015528  0.16720865  0.25000888  1
  Fe  Fe168  1  0.00023563  0.33423649  0.00057180  1
  Fe  Fe169  1  -0.00030463  0.00010985  0.74968784  1
  Fe  Fe170  1  0.25079912  0.50006955  0.62469736  1
  Fe  Fe171  1  0.75064668  0.49936486  0.37490241  1
  Fe  Fe172  1  0.50026351  0.33306707  0.75044357  1
  Fe  Fe173  1  0.75010967  0.49914001  0.12553542  1
  Fe  Fe174  1  0.24994567  0.83308507  0.37448342  1
  Fe  Fe175  1  0.75011270  0.00058050  0.12515791  1
  Fe  Fe176  1  0.24982673  0.16751117  0.87546369  1
  Fe  Fe177  1  0.49997904  0.16667518  0.49951105  1
  Fe  Fe178  1  0.74995047  0.33297537  0.37408990  1
  Fe  Fe179  1  0.49963222  0.83387335  -0.00056945  1
  Fe  Fe180  1  0.49926344  0.33312925  0.25004055  1
  Fe  Fe181  1  0.75044227  0.16581314  0.12514658  1
  Fe  Fe182  1  -0.00051572  0.66594186  -0.00056080  1
  Fe  Fe183  1  0.25023821  0.83391982  0.62483810  1
  Fe  Fe184  1  0.00031804  0.33451227  0.75068346  1
  Fe  Fe185  1  0.49920138  0.83398810  0.24947165  1
  Fe  Fe186  1  0.25034902  0.33349711  0.62481698  1
  Fe  Fe187  1  -0.00040789  0.50015728  0.24930778  1
  Fe  Fe188  1  0.49978376  0.33341447  0.00078705  1
  Fe  Fe189  1  0.24930617  0.83463478  0.87511063  1
  Fe  Fe190  1  0.50061342  0.66591398  0.75051687  1
  Fe  Fe191  1  0.75001675  0.16587248  0.87509905  1
  P  P192  1  0.04175817  0.25138575  0.10284522  1
  P  P193  1  0.04223282  0.24944773  0.35250801  1
  P  P194  1  0.04191070  0.25225716  0.60291306  1
  P  P195  1  0.04249729  0.25246006  0.85279034  1
  P  P196  1  0.04112747  0.58341900  0.10173055  1
  P  P197  1  0.04166353  0.58290636  0.35085467  1
  P  P198  1  0.04355335  0.58309923  0.60359912  1
  P  P199  1  0.04260061  0.58157670  0.85322827  1
  P  P200  1  0.04276170  0.91709504  0.10361929  1
  P  P201  1  0.04256269  0.91785794  0.35167638  1
  P  P202  1  0.04245622  0.91687435  0.60384959  1
  P  P203  1  0.04136520  0.91680348  0.85149015  1
  P  P204  1  0.54175057  0.25115839  0.10315748  1
  P  P205  1  0.54123507  0.24977060  0.35136199  1
  P  P206  1  0.54281477  0.24822672  0.60235722  1
  P  P207  1  0.54183181  0.25130188  0.85330972  1
  P  P208  1  0.54197188  0.58203140  0.10265439  1
  P  P209  1  0.54278680  0.58265571  0.35359381  1
  P  P210  1  0.54256237  0.58129720  0.60292857  1
  P  P211  1  0.54246956  0.58403136  0.85327913  1
  P  P212  1  0.54105104  0.91686258  0.10166875  1
  P  P213  1  0.54198868  0.91565993  0.35205103  1
  P  P214  1  0.54289555  0.91581550  0.60350648  1
  P  P215  1  0.54157697  0.91536810  0.85340072  1
  P  P216  1  0.45793406  0.08452427  0.14693540  1
  P  P217  1  0.45798928  0.08506322  0.39671468  1
  P  P218  1  0.45676323  0.08334181  0.64637046  1
  P  P219  1  0.45729701  0.08204278  0.89768144  1
  P  P220  1  0.45738729  0.41521002  0.14711766  1
  P  P221  1  0.45769144  0.41705741  0.39778753  1
  P  P222  1  0.45823376  0.41484466  0.64764951  1
  P  P223  1  0.45824757  0.41632633  0.89873295  1
  P  P224  1  0.45764126  0.75176563  0.14709018  1
  P  P225  1  0.45678067  0.74974133  0.39666187  1
  P  P226  1  0.45886490  0.74898272  0.64908950  1
  P  P227  1  0.45776479  0.75118336  0.89710519  1
  P  P228  1  0.95876768  0.08396352  0.14839078  1
  P  P229  1  0.95776849  0.08368901  0.39560061  1
  P  P230  1  0.95746227  0.08289209  0.64766880  1
  P  P231  1  0.95762123  0.08349892  0.89606039  1
  P  P232  1  0.95784102  0.41826049  0.14671305  1
  P  P233  1  0.95819522  0.41570034  0.39715714  1
  P  P234  1  0.95875673  0.41677562  0.64844940  1
  P  P235  1  0.95872377  0.41672524  0.89819268  1
  P  P236  1  0.95739223  0.74809805  0.14696474  1
  P  P237  1  0.95778000  0.74925276  0.39576830  1
  P  P238  1  0.95791874  0.75103406  0.64774740  1
  P  P239  1  0.95785696  0.74885164  0.89737460  1
  P  P240  1  0.20886157  0.08329780  0.22691036  1
  P  P241  1  0.20766660  0.08525980  0.47784573  1
  P  P242  1  0.20741070  0.08521477  0.72761275  1
  P  P243  1  0.20741152  0.08566605  0.97799386  1
  P  P244  1  0.20741508  0.41511836  0.22768974  1
  P  P245  1  0.20817720  0.41813468  0.47815980  1
  P  P246  1  0.20966935  0.41682512  0.72646502  1
  P  P247  1  0.20784479  0.41658557  0.97889920  1
  P  P248  1  0.20753940  0.74846353  0.22749509  1
  P  P249  1  0.20776634  0.75171844  0.47755715  1
  P  P250  1  0.20807049  0.75207346  0.72739711  1
  P  P251  1  0.20751634  0.75185992  0.97727615  1
  P  P252  1  0.70833975  0.08322219  0.22716855  1
  P  P253  1  0.70817801  0.08270373  0.47568132  1
  P  P254  1  0.70698354  0.08308678  0.72861148  1
  P  P255  1  0.70861030  0.08318109  0.97749898  1
  P  P256  1  0.70818571  0.41708814  0.22832348  1
  P  P257  1  0.70869494  0.41600049  0.47606092  1
  P  P258  1  0.70736938  0.41587944  0.72819933  1
  P  P259  1  0.70744359  0.41616109  0.97915893  1
  P  P260  1  0.70682004  0.75045203  0.22911181  1
  P  P261  1  0.70793918  0.75169502  0.47769038  1
  P  P262  1  0.70821126  0.75164295  0.72741391  1
  P  P263  1  0.70680697  0.75009934  0.97880079  1
  P  P264  1  0.29143384  0.24998454  0.02380037  1
  P  P265  1  0.29158719  0.24842225  0.27222265  1
  P  P266  1  0.29121642  0.24989604  0.52336560  1
  P  P267  1  0.29230623  0.24871971  0.77217345  1
  P  P268  1  0.29235472  0.58546588  0.02253809  1
  P  P269  1  0.29200265  0.58173238  0.27232161  1
  P  P270  1  0.29248942  0.58224004  0.52222503  1
  P  P271  1  0.29314190  0.58330768  0.77115607  1
  P  P272  1  0.29148289  0.91868451  0.02225402  1
  P  P273  1  0.29205439  0.91568444  0.27215711  1
  P  P274  1  0.29243378  0.91577667  0.52216691  1
  P  P275  1  0.29181121  0.91603458  0.77223705  1
  P  P276  1  0.79237243  0.24762384  0.02262273  1
  P  P277  1  0.79105984  0.24933266  0.27276146  1
  P  P278  1  0.79253375  0.24949255  0.52018123  1
  P  P279  1  0.79249725  0.24828783  0.77289683  1
  P  P280  1  0.79196618  0.58189390  0.02320206  1
  P  P281  1  0.79209724  0.58153221  0.27244312  1
  P  P282  1  0.79329804  0.58285870  0.52104200  1
  P  P283  1  0.79343056  0.58372514  0.77178218  1
  P  P284  1  0.79232451  0.91879246  0.02286065  1
  P  P285  1  0.79097438  0.91714592  0.27299870  1
  P  P286  1  0.79234748  0.91558477  0.52147109  1
  P  P287  1  0.79207304  0.91799580  0.77268435  1
  O  O288  1  0.03649984  0.25039820  0.18275584  1
  O  O289  1  0.03713092  0.24990052  0.43241518  1
  O  O290  1  0.03672760  0.25239686  0.68285310  1
  O  O291  1  0.03724711  0.25250107  0.93274073  1
  O  O292  1  0.03584396  0.58365116  0.18161856  1
  O  O293  1  0.03708105  0.58284665  0.43086435  1
  O  O294  1  0.03853386  0.58274518  0.68352064  1
  O  O295  1  0.03690417  0.58173590  0.93307393  1
  O  O296  1  0.03755202  0.91758319  0.18352957  1
  O  O297  1  0.03765036  0.91771718  0.43166849  1
  O  O298  1  0.03690838  0.91666056  0.68376167  1
  O  O299  1  0.03673230  0.91654746  0.93154482  1
  O  O300  1  0.53613187  0.25074904  0.18300301  1
  O  O301  1  0.53648619  0.24910317  0.43133885  1
  O  O302  1  0.53781372  0.24876219  0.68226649  1
  O  O303  1  0.53631248  0.25149103  0.93322076  1
  O  O304  1  0.53683907  0.58228108  0.18258796  1
  O  O305  1  0.53767829  0.58205111  0.43352657  1
  O  O306  1  0.53747216  0.58175230  0.68288751  1
  O  O307  1  0.53692299  0.58369190  0.93315737  1
  O  O308  1  0.53596848  0.91657480  0.18164898  1
  O  O309  1  0.53715776  0.91609264  0.43199276  1
  O  O310  1  0.53772058  0.91536679  0.68347409  1
  O  O311  1  0.53595446  0.91582094  0.93329237  1
  O  O312  1  0.46295713  0.08373067  0.06701476  1
  O  O313  1  0.46333519  0.08529340  0.31674618  1
  O  O314  1  0.46202490  0.08391043  0.56640293  1
  O  O315  1  0.46234343  0.08214386  0.81773945  1
  O  O316  1  0.46269710  0.41555532  0.06724835  1
  O  O317  1  0.46243110  0.41643724  0.31785061  1
  O  O318  1  0.46333958  0.41541867  0.56774002  1
  O  O319  1  0.46356048  0.41578966  0.81877082  1
  O  O320  1  0.46312451  0.75191430  0.06716743  1
  O  O321  1  0.46170785  0.75029468  0.31671087  1
  O  O322  1  0.46362235  0.74871969  0.56909831  1
  O  O323  1  0.46331854  0.75078794  0.81726923  1
  O  O324  1  0.96353369  0.08399390  0.06836207  1
  O  O325  1  0.96333709  0.08363321  0.31570020  1
  O  O326  1  0.96248273  0.08324231  0.56767525  1
  O  O327  1  0.96299392  0.08297801  0.81618552  1
  O  O328  1  0.96327222  0.41802284  0.06686820  1
  O  O329  1  0.96303596  0.41645657  0.31724212  1
  O  O330  1  0.96376060  0.41640880  0.56847814  1
  O  O331  1  0.96402196  0.41663948  0.81829099  1
  O  O332  1  0.96251560  0.74799906  0.06700093  1
  O  O333  1  0.96292326  0.74851733  0.31582310  1
  O  O334  1  0.96300840  0.75093633  0.56775286  1
  O  O335  1  0.96328451  0.74974614  0.81745755  1
  O  O336  1  0.21284546  0.08518431  0.05785761  1
  O  O337  1  0.21354337  0.08301592  0.30685913  1
  O  O338  1  0.21287441  0.08525564  0.55777107  1
  O  O339  1  0.21255528  0.08514747  0.80756978  1
  O  O340  1  0.21286736  0.41600287  0.05882230  1
  O  O341  1  0.21268176  0.41559125  0.30762996  1
  O  O342  1  0.21367484  0.41814209  0.55799580  1
  O  O343  1  0.21439518  0.41639694  0.80644028  1
  O  O344  1  0.21258051  0.75104028  0.05720027  1
  O  O345  1  0.21261157  0.74861523  0.30739592  1
  O  O346  1  0.21334012  0.75189440  0.55747726  1
  O  O347  1  0.21309454  0.75236731  0.80734213  1
  O  O348  1  0.71408003  0.08316874  0.05738158  1
  O  O349  1  0.71341696  0.08298850  0.30702427  1
  O  O350  1  0.71264834  0.08280532  0.55565227  1
  O  O351  1  0.71205759  0.08313991  0.80852262  1
  O  O352  1  0.71278098  0.41653921  0.05910289  1
  O  O353  1  0.71380413  0.41688943  0.30818720  1
  O  O354  1  0.71363466  0.41582722  0.55606645  1
  O  O355  1  0.71216930  0.41571930  0.80820387  1
  O  O356  1  0.71159648  0.74989459  0.05878319  1
  O  O357  1  0.71222395  0.75091667  0.30902392  1
  O  O358  1  0.71348730  0.75198260  0.55761797  1
  O  O359  1  0.71321821  0.75115151  0.80740194  1
  O  O360  1  0.28614932  0.24888310  0.19239863  1
  O  O361  1  0.28646228  0.24999623  0.44342476  1
  O  O362  1  0.28703029  0.24904011  0.69233850  1
  O  O363  1  0.28647294  0.24990848  0.94383246  1
  O  O364  1  0.28682443  0.58252851  0.19239650  1
  O  O365  1  0.28701343  0.58212713  0.44229559  1
  O  O366  1  0.28785796  0.58273956  0.69121972  1
  O  O367  1  0.28753023  0.58541456  0.94256324  1
  O  O368  1  0.28669150  0.91648313  0.19227811  1
  O  O369  1  0.28711744  0.91557994  0.44223475  1
  O  O370  1  0.28685287  0.91596884  0.69224863  1
  O  O371  1  0.28643580  0.91866182  0.94234612  1
  O  O372  1  0.78635993  0.24872174  0.19278706  1
  O  O373  1  0.78700380  0.24993069  0.44030036  1
  O  O374  1  0.78768280  0.24882249  0.69288684  1
  O  O375  1  0.78714750  0.24759388  0.94269915  1
  O  O376  1  0.78643076  0.58125397  0.19255769  1
  O  O377  1  0.78782006  0.58229372  0.44111573  1
  O  O378  1  0.78865798  0.58392870  0.69176760  1
  O  O379  1  0.78702389  0.58236428  0.94322677  1
  O  O380  1  0.78608525  0.91798670  0.19304302  1
  O  O381  1  0.78685895  0.91563612  0.44160518  1
  O  O382  1  0.78695895  0.91703788  0.69274332  1
  O  O383  1  0.78721806  0.91897662  0.94290850  1
  O  O384  1  0.22726612  0.24968720  0.05987100  1
  O  O385  1  0.22749405  0.24824949  0.30848526  1
  O  O386  1  0.22705787  0.24999140  0.55929719  1
  O  O387  1  0.22803319  0.24862285  0.80816246  1
  O  O388  1  0.22790472  0.58514493  0.05778564  1
  O  O389  1  0.22774508  0.58147576  0.30812642  1
  O  O390  1  0.22830291  0.58248928  0.55807456  1
  O  O391  1  0.22882633  0.58370900  0.80659101  1
  O  O392  1  0.22727108  0.91833278  0.05796891  1
  O  O393  1  0.22787792  0.91556052  0.30820475  1
  O  O394  1  0.22819033  0.91609682  0.55796224  1
  O  O395  1  0.22744748  0.91622358  0.80778794  1
  O  O396  1  0.72810804  0.24752662  0.05836623  1
  O  O397  1  0.72692399  0.25018295  0.30865235  1
  O  O398  1  0.72827533  0.24949821  0.55596454  1
  O  O399  1  0.72804332  0.24760152  0.80818895  1
  O  O400  1  0.72762178  0.58141323  0.05867800  1
  O  O401  1  0.72798908  0.58154923  0.30851509  1
  O  O402  1  0.72902942  0.58344750  0.55656139  1
  O  O403  1  0.72885744  0.58347641  0.80654357  1
  O  O404  1  0.72791859  0.91894314  0.05828792  1
  O  O405  1  0.72680946  0.91673396  0.30890259  1
  O  O406  1  0.72815847  0.91488439  0.55768964  1
  O  O407  1  0.72781567  0.91868583  0.80850285  1
  O  O408  1  0.27297051  0.08401619  0.19093025  1
  O  O409  1  0.27196084  0.08492880  0.44210349  1
  O  O410  1  0.27170460  0.08524992  0.69190948  1
  O  O411  1  0.27157532  0.08561142  0.94184625  1
  O  O412  1  0.27164811  0.41500395  0.19190668  1
  O  O413  1  0.27226723  0.41800379  0.44186458  1
  O  O414  1  0.27381291  0.41692571  0.69069009  1
  O  O415  1  0.27219955  0.41655610  0.94360909  1
  O  O416  1  0.27181793  0.74864729  0.19175600  1
  O  O417  1  0.27195281  0.75123206  0.44159246  1
  O  O418  1  0.27240418  0.75166084  0.69183317  1
  O  O419  1  0.27186273  0.75275854  0.94163739  1
  O  O420  1  0.77254388  0.08318642  0.19097267  1
  O  O421  1  0.77243048  0.08260584  0.44020561  1
  O  O422  1  0.77129422  0.08278678  0.69303707  1
  O  O423  1  0.77257257  0.08329448  0.94077154  1
  O  O424  1  0.77225798  0.41710051  0.19200616  1
  O  O425  1  0.77292371  0.41556140  0.44028536  1
  O  O426  1  0.77194450  0.41602152  0.69344583  1
  O  O427  1  0.77174164  0.41572776  0.94371143  1
  O  O428  1  0.77109187  0.75019616  0.19362640  1
  O  O429  1  0.77208514  0.75149417  0.44169142  1
  O  O430  1  0.77258111  0.75231083  0.69183507  1
  O  O431  1  0.77136125  0.75053668  0.94405759  1
  O  O432  1  0.02304716  0.08420301  0.18401410  1
  O  O433  1  0.02187983  0.08419357  0.43158183  1
  O  O434  1  0.02179249  0.08287989  0.68310640  1
  O  O435  1  0.02187772  0.08400946  0.93158507  1
  O  O436  1  0.02197731  0.41845003  0.18282993  1
  O  O437  1  0.02257290  0.41508203  0.43268453  1
  O  O438  1  0.02303609  0.41719083  0.68437704  1
  O  O439  1  0.02273080  0.41686059  0.93470740  1
  O  O440  1  0.02174484  0.74858755  0.18237574  1
  O  O441  1  0.02213179  0.74977484  0.43111135  1
  O  O442  1  0.02222176  0.75118276  0.68328527  1
  O  O443  1  0.02209840  0.74827831  0.93323259  1
  O  O444  1  0.52220540  0.08471726  0.18261533  1
  O  O445  1  0.52225261  0.08514305  0.43256292  1
  O  O446  1  0.52106601  0.08301159  0.68175444  1
  O  O447  1  0.52162744  0.08199154  0.93315593  1
  O  O448  1  0.52155226  0.41462106  0.18319500  1
  O  O449  1  0.52211159  0.41717771  0.43313961  1
  O  O450  1  0.52250635  0.41468677  0.68341934  1
  O  O451  1  0.52233258  0.41664364  0.93498450  1
  O  O452  1  0.52180141  0.75204436  0.18313347  1
  O  O453  1  0.52122995  0.74920705  0.43172376  1
  O  O454  1  0.52307505  0.74895214  0.68493543  1
  O  O455  1  0.52184112  0.75132548  0.93335954  1
  O  O456  1  0.47764523  0.25110380  0.06695283  1
  O  O457  1  0.47701151  0.24991884  0.31549202  1
  O  O458  1  0.47837724  0.24790857  0.56686300  1
  O  O459  1  0.47768378  0.25137261  0.81721618  1
  O  O460  1  0.47768698  0.58198178  0.06708507  1
  O  O461  1  0.47841275  0.58310524  0.31837539  1
  O  O462  1  0.47819719  0.58067290  0.56732824  1
  O  O463  1  0.47832932  0.58410829  0.81722254  1
  O  O464  1  0.47689053  0.91702108  0.06565107  1
  O  O465  1  0.47759095  0.91575979  0.31668296  1
  O  O466  1  0.47850714  0.91653461  0.56829843  1
  O  O467  1  0.47754385  0.91459092  0.81702564  1
  O  O468  1  0.97757497  0.25206597  0.06693921  1
  O  O469  1  0.97794663  0.24915715  0.31682393  1
  O  O470  1  0.97766302  0.25232503  0.56706235  1
  O  O471  1  0.97821383  0.25225562  0.81711811  1
  O  O472  1  0.97712297  0.58310357  0.06520229  1
  O  O473  1  0.97734231  0.58269704  0.31527862  1
  O  O474  1  0.97915833  0.58292572  0.56839242  1
  O  O475  1  0.97857693  0.58122497  0.81680177  1
  O  O476  1  0.97839736  0.91648288  0.06837855  1
  O  O477  1  0.97818971  0.91801535  0.31635391  1
  O  O478  1  0.97825536  0.91674328  0.56802763  1
  O  O479  1  0.97711315  0.91690474  0.81590231  1
  O  O480  1  0.07270870  0.31513927  0.07494451  1
  O  O481  1  0.07349463  0.31293708  0.32438888  1
  O  O482  1  0.07286232  0.31555268  0.57395083  1
  O  O483  1  0.07349568  0.31582834  0.82407938  1
  O  O484  1  0.07182913  0.64712932  0.07293892  1
  O  O485  1  0.07232769  0.64669753  0.32253377  1
  O  O486  1  0.07425075  0.64693809  0.57540509  1
  O  O487  1  0.07376023  0.64530968  0.82533950  1
  O  O488  1  0.07379409  0.98042528  0.07487298  1
  O  O489  1  0.07340519  0.98147599  0.32330069  1
  O  O490  1  0.07362888  0.98050685  0.57569669  1
  O  O491  1  0.07221216  0.98061558  0.82346999  1
  O  O492  1  0.57273027  0.31466840  0.07466647  1
  O  O493  1  0.57171642  0.31394340  0.32362648  1
  O  O494  1  0.57389131  0.31174466  0.57390344  1
  O  O495  1  0.57288028  0.31462673  0.82458824  1
  O  O496  1  0.57319407  0.64574879  0.07511863  1
  O  O497  1  0.57393722  0.64628124  0.32557283  1
  O  O498  1  0.57349531  0.64499527  0.57483504  1
  O  O499  1  0.57314483  0.64771556  0.82468753  1
  O  O500  1  0.57167157  0.98096604  0.07375673  1
  O  O501  1  0.57303630  0.97935022  0.32401901  1
  O  O502  1  0.57415987  0.97931471  0.57526926  1
  O  O503  1  0.57250541  0.97912991  0.82532302  1
  O  O504  1  0.42665753  0.02116122  0.17536249  1
  O  O505  1  0.42713819  0.02101675  0.42421851  1
  O  O506  1  0.42558533  0.01964256  0.67419801  1
  O  O507  1  0.42650657  0.01853623  0.92627184  1
  O  O508  1  0.42629756  0.35186164  0.17598376  1
  O  O509  1  0.42641387  0.35355364  0.42599950  1
  O  O510  1  0.42778460  0.35092861  0.67600210  1
  O  O511  1  0.42714323  0.35289663  0.92728054  1
  O  O512  1  0.42688240  0.68766257  0.17454466  1
  O  O513  1  0.42563867  0.68617903  0.42488185  1
  O  O514  1  0.42816237  0.68515655  0.67727753  1
  O  O515  1  0.42642308  0.68766973  0.92534777  1
  O  O516  1  0.92823575  0.02001271  0.17653133  1
  O  O517  1  0.92673837  0.02009565  0.42397629  1
  O  O518  1  0.92680983  0.01918900  0.67602663  1
  O  O519  1  0.92647574  0.02023623  0.92480593  1
  O  O520  1  0.92661398  0.35466732  0.17485833  1
  O  O521  1  0.92746720  0.35198043  0.42550953  1
  O  O522  1  0.92784916  0.35318659  0.67695793  1
  O  O523  1  0.92781295  0.35305344  0.92675875  1
  O  O524  1  0.92672053  0.68464165  0.17585565  1
  O  O525  1  0.92667340  0.68606752  0.42476713  1
  O  O526  1  0.92691188  0.68722131  0.67536302  1
  O  O527  1  0.92702253  0.68498925  0.92524983  1
  O  O528  1  0.17886723  0.01915686  0.19819780  1
  O  O529  1  0.17649743  0.02151977  0.45015253  1
  O  O530  1  0.17658262  0.02136522  0.69977171  1
  O  O531  1  0.17597674  0.02231662  0.94962187  1
  O  O532  1  0.17671642  0.35136028  0.19954502  1
  O  O533  1  0.17686858  0.35450074  0.45033597  1
  O  O534  1  0.17910438  0.35298767  0.69800027  1
  O  O535  1  0.17646490  0.35349660  0.95023238  1
  O  O536  1  0.17717705  0.68468567  0.19873942  1
  O  O537  1  0.17636330  0.68792602  0.45030757  1
  O  O538  1  0.17691405  0.68823796  0.69990481  1
  O  O539  1  0.17673693  0.68831341  0.94874978  1
  O  O540  1  0.67732463  0.01973912  0.19849928  1
  O  O541  1  0.67720932  0.01903838  0.44769688  1
  O  O542  1  0.67562971  0.01980251  0.70005371  1
  O  O543  1  0.67766302  0.01954741  0.94915273  1
  O  O544  1  0.67689364  0.35346199  0.20049940  1
  O  O545  1  0.67741086  0.35258919  0.44784178  1
  O  O546  1  0.67649689  0.35237091  0.69980491  1
  O  O547  1  0.67629229  0.35242484  0.95154197  1
  O  O548  1  0.67566536  0.68670984  0.20157152  1
  O  O549  1  0.67675693  0.68771960  0.45061366  1
  O  O550  1  0.67759891  0.68781764  0.69926234  1
  O  O551  1  0.67608442  0.68656217  0.95032157  1
  O  O552  1  0.32184654  0.31394583  0.05204340  1
  O  O553  1  0.32278565  0.31192432  0.30053690  1
  O  O554  1  0.32169507  0.31391282  0.55170391  1
  O  O555  1  0.32342974  0.31229082  0.80051758  1
  O  O556  1  0.32271101  0.64920055  0.05114296  1
  O  O557  1  0.32339389  0.64503844  0.30054170  1
  O  O558  1  0.32368102  0.64606179  0.54969591  1
  O  O559  1  0.32418513  0.64705102  0.79884062  1
  O  O560  1  0.32171802  0.98253176  0.05110310  1
  O  O561  1  0.32352095  0.97896112  0.30041944  1
  O  O562  1  0.32353473  0.97964841  0.54962926  1
  O  O563  1  0.32284825  0.97988243  0.79980218  1
  O  O564  1  0.82326332  0.31148987  0.05037417  1
  O  O565  1  0.82253832  0.31288033  0.30036059  1
  O  O566  1  0.82390443  0.31265382  0.54903300  1
  O  O567  1  0.82313327  0.31207129  0.80112288  1
  O  O568  1  0.82275313  0.64568893  0.05114329  1
  O  O569  1  0.82316954  0.64543383  0.29973697  1
  O  O570  1  0.82461270  0.64652952  0.54855824  1
  O  O571  1  0.82420918  0.64729120  0.80019191  1
  O  O572  1  0.82351696  0.98189984  0.05175717  1
  O  O573  1  0.82181149  0.98065250  0.30173806  1
  O  O574  1  0.82296522  0.97957508  0.54947419  1
  O  O575  1  0.82296243  0.98163192  0.80072196  1
  O  O576  1  0.42731397  0.14823816  0.17508508  1
  O  O577  1  0.42694036  0.14822263  0.42551959  1
  O  O578  1  0.42565944  0.14646063  0.67520941  1
  O  O579  1  0.42632426  0.14579654  0.92519119  1
  O  O580  1  0.42639642  0.47883744  0.17520030  1
  O  O581  1  0.42734810  0.48070910  0.42645666  1
  O  O582  1  0.42693862  0.47805108  0.67603985  1
  O  O583  1  0.42759405  0.48040051  0.92630325  1
  O  O584  1  0.42651217  0.81501089  0.17560925  1
  O  O585  1  0.42593332  0.81305416  0.42548715  1
  O  O586  1  0.42821039  0.81288133  0.67680314  1
  O  O587  1  0.42677277  0.81457637  0.92569755  1
  O  O588  1  0.92787138  0.14762690  0.17635967  1
  O  O589  1  0.92617925  0.14680223  0.42394952  1
  O  O590  1  0.92638868  0.14657475  0.67523937  1
  O  O591  1  0.92657551  0.14717184  0.92382384  1
  O  O592  1  0.92697843  0.48159053  0.17551938  1
  O  O593  1  0.92737019  0.47913275  0.42569755  1
  O  O594  1  0.92805779  0.48050035  0.67664412  1
  O  O595  1  0.92755050  0.48020157  0.92636701  1
  O  O596  1  0.92609064  0.81173997  0.17456939  1
  O  O597  1  0.92678730  0.81306576  0.42327084  1
  O  O598  1  0.92716120  0.81446931  0.67634808  1
  O  O599  1  0.92672209  0.81220058  0.92578638  1
  O  O600  1  0.07274130  0.18798117  0.07442340  1
  O  O601  1  0.07293728  0.18591853  0.32386885  1
  O  O602  1  0.07272181  0.18836994  0.57533843  1
  O  O603  1  0.07347177  0.18874805  0.82498965  1
  O  O604  1  0.07244490  0.51995577  0.07374257  1
  O  O605  1  0.07232547  0.51916880  0.32265414  1
  O  O606  1  0.07484834  0.52001785  0.57493524  1
  O  O607  1  0.07377104  0.51831556  0.82458578  1
  O  O608  1  0.07390875  0.85347288  0.07587717  1
  O  O609  1  0.07351223  0.85417879  0.32401977  1
  O  O610  1  0.07381784  0.85379556  0.57499702  1
  O  O611  1  0.07184581  0.85291640  0.82335504  1
  O  O612  1  0.57309113  0.18775029  0.07497279  1
  O  O613  1  0.57226366  0.18652658  0.32251582  1
  O  O614  1  0.57343357  0.18472926  0.57361786  1
  O  O615  1  0.57268637  0.18732907  0.82600761  1
  O  O616  1  0.57253577  0.51837889  0.07437388  1
  O  O617  1  0.57383700  0.51942983  0.32491587  1
  O  O618  1  0.57328984  0.51772359  0.57444685  1
  O  O619  1  0.57388452  0.52065004  0.82543624  1
  O  O620  1  0.57213684  0.85352122  0.07329430  1
  O  O621  1  0.57240938  0.85207091  0.32357395  1
  O  O622  1  0.57370463  0.85237685  0.57507430  1
  O  O623  1  0.57295230  0.85210406  0.82504320  1
  O  O624  1  0.32267277  0.18657634  0.05198021  1
  O  O625  1  0.32247463  0.18495626  0.30087388  1
  O  O626  1  0.32230550  0.18650844  0.55166388  1
  O  O627  1  0.32309989  0.18535521  0.80119285  1
  O  O628  1  0.32351650  0.52188182  0.05032976  1
  O  O629  1  0.32252317  0.51784665  0.30049432  1
  O  O630  1  0.32340294  0.51892974  0.55094710  1
  O  O631  1  0.32429642  0.52013403  0.80001617  1
  O  O632  1  0.32310162  0.85544954  0.05017500  1
  O  O633  1  0.32245067  0.85171856  0.30018813  1
  O  O634  1  0.32327663  0.85245920  0.55111497  1
  O  O635  1  0.32249690  0.85275804  0.80136599  1
  O  O636  1  0.82346182  0.18444090  0.05142200  1
  O  O637  1  0.82119870  0.18543076  0.30155264  1
  O  O638  1  0.82355335  0.18588004  0.54833814  1
  O  O639  1  0.82342353  0.18486682  0.80122782  1
  O  O640  1  0.82280957  0.51827726  0.05135227  1
  O  O641  1  0.82321065  0.51825873  0.30105305  1
  O  O642  1  0.82431612  0.51949175  0.54957422  1
  O  O643  1  0.82434049  0.52015229  0.79992889  1
  O  O644  1  0.82303801  0.85482172  0.05062793  1
  O  O645  1  0.82189506  0.85324475  0.30056644  1
  O  O646  1  0.82371887  0.85258637  0.55050191  1
  O  O647  1  0.82304239  0.85457581  0.80127972  1
  O  O648  1  0.17722283  0.14647283  0.19880705  1
  O  O649  1  0.17705670  0.14869287  0.44891129  1
  O  O650  1  0.17640876  0.14851561  0.69901296  1
  O  O651  1  0.17672687  0.14924372  0.94932898  1
  O  O652  1  0.17619314  0.47853217  0.19952577  1
  O  O653  1  0.17730476  0.48144849  0.44905178  1
  O  O654  1  0.17867322  0.48049147  0.69867443  1
  O  O655  1  0.17718567  0.48045014  0.95093906  1
  O  O656  1  0.17614283  0.81186066  0.19957751  1
  O  O657  1  0.17712777  0.81509449  0.44853958  1
  O  O658  1  0.17733716  0.81539457  0.69842018  1
  O  O659  1  0.17659343  0.81554728  0.94919983  1
  O  O660  1  0.67759765  0.14692964  0.19874256  1
  O  O661  1  0.67775731  0.14649267  0.44698981  1
  O  O662  1  0.67607424  0.14649707  0.69974826  1
  O  O663  1  0.67751423  0.14674144  0.94918022  1
  O  O664  1  0.67720148  0.48048123  0.19963160  1
  O  O665  1  0.67832401  0.48010556  0.44832098  1
  O  O666  1  0.67647339  0.47945025  0.69999510  1
  O  O667  1  0.67633155  0.47938926  0.95056859  1
  O  O668  1  0.67566819  0.81365960  0.20041007  1
  O  O669  1  0.67690578  0.81484185  0.44869184  1
  O  O670  1  0.67725417  0.81517295  0.69938975  1
  O  O671  1  0.67578692  0.81367214  0.95080543  1
