# generated using pymatgen
data_Na2MnFe(PO4)2
_symmetry_space_group_name_H-M   'P 1'
_cell_length_a   22.34282212
_cell_length_b   20.09329842
_cell_length_c   19.44918472
_cell_angle_alpha   90.09640008
_cell_angle_beta   90.01108100
_cell_angle_gamma   90.00313609
_symmetry_Int_Tables_number   1
_chemical_formula_structural   Na2MnFe(PO4)2
_chemical_formula_sum   'Na96 Mn48 Fe48 P96 O384'
_cell_volume   8731.52375124
_cell_formula_units_Z   48
loop_
 _symmetry_equiv_pos_site_id
 _symmetry_equiv_pos_as_xyz
  1  'x, y, z'
loop_
 _atom_site_type_symbol
 _atom_site_label
 _atom_site_symmetry_multiplicity
 _atom_site_fract_x
 _atom_site_fract_y
 _atom_site_fract_z
 _atom_site_occupancy
  Na  Na0  1  0.14032675  0.25055030  0.24363156  1
  Na  Na1  1  0.14100403  0.25041215  0.49272484  1
  Na  Na2  1  0.14058861  0.25048965  0.74280008  1
  Na  Na3  1  0.14034116  0.25038262  0.99378349  1
  Na  Na4  1  0.14055805  0.58328889  0.24432504  1
  Na  Na5  1  0.14077708  0.58326818  0.49257095  1
  Na  Na6  1  0.14073914  0.58337600  0.74294570  1
  Na  Na7  1  0.14113341  0.58347001  0.99223151  1
  Na  Na8  1  0.14036105  0.91871024  0.24419888  1
  Na  Na9  1  0.14024871  0.91738062  0.49339578  1
  Na  Na10  1  0.14018199  0.91677523  0.74187644  1
  Na  Na11  1  0.14033124  0.91589832  0.99262281  1
  Na  Na12  1  0.63996857  0.24975085  0.24454679  1
  Na  Na13  1  0.64040177  0.25099772  0.49420026  1
  Na  Na14  1  0.64020371  0.24931509  0.74375358  1
  Na  Na15  1  0.63976461  0.24839488  0.99369195  1
  Na  Na16  1  0.63982498  0.58224552  0.24539832  1
  Na  Na17  1  0.63986100  0.58223559  0.49295602  1
  Na  Na18  1  0.63984757  0.58240836  0.74288627  1
  Na  Na19  1  0.64037284  0.58254908  0.99429263  1
  Na  Na20  1  0.64049625  0.91492328  0.24499038  1
  Na  Na21  1  0.63987811  0.91579596  0.49497789  1
  Na  Na22  1  0.63977671  0.91658494  0.74443228  1
  Na  Na23  1  0.64009977  0.91566521  0.99420478  1
  Na  Na24  1  0.35932055  0.08513279  0.00673954  1
  Na  Na25  1  0.35917093  0.08518929  0.25693370  1
  Na  Na26  1  0.35900753  0.08369941  0.50642030  1
  Na  Na27  1  0.35913948  0.08345150  0.75675608  1
  Na  Na28  1  0.35892154  0.41627423  0.00548301  1
  Na  Na29  1  0.35904277  0.41665871  0.25776126  1
  Na  Na30  1  0.35979019  0.41697876  0.50640621  1
  Na  Na31  1  0.35962927  0.41790619  0.75563970  1
  Na  Na32  1  0.35972673  0.75009616  0.00498772  1
  Na  Na33  1  0.35933612  0.75000982  0.25791628  1
  Na  Na34  1  0.35981433  0.74942971  0.50831402  1
  Na  Na35  1  0.35960673  0.74982277  0.75729670  1
  Na  Na36  1  0.86008801  0.08282035  0.00522044  1
  Na  Na37  1  0.85995992  0.08336733  0.25675473  1
  Na  Na38  1  0.86039920  0.08414616  0.50736911  1
  Na  Na39  1  0.86027720  0.08376306  0.75614413  1
  Na  Na40  1  0.85960283  0.41637945  0.00502123  1
  Na  Na41  1  0.85952865  0.41716646  0.25674733  1
  Na  Na42  1  0.85990033  0.41697080  0.50486103  1
  Na  Na43  1  0.86009460  0.41643729  0.75514798  1
  Na  Na44  1  0.86011556  0.74984401  0.00588329  1
  Na  Na45  1  0.86018373  0.74831961  0.25651562  1
  Na  Na46  1  0.86040630  0.75044145  0.50655436  1
  Na  Na47  1  0.85993455  0.75130863  0.75574775  1
  Na  Na48  1  0.10970629  0.08265378  0.11898954  1
  Na  Na49  1  0.11011032  0.08467211  0.36871834  1
  Na  Na50  1  0.10990011  0.08283113  0.61768032  1
  Na  Na51  1  0.10919608  0.08307201  0.86796715  1
  Na  Na52  1  0.10982954  0.41488697  0.11834827  1
  Na  Na53  1  0.11039557  0.41737302  0.36730434  1
  Na  Na54  1  0.11056706  0.41777412  0.61753553  1
  Na  Na55  1  0.11045711  0.41617682  0.86700806  1
  Na  Na56  1  0.11007205  0.74946647  0.11882070  1
  Na  Na57  1  0.10998137  0.75116287  0.36924152  1
  Na  Na58  1  0.10958604  0.75231758  0.61823461  1
  Na  Na59  1  0.11016018  0.75119782  0.86714106  1
  Na  Na60  1  0.60896796  0.08273193  0.11925694  1
  Na  Na61  1  0.60933721  0.08289764  0.37020023  1
  Na  Na62  1  0.60908334  0.08323300  0.61972178  1
  Na  Na63  1  0.60907041  0.08226098  0.86872764  1
  Na  Na64  1  0.60920788  0.41559786  0.11992584  1
  Na  Na65  1  0.60969799  0.41580096  0.36885031  1
  Na  Na66  1  0.60951363  0.41732680  0.61782952  1
  Na  Na67  1  0.60936198  0.41588262  0.86768582  1
  Na  Na68  1  0.60944118  0.74904626  0.11999611  1
  Na  Na69  1  0.60931844  0.74812734  0.36969697  1
  Na  Na70  1  0.60886907  0.74887727  0.61884727  1
  Na  Na71  1  0.60891167  0.74942034  0.86898562  1
  Na  Na72  1  0.38942737  0.25020024  0.13229196  1
  Na  Na73  1  0.38974780  0.25054546  0.38181179  1
  Na  Na74  1  0.39007415  0.25223443  0.63110487  1
  Na  Na75  1  0.38969147  0.25046276  0.88140831  1
  Na  Na76  1  0.38979816  0.58305179  0.13128269  1
  Na  Na77  1  0.39013388  0.58242625  0.38374140  1
  Na  Na78  1  0.39038599  0.58356380  0.63196514  1
  Na  Na79  1  0.38995287  0.58400109  0.88060582  1
  Na  Na80  1  0.39033668  0.91701147  0.13105218  1
  Na  Na81  1  0.39011079  0.91620225  0.38295236  1
  Na  Na82  1  0.38973373  0.91582006  0.63283713  1
  Na  Na83  1  0.38991698  0.91650078  0.88106396  1
  Na  Na84  1  0.89032620  0.24838964  0.13103709  1
  Na  Na85  1  0.89059992  0.25036984  0.38172997  1
  Na  Na86  1  0.89094459  0.25032340  0.63141945  1
  Na  Na87  1  0.89057641  0.24978998  0.87996080  1
  Na  Na88  1  0.89063603  0.58274832  0.13176161  1
  Na  Na89  1  0.89037045  0.58497630  0.38129664  1
  Na  Na90  1  0.89105609  0.58486783  0.62981330  1
  Na  Na91  1  0.89103944  0.58346060  0.88061482  1
  Na  Na92  1  0.89114252  0.91514221  0.13066742  1
  Na  Na93  1  0.89139884  0.91750111  0.38206603  1
  Na  Na94  1  0.89089729  0.91845526  0.63167300  1
  Na  Na95  1  0.89082003  0.91782373  0.88026719  1
  Mn  Mn96  1  0.00056371  0.83343936  0.25042634  1
  Mn  Mn97  1  0.75042281  0.49878826  0.87436229  1
  Mn  Mn98  1  0.74952190  0.83361162  0.87557488  1
  Mn  Mn99  1  -0.00041586  0.33181469  -0.00164138  1
  Mn  Mn100  1  0.00053244  0.49910404  0.00037849  1
  Mn  Mn101  1  0.00047890  0.50030554  0.24963573  1
  Mn  Mn102  1  0.49923219  -0.00012452  0.00023221  1
  Mn  Mn103  1  0.25065229  0.00150428  0.12468473  1
  Mn  Mn104  1  0.24936025  0.16785510  0.87477230  1
  Mn  Mn105  1  0.75011994  0.66633114  0.62462721  1
  Mn  Mn106  1  0.24930501  -0.00034190  0.87537192  1
  Mn  Mn107  1  0.24973518  0.83368887  0.12534212  1
  Mn  Mn108  1  0.25041067  0.16734484  0.62471129  1
  Mn  Mn109  1  0.74987598  0.16616105  0.87438017  1
  Mn  Mn110  1  0.00019587  0.66773934  0.74965697  1
  Mn  Mn111  1  0.75028972  0.16710438  0.62555043  1
  Mn  Mn112  1  0.49917331  0.33250555  -0.00013970  1
  Mn  Mn113  1  0.49987666  0.50008499  -0.00024604  1
  Mn  Mn114  1  0.49933536  0.33277857  0.25028972  1
  Mn  Mn115  1  0.49849318  0.66534274  0.25060390  1
  Mn  Mn116  1  0.00036840  0.33360571  0.50002021  1
  Mn  Mn117  1  0.74952556  0.83409752  0.62559485  1
  Mn  Mn118  1  0.74949701  0.16758850  0.37642112  1
  Mn  Mn119  1  0.75068703  0.49888948  0.62397035  1
  Mn  Mn120  1  0.25032992  0.49920787  0.12455220  1
  Mn  Mn121  1  0.25033861  0.83392296  0.37541470  1
  Mn  Mn122  1  0.74918215  0.50016037  0.12546232  1
  Mn  Mn123  1  0.75054315  0.83176877  0.12496582  1
  Mn  Mn124  1  0.49998558  0.33350875  0.75004318  1
  Mn  Mn125  1  0.50016584  -0.00008997  0.25053747  1
  Mn  Mn126  1  0.75106945  0.83213676  0.37499643  1
  Mn  Mn127  1  0.49923121  0.16718792  0.50017931  1
  Mn  Mn128  1  0.00053933  -0.00046419  -0.00093340  1
  Mn  Mn129  1  -0.00017623  0.16606921  0.25012169  1
  Mn  Mn130  1  0.75007407  -0.00067522  0.12558263  1
  Mn  Mn131  1  0.00021552  0.50176526  0.49850758  1
  Mn  Mn132  1  0.75024941  -0.00008044  0.37538627  1
  Mn  Mn133  1  0.74982521  0.16619962  0.12476526  1
  Mn  Mn134  1  0.00097979  0.66690766  -0.00080887  1
  Mn  Mn135  1  0.49913859  0.00003120  0.75079032  1
  Mn  Mn136  1  0.50028273  0.66689198  0.00050134  1
  Mn  Mn137  1  0.49937989  0.83251164  0.25110224  1
  Mn  Mn138  1  0.00076956  0.33351269  0.74921749  1
  Mn  Mn139  1  0.74994380  0.66606725  0.87491813  1
  Mn  Mn140  1  0.24980222  0.66618331  0.62550888  1
  Mn  Mn141  1  0.25029370  0.66653208  0.12477146  1
  Mn  Mn142  1  0.49888757  -0.00073399  0.50052663  1
  Mn  Mn143  1  0.75016289  0.33317260  0.12506409  1
  Fe  Fe144  1  0.25039359  0.00069772  0.37505414  1
  Fe  Fe145  1  0.00007554  0.16586817  -0.00009760  1
  Fe  Fe146  1  0.24993240  0.49963240  0.37500509  1
  Fe  Fe147  1  0.00070376  0.66843052  0.50056925  1
  Fe  Fe148  1  0.49944701  0.16642329  0.00018354  1
  Fe  Fe149  1  0.24986556  0.33437302  0.62415918  1
  Fe  Fe150  1  0.75008937  0.66559889  0.12548451  1
  Fe  Fe151  1  0.25019367  0.33395888  0.87463725  1
  Fe  Fe152  1  0.25006938  0.16755921  0.37532278  1
  Fe  Fe153  1  0.74989881  0.33350466  0.62448057  1
  Fe  Fe154  1  0.74970030  0.66611813  0.37523422  1
  Fe  Fe155  1  0.25003277  0.00023962  0.62488635  1
  Fe  Fe156  1  0.74973412  0.33278013  0.87485975  1
  Fe  Fe157  1  0.00047581  0.50085351  0.74889252  1
  Fe  Fe158  1  0.49963367  0.49916623  0.25110431  1
  Fe  Fe159  1  0.25003854  0.83330561  0.62483229  1
  Fe  Fe160  1  0.75003801  -0.00022774  0.87526433  1
  Fe  Fe161  1  0.25025977  0.83345574  0.87422492  1
  Fe  Fe162  1  0.49976568  0.50038585  0.74906827  1
  Fe  Fe163  1  0.00050651  0.66725822  0.24998753  1
  Fe  Fe164  1  0.49969053  0.83238750  0.50144670  1
  Fe  Fe165  1  0.49939816  0.16701917  0.74995021  1
  Fe  Fe166  1  0.24971718  0.49971468  0.87446310  1
  Fe  Fe167  1  0.25025040  0.66648707  0.37597285  1
  Fe  Fe168  1  0.24932738  0.16790142  0.12568394  1
  Fe  Fe169  1  0.75056083  0.33350099  0.37479173  1
  Fe  Fe170  1  0.50001694  0.66646480  0.74977237  1
  Fe  Fe171  1  0.24969541  0.66682823  0.87415870  1
  Fe  Fe172  1  0.50015156  0.49984167  0.50037160  1
  Fe  Fe173  1  0.50057547  0.33352570  0.50020933  1
  Fe  Fe174  1  0.25016532  0.49982361  0.62449972  1
  Fe  Fe175  1  0.00083168  0.16690662  0.49966177  1
  Fe  Fe176  1  0.00045466  0.83323044  -0.00032723  1
  Fe  Fe177  1  0.74991107  0.00015597  0.62535440  1
  Fe  Fe178  1  -0.00007206  0.33266810  0.24944724  1
  Fe  Fe179  1  0.24951524  0.33342531  0.12538655  1
  Fe  Fe180  1  0.49970002  0.16661639  0.25047016  1
  Fe  Fe181  1  0.00071216  0.16648878  0.74944713  1
  Fe  Fe182  1  0.00012434  0.00010162  0.25029196  1
  Fe  Fe183  1  0.24982088  0.33366439  0.37490875  1
  Fe  Fe184  1  -0.00009117  0.83436876  0.74866786  1
  Fe  Fe185  1  0.00003869  0.83483026  0.49947575  1
  Fe  Fe186  1  0.74999194  0.49980383  0.37481648  1
  Fe  Fe187  1  0.49977946  0.83272716  0.75046181  1
  Fe  Fe188  1  0.00044011  0.00043685  0.74932375  1
  Fe  Fe189  1  0.49963516  0.66613168  0.50115077  1
  Fe  Fe190  1  0.49958091  0.83297743  0.00018681  1
  Fe  Fe191  1  0.00018905  0.00120959  0.50055026  1
  P  P192  1  0.04171500  0.24836961  0.10239228  1
  P  P193  1  0.04218983  0.25095201  0.35246423  1
  P  P194  1  0.04280583  0.24855537  0.60241648  1
  P  P195  1  0.04262004  0.24837051  0.85197538  1
  P  P196  1  0.04362184  0.58340039  0.10311581  1
  P  P197  1  0.04228862  0.58582236  0.35268408  1
  P  P198  1  0.04285183  0.58549099  0.60225952  1
  P  P199  1  0.04273715  0.58264463  0.85166398  1
  P  P200  1  0.04283845  0.91528377  0.10223666  1
  P  P201  1  0.04238983  0.91882952  0.35333462  1
  P  P202  1  0.04130266  0.91767864  0.60180199  1
  P  P203  1  0.04175933  0.91678852  0.85069921  1
  P  P204  1  0.54152813  0.24827868  0.10294952  1
  P  P205  1  0.54189763  0.24902644  0.35311633  1
  P  P206  1  0.54208444  0.25125342  0.60287321  1
  P  P207  1  0.54180468  0.24825633  0.85278289  1
  P  P208  1  0.54248961  0.58261642  0.10397108  1
  P  P209  1  0.54112705  0.58142267  0.35399097  1
  P  P210  1  0.54122178  0.58296996  0.60234551  1
  P  P211  1  0.54132793  0.58317544  0.85107877  1
  P  P212  1  0.54209761  0.91514837  0.10272979  1
  P  P213  1  0.54247470  0.91573949  0.35451055  1
  P  P214  1  0.54130791  0.91494605  0.60364627  1
  P  P215  1  0.54147118  0.91511440  0.85310382  1
  P  P216  1  0.45729999  0.08457466  0.14769326  1
  P  P217  1  0.45671068  0.08351091  0.39684387  1
  P  P218  1  0.45698334  0.08465508  0.64803325  1
  P  P219  1  0.45705022  0.08472049  0.89741983  1
  P  P220  1  0.45706272  0.41749424  0.14823425  1
  P  P221  1  0.45868757  0.41649324  0.39873239  1
  P  P222  1  0.45813980  0.41813861  0.64656798  1
  P  P223  1  0.45713524  0.41681944  0.89619283  1
  P  P224  1  0.45637225  0.74976128  0.14717949  1
  P  P225  1  0.45808915  0.74929681  0.39984173  1
  P  P226  1  0.45840988  0.74949172  0.64840794  1
  P  P227  1  0.45801325  0.75090477  0.89688944  1
  P  P228  1  0.95791247  0.08130699  0.14724482  1
  P  P229  1  0.95870706  0.08354277  0.39838376  1
  P  P230  1  0.95918910  0.08374339  0.64752242  1
  P  P231  1  0.95828575  0.08452895  0.89637940  1
  P  P232  1  0.95789509  0.41480849  0.14742966  1
  P  P233  1  0.95804044  0.41669482  0.39583919  1
  P  P234  1  0.95853363  0.41836915  0.64680212  1
  P  P235  1  0.95777795  0.41682303  0.89553068  1
  P  P236  1  0.95822260  0.74892777  0.14736199  1
  P  P237  1  0.95926248  0.75052166  0.39826703  1
  P  P238  1  0.95796628  0.75220320  0.64632180  1
  P  P239  1  0.95838755  0.75195113  0.89659154  1
  P  P240  1  0.20796462  0.08553547  0.22825150  1
  P  P241  1  0.20909856  0.08350760  0.47676192  1
  P  P242  1  0.20785770  0.08275081  0.72687916  1
  P  P243  1  0.20700279  0.08459723  0.97838781  1
  P  P244  1  0.20791023  0.41562348  0.22806469  1
  P  P245  1  0.20860591  0.41657132  0.47680560  1
  P  P246  1  0.20885995  0.41706355  0.72668106  1
  P  P247  1  0.20800113  0.41643107  0.97635558  1
  P  P248  1  0.20772221  0.74979265  0.22897469  1
  P  P249  1  0.20848393  0.74937204  0.47810912  1
  P  P250  1  0.20813795  0.75143090  0.72769408  1
  P  P251  1  0.20865076  0.75027507  0.97582678  1
  P  P252  1  0.70690565  0.08329424  0.22874989  1
  P  P253  1  0.70730021  0.08310713  0.47950475  1
  P  P254  1  0.70786060  0.08187366  0.72794210  1
  P  P255  1  0.70726768  0.08175874  0.97730825  1
  P  P256  1  0.70726797  0.41645714  0.22928454  1
  P  P257  1  0.70873065  0.41619813  0.47640317  1
  P  P258  1  0.70759452  0.41488612  0.72718502  1
  P  P259  1  0.70713113  0.41510993  0.97712426  1
  P  P260  1  0.70806057  0.74729625  0.22825117  1
  P  P261  1  0.70785349  0.74876806  0.47759069  1
  P  P262  1  0.70683548  0.75000443  0.72815881  1
  P  P263  1  0.70700921  0.74901397  0.97873747  1
  P  P264  1  0.29110900  0.25105659  0.02336587  1
  P  P265  1  0.29096698  0.25061133  0.27316632  1
  P  P266  1  0.29191538  0.25191454  0.52175895  1
  P  P267  1  0.29192411  0.25222078  0.77191704  1
  P  P268  1  0.29253139  0.58289282  0.02069670  1
  P  P269  1  0.29143607  0.58332442  0.27413569  1
  P  P270  1  0.29180951  0.58195207  0.52223359  1
  P  P271  1  0.29108381  0.58287898  0.77301417  1
  P  P272  1  0.29247754  0.91647009  0.02144334  1
  P  P273  1  0.29258304  0.91861576  0.27291622  1
  P  P274  1  0.29131951  0.91711950  0.52338701  1
  P  P275  1  0.29169239  0.91578820  0.77162227  1
  P  P276  1  0.79269895  0.24976395  0.02110647  1
  P  P277  1  0.79258434  0.25088970  0.27290939  1
  P  P278  1  0.79269280  0.25181103  0.52245054  1
  P  P279  1  0.79212201  0.25139714  0.77186027  1
  P  P280  1  0.79265556  0.58372602  0.02268093  1
  P  P281  1  0.79148410  0.58326952  0.27341071  1
  P  P282  1  0.79260437  0.58292633  0.52035065  1
  P  P283  1  0.79322760  0.58270047  0.77135435  1
  P  P284  1  0.79293708  0.91636368  0.02169518  1
  P  P285  1  0.79368879  0.91585736  0.27221516  1
  P  P286  1  0.79254256  0.91785849  0.52300634  1
  P  P287  1  0.79200296  0.91831544  0.77233103  1
  O  O288  1  0.03627262  0.24941264  0.18233762  1
  O  O289  1  0.03731969  0.25049833  0.43242794  1
  O  O290  1  0.03761699  0.24850177  0.68236113  1
  O  O291  1  0.03705206  0.24816662  0.93187424  1
  O  O292  1  0.03852162  0.58401767  0.18310564  1
  O  O293  1  0.03688645  0.58624909  0.43261529  1
  O  O294  1  0.03738745  0.58445687  0.68220729  1
  O  O295  1  0.03785421  0.58268695  0.93163555  1
  O  O296  1  0.03767898  0.91576496  0.18213477  1
  O  O297  1  0.03695343  0.91905034  0.43319204  1
  O  O298  1  0.03639085  0.91720579  0.68168128  1
  O  O299  1  0.03729207  0.91650037  0.93066887  1
  O  O300  1  0.53633845  0.24836608  0.18291607  1
  O  O301  1  0.53670590  0.25026881  0.43303359  1
  O  O302  1  0.53690265  0.25079897  0.68280029  1
  O  O303  1  0.53643090  0.24812005  0.93272760  1
  O  O304  1  0.53713653  0.58214856  0.18389928  1
  O  O305  1  0.53594404  0.58163240  0.43388793  1
  O  O306  1  0.53642602  0.58325028  0.68225368  1
  O  O307  1  0.53668317  0.58351638  0.93105677  1
  O  O308  1  0.53696684  0.91569222  0.18272456  1
  O  O309  1  0.53705092  0.91534167  0.43447864  1
  O  O310  1  0.53583397  0.91500993  0.68357750  1
  O  O311  1  0.53624150  0.91528612  0.93303877  1
  O  O312  1  0.46264036  0.08443881  0.06768705  1
  O  O313  1  0.46229965  0.08380579  0.31694814  1
  O  O314  1  0.46206453  0.08401867  0.56809162  1
  O  O315  1  0.46232464  0.08469532  0.81745858  1
  O  O316  1  0.46207382  0.41701782  0.06828443  1
  O  O317  1  0.46347895  0.41658903  0.31874622  1
  O  O318  1  0.46389448  0.41772533  0.56673632  1
  O  O319  1  0.46248767  0.41704711  0.81625579  1
  O  O320  1  0.46165664  0.75015993  0.06723701  1
  O  O321  1  0.46229297  0.74886951  0.31982695  1
  O  O322  1  0.46328335  0.74929880  0.56848063  1
  O  O323  1  0.46358332  0.75070289  0.81702069  1
  O  O324  1  0.96310468  0.08175238  0.06733441  1
  O  O325  1  0.96359906  0.08299515  0.31841857  1
  O  O326  1  0.96418680  0.08333801  0.56761017  1
  O  O327  1  0.96367273  0.08462644  0.81653131  1
  O  O328  1  0.96291418  0.41483030  0.06741457  1
  O  O329  1  0.96337650  0.41582577  0.31592568  1
  O  O330  1  0.96372630  0.41819037  0.56685083  1
  O  O331  1  0.96326286  0.41773391  0.81558763  1
  O  O332  1  0.96342075  0.74938843  0.06744784  1
  O  O333  1  0.96401600  0.75013921  0.31829236  1
  O  O334  1  0.96345608  0.75186705  0.56647193  1
  O  O335  1  0.96347156  0.75219036  0.81662769  1
  O  O336  1  0.21239659  0.08526313  0.05831448  1
  O  O337  1  0.21328415  0.08524074  0.30811545  1
  O  O338  1  0.21410946  0.08324273  0.55671448  1
  O  O339  1  0.21252454  0.08300454  0.80684519  1
  O  O340  1  0.21302091  0.41618087  0.05632232  1
  O  O341  1  0.21325206  0.41580545  0.30792064  1
  O  O342  1  0.21342716  0.41676182  0.55671067  1
  O  O343  1  0.21383605  0.41732408  0.80657500  1
  O  O344  1  0.21322120  0.74997297  0.05586859  1
  O  O345  1  0.21324987  0.74941264  0.30891258  1
  O  O346  1  0.21383505  0.74990257  0.55803665  1
  O  O347  1  0.21334400  0.75160397  0.80758531  1
  O  O348  1  0.71223969  0.08228403  0.05729598  1
  O  O349  1  0.71195067  0.08373644  0.30876161  1
  O  O350  1  0.71266927  0.08276621  0.55947432  1
  O  O351  1  0.71306690  0.08175989  0.80789380  1
  O  O352  1  0.71212862  0.41584066  0.05712660  1
  O  O353  1  0.71279134  0.41656744  0.30917227  1
  O  O354  1  0.71376781  0.41583049  0.55638321  1
  O  O355  1  0.71259481  0.41486642  0.80714851  1
  O  O356  1  0.71225743  0.74839668  0.05871016  1
  O  O357  1  0.71349441  0.74720331  0.30823359  1
  O  O358  1  0.71255748  0.74935608  0.55756633  1
  O  O359  1  0.71178105  0.75004252  0.80811955  1
  O  O360  1  0.28590732  0.25019510  0.19327778  1
  O  O361  1  0.28636654  0.25152843  0.44193049  1
  O  O362  1  0.28673387  0.25221076  0.69199619  1
  O  O363  1  0.28614371  0.25125295  0.94337314  1
  O  O364  1  0.28683433  0.58301918  0.19410682  1
  O  O365  1  0.28678283  0.58242901  0.44236803  1
  O  O366  1  0.28638215  0.58300393  0.69305435  1
  O  O367  1  0.28701022  0.58267689  0.94085138  1
  O  O368  1  0.28758088  0.91821145  0.19295418  1
  O  O369  1  0.28662462  0.91759426  0.44339852  1
  O  O370  1  0.28637944  0.91607746  0.69170695  1
  O  O371  1  0.28706707  0.91579098  0.94147705  1
  O  O372  1  0.78773267  0.25012481  0.19290965  1
  O  O373  1  0.78751492  0.25184536  0.44247719  1
  O  O374  1  0.78678988  0.25144093  0.69191186  1
  O  O375  1  0.78737176  0.24996425  0.94114474  1
  O  O376  1  0.78647913  0.58360233  0.19341374  1
  O  O377  1  0.78708036  0.58294215  0.44044115  1
  O  O378  1  0.78828672  0.58262584  0.69134033  1
  O  O379  1  0.78780218  0.58308248  0.94268345  1
  O  O380  1  0.78856957  0.91558271  0.19226404  1
  O  O381  1  0.78799163  0.91727445  0.44301006  1
  O  O382  1  0.78656599  0.91856188  0.69237455  1
  O  O383  1  0.78758572  0.91692021  0.94172253  1
  O  O384  1  0.22697632  0.25107426  0.05956478  1
  O  O385  1  0.22696996  0.25131708  0.30950923  1
  O  O386  1  0.22786822  0.25188383  0.55806721  1
  O  O387  1  0.22766338  0.25267376  0.80768597  1
  O  O388  1  0.22839675  0.58278155  0.05671105  1
  O  O389  1  0.22722464  0.58406396  0.30979569  1
  O  O390  1  0.22761804  0.58200046  0.55808153  1
  O  O391  1  0.22695981  0.58253527  0.80889323  1
  O  O392  1  0.22822227  0.91731557  0.05695781  1
  O  O393  1  0.22823136  0.91847496  0.30834175  1
  O  O394  1  0.22710030  0.91705894  0.55912636  1
  O  O395  1  0.22751349  0.91533436  0.80764565  1
  O  O396  1  0.72833317  0.24967522  0.05647038  1
  O  O397  1  0.72813710  0.25133913  0.30814196  1
  O  O398  1  0.72833687  0.25148722  0.55795174  1
  O  O399  1  0.72791285  0.25117185  0.80775231  1
  O  O400  1  0.72815007  0.58439110  0.05789591  1
  O  O401  1  0.72731693  0.58283234  0.30939453  1
  O  O402  1  0.72840234  0.58255613  0.55612171  1
  O  O403  1  0.72869270  0.58248026  0.80612533  1
  O  O404  1  0.72861220  0.91575236  0.05705784  1
  O  O405  1  0.72919106  0.91566235  0.30710027  1
  O  O406  1  0.72798849  0.91823688  0.55791358  1
  O  O407  1  0.72779315  0.91839915  0.80823362  1
  O  O408  1  0.27209924  0.08612780  0.19206945  1
  O  O409  1  0.27313126  0.08340244  0.44066466  1
  O  O410  1  0.27224044  0.08270351  0.69160467  1
  O  O411  1  0.27124403  0.08403458  0.94285836  1
  O  O412  1  0.27206412  0.41497355  0.19194468  1
  O  O413  1  0.27270989  0.41599219  0.44069983  1
  O  O414  1  0.27292336  0.41642952  0.69038583  1
  O  O415  1  0.27219853  0.41663610  0.94028297  1
  O  O416  1  0.27197340  0.75015725  0.19337395  1
  O  O417  1  0.27264892  0.74918186  0.44220754  1
  O  O418  1  0.27230686  0.75124194  0.69174236  1
  O  O419  1  0.27286047  0.75044075  0.94018119  1
  O  O420  1  0.77143231  0.08318038  0.19387933  1
  O  O421  1  0.77164185  0.08366639  0.44418877  1
  O  O422  1  0.77213500  0.08209845  0.69224910  1
  O  O423  1  0.77169817  0.08170705  0.94199184  1
  O  O424  1  0.77146748  0.41685431  0.19347537  1
  O  O425  1  0.77284920  0.41668234  0.44035161  1
  O  O426  1  0.77202331  0.41467676  0.69174081  1
  O  O427  1  0.77161503  0.41454871  0.94186660  1
  O  O428  1  0.77228227  0.74721208  0.19234208  1
  O  O429  1  0.77235624  0.74816475  0.44260588  1
  O  O430  1  0.77134078  0.75020833  0.69331688  1
  O  O431  1  0.77140678  0.74954090  0.94350537  1
  O  O432  1  0.02216485  0.08153055  0.18309962  1
  O  O433  1  0.02294756  0.08352623  0.43431466  1
  O  O434  1  0.02326944  0.08403542  0.68373806  1
  O  O435  1  0.02238018  0.08456319  0.93270675  1
  O  O436  1  0.02225568  0.41511117  0.18286326  1
  O  O437  1  0.02229448  0.41710086  0.43138787  1
  O  O438  1  0.02284117  0.41829687  0.68230329  1
  O  O439  1  0.02205111  0.41607187  0.93105687  1
  O  O440  1  0.02251895  0.74884855  0.18312304  1
  O  O441  1  0.02338609  0.75047872  0.43423372  1
  O  O442  1  0.02208758  0.75231251  0.68254300  1
  O  O443  1  0.02272158  0.75181360  0.93226609  1
  O  O444  1  0.52156244  0.08495772  0.18357368  1
  O  O445  1  0.52091399  0.08311948  0.43248268  1
  O  O446  1  0.52129670  0.08462217  0.68356781  1
  O  O447  1  0.52129299  0.08445398  0.93324209  1
  O  O448  1  0.52141226  0.41754227  0.18375669  1
  O  O449  1  0.52291745  0.41670601  0.43457593  1
  O  O450  1  0.52215826  0.41833476  0.68300141  1
  O  O451  1  0.52140150  0.41608445  0.93169053  1
  O  O452  1  0.52070143  0.74892585  0.18258451  1
  O  O453  1  0.52244043  0.74998987  0.43512675  1
  O  O454  1  0.52250785  0.74967268  0.68447231  1
  O  O455  1  0.52202552  0.75146135  0.93345096  1
  O  O456  1  0.47719654  0.24826167  0.06726815  1
  O  O457  1  0.47760973  0.24829495  0.31731467  1
  O  O458  1  0.47780806  0.25200313  0.56723284  1
  O  O459  1  0.47755075  0.24876638  0.81694992  1
  O  O460  1  0.47817717  0.58319517  0.06851781  1
  O  O461  1  0.47693242  0.58082506  0.31791811  1
  O  O462  1  0.47710145  0.58232034  0.56634040  1
  O  O463  1  0.47708785  0.58272924  0.81534272  1
  O  O464  1  0.47778940  0.91488136  0.06704587  1
  O  O465  1  0.47812199  0.91636249  0.31919654  1
  O  O466  1  0.47707751  0.91448841  0.56773941  1
  O  O467  1  0.47725674  0.91528735  0.81727763  1
  O  O468  1  0.97755586  0.24787035  0.06635217  1
  O  O469  1  0.97789953  0.25094839  0.31686685  1
  O  O470  1  0.97850964  0.24851776  0.56678316  1
  O  O471  1  0.97849495  0.24874261  0.81586317  1
  O  O472  1  0.97919187  0.58346968  0.06796728  1
  O  O473  1  0.97817144  0.58534636  0.31657587  1
  O  O474  1  0.97861039  0.58604023  0.56644019  1
  O  O475  1  0.97837688  0.58274717  0.81625556  1
  O  O476  1  0.97860200  0.91517527  0.06629159  1
  O  O477  1  0.97832057  0.91841785  0.31700279  1
  O  O478  1  0.97725905  0.91834465  0.56559939  1
  O  O479  1  0.97752306  0.91674378  0.81493588  1
  O  O480  1  0.07299495  0.31161281  0.07397839  1
  O  O481  1  0.07270688  0.31454360  0.32381123  1
  O  O482  1  0.07376317  0.31242170  0.57495498  1
  O  O483  1  0.07387987  0.31208197  0.82450490  1
  O  O484  1  0.07506434  0.64630808  0.07416492  1
  O  O485  1  0.07308547  0.64913954  0.32401074  1
  O  O486  1  0.07367128  0.64930780  0.57466808  1
  O  O487  1  0.07375811  0.64638532  0.82418214  1
  O  O488  1  0.07416123  0.97858912  0.07406748  1
  O  O489  1  0.07297263  0.98225688  0.32422127  1
  O  O490  1  0.07289143  0.98099704  0.57390897  1
  O  O491  1  0.07198239  0.98094564  0.82253426  1
  O  O492  1  0.57236562  0.31218332  0.07526012  1
  O  O493  1  0.57275924  0.31244612  0.32452063  1
  O  O494  1  0.57306267  0.31469255  0.57441117  1
  O  O495  1  0.57317253  0.31184128  0.82528644  1
  O  O496  1  0.57366613  0.64607938  0.07591627  1
  O  O497  1  0.57186013  0.64522998  0.32598272  1
  O  O498  1  0.57142235  0.64691111  0.57350662  1
  O  O499  1  0.57165811  0.64708652  0.82277272  1
  O  O500  1  0.57297777  0.97885813  0.07484133  1
  O  O501  1  0.57382760  0.97910350  0.32650698  1
  O  O502  1  0.57197875  0.97893691  0.57610679  1
  O  O503  1  0.57244854  0.97893356  0.82541739  1
  O  O504  1  0.42664885  0.02054456  0.17522659  1
  O  O505  1  0.42549398  0.02005910  0.42485707  1
  O  O506  1  0.42579428  0.02120794  0.67602488  1
  O  O507  1  0.42590738  0.02100940  0.92504644  1
  O  O508  1  0.42606191  0.35387105  0.17617280  1
  O  O509  1  0.42836530  0.35243940  0.42678990  1
  O  O510  1  0.42679477  0.35475595  0.67461126  1
  O  O511  1  0.42578948  0.35342836  0.92425876  1
  O  O512  1  0.42495796  0.68638310  0.17519541  1
  O  O513  1  0.42804250  0.68527889  0.42840221  1
  O  O514  1  0.42774175  0.68570253  0.67692662  1
  O  O515  1  0.42718415  0.68704982  0.92468066  1
  O  O516  1  0.92764365  0.01753386  0.17577828  1
  O  O517  1  0.92739132  0.02048090  0.42704803  1
  O  O518  1  0.92869801  0.02006935  0.67650818  1
  O  O519  1  0.92719394  0.02083635  0.92414019  1
  O  O520  1  0.92729145  0.35121797  0.17579875  1
  O  O521  1  0.92673236  0.35374572  0.42479237  1
  O  O522  1  0.92742970  0.35466986  0.67430027  1
  O  O523  1  0.92648990  0.35310586  0.92277989  1
  O  O524  1  0.92767746  0.68524668  0.17585534  1
  O  O525  1  0.92796277  0.68741234  0.42685142  1
  O  O526  1  0.92671086  0.68874768  0.67448870  1
  O  O527  1  0.92741969  0.68805828  0.92402024  1
  O  O528  1  0.17717049  0.02177107  0.19989374  1
  O  O529  1  0.17787919  0.02015838  0.44823537  1
  O  O530  1  0.17728740  0.01910506  0.69829534  1
  O  O531  1  0.17570076  0.02095970  0.95061243  1
  O  O532  1  0.17663560  0.35243524  0.19918296  1
  O  O533  1  0.17703795  0.35338600  0.44832232  1
  O  O534  1  0.17732746  0.35382662  0.69816368  1
  O  O535  1  0.17723855  0.35278293  0.94787301  1
  O  O536  1  0.17666792  0.68653638  0.20016059  1
  O  O537  1  0.17782744  0.68561741  0.44987308  1
  O  O538  1  0.17681338  0.68773951  0.70001789  1
  O  O539  1  0.17826460  0.68635480  0.94719615  1
  O  O540  1  0.67597105  0.01954492  0.20095812  1
  O  O541  1  0.67617878  0.01982869  0.45087764  1
  O  O542  1  0.67689757  0.01858299  0.69906227  1
  O  O543  1  0.67668939  0.01800333  0.94908885  1
  O  O544  1  0.67625730  0.35292764  0.20083078  1
  O  O545  1  0.67799452  0.35249816  0.44803845  1
  O  O546  1  0.67652737  0.35170045  0.69823963  1
  O  O547  1  0.67630042  0.35152398  0.94888744  1
  O  O548  1  0.67694547  0.68403027  0.19962909  1
  O  O549  1  0.67695173  0.68521135  0.44922481  1
  O  O550  1  0.67603959  0.68641221  0.69983305  1
  O  O551  1  0.67593213  0.68572489  0.94995569  1
  O  O552  1  0.32214854  0.31457050  0.05174466  1
  O  O553  1  0.32259310  0.31392085  0.30136654  1
  O  O554  1  0.32277479  0.31540761  0.55039395  1
  O  O555  1  0.32325541  0.31527013  0.80078881  1
  O  O556  1  0.32361484  0.64642832  0.04911337  1
  O  O557  1  0.32282861  0.64665929  0.30238168  1
  O  O558  1  0.32321219  0.64521496  0.55087631  1
  O  O559  1  0.32114205  0.64716732  0.80135008  1
  O  O560  1  0.32386357  0.98012942  0.04900908  1
  O  O561  1  0.32302561  0.98237000  0.30131666  1
  O  O562  1  0.32230608  0.98054551  0.55218639  1
  O  O563  1  0.32265139  0.97946220  0.79996520  1
  O  O564  1  0.82397559  0.31304043  0.04957098  1
  O  O565  1  0.82328026  0.31466366  0.30097133  1
  O  O566  1  0.82345662  0.31525974  0.55115861  1
  O  O567  1  0.82302408  0.31468377  0.80065956  1
  O  O568  1  0.82359774  0.64716772  0.05109550  1
  O  O569  1  0.82229078  0.64684193  0.30204757  1
  O  O570  1  0.82363947  0.64640729  0.54887711  1
  O  O571  1  0.82414546  0.64630933  0.79946930  1
  O  O572  1  0.82400783  0.97973088  0.05022118  1
  O  O573  1  0.82448741  0.97948929  0.30039571  1
  O  O574  1  0.82322183  0.98144599  0.55157481  1
  O  O575  1  0.82311263  0.98157993  0.80101996  1
  O  O576  1  0.42613170  0.14779192  0.17639051  1
  O  O577  1  0.42550004  0.14685331  0.42519893  1
  O  O578  1  0.42648266  0.14860120  0.67591977  1
  O  O579  1  0.42616643  0.14811377  0.92614632  1
  O  O580  1  0.42639863  0.48103872  0.17684117  1
  O  O581  1  0.42737810  0.47976425  0.42711909  1
  O  O582  1  0.42714491  0.48164755  0.67509224  1
  O  O583  1  0.42624657  0.48031535  0.92453730  1
  O  O584  1  0.42557481  0.81321655  0.17592620  1
  O  O585  1  0.42683839  0.81275835  0.42796016  1
  O  O586  1  0.42719622  0.81291763  0.67684625  1
  O  O587  1  0.42675206  0.81415336  0.92553815  1
  O  O588  1  0.92640683  0.14462386  0.17545284  1
  O  O589  1  0.92846947  0.14776722  0.42641926  1
  O  O590  1  0.92787588  0.14724987  0.67560747  1
  O  O591  1  0.92735841  0.14782984  0.92549216  1
  O  O592  1  0.92676820  0.47856775  0.17505676  1
  O  O593  1  0.92703252  0.48060768  0.42322050  1
  O  O594  1  0.92786417  0.48206088  0.67505787  1
  O  O595  1  0.92669439  0.47993585  0.92468419  1
  O  O596  1  0.92693458  0.81225486  0.17577408  1
  O  O597  1  0.92897003  0.81479463  0.42628015  1
  O  O598  1  0.92703431  0.81572226  0.67486007  1
  O  O599  1  0.92766497  0.81528190  0.92571210  1
  O  O600  1  0.07236094  0.18445423  0.07454324  1
  O  O601  1  0.07338337  0.18741913  0.32441456  1
  O  O602  1  0.07370677  0.18527836  0.57337670  1
  O  O603  1  0.07353424  0.18505043  0.82325470  1
  O  O604  1  0.07429140  0.51939407  0.07535957  1
  O  O605  1  0.07351099  0.52194158  0.32542839  1
  O  O606  1  0.07395459  0.52212267  0.57363308  1
  O  O607  1  0.07328230  0.51908078  0.82283862  1
  O  O608  1  0.07328144  0.85148020  0.07362055  1
  O  O609  1  0.07386909  0.85524229  0.32566125  1
  O  O610  1  0.07159310  0.85385086  0.57266086  1
  O  O611  1  0.07288960  0.85359806  0.82179656  1
  O  O612  1  0.57255544  0.18503746  0.07411122  1
  O  O613  1  0.57282709  0.18531962  0.32527993  1
  O  O614  1  0.57297661  0.18754810  0.57486431  1
  O  O615  1  0.57241105  0.18478452  0.82380100  1
  O  O616  1  0.57355052  0.51928151  0.07526628  1
  O  O617  1  0.57228938  0.51815975  0.32517482  1
  O  O618  1  0.57286615  0.51981735  0.57391409  1
  O  O619  1  0.57238643  0.51959259  0.82299155  1
  O  O620  1  0.57287059  0.85149964  0.07464720  1
  O  O621  1  0.57342649  0.85225200  0.32599331  1
  O  O622  1  0.57260724  0.85172767  0.57505152  1
  O  O623  1  0.57249658  0.85185891  0.82432480  1
  O  O624  1  0.32157387  0.18720918  0.05162615  1
  O  O625  1  0.32127988  0.18686459  0.30220968  1
  O  O626  1  0.32328021  0.18845205  0.54977739  1
  O  O627  1  0.32233356  0.18812313  0.79968211  1
  O  O628  1  0.32383357  0.51967380  0.04938850  1
  O  O629  1  0.32139487  0.51913953  0.30240583  1
  O  O630  1  0.32236955  0.51832548  0.55094679  1
  O  O631  1  0.32256535  0.51971681  0.80111097  1
  O  O632  1  0.32338644  0.85319703  0.05012506  1
  O  O633  1  0.32380852  0.85515321  0.30091416  1
  O  O634  1  0.32185846  0.85310656  0.55124477  1
  O  O635  1  0.32288335  0.85251684  0.80018488  1
  O  O636  1  0.82356573  0.18607580  0.04913745  1
  O  O637  1  0.82350853  0.18743783  0.30133886  1
  O  O638  1  0.82381503  0.18820403  0.55031945  1
  O  O639  1  0.82317049  0.18750894  0.79916504  1
  O  O640  1  0.82317211  0.51990348  0.05083680  1
  O  O641  1  0.82246635  0.51952251  0.30114207  1
  O  O642  1  0.82413738  0.51966518  0.54847698  1
  O  O643  1  0.82425511  0.51928273  0.79954333  1
  O  O644  1  0.82417608  0.85282377  0.04947893  1
  O  O645  1  0.82479760  0.85241838  0.30037305  1
  O  O646  1  0.82321867  0.85411243  0.55102030  1
  O  O647  1  0.82287698  0.85438237  0.79973716  1
  O  O648  1  0.17672356  0.14877257  0.19960359  1
  O  O649  1  0.17871823  0.14762453  0.44883396  1
  O  O650  1  0.17695677  0.14638098  0.69897648  1
  O  O651  1  0.17603306  0.14782989  0.94965003  1
  O  O652  1  0.17715535  0.47937774  0.19997296  1
  O  O653  1  0.17835877  0.48050064  0.44800866  1
  O  O654  1  0.17864216  0.48094750  0.69778328  1
  O  O655  1  0.17718483  0.48008804  0.94813991  1
  O  O656  1  0.17656930  0.81350661  0.20137836  1
  O  O657  1  0.17715633  0.81280343  0.45026011  1
  O  O658  1  0.17725424  0.81463643  0.69842870  1
  O  O659  1  0.17764219  0.81384165  0.94792036  1
  O  O660  1  0.67601799  0.14665683  0.20020661  1
  O  O661  1  0.67609181  0.14677073  0.45189490  1
  O  O662  1  0.67683951  0.14572902  0.70052016  1
  O  O663  1  0.67617938  0.14518813  0.94911576  1
  O  O664  1  0.67579206  0.47964218  0.20087138  1
  O  O665  1  0.67768799  0.47989770  0.44865709  1
  O  O666  1  0.67697585  0.47876359  0.69915753  1
  O  O667  1  0.67642357  0.47882898  0.94898488  1
  O  O668  1  0.67717558  0.81124308  0.20081473  1
  O  O669  1  0.67718661  0.81247939  0.44951344  1
  O  O670  1  0.67581276  0.81349818  0.70014574  1
  O  O671  1  0.67589646  0.81259931  0.95089647  1
