# generated using pymatgen
data_Na2MnFe(PO4)2
_symmetry_space_group_name_H-M   'P 1'
_cell_length_a   22.34963338
_cell_length_b   20.10136726
_cell_length_c   19.44450162
_cell_angle_alpha   90.01712211
_cell_angle_beta   89.94306782
_cell_angle_gamma   90.01404728
_symmetry_Int_Tables_number   1
_chemical_formula_structural   Na2MnFe(PO4)2
_chemical_formula_sum   'Na96 Mn48 Fe48 P96 O384'
_cell_volume   8735.59661515
_cell_formula_units_Z   48
loop_
 _symmetry_equiv_pos_site_id
 _symmetry_equiv_pos_as_xyz
  1  'x, y, z'
loop_
 _atom_site_type_symbol
 _atom_site_label
 _atom_site_symmetry_multiplicity
 _atom_site_fract_x
 _atom_site_fract_y
 _atom_site_fract_z
 _atom_site_occupancy
  Na  Na0  1  0.14071279  0.25043662  0.24375788  1
  Na  Na1  1  0.14050726  0.25061589  0.49104731  1
  Na  Na2  1  0.14126766  0.25041224  0.74362020  1
  Na  Na3  1  0.14187764  0.25020543  0.99378190  1
  Na  Na4  1  0.14040937  0.58239332  0.24291679  1
  Na  Na5  1  0.14056982  0.58254664  0.49300310  1
  Na  Na6  1  0.14008399  0.58335733  0.74477798  1
  Na  Na7  1  0.14054120  0.58207800  0.99312812  1
  Na  Na8  1  0.14073173  0.91708143  0.24404094  1
  Na  Na9  1  0.14082042  0.91837583  0.49264421  1
  Na  Na10  1  0.14093736  0.91776325  0.74403599  1
  Na  Na11  1  0.14134275  0.91736307  0.99425401  1
  Na  Na12  1  0.64013257  0.24863207  0.24312626  1
  Na  Na13  1  0.64004960  0.25080394  0.49280527  1
  Na  Na14  1  0.64046750  0.24916605  0.74520168  1
  Na  Na15  1  0.64055062  0.24814708  0.99420583  1
  Na  Na16  1  0.64019869  0.58425941  0.24459057  1
  Na  Na17  1  0.63979723  0.58334742  0.49338265  1
  Na  Na18  1  0.64034378  0.58194006  0.74441498  1
  Na  Na19  1  0.64019317  0.58276799  0.99380986  1
  Na  Na20  1  0.64020241  0.91737980  0.24176365  1
  Na  Na21  1  0.64044220  0.91652198  0.49279770  1
  Na  Na22  1  0.64041320  0.91551248  0.74467233  1
  Na  Na23  1  0.64032989  0.91670673  0.99412854  1
  Na  Na24  1  0.36010316  0.08420426  0.00790779  1
  Na  Na25  1  0.35993792  0.08385590  0.25692832  1
  Na  Na26  1  0.35991268  0.08419780  0.50468675  1
  Na  Na27  1  0.35913101  0.08397818  0.75714002  1
  Na  Na28  1  0.35909679  0.41599762  0.00674972  1
  Na  Na29  1  0.35920707  0.41553015  0.25640041  1
  Na  Na30  1  0.35953807  0.41719539  0.50581048  1
  Na  Na31  1  0.35869047  0.41696670  0.75689457  1
  Na  Na32  1  0.35914960  0.74933301  0.00713144  1
  Na  Na33  1  0.35987313  0.75020922  0.25820007  1
  Na  Na34  1  0.35905690  0.75120452  0.50590266  1
  Na  Na35  1  0.35899323  0.75053228  0.75725725  1
  Na  Na36  1  0.85935109  0.08209666  0.00564837  1
  Na  Na37  1  0.85966361  0.08327683  0.25571357  1
  Na  Na38  1  0.86004990  0.08474578  0.50558207  1
  Na  Na39  1  0.85982166  0.08313089  0.75503581  1
  Na  Na40  1  0.85960853  0.41641880  0.00632888  1
  Na  Na41  1  0.85979939  0.41608754  0.25735951  1
  Na  Na42  1  0.85968606  0.41788572  0.50616991  1
  Na  Na43  1  0.85933793  0.41606011  0.75596525  1
  Na  Na44  1  0.85945345  0.74958527  0.00677153  1
  Na  Na45  1  0.85973049  0.74970467  0.25637884  1
  Na  Na46  1  0.85938513  0.74958503  0.50490913  1
  Na  Na47  1  0.85883787  0.74881541  0.75649783  1
  Na  Na48  1  0.11097265  0.08337228  0.11834911  1
  Na  Na49  1  0.11028950  0.08373766  0.36790326  1
  Na  Na50  1  0.11026743  0.08421200  0.61730186  1
  Na  Na51  1  0.11112583  0.08329648  0.86830846  1
  Na  Na52  1  0.11034072  0.41722265  0.11815206  1
  Na  Na53  1  0.11014191  0.41775097  0.36792073  1
  Na  Na54  1  0.11011494  0.41670591  0.61744002  1
  Na  Na55  1  0.11051412  0.41766467  0.86878271  1
  Na  Na56  1  0.10969834  0.74876119  0.11982550  1
  Na  Na57  1  0.10951980  0.75027040  0.36833357  1
  Na  Na58  1  0.10943792  0.75031897  0.61880196  1
  Na  Na59  1  0.10988148  0.74904482  0.86948717  1
  Na  Na60  1  0.61024855  0.08288077  0.11812004  1
  Na  Na61  1  0.60953604  0.08431163  0.36707549  1
  Na  Na62  1  0.60957563  0.08332708  0.61924855  1
  Na  Na63  1  0.61029272  0.08214772  0.86973981  1
  Na  Na64  1  0.60934784  0.41524181  0.11952686  1
  Na  Na65  1  0.60930714  0.41746618  0.36859526  1
  Na  Na66  1  0.60947655  0.41572483  0.61870687  1
  Na  Na67  1  0.60953461  0.41670171  0.86938948  1
  Na  Na68  1  0.60919656  0.74999788  0.11929359  1
  Na  Na69  1  0.60922909  0.75059307  0.36787727  1
  Na  Na70  1  0.60937572  0.74930873  0.61911715  1
  Na  Na71  1  0.60937982  0.74929902  0.86931325  1
  Na  Na72  1  0.39009825  0.24870434  0.13267117  1
  Na  Na73  1  0.38989913  0.25097548  0.38071362  1
  Na  Na74  1  0.38997964  0.24951011  0.63032292  1
  Na  Na75  1  0.38991361  0.24945172  0.88369439  1
  Na  Na76  1  0.39021881  0.58201269  0.13162760  1
  Na  Na77  1  0.39008905  0.58365212  0.38126867  1
  Na  Na78  1  0.38954907  0.58313181  0.63178281  1
  Na  Na79  1  0.38945649  0.58301525  0.88197303  1
  Na  Na80  1  0.39060776  0.91768543  0.13338382  1
  Na  Na81  1  0.38991771  0.91822833  0.38092319  1
  Na  Na82  1  0.38994302  0.91745695  0.63089361  1
  Na  Na83  1  0.39033761  0.91750236  0.88205441  1
  Na  Na84  1  0.89055637  0.24990112  0.13074861  1
  Na  Na85  1  0.89072219  0.25018942  0.38198005  1
  Na  Na86  1  0.89039674  0.25040738  0.62958945  1
  Na  Na87  1  0.89050277  0.24977727  0.88116478  1
  Na  Na88  1  0.89055898  0.58306851  0.13124576  1
  Na  Na89  1  0.89010337  0.58340994  0.38174586  1
  Na  Na90  1  0.88967878  0.58316286  0.63030160  1
  Na  Na91  1  0.88954696  0.58310996  0.88205731  1
  Na  Na92  1  0.89011491  0.91557900  0.13127340  1
  Na  Na93  1  0.89047044  0.91695109  0.37982451  1
  Na  Na94  1  0.89060398  0.91762312  0.63004943  1
  Na  Na95  1  0.89027617  0.91626627  0.88156333  1
  Mn  Mn96  1  0.49903346  0.83359631  0.00085498  1
  Mn  Mn97  1  0.74972825  0.33232359  0.12564951  1
  Mn  Mn98  1  0.25020856  0.33421286  0.62429274  1
  Mn  Mn99  1  0.00065123  -0.00048575  -0.00000699  1
  Mn  Mn100  1  0.74992139  0.50008473  0.12546421  1
  Mn  Mn101  1  0.25019826  0.66559589  0.12613014  1
  Mn  Mn102  1  0.49982973  0.83392903  0.49913940  1
  Mn  Mn103  1  -0.00004712  0.83323114  0.74978706  1
  Mn  Mn104  1  0.75012771  0.00089573  0.37365066  1
  Mn  Mn105  1  0.24973021  0.83500865  0.62622922  1
  Mn  Mn106  1  0.75026213  0.83217280  0.62449199  1
  Mn  Mn107  1  0.00028012  0.33377038  0.74916514  1
  Mn  Mn108  1  0.75005719  0.83282120  0.87498903  1
  Mn  Mn109  1  0.25003868  0.83385434  0.12557936  1
  Mn  Mn110  1  0.50012794  0.33266262  0.00072568  1
  Mn  Mn111  1  0.24971392  0.66613404  0.37552830  1
  Mn  Mn112  1  0.49981847  0.16604693  0.75091187  1
  Mn  Mn113  1  0.49935804  0.33279873  0.75041794  1
  Mn  Mn114  1  0.00078396  0.83198276  0.00063095  1
  Mn  Mn115  1  0.49921714  0.66598491  0.00010590  1
  Mn  Mn116  1  0.00119947  0.33422985  0.00008875  1
  Mn  Mn117  1  0.74991881  0.33335274  0.37475254  1
  Mn  Mn118  1  0.50079831  0.00115715  0.50001182  1
  Mn  Mn119  1  0.00044745  0.16727782  0.74871312  1
  Mn  Mn120  1  -0.00038493  0.50005795  0.74965582  1
  Mn  Mn121  1  0.49933127  -0.00074889  0.75003753  1
  Mn  Mn122  1  0.00017461  0.00028990  0.74944391  1
  Mn  Mn123  1  0.75004925  0.83315187  0.37444756  1
  Mn  Mn124  1  0.00007347  -0.00020999  0.24960267  1
  Mn  Mn125  1  0.74909454  0.16762740  0.62557024  1
  Mn  Mn126  1  -0.00016539  0.50015978  0.24978655  1
  Mn  Mn127  1  0.00024509  0.16751366  0.24989539  1
  Mn  Mn128  1  0.49973396  0.33332402  0.49978035  1
  Mn  Mn129  1  0.25034440  0.16675150  0.62444135  1
  Mn  Mn130  1  0.25010687  0.83411634  0.87584373  1
  Mn  Mn131  1  0.49848346  0.66675655  0.50001254  1
  Mn  Mn132  1  -0.00038483  0.66615047  0.74968359  1
  Mn  Mn133  1  -0.00063642  0.66641055  0.49931204  1
  Mn  Mn134  1  0.74986174  0.33233316  0.87570477  1
  Mn  Mn135  1  -0.00048520  0.83391625  0.49922598  1
  Mn  Mn136  1  0.74947990  0.00022640  0.62447840  1
  Mn  Mn137  1  0.49976359  0.49991861  0.24993871  1
  Mn  Mn138  1  0.49937459  0.49984948  0.75005596  1
  Mn  Mn139  1  0.00086422  0.16698220  -0.00019033  1
  Mn  Mn140  1  0.75073646  0.66676523  0.12489453  1
  Mn  Mn141  1  0.24926954  0.66657449  0.62529642  1
  Mn  Mn142  1  0.49988161  0.66703299  0.75043834  1
  Mn  Mn143  1  0.74962396  0.50001702  0.62539534  1
  Fe  Fe144  1  0.74976418  0.16676622  0.37444616  1
  Fe  Fe145  1  0.50005719  0.16728966  0.49927567  1
  Fe  Fe146  1  0.00025135  0.66604188  0.24982634  1
  Fe  Fe147  1  0.49981110  0.66636692  0.25003894  1
  Fe  Fe148  1  0.25011865  0.00110991  0.62437734  1
  Fe  Fe149  1  0.00071948  0.16729907  0.49906854  1
  Fe  Fe150  1  0.25071453  0.00107675  0.87543852  1
  Fe  Fe151  1  0.49972486  0.33303632  0.25011825  1
  Fe  Fe152  1  0.49966137  0.83378807  0.24975659  1
  Fe  Fe153  1  0.24977745  0.33365037  0.37373507  1
  Fe  Fe154  1  0.25028493  0.49913440  0.12425133  1
  Fe  Fe155  1  0.74963280  0.66603884  0.87531955  1
  Fe  Fe156  1  0.74934680  0.66681836  0.37502900  1
  Fe  Fe157  1  0.25013129  0.16679924  0.37417521  1
  Fe  Fe158  1  0.00056379  0.83275120  0.25007880  1
  Fe  Fe159  1  0.25044649  0.16690766  0.87547381  1
  Fe  Fe160  1  0.49999659  0.49938955  0.00097782  1
  Fe  Fe161  1  0.75027900  -0.00000837  0.12423806  1
  Fe  Fe162  1  0.75070866  0.16561095  0.87473580  1
  Fe  Fe163  1  0.49972918  0.83336028  0.75036837  1
  Fe  Fe164  1  0.25031393  0.33324374  0.87560105  1
  Fe  Fe165  1  0.75049512  -0.00078372  0.87518788  1
  Fe  Fe166  1  0.00007264  0.33395937  0.49945285  1
  Fe  Fe167  1  0.74979128  0.49905791  0.87488705  1
  Fe  Fe168  1  0.25028242  0.33322824  0.12483300  1
  Fe  Fe169  1  0.50035665  0.16586894  0.00157895  1
  Fe  Fe170  1  0.75086478  0.16572967  0.12427960  1
  Fe  Fe171  1  0.24996131  0.00079868  0.37464904  1
  Fe  Fe172  1  0.74943649  0.83308331  0.12461232  1
  Fe  Fe173  1  0.00050520  0.50003455  0.49917441  1
  Fe  Fe174  1  0.74977699  0.33341719  0.62519236  1
  Fe  Fe175  1  0.74955024  0.66587469  0.62514958  1
  Fe  Fe176  1  0.49951321  0.50022716  0.49961951  1
  Fe  Fe177  1  0.74958370  0.50029596  0.37594397  1
  Fe  Fe178  1  0.00060966  0.00027387  0.49927900  1
  Fe  Fe179  1  0.25002586  0.16692298  0.12512678  1
  Fe  Fe180  1  0.24976546  0.83410019  0.37559997  1
  Fe  Fe181  1  -0.00041382  0.50011826  0.00033871  1
  Fe  Fe182  1  -0.00022324  0.66624790  0.00033609  1
  Fe  Fe183  1  0.25006572  0.49972414  0.87504375  1
  Fe  Fe184  1  0.24983201  0.50050015  0.62538337  1
  Fe  Fe185  1  0.25046496  0.49943444  0.37421903  1
  Fe  Fe186  1  0.24963372  0.66627684  0.87557974  1
  Fe  Fe187  1  0.50020032  0.00083731  0.25025990  1
  Fe  Fe188  1  0.00033688  0.33394790  0.25021058  1
  Fe  Fe189  1  0.25061353  0.00070992  0.12561469  1
  Fe  Fe190  1  0.50043014  -0.00031486  0.00119577  1
  Fe  Fe191  1  0.50045483  0.16689954  0.24979120  1
  P  P192  1  0.04368944  0.25084052  0.10360677  1
  P  P193  1  0.04214894  0.25196372  0.35314483  1
  P  P194  1  0.04221824  0.25077987  0.60035047  1
  P  P195  1  0.04339237  0.25062185  0.85253852  1
  P  P196  1  0.04155785  0.58345877  0.10190368  1
  P  P197  1  0.04224234  0.58403912  0.35238340  1
  P  P198  1  0.04237821  0.58218344  0.60168757  1
  P  P199  1  0.04196439  0.58320591  0.85418149  1
  P  P200  1  0.04328536  0.91555333  0.10390133  1
  P  P201  1  0.04220752  0.91596145  0.35239377  1
  P  P202  1  0.04278616  0.91805326  0.60170285  1
  P  P203  1  0.04330106  0.91631106  0.85304523  1
  P  P204  1  0.54214690  0.24810885  0.10376119  1
  P  P205  1  0.54139447  0.25028876  0.35166243  1
  P  P206  1  0.54230961  0.24870244  0.60225635  1
  P  P207  1  0.54243415  0.24937418  0.85445164  1
  P  P208  1  0.54192765  0.58212033  0.10324174  1
  P  P209  1  0.54165627  0.58441997  0.35280268  1
  P  P210  1  0.54163474  0.58225298  0.60222751  1
  P  P211  1  0.54228594  0.58282517  0.85393980  1
  P  P212  1  0.54180354  0.91767978  0.10392622  1
  P  P213  1  0.54151328  0.91710916  0.35096701  1
  P  P214  1  0.54292257  0.91646318  0.60315113  1
  P  P215  1  0.54201085  0.91541816  0.85322366  1
  P  P216  1  0.45920881  0.08349794  0.14829342  1
  P  P217  1  0.45852174  0.08527824  0.39633962  1
  P  P218  1  0.45675203  0.08364360  0.64679609  1
  P  P219  1  0.45906413  0.08270384  0.89985855  1
  P  P220  1  0.45763224  0.41492591  0.14769160  1
  P  P221  1  0.45768868  0.41782272  0.39699968  1
  P  P222  1  0.45658589  0.41631753  0.64653552  1
  P  P223  1  0.45752019  0.41745616  0.89844382  1
  P  P224  1  0.45800208  0.74981782  0.14890625  1
  P  P225  1  0.45675079  0.75053396  0.39557697  1
  P  P226  1  0.45697420  0.75142834  0.64791047  1
  P  P227  1  0.45652469  0.75035567  0.89706351  1
  P  P228  1  0.95762941  0.08363205  0.14674252  1
  P  P229  1  0.95915313  0.08348734  0.39790890  1
  P  P230  1  0.95789699  0.08389830  0.64494610  1
  P  P231  1  0.95767550  0.08332282  0.89663645  1
  P  P232  1  0.95779671  0.41594206  0.14747593  1
  P  P233  1  0.95860565  0.41675624  0.39777309  1
  P  P234  1  0.95728635  0.41671670  0.64530498  1
  P  P235  1  0.95768047  0.41789255  0.89768310  1
  P  P236  1  0.95869032  0.74893427  0.14841482  1
  P  P237  1  0.95726292  0.75008306  0.39535567  1
  P  P238  1  0.95653514  0.74996711  0.64650395  1
  P  P239  1  0.95748548  0.74843493  0.89794285  1
  P  P240  1  0.20908097  0.08399768  0.22732464  1
  P  P241  1  0.20882209  0.08403677  0.47607455  1
  P  P242  1  0.20824691  0.08265014  0.72773761  1
  P  P243  1  0.20950530  0.08388690  0.97755216  1
  P  P244  1  0.20907559  0.41649460  0.22669922  1
  P  P245  1  0.20889430  0.41690770  0.47586422  1
  P  P246  1  0.20786370  0.41813265  0.72778436  1
  P  P247  1  0.20905011  0.41650655  0.97718426  1
  P  P248  1  0.20781878  0.75033707  0.22925016  1
  P  P249  1  0.20751234  0.75158820  0.47769424  1
  P  P250  1  0.20709454  0.75011087  0.72922268  1
  P  P251  1  0.20821128  0.74876875  0.97804074  1
  P  P252  1  0.70884317  0.08352353  0.22604749  1
  P  P253  1  0.70740008  0.08498738  0.47672527  1
  P  P254  1  0.70719461  0.08296318  0.72907578  1
  P  P255  1  0.70937435  0.08253165  0.97718290  1
  P  P256  1  0.70726782  0.41684243  0.22908082  1
  P  P257  1  0.70746641  0.41770179  0.47796707  1
  P  P258  1  0.70752633  0.41514539  0.72809691  1
  P  P259  1  0.70761216  0.41703741  0.97787429  1
  P  P260  1  0.70773448  0.75078158  0.22744682  1
  P  P261  1  0.70724650  0.74854901  0.47749388  1
  P  P262  1  0.70767078  0.74774079  0.72792155  1
  P  P263  1  0.70774964  0.74901004  0.97780971  1
  P  P264  1  0.29177032  0.24988331  0.02332589  1
  P  P265  1  0.29098913  0.24975791  0.27228671  1
  P  P266  1  0.29225604  0.25034238  0.52046314  1
  P  P267  1  0.29160146  0.25033077  0.77394271  1
  P  P268  1  0.29195222  0.58167785  0.02199300  1
  P  P269  1  0.29222198  0.58150881  0.27219451  1
  P  P270  1  0.29174631  0.58199923  0.52232247  1
  P  P271  1  0.29101705  0.58309572  0.77349889  1
  P  P272  1  0.29251572  0.91873559  0.02316047  1
  P  P273  1  0.29115706  0.91736398  0.27350926  1
  P  P274  1  0.29191320  0.91866748  0.52175064  1
  P  P275  1  0.29236746  0.91883494  0.77299170  1
  P  P276  1  0.79229955  0.24801831  0.02218191  1
  P  P277  1  0.79238391  0.24818741  0.27207827  1
  P  P278  1  0.79164526  0.25156170  0.52217922  1
  P  P279  1  0.79241054  0.24881990  0.77247978  1
  P  P280  1  0.79249680  0.58296132  0.02111966  1
  P  P281  1  0.79134599  0.58322782  0.27402114  1
  P  P282  1  0.79150909  0.58452077  0.52188481  1
  P  P283  1  0.79109441  0.58280706  0.77339652  1
  P  P284  1  0.79138253  0.91625335  0.02294722  1
  P  P285  1  0.79233223  0.91672438  0.27013278  1
  P  P286  1  0.79265887  0.91676232  0.52123946  1
  P  P287  1  0.79251816  0.91722306  0.77240694  1
  O  O288  1  0.03835122  0.25146335  0.18359006  1
  O  O289  1  0.03662751  0.25165608  0.43305223  1
  O  O290  1  0.03775347  0.25057824  0.68042065  1
  O  O291  1  0.03866622  0.25062593  0.93256547  1
  O  O292  1  0.03661077  0.58380223  0.18195625  1
  O  O293  1  0.03705258  0.58304933  0.43231125  1
  O  O294  1  0.03727896  0.58237923  0.68170851  1
  O  O295  1  0.03664883  0.58311954  0.93414403  1
  O  O296  1  0.03798639  0.91513623  0.18387054  1
  O  O297  1  0.03693579  0.91689120  0.43235669  1
  O  O298  1  0.03766803  0.91781072  0.68172053  1
  O  O299  1  0.03855352  0.91611228  0.93312094  1
  O  O300  1  0.53693402  0.24841160  0.18369116  1
  O  O301  1  0.53628381  0.24998996  0.43165191  1
  O  O302  1  0.53718488  0.24899840  0.68225673  1
  O  O303  1  0.53742476  0.24913324  0.93446506  1
  O  O304  1  0.53651445  0.58301682  0.18322880  1
  O  O305  1  0.53619792  0.58382157  0.43272743  1
  O  O306  1  0.53670737  0.58269781  0.68225748  1
  O  O307  1  0.53715830  0.58218193  0.93393430  1
  O  O308  1  0.53652813  0.91740749  0.18382166  1
  O  O309  1  0.53702443  0.91754694  0.43101189  1
  O  O310  1  0.53761931  0.91587066  0.68313303  1
  O  O311  1  0.53672911  0.91619949  0.93319044  1
  O  O312  1  0.46417668  0.08298188  0.06836993  1
  O  O313  1  0.46402702  0.08503563  0.31642460  1
  O  O314  1  0.46192642  0.08421295  0.56682338  1
  O  O315  1  0.46352302  0.08251873  0.81983826  1
  O  O316  1  0.46298629  0.41544773  0.06778670  1
  O  O317  1  0.46308687  0.41709319  0.31708699  1
  O  O318  1  0.46175621  0.41679974  0.56652160  1
  O  O319  1  0.46239552  0.41699744  0.81842216  1
  O  O320  1  0.46291416  0.74969876  0.06885484  1
  O  O321  1  0.46217082  0.75023292  0.31564006  1
  O  O322  1  0.46187120  0.75098899  0.56785196  1
  O  O323  1  0.46178366  0.75082202  0.81710148  1
  O  O324  1  0.96274360  0.08356519  0.06680879  1
  O  O325  1  0.96380683  0.08379594  0.31786332  1
  O  O326  1  0.96338093  0.08377560  0.56500098  1
  O  O327  1  0.96254304  0.08334158  0.81658051  1
  O  O328  1  0.96313943  0.41690035  0.06754549  1
  O  O329  1  0.96354381  0.41634528  0.31774691  1
  O  O330  1  0.96269125  0.41683937  0.56536074  1
  O  O331  1  0.96225594  0.41755873  0.81762798  1
  O  O332  1  0.96382852  0.74833382  0.06841688  1
  O  O333  1  0.96293543  0.74996489  0.31545425  1
  O  O334  1  0.96150945  0.75002607  0.56648545  1
  O  O335  1  0.96212282  0.74892833  0.81790845  1
  O  O336  1  0.21442763  0.08432281  0.05746438  1
  O  O337  1  0.21402821  0.08381524  0.30723406  1
  O  O338  1  0.21352041  0.08360610  0.55602139  1
  O  O339  1  0.21353467  0.08290145  0.80761201  1
  O  O340  1  0.21416298  0.41628946  0.05705668  1
  O  O341  1  0.21419215  0.41664966  0.30658964  1
  O  O342  1  0.21331454  0.41690470  0.55580954  1
  O  O343  1  0.21319235  0.41797013  0.80760084  1
  O  O344  1  0.21326263  0.74873398  0.05803352  1
  O  O345  1  0.21308221  0.75084417  0.30919579  1
  O  O346  1  0.21258447  0.75142204  0.55771786  1
  O  O347  1  0.21252441  0.74948134  0.80918098  1
  O  O348  1  0.71507506  0.08253112  0.05710375  1
  O  O349  1  0.71345697  0.08403794  0.30604483  1
  O  O350  1  0.71200564  0.08481922  0.55670448  1
  O  O351  1  0.71290504  0.08267504  0.80896627  1
  O  O352  1  0.71263232  0.41672692  0.05788003  1
  O  O353  1  0.71258541  0.41738236  0.30904390  1
  O  O354  1  0.71266265  0.41699929  0.55793046  1
  O  O355  1  0.71280263  0.41582335  0.80807266  1
  O  O356  1  0.71312482  0.74991200  0.05775739  1
  O  O357  1  0.71278208  0.75026815  0.30739509  1
  O  O358  1  0.71237209  0.74831888  0.55748557  1
  O  O359  1  0.71326097  0.74778468  0.80787759  1
  O  O360  1  0.28596578  0.24976344  0.19242231  1
  O  O361  1  0.28699533  0.25010561  0.44058902  1
  O  O362  1  0.28718330  0.25024740  0.69393043  1
  O  O363  1  0.28710354  0.25023142  0.94342086  1
  O  O364  1  0.28700244  0.58132078  0.19223549  1
  O  O365  1  0.28650552  0.58198894  0.44235021  1
  O  O366  1  0.28614910  0.58316954  0.69350332  1
  O  O367  1  0.28638839  0.58234913  0.94211158  1
  O  O368  1  0.28660400  0.91780460  0.19352579  1
  O  O369  1  0.28635941  0.91787548  0.44185372  1
  O  O370  1  0.28706406  0.91897836  0.69303523  1
  O  O371  1  0.28742105  0.91884971  0.94320686  1
  O  O372  1  0.78741537  0.24795160  0.19209541  1
  O  O373  1  0.78669815  0.25108282  0.44222245  1
  O  O374  1  0.78675160  0.25014786  0.69258059  1
  O  O375  1  0.78699446  0.24784785  0.94225489  1
  O  O376  1  0.78676789  0.58336262  0.19398124  1
  O  O377  1  0.78613338  0.58424204  0.44201293  1
  O  O378  1  0.78612500  0.58313241  0.69336160  1
  O  O379  1  0.78707937  0.58279732  0.94123612  1
  O  O380  1  0.78691669  0.91665824  0.19020593  1
  O  O381  1  0.78741728  0.91673505  0.44122903  1
  O  O382  1  0.78722185  0.91680503  0.69245588  1
  O  O383  1  0.78649548  0.91655852  0.94292416  1
  O  O384  1  0.22766284  0.24933651  0.05947447  1
  O  O385  1  0.22704859  0.24928444  0.30880993  1
  O  O386  1  0.22811442  0.25040900  0.55644782  1
  O  O387  1  0.22737541  0.25014828  0.80952138  1
  O  O388  1  0.22788229  0.58137303  0.05839236  1
  O  O389  1  0.22796396  0.58153787  0.30798531  1
  O  O390  1  0.22747582  0.58191414  0.55811846  1
  O  O391  1  0.22694237  0.58237841  0.80964599  1
  O  O392  1  0.22823730  0.91867802  0.05883536  1
  O  O393  1  0.22702839  0.91681074  0.30935962  1
  O  O394  1  0.22787805  0.91913410  0.55827408  1
  O  O395  1  0.22819859  0.91902901  0.80901538  1
  O  O396  1  0.72810996  0.24786424  0.05818875  1
  O  O397  1  0.72800007  0.24847052  0.30756590  1
  O  O398  1  0.72737137  0.25201055  0.55794545  1
  O  O399  1  0.72828871  0.24798168  0.80863523  1
  O  O400  1  0.72828388  0.58337400  0.05689205  1
  O  O401  1  0.72707031  0.58259581  0.30961644  1
  O  O402  1  0.72741335  0.58451631  0.55822036  1
  O  O403  1  0.72701599  0.58263601  0.80955212  1
  O  O404  1  0.72725539  0.91615513  0.05900010  1
  O  O405  1  0.72814205  0.91682792  0.30598582  1
  O  O406  1  0.72827963  0.91617307  0.55642462  1
  O  O407  1  0.72828289  0.91752168  0.80826496  1
  O  O408  1  0.27315863  0.08469997  0.19104053  1
  O  O409  1  0.27298245  0.08488063  0.44015300  1
  O  O410  1  0.27243204  0.08237350  0.69157062  1
  O  O411  1  0.27358130  0.08352259  0.94122301  1
  O  O412  1  0.27303305  0.41699620  0.19015635  1
  O  O413  1  0.27311434  0.41706164  0.44009339  1
  O  O414  1  0.27203404  0.41849775  0.69153947  1
  O  O415  1  0.27298474  0.41710774  0.94058652  1
  O  O416  1  0.27208027  0.74999217  0.19372459  1
  O  O417  1  0.27176622  0.75137893  0.44204529  1
  O  O418  1  0.27127662  0.75029208  0.69344731  1
  O  O419  1  0.27237691  0.74922119  0.94235886  1
  O  O420  1  0.77309111  0.08330266  0.19030823  1
  O  O421  1  0.77191823  0.08508578  0.44159744  1
  O  O422  1  0.77127472  0.08345988  0.69293013  1
  O  O423  1  0.77317988  0.08233500  0.94014318  1
  O  O424  1  0.77158573  0.41634699  0.19367845  1
  O  O425  1  0.77171258  0.41806779  0.44211320  1
  O  O426  1  0.77170797  0.41509228  0.69210834  1
  O  O427  1  0.77190092  0.41692247  0.94234853  1
  O  O428  1  0.77202580  0.75151347  0.19176004  1
  O  O429  1  0.77156338  0.74871083  0.44184700  1
  O  O430  1  0.77181520  0.74750347  0.69172607  1
  O  O431  1  0.77193496  0.74852665  0.94192355  1
  O  O432  1  0.02205229  0.08367225  0.18164926  1
  O  O433  1  0.02338913  0.08287261  0.43335407  1
  O  O434  1  0.02211675  0.08373310  0.68066532  1
  O  O435  1  0.02224763  0.08318362  0.93132778  1
  O  O436  1  0.02207647  0.41553128  0.18314931  1
  O  O437  1  0.02281449  0.41674317  0.43359720  1
  O  O438  1  0.02162005  0.41699091  0.68073937  1
  O  O439  1  0.02218041  0.41863631  0.93263409  1
  O  O440  1  0.02280157  0.74863931  0.18448434  1
  O  O441  1  0.02136699  0.75003636  0.43121939  1
  O  O442  1  0.02107848  0.74977866  0.68123854  1
  O  O443  1  0.02197802  0.74789154  0.93294965  1
  O  O444  1  0.52328954  0.08390034  0.18426042  1
  O  O445  1  0.52255765  0.08564289  0.43265848  1
  O  O446  1  0.52111079  0.08313003  0.68199862  1
  O  O447  1  0.52332897  0.08277904  0.93533848  1
  O  O448  1  0.52183327  0.41470758  0.18341566  1
  O  O449  1  0.52178600  0.41812750  0.43303934  1
  O  O450  1  0.52097989  0.41608141  0.68166853  1
  O  O451  1  0.52187760  0.41761203  0.93376542  1
  O  O452  1  0.52222399  0.75000891  0.18451620  1
  O  O453  1  0.52093444  0.74983194  0.43125129  1
  O  O454  1  0.52139348  0.75172646  0.68320914  1
  O  O455  1  0.52082617  0.75013094  0.93236510  1
  O  O456  1  0.47797246  0.24811285  0.06794882  1
  O  O457  1  0.47727761  0.25031420  0.31565072  1
  O  O458  1  0.47798699  0.24860127  0.56674826  1
  O  O459  1  0.47799574  0.24952495  0.81938405  1
  O  O460  1  0.47769646  0.58139242  0.06749814  1
  O  O461  1  0.47751200  0.58469074  0.31692536  1
  O  O462  1  0.47721044  0.58166470  0.56701190  1
  O  O463  1  0.47793435  0.58339543  0.81874638  1
  O  O464  1  0.47760729  0.91818374  0.06810611  1
  O  O465  1  0.47721585  0.91678264  0.31565245  1
  O  O466  1  0.47860071  0.91730121  0.56784757  1
  O  O467  1  0.47776818  0.91471331  0.81736895  1
  O  O468  1  0.97936899  0.25066392  0.06837729  1
  O  O469  1  0.97810060  0.25232466  0.31686104  1
  O  O470  1  0.97789982  0.25117899  0.56509017  1
  O  O471  1  0.97885962  0.25047339  0.81782326  1
  O  O472  1  0.97735630  0.58338152  0.06615699  1
  O  O473  1  0.97794504  0.58468568  0.31684677  1
  O  O474  1  0.97800063  0.58164106  0.56643125  1
  O  O475  1  0.97772871  0.58320141  0.81851153  1
  O  O476  1  0.97897072  0.91573448  0.06861841  1
  O  O477  1  0.97806142  0.91562749  0.31664577  1
  O  O478  1  0.97839239  0.91876635  0.56640469  1
  O  O479  1  0.97874331  0.91658324  0.81836654  1
  O  O480  1  0.07495321  0.31398207  0.07492577  1
  O  O481  1  0.07325175  0.31529232  0.32457002  1
  O  O482  1  0.07344097  0.31418377  0.57227173  1
  O  O483  1  0.07405998  0.31428657  0.82429975  1
  O  O484  1  0.07265439  0.64681671  0.07347431  1
  O  O485  1  0.07328479  0.64749676  0.32425040  1
  O  O486  1  0.07312278  0.64604737  0.57402261  1
  O  O487  1  0.07311890  0.64655215  0.82561640  1
  O  O488  1  0.07426299  0.97924831  0.07603340  1
  O  O489  1  0.07368332  0.97927062  0.32430385  1
  O  O490  1  0.07391704  0.98128982  0.57310034  1
  O  O491  1  0.07442819  0.97964440  0.82479722  1
  O  O492  1  0.57358933  0.31147794  0.07570586  1
  O  O493  1  0.57192646  0.31432067  0.32382395  1
  O  O494  1  0.57332526  0.31231338  0.57429889  1
  O  O495  1  0.57327646  0.31297206  0.82609246  1
  O  O496  1  0.57292333  0.64563322  0.07505373  1
  O  O497  1  0.57237532  0.64804794  0.32438950  1
  O  O498  1  0.57224233  0.64610106  0.57432605  1
  O  O499  1  0.57335151  0.64645618  0.82605319  1
  O  O500  1  0.57289820  0.98098071  0.07511857  1
  O  O501  1  0.57194324  0.98103224  0.32266488  1
  O  O502  1  0.57429436  0.97993443  0.57518257  1
  O  O503  1  0.57293286  0.97895808  0.82499280  1
  O  O504  1  0.42855551  0.01992029  0.17741972  1
  O  O505  1  0.42755575  0.02155957  0.42426083  1
  O  O506  1  0.42573050  0.02008490  0.67492734  1
  O  O507  1  0.42838635  0.01905344  0.92824336  1
  O  O508  1  0.42703989  0.35122846  0.17614516  1
  O  O509  1  0.42638676  0.35440150  0.42492726  1
  O  O510  1  0.42574143  0.35258187  0.67463424  1
  O  O511  1  0.42651098  0.35384100  0.92637290  1
  O  O512  1  0.42732455  0.68597752  0.17679623  1
  O  O513  1  0.42486652  0.68768423  0.42432174  1
  O  O514  1  0.42612755  0.68763629  0.67576194  1
  O  O515  1  0.42552759  0.68672887  0.92510542  1
  O  O516  1  0.92655931  0.02015416  0.17476949  1
  O  O517  1  0.92778063  0.02007379  0.42568930  1
  O  O518  1  0.92642865  0.02077923  0.67357161  1
  O  O519  1  0.92670802  0.01986310  0.92497245  1
  O  O520  1  0.92699874  0.35235797  0.17570695  1
  O  O521  1  0.92733250  0.35354161  0.42629445  1
  O  O522  1  0.92648682  0.35316758  0.67394973  1
  O  O523  1  0.92712503  0.35403099  0.92566938  1
  O  O524  1  0.92725678  0.68571252  0.17682943  1
  O  O525  1  0.92598123  0.68676298  0.42381330  1
  O  O526  1  0.92555798  0.68646114  0.67464073  1
  O  O527  1  0.92660260  0.68509978  0.92654250  1
  O  O528  1  0.17887473  0.01997381  0.19872125  1
  O  O529  1  0.17860319  0.02018322  0.44729543  1
  O  O530  1  0.17724719  0.01945422  0.69871073  1
  O  O531  1  0.17815599  0.02049422  0.94939172  1
  O  O532  1  0.17878049  0.35249649  0.19828676  1
  O  O533  1  0.17867315  0.35299790  0.44701471  1
  O  O534  1  0.17703588  0.35439709  0.69949757  1
  O  O535  1  0.17881840  0.35248606  0.94858852  1
  O  O536  1  0.17671355  0.68666865  0.20152479  1
  O  O537  1  0.17628696  0.68793018  0.45016781  1
  O  O538  1  0.17570403  0.68700827  0.70059274  1
  O  O539  1  0.17786867  0.68500948  0.94949020  1
  O  O540  1  0.67820656  0.01966877  0.19788449  1
  O  O541  1  0.67646974  0.02138425  0.44858543  1
  O  O542  1  0.67611358  0.01960790  0.70044566  1
  O  O543  1  0.67820440  0.01889834  0.94922480  1
  O  O544  1  0.67627086  0.35312016  0.20129037  1
  O  O545  1  0.67621951  0.35440908  0.44960205  1
  O  O546  1  0.67699700  0.35135662  0.69990332  1
  O  O547  1  0.67629316  0.35342063  0.95042020  1
  O  O548  1  0.67691190  0.68708578  0.19944125  1
  O  O549  1  0.67645839  0.68525154  0.44845960  1
  O  O550  1  0.67647905  0.68449384  0.69948782  1
  O  O551  1  0.67686926  0.68537062  0.94976799  1
  O  O552  1  0.32198439  0.31377678  0.05225277  1
  O  O553  1  0.32128971  0.31377230  0.30079386  1
  O  O554  1  0.32344405  0.31371056  0.54891701  1
  O  O555  1  0.32215469  0.31410452  0.80230564  1
  O  O556  1  0.32326704  0.64503003  0.05043196  1
  O  O557  1  0.32315272  0.64523515  0.29998318  1
  O  O558  1  0.32263733  0.64586583  0.55003382  1
  O  O559  1  0.32094063  0.64733006  0.80193852  1
  O  O560  1  0.32333069  0.98198738  0.05226309  1
  O  O561  1  0.32162127  0.98126890  0.30194683  1
  O  O562  1  0.32292185  0.98229814  0.54977074  1
  O  O563  1  0.32365244  0.98190335  0.80177749  1
  O  O564  1  0.82303563  0.31199196  0.04983785  1
  O  O565  1  0.82344411  0.31189123  0.29981352  1
  O  O566  1  0.82229299  0.31521087  0.55063670  1
  O  O567  1  0.82356663  0.31214863  0.80099381  1
  O  O568  1  0.82388558  0.64623953  0.04957338  1
  O  O569  1  0.82138388  0.64742648  0.30200383  1
  O  O570  1  0.82245583  0.64789842  0.55058132  1
  O  O571  1  0.82209835  0.64624653  0.80180643  1
  O  O572  1  0.82241809  0.97975423  0.05122771  1
  O  O573  1  0.82355123  0.98019727  0.29840201  1
  O  O574  1  0.82326036  0.98055002  0.54911162  1
  O  O575  1  0.82349257  0.98063182  0.80066698  1
  O  O576  1  0.42788620  0.14689080  0.17649196  1
  O  O577  1  0.42748251  0.14865192  0.42490814  1
  O  O578  1  0.42570316  0.14686015  0.67569145  1
  O  O579  1  0.42838110  0.14649422  0.92802343  1
  O  O580  1  0.42633422  0.47829528  0.17570150  1
  O  O581  1  0.42710460  0.48157511  0.42521883  1
  O  O582  1  0.42537258  0.47945114  0.67524481  1
  O  O583  1  0.42699734  0.48106741  0.92689322  1
  O  O584  1  0.42717677  0.81362823  0.17672599  1
  O  O585  1  0.42617531  0.81434629  0.42384789  1
  O  O586  1  0.42631650  0.81497460  0.67632647  1
  O  O587  1  0.42526941  0.81344573  0.92587193  1
  O  O588  1  0.92662936  0.14704664  0.17506497  1
  O  O589  1  0.92910388  0.14764420  0.42619872  1
  O  O590  1  0.92694709  0.14750786  0.67327884  1
  O  O591  1  0.92690878  0.14689501  0.92483771  1
  O  O592  1  0.92662182  0.47934672  0.17589979  1
  O  O593  1  0.92821267  0.48088990  0.42556269  1
  O  O594  1  0.92578491  0.47981132  0.67391996  1
  O  O595  1  0.92676204  0.48115866  0.92648836  1
  O  O596  1  0.92850593  0.81319743  0.17616511  1
  O  O597  1  0.92595507  0.81343382  0.42362960  1
  O  O598  1  0.92584362  0.81357698  0.67479312  1
  O  O599  1  0.92688019  0.81220405  0.92622749  1
  O  O600  1  0.07467874  0.18717960  0.07572629  1
  O  O601  1  0.07318303  0.18823040  0.32525198  1
  O  O602  1  0.07241038  0.18677912  0.57183467  1
  O  O603  1  0.07436449  0.18723347  0.82414393  1
  O  O604  1  0.07203661  0.51940580  0.07401300  1
  O  O605  1  0.07310912  0.52057693  0.32373077  1
  O  O606  1  0.07337919  0.51888360  0.57303937  1
  O  O607  1  0.07316025  0.51994010  0.82553706  1
  O  O608  1  0.07455039  0.85232002  0.07548275  1
  O  O609  1  0.07276016  0.85214116  0.32424818  1
  O  O610  1  0.07328419  0.85404923  0.57402395  1
  O  O611  1  0.07385147  0.85256062  0.82485393  1
  O  O612  1  0.57286578  0.18461490  0.07486113  1
  O  O613  1  0.57256537  0.18699659  0.32315538  1
  O  O614  1  0.57296944  0.18521174  0.57366911  1
  O  O615  1  0.57354866  0.18606467  0.82607106  1
  O  O616  1  0.57272527  0.51834762  0.07532522  1
  O  O617  1  0.57297177  0.52106814  0.32470917  1
  O  O618  1  0.57252605  0.51876721  0.57389544  1
  O  O619  1  0.57333934  0.51962311  0.82518534  1
  O  O620  1  0.57273402  0.85409061  0.07563405  1
  O  O621  1  0.57251760  0.85353814  0.32298446  1
  O  O622  1  0.57377988  0.85315825  0.57426453  1
  O  O623  1  0.57283208  0.85179105  0.82500709  1
  O  O624  1  0.32313907  0.18669402  0.05188255  1
  O  O625  1  0.32257049  0.18664035  0.30066241  1
  O  O626  1  0.32344020  0.18711569  0.54921853  1
  O  O627  1  0.32235997  0.18674909  0.80252815  1
  O  O628  1  0.32289138  0.51815600  0.05025564  1
  O  O629  1  0.32319046  0.51817106  0.30066872  1
  O  O630  1  0.32257786  0.51875758  0.55115219  1
  O  O631  1  0.32277849  0.52002046  0.80153377  1
  O  O632  1  0.32338242  0.85485411  0.05082334  1
  O  O633  1  0.32220515  0.85384857  0.30164840  1
  O  O634  1  0.32303859  0.85527440  0.55030062  1
  O  O635  1  0.32304075  0.85488947  0.80067319  1
  O  O636  1  0.82351689  0.18485498  0.05070922  1
  O  O637  1  0.82297300  0.18486552  0.30123323  1
  O  O638  1  0.82268811  0.18806117  0.55022545  1
  O  O639  1  0.82342006  0.18511389  0.80006661  1
  O  O640  1  0.82350801  0.51966613  0.04988485  1
  O  O641  1  0.82254108  0.51981475  0.30212083  1
  O  O642  1  0.82272605  0.52106332  0.55009241  1
  O  O643  1  0.82164843  0.51873309  0.80113419  1
  O  O644  1  0.82206013  0.85240467  0.05093644  1
  O  O645  1  0.82361284  0.85353904  0.29862323  1
  O  O646  1  0.82404583  0.85348889  0.54924253  1
  O  O647  1  0.82337688  0.85346982  0.80022881  1
  O  O648  1  0.17744316  0.14709690  0.19899534  1
  O  O649  1  0.17743793  0.14733417  0.44796432  1
  O  O650  1  0.17734602  0.14634725  0.69945608  1
  O  O651  1  0.17908439  0.14761718  0.94853538  1
  O  O652  1  0.17760307  0.47969425  0.19821656  1
  O  O653  1  0.17769516  0.48020142  0.44741334  1
  O  O654  1  0.17686390  0.48138018  0.69882104  1
  O  O655  1  0.17746472  0.47965807  0.94897478  1
  O  O656  1  0.17674268  0.81351371  0.20056663  1
  O  O657  1  0.17697518  0.81522024  0.44933963  1
  O  O658  1  0.17615125  0.81386907  0.70158051  1
  O  O659  1  0.17679417  0.81234961  0.95076185  1
  O  O660  1  0.67794444  0.14687102  0.19736549  1
  O  O661  1  0.67692865  0.14857009  0.44804775  1
  O  O662  1  0.67566544  0.14629337  0.70105897  1
  O  O663  1  0.67848167  0.14621141  0.94913673  1
  O  O664  1  0.67604847  0.48002269  0.20063110  1
  O  O665  1  0.67682124  0.48141794  0.44985995  1
  O  O666  1  0.67612178  0.47843206  0.69995556  1
  O  O667  1  0.67717991  0.48064010  0.94931668  1
  O  O668  1  0.67668839  0.81413705  0.19898726  1
  O  O669  1  0.67621254  0.81226722  0.44974793  1
  O  O670  1  0.67693534  0.81167985  0.70032265  1
  O  O671  1  0.67651338  0.81240112  0.94962133  1
