# generated using pymatgen
data_Na2MnFe(PO4)2
_symmetry_space_group_name_H-M   'P 1'
_cell_length_a   22.33963502
_cell_length_b   20.08996773
_cell_length_c   19.45430626
_cell_angle_alpha   90.07049651
_cell_angle_beta   90.03080946
_cell_angle_gamma   90.01218375
_symmetry_Int_Tables_number   1
_chemical_formula_structural   Na2MnFe(PO4)2
_chemical_formula_sum   'Na96 Mn48 Fe48 P96 O384'
_cell_volume   8731.13412330
_cell_formula_units_Z   48
loop_
 _symmetry_equiv_pos_site_id
 _symmetry_equiv_pos_as_xyz
  1  'x, y, z'
loop_
 _atom_site_type_symbol
 _atom_site_label
 _atom_site_symmetry_multiplicity
 _atom_site_fract_x
 _atom_site_fract_y
 _atom_site_fract_z
 _atom_site_occupancy
  Na  Na0  1  0.14068732  0.24860125  0.24514089  1
  Na  Na1  1  0.14095074  0.24899253  0.49344743  1
  Na  Na2  1  0.14017755  0.25114784  0.74303730  1
  Na  Na3  1  0.14042500  0.24948328  0.99361101  1
  Na  Na4  1  0.14081993  0.58152468  0.24445784  1
  Na  Na5  1  0.14065560  0.58178214  0.49461024  1
  Na  Na6  1  0.14038768  0.58272194  0.74368973  1
  Na  Na7  1  0.14070207  0.58179782  0.99431948  1
  Na  Na8  1  0.14051574  0.91619561  0.24399652  1
  Na  Na9  1  0.14076429  0.91707693  0.49371282  1
  Na  Na10  1  0.14067567  0.91684677  0.74400111  1
  Na  Na11  1  0.14026411  0.91628855  0.99441591  1
  Na  Na12  1  0.63984889  0.25146610  0.24357703  1
  Na  Na13  1  0.64013079  0.25020183  0.49343761  1
  Na  Na14  1  0.63974572  0.25030371  0.74388566  1
  Na  Na15  1  0.63946531  0.25190751  0.99297541  1
  Na  Na16  1  0.64039207  0.58390805  0.24392996  1
  Na  Na17  1  0.64002042  0.58254150  0.49335617  1
  Na  Na18  1  0.63962001  0.58330390  0.74368593  1
  Na  Na19  1  0.64031180  0.58440468  0.99388043  1
  Na  Na20  1  0.63959905  0.91571758  0.24235912  1
  Na  Na21  1  0.63966070  0.91609480  0.49264181  1
  Na  Na22  1  0.63971922  0.91681926  0.74219590  1
  Na  Na23  1  0.63986284  0.91571734  0.99274158  1
  Na  Na24  1  0.35966079  0.08394856  0.00647636  1
  Na  Na25  1  0.35943691  0.08288028  0.25703396  1
  Na  Na26  1  0.36052196  0.08315560  0.50634066  1
  Na  Na27  1  0.35983909  0.08448663  0.75635916  1
  Na  Na28  1  0.36008218  0.41527194  0.00605354  1
  Na  Na29  1  0.35984422  0.41457401  0.25732337  1
  Na  Na30  1  0.35996604  0.41672190  0.50706861  1
  Na  Na31  1  0.36045038  0.41690823  0.75694320  1
  Na  Na32  1  0.36026707  0.75126060  0.00652632  1
  Na  Na33  1  0.36038564  0.75001945  0.25761675  1
  Na  Na34  1  0.36014633  0.74982181  0.50715208  1
  Na  Na35  1  0.36030895  0.75032721  0.75679708  1
  Na  Na36  1  0.85883359  0.08421030  0.00484560  1
  Na  Na37  1  0.85888445  0.08414150  0.25547388  1
  Na  Na38  1  0.85979303  0.08394360  0.50610748  1
  Na  Na39  1  0.85956926  0.08442138  0.75521235  1
  Na  Na40  1  0.85928468  0.41884792  0.00538491  1
  Na  Na41  1  0.85888856  0.41773692  0.25645684  1
  Na  Na42  1  0.85954895  0.41728725  0.50684800  1
  Na  Na43  1  0.86001093  0.41691287  0.75745793  1
  Na  Na44  1  0.85954017  0.75003791  0.00606021  1
  Na  Na45  1  0.85994548  0.74912172  0.25567125  1
  Na  Na46  1  0.85958497  0.74942365  0.50514689  1
  Na  Na47  1  0.85931396  0.74927344  0.75626297  1
  Na  Na48  1  0.10947996  0.08167627  0.11922023  1
  Na  Na49  1  0.10998754  0.08298834  0.36863427  1
  Na  Na50  1  0.11018937  0.08408843  0.61865628  1
  Na  Na51  1  0.10958808  0.08281233  0.86810929  1
  Na  Na52  1  0.11015205  0.41587993  0.11947025  1
  Na  Na53  1  0.11045843  0.41728876  0.36894201  1
  Na  Na54  1  0.10975606  0.41587966  0.61894661  1
  Na  Na55  1  0.10931226  0.41594934  0.86840135  1
  Na  Na56  1  0.10971879  0.74889276  0.11976086  1
  Na  Na57  1  0.10965117  0.74955749  0.36920342  1
  Na  Na58  1  0.10968034  0.74910999  0.61957931  1
  Na  Na59  1  0.10965797  0.74920555  0.86919156  1
  Na  Na60  1  0.60861304  0.08303678  0.11777945  1
  Na  Na61  1  0.60914993  0.08376518  0.36885502  1
  Na  Na62  1  0.60912773  0.08233151  0.61795430  1
  Na  Na63  1  0.60911933  0.08448655  0.86778714  1
  Na  Na64  1  0.60958883  0.41545585  0.11888926  1
  Na  Na65  1  0.60979655  0.41805914  0.36803680  1
  Na  Na66  1  0.60938806  0.41630687  0.61881742  1
  Na  Na67  1  0.60897983  0.41753225  0.86807426  1
  Na  Na68  1  0.60998231  0.74983851  0.11854934  1
  Na  Na69  1  0.60934235  0.75091718  0.36773369  1
  Na  Na70  1  0.60937139  0.74940316  0.61845274  1
  Na  Na71  1  0.60915956  0.75019673  0.86755662  1
  Na  Na72  1  0.39014786  0.24898307  0.13162987  1
  Na  Na73  1  0.39036331  0.25009332  0.38248673  1
  Na  Na74  1  0.39039113  0.24905870  0.63154591  1
  Na  Na75  1  0.39045942  0.25081443  0.88172486  1
  Na  Na76  1  0.39111028  0.58283693  0.13252339  1
  Na  Na77  1  0.39067193  0.58404319  0.38272608  1
  Na  Na78  1  0.39078037  0.58293243  0.63289806  1
  Na  Na79  1  0.39070806  0.58334603  0.88052605  1
  Na  Na80  1  0.39080151  0.91609201  0.13177242  1
  Na  Na81  1  0.39112398  0.91796683  0.38111314  1
  Na  Na82  1  0.39122320  0.91602426  0.63128188  1
  Na  Na83  1  0.39054312  0.91808688  0.88119515  1
  Na  Na84  1  0.88982535  0.25094540  0.13039266  1
  Na  Na85  1  0.89011488  0.25138966  0.38176022  1
  Na  Na86  1  0.89077295  0.25032274  0.63166476  1
  Na  Na87  1  0.89011689  0.25066820  0.88042099  1
  Na  Na88  1  0.89023638  0.58404499  0.13104380  1
  Na  Na89  1  0.88984399  0.58405404  0.38143798  1
  Na  Na90  1  0.88995594  0.58318114  0.63189808  1
  Na  Na91  1  0.88988271  0.58374664  0.88131548  1
  Na  Na92  1  0.89004867  0.91463992  0.13079131  1
  Na  Na93  1  0.89051704  0.91694865  0.37972733  1
  Na  Na94  1  0.89077536  0.91746961  0.63076761  1
  Na  Na95  1  0.89045817  0.91606251  0.88031519  1
  Mn  Mn96  1  0.25016262  0.83416499  0.12617811  1
  Mn  Mn97  1  0.74956063  0.16796859  0.37471531  1
  Mn  Mn98  1  0.24985679  0.83424485  0.87594283  1
  Mn  Mn99  1  0.24989488  0.83345382  0.37604297  1
  Mn  Mn100  1  0.75008402  0.00059804  0.62400728  1
  Mn  Mn101  1  -0.00007474  0.16648201  -0.00052904  1
  Mn  Mn102  1  0.74958620  0.33310687  0.62565768  1
  Mn  Mn103  1  0.74909955  0.00007195  0.12424068  1
  Mn  Mn104  1  -0.00068529  0.66603618  0.50032771  1
  Mn  Mn105  1  -0.00076699  -0.00167683  -0.00103384  1
  Mn  Mn106  1  0.00098824  0.00090133  0.50040020  1
  Mn  Mn107  1  0.25075442  0.49905916  0.87506224  1
  Mn  Mn108  1  0.00038326  -0.00026810  0.74973547  1
  Mn  Mn109  1  0.74963857  0.00003198  0.37407056  1
  Mn  Mn110  1  0.49995482  0.16652585  0.75014591  1
  Mn  Mn111  1  0.50005419  0.66713830  0.50047307  1
  Mn  Mn112  1  -0.00082231  -0.00088604  0.24928209  1
  Mn  Mn113  1  0.50035471  0.49936942  0.00047540  1
  Mn  Mn114  1  0.74948385  0.33427590  0.87479254  1
  Mn  Mn115  1  0.74944855  0.50086497  0.12531560  1
  Mn  Mn116  1  0.25084691  0.49763079  0.12477325  1
  Mn  Mn117  1  -0.00036103  0.16662938  0.24974840  1
  Mn  Mn118  1  0.75006339  0.83206817  0.62365831  1
  Mn  Mn119  1  0.24981038  0.66502592  0.37627240  1
  Mn  Mn120  1  0.25051830  0.66635258  0.87541146  1
  Mn  Mn121  1  -0.00067438  0.50094848  0.24974727  1
  Mn  Mn122  1  0.25101795  0.66570914  0.12595622  1
  Mn  Mn123  1  0.00005717  0.33400957  -0.00030407  1
  Mn  Mn124  1  0.25092927  0.33348437  0.62452927  1
  Mn  Mn125  1  0.74971467  0.50075163  0.62495920  1
  Mn  Mn126  1  0.24966974  0.16601324  0.12530245  1
  Mn  Mn127  1  0.49997253  0.66763778  0.00008930  1
  Mn  Mn128  1  0.74886193  0.16865013  0.12521387  1
  Mn  Mn129  1  0.25077832  0.83312984  0.62519176  1
  Mn  Mn130  1  0.74984859  0.83255604  0.87375890  1
  Mn  Mn131  1  0.50026877  -0.00028081  -0.00044291  1
  Mn  Mn132  1  0.25047000  0.00125503  0.62477313  1
  Mn  Mn133  1  0.00013632  0.83332731  0.49974778  1
  Mn  Mn134  1  0.74963390  0.00101610  0.87367282  1
  Mn  Mn135  1  0.50009343  0.16676339  0.25001699  1
  Mn  Mn136  1  0.49987372  0.50017359  0.25015233  1
  Mn  Mn137  1  -0.00010859  0.33388818  0.25041077  1
  Mn  Mn138  1  0.00024306  0.33377395  0.50058304  1
  Mn  Mn139  1  0.00011022  0.66614859  -0.00035056  1
  Mn  Mn140  1  0.75030132  0.83226718  0.37396652  1
  Mn  Mn141  1  0.50006006  0.33370431  0.50058992  1
  Mn  Mn142  1  -0.00002550  0.66647791  0.75051780  1
  Mn  Mn143  1  0.24994618  0.16725811  0.87586412  1
  Fe  Fe144  1  0.25015662  0.66612471  0.62555881  1
  Fe  Fe145  1  0.74992248  0.66590279  0.62478711  1
  Fe  Fe146  1  0.50018165  0.83366593  0.25005400  1
  Fe  Fe147  1  0.25010338  0.00021592  0.12561121  1
  Fe  Fe148  1  0.49990896  0.83378327  0.49942000  1
  Fe  Fe149  1  0.49940086  0.33312425  -0.00024375  1
  Fe  Fe150  1  0.74929188  0.66662845  0.87510129  1
  Fe  Fe151  1  0.50018227  0.16635393  0.50069654  1
  Fe  Fe152  1  -0.00001496  0.49968820  0.75053119  1
  Fe  Fe153  1  0.50046322  -0.00043869  0.49961943  1
  Fe  Fe154  1  0.75041222  0.66666369  0.12473995  1
  Fe  Fe155  1  0.00009276  0.49993130  0.50052961  1
  Fe  Fe156  1  -0.00003590  0.33325182  0.74937772  1
  Fe  Fe157  1  0.25015968  0.49956812  0.62516210  1
  Fe  Fe158  1  0.50003910  0.66747342  0.25060101  1
  Fe  Fe159  1  0.25003515  0.00075794  0.87496876  1
  Fe  Fe160  1  0.25040360  0.33228090  0.37574008  1
  Fe  Fe161  1  0.24980255  0.33335943  0.87459223  1
  Fe  Fe162  1  0.75005151  0.50023967  0.37482646  1
  Fe  Fe163  1  0.74995234  0.83270896  0.12395469  1
  Fe  Fe164  1  0.74921835  0.66650922  0.37448041  1
  Fe  Fe165  1  0.74917907  0.50118125  0.87552979  1
  Fe  Fe166  1  0.50013011  0.33305616  0.74997644  1
  Fe  Fe167  1  0.00074587  0.66642395  0.25005417  1
  Fe  Fe168  1  -0.00004249  0.50001879  0.00009710  1
  Fe  Fe169  1  0.50017512  0.83391194  0.74942901  1
  Fe  Fe170  1  0.24986456  0.33201626  0.12618469  1
  Fe  Fe171  1  0.49995442  0.83351104  -0.00024778  1
  Fe  Fe172  1  0.25031521  0.00005846  0.37540219  1
  Fe  Fe173  1  0.49968178  0.16680640  -0.00015167  1
  Fe  Fe174  1  0.25045986  0.16570860  0.37480741  1
  Fe  Fe175  1  0.00010469  0.16666562  0.74951618  1
  Fe  Fe176  1  0.75024644  0.33389056  0.37499061  1
  Fe  Fe177  1  0.25013083  0.16701563  0.62483521  1
  Fe  Fe178  1  0.74969264  0.33474923  0.12461485  1
  Fe  Fe179  1  0.25117684  0.49873861  0.37564145  1
  Fe  Fe180  1  0.49990062  0.50000275  0.50095197  1
  Fe  Fe181  1  0.74954458  0.16708864  0.62437024  1
  Fe  Fe182  1  0.49977366  -0.00029104  0.74918642  1
  Fe  Fe183  1  0.49983385  0.49971099  0.75029690  1
  Fe  Fe184  1  0.49987388  0.33298216  0.24994657  1
  Fe  Fe185  1  0.74926426  0.16768986  0.87498753  1
  Fe  Fe186  1  0.49993507  0.66712550  0.74988395  1
  Fe  Fe187  1  0.00027877  0.83296344  0.74991094  1
  Fe  Fe188  1  0.00007550  0.83210683  0.00044251  1
  Fe  Fe189  1  -0.00002560  0.16709198  0.49995592  1
  Fe  Fe190  1  0.49988371  0.00006272  0.25016408  1
  Fe  Fe191  1  0.00038089  0.83259245  0.25024447  1
  P  P192  1  0.04297108  0.25003247  0.10286888  1
  P  P193  1  0.04252373  0.25004254  0.35386540  1
  P  P194  1  0.04236616  0.24881760  0.60299369  1
  P  P195  1  0.04127586  0.25006786  0.85102740  1
  P  P196  1  0.04256817  0.58230930  0.10265113  1
  P  P197  1  0.04246274  0.58424613  0.35296002  1
  P  P198  1  0.04183947  0.58153699  0.60336962  1
  P  P199  1  0.04240304  0.58173813  0.85290833  1
  P  P200  1  0.04187795  0.91432818  0.10275724  1
  P  P201  1  0.04261458  0.91563591  0.35218447  1
  P  P202  1  0.04338473  0.91642248  0.60355680  1
  P  P203  1  0.04241376  0.91453462  0.85266992  1
  P  P204  1  0.54098432  0.24995645  0.10161653  1
  P  P205  1  0.54199767  0.25148684  0.35280849  1
  P  P206  1  0.54217750  0.24889545  0.60296619  1
  P  P207  1  0.54172724  0.25152792  0.85305042  1
  P  P208  1  0.54254216  0.58378485  0.10360379  1
  P  P209  1  0.54188971  0.58508797  0.35286075  1
  P  P210  1  0.54185795  0.58225537  0.60347495  1
  P  P211  1  0.54078480  0.58370324  0.85146455  1
  P  P212  1  0.54215981  0.91507465  0.10269140  1
  P  P213  1  0.54179234  0.91706229  0.35188805  1
  P  P214  1  0.54137565  0.91603827  0.60166428  1
  P  P215  1  0.54154217  0.91711176  0.85109983  1
  P  P216  1  0.45774187  0.08203158  0.14755697  1
  P  P217  1  0.45924174  0.08340654  0.39838096  1
  P  P218  1  0.45812348  0.08181469  0.64679282  1
  P  P219  1  0.45774090  0.08465762  0.89734799  1
  P  P220  1  0.45777891  0.41464312  0.14755961  1
  P  P221  1  0.45812845  0.41814520  0.39792408  1
  P  P222  1  0.45897080  0.41634014  0.64847702  1
  P  P223  1  0.45819417  0.41565732  0.89686866  1
  P  P224  1  0.45863786  0.75043124  0.14850247  1
  P  P225  1  0.45795681  0.75183964  0.39713856  1
  P  P226  1  0.45883618  0.75040370  0.64809517  1
  P  P227  1  0.45796202  0.75195629  0.89662548  1
  P  P228  1  0.95637725  0.08280124  0.14621304  1
  P  P229  1  0.95758121  0.08453716  0.39754695  1
  P  P230  1  0.95815015  0.08488311  0.64698871  1
  P  P231  1  0.95721307  0.08315901  0.89571748  1
  P  P232  1  0.95680910  0.41711656  0.14651982  1
  P  P233  1  0.95775320  0.41843201  0.39805139  1
  P  P234  1  0.95851307  0.41700417  0.64838321  1
  P  P235  1  0.95773134  0.41849012  0.89669349  1
  P  P236  1  0.95893954  0.74941744  0.14826924  1
  P  P237  1  0.95744493  0.74976478  0.39596579  1
  P  P238  1  0.95741465  0.75075869  0.64776182  1
  P  P239  1  0.95771491  0.75091022  0.89720613  1
  P  P240  1  0.20771514  0.08193971  0.22853223  1
  P  P241  1  0.20894271  0.08345708  0.47685618  1
  P  P242  1  0.20795703  0.08538997  0.72771810  1
  P  P243  1  0.20750949  0.08185403  0.97795621  1
  P  P244  1  0.20846023  0.41418029  0.22894312  1
  P  P245  1  0.20920953  0.41621823  0.47716190  1
  P  P246  1  0.20826562  0.41733406  0.72741106  1
  P  P247  1  0.20770101  0.41444819  0.97780838  1
  P  P248  1  0.20776548  0.74939736  0.22894566  1
  P  P249  1  0.20746932  0.74901223  0.47937958  1
  P  P250  1  0.20825168  0.74898772  0.72778129  1
  P  P251  1  0.20743888  0.74988955  0.97889357  1
  P  P252  1  0.70617452  0.08413812  0.22752975  1
  P  P253  1  0.70708459  0.08394079  0.47788239  1
  P  P254  1  0.70751652  0.08539607  0.72698891  1
  P  P255  1  0.70707028  0.08516220  0.97683352  1
  P  P256  1  0.70761311  0.41620920  0.22824003  1
  P  P257  1  0.70863028  0.41672867  0.47647272  1
  P  P258  1  0.70722634  0.41763253  0.72857239  1
  P  P259  1  0.70701840  0.41887504  0.97760871  1
  P  P260  1  0.70867909  0.74936683  0.22614851  1
  P  P261  1  0.70733431  0.74801013  0.47703398  1
  P  P262  1  0.70762464  0.74796786  0.72707563  1
  P  P263  1  0.70759927  0.74891875  0.97756419  1
  P  P264  1  0.29182141  0.25094103  0.02285947  1
  P  P265  1  0.29164236  0.24931319  0.27384050  1
  P  P266  1  0.29253625  0.24838923  0.52188529  1
  P  P267  1  0.29240255  0.25125575  0.77255661  1
  P  P268  1  0.29388088  0.58231634  0.02235446  1
  P  P269  1  0.29301613  0.58085434  0.27349574  1
  P  P270  1  0.29200236  0.58247204  0.52394307  1
  P  P271  1  0.29290172  0.58306130  0.77112174  1
  P  P272  1  0.29238839  0.91865359  0.02284486  1
  P  P273  1  0.29223360  0.91807307  0.27300108  1
  P  P274  1  0.29317882  0.91733278  0.52172997  1
  P  P275  1  0.29237934  0.91838512  0.77281355  1
  P  P276  1  0.79157914  0.25233726  0.02198053  1
  P  P277  1  0.79215803  0.25252293  0.27197480  1
  P  P278  1  0.79219604  0.24971684  0.52240749  1
  P  P279  1  0.79159053  0.24901469  0.77225601  1
  P  P280  1  0.79191446  0.58483945  0.02194497  1
  P  P281  1  0.79116558  0.58390415  0.27309640  1
  P  P282  1  0.79197849  0.58437905  0.52158238  1
  P  P283  1  0.79114097  0.58369714  0.77344481  1
  P  P284  1  0.79158426  0.91561555  0.02178051  1
  P  P285  1  0.79222819  0.91593929  0.27038814  1
  P  P286  1  0.79300122  0.91621176  0.52101957  1
  P  P287  1  0.79254307  0.91672285  0.77093361  1
  O  O288  1  0.03792042  0.25016257  0.18282205  1
  O  O289  1  0.03727328  0.24980029  0.43381581  1
  O  O290  1  0.03694052  0.24887834  0.68284521  1
  O  O291  1  0.03651232  0.25059289  0.93097231  1
  O  O292  1  0.03729745  0.58338652  0.18255730  1
  O  O293  1  0.03724015  0.58351629  0.43286992  1
  O  O294  1  0.03652059  0.58144430  0.68328433  1
  O  O295  1  0.03727048  0.58179006  0.93283268  1
  O  O296  1  0.03645085  0.91444531  0.18267562  1
  O  O297  1  0.03790071  0.91638796  0.43216277  1
  O  O298  1  0.03811531  0.91608486  0.68349804  1
  O  O299  1  0.03676878  0.91439169  0.93258558  1
  O  O300  1  0.53596799  0.25020343  0.18158814  1
  O  O301  1  0.53704855  0.25109992  0.43266677  1
  O  O302  1  0.53686918  0.24953446  0.68284992  1
  O  O303  1  0.53612105  0.25142946  0.93286951  1
  O  O304  1  0.53714590  0.58426960  0.18349271  1
  O  O305  1  0.53680486  0.58483532  0.43274637  1
  O  O306  1  0.53642034  0.58243772  0.68329806  1
  O  O307  1  0.53628512  0.58379779  0.93142392  1
  O  O308  1  0.53706196  0.91526034  0.18250445  1
  O  O309  1  0.53656054  0.91687495  0.43174779  1
  O  O310  1  0.53635721  0.91644192  0.68152282  1
  O  O311  1  0.53667121  0.91693041  0.93101630  1
  O  O312  1  0.46298652  0.08261761  0.06770284  1
  O  O313  1  0.46407199  0.08300682  0.31843545  1
  O  O314  1  0.46377804  0.08215724  0.56699117  1
  O  O315  1  0.46273951  0.08426265  0.81748441  1
  O  O316  1  0.46304800  0.41453868  0.06763017  1
  O  O317  1  0.46302171  0.41764512  0.31806429  1
  O  O318  1  0.46398389  0.41710605  0.56855053  1
  O  O319  1  0.46348176  0.41563388  0.81700275  1
  O  O320  1  0.46335213  0.75042340  0.06852852  1
  O  O321  1  0.46340403  0.75137825  0.31729143  1
  O  O322  1  0.46356305  0.75034935  0.56816626  1
  O  O323  1  0.46340905  0.75187081  0.81678815  1
  O  O324  1  0.96151415  0.08260220  0.06625512  1
  O  O325  1  0.96230158  0.08386585  0.31753607  1
  O  O326  1  0.96353396  0.08508471  0.56706256  1
  O  O327  1  0.96282914  0.08365691  0.81579901  1
  O  O328  1  0.96202810  0.41747077  0.06660193  1
  O  O329  1  0.96249503  0.41812332  0.31811177  1
  O  O330  1  0.96320203  0.41703004  0.56841964  1
  O  O331  1  0.96324617  0.41841475  0.81685031  1
  O  O332  1  0.96395497  0.74966672  0.06829183  1
  O  O333  1  0.96311554  0.74952341  0.31610017  1
  O  O334  1  0.96251494  0.75014895  0.56783537  1
  O  O335  1  0.96299774  0.75089932  0.81730414  1
  O  O336  1  0.21259431  0.08172739  0.05790572  1
  O  O337  1  0.21322803  0.08217480  0.30837092  1
  O  O338  1  0.21366920  0.08450257  0.55680821  1
  O  O339  1  0.21298944  0.08493528  0.80763366  1
  O  O340  1  0.21282889  0.41405057  0.05776291  1
  O  O341  1  0.21414514  0.41470473  0.30877266  1
  O  O342  1  0.21435718  0.41691098  0.55710683  1
  O  O343  1  0.21321678  0.41659840  0.80732372  1
  O  O344  1  0.21264714  0.74993077  0.05882795  1
  O  O345  1  0.21266155  0.74943903  0.30892874  1
  O  O346  1  0.21297807  0.74864857  0.55930003  1
  O  O347  1  0.21329402  0.74942190  0.80775754  1
  O  O348  1  0.71217327  0.08479633  0.05675641  1
  O  O349  1  0.71147358  0.08409938  0.30746480  1
  O  O350  1  0.71236560  0.08434357  0.55782651  1
  O  O351  1  0.71273979  0.08558062  0.80695221  1
  O  O352  1  0.71229285  0.41837910  0.05754236  1
  O  O353  1  0.71330054  0.41619627  0.30807517  1
  O  O354  1  0.71318667  0.41696924  0.55648608  1
  O  O355  1  0.71223969  0.41834028  0.80847850  1
  O  O356  1  0.71308893  0.74937946  0.05741292  1
  O  O357  1  0.71343287  0.74928812  0.30609289  1
  O  O358  1  0.71258812  0.74788292  0.55694882  1
  O  O359  1  0.71281647  0.74808407  0.80701902  1
  O  O360  1  0.28675566  0.24917660  0.19388919  1
  O  O361  1  0.28722926  0.24853915  0.44206010  1
  O  O362  1  0.28765913  0.25063750  0.69262520  1
  O  O363  1  0.28651521  0.25117021  0.94295845  1
  O  O364  1  0.28816681  0.58090436  0.19353971  1
  O  O365  1  0.28710572  0.58188261  0.44394459  1
  O  O366  1  0.28742038  0.58307750  0.69122199  1
  O  O367  1  0.28878582  0.58243429  0.94237594  1
  O  O368  1  0.28681751  0.91823499  0.19307909  1
  O  O369  1  0.28776537  0.91757357  0.44183671  1
  O  O370  1  0.28743947  0.91791788  0.69286483  1
  O  O371  1  0.28706927  0.91861455  0.94289296  1
  O  O372  1  0.78665289  0.25298042  0.19206435  1
  O  O373  1  0.78722230  0.25068770  0.44246080  1
  O  O374  1  0.78637770  0.24868233  0.69234382  1
  O  O375  1  0.78615895  0.25143235  0.94206252  1
  O  O376  1  0.78649287  0.58384121  0.19315325  1
  O  O377  1  0.78662837  0.58404732  0.44176057  1
  O  O378  1  0.78624892  0.58390768  0.69345736  1
  O  O379  1  0.78631370  0.58443303  0.94213375  1
  O  O380  1  0.78675811  0.91552793  0.19046215  1
  O  O381  1  0.78796401  0.91612711  0.44102720  1
  O  O382  1  0.78757185  0.91655753  0.69099034  1
  O  O383  1  0.78662791  0.91566592  0.94179440  1
  O  O384  1  0.22762112  0.25069534  0.05876748  1
  O  O385  1  0.22756193  0.24976936  0.30981236  1
  O  O386  1  0.22840638  0.24868983  0.55802956  1
  O  O387  1  0.22799455  0.25141859  0.80798580  1
  O  O388  1  0.22943197  0.58207204  0.05730945  1
  O  O389  1  0.22859018  0.58035639  0.30873525  1
  O  O390  1  0.22773476  0.58259817  0.55970038  1
  O  O391  1  0.22873388  0.58266086  0.80698332  1
  O  O392  1  0.22811966  0.91869170  0.05861511  1
  O  O393  1  0.22800154  0.91816737  0.30879122  1
  O  O394  1  0.22889965  0.91703469  0.55712401  1
  O  O395  1  0.22802478  0.91857400  0.80823681  1
  O  O396  1  0.72729938  0.25317031  0.05779437  1
  O  O397  1  0.72788588  0.25273910  0.30776992  1
  O  O398  1  0.72775797  0.24925677  0.55774854  1
  O  O399  1  0.72734528  0.24943781  0.80801584  1
  O  O400  1  0.72781503  0.58546442  0.05819023  1
  O  O401  1  0.72699005  0.58404505  0.30892639  1
  O  O402  1  0.72772625  0.58485499  0.55757130  1
  O  O403  1  0.72686720  0.58366426  0.80929388  1
  O  O404  1  0.72725408  0.91550666  0.05710353  1
  O  O405  1  0.72795620  0.91595543  0.30591355  1
  O  O406  1  0.72851156  0.91625600  0.55588780  1
  O  O407  1  0.72807847  0.91674210  0.80584308  1
  O  O408  1  0.27187760  0.08179288  0.19235066  1
  O  O409  1  0.27321101  0.08239967  0.44125408  1
  O  O410  1  0.27229655  0.08572597  0.69212687  1
  O  O411  1  0.27185662  0.08225198  0.94239553  1
  O  O412  1  0.27255650  0.41368571  0.19259958  1
  O  O413  1  0.27339039  0.41573303  0.44124359  1
  O  O414  1  0.27261432  0.41782043  0.69191959  1
  O  O415  1  0.27207758  0.41421925  0.94224479  1
  O  O416  1  0.27225746  0.74991038  0.19408002  1
  O  O417  1  0.27173804  0.74923237  0.44392602  1
  O  O418  1  0.27259522  0.74865218  0.69237752  1
  O  O419  1  0.27186485  0.75027009  0.94381942  1
  O  O420  1  0.77054756  0.08425482  0.19244514  1
  O  O421  1  0.77139425  0.08390751  0.44251492  1
  O  O422  1  0.77178789  0.08548850  0.69126171  1
  O  O423  1  0.77140692  0.08526259  0.94137620  1
  O  O424  1  0.77163837  0.41603932  0.19176771  1
  O  O425  1  0.77289458  0.41638298  0.44095654  1
  O  O426  1  0.77156017  0.41727067  0.69329967  1
  O  O427  1  0.77125275  0.41915404  0.94183672  1
  O  O428  1  0.77285424  0.74911829  0.19018525  1
  O  O429  1  0.77166884  0.74764961  0.44145683  1
  O  O430  1  0.77191720  0.74779334  0.69139232  1
  O  O431  1  0.77177890  0.74835836  0.94151565  1
  O  O432  1  0.02085921  0.08270292  0.18124841  1
  O  O433  1  0.02210377  0.08518202  0.43273149  1
  O  O434  1  0.02238105  0.08463779  0.68284183  1
  O  O435  1  0.02146222  0.08251403  0.93131650  1
  O  O436  1  0.02121748  0.41722648  0.18175209  1
  O  O437  1  0.02220482  0.41835153  0.43333210  1
  O  O438  1  0.02274693  0.41703434  0.68407415  1
  O  O439  1  0.02188444  0.41877011  0.93299171  1
  O  O440  1  0.02304655  0.74913371  0.18450907  1
  O  O441  1  0.02159898  0.74943751  0.43192674  1
  O  O442  1  0.02180540  0.75076061  0.68325345  1
  O  O443  1  0.02198581  0.75087018  0.93302198  1
  O  O444  1  0.52198729  0.08192741  0.18341693  1
  O  O445  1  0.52327825  0.08412550  0.43450820  1
  O  O446  1  0.52215225  0.08172419  0.68326740  1
  O  O447  1  0.52201083  0.08501271  0.93312969  1
  O  O448  1  0.52202189  0.41501010  0.18339196  1
  O  O449  1  0.52244342  0.41827116  0.43362302  1
  O  O450  1  0.52304709  0.41565371  0.68453850  1
  O  O451  1  0.52229991  0.41526449  0.93308444  1
  O  O452  1  0.52287969  0.75059058  0.18433997  1
  O  O453  1  0.52208650  0.75189989  0.43334726  1
  O  O454  1  0.52297742  0.75084902  0.68403540  1
  O  O455  1  0.52213303  0.75197695  0.93284099  1
  O  O456  1  0.47684206  0.24961334  0.06552221  1
  O  O457  1  0.47767092  0.25130339  0.31711692  1
  O  O458  1  0.47797213  0.24873980  0.56706733  1
  O  O459  1  0.47768037  0.25165549  0.81663046  1
  O  O460  1  0.47832488  0.58344393  0.06795107  1
  O  O461  1  0.47768738  0.58503288  0.31700581  1
  O  O462  1  0.47772659  0.58211487  0.56723734  1
  O  O463  1  0.47670891  0.58380406  0.81562995  1
  O  O464  1  0.47796238  0.91522063  0.06658777  1
  O  O465  1  0.47776788  0.91694702  0.31529320  1
  O  O466  1  0.47733588  0.91567151  0.56533612  1
  O  O467  1  0.47732652  0.91715722  0.81513033  1
  O  O468  1  0.97849682  0.25018518  0.06785749  1
  O  O469  1  0.97814897  0.25024069  0.31849282  1
  O  O470  1  0.97817242  0.24878579  0.56687965  1
  O  O471  1  0.97708639  0.24972396  0.81525179  1
  O  O472  1  0.97826169  0.58177124  0.06682070  1
  O  O473  1  0.97813350  0.58538091  0.31726948  1
  O  O474  1  0.97756902  0.58125655  0.56750927  1
  O  O475  1  0.97806900  0.58209954  0.81729524  1
  O  O476  1  0.97765940  0.91397044  0.06673981  1
  O  O477  1  0.97817016  0.91495603  0.31694794  1
  O  O478  1  0.97903006  0.91708185  0.56825181  1
  O  O479  1  0.97824839  0.91483482  0.81657151  1
  O  O480  1  0.07405444  0.31337278  0.07452704  1
  O  O481  1  0.07345646  0.31377994  0.32608807  1
  O  O482  1  0.07347563  0.31262579  0.57533179  1
  O  O483  1  0.07153888  0.31402381  0.82252476  1
  O  O484  1  0.07367892  0.64567309  0.07423659  1
  O  O485  1  0.07374763  0.64751286  0.32461948  1
  O  O486  1  0.07261768  0.64547588  0.57589629  1
  O  O487  1  0.07355548  0.64548701  0.82525399  1
  O  O488  1  0.07259035  0.97821050  0.07485751  1
  O  O489  1  0.07322474  0.97935193  0.32395474  1
  O  O490  1  0.07463872  0.98001535  0.57571744  1
  O  O491  1  0.07371463  0.97825489  0.82528705  1
  O  O492  1  0.57190070  0.31348606  0.07335880  1
  O  O493  1  0.57229035  0.31528879  0.32417720  1
  O  O494  1  0.57356215  0.31226416  0.57495017  1
  O  O495  1  0.57291822  0.31473373  0.82429077  1
  O  O496  1  0.57369433  0.64696545  0.07495307  1
  O  O497  1  0.57238543  0.64880738  0.32431444  1
  O  O498  1  0.57303404  0.64575548  0.57537539  1
  O  O499  1  0.57159231  0.64737322  0.82323868  1
  O  O500  1  0.57346015  0.97853114  0.07445895  1
  O  O501  1  0.57241110  0.98089061  0.32361783  1
  O  O502  1  0.57193734  0.97977020  0.57281975  1
  O  O503  1  0.57205000  0.98103497  0.82289581  1
  O  O504  1  0.42718693  0.01838504  0.17602157  1
  O  O505  1  0.42886278  0.01956008  0.42687937  1
  O  O506  1  0.42723596  0.01832541  0.67534492  1
  O  O507  1  0.42675960  0.02113986  0.92548763  1
  O  O508  1  0.42714199  0.35118888  0.17640218  1
  O  O509  1  0.42683422  0.35479453  0.42613122  1
  O  O510  1  0.42769373  0.35258863  0.67573893  1
  O  O511  1  0.42692393  0.35251405  0.92570095  1
  O  O512  1  0.42819930  0.68651327  0.17693573  1
  O  O513  1  0.42666589  0.68845414  0.42550107  1
  O  O514  1  0.42871807  0.68629393  0.67652421  1
  O  O515  1  0.42670354  0.68838562  0.92456381  1
  O  O516  1  0.92529856  0.01935215  0.17433458  1
  O  O517  1  0.92699280  0.02071789  0.42561851  1
  O  O518  1  0.92692433  0.02111831  0.67432234  1
  O  O519  1  0.92582801  0.01959856  0.92326866  1
  O  O520  1  0.92604170  0.35350949  0.17479004  1
  O  O521  1  0.92665668  0.35497369  0.42615016  1
  O  O522  1  0.92825991  0.35287335  0.67670177  1
  O  O523  1  0.92669645  0.35462586  0.92425000  1
  O  O524  1  0.92820028  0.68553232  0.17609158  1
  O  O525  1  0.92592479  0.68668239  0.42462814  1
  O  O526  1  0.92634662  0.68717687  0.67573020  1
  O  O527  1  0.92687257  0.68699272  0.92486121  1
  O  O528  1  0.17663252  0.01864674  0.19974749  1
  O  O529  1  0.17756740  0.01979427  0.44928037  1
  O  O530  1  0.17685740  0.02181282  0.69955820  1
  O  O531  1  0.17686954  0.01853622  0.94870280  1
  O  O532  1  0.17731710  0.35072880  0.20049253  1
  O  O533  1  0.17819706  0.35233586  0.44959748  1
  O  O534  1  0.17729664  0.35387394  0.69882501  1
  O  O535  1  0.17649747  0.35145773  0.94850559  1
  O  O536  1  0.17722533  0.68554992  0.20085781  1
  O  O537  1  0.17618156  0.68567182  0.45104185  1
  O  O538  1  0.17740250  0.68533724  0.69951763  1
  O  O539  1  0.17659534  0.68623065  0.95074131  1
  O  O540  1  0.67513946  0.02067076  0.19930609  1
  O  O541  1  0.67613730  0.02017635  0.44995898  1
  O  O542  1  0.67670312  0.02133948  0.69938790  1
  O  O543  1  0.67598200  0.02150414  0.94882809  1
  O  O544  1  0.67648408  0.35304661  0.19910793  1
  O  O545  1  0.67745022  0.35317496  0.44854087  1
  O  O546  1  0.67621288  0.35386234  0.70076728  1
  O  O547  1  0.67580366  0.35545511  0.94941444  1
  O  O548  1  0.67743971  0.68593020  0.19798578  1
  O  O549  1  0.67602262  0.68496741  0.44809108  1
  O  O550  1  0.67662767  0.68463133  0.69846310  1
  O  O551  1  0.67638897  0.68556258  0.94890944  1
  O  O552  1  0.32283660  0.31404392  0.05194650  1
  O  O553  1  0.32318991  0.31242414  0.30231456  1
  O  O554  1  0.32404873  0.31189135  0.54988285  1
  O  O555  1  0.32284210  0.31509971  0.80094226  1
  O  O556  1  0.32482859  0.64586718  0.05066613  1
  O  O557  1  0.32362800  0.64479144  0.30142414  1
  O  O558  1  0.32262914  0.64650096  0.55187546  1
  O  O559  1  0.32395432  0.64658177  0.79955213  1
  O  O560  1  0.32345989  0.98189954  0.05161179  1
  O  O561  1  0.32330549  0.98136561  0.30176026  1
  O  O562  1  0.32429642  0.98069111  0.55014729  1
  O  O563  1  0.32289376  0.98221293  0.80103883  1
  O  O564  1  0.82256632  0.31605521  0.04986708  1
  O  O565  1  0.82349406  0.31544171  0.30118733  1
  O  O566  1  0.82327221  0.31312925  0.55112876  1
  O  O567  1  0.82274650  0.31291431  0.79963666  1
  O  O568  1  0.82333151  0.64806764  0.05055853  1
  O  O569  1  0.82236472  0.64727488  0.30137955  1
  O  O570  1  0.82317662  0.64754502  0.55060264  1
  O  O571  1  0.82212170  0.64722160  0.80185517  1
  O  O572  1  0.82274674  0.97932283  0.04938403  1
  O  O573  1  0.82314935  0.97976455  0.29828931  1
  O  O574  1  0.82406641  0.97972703  0.54917128  1
  O  O575  1  0.82347438  0.98035603  0.79900254  1
  O  O576  1  0.42646513  0.14546204  0.17584109  1
  O  O577  1  0.42808601  0.14702431  0.42643903  1
  O  O578  1  0.42680395  0.14530198  0.67492150  1
  O  O579  1  0.42697568  0.14826890  0.92588657  1
  O  O580  1  0.42658775  0.47834975  0.17520047  1
  O  O581  1  0.42770406  0.48188498  0.42664922  1
  O  O582  1  0.42854358  0.48005261  0.67739788  1
  O  O583  1  0.42734192  0.47947227  0.92495909  1
  O  O584  1  0.42744442  0.81383710  0.17683525  1
  O  O585  1  0.42707234  0.81539607  0.42560425  1
  O  O586  1  0.42732834  0.81364174  0.67631402  1
  O  O587  1  0.42721599  0.81540473  0.92571479  1
  O  O588  1  0.92550649  0.14643862  0.17430759  1
  O  O589  1  0.92670002  0.14809363  0.42580440  1
  O  O590  1  0.92725465  0.14819731  0.67585584  1
  O  O591  1  0.92619223  0.14657333  0.92417623  1
  O  O592  1  0.92537859  0.48034479  0.17495551  1
  O  O593  1  0.92728444  0.48216753  0.42644256  1
  O  O594  1  0.92714311  0.48020154  0.67686962  1
  O  O595  1  0.92665929  0.48170391  0.92569458  1
  O  O596  1  0.92807984  0.81300150  0.17663072  1
  O  O597  1  0.92639596  0.81339426  0.42405522  1
  O  O598  1  0.92689825  0.81453936  0.67584871  1
  O  O599  1  0.92662864  0.81403476  0.92610758  1
  O  O600  1  0.07381505  0.18635840  0.07478572  1
  O  O601  1  0.07367705  0.18676368  0.32533543  1
  O  O602  1  0.07340452  0.18564086  0.57388981  1
  O  O603  1  0.07251387  0.18644565  0.82338448  1
  O  O604  1  0.07333167  0.51851282  0.07473902  1
  O  O605  1  0.07310193  0.52051508  0.32458889  1
  O  O606  1  0.07291870  0.51830688  0.57445228  1
  O  O607  1  0.07319458  0.51841507  0.82402603  1
  O  O608  1  0.07311662  0.85100684  0.07446418  1
  O  O609  1  0.07352824  0.85200753  0.32413958  1
  O  O610  1  0.07437109  0.85307509  0.57501207  1
  O  O611  1  0.07322043  0.85110056  0.82398687  1
  O  O612  1  0.57168797  0.18603465  0.07358454  1
  O  O613  1  0.57342313  0.18821383  0.32449646  1
  O  O614  1  0.57269627  0.18514018  0.57463507  1
  O  O615  1  0.57283083  0.18785082  0.82508809  1
  O  O616  1  0.57366729  0.52006517  0.07584096  1
  O  O617  1  0.57326487  0.52164688  0.32494242  1
  O  O618  1  0.57273318  0.51874849  0.57463086  1
  O  O619  1  0.57134275  0.51978888  0.82332936  1
  O  O620  1  0.57275342  0.85159637  0.07350613  1
  O  O621  1  0.57295939  0.85356752  0.32344004  1
  O  O622  1  0.57270048  0.85261450  0.57335472  1
  O  O623  1  0.57267128  0.85370253  0.82261147  1
  O  O624  1  0.32276435  0.18699240  0.05030004  1
  O  O625  1  0.32187509  0.18513745  0.30201785  1
  O  O626  1  0.32308857  0.18492745  0.55089961  1
  O  O627  1  0.32362332  0.18801263  0.80112196  1
  O  O628  1  0.32491101  0.51874026  0.05020711  1
  O  O629  1  0.32398038  0.51748913  0.30203543  1
  O  O630  1  0.32293996  0.51899042  0.55241395  1
  O  O631  1  0.32435499  0.51981381  0.79944413  1
  O  O632  1  0.32325653  0.85477024  0.05062524  1
  O  O633  1  0.32317515  0.85422179  0.30049459  1
  O  O634  1  0.32434862  0.85379425  0.54965790  1
  O  O635  1  0.32338159  0.85480538  0.80077021  1
  O  O636  1  0.82249494  0.18879015  0.05028384  1
  O  O637  1  0.82285187  0.18836845  0.29919592  1
  O  O638  1  0.82281281  0.18598416  0.55052632  1
  O  O639  1  0.82230963  0.18579112  0.80137755  1
  O  O640  1  0.82273431  0.52123592  0.05033264  1
  O  O641  1  0.82137982  0.51986840  0.30160734  1
  O  O642  1  0.82280080  0.52068810  0.54999149  1
  O  O643  1  0.82174104  0.51987152  0.80161993  1
  O  O644  1  0.82214860  0.85195116  0.05034606  1
  O  O645  1  0.82366084  0.85280481  0.29874644  1
  O  O646  1  0.82395266  0.85266553  0.54905907  1
  O  O647  1  0.82357074  0.85328079  0.79911001  1
  O  O648  1  0.17666954  0.14558443  0.20041071  1
  O  O649  1  0.17876397  0.14709770  0.44757138  1
  O  O650  1  0.17736124  0.14895769  0.69908039  1
  O  O651  1  0.17636587  0.14563953  0.95044242  1
  O  O652  1  0.17742063  0.47770575  0.20052069  1
  O  O653  1  0.17846775  0.47974333  0.44851447  1
  O  O654  1  0.17743134  0.48088425  0.69910817  1
  O  O655  1  0.17718839  0.47856689  0.95029485  1
  O  O656  1  0.17647889  0.81271664  0.20086342  1
  O  O657  1  0.17634264  0.81260971  0.45152524  1
  O  O658  1  0.17730123  0.81267136  0.70002537  1
  O  O659  1  0.17626439  0.81327969  0.95074263  1
  O  O660  1  0.67509603  0.14775520  0.19976171  1
  O  O661  1  0.67577296  0.14717176  0.44954849  1
  O  O662  1  0.67644782  0.14856933  0.69819417  1
  O  O663  1  0.67645786  0.14890517  0.94875250  1
  O  O664  1  0.67648194  0.47997794  0.20062685  1
  O  O665  1  0.67842283  0.48069698  0.44799281  1
  O  O666  1  0.67603995  0.48068433  0.69969148  1
  O  O667  1  0.67630123  0.48256199  0.94939677  1
  O  O668  1  0.67844725  0.81336782  0.19769920  1
  O  O669  1  0.67677990  0.81203446  0.44923995  1
  O  O670  1  0.67681702  0.81182545  0.69927417  1
  O  O671  1  0.67656915  0.81240023  0.94905042  1
