# generated using pymatgen
data_Na2MnFe(PO4)2
_symmetry_space_group_name_H-M   'P 1'
_cell_length_a   22.34122447
_cell_length_b   20.09486218
_cell_length_c   19.45115417
_cell_angle_alpha   89.97214806
_cell_angle_beta   89.99976670
_cell_angle_gamma   90.05579462
_symmetry_Int_Tables_number   1
_chemical_formula_structural   Na2MnFe(PO4)2
_chemical_formula_sum   'Na96 Mn48 Fe48 P96 O384'
_cell_volume   8732.47041149
_cell_formula_units_Z   48
loop_
 _symmetry_equiv_pos_site_id
 _symmetry_equiv_pos_as_xyz
  1  'x, y, z'
loop_
 _atom_site_type_symbol
 _atom_site_label
 _atom_site_symmetry_multiplicity
 _atom_site_fract_x
 _atom_site_fract_y
 _atom_site_fract_z
 _atom_site_occupancy
  Na  Na0  1  0.13987789  0.25096583  0.24427416  1
  Na  Na1  1  0.14043352  0.24939382  0.49360230  1
  Na  Na2  1  0.14015116  0.24944469  0.74395878  1
  Na  Na3  1  0.13998772  0.24958254  0.99470391  1
  Na  Na4  1  0.14061557  0.58332337  0.24508971  1
  Na  Na5  1  0.14087542  0.58243921  0.49361283  1
  Na  Na6  1  0.14020361  0.58362251  0.74364925  1
  Na  Na7  1  0.13992919  0.58258192  0.99317426  1
  Na  Na8  1  0.14010210  0.91737380  0.24379148  1
  Na  Na9  1  0.14105528  0.91566617  0.49449580  1
  Na  Na10  1  0.14124870  0.91641878  0.74268400  1
  Na  Na11  1  0.14071547  0.91762663  0.99541138  1
  Na  Na12  1  0.64007944  0.24927196  0.24316813  1
  Na  Na13  1  0.64049875  0.24923698  0.49297435  1
  Na  Na14  1  0.64009188  0.25092462  0.74293878  1
  Na  Na15  1  0.63991865  0.24988622  0.99311566  1
  Na  Na16  1  0.63975918  0.58313098  0.24279729  1
  Na  Na17  1  0.64030057  0.58316262  0.49268869  1
  Na  Na18  1  0.64022020  0.58428850  0.74243227  1
  Na  Na19  1  0.63988620  0.58480503  0.99290069  1
  Na  Na20  1  0.64029227  0.91708574  0.24445842  1
  Na  Na21  1  0.64054285  0.91629826  0.49375651  1
  Na  Na22  1  0.64042188  0.91773127  0.74330412  1
  Na  Na23  1  0.64075718  0.91639349  0.99371995  1
  Na  Na24  1  0.36037765  0.08487577  0.00519494  1
  Na  Na25  1  0.35988553  0.08509869  0.25597370  1
  Na  Na26  1  0.35951961  0.08287018  0.50725869  1
  Na  Na27  1  0.36006967  0.08425922  0.75643808  1
  Na  Na28  1  0.35961639  0.41571693  0.00523277  1
  Na  Na29  1  0.35956037  0.41812356  0.25718076  1
  Na  Na30  1  0.35973135  0.41703138  0.50595675  1
  Na  Na31  1  0.36007099  0.41594490  0.75655978  1
  Na  Na32  1  0.36053423  0.74953676  0.00632637  1
  Na  Na33  1  0.36046357  0.74968697  0.25776504  1
  Na  Na34  1  0.36026541  0.75014897  0.50753759  1
  Na  Na35  1  0.36085187  0.75026237  0.75568697  1
  Na  Na36  1  0.85877821  0.08283510  0.00743760  1
  Na  Na37  1  0.85910891  0.08378359  0.25818905  1
  Na  Na38  1  0.85976914  0.08240265  0.50511684  1
  Na  Na39  1  0.85924390  0.08308660  0.75601023  1
  Na  Na40  1  0.85905937  0.41649730  0.00631402  1
  Na  Na41  1  0.85860087  0.41497537  0.25665144  1
  Na  Na42  1  0.85935432  0.41538281  0.50550556  1
  Na  Na43  1  0.85954396  0.41654618  0.75569590  1
  Na  Na44  1  0.85974343  0.75004140  0.00602060  1
  Na  Na45  1  0.85942952  0.75080808  0.25661567  1
  Na  Na46  1  0.85934814  0.74921086  0.50619657  1
  Na  Na47  1  0.85960024  0.74981667  0.75700322  1
  Na  Na48  1  0.10923299  0.08411814  0.12034270  1
  Na  Na49  1  0.10927624  0.08394078  0.36843095  1
  Na  Na50  1  0.11005889  0.08303925  0.61887214  1
  Na  Na51  1  0.10977759  0.08438972  0.86880315  1
  Na  Na52  1  0.10919859  0.41669859  0.11987690  1
  Na  Na53  1  0.11012810  0.41588163  0.36847382  1
  Na  Na54  1  0.10963633  0.41476522  0.61865813  1
  Na  Na55  1  0.10927899  0.41733926  0.86910575  1
  Na  Na56  1  0.10953948  0.74992629  0.11985315  1
  Na  Na57  1  0.10989229  0.74999275  0.36920731  1
  Na  Na58  1  0.11020417  0.74790157  0.61843822  1
  Na  Na59  1  0.10974141  0.74932166  0.86907305  1
  Na  Na60  1  0.60994334  0.08433753  0.11870285  1
  Na  Na61  1  0.60989071  0.08255911  0.36797504  1
  Na  Na62  1  0.61007176  0.08324628  0.61856860  1
  Na  Na63  1  0.60961504  0.08371809  0.86764492  1
  Na  Na64  1  0.60925743  0.41732586  0.11807005  1
  Na  Na65  1  0.60974129  0.41682410  0.36673997  1
  Na  Na66  1  0.60966796  0.41803238  0.61800609  1
  Na  Na67  1  0.60923693  0.41770846  0.86700121  1
  Na  Na68  1  0.60983389  0.75077107  0.11935529  1
  Na  Na69  1  0.60947589  0.74964708  0.36853187  1
  Na  Na70  1  0.61019276  0.75055911  0.61843599  1
  Na  Na71  1  0.60964207  0.75059588  0.86766984  1
  Na  Na72  1  0.38999553  0.25030388  0.13083942  1
  Na  Na73  1  0.39034734  0.25013269  0.38097846  1
  Na  Na74  1  0.39069422  0.24986136  0.63286191  1
  Na  Na75  1  0.39011671  0.25035371  0.88083128  1
  Na  Na76  1  0.39092007  0.58486057  0.13188228  1
  Na  Na77  1  0.39025863  0.58457028  0.38191250  1
  Na  Na78  1  0.39094859  0.58489287  0.63137310  1
  Na  Na79  1  0.39095541  0.58379150  0.87970654  1
  Na  Na80  1  0.39108724  0.91707165  0.13146335  1
  Na  Na81  1  0.39073274  0.91567153  0.38208691  1
  Na  Na82  1  0.39087766  0.91641425  0.63307363  1
  Na  Na83  1  0.39086824  0.91712671  0.88005184  1
  Na  Na84  1  0.88918254  0.24935331  0.13333342  1
  Na  Na85  1  0.88936739  0.25001828  0.38122438  1
  Na  Na86  1  0.88993669  0.24876765  0.62994615  1
  Na  Na87  1  0.88992175  0.25131621  0.88138700  1
  Na  Na88  1  0.89044162  0.58312248  0.13045022  1
  Na  Na89  1  0.88986645  0.58206035  0.38093967  1
  Na  Na90  1  0.89024248  0.58088131  0.63095370  1
  Na  Na91  1  0.89025236  0.58336208  0.88073138  1
  Na  Na92  1  0.89018033  0.91676057  0.13275784  1
  Na  Na93  1  0.88995270  0.91698744  0.38119667  1
  Na  Na94  1  0.89024592  0.91485822  0.63195297  1
  Na  Na95  1  0.89008424  0.91569949  0.88198703  1
  Mn  Mn96  1  0.49978825  0.33338011  0.24889811  1
  Mn  Mn97  1  0.74991555  -0.00020177  0.12558747  1
  Mn  Mn98  1  -0.00013322  0.83254942  0.50019354  1
  Mn  Mn99  1  0.50077780  0.00131846  0.00040786  1
  Mn  Mn100  1  0.00014515  0.49937168  0.24981837  1
  Mn  Mn101  1  0.74971082  0.49913960  0.12437689  1
  Mn  Mn102  1  0.00085958  0.83135168  0.75113687  1
  Mn  Mn103  1  0.25073704  0.83368524  0.12538410  1
  Mn  Mn104  1  0.25080342  0.49916413  0.87443970  1
  Mn  Mn105  1  0.00015983  0.66656708  0.25035697  1
  Mn  Mn106  1  0.74972721  0.66723448  0.87419247  1
  Mn  Mn107  1  0.49966764  0.50123106  0.49953179  1
  Mn  Mn108  1  0.74961458  0.33331957  0.62384120  1
  Mn  Mn109  1  0.00018503  0.49931143  0.75020943  1
  Mn  Mn110  1  0.25002712  0.33258654  0.62548847  1
  Mn  Mn111  1  0.00028012  0.33235078  0.49940155  1
  Mn  Mn112  1  0.50036210  0.83313645  0.00020533  1
  Mn  Mn113  1  0.50030192  0.33375851  0.49968097  1
  Mn  Mn114  1  0.24955005  0.16762304  0.37607648  1
  Mn  Mn115  1  -0.00082662  0.66500127  0.49943317  1
  Mn  Mn116  1  0.25019387  0.66637319  0.12545177  1
  Mn  Mn117  1  0.00049363  -0.00014566  0.49990502  1
  Mn  Mn118  1  0.75055834  -0.00008228  0.62463410  1
  Mn  Mn119  1  0.75046461  0.66656213  0.62462403  1
  Mn  Mn120  1  0.75019159  0.66744837  0.12434545  1
  Mn  Mn121  1  -0.00093187  0.16694664  0.75006512  1
  Mn  Mn122  1  0.00076135  0.83272523  0.00077250  1
  Mn  Mn123  1  0.49998969  0.16634155  0.50073293  1
  Mn  Mn124  1  0.25078863  0.83309524  0.37539034  1
  Mn  Mn125  1  0.25071498  0.00117645  0.87431282  1
  Mn  Mn126  1  0.25016656  0.00040819  0.37544801  1
  Mn  Mn127  1  0.25039833  0.83359860  0.87452641  1
  Mn  Mn128  1  0.25021406  0.66677191  0.87461149  1
  Mn  Mn129  1  0.74974938  0.33419205  0.87404209  1
  Mn  Mn130  1  0.24939700  0.33299340  0.12557397  1
  Mn  Mn131  1  0.25007997  0.49976291  0.12547613  1
  Mn  Mn132  1  -0.00005952  -0.00054067  0.75016300  1
  Mn  Mn133  1  -0.00023285  0.33416136  0.00099198  1
  Mn  Mn134  1  -0.00019855  0.00014643  0.00103609  1
  Mn  Mn135  1  0.25096656  0.00182126  0.12407158  1
  Mn  Mn136  1  0.74996146  0.66626195  0.37474927  1
  Mn  Mn137  1  -0.00096905  0.16704549  0.00076720  1
  Mn  Mn138  1  0.49953886  0.33359254  -0.00092595  1
  Mn  Mn139  1  0.75037069  0.16640269  0.87527090  1
  Mn  Mn140  1  0.24971046  0.50005510  0.62528485  1
  Mn  Mn141  1  0.49951580  -0.00107661  0.49980110  1
  Mn  Mn142  1  0.49968970  -0.00007010  0.24999924  1
  Mn  Mn143  1  0.49967836  0.50157365  -0.00125762  1
  Fe  Fe144  1  -0.00112078  0.33327267  0.25030479  1
  Fe  Fe145  1  0.00034086  0.66525277  0.74995339  1
  Fe  Fe146  1  0.74939143  0.16681388  0.12579429  1
  Fe  Fe147  1  0.75016892  0.83381365  0.12526762  1
  Fe  Fe148  1  0.50021541  0.66735525  -0.00008518  1
  Fe  Fe149  1  0.25010184  0.16753221  0.12514310  1
  Fe  Fe150  1  0.50011476  0.83283662  0.25084517  1
  Fe  Fe151  1  0.49984505  0.66735513  0.25036253  1
  Fe  Fe152  1  0.25078331  0.66663626  0.62439659  1
  Fe  Fe153  1  0.25041956  0.16685625  0.62513959  1
  Fe  Fe154  1  0.50074636  0.83331586  0.75016567  1
  Fe  Fe155  1  0.49981519  0.50090732  0.24926963  1
  Fe  Fe156  1  0.74880409  0.33285303  0.12546473  1
  Fe  Fe157  1  0.24979940  0.66677542  0.37594221  1
  Fe  Fe158  1  0.74986734  0.16618724  0.62428876  1
  Fe  Fe159  1  0.00001514  0.66639614  0.00029716  1
  Fe  Fe160  1  0.74984896  0.83388470  0.87517020  1
  Fe  Fe161  1  0.50079612  0.66729763  0.50012112  1
  Fe  Fe162  1  0.25053640  0.33342377  0.37521038  1
  Fe  Fe163  1  0.50013275  0.33385490  0.74982360  1
  Fe  Fe164  1  -0.00060288  0.83337880  0.24974489  1
  Fe  Fe165  1  0.74956728  0.50037187  0.87468868  1
  Fe  Fe166  1  0.74925802  0.16637433  0.37485065  1
  Fe  Fe167  1  -0.00025091  0.33297914  0.74976645  1
  Fe  Fe168  1  0.74987001  -0.00027937  0.37538148  1
  Fe  Fe169  1  0.74959373  0.49912908  0.37404693  1
  Fe  Fe170  1  0.74977950  0.49979248  0.62400509  1
  Fe  Fe171  1  -0.00066871  0.50010248  -0.00027527  1
  Fe  Fe172  1  0.00015231  0.49842238  0.50034045  1
  Fe  Fe173  1  0.24929118  0.33235679  0.87540503  1
  Fe  Fe174  1  0.25039821  0.00028459  0.62538565  1
  Fe  Fe175  1  -0.00037315  0.16685122  0.25042548  1
  Fe  Fe176  1  0.50048986  0.00021175  0.75011141  1
  Fe  Fe177  1  0.50029516  0.50108462  0.74919209  1
  Fe  Fe178  1  0.74967417  -0.00003581  0.87522843  1
  Fe  Fe179  1  0.25015901  0.50031015  0.37604213  1
  Fe  Fe180  1  0.74986108  0.83325186  0.37531552  1
  Fe  Fe181  1  -0.00033276  0.00020611  0.25083474  1
  Fe  Fe182  1  0.50050099  0.83278085  0.50102493  1
  Fe  Fe183  1  0.75051264  0.83383337  0.62529122  1
  Fe  Fe184  1  0.49990251  0.16672568  0.24982217  1
  Fe  Fe185  1  0.74909378  0.33259034  0.37485968  1
  Fe  Fe186  1  0.50057985  0.66746417  0.74953946  1
  Fe  Fe187  1  0.24962887  0.16680651  0.87483469  1
  Fe  Fe188  1  0.50052145  0.16704165  0.74985239  1
  Fe  Fe189  1  0.50003517  0.16735606  -0.00101544  1
  Fe  Fe190  1  -0.00025764  0.16639893  0.49965400  1
  Fe  Fe191  1  0.25034923  0.83307538  0.62468484  1
  P  P192  1  0.04170825  0.25003086  0.10475033  1
  P  P193  1  0.04092968  0.24999311  0.35180802  1
  P  P194  1  0.04217893  0.24829994  0.60240404  1
  P  P195  1  0.04185379  0.25167256  0.85270846  1
  P  P196  1  0.04145588  0.58292875  0.10153879  1
  P  P197  1  0.04257447  0.58224428  0.35369317  1
  P  P198  1  0.04234977  0.58092943  0.60245718  1
  P  P199  1  0.04231761  0.58415515  0.85327084  1
  P  P200  1  0.04249183  0.91690843  0.10494163  1
  P  P201  1  0.04127275  0.91642826  0.35154069  1
  P  P202  1  0.04300620  0.91573654  0.60330395  1
  P  P203  1  0.04346575  0.91626671  0.85357666  1
  P  P204  1  0.54173947  0.24920782  0.10201873  1
  P  P205  1  0.54222876  0.24894471  0.35194219  1
  P  P206  1  0.54272941  0.25055110  0.60398771  1
  P  P207  1  0.54148227  0.25020520  0.85133108  1
  P  P208  1  0.54198996  0.58535351  0.10266670  1
  P  P209  1  0.54123050  0.58408719  0.35137419  1
  P  P210  1  0.54238028  0.58526281  0.60277251  1
  P  P211  1  0.54179702  0.58449444  0.85100021  1
  P  P212  1  0.54303958  0.91680339  0.10362502  1
  P  P213  1  0.54196517  0.91489787  0.35305955  1
  P  P214  1  0.54221077  0.91556405  0.60345718  1
  P  P215  1  0.54156624  0.91689778  0.85162192  1
  P  P216  1  0.45803225  0.08522021  0.14700412  1
  P  P217  1  0.45720505  0.08332118  0.39673338  1
  P  P218  1  0.45908818  0.08334307  0.64876050  1
  P  P219  1  0.45867497  0.08490037  0.89625842  1
  P  P220  1  0.45742926  0.41870050  0.14704763  1
  P  P221  1  0.45760767  0.41750304  0.39596409  1
  P  P222  1  0.45876457  0.41728012  0.64822043  1
  P  P223  1  0.45763412  0.41726797  0.89514311  1
  P  P224  1  0.45856628  0.75031696  0.14870895  1
  P  P225  1  0.45890966  0.75007820  0.39854690  1
  P  P226  1  0.45959343  0.75048244  0.64785194  1
  P  P227  1  0.45844155  0.74893410  0.89682384  1
  P  P228  1  0.95765271  0.08323569  0.14962725  1
  P  P229  1  0.95827858  0.08447972  0.39663506  1
  P  P230  1  0.95693820  0.08301587  0.64635390  1
  P  P231  1  0.95661398  0.08341539  0.89744717  1
  P  P232  1  0.95673520  0.41561711  0.14751975  1
  P  P233  1  0.95771336  0.41687205  0.39721440  1
  P  P234  1  0.95776937  0.41474378  0.64710708  1
  P  P235  1  0.95734953  0.41778761  0.89737267  1
  P  P236  1  0.95760416  0.75044096  0.14745160  1
  P  P237  1  0.95684272  0.74996896  0.39630728  1
  P  P238  1  0.95779663  0.74727364  0.64792917  1
  P  P239  1  0.95812261  0.74805623  0.89764417  1
  P  P240  1  0.20784932  0.08537485  0.22760830  1
  P  P241  1  0.20728178  0.08314053  0.47948733  1
  P  P242  1  0.20869855  0.08414145  0.72676504  1
  P  P243  1  0.20790988  0.08516287  0.97760841  1
  P  P244  1  0.20737701  0.41683134  0.22963520  1
  P  P245  1  0.20860661  0.41605068  0.47689282  1
  P  P246  1  0.20721416  0.41575216  0.72875748  1
  P  P247  1  0.20749754  0.41497175  0.97738785  1
  P  P248  1  0.20765895  0.74973865  0.22914535  1
  P  P249  1  0.20836647  0.74885993  0.47857764  1
  P  P250  1  0.20919149  0.74950334  0.72603183  1
  P  P251  1  0.20745851  0.75020106  0.97817217  1
  P  P252  1  0.70793756  0.08439578  0.22838442  1
  P  P253  1  0.70847210  0.08307843  0.47666665  1
  P  P254  1  0.70799778  0.08425538  0.72729249  1
  P  P255  1  0.70754921  0.08198118  0.97781393  1
  P  P256  1  0.70714974  0.41500720  0.22791988  1
  P  P257  1  0.70820462  0.41656997  0.47602995  1
  P  P258  1  0.70781520  0.41830722  0.72676723  1
  P  P259  1  0.70697014  0.41778175  0.97698026  1
  P  P260  1  0.70822339  0.75163893  0.22780394  1
  P  P261  1  0.70808713  0.75091001  0.47764594  1
  P  P262  1  0.70843419  0.75179288  0.72742971  1
  P  P263  1  0.70762886  0.75183779  0.97735405  1
  P  P264  1  0.29195571  0.24909406  0.02189473  1
  P  P265  1  0.29225473  0.25131673  0.27262556  1
  P  P266  1  0.29278047  0.24921397  0.52269754  1
  P  P267  1  0.29133671  0.24949927  0.77327648  1
  P  P268  1  0.29309880  0.58273119  0.02188019  1
  P  P269  1  0.29136091  0.58379227  0.27441621  1
  P  P270  1  0.29225352  0.58418422  0.52192752  1
  P  P271  1  0.29298650  0.58365422  0.77090490  1
  P  P272  1  0.29400543  0.91739669  0.02160427  1
  P  P273  1  0.29343327  0.91735245  0.27214771  1
  P  P274  1  0.29212122  0.91679764  0.52400542  1
  P  P275  1  0.29285441  0.91710746  0.77046120  1
  P  P276  1  0.79069417  0.25016329  0.02395461  1
  P  P277  1  0.79038401  0.24957250  0.27305973  1
  P  P278  1  0.79146893  0.24801816  0.52120969  1
  P  P279  1  0.79257419  0.24993702  0.77126022  1
  P  P280  1  0.79223936  0.58332228  0.02104461  1
  P  P281  1  0.79181336  0.58166009  0.27211197  1
  P  P282  1  0.79206685  0.58142401  0.52151279  1
  P  P283  1  0.79181593  0.58186451  0.77172013  1
  P  P284  1  0.79237752  0.91546799  0.02245250  1
  P  P285  1  0.79097075  0.91664956  0.27366136  1
  P  P286  1  0.79235150  0.91510210  0.52191462  1
  P  P287  1  0.79152013  0.91697976  0.77346294  1
  O  O288  1  0.03620517  0.24991924  0.18463194  1
  O  O289  1  0.03615031  0.24933588  0.43179158  1
  O  O290  1  0.03687375  0.24924703  0.68228130  1
  O  O291  1  0.03679883  0.25155404  0.93267266  1
  O  O292  1  0.03633796  0.58288398  0.18150883  1
  O  O293  1  0.03727538  0.58146580  0.43357926  1
  O  O294  1  0.03721322  0.58152883  0.68242733  1
  O  O295  1  0.03682326  0.58416057  0.93310851  1
  O  O296  1  0.03677431  0.91700948  0.18483198  1
  O  O297  1  0.03621271  0.91632865  0.43154342  1
  O  O298  1  0.03819215  0.91550098  0.68326040  1
  O  O299  1  0.03841959  0.91632980  0.93359226  1
  O  O300  1  0.53646285  0.24923028  0.18196806  1
  O  O301  1  0.53726794  0.24938736  0.43191971  1
  O  O302  1  0.53738694  0.25086247  0.68390482  1
  O  O303  1  0.53618608  0.24979252  0.93129249  1
  O  O304  1  0.53656708  0.58471545  0.18252727  1
  O  O305  1  0.53675033  0.58420260  0.43136762  1
  O  O306  1  0.53707553  0.58492124  0.68260346  1
  O  O307  1  0.53699413  0.58435849  0.93093776  1
  O  O308  1  0.53763652  0.91637272  0.18353399  1
  O  O309  1  0.53659185  0.91472490  0.43300426  1
  O  O310  1  0.53708793  0.91614324  0.68335347  1
  O  O311  1  0.53712278  0.91704537  0.93160226  1
  O  O312  1  0.46366364  0.08557123  0.06707473  1
  O  O313  1  0.46236477  0.08368821  0.31678074  1
  O  O314  1  0.46342731  0.08278226  0.56874659  1
  O  O315  1  0.46430877  0.08445674  0.81640349  1
  O  O316  1  0.46250918  0.41867998  0.06706272  1
  O  O317  1  0.46283335  0.41788261  0.31603158  1
  O  O318  1  0.46346356  0.41730172  0.56816406  1
  O  O319  1  0.46316086  0.41702452  0.81527230  1
  O  O320  1  0.46344409  0.74994902  0.06877060  1
  O  O321  1  0.46374599  0.75018955  0.31863118  1
  O  O322  1  0.46448814  0.75097979  0.56797594  1
  O  O323  1  0.46389778  0.74911840  0.81699429  1
  O  O324  1  0.96225420  0.08330348  0.06959396  1
  O  O325  1  0.96382541  0.08430946  0.31675953  1
  O  O326  1  0.96235625  0.08335534  0.56640425  1
  O  O327  1  0.96159625  0.08339190  0.81746903  1
  O  O328  1  0.96191334  0.41651110  0.06761412  1
  O  O329  1  0.96261216  0.41626551  0.31728657  1
  O  O330  1  0.96319773  0.41531628  0.56718791  1
  O  O331  1  0.96265211  0.41682068  0.81746965  1
  O  O332  1  0.96297503  0.74996449  0.06752076  1
  O  O333  1  0.96212755  0.75074063  0.31637164  1
  O  O334  1  0.96254200  0.74781404  0.56792590  1
  O  O335  1  0.96350823  0.74760606  0.81770177  1
  O  O336  1  0.21323767  0.08548699  0.05753150  1
  O  O337  1  0.21270968  0.08486583  0.30759725  1
  O  O338  1  0.21277561  0.08308873  0.55936073  1
  O  O339  1  0.21375030  0.08457817  0.80675477  1
  O  O340  1  0.21253671  0.41538018  0.05739548  1
  O  O341  1  0.21278302  0.41678954  0.30950645  1
  O  O342  1  0.21316420  0.41615314  0.55690805  1
  O  O343  1  0.21245430  0.41521452  0.80865381  1
  O  O344  1  0.21253530  0.75011263  0.05816577  1
  O  O345  1  0.21284382  0.74927646  0.30914047  1
  O  O346  1  0.21376455  0.74905505  0.55846040  1
  O  O347  1  0.21368466  0.74997421  0.80603528  1
  O  O348  1  0.71258889  0.08227614  0.05773091  1
  O  O349  1  0.71282504  0.08460324  0.30822761  1
  O  O350  1  0.71346508  0.08301230  0.55661972  1
  O  O351  1  0.71312759  0.08351015  0.80718755  1
  O  O352  1  0.71180584  0.41687485  0.05691027  1
  O  O353  1  0.71257871  0.41539175  0.30778423  1
  O  O354  1  0.71297314  0.41671688  0.55600750  1
  O  O355  1  0.71297249  0.41849538  0.80669242  1
  O  O356  1  0.71288824  0.75182026  0.05729647  1
  O  O357  1  0.71359879  0.75129172  0.30773168  1
  O  O358  1  0.71359101  0.75075002  0.55755767  1
  O  O359  1  0.71369794  0.75167943  0.80737450  1
  O  O360  1  0.28709761  0.25053652  0.19269446  1
  O  O361  1  0.28754701  0.25025771  0.44277376  1
  O  O362  1  0.28662313  0.24903426  0.69328442  1
  O  O363  1  0.28636182  0.24935951  0.94203931  1
  O  O364  1  0.28684003  0.58344609  0.19439791  1
  O  O365  1  0.28669736  0.58415365  0.44206416  1
  O  O366  1  0.28769053  0.58410678  0.69096423  1
  O  O367  1  0.28825367  0.58275187  0.94188567  1
  O  O368  1  0.28867997  0.91749759  0.19216691  1
  O  O369  1  0.28759094  0.91662424  0.44396544  1
  O  O370  1  0.28729090  0.91713815  0.69056628  1
  O  O371  1  0.28882410  0.91747590  0.94159183  1
  O  O372  1  0.78545273  0.24998755  0.19318191  1
  O  O373  1  0.78572628  0.24816003  0.44138882  1
  O  O374  1  0.78738929  0.24967348  0.69134714  1
  O  O375  1  0.78628333  0.24990096  0.94394599  1
  O  O376  1  0.78665048  0.58198829  0.19218235  1
  O  O377  1  0.78658656  0.58143945  0.44158746  1
  O  O378  1  0.78647229  0.58186964  0.69174425  1
  O  O379  1  0.78683813  0.58327566  0.94111347  1
  O  O380  1  0.78640261  0.91681276  0.19370968  1
  O  O381  1  0.78690076  0.91508093  0.44210283  1
  O  O382  1  0.78676428  0.91681560  0.69345408  1
  O  O383  1  0.78699354  0.91580692  0.94261490  1
  O  O384  1  0.22780762  0.24854223  0.05819698  1
  O  O385  1  0.22795924  0.25216909  0.30835398  1
  O  O386  1  0.22836319  0.24827785  0.55810917  1
  O  O387  1  0.22708490  0.24953809  0.80911747  1
  O  O388  1  0.22853563  0.58293429  0.05667304  1
  O  O389  1  0.22715664  0.58405780  0.31004272  1
  O  O390  1  0.22813008  0.58456051  0.55809572  1
  O  O391  1  0.22868706  0.58307570  0.80630912  1
  O  O392  1  0.22957473  0.91743907  0.05672448  1
  O  O393  1  0.22890733  0.91684642  0.30701182  1
  O  O394  1  0.22781678  0.91729972  0.55935471  1
  O  O395  1  0.22871842  0.91730987  0.80643984  1
  O  O396  1  0.72636504  0.25056388  0.05940263  1
  O  O397  1  0.72632773  0.24903688  0.30925645  1
  O  O398  1  0.72749513  0.24809709  0.55777440  1
  O  O399  1  0.72827154  0.24988611  0.80673515  1
  O  O400  1  0.72799901  0.58348224  0.05660284  1
  O  O401  1  0.72751085  0.58186039  0.30766412  1
  O  O402  1  0.72787475  0.58200279  0.55745433  1
  O  O403  1  0.72758674  0.58207212  0.80758304  1
  O  O404  1  0.72815699  0.91538649  0.05854203  1
  O  O405  1  0.72682240  0.91634053  0.30952135  1
  O  O406  1  0.72823712  0.91515311  0.55817046  1
  O  O407  1  0.72728283  0.91726626  0.80931396  1
  O  O408  1  0.27224202  0.08610622  0.19217119  1
  O  O409  1  0.27158165  0.08367921  0.44389812  1
  O  O410  1  0.27290746  0.08415542  0.69076803  1
  O  O411  1  0.27221269  0.08558270  0.94187029  1
  O  O412  1  0.27159556  0.41665123  0.19383813  1
  O  O413  1  0.27287946  0.41553876  0.44136127  1
  O  O414  1  0.27155989  0.41629463  0.69341259  1
  O  O415  1  0.27182317  0.41434718  0.94184523  1
  O  O416  1  0.27208474  0.74976251  0.19395444  1
  O  O417  1  0.27254923  0.74855926  0.44253934  1
  O  O418  1  0.27350282  0.74920820  0.69062572  1
  O  O419  1  0.27196671  0.75020338  0.94324871  1
  O  O420  1  0.77211334  0.08418072  0.19248906  1
  O  O421  1  0.77254664  0.08355498  0.44061149  1
  O  O422  1  0.77222918  0.08455452  0.69142715  1
  O  O423  1  0.77188780  0.08153398  0.94221152  1
  O  O424  1  0.77128534  0.41439094  0.19174086  1
  O  O425  1  0.77236642  0.41676781  0.44022200  1
  O  O426  1  0.77202413  0.41797533  0.69088805  1
  O  O427  1  0.77142458  0.41835677  0.94161936  1
  O  O428  1  0.77240407  0.75176162  0.19180919  1
  O  O429  1  0.77221888  0.75073936  0.44162858  1
  O  O430  1  0.77262979  0.75150806  0.69151863  1
  O  O431  1  0.77188698  0.75166815  0.94161667  1
  O  O432  1  0.02199240  0.08306130  0.18503107  1
  O  O433  1  0.02230515  0.08490555  0.43303951  1
  O  O434  1  0.02123046  0.08324578  0.68189114  1
  O  O435  1  0.02113325  0.08381225  0.93231048  1
  O  O436  1  0.02110510  0.41459838  0.18305109  1
  O  O437  1  0.02206974  0.41732048  0.43277146  1
  O  O438  1  0.02198582  0.41453946  0.68299239  1
  O  O439  1  0.02160240  0.41835188  0.93318622  1
  O  O440  1  0.02183053  0.75108995  0.18326863  1
  O  O441  1  0.02118547  0.74914319  0.43162946  1
  O  O442  1  0.02230573  0.74704968  0.68307671  1
  O  O443  1  0.02234064  0.74795653  0.93352311  1
  O  O444  1  0.52215848  0.08487819  0.18313469  1
  O  O445  1  0.52157497  0.08282758  0.43198975  1
  O  O446  1  0.52339532  0.08425727  0.68406574  1
  O  O447  1  0.52272225  0.08543158  0.93268176  1
  O  O448  1  0.52175227  0.41849590  0.18251982  1
  O  O449  1  0.52191788  0.41773204  0.43142910  1
  O  O450  1  0.52296517  0.41654221  0.68381846  1
  O  O451  1  0.52170116  0.41747146  0.93122270  1
  O  O452  1  0.52275729  0.75053916  0.18468143  1
  O  O453  1  0.52310396  0.75023645  0.43463611  1
  O  O454  1  0.52364068  0.74977457  0.68411806  1
  O  O455  1  0.52258430  0.74887246  0.93304981  1
  O  O456  1  0.47753692  0.24881602  0.06611371  1
  O  O457  1  0.47789663  0.24889209  0.31645473  1
  O  O458  1  0.47838796  0.25049278  0.56849266  1
  O  O459  1  0.47742198  0.25036951  0.81506603  1
  O  O460  1  0.47785269  0.58573565  0.06643200  1
  O  O461  1  0.47699720  0.58412967  0.31569093  1
  O  O462  1  0.47820773  0.58587987  0.56668175  1
  O  O463  1  0.47770354  0.58505777  0.81493631  1
  O  O464  1  0.47883511  0.91713769  0.06798025  1
  O  O465  1  0.47781101  0.91492695  0.31705959  1
  O  O466  1  0.47796009  0.91496255  0.56759053  1
  O  O467  1  0.47741765  0.91661225  0.81603698  1
  O  O468  1  0.97744935  0.25040895  0.06904961  1
  O  O469  1  0.97671748  0.25015566  0.31593112  1
  O  O470  1  0.97794419  0.24806182  0.56655443  1
  O  O471  1  0.97744281  0.25172569  0.81732250  1
  O  O472  1  0.97727079  0.58288141  0.06557331  1
  O  O473  1  0.97828216  0.58263664  0.31829337  1
  O  O474  1  0.97798102  0.58005440  0.56688339  1
  O  O475  1  0.97817247  0.58412340  0.81704255  1
  O  O476  1  0.97833769  0.91638863  0.06899614  1
  O  O477  1  0.97703613  0.91654834  0.31574133  1
  O  O478  1  0.97848647  0.91609905  0.56849711  1
  O  O479  1  0.97893326  0.91565149  0.81872558  1
  O  O480  1  0.07332455  0.31323239  0.07646502  1
  O  O481  1  0.07145651  0.31405578  0.32401896  1
  O  O482  1  0.07363482  0.31160740  0.57402675  1
  O  O483  1  0.07243592  0.31520663  0.82393578  1
  O  O484  1  0.07235681  0.64675317  0.07382630  1
  O  O485  1  0.07361619  0.64601782  0.32598549  1
  O  O486  1  0.07307787  0.64460173  0.57416843  1
  O  O487  1  0.07327637  0.64743861  0.82408184  1
  O  O488  1  0.07344970  0.98055761  0.07658644  1
  O  O489  1  0.07219538  0.98034521  0.32397585  1
  O  O490  1  0.07416287  0.97915166  0.57509838  1
  O  O491  1  0.07410335  0.97995703  0.82528731  1
  O  O492  1  0.57228683  0.31334858  0.07430611  1
  O  O493  1  0.57331708  0.31248971  0.32387952  1
  O  O494  1  0.57395331  0.31380199  0.57510362  1
  O  O495  1  0.57240351  0.31410164  0.82363483  1
  O  O496  1  0.57291241  0.64893307  0.07413008  1
  O  O497  1  0.57236237  0.64760893  0.32309990  1
  O  O498  1  0.57372274  0.64845479  0.57405503  1
  O  O499  1  0.57347006  0.64769859  0.82293053  1
  O  O500  1  0.57419964  0.98045675  0.07574326  1
  O  O501  1  0.57296355  0.97877233  0.32552858  1
  O  O502  1  0.57312402  0.97918881  0.57486325  1
  O  O503  1  0.57208728  0.98077120  0.82322022  1
  O  O504  1  0.42675876  0.02137934  0.17424219  1
  O  O505  1  0.42600070  0.01972761  0.42474211  1
  O  O506  1  0.42913258  0.01925497  0.67739950  1
  O  O507  1  0.42767238  0.02124135  0.92451888  1
  O  O508  1  0.42617891  0.35497790  0.17447191  1
  O  O509  1  0.42687848  0.35369450  0.42404627  1
  O  O510  1  0.42713875  0.35407044  0.67638338  1
  O  O511  1  0.42650898  0.35381893  0.92374738  1
  O  O512  1  0.42766198  0.68680169  0.17743278  1
  O  O513  1  0.42842440  0.68619301  0.42711050  1
  O  O514  1  0.42802995  0.68711679  0.67582797  1
  O  O515  1  0.42760975  0.68549110  0.92573381  1
  O  O516  1  0.92663725  0.01966624  0.17788264  1
  O  O517  1  0.92725742  0.02066146  0.42441800  1
  O  O518  1  0.92615570  0.01916269  0.67431833  1
  O  O519  1  0.92594060  0.01978914  0.92582351  1
  O  O520  1  0.92566582  0.35218787  0.17600529  1
  O  O521  1  0.92666432  0.35328776  0.42536332  1
  O  O522  1  0.92706020  0.35095007  0.67523937  1
  O  O523  1  0.92604572  0.35450180  0.92586739  1
  O  O524  1  0.92657761  0.68673749  0.17531890  1
  O  O525  1  0.92546245  0.68634390  0.42389157  1
  O  O526  1  0.92718861  0.68351119  0.67608085  1
  O  O527  1  0.92688400  0.68493354  0.92650393  1
  O  O528  1  0.17731266  0.02154232  0.19947497  1
  O  O529  1  0.17641772  0.01961379  0.45082883  1
  O  O530  1  0.17807028  0.02014117  0.69895619  1
  O  O531  1  0.17734210  0.02106829  0.94993078  1
  O  O532  1  0.17592671  0.35365646  0.20110364  1
  O  O533  1  0.17735361  0.35260201  0.44888000  1
  O  O534  1  0.17621365  0.35244076  0.70005428  1
  O  O535  1  0.17640656  0.35146574  0.94935438  1
  O  O536  1  0.17626433  0.68650869  0.20072759  1
  O  O537  1  0.17713385  0.68559190  0.44994433  1
  O  O538  1  0.17811183  0.68589973  0.69814267  1
  O  O539  1  0.17647477  0.68669872  0.94989736  1
  O  O540  1  0.67639705  0.02098938  0.20051362  1
  O  O541  1  0.67838315  0.01878582  0.44844325  1
  O  O542  1  0.67681513  0.02085485  0.69892700  1
  O  O543  1  0.67678241  0.01846685  0.94911322  1
  O  O544  1  0.67595947  0.35169569  0.19928745  1
  O  O545  1  0.67783232  0.35240932  0.44797971  1
  O  O546  1  0.67666193  0.35456886  0.69913076  1
  O  O547  1  0.67607372  0.35426498  0.94837552  1
  O  O548  1  0.67729373  0.68782895  0.19992705  1
  O  O549  1  0.67690225  0.68719989  0.44985448  1
  O  O550  1  0.67726225  0.68815234  0.69961404  1
  O  O551  1  0.67646749  0.68818349  0.94946173  1
  O  O552  1  0.32298863  0.31276564  0.05000438  1
  O  O553  1  0.32335309  0.31485547  0.30072839  1
  O  O554  1  0.32366695  0.31275440  0.55118254  1
  O  O555  1  0.32179754  0.31349155  0.80131828  1
  O  O556  1  0.32419702  0.64613437  0.05021634  1
  O  O557  1  0.32247017  0.64736745  0.30237280  1
  O  O558  1  0.32351107  0.64742837  0.55062147  1
  O  O559  1  0.32406836  0.64697261  0.79942245  1
  O  O560  1  0.32500970  0.98102184  0.04950721  1
  O  O561  1  0.32408686  0.98100678  0.30043631  1
  O  O562  1  0.32340515  0.98017379  0.55217665  1
  O  O563  1  0.32424412  0.98044097  0.79874489  1
  O  O564  1  0.82174332  0.31368085  0.05209610  1
  O  O565  1  0.82075640  0.31342587  0.30200404  1
  O  O566  1  0.82283620  0.31169866  0.54883843  1
  O  O567  1  0.82329347  0.31376209  0.79938743  1
  O  O568  1  0.82332455  0.64689718  0.04916975  1
  O  O569  1  0.82322339  0.64512648  0.29986087  1
  O  O570  1  0.82357279  0.64494977  0.54923009  1
  O  O571  1  0.82289088  0.64571787  0.79922290  1
  O  O572  1  0.82358278  0.97891371  0.05090571  1
  O  O573  1  0.82110725  0.98077164  0.30222519  1
  O  O574  1  0.82361796  0.97877755  0.54969343  1
  O  O575  1  0.82220751  0.98078200  0.80169779  1
  O  O576  1  0.42717223  0.14847273  0.17586636  1
  O  O577  1  0.42623524  0.14657797  0.42543773  1
  O  O578  1  0.42770159  0.14675135  0.67650041  1
  O  O579  1  0.42751086  0.14826927  0.92460850  1
  O  O580  1  0.42695156  0.48227288  0.17573224  1
  O  O581  1  0.42619213  0.48054918  0.42454982  1
  O  O582  1  0.42888882  0.48166204  0.67605948  1
  O  O583  1  0.42622229  0.48058041  0.92318582  1
  O  O584  1  0.42779186  0.81403089  0.17684880  1
  O  O585  1  0.42778740  0.81336116  0.42730338  1
  O  O586  1  0.42937472  0.81422263  0.67703332  1
  O  O587  1  0.42727291  0.81249043  0.92489288  1
  O  O588  1  0.92715041  0.14708708  0.17770173  1
  O  O589  1  0.92714854  0.14776016  0.42521941  1
  O  O590  1  0.92541562  0.14607202  0.67469790  1
  O  O591  1  0.92542292  0.14684033  0.92556734  1
  O  O592  1  0.92602994  0.47927574  0.17568729  1
  O  O593  1  0.92700502  0.48034373  0.42575441  1
  O  O594  1  0.92648865  0.47802555  0.67533710  1
  O  O595  1  0.92675556  0.48157077  0.92540742  1
  O  O596  1  0.92666400  0.81392111  0.17583584  1
  O  O597  1  0.92596979  0.81319922  0.42520339  1
  O  O598  1  0.92694327  0.81084636  0.67617397  1
  O  O599  1  0.92733610  0.81202898  0.92505223  1
  O  O600  1  0.07256531  0.18654037  0.07615531  1
  O  O601  1  0.07198414  0.18663551  0.32332357  1
  O  O602  1  0.07269582  0.18462266  0.57410634  1
  O  O603  1  0.07277985  0.18795861  0.82499140  1
  O  O604  1  0.07204507  0.51909424  0.07355356  1
  O  O605  1  0.07378803  0.51919244  0.32492005  1
  O  O606  1  0.07334302  0.51737815  0.57435007  1
  O  O607  1  0.07356179  0.52063151  0.82530890  1
  O  O608  1  0.07418426  0.85381062  0.07673393  1
  O  O609  1  0.07199553  0.85272983  0.32350635  1
  O  O610  1  0.07370816  0.85215113  0.57499987  1
  O  O611  1  0.07476337  0.85290563  0.82554254  1
  O  O612  1  0.57308614  0.18619140  0.07339808  1
  O  O613  1  0.57274174  0.18520397  0.32377558  1
  O  O614  1  0.57375973  0.18702810  0.57576517  1
  O  O615  1  0.57262436  0.18679085  0.82307076  1
  O  O616  1  0.57312893  0.52195462  0.07418115  1
  O  O617  1  0.57164146  0.52029147  0.32274142  1
  O  O618  1  0.57306090  0.52156701  0.57433571  1
  O  O619  1  0.57173536  0.52035619  0.82239344  1
  O  O620  1  0.57414178  0.85358452  0.07502527  1
  O  O621  1  0.57294775  0.85164485  0.32443743  1
  O  O622  1  0.57333162  0.85229121  0.57485015  1
  O  O623  1  0.57243110  0.85326630  0.82349562  1
  O  O624  1  0.32311742  0.18589252  0.05070300  1
  O  O625  1  0.32303997  0.18779810  0.30105166  1
  O  O626  1  0.32374113  0.18571090  0.55094426  1
  O  O627  1  0.32237174  0.18613057  0.80176486  1
  O  O628  1  0.32376298  0.51909137  0.05014462  1
  O  O629  1  0.32166854  0.51988414  0.30287418  1
  O  O630  1  0.32317296  0.52037977  0.54978320  1
  O  O631  1  0.32414497  0.52006820  0.79866185  1
  O  O632  1  0.32497408  0.85392525  0.04977091  1
  O  O633  1  0.32458579  0.85399606  0.30044782  1
  O  O634  1  0.32225681  0.85265008  0.55220164  1
  O  O635  1  0.32393815  0.85360770  0.79865685  1
  O  O636  1  0.82076818  0.18610871  0.05254958  1
  O  O637  1  0.82189159  0.18634386  0.30130885  1
  O  O638  1  0.82234142  0.18462545  0.54990887  1
  O  O639  1  0.82398790  0.18695198  0.79999727  1
  O  O640  1  0.82348003  0.52005671  0.04931549  1
  O  O641  1  0.82230893  0.51788688  0.30029446  1
  O  O642  1  0.82262146  0.51788650  0.55018609  1
  O  O643  1  0.82265655  0.51857451  0.80051492  1
  O  O644  1  0.82314888  0.85201759  0.05128260  1
  O  O645  1  0.82234788  0.85339360  0.30180673  1
  O  O646  1  0.82322968  0.85183913  0.55107214  1
  O  O647  1  0.82229983  0.85332854  0.80176162  1
  O  O648  1  0.17689029  0.14886983  0.19954388  1
  O  O649  1  0.17579369  0.14629890  0.45095340  1
  O  O650  1  0.17764571  0.14753278  0.69832730  1
  O  O651  1  0.17647701  0.14807639  0.94870516  1
  O  O652  1  0.17634654  0.48028500  0.20104937  1
  O  O653  1  0.17856182  0.48020226  0.44871023  1
  O  O654  1  0.17606023  0.47927136  0.70079921  1
  O  O655  1  0.17691634  0.47878564  0.94940834  1
  O  O656  1  0.17690629  0.81346050  0.20114860  1
  O  O657  1  0.17737754  0.81257887  0.45052291  1
  O  O658  1  0.17881761  0.81339037  0.69752578  1
  O  O659  1  0.17655596  0.81374195  0.95005088  1
  O  O660  1  0.67753620  0.14788169  0.19886709  1
  O  O661  1  0.67672079  0.14608646  0.44852688  1
  O  O662  1  0.67740847  0.14792433  0.69889747  1
  O  O663  1  0.67662232  0.14557837  0.94970090  1
  O  O664  1  0.67627714  0.47865880  0.19968844  1
  O  O665  1  0.67689196  0.47982393  0.44754624  1
  O  O666  1  0.67703803  0.48164045  0.69786379  1
  O  O667  1  0.67629102  0.48146040  0.94862318  1
  O  O668  1  0.67734238  0.81504625  0.19938188  1
  O  O669  1  0.67717217  0.81426310  0.44912866  1
  O  O670  1  0.67776910  0.81534762  0.69904461  1
  O  O671  1  0.67674981  0.81513416  0.94851071  1
