# generated using pymatgen
data_Na2MnFe(PO4)2
_symmetry_space_group_name_H-M   'P 1'
_cell_length_a   22.34273612
_cell_length_b   20.09342841
_cell_length_c   19.44936162
_cell_angle_alpha   89.99060365
_cell_angle_beta   89.93974751
_cell_angle_gamma   89.96153886
_symmetry_Int_Tables_number   1
_chemical_formula_structural   Na2MnFe(PO4)2
_chemical_formula_sum   'Na96 Mn48 Fe48 P96 O384'
_cell_volume   8731.63167726
_cell_formula_units_Z   48
loop_
 _symmetry_equiv_pos_site_id
 _symmetry_equiv_pos_as_xyz
  1  'x, y, z'
loop_
 _atom_site_type_symbol
 _atom_site_label
 _atom_site_symmetry_multiplicity
 _atom_site_fract_x
 _atom_site_fract_y
 _atom_site_fract_z
 _atom_site_occupancy
  Na  Na0  1  0.14095541  0.24929855  0.24363842  1
  Na  Na1  1  0.14071364  0.25067119  0.49454517  1
  Na  Na2  1  0.14071557  0.24971136  0.74426706  1
  Na  Na3  1  0.14056996  0.24849338  0.99412156  1
  Na  Na4  1  0.14040949  0.58343582  0.24235722  1
  Na  Na5  1  0.14049807  0.58413389  0.49423123  1
  Na  Na6  1  0.13986362  0.58408003  0.74291876  1
  Na  Na7  1  0.14014834  0.58305431  0.99257835  1
  Na  Na8  1  0.14053984  0.91513367  0.24264313  1
  Na  Na9  1  0.13984677  0.91702075  0.49441800  1
  Na  Na10  1  0.14038255  0.91626873  0.74315602  1
  Na  Na11  1  0.14022308  0.91510701  0.99365423  1
  Na  Na12  1  0.64140476  0.25101931  0.24398309  1
  Na  Na13  1  0.64151161  0.25062126  0.49303011  1
  Na  Na14  1  0.64072248  0.25127377  0.74527391  1
  Na  Na15  1  0.64050731  0.25096839  0.99419055  1
  Na  Na16  1  0.64032702  0.58225312  0.24299864  1
  Na  Na17  1  0.64042998  0.58237622  0.49294442  1
  Na  Na18  1  0.64049056  0.58301065  0.74410969  1
  Na  Na19  1  0.64087775  0.58322859  0.99314087  1
  Na  Na20  1  0.64046388  0.91843835  0.24433491  1
  Na  Na21  1  0.64037358  0.91810178  0.49251623  1
  Na  Na22  1  0.64038309  0.91663744  0.74484744  1
  Na  Na23  1  0.64061817  0.91738333  0.99364191  1
  Na  Na24  1  0.35928931  0.08275982  0.00827091  1
  Na  Na25  1  0.35940086  0.08304659  0.25591067  1
  Na  Na26  1  0.35929502  0.08358437  0.50689921  1
  Na  Na27  1  0.35946950  0.08384039  0.75688373  1
  Na  Na28  1  0.35896159  0.41625441  0.00631437  1
  Na  Na29  1  0.35962450  0.41718840  0.25593656  1
  Na  Na30  1  0.35992046  0.41817945  0.50593794  1
  Na  Na31  1  0.35952680  0.41778911  0.75568712  1
  Na  Na32  1  0.35920995  0.74996801  0.00654235  1
  Na  Na33  1  0.35949774  0.75001554  0.25512431  1
  Na  Na34  1  0.35871684  0.75184336  0.50560674  1
  Na  Na35  1  0.35925377  0.75125676  0.75578000  1
  Na  Na36  1  0.85932752  0.08431310  0.00614022  1
  Na  Na37  1  0.85911687  0.08336134  0.25716782  1
  Na  Na38  1  0.85985343  0.08249532  0.50577727  1
  Na  Na39  1  0.85979023  0.08273872  0.75679902  1
  Na  Na40  1  0.85924149  0.41542767  0.00630492  1
  Na  Na41  1  0.85927412  0.41541195  0.25585253  1
  Na  Na42  1  0.86003717  0.41603089  0.50606284  1
  Na  Na43  1  0.85940308  0.41686587  0.75733925  1
  Na  Na44  1  0.86052231  0.74885056  0.00612928  1
  Na  Na45  1  0.86006589  0.74940241  0.25668530  1
  Na  Na46  1  0.85922849  0.74931599  0.50575365  1
  Na  Na47  1  0.85949110  0.74875552  0.75834515  1
  Na  Na48  1  0.11006830  0.08194891  0.11754952  1
  Na  Na49  1  0.10951938  0.08159296  0.36878607  1
  Na  Na50  1  0.10957103  0.08259747  0.61939538  1
  Na  Na51  1  0.10983086  0.08150992  0.86894021  1
  Na  Na52  1  0.10968789  0.41632760  0.11838240  1
  Na  Na53  1  0.11002415  0.41569881  0.36885953  1
  Na  Na54  1  0.10970293  0.41663815  0.61938144  1
  Na  Na55  1  0.10956238  0.41609937  0.86861332  1
  Na  Na56  1  0.10979781  0.74927965  0.11817025  1
  Na  Na57  1  0.10976568  0.74985527  0.36804287  1
  Na  Na58  1  0.10968514  0.75075283  0.61900134  1
  Na  Na59  1  0.10964692  0.74897091  0.86766214  1
  Na  Na60  1  0.60988498  0.08416935  0.11951493  1
  Na  Na61  1  0.61022411  0.08367203  0.36869889  1
  Na  Na62  1  0.61000957  0.08391009  0.61903249  1
  Na  Na63  1  0.60963854  0.08419834  0.87053349  1
  Na  Na64  1  0.61036185  0.41787156  0.11786713  1
  Na  Na65  1  0.61071184  0.41856903  0.36769935  1
  Na  Na66  1  0.61053086  0.41809627  0.61890282  1
  Na  Na67  1  0.61016245  0.41699442  0.86872172  1
  Na  Na68  1  0.60989299  0.75079494  0.11885751  1
  Na  Na69  1  0.60924929  0.75103894  0.36799845  1
  Na  Na70  1  0.60968136  0.75048828  0.61882563  1
  Na  Na71  1  0.61000445  0.74933277  0.86872485  1
  Na  Na72  1  0.38973727  0.24999086  0.13233240  1
  Na  Na73  1  0.39037726  0.25152973  0.38161612  1
  Na  Na74  1  0.39068906  0.25178267  0.63111155  1
  Na  Na75  1  0.38993804  0.25015825  0.88242085  1
  Na  Na76  1  0.39044530  0.58452099  0.13040199  1
  Na  Na77  1  0.39025922  0.58423177  0.37964032  1
  Na  Na78  1  0.39003549  0.58421257  0.63065358  1
  Na  Na79  1  0.38972491  0.58382433  0.88001723  1
  Na  Na80  1  0.39002010  0.91663598  0.13146257  1
  Na  Na81  1  0.38956568  0.91715617  0.38096881  1
  Na  Na82  1  0.38966530  0.91795625  0.63127345  1
  Na  Na83  1  0.38998913  0.91722344  0.88255064  1
  Na  Na84  1  0.88950921  0.24993952  0.13143162  1
  Na  Na85  1  0.89008571  0.24889483  0.38202771  1
  Na  Na86  1  0.89064086  0.25003851  0.63129476  1
  Na  Na87  1  0.88971647  0.24965014  0.88232969  1
  Na  Na88  1  0.89031020  0.58339324  0.13080049  1
  Na  Na89  1  0.89051030  0.58212950  0.38071402  1
  Na  Na90  1  0.89010788  0.58332953  0.63242152  1
  Na  Na91  1  0.89013764  0.58248371  0.88177273  1
  Na  Na92  1  0.89029471  0.91483248  0.13124998  1
  Na  Na93  1  0.89003012  0.91545502  0.38124175  1
  Na  Na94  1  0.89022197  0.91572666  0.63127942  1
  Na  Na95  1  0.89042285  0.91437551  0.88114540  1
  Mn  Mn96  1  0.75070469  0.33415160  0.62460362  1
  Mn  Mn97  1  -0.00075329  0.16617415  -0.00063487  1
  Mn  Mn98  1  0.24953347  0.50017597  0.87471452  1
  Mn  Mn99  1  0.24997171  0.83348541  0.87489642  1
  Mn  Mn100  1  0.25007997  0.16604086  0.87530945  1
  Mn  Mn101  1  0.74939996  0.66568198  0.62535273  1
  Mn  Mn102  1  0.00022660  0.16550114  0.25026975  1
  Mn  Mn103  1  0.49960762  0.50129204  -0.00045465  1
  Mn  Mn104  1  -0.00042629  -0.00220994  0.24880567  1
  Mn  Mn105  1  0.74998634  -0.00006939  0.62526749  1
  Mn  Mn106  1  0.49990477  0.83435576  0.24940469  1
  Mn  Mn107  1  0.49968208  0.16718517  0.75047494  1
  Mn  Mn108  1  0.00030021  0.16547876  0.50064453  1
  Mn  Mn109  1  0.49987364  0.00078972  0.75081971  1
  Mn  Mn110  1  0.50004513  0.16642842  0.25121829  1
  Mn  Mn111  1  0.49944510  0.83495499  0.49884980  1
  Mn  Mn112  1  0.24953954  -0.00044311  0.37522580  1
  Mn  Mn113  1  -0.00071056  0.83309771  0.50007214  1
  Mn  Mn114  1  0.24977890  0.49942105  0.12407314  1
  Mn  Mn115  1  0.50067752  0.33469990  0.25027561  1
  Mn  Mn116  1  0.00022710  0.33341960  0.75048701  1
  Mn  Mn117  1  0.75008739  0.00026214  0.87568990  1
  Mn  Mn118  1  0.50048704  0.33464761  0.75033569  1
  Mn  Mn119  1  0.25009314  0.49969327  0.37428565  1
  Mn  Mn120  1  0.24981559  0.16752035  0.37543002  1
  Mn  Mn121  1  0.50018098  0.83332221  0.00050880  1
  Mn  Mn122  1  0.75001833  0.83317037  0.12525717  1
  Mn  Mn123  1  -0.00079476  -0.00214175  -0.00067129  1
  Mn  Mn124  1  0.74993528  0.66551218  0.37517467  1
  Mn  Mn125  1  0.74976304  0.66560061  0.12563456  1
  Mn  Mn126  1  0.49961398  0.66627220  0.74866368  1
  Mn  Mn127  1  0.24956112  0.50055166  0.62493764  1
  Mn  Mn128  1  0.50088915  0.33558344  0.50034598  1
  Mn  Mn129  1  0.49999777  0.83386787  0.75022383  1
  Mn  Mn130  1  0.00005839  0.49986027  0.00001952  1
  Mn  Mn131  1  0.75067259  0.00113524  0.12462878  1
  Mn  Mn132  1  0.00018592  0.33269787  0.25019318  1
  Mn  Mn133  1  0.25038855  0.16748314  0.62587622  1
  Mn  Mn134  1  0.49917119  0.33358720  0.00006993  1
  Mn  Mn135  1  0.24970158  0.66786009  0.37405440  1
  Mn  Mn136  1  0.75047152  0.16704947  0.62521330  1
  Mn  Mn137  1  0.74989984  0.83280992  0.62501544  1
  Mn  Mn138  1  0.00026106  0.16571204  0.75002590  1
  Mn  Mn139  1  0.49965127  0.66665640  0.49903257  1
  Mn  Mn140  1  -0.00021545  0.50037573  0.24931402  1
  Mn  Mn141  1  -0.00024666  0.66649068  0.50054355  1
  Mn  Mn142  1  0.50048511  0.16688257  0.50046384  1
  Mn  Mn143  1  0.00098386  0.49949195  0.50035988  1
  Fe  Fe144  1  -0.00061029  -0.00127792  0.74989215  1
  Fe  Fe145  1  0.24993147  0.16616514  0.12504196  1
  Fe  Fe146  1  0.24965085  0.33269462  0.12510729  1
  Fe  Fe147  1  0.75059872  0.49910642  0.12416452  1
  Fe  Fe148  1  -0.00015429  0.83248077  0.75014492  1
  Fe  Fe149  1  0.74945865  0.83331690  0.37525412  1
  Fe  Fe150  1  0.49975496  0.00068059  0.24996226  1
  Fe  Fe151  1  0.00043340  0.83165166  -0.00057380  1
  Fe  Fe152  1  0.50039839  0.50118733  0.49913112  1
  Fe  Fe153  1  0.74975109  0.16768519  0.12604755  1
  Fe  Fe154  1  0.24948394  0.83371690  0.37455577  1
  Fe  Fe155  1  0.75022496  0.83276887  0.87509149  1
  Fe  Fe156  1  0.25000374  -0.00041537  0.87553559  1
  Fe  Fe157  1  0.24999768  0.66644061  0.12425589  1
  Fe  Fe158  1  0.24991974  0.66791072  0.62411293  1
  Fe  Fe159  1  -0.00048989  0.49971947  0.75036879  1
  Fe  Fe160  1  0.74989927  0.49969250  0.87512418  1
  Fe  Fe161  1  0.24960901  0.00039142  0.62529673  1
  Fe  Fe162  1  0.74977966  0.16737929  0.87569917  1
  Fe  Fe163  1  0.75024829  0.33363035  0.87565685  1
  Fe  Fe164  1  0.24982839  -0.00083869  0.12543897  1
  Fe  Fe165  1  0.25025491  0.33388377  0.62522130  1
  Fe  Fe166  1  0.50002433  0.66722831  0.24964651  1
  Fe  Fe167  1  -0.00020368  0.66627536  0.75060296  1
  Fe  Fe168  1  0.75059077  0.16702307  0.37480539  1
  Fe  Fe169  1  0.00003943  -0.00107047  0.50005317  1
  Fe  Fe170  1  0.00039563  0.66623636  -0.00027702  1
  Fe  Fe171  1  0.49953664  0.00070697  0.50026293  1
  Fe  Fe172  1  0.25025406  0.33350789  0.37478092  1
  Fe  Fe173  1  0.24991250  0.83438205  0.62529716  1
  Fe  Fe174  1  0.75068950  0.49903044  0.37415781  1
  Fe  Fe175  1  0.00002510  0.33289518  -0.00005217  1
  Fe  Fe176  1  0.24969926  0.66715043  0.87429971  1
  Fe  Fe177  1  0.50020399  0.00047198  0.00082861  1
  Fe  Fe178  1  0.75040309  0.49981123  0.62526552  1
  Fe  Fe179  1  0.00012784  0.33304114  0.50042926  1
  Fe  Fe180  1  0.75034536  0.00045881  0.37478559  1
  Fe  Fe181  1  0.00044202  0.66656145  0.24963122  1
  Fe  Fe182  1  0.75000097  0.33339269  0.12488406  1
  Fe  Fe183  1  0.50022475  0.50128449  0.24893538  1
  Fe  Fe184  1  0.75008362  0.66590640  0.87543004  1
  Fe  Fe185  1  0.24960424  0.83271923  0.12415345  1
  Fe  Fe186  1  0.00002117  0.83190531  0.24990220  1
  Fe  Fe187  1  0.25004718  0.33297481  0.87539205  1
  Fe  Fe188  1  0.49990416  0.50067767  0.75003383  1
  Fe  Fe189  1  0.49991705  0.16680328  0.00125541  1
  Fe  Fe190  1  0.50040591  0.66689257  -0.00035393  1
  Fe  Fe191  1  0.75053036  0.33361242  0.37415990  1
  P  P192  1  0.04182725  0.25029818  0.10219062  1
  P  P193  1  0.04292802  0.24918356  0.35390578  1
  P  P194  1  0.04240825  0.25083176  0.60275141  1
  P  P195  1  0.04269230  0.24962152  0.85369776  1
  P  P196  1  0.04236830  0.58480089  0.10229329  1
  P  P197  1  0.04275465  0.58407255  0.35205541  1
  P  P198  1  0.04258420  0.58339692  0.60450120  1
  P  P199  1  0.04144449  0.58279048  0.85187664  1
  P  P200  1  0.04184105  0.91351574  0.10210765  1
  P  P201  1  0.04232596  0.91454755  0.35211868  1
  P  P202  1  0.04155271  0.91717974  0.60331282  1
  P  P203  1  0.04137945  0.91517550  0.85152451  1
  P  P204  1  0.54200091  0.24956633  0.10293631  1
  P  P205  1  0.54324927  0.25086431  0.35344411  1
  P  P206  1  0.54357268  0.25120213  0.60328189  1
  P  P207  1  0.54236147  0.25007687  0.85417966  1
  P  P208  1  0.54254391  0.58535442  0.10276839  1
  P  P209  1  0.54163577  0.58381226  0.35111542  1
  P  P210  1  0.54241136  0.58253767  0.60213681  1
  P  P211  1  0.54225520  0.58294895  0.85237724  1
  P  P212  1  0.54239778  0.91852731  0.10297672  1
  P  P213  1  0.54187136  0.91899324  0.35247037  1
  P  P214  1  0.54250027  0.91840124  0.60228694  1
  P  P215  1  0.54258295  0.91727812  0.85429445  1
  P  P216  1  0.45794125  0.08265575  0.14730171  1
  P  P217  1  0.45740671  0.08239504  0.39767168  1
  P  P218  1  0.45701082  0.08376243  0.64690088  1
  P  P219  1  0.45803124  0.08384180  0.89974262  1
  P  P220  1  0.45775298  0.41856178  0.14741286  1
  P  P221  1  0.45826341  0.41948595  0.39666345  1
  P  P222  1  0.45808023  0.41934741  0.64713747  1
  P  P223  1  0.45683055  0.41765698  0.89642393  1
  P  P224  1  0.45825725  0.74912123  0.14694513  1
  P  P225  1  0.45694108  0.75034650  0.39568543  1
  P  P226  1  0.45686652  0.75092877  0.64629261  1
  P  P227  1  0.45762857  0.74886243  0.89754315  1
  P  P228  1  0.95681752  0.08238325  0.14658445  1
  P  P229  1  0.95802121  0.08088991  0.39763303  1
  P  P230  1  0.95778064  0.08125443  0.64730959  1
  P  P231  1  0.95697747  0.08165648  0.89606081  1
  P  P232  1  0.95737189  0.41619422  0.14632380  1
  P  P233  1  0.95817187  0.41532131  0.39779575  1
  P  P234  1  0.95753166  0.41755008  0.64771277  1
  P  P235  1  0.95789087  0.41551849  0.89759123  1
  P  P236  1  0.95848897  0.74918327  0.14753606  1
  P  P237  1  0.95724765  0.74929111  0.39625036  1
  P  P238  1  0.95792055  0.74962080  0.64914467  1
  P  P239  1  0.95903518  0.74878072  0.89755473  1
  P  P240  1  0.20840026  0.08285337  0.22656287  1
  P  P241  1  0.20733473  0.08353336  0.47885165  1
  P  P242  1  0.20794747  0.08214568  0.72824927  1
  P  P243  1  0.20787870  0.08120619  0.97840628  1
  P  P244  1  0.20757139  0.41495876  0.22730996  1
  P  P245  1  0.20808203  0.41560604  0.47765758  1
  P  P246  1  0.20773659  0.41546081  0.72801987  1
  P  P247  1  0.20770148  0.41482943  0.97772840  1
  P  P248  1  0.20864736  0.74987037  0.22592145  1
  P  P249  1  0.20759083  0.75203844  0.47766157  1
  P  P250  1  0.20870311  0.75034371  0.72644113  1
  P  P251  1  0.20782266  0.74867936  0.97749163  1
  P  P252  1  0.70837613  0.08503064  0.22846923  1
  P  P253  1  0.70900757  0.08397669  0.47631810  1
  P  P254  1  0.70748816  0.08402653  0.72898112  1
  P  P255  1  0.70811370  0.08560294  0.97842330  1
  P  P256  1  0.70902286  0.41663726  0.22658394  1
  P  P257  1  0.70906815  0.41677913  0.47615113  1
  P  P258  1  0.70835491  0.41812160  0.72823318  1
  P  P259  1  0.70871252  0.41687250  0.97719723  1
  P  P260  1  0.70744615  0.74997199  0.22903048  1
  P  P261  1  0.70729395  0.75041264  0.47725602  1
  P  P262  1  0.70746697  0.74949317  0.72932555  1
  P  P263  1  0.70896678  0.74963516  0.97678654  1
  P  P264  1  0.29124100  0.24966904  0.02345357  1
  P  P265  1  0.29237318  0.25120988  0.27194165  1
  P  P266  1  0.29262470  0.25212140  0.52259829  1
  P  P267  1  0.29231732  0.25145271  0.77273303  1
  P  P268  1  0.29171883  0.58450341  0.02148143  1
  P  P269  1  0.29222127  0.58368064  0.27061718  1
  P  P270  1  0.29196785  0.58528986  0.52208846  1
  P  P271  1  0.29142119  0.58538032  0.77159114  1
  P  P272  1  0.29120726  0.91658923  0.02335536  1
  P  P273  1  0.29162644  0.91546020  0.27164534  1
  P  P274  1  0.29092598  0.91714534  0.52335829  1
  P  P275  1  0.29211281  0.91827721  0.77232027  1
  P  P276  1  0.79098586  0.24995517  0.02319289  1
  P  P277  1  0.79168030  0.24995078  0.27276482  1
  P  P278  1  0.79321028  0.25000724  0.52109126  1
  P  P279  1  0.79172711  0.25031106  0.77404952  1
  P  P280  1  0.79199024  0.58169660  0.02174825  1
  P  P281  1  0.79235033  0.58108638  0.27184405  1
  P  P282  1  0.79223308  0.58122102  0.52234465  1
  P  P283  1  0.79134105  0.58260703  0.77358620  1
  P  P284  1  0.79275082  0.91624020  0.02152235  1
  P  P285  1  0.79125324  0.91658279  0.27357742  1
  P  P286  1  0.79223687  0.91646752  0.52095223  1
  P  P287  1  0.79217212  0.91545315  0.77308312  1
  O  O288  1  0.03697186  0.24991950  0.18221575  1
  O  O289  1  0.03766822  0.24959808  0.43386448  1
  O  O290  1  0.03724363  0.25056774  0.68272305  1
  O  O291  1  0.03726798  0.25014006  0.93363943  1
  O  O292  1  0.03734146  0.58503299  0.18224234  1
  O  O293  1  0.03788470  0.58363505  0.43207442  1
  O  O294  1  0.03710710  0.58323969  0.68440482  1
  O  O295  1  0.03657403  0.58319593  0.93188233  1
  O  O296  1  0.03665483  0.91335172  0.18203208  1
  O  O297  1  0.03732912  0.91530353  0.43208728  1
  O  O298  1  0.03611302  0.91705628  0.68316082  1
  O  O299  1  0.03639663  0.91432415  0.93149274  1
  O  O300  1  0.53717442  0.24990252  0.18292660  1
  O  O301  1  0.53844555  0.25113645  0.43340863  1
  O  O302  1  0.53825874  0.25119243  0.68328186  1
  O  O303  1  0.53674108  0.24952168  0.93412317  1
  O  O304  1  0.53709728  0.58513787  0.18266778  1
  O  O305  1  0.53660303  0.58319258  0.43110881  1
  O  O306  1  0.53720328  0.58221985  0.68209286  1
  O  O307  1  0.53721402  0.58396110  0.93232258  1
  O  O308  1  0.53704162  0.91851142  0.18291910  1
  O  O309  1  0.53650346  0.91907852  0.43241294  1
  O  O310  1  0.53762723  0.91790604  0.68235367  1
  O  O311  1  0.53741588  0.91752400  0.93427089  1
  O  O312  1  0.46350347  0.08306292  0.06743623  1
  O  O313  1  0.46258138  0.08229684  0.31767842  1
  O  O314  1  0.46198235  0.08332027  0.56694419  1
  O  O315  1  0.46273749  0.08396067  0.81969512  1
  O  O316  1  0.46253483  0.41806784  0.06741958  1
  O  O317  1  0.46350128  0.41931805  0.31670147  1
  O  O318  1  0.46346277  0.41963752  0.56716575  1
  O  O319  1  0.46214968  0.41785374  0.81646900  1
  O  O320  1  0.46373573  0.74898169  0.06702010  1
  O  O321  1  0.46251157  0.75004004  0.31574682  1
  O  O322  1  0.46168366  0.75111498  0.56630996  1
  O  O323  1  0.46274390  0.74936501  0.81755270  1
  O  O324  1  0.96154192  0.08251330  0.06656760  1
  O  O325  1  0.96308895  0.08125127  0.31765376  1
  O  O326  1  0.96322980  0.08122403  0.56734224  1
  O  O327  1  0.96238628  0.08141586  0.81611692  1
  O  O328  1  0.96275636  0.41561269  0.06638529  1
  O  O329  1  0.96305904  0.41572725  0.31782185  1
  O  O330  1  0.96297080  0.41680969  0.56778244  1
  O  O331  1  0.96293454  0.41631751  0.81763633  1
  O  O332  1  0.96376173  0.74926126  0.06761746  1
  O  O333  1  0.96249300  0.74914957  0.31633748  1
  O  O334  1  0.96259242  0.74980190  0.56913824  1
  O  O335  1  0.96403922  0.74865606  0.81766793  1
  O  O336  1  0.21308176  0.08134242  0.05828948  1
  O  O337  1  0.21311969  0.08339788  0.30656359  1
  O  O338  1  0.21272565  0.08330772  0.55878188  1
  O  O339  1  0.21335854  0.08189278  0.80819730  1
  O  O340  1  0.21309967  0.41488668  0.05765817  1
  O  O341  1  0.21284954  0.41512774  0.30725413  1
  O  O342  1  0.21335878  0.41590323  0.55762808  1
  O  O343  1  0.21327204  0.41548461  0.80793626  1
  O  O344  1  0.21323744  0.74862367  0.05731131  1
  O  O345  1  0.21309590  0.75069710  0.30586029  1
  O  O346  1  0.21309667  0.75179471  0.55748550  1
  O  O347  1  0.21349686  0.75015810  0.80641693  1
  O  O348  1  0.71361179  0.08561686  0.05833918  1
  O  O349  1  0.71399044  0.08465918  0.30832442  1
  O  O350  1  0.71355365  0.08350786  0.55633705  1
  O  O351  1  0.71259262  0.08431911  0.80893398  1
  O  O352  1  0.71372481  0.41676944  0.05705650  1
  O  O353  1  0.71418353  0.41658360  0.30644264  1
  O  O354  1  0.71378418  0.41683547  0.55610603  1
  O  O355  1  0.71358268  0.41800125  0.80806725  1
  O  O356  1  0.71350517  0.74914538  0.05682488  1
  O  O357  1  0.71282180  0.75045779  0.30893060  1
  O  O358  1  0.71215224  0.75001194  0.55729683  1
  O  O359  1  0.71295599  0.74955935  0.80923469  1
  O  O360  1  0.28683282  0.25073000  0.19208766  1
  O  O361  1  0.28734776  0.25199707  0.44264465  1
  O  O362  1  0.28704859  0.25158361  0.69279840  1
  O  O363  1  0.28648721  0.24935374  0.94347814  1
  O  O364  1  0.28688543  0.58364150  0.19068306  1
  O  O365  1  0.28673407  0.58483681  0.44213291  1
  O  O366  1  0.28596301  0.58547281  0.69166828  1
  O  O367  1  0.28622831  0.58462992  0.94154140  1
  O  O368  1  0.28630950  0.91571379  0.19181067  1
  O  O369  1  0.28609384  0.91655160  0.44339308  1
  O  O370  1  0.28666473  0.91849917  0.69248874  1
  O  O371  1  0.28656342  0.91682566  0.94339050  1
  O  O372  1  0.78636485  0.25011734  0.19291029  1
  O  O373  1  0.78810826  0.24980617  0.44122773  1
  O  O374  1  0.78714400  0.25084709  0.69404769  1
  O  O375  1  0.78604851  0.24999408  0.94331556  1
  O  O376  1  0.78702233  0.58114289  0.19191313  1
  O  O377  1  0.78716746  0.58129924  0.44238204  1
  O  O378  1  0.78673344  0.58287648  0.69361413  1
  O  O379  1  0.78647031  0.58204739  0.94189140  1
  O  O380  1  0.78677615  0.91709283  0.19354167  1
  O  O381  1  0.78681385  0.91628339  0.44103719  1
  O  O382  1  0.78716180  0.91566041  0.69310098  1
  O  O383  1  0.78728690  0.91562626  0.94163630  1
  O  O384  1  0.22706664  0.25003618  0.05941066  1
  O  O385  1  0.22821367  0.25184212  0.30825843  1
  O  O386  1  0.22838765  0.25203116  0.55855661  1
  O  O387  1  0.22807957  0.25101585  0.80861177  1
  O  O388  1  0.22753449  0.58434229  0.05743125  1
  O  O389  1  0.22801267  0.58363019  0.30628927  1
  O  O390  1  0.22774455  0.58538379  0.55794970  1
  O  O391  1  0.22728160  0.58508604  0.80776932  1
  O  O392  1  0.22699946  0.91688691  0.05918973  1
  O  O393  1  0.22744141  0.91528750  0.30784537  1
  O  O394  1  0.22679815  0.91736925  0.55941864  1
  O  O395  1  0.22791492  0.91816064  0.80852479  1
  O  O396  1  0.72697950  0.24984396  0.05968738  1
  O  O397  1  0.72772318  0.24957836  0.30934783  1
  O  O398  1  0.72891312  0.25042356  0.55677618  1
  O  O399  1  0.72748043  0.25011025  0.80975649  1
  O  O400  1  0.72792268  0.58133135  0.05813554  1
  O  O401  1  0.72812922  0.58103158  0.30777968  1
  O  O402  1  0.72787787  0.58112388  0.55803090  1
  O  O403  1  0.72714919  0.58231900  0.80942005  1
  O  O404  1  0.72848910  0.91695085  0.05712155  1
  O  O405  1  0.72703135  0.91658768  0.30919206  1
  O  O406  1  0.72800847  0.91656172  0.55678818  1
  O  O407  1  0.72790481  0.91540490  0.80871521  1
  O  O408  1  0.27261426  0.08221816  0.19078342  1
  O  O409  1  0.27154218  0.08348635  0.44310376  1
  O  O410  1  0.27211868  0.08238234  0.69227771  1
  O  O411  1  0.27209241  0.08130197  0.94232450  1
  O  O412  1  0.27183014  0.41495786  0.19146918  1
  O  O413  1  0.27230908  0.41543762  0.44165441  1
  O  O414  1  0.27188419  0.41578999  0.69181356  1
  O  O415  1  0.27186622  0.41543298  0.94170654  1
  O  O416  1  0.27284681  0.74942060  0.19011874  1
  O  O417  1  0.27171158  0.75227248  0.44127627  1
  O  O418  1  0.27278322  0.75023862  0.69034937  1
  O  O419  1  0.27197818  0.74874718  0.94126474  1
  O  O420  1  0.77244791  0.08548031  0.19210641  1
  O  O421  1  0.77323676  0.08439957  0.44061121  1
  O  O422  1  0.77189340  0.08349111  0.69365207  1
  O  O423  1  0.77220565  0.08538878  0.94221905  1
  O  O424  1  0.77305317  0.41662979  0.19013989  1
  O  O425  1  0.77330755  0.41676099  0.44027671  1
  O  O426  1  0.77254663  0.41826450  0.69203321  1
  O  O427  1  0.77276776  0.41719810  0.94085834  1
  O  O428  1  0.77173136  0.74956370  0.19345223  1
  O  O429  1  0.77168284  0.75025908  0.44198139  1
  O  O430  1  0.77167966  0.74913704  0.69346464  1
  O  O431  1  0.77320903  0.74988195  0.94119677  1
  O  O432  1  0.02140254  0.08189611  0.18115181  1
  O  O433  1  0.02229481  0.08087920  0.43321271  1
  O  O434  1  0.02198620  0.08107068  0.68310197  1
  O  O435  1  0.02120014  0.08183674  0.93156005  1
  O  O436  1  0.02166845  0.41657762  0.18164620  1
  O  O437  1  0.02252297  0.41480884  0.43319467  1
  O  O438  1  0.02179288  0.41828435  0.68342458  1
  O  O439  1  0.02216322  0.41525028  0.93311273  1
  O  O440  1  0.02258857  0.74927469  0.18392230  1
  O  O441  1  0.02148145  0.74959970  0.43185052  1
  O  O442  1  0.02227827  0.74925436  0.68448824  1
  O  O443  1  0.02314195  0.74921973  0.93369569  1
  O  O444  1  0.52205848  0.08230449  0.18348908  1
  O  O445  1  0.52178444  0.08201764  0.43315375  1
  O  O446  1  0.52147277  0.08390818  0.68184925  1
  O  O447  1  0.52236440  0.08401469  0.93515821  1
  O  O448  1  0.52221511  0.41899919  0.18248559  1
  O  O449  1  0.52262238  0.41972415  0.43220762  1
  O  O450  1  0.52232160  0.41947624  0.68292845  1
  O  O451  1  0.52114745  0.41733936  0.93171316  1
  O  O452  1  0.52235543  0.74952285  0.18287593  1
  O  O453  1  0.52116365  0.75065505  0.43122999  1
  O  O454  1  0.52133504  0.75052996  0.68119431  1
  O  O455  1  0.52201936  0.74889180  0.93292376  1
  O  O456  1  0.47758352  0.24923422  0.06777027  1
  O  O457  1  0.47875885  0.25106038  0.31868235  1
  O  O458  1  0.47919297  0.25134999  0.56820408  1
  O  O459  1  0.47814970  0.25088671  0.81858450  1
  O  O460  1  0.47831904  0.58595616  0.06676392  1
  O  O461  1  0.47750211  0.58364790  0.31512067  1
  O  O462  1  0.47807584  0.58228420  0.56657999  1
  O  O463  1  0.47794268  0.58218220  0.81676159  1
  O  O464  1  0.47813379  0.91814407  0.06735068  1
  O  O465  1  0.47765889  0.91880725  0.31666052  1
  O  O466  1  0.47796487  0.91900598  0.56717552  1
  O  O467  1  0.47819822  0.91719217  0.81911155  1
  O  O468  1  0.97744437  0.25060060  0.06695283  1
  O  O469  1  0.97851005  0.24896193  0.31876766  1
  O  O470  1  0.97817853  0.25059262  0.56717185  1
  O  O471  1  0.97839440  0.24938621  0.81841137  1
  O  O472  1  0.97807289  0.58445362  0.06683658  1
  O  O473  1  0.97833930  0.58473539  0.31678437  1
  O  O474  1  0.97839771  0.58279659  0.56877576  1
  O  O475  1  0.97723328  0.58262540  0.81602148  1
  O  O476  1  0.97761039  0.91319320  0.06640940  1
  O  O477  1  0.97794501  0.91387747  0.31668831  1
  O  O478  1  0.97747835  0.91765140  0.56704532  1
  O  O479  1  0.97717339  0.91534743  0.81575814  1
  O  O480  1  0.07249866  0.31394599  0.07387861  1
  O  O481  1  0.07410563  0.31233099  0.32517134  1
  O  O482  1  0.07274436  0.31464135  0.57441239  1
  O  O483  1  0.07399662  0.31278768  0.82521549  1
  O  O484  1  0.07308502  0.64803122  0.07305448  1
  O  O485  1  0.07376295  0.64744453  0.32365738  1
  O  O486  1  0.07329287  0.64707770  0.57609986  1
  O  O487  1  0.07231550  0.64629667  0.82334651  1
  O  O488  1  0.07245460  0.97756738  0.07445106  1
  O  O489  1  0.07325518  0.97805544  0.32366058  1
  O  O490  1  0.07273099  0.98034579  0.57438193  1
  O  O491  1  0.07199723  0.97916061  0.82382032  1
  O  O492  1  0.57282041  0.31330550  0.07498475  1
  O  O493  1  0.57442018  0.31412528  0.32497299  1
  O  O494  1  0.57467963  0.31471227  0.57526646  1
  O  O495  1  0.57380952  0.31356575  0.82647504  1
  O  O496  1  0.57379041  0.64849595  0.07391305  1
  O  O497  1  0.57206630  0.64801010  0.32359085  1
  O  O498  1  0.57292287  0.64666660  0.57446948  1
  O  O499  1  0.57311226  0.64636547  0.82374660  1
  O  O500  1  0.57316330  0.98195103  0.07430480  1
  O  O501  1  0.57277179  0.98228202  0.32371801  1
  O  O502  1  0.57334354  0.98190686  0.57394575  1
  O  O503  1  0.57378177  0.98060022  0.82594936  1
  O  O504  1  0.42686247  0.01923144  0.17575322  1
  O  O505  1  0.42620305  0.01926820  0.42642709  1
  O  O506  1  0.42588005  0.02063960  0.67582817  1
  O  O507  1  0.42756200  0.01990374  0.92780866  1
  O  O508  1  0.42698582  0.35490546  0.17556594  1
  O  O509  1  0.42754676  0.35568077  0.42481000  1
  O  O510  1  0.42728471  0.35536259  0.67464749  1
  O  O511  1  0.42567755  0.35422052  0.92470562  1
  O  O512  1  0.42739795  0.68584542  0.17579816  1
  O  O513  1  0.42580800  0.68700444  0.42401172  1
  O  O514  1  0.42580039  0.68739199  0.67425029  1
  O  O515  1  0.42709551  0.68516384  0.92571875  1
  O  O516  1  0.92567269  0.01886817  0.17455274  1
  O  O517  1  0.92750222  0.01712873  0.42574764  1
  O  O518  1  0.92661573  0.01811200  0.67605853  1
  O  O519  1  0.92575816  0.01838988  0.92440064  1
  O  O520  1  0.92612202  0.35309209  0.17504383  1
  O  O521  1  0.92743624  0.35176473  0.42619699  1
  O  O522  1  0.92653646  0.35397246  0.67590253  1
  O  O523  1  0.92737506  0.35172525  0.92596576  1
  O  O524  1  0.92772330  0.68547948  0.17596701  1
  O  O525  1  0.92621194  0.68588508  0.42493698  1
  O  O526  1  0.92693030  0.68606959  0.67732180  1
  O  O527  1  0.92849122  0.68501464  0.92624213  1
  O  O528  1  0.17701377  0.01936419  0.19900316  1
  O  O529  1  0.17599071  0.02035661  0.45043535  1
  O  O530  1  0.17696933  0.01896076  0.69938089  1
  O  O531  1  0.17698988  0.01783867  0.94955894  1
  O  O532  1  0.17658836  0.35167982  0.19869402  1
  O  O533  1  0.17708384  0.35234593  0.44915457  1
  O  O534  1  0.17690026  0.35209062  0.69947370  1
  O  O535  1  0.17718945  0.35125830  0.94924465  1
  O  O536  1  0.17773312  0.68611915  0.19810040  1
  O  O537  1  0.17645706  0.68842350  0.44961982  1
  O  O538  1  0.17737906  0.68715998  0.69803028  1
  O  O539  1  0.17690957  0.68546163  0.94839502  1
  O  O540  1  0.67745301  0.02141559  0.20018547  1
  O  O541  1  0.67877262  0.02008787  0.44767265  1
  O  O542  1  0.67636747  0.02050431  0.70085541  1
  O  O543  1  0.67702410  0.02177373  0.95107150  1
  O  O544  1  0.67815007  0.35299481  0.19810883  1
  O  O545  1  0.67872200  0.35291249  0.44756011  1
  O  O546  1  0.67730768  0.35451982  0.70012545  1
  O  O547  1  0.67832629  0.35296399  0.94860584  1
  O  O548  1  0.67644771  0.68633292  0.20118707  1
  O  O549  1  0.67612137  0.68682069  0.44956341  1
  O  O550  1  0.67609192  0.68622619  0.70086495  1
  O  O551  1  0.67858987  0.68576140  0.94832102  1
  O  O552  1  0.32265818  0.31301312  0.05133987  1
  O  O553  1  0.32364101  0.31444826  0.30043396  1
  O  O554  1  0.32357499  0.31544898  0.55115759  1
  O  O555  1  0.32301379  0.31484385  0.80147814  1
  O  O556  1  0.32269548  0.64771355  0.05030291  1
  O  O557  1  0.32346169  0.64696878  0.29877067  1
  O  O558  1  0.32269476  0.64895253  0.55008603  1
  O  O559  1  0.32232305  0.64874996  0.80014337  1
  O  O560  1  0.32263149  0.97957232  0.05205462  1
  O  O561  1  0.32266278  0.97902015  0.29990927  1
  O  O562  1  0.32171679  0.98098236  0.55116960  1
  O  O563  1  0.32308280  0.98139291  0.80155760  1
  O  O564  1  0.82155333  0.31380788  0.05165741  1
  O  O565  1  0.82207528  0.31390970  0.30118326  1
  O  O566  1  0.82441646  0.31329197  0.54967377  1
  O  O567  1  0.82209133  0.31412468  0.80270490  1
  O  O568  1  0.82299257  0.64531144  0.04991699  1
  O  O569  1  0.82326181  0.64483469  0.29960233  1
  O  O570  1  0.82298789  0.64508583  0.55026982  1
  O  O571  1  0.82152861  0.64655109  0.80239435  1
  O  O572  1  0.82399360  0.97983863  0.04912852  1
  O  O573  1  0.82187744  0.98036605  0.30194198  1
  O  O574  1  0.82334108  0.97987058  0.54939392  1
  O  O575  1  0.82329961  0.97901247  0.80073689  1
  O  O576  1  0.42684344  0.14622271  0.17560490  1
  O  O577  1  0.42680875  0.14650436  0.42530348  1
  O  O578  1  0.42610942  0.14750181  0.67498564  1
  O  O579  1  0.42711504  0.14746457  0.92802657  1
  O  O580  1  0.42695277  0.48225501  0.17540138  1
  O  O581  1  0.42708878  0.48275007  0.42517659  1
  O  O582  1  0.42685012  0.48246449  0.67599559  1
  O  O583  1  0.42564077  0.48104256  0.92462378  1
  O  O584  1  0.42692203  0.81293717  0.17418574  1
  O  O585  1  0.42570942  0.81393330  0.42352695  1
  O  O586  1  0.42617997  0.81444283  0.67493841  1
  O  O587  1  0.42639974  0.81236252  0.92564703  1
  O  O588  1  0.92620405  0.14593783  0.17519404  1
  O  O589  1  0.92681587  0.14439006  0.42560414  1
  O  O590  1  0.92692435  0.14532200  0.67474568  1
  O  O591  1  0.92583031  0.14528364  0.92397416  1
  O  O592  1  0.92641084  0.48001283  0.17403320  1
  O  O593  1  0.92741535  0.47914953  0.42564884  1
  O  O594  1  0.92657812  0.48106034  0.67612058  1
  O  O595  1  0.92662070  0.47890459  0.92576984  1
  O  O596  1  0.92739080  0.81264512  0.17619784  1
  O  O597  1  0.92589660  0.81255897  0.42482179  1
  O  O598  1  0.92743563  0.81351685  0.67736701  1
  O  O599  1  0.92780183  0.81218993  0.92599761  1
  O  O600  1  0.07277829  0.18654440  0.07441330  1
  O  O601  1  0.07386380  0.18544263  0.32579725  1
  O  O602  1  0.07385366  0.18723401  0.57537108  1
  O  O603  1  0.07379129  0.18592262  0.82586492  1
  O  O604  1  0.07356848  0.52105360  0.07465856  1
  O  O605  1  0.07332150  0.52018792  0.32395248  1
  O  O606  1  0.07438875  0.52039399  0.57589649  1
  O  O607  1  0.07211072  0.51883766  0.82404750  1
  O  O608  1  0.07315542  0.85050431  0.07319312  1
  O  O609  1  0.07318118  0.85102987  0.32359219  1
  O  O610  1  0.07239469  0.85333390  0.57532471  1
  O  O611  1  0.07237484  0.85173228  0.82273352  1
  O  O612  1  0.57277907  0.18596795  0.07463298  1
  O  O613  1  0.57390406  0.18707339  0.32550837  1
  O  O614  1  0.57457195  0.18764343  0.57520382  1
  O  O615  1  0.57334168  0.18667065  0.82572986  1
  O  O616  1  0.57325887  0.52148154  0.07465889  1
  O  O617  1  0.57293626  0.52060874  0.32233994  1
  O  O618  1  0.57374231  0.51959187  0.57309552  1
  O  O619  1  0.57309493  0.51919794  0.82445620  1
  O  O620  1  0.57373454  0.85483738  0.07537749  1
  O  O621  1  0.57301714  0.85520822  0.32491623  1
  O  O622  1  0.57314283  0.85465236  0.57401800  1
  O  O623  1  0.57348363  0.85363537  0.82606974  1
  O  O624  1  0.32136439  0.18559563  0.05213376  1
  O  O625  1  0.32319062  0.18740602  0.30014528  1
  O  O626  1  0.32361625  0.18831045  0.55036893  1
  O  O627  1  0.32351105  0.18768966  0.80036416  1
  O  O628  1  0.32288863  0.52065806  0.04885365  1
  O  O629  1  0.32324097  0.52009261  0.29876948  1
  O  O630  1  0.32303128  0.52166706  0.54997656  1
  O  O631  1  0.32258659  0.52162103  0.79916119  1
  O  O632  1  0.32134045  0.85224052  0.05127187  1
  O  O633  1  0.32245327  0.85200627  0.30044789  1
  O  O634  1  0.32184527  0.85367283  0.55208723  1
  O  O635  1  0.32322128  0.85450655  0.80014596  1
  O  O636  1  0.82227428  0.18666689  0.05178857  1
  O  O637  1  0.82324824  0.18670692  0.30101696  1
  O  O638  1  0.82417354  0.18659861  0.54991020  1
  O  O639  1  0.82273224  0.18663470  0.80184794  1
  O  O640  1  0.82321645  0.51832433  0.05013858  1
  O  O641  1  0.82345138  0.51778003  0.30039001  1
  O  O642  1  0.82316509  0.51797925  0.55124084  1
  O  O643  1  0.82276668  0.51935615  0.80175220  1
  O  O644  1  0.82374133  0.85287819  0.05016295  1
  O  O645  1  0.82198549  0.85274159  0.30140717  1
  O  O646  1  0.82352595  0.85308152  0.54939840  1
  O  O647  1  0.82287435  0.85175739  0.80135670  1
  O  O648  1  0.17826800  0.14685627  0.19795601  1
  O  O649  1  0.17641817  0.14721661  0.45085981  1
  O  O650  1  0.17681305  0.14605099  0.70098344  1
  O  O651  1  0.17664231  0.14475371  0.95026794  1
  O  O652  1  0.17649485  0.47871196  0.19948928  1
  O  O653  1  0.17719729  0.47952074  0.44987378  1
  O  O654  1  0.17655827  0.47924718  0.70052831  1
  O  O655  1  0.17628446  0.47848203  0.95015785  1
  O  O656  1  0.17813115  0.81347425  0.19684411  1
  O  O657  1  0.17670490  0.81540648  0.44869863  1
  O  O658  1  0.17841120  0.81456196  0.69846754  1
  O  O659  1  0.17668618  0.81238779  0.94959198  1
  O  O660  1  0.67704394  0.14837160  0.20012630  1
  O  O661  1  0.67781692  0.14752718  0.44853874  1
  O  O662  1  0.67662000  0.14746176  0.70035392  1
  O  O663  1  0.67715418  0.14893323  0.94985703  1
  O  O664  1  0.67798319  0.48011873  0.19809648  1
  O  O665  1  0.67797021  0.48017835  0.44764294  1
  O  O666  1  0.67755883  0.48147493  0.69911267  1
  O  O667  1  0.67721814  0.48011613  0.94882175  1
  O  O668  1  0.67623465  0.81323244  0.20044298  1
  O  O669  1  0.67673070  0.81412661  0.44890430  1
  O  O670  1  0.67627605  0.81290462  0.70091013  1
  O  O671  1  0.67788576  0.81334242  0.94912036  1
