# generated using pymatgen
data_Na2MnFe(PO4)2
_symmetry_space_group_name_H-M   'P 1'
_cell_length_a   22.34447457
_cell_length_b   20.09900571
_cell_length_c   19.44744971
_cell_angle_alpha   89.96325788
_cell_angle_beta   90.03118865
_cell_angle_gamma   89.98724403
_symmetry_Int_Tables_number   1
_chemical_formula_structural   Na2MnFe(PO4)2
_chemical_formula_sum   'Na96 Mn48 Fe48 P96 O384'
_cell_volume   8733.87984540
_cell_formula_units_Z   48
loop_
 _symmetry_equiv_pos_site_id
 _symmetry_equiv_pos_as_xyz
  1  'x, y, z'
loop_
 _atom_site_type_symbol
 _atom_site_label
 _atom_site_symmetry_multiplicity
 _atom_site_fract_x
 _atom_site_fract_y
 _atom_site_fract_z
 _atom_site_occupancy
  Na  Na0  1  0.14023661  0.24929141  0.24457478  1
  Na  Na1  1  0.13994919  0.24813924  0.49413452  1
  Na  Na2  1  0.13987200  0.24917859  0.74374187  1
  Na  Na3  1  0.14070799  0.24896843  0.99450250  1
  Na  Na4  1  0.14020915  0.58344394  0.24401532  1
  Na  Na5  1  0.13998757  0.58348708  0.49458179  1
  Na  Na6  1  0.14028559  0.58368720  0.74467449  1
  Na  Na7  1  0.14011279  0.58472290  0.99345811  1
  Na  Na8  1  0.14105671  0.91757657  0.24386241  1
  Na  Na9  1  0.14069879  0.91788498  0.49451827  1
  Na  Na10  1  0.14069024  0.91784185  0.74563836  1
  Na  Na11  1  0.14092868  0.91753198  0.99258464  1
  Na  Na12  1  0.64032761  0.24900385  0.24285899  1
  Na  Na13  1  0.64015547  0.25013275  0.49494549  1
  Na  Na14  1  0.63968742  0.25066419  0.74263080  1
  Na  Na15  1  0.64030697  0.24900881  0.99199864  1
  Na  Na16  1  0.63918899  0.58437991  0.24171351  1
  Na  Na17  1  0.63930009  0.58350843  0.49313896  1
  Na  Na18  1  0.64004862  0.58414487  0.74230544  1
  Na  Na19  1  0.63965119  0.58394662  0.99202996  1
  Na  Na20  1  0.64062778  0.91680927  0.24206156  1
  Na  Na21  1  0.63995641  0.91660466  0.49393480  1
  Na  Na22  1  0.64064671  0.91672497  0.74318777  1
  Na  Na23  1  0.64025389  0.91642279  0.99322319  1
  Na  Na24  1  0.36088099  0.08316359  0.00627326  1
  Na  Na25  1  0.36059947  0.08307317  0.25597306  1
  Na  Na26  1  0.36049176  0.08285680  0.50568443  1
  Na  Na27  1  0.36031114  0.08337047  0.75741339  1
  Na  Na28  1  0.35957892  0.41723365  0.00676667  1
  Na  Na29  1  0.36012524  0.41617142  0.25680597  1
  Na  Na30  1  0.36028592  0.41542075  0.50707012  1
  Na  Na31  1  0.35971252  0.41604956  0.75693184  1
  Na  Na32  1  0.36049765  0.75011663  0.00614825  1
  Na  Na33  1  0.36030087  0.74965573  0.25618325  1
  Na  Na34  1  0.36054632  0.75016127  0.50642421  1
  Na  Na35  1  0.36031321  0.75050142  0.75731894  1
  Na  Na36  1  0.85948376  0.08221640  0.00637705  1
  Na  Na37  1  0.85977360  0.08338555  0.25515678  1
  Na  Na38  1  0.85973729  0.08303495  0.50783104  1
  Na  Na39  1  0.85970000  0.08275359  0.75681140  1
  Na  Na40  1  0.85888128  0.41651915  0.00487276  1
  Na  Na41  1  0.85894057  0.41626543  0.25530346  1
  Na  Na42  1  0.85903635  0.41665292  0.50706526  1
  Na  Na43  1  0.85912063  0.41704885  0.75656328  1
  Na  Na44  1  0.85920105  0.75089501  0.00665662  1
  Na  Na45  1  0.85947123  0.75025658  0.25458655  1
  Na  Na46  1  0.85893649  0.74952237  0.50784036  1
  Na  Na47  1  0.85861335  0.75015187  0.75595420  1
  Na  Na48  1  0.11051432  0.08457609  0.11922389  1
  Na  Na49  1  0.11024563  0.08475137  0.36890127  1
  Na  Na50  1  0.11007300  0.08392867  0.61985498  1
  Na  Na51  1  0.10988478  0.08356135  0.86822220  1
  Na  Na52  1  0.10898233  0.41677826  0.11963526  1
  Na  Na53  1  0.10895352  0.41594211  0.36976442  1
  Na  Na54  1  0.10897124  0.41632105  0.61976657  1
  Na  Na55  1  0.10909414  0.41583149  0.86851084  1
  Na  Na56  1  0.10997569  0.75054604  0.11779863  1
  Na  Na57  1  0.10915424  0.74949798  0.36989737  1
  Na  Na58  1  0.10954350  0.75010257  0.62057833  1
  Na  Na59  1  0.10970467  0.74959490  0.86921550  1
  Na  Na60  1  0.60999754  0.08207719  0.11692356  1
  Na  Na61  1  0.61035866  0.08259740  0.36890629  1
  Na  Na62  1  0.60998870  0.08395543  0.61813253  1
  Na  Na63  1  0.60998815  0.08362190  0.86819508  1
  Na  Na64  1  0.60894504  0.41730717  0.11736315  1
  Na  Na65  1  0.60891901  0.41781669  0.36926093  1
  Na  Na66  1  0.60881591  0.41769484  0.61865999  1
  Na  Na67  1  0.60925178  0.41753011  0.86738898  1
  Na  Na68  1  0.60957688  0.74951320  0.11697637  1
  Na  Na69  1  0.60947441  0.74996049  0.36839791  1
  Na  Na70  1  0.60941710  0.74939082  0.61712533  1
  Na  Na71  1  0.61021792  0.75063935  0.86840091  1
  Na  Na72  1  0.39105364  0.24844134  0.13187075  1
  Na  Na73  1  0.39098757  0.24935452  0.38198597  1
  Na  Na74  1  0.39061839  0.24978696  0.63179479  1
  Na  Na75  1  0.39063363  0.24953763  0.88166474  1
  Na  Na76  1  0.39054184  0.58380841  0.13082865  1
  Na  Na77  1  0.39115382  0.58338696  0.38104686  1
  Na  Na78  1  0.39060835  0.58290022  0.63136221  1
  Na  Na79  1  0.39096499  0.58493244  0.88226340  1
  Na  Na80  1  0.39098967  0.91586648  0.13040718  1
  Na  Na81  1  0.39151981  0.91652519  0.38122536  1
  Na  Na82  1  0.39092816  0.91662732  0.63136728  1
  Na  Na83  1  0.39120088  0.91693722  0.88313875  1
  Na  Na84  1  0.88997199  0.24958398  0.13087178  1
  Na  Na85  1  0.89003742  0.24994171  0.38024391  1
  Na  Na86  1  0.89061807  0.24936843  0.63264284  1
  Na  Na87  1  0.88980605  0.24930660  0.88028227  1
  Na  Na88  1  0.88981406  0.58389508  0.13029125  1
  Na  Na89  1  0.88972691  0.58335025  0.38073706  1
  Na  Na90  1  0.88964733  0.58285158  0.63183407  1
  Na  Na91  1  0.88968744  0.58228758  0.88044358  1
  Na  Na92  1  0.89017670  0.91800248  0.13053002  1
  Na  Na93  1  0.89049374  0.91693313  0.38149347  1
  Na  Na94  1  0.88981589  0.91738356  0.63263327  1
  Na  Na95  1  0.88945413  0.91664345  0.88180364  1
  Mn  Mn96  1  0.74943063  0.16607993  0.87437655  1
  Mn  Mn97  1  0.75006394  0.83319087  0.37473950  1
  Mn  Mn98  1  0.74906208  0.50055327  0.12418510  1
  Mn  Mn99  1  0.24970669  0.33221401  0.87612938  1
  Mn  Mn100  1  0.24956221  0.50063857  0.12571154  1
  Mn  Mn101  1  0.50059899  0.83262559  0.75021646  1
  Mn  Mn102  1  0.50116609  0.16524731  0.25081940  1
  Mn  Mn103  1  0.74890036  0.33266218  0.12417107  1
  Mn  Mn104  1  0.74958951  0.33291827  0.37496216  1
  Mn  Mn105  1  0.25081798  0.83309827  0.12452759  1
  Mn  Mn106  1  0.75011319  -0.00024825  0.37488314  1
  Mn  Mn107  1  0.00026134  0.83395840  -0.00015676  1
  Mn  Mn108  1  0.50088870  0.00066392  0.75062891  1
  Mn  Mn109  1  0.25017504  0.33214419  0.12602942  1
  Mn  Mn110  1  0.25020445  0.49973085  0.62606524  1
  Mn  Mn111  1  0.74953341  0.66700160  0.37463191  1
  Mn  Mn112  1  0.25112812  0.00096562  0.62525838  1
  Mn  Mn113  1  0.25018470  0.49938202  0.37542627  1
  Mn  Mn114  1  0.00022870  0.83303764  0.50120670  1
  Mn  Mn115  1  0.25035790  0.83424752  0.62591155  1
  Mn  Mn116  1  0.24962375  0.33179864  0.62615778  1
  Mn  Mn117  1  0.50046864  0.16688404  0.50002570  1
  Mn  Mn118  1  0.49964438  0.50072295  0.74938816  1
  Mn  Mn119  1  0.24980463  0.33162928  0.37618289  1
  Mn  Mn120  1  -0.00124607  0.50024796  0.49976064  1
  Mn  Mn121  1  0.00009976  0.49940358  0.25025787  1
  Mn  Mn122  1  -0.00026841  0.33277759  -0.00050218  1
  Mn  Mn123  1  -0.00093990  0.83384827  0.75042348  1
  Mn  Mn124  1  -0.00018078  0.66685543  0.25017413  1
  Mn  Mn125  1  0.49998698  0.33354995  -0.00015648  1
  Mn  Mn126  1  0.00088128  0.00144673  0.25119848  1
  Mn  Mn127  1  -0.00109456  0.49981761  -0.00018383  1
  Mn  Mn128  1  0.74979803  0.16601304  0.37482508  1
  Mn  Mn129  1  0.00070388  0.16605115  -0.00004351  1
  Mn  Mn130  1  0.00050685  0.00113417  0.50083139  1
  Mn  Mn131  1  0.24961627  0.50076004  0.87630029  1
  Mn  Mn132  1  -0.00097596  0.66596755  0.75001982  1
  Mn  Mn133  1  0.50067964  0.83289754  0.24999311  1
  Mn  Mn134  1  0.74958545  0.33377654  0.62483605  1
  Mn  Mn135  1  0.74986282  0.66740259  0.87397545  1
  Mn  Mn136  1  0.74962393  0.50051068  0.37446662  1
  Mn  Mn137  1  -0.00101032  0.33252634  0.50001861  1
  Mn  Mn138  1  0.00006177  0.83390227  0.24997866  1
  Mn  Mn139  1  0.25071917  0.00082526  0.12415274  1
  Mn  Mn140  1  0.25018331  0.66678227  0.37544179  1
  Mn  Mn141  1  0.24966527  0.83401481  0.37494609  1
  Mn  Mn142  1  0.25011394  0.66715300  0.62578761  1
  Mn  Mn143  1  0.50074737  0.33385604  0.24995193  1
  Fe  Fe144  1  0.49933308  0.33376335  0.75020158  1
  Fe  Fe145  1  0.25066821  0.66738531  0.87526549  1
  Fe  Fe146  1  0.75026412  0.16651279  0.62581859  1
  Fe  Fe147  1  -0.00079526  0.33292016  0.24993078  1
  Fe  Fe148  1  0.25051124  0.00061763  0.87506609  1
  Fe  Fe149  1  0.74942518  0.50056825  0.87428411  1
  Fe  Fe150  1  0.50049002  0.00004780  0.50013115  1
  Fe  Fe151  1  0.49962883  0.50029848  0.24981870  1
  Fe  Fe152  1  0.74992625  0.66722220  0.12343088  1
  Fe  Fe153  1  0.25061707  0.83360109  0.87532035  1
  Fe  Fe154  1  -0.00042781  0.66640080  0.50048029  1
  Fe  Fe155  1  0.74904369  0.50026635  0.62515911  1
  Fe  Fe156  1  0.75000425  -0.00034805  0.12429552  1
  Fe  Fe157  1  0.24991045  0.66731082  0.12503993  1
  Fe  Fe158  1  0.00010729  0.49973530  0.75000847  1
  Fe  Fe159  1  0.25033632  0.16572283  0.62510417  1
  Fe  Fe160  1  0.50062539  0.83264009  0.00035794  1
  Fe  Fe161  1  -0.00015245  0.16717130  0.24975432  1
  Fe  Fe162  1  0.50082843  0.00003427  -0.00015334  1
  Fe  Fe163  1  -0.00032800  0.66640614  -0.00046072  1
  Fe  Fe164  1  -0.00036898  0.16695316  0.50046292  1
  Fe  Fe165  1  0.50039662  0.66646853  -0.00022487  1
  Fe  Fe166  1  0.74969988  -0.00043841  0.87508639  1
  Fe  Fe167  1  0.49930208  0.50012711  0.49969340  1
  Fe  Fe168  1  -0.00020458  0.16595790  0.75048975  1
  Fe  Fe169  1  0.74944341  0.83383222  0.62538901  1
  Fe  Fe170  1  0.75005982  0.83373897  0.12413092  1
  Fe  Fe171  1  0.74956240  0.83379445  0.87474853  1
  Fe  Fe172  1  -0.00001278  0.00023599  0.75047087  1
  Fe  Fe173  1  0.50023602  0.33355047  0.50031008  1
  Fe  Fe174  1  0.75012915  0.16606722  0.12372512  1
  Fe  Fe175  1  0.50005778  0.66690477  0.74960544  1
  Fe  Fe176  1  0.25080468  0.16626757  0.12530987  1
  Fe  Fe177  1  0.50034544  0.83321882  0.49953135  1
  Fe  Fe178  1  0.49982942  0.50035290  -0.00057103  1
  Fe  Fe179  1  0.74932886  0.66666409  0.62529298  1
  Fe  Fe180  1  0.25084063  0.00051433  0.37473104  1
  Fe  Fe181  1  0.50008744  0.66641358  0.24934915  1
  Fe  Fe182  1  0.50081659  0.16675519  0.00002583  1
  Fe  Fe183  1  0.49980951  0.66627801  0.49901234  1
  Fe  Fe184  1  0.00014086  0.00060301  0.00032973  1
  Fe  Fe185  1  0.50069486  -0.00094960  0.24929383  1
  Fe  Fe186  1  0.25101852  0.16592918  0.37504165  1
  Fe  Fe187  1  0.25068911  0.16654001  0.87535519  1
  Fe  Fe188  1  0.74990843  -0.00031247  0.62545276  1
  Fe  Fe189  1  0.50008014  0.16709754  0.74982964  1
  Fe  Fe190  1  0.74940973  0.33337347  0.87402238  1
  Fe  Fe191  1  -0.00046948  0.33273466  0.74965937  1
  P  P192  1  0.04254841  0.24999191  0.10383542  1
  P  P193  1  0.04111145  0.24983497  0.35188868  1
  P  P194  1  0.04165994  0.24864805  0.60350307  1
  P  P195  1  0.04119885  0.24967297  0.85127069  1
  P  P196  1  0.04199793  0.58431887  0.10214661  1
  P  P197  1  0.04263281  0.58346440  0.35377790  1
  P  P198  1  0.04160037  0.58378196  0.60305268  1
  P  P199  1  0.04186815  0.58205252  0.85281267  1
  P  P200  1  0.04301838  0.91873315  0.10241588  1
  P  P201  1  0.04329370  0.91690852  0.35377701  1
  P  P202  1  0.04285713  0.91752270  0.60445327  1
  P  P203  1  0.04158073  0.91814307  0.85324151  1
  P  P204  1  0.54272956  0.24888160  0.10219788  1
  P  P205  1  0.54317756  0.25036962  0.35363897  1
  P  P206  1  0.54198998  0.25157672  0.60339043  1
  P  P207  1  0.54125788  0.25009278  0.85167290  1
  P  P208  1  0.54137144  0.58291104  0.10147441  1
  P  P209  1  0.54124671  0.58361611  0.35150543  1
  P  P210  1  0.54083005  0.58354982  0.60103183  1
  P  P211  1  0.54224405  0.58509919  0.85226110  1
  P  P212  1  0.54143983  0.91629746  0.10146382  1
  P  P213  1  0.54290769  0.91759241  0.35273916  1
  P  P214  1  0.54120053  0.91639154  0.60158642  1
  P  P215  1  0.54286034  0.91657542  0.85394264  1
  P  P216  1  0.45900759  0.08153212  0.14671496  1
  P  P217  1  0.45888360  0.08154520  0.39734414  1
  P  P218  1  0.45845232  0.08437923  0.64759235  1
  P  P219  1  0.45967754  0.08405746  0.89837536  1
  P  P220  1  0.45786004  0.41817426  0.14715450  1
  P  P221  1  0.45866880  0.41680578  0.39810309  1
  P  P222  1  0.45743853  0.41559116  0.64716169  1
  P  P223  1  0.45771884  0.41808806  0.89721007  1
  P  P224  1  0.45859647  0.74867545  0.14676450  1
  P  P225  1  0.45893622  0.74986731  0.39782862  1
  P  P226  1  0.45809058  0.74850870  0.64669744  1
  P  P227  1  0.45952096  0.75001093  0.89837649  1
  P  P228  1  0.95817867  0.08432291  0.14737852  1
  P  P229  1  0.95771363  0.08548155  0.39772998  1
  P  P230  1  0.95860054  0.08336256  0.64868496  1
  P  P231  1  0.95786143  0.08200232  0.89696146  1
  P  P232  1  0.95702902  0.41543438  0.14739942  1
  P  P233  1  0.95620020  0.41594797  0.39648040  1
  P  P234  1  0.95797738  0.41641659  0.64867196  1
  P  P235  1  0.95698487  0.41604469  0.89545036  1
  P  P236  1  0.95760335  0.75034175  0.14608311  1
  P  P237  1  0.95698354  0.74901410  0.39825006  1
  P  P238  1  0.95651101  0.74982023  0.64688843  1
  P  P239  1  0.95724925  0.74884459  0.89769704  1
  P  P240  1  0.20859950  0.08439641  0.22810583  1
  P  P241  1  0.20900308  0.08339696  0.47674124  1
  P  P242  1  0.20854727  0.08436313  0.72870768  1
  P  P243  1  0.20898215  0.08400995  0.97674545  1
  P  P244  1  0.20710126  0.41593520  0.22877561  1
  P  P245  1  0.20695368  0.41560412  0.47899475  1
  P  P246  1  0.20698907  0.41616138  0.72912487  1
  P  P247  1  0.20674461  0.41636672  0.97898474  1
  P  P248  1  0.20763393  0.74944655  0.22734671  1
  P  P249  1  0.20712598  0.75059297  0.47869215  1
  P  P250  1  0.20772618  0.75078408  0.72992772  1
  P  P251  1  0.20894492  0.75030936  0.97687938  1
  P  P252  1  0.70860642  0.08309312  0.22551818  1
  P  P253  1  0.70773326  0.08286406  0.47932671  1
  P  P254  1  0.70861529  0.08264300  0.72700569  1
  P  P255  1  0.70803050  0.08159536  0.97767394  1
  P  P256  1  0.70622004  0.41669044  0.22729901  1
  P  P257  1  0.70704385  0.41712134  0.47836977  1
  P  P258  1  0.70732420  0.41826334  0.72791446  1
  P  P259  1  0.70797904  0.41658619  0.97549214  1
  P  P260  1  0.70820707  0.75042157  0.22523098  1
  P  P261  1  0.70721536  0.75011981  0.47894146  1
  P  P262  1  0.70803261  0.75069828  0.72645577  1
  P  P263  1  0.70819608  0.75162173  0.97744339  1
  P  P264  1  0.29297106  0.24810637  0.02273428  1
  P  P265  1  0.29300731  0.24798375  0.27277044  1
  P  P266  1  0.29243547  0.24762901  0.52278023  1
  P  P267  1  0.29232231  0.24812427  0.77275092  1
  P  P268  1  0.29180700  0.58549919  0.02255200  1
  P  P269  1  0.29293380  0.58357394  0.27174760  1
  P  P270  1  0.29296908  0.58310754  0.52253127  1
  P  P271  1  0.29266541  0.58454460  0.77351910  1
  P  P272  1  0.29301578  0.91686276  0.02065852  1
  P  P273  1  0.29298294  0.91811349  0.27239726  1
  P  P274  1  0.29328097  0.91755909  0.52171832  1
  P  P275  1  0.29250757  0.91710849  0.77421255  1
  P  P276  1  0.79178127  0.24873537  0.02129859  1
  P  P277  1  0.79210675  0.24922635  0.27090369  1
  P  P278  1  0.79223098  0.24868520  0.52315182  1
  P  P279  1  0.79127019  0.25082936  0.77184403  1
  P  P280  1  0.79138423  0.58441756  0.02112592  1
  P  P281  1  0.79204674  0.58429057  0.27061761  1
  P  P282  1  0.79066258  0.58326881  0.52374490  1
  P  P283  1  0.79119401  0.58243611  0.77136694  1
  P  P284  1  0.79108751  0.91670485  0.02231948  1
  P  P285  1  0.79276635  0.91648562  0.27084249  1
  P  P286  1  0.79157797  0.91648579  0.52397152  1
  P  P287  1  0.79097463  0.91680289  0.77284324  1
  O  O288  1  0.03716128  0.25002514  0.18373236  1
  O  O289  1  0.03598655  0.24940299  0.43188487  1
  O  O290  1  0.03619880  0.24883300  0.68336188  1
  O  O291  1  0.03676978  0.24938580  0.93125296  1
  O  O292  1  0.03715636  0.58406016  0.18214993  1
  O  O293  1  0.03723125  0.58397205  0.43373212  1
  O  O294  1  0.03616379  0.58272674  0.68301053  1
  O  O295  1  0.03647300  0.58279378  0.93273605  1
  O  O296  1  0.03813663  0.91839725  0.18243138  1
  O  O297  1  0.03823207  0.91679008  0.43375593  1
  O  O298  1  0.03734678  0.91799993  0.68440592  1
  O  O299  1  0.03641451  0.91833094  0.93319841  1
  O  O300  1  0.53803537  0.24902879  0.18217894  1
  O  O301  1  0.53762316  0.25084847  0.43358165  1
  O  O302  1  0.53644129  0.25137377  0.68326649  1
  O  O303  1  0.53653050  0.24976536  0.93169731  1
  O  O304  1  0.53656786  0.58279062  0.18134279  1
  O  O305  1  0.53583472  0.58398411  0.43133968  1
  O  O306  1  0.53618625  0.58348140  0.68096955  1
  O  O307  1  0.53704077  0.58471095  0.93210893  1
  O  O308  1  0.53688691  0.91648230  0.18144786  1
  O  O309  1  0.53743546  0.91743416  0.43260926  1
  O  O310  1  0.53665862  0.91612398  0.68158457  1
  O  O311  1  0.53757467  0.91651207  0.93378423  1
  O  O312  1  0.46451192  0.08234561  0.06684023  1
  O  O313  1  0.46412300  0.08107087  0.31742132  1
  O  O314  1  0.46374112  0.08368501  0.56768331  1
  O  O315  1  0.46430058  0.08451056  0.81839888  1
  O  O316  1  0.46315962  0.41813362  0.06719886  1
  O  O317  1  0.46382672  0.41749048  0.31815280  1
  O  O318  1  0.46241236  0.41543477  0.56728787  1
  O  O319  1  0.46294525  0.41751867  0.81729476  1
  O  O320  1  0.46390867  0.74898244  0.06691985  1
  O  O321  1  0.46376828  0.75013258  0.31787333  1
  O  O322  1  0.46323110  0.74866732  0.56683279  1
  O  O323  1  0.46385360  0.74978664  0.81840359  1
  O  O324  1  0.96336475  0.08338134  0.06742980  1
  O  O325  1  0.96302961  0.08570833  0.31777977  1
  O  O326  1  0.96317252  0.08418219  0.56871041  1
  O  O327  1  0.96306585  0.08196687  0.81703911  1
  O  O328  1  0.96216226  0.41577320  0.06739158  1
  O  O329  1  0.96151287  0.41552475  0.31654537  1
  O  O330  1  0.96252363  0.41642257  0.56861994  1
  O  O331  1  0.96257417  0.41628730  0.81555725  1
  O  O332  1  0.96296786  0.74982696  0.06613495  1
  O  O333  1  0.96223636  0.74967181  0.31822393  1
  O  O334  1  0.96175617  0.74938602  0.56697747  1
  O  O335  1  0.96209440  0.74925481  0.81770558  1
  O  O336  1  0.21353779  0.08410637  0.05673595  1
  O  O337  1  0.21406797  0.08386098  0.30796512  1
  O  O338  1  0.21405682  0.08378906  0.55674633  1
  O  O339  1  0.21381602  0.08411048  0.80857722  1
  O  O340  1  0.21196207  0.41626811  0.05894837  1
  O  O341  1  0.21216310  0.41576304  0.30877456  1
  O  O342  1  0.21191504  0.41544501  0.55902452  1
  O  O343  1  0.21201251  0.41622421  0.80911514  1
  O  O344  1  0.21388134  0.74975800  0.05690255  1
  O  O345  1  0.21255983  0.74988258  0.30733317  1
  O  O346  1  0.21222492  0.75069485  0.55869955  1
  O  O347  1  0.21327678  0.75059321  0.80986855  1
  O  O348  1  0.71358478  0.08217931  0.05750840  1
  O  O349  1  0.71314317  0.08274895  0.30558661  1
  O  O350  1  0.71298313  0.08288048  0.55926153  1
  O  O351  1  0.71343303  0.08228566  0.80701890  1
  O  O352  1  0.71275615  0.41650129  0.05550378  1
  O  O353  1  0.71140387  0.41672220  0.30728239  1
  O  O354  1  0.71228224  0.41767224  0.55835201  1
  O  O355  1  0.71289766  0.41807048  0.80779629  1
  O  O356  1  0.71367976  0.75118505  0.05728088  1
  O  O357  1  0.71279364  0.75010859  0.30530621  1
  O  O358  1  0.71222245  0.75013408  0.55885407  1
  O  O359  1  0.71297900  0.75077045  0.80643395  1
  O  O360  1  0.28798278  0.24797854  0.19278003  1
  O  O361  1  0.28742515  0.24762025  0.44277863  1
  O  O362  1  0.28701161  0.24791352  0.69280861  1
  O  O363  1  0.28767649  0.24823207  0.94275468  1
  O  O364  1  0.28760784  0.58423658  0.19175566  1
  O  O365  1  0.28792014  0.58301898  0.44254259  1
  O  O366  1  0.28775091  0.58419013  0.69352959  1
  O  O367  1  0.28659067  0.58586564  0.94257240  1
  O  O368  1  0.28793866  0.91774077  0.19237522  1
  O  O369  1  0.28800960  0.91799609  0.44178538  1
  O  O370  1  0.28796464  0.91738661  0.69414320  1
  O  O371  1  0.28771909  0.91676271  0.94077397  1
  O  O372  1  0.78683060  0.24885644  0.19093597  1
  O  O373  1  0.78741471  0.24872614  0.44312391  1
  O  O374  1  0.78589573  0.25022205  0.69194226  1
  O  O375  1  0.78632518  0.24935084  0.94134346  1
  O  O376  1  0.78696197  0.58476219  0.19063236  1
  O  O377  1  0.78618774  0.58366598  0.44367879  1
  O  O378  1  0.78560650  0.58248508  0.69150677  1
  O  O379  1  0.78626903  0.58384702  0.94115105  1
  O  O380  1  0.78761643  0.91647227  0.19093637  1
  O  O381  1  0.78689848  0.91640201  0.44393250  1
  O  O382  1  0.78544807  0.91682877  0.69296991  1
  O  O383  1  0.78601699  0.91710336  0.94242722  1
  O  O384  1  0.22864896  0.24778463  0.05830794  1
  O  O385  1  0.22863206  0.24757646  0.30818794  1
  O  O386  1  0.22809246  0.24724189  0.55831230  1
  O  O387  1  0.22802517  0.24781387  0.80842190  1
  O  O388  1  0.22758923  0.58554305  0.05832460  1
  O  O389  1  0.22855178  0.58332391  0.30694235  1
  O  O390  1  0.22851304  0.58326745  0.55751402  1
  O  O391  1  0.22821496  0.58497802  0.80859496  1
  O  O392  1  0.22888273  0.91688579  0.05650679  1
  O  O393  1  0.22862833  0.91875762  0.30779647  1
  O  O394  1  0.22899374  0.91766463  0.55721805  1
  O  O395  1  0.22820062  0.91663818  0.80955560  1
  O  O396  1  0.72754714  0.24793222  0.05709103  1
  O  O397  1  0.72781344  0.24946779  0.30638121  1
  O  O398  1  0.72783537  0.24907606  0.55825989  1
  O  O399  1  0.72713302  0.25098082  0.80779576  1
  O  O400  1  0.72714391  0.58474085  0.05675931  1
  O  O401  1  0.72764423  0.58396370  0.30580390  1
  O  O402  1  0.72634313  0.58287535  0.55910714  1
  O  O403  1  0.72717650  0.58276204  0.80762755  1
  O  O404  1  0.72712737  0.91595269  0.05875753  1
  O  O405  1  0.72840185  0.91651600  0.30630306  1
  O  O406  1  0.72722533  0.91677012  0.55948588  1
  O  O407  1  0.72698263  0.91689547  0.80937006  1
  O  O408  1  0.27276769  0.08476762  0.19191715  1
  O  O409  1  0.27320844  0.08307050  0.44076896  1
  O  O410  1  0.27276393  0.08505433  0.69269182  1
  O  O411  1  0.27331193  0.08440509  0.94131315  1
  O  O412  1  0.27152448  0.41629635  0.19376743  1
  O  O413  1  0.27147444  0.41535288  0.44419544  1
  O  O414  1  0.27146307  0.41577331  0.69423217  1
  O  O415  1  0.27118449  0.41638434  0.94399239  1
  O  O416  1  0.27213960  0.74880020  0.19222521  1
  O  O417  1  0.27157904  0.75072692  0.44370608  1
  O  O418  1  0.27197942  0.75073273  0.69428518  1
  O  O419  1  0.27317640  0.75071323  0.94108092  1
  O  O420  1  0.77284064  0.08367894  0.18998756  1
  O  O421  1  0.77195437  0.08287303  0.44360927  1
  O  O422  1  0.77280287  0.08210882  0.69126377  1
  O  O423  1  0.77204638  0.08162361  0.94132568  1
  O  O424  1  0.77062216  0.41657183  0.19225664  1
  O  O425  1  0.77137003  0.41693736  0.44299900  1
  O  O426  1  0.77142692  0.41849599  0.69173917  1
  O  O427  1  0.77215240  0.41623053  0.93977193  1
  O  O428  1  0.77245748  0.75088425  0.18963829  1
  O  O429  1  0.77153281  0.74989932  0.44341742  1
  O  O430  1  0.77214637  0.75102095  0.69059506  1
  O  O431  1  0.77220314  0.75177694  0.94108076  1
  O  O432  1  0.02242779  0.08528324  0.18315635  1
  O  O433  1  0.02205389  0.08555609  0.43344923  1
  O  O434  1  0.02285499  0.08268594  0.68428550  1
  O  O435  1  0.02217214  0.08146662  0.93283300  1
  O  O436  1  0.02131971  0.41471689  0.18307715  1
  O  O437  1  0.02048647  0.41631432  0.43197526  1
  O  O438  1  0.02225511  0.41610347  0.68431590  1
  O  O439  1  0.02115851  0.41650353  0.93132747  1
  O  O440  1  0.02188162  0.75041123  0.18162912  1
  O  O441  1  0.02138354  0.74825624  0.43381031  1
  O  O442  1  0.02080001  0.75007022  0.68230760  1
  O  O443  1  0.02165332  0.74865923  0.93300034  1
  O  O444  1  0.52312422  0.08096217  0.18304593  1
  O  O445  1  0.52301941  0.08210566  0.43331048  1
  O  O446  1  0.52272960  0.08516292  0.68337701  1
  O  O447  1  0.52386630  0.08412084  0.93410507  1
  O  O448  1  0.52211622  0.41873875  0.18294915  1
  O  O449  1  0.52264932  0.41646011  0.43450826  1
  O  O450  1  0.52160539  0.41591815  0.68317107  1
  O  O451  1  0.52198886  0.41833104  0.93299928  1
  O  O452  1  0.52272384  0.74858644  0.18293567  1
  O  O453  1  0.52302670  0.74933490  0.43390164  1
  O  O454  1  0.52237430  0.74827477  0.68269355  1
  O  O455  1  0.52372685  0.74998286  0.93399619  1
  O  O456  1  0.47830784  0.24891342  0.06694794  1
  O  O457  1  0.47899217  0.24976519  0.31792830  1
  O  O458  1  0.47798190  0.25150596  0.56691022  1
  O  O459  1  0.47707460  0.24934159  0.81579805  1
  O  O460  1  0.47727272  0.58243459  0.06522977  1
  O  O461  1  0.47726551  0.58340998  0.31482187  1
  O  O462  1  0.47666967  0.58393763  0.56514446  1
  O  O463  1  0.47797198  0.58531581  0.81636398  1
  O  O464  1  0.47741733  0.91617442  0.06550138  1
  O  O465  1  0.47877822  0.91771373  0.31638843  1
  O  O466  1  0.47713022  0.91660607  0.56571983  1
  O  O467  1  0.47868846  0.91656526  0.81807069  1
  O  O468  1  0.97832027  0.24936305  0.06807904  1
  O  O469  1  0.97702040  0.24988945  0.31560893  1
  O  O470  1  0.97745057  0.24813171  0.56737724  1
  O  O471  1  0.97696529  0.25018772  0.81567982  1
  O  O472  1  0.97754812  0.58475989  0.06684972  1
  O  O473  1  0.97829216  0.58305874  0.31841953  1
  O  O474  1  0.97731779  0.58478881  0.56715511  1
  O  O475  1  0.97760674  0.58122839  0.81705803  1
  O  O476  1  0.97854999  0.91876898  0.06715259  1
  O  O477  1  0.97883318  0.91736404  0.31872769  1
  O  O478  1  0.97858157  0.91749127  0.56893921  1
  O  O479  1  0.97731038  0.91853351  0.81752457  1
  O  O480  1  0.07339004  0.31346073  0.07518851  1
  O  O481  1  0.07165704  0.31382163  0.32401486  1
  O  O482  1  0.07247494  0.31235826  0.57527205  1
  O  O483  1  0.07243428  0.31303729  0.82318526  1
  O  O484  1  0.07273406  0.64777257  0.07343793  1
  O  O485  1  0.07386142  0.64665885  0.32521861  1
  O  O486  1  0.07261460  0.64746406  0.57531147  1
  O  O487  1  0.07274283  0.64570488  0.82472582  1
  O  O488  1  0.07365436  0.98233205  0.07402842  1
  O  O489  1  0.07448339  0.98041441  0.32592452  1
  O  O490  1  0.07427153  0.98067366  0.57594790  1
  O  O491  1  0.07291292  0.98115112  0.82441639  1
  O  O492  1  0.57364574  0.31253867  0.07420132  1
  O  O493  1  0.57418921  0.31365764  0.32506569  1
  O  O494  1  0.57288732  0.31498432  0.57463102  1
  O  O495  1  0.57099187  0.31452091  0.82358887  1
  O  O496  1  0.57168649  0.64690661  0.07285357  1
  O  O497  1  0.57204679  0.64725766  0.32276252  1
  O  O498  1  0.57233958  0.64665596  0.57267737  1
  O  O499  1  0.57305967  0.64851283  0.82331137  1
  O  O500  1  0.57229539  0.97980215  0.07283090  1
  O  O501  1  0.57393858  0.98080529  0.32377455  1
  O  O502  1  0.57207435  0.98024062  0.57395718  1
  O  O503  1  0.57395425  0.98001477  0.82544207  1
  O  O504  1  0.42785134  0.01804482  0.17484551  1
  O  O505  1  0.42823732  0.01824941  0.42653964  1
  O  O506  1  0.42767114  0.02076133  0.67601726  1
  O  O507  1  0.42937025  0.01992190  0.92641217  1
  O  O508  1  0.42743299  0.35402944  0.17495712  1
  O  O509  1  0.42772225  0.35303779  0.42589565  1
  O  O510  1  0.42687338  0.35217191  0.67655517  1
  O  O511  1  0.42655511  0.35462417  0.92539613  1
  O  O512  1  0.42780339  0.68521051  0.17553900  1
  O  O513  1  0.42737298  0.68660763  0.42575223  1
  O  O514  1  0.42722615  0.68523291  0.67584625  1
  O  O515  1  0.42860503  0.68657613  0.92710224  1
  O  O516  1  0.92735437  0.02080550  0.17586800  1
  O  O517  1  0.92693641  0.02152272  0.42542720  1
  O  O518  1  0.92745576  0.01975266  0.67656113  1
  O  O519  1  0.92664391  0.01900410  0.92616261  1
  O  O520  1  0.92598081  0.35201606  0.17555660  1
  O  O521  1  0.92514726  0.35268004  0.42513636  1
  O  O522  1  0.92709691  0.35269199  0.67661668  1
  O  O523  1  0.92616671  0.35236692  0.92366999  1
  O  O524  1  0.92606644  0.68732265  0.17459862  1
  O  O525  1  0.92602174  0.68547578  0.42634483  1
  O  O526  1  0.92522833  0.68663055  0.67531164  1
  O  O527  1  0.92660460  0.68514087  0.92580538  1
  O  O528  1  0.17752527  0.02094022  0.19963031  1
  O  O529  1  0.17825618  0.01964903  0.44867296  1
  O  O530  1  0.17792844  0.02054250  0.70048009  1
  O  O531  1  0.17902037  0.01986811  0.94819026  1
  O  O532  1  0.17638209  0.35230118  0.20069218  1
  O  O533  1  0.17583485  0.35214108  0.45085966  1
  O  O534  1  0.17582013  0.35277022  0.70107861  1
  O  O535  1  0.17576849  0.35284287  0.95086513  1
  O  O536  1  0.17665296  0.68608891  0.19894520  1
  O  O537  1  0.17625208  0.68701182  0.45070335  1
  O  O538  1  0.17635748  0.68753616  0.70146734  1
  O  O539  1  0.17814796  0.68683262  0.94825409  1
  O  O540  1  0.67848352  0.01905367  0.19707204  1
  O  O541  1  0.67670848  0.01948619  0.45060026  1
  O  O542  1  0.67689742  0.01972641  0.69849164  1
  O  O543  1  0.67718802  0.01807323  0.94928910  1
  O  O544  1  0.67510551  0.35331096  0.19910471  1
  O  O545  1  0.67620858  0.35331968  0.45067993  1
  O  O546  1  0.67624509  0.35463135  0.70000271  1
  O  O547  1  0.67687391  0.35304094  0.94740686  1
  O  O548  1  0.67794534  0.68655551  0.19663493  1
  O  O549  1  0.67597702  0.68690990  0.45013880  1
  O  O550  1  0.67787300  0.68654064  0.69828102  1
  O  O551  1  0.67684306  0.68829999  0.94913339  1
  O  O552  1  0.32373050  0.31197698  0.05056463  1
  O  O553  1  0.32360865  0.31189252  0.30073948  1
  O  O554  1  0.32301440  0.31154431  0.55073675  1
  O  O555  1  0.32295788  0.31211329  0.80043272  1
  O  O556  1  0.32287076  0.64867105  0.05134078  1
  O  O557  1  0.32415560  0.64675706  0.30034310  1
  O  O558  1  0.32400434  0.64658989  0.55053509  1
  O  O559  1  0.32356374  0.64804901  0.80183398  1
  O  O560  1  0.32421335  0.98026940  0.04886754  1
  O  O561  1  0.32398626  0.98146310  0.30068722  1
  O  O562  1  0.32462872  0.98065919  0.55039241  1
  O  O563  1  0.32276008  0.98111641  0.80247713  1
  O  O564  1  0.82264218  0.31236071  0.04938022  1
  O  O565  1  0.82298642  0.31286966  0.29900234  1
  O  O566  1  0.82366085  0.31214960  0.55075712  1
  O  O567  1  0.82186686  0.31458238  0.79992479  1
  O  O568  1  0.82193803  0.64818850  0.04937592  1
  O  O569  1  0.82314520  0.64746942  0.29944113  1
  O  O570  1  0.82084958  0.64714418  0.55245324  1
  O  O571  1  0.82278811  0.64590689  0.79902765  1
  O  O572  1  0.82133861  0.98058164  0.05122232  1
  O  O573  1  0.82383938  0.97984779  0.29954044  1
  O  O574  1  0.82257308  0.98004359  0.55204798  1
  O  O575  1  0.82216025  0.98018928  0.80125001  1
  O  O576  1  0.42807672  0.14503357  0.17529083  1
  O  O577  1  0.42754040  0.14526286  0.42463699  1
  O  O578  1  0.42744665  0.14781886  0.67586664  1
  O  O579  1  0.42851162  0.14726424  0.92710663  1
  O  O580  1  0.42642275  0.48112959  0.17582059  1
  O  O581  1  0.42795661  0.48048744  0.42661165  1
  O  O582  1  0.42602570  0.47906892  0.67507643  1
  O  O583  1  0.42701138  0.48172684  0.92546295  1
  O  O584  1  0.42731823  0.81209807  0.17501820  1
  O  O585  1  0.42884367  0.81394985  0.42637705  1
  O  O586  1  0.42719749  0.81215498  0.67508915  1
  O  O587  1  0.42893773  0.81379505  0.92676595  1
  O  O588  1  0.92704199  0.14782675  0.17528390  1
  O  O589  1  0.92663570  0.14856683  0.42665793  1
  O  O590  1  0.92814468  0.14693608  0.67782539  1
  O  O591  1  0.92717950  0.14595750  0.92471693  1
  O  O592  1  0.92641611  0.47940216  0.17497081  1
  O  O593  1  0.92495944  0.47944043  0.42449020  1
  O  O594  1  0.92749260  0.48027026  0.67672761  1
  O  O595  1  0.92530864  0.47903748  0.92406571  1
  O  O596  1  0.92686610  0.81424145  0.17383507  1
  O  O597  1  0.92636460  0.81285057  0.42620535  1
  O  O598  1  0.92551870  0.81343786  0.67495276  1
  O  O599  1  0.92635097  0.81255081  0.92546437  1
  O  O600  1  0.07413809  0.18685565  0.07533846  1
  O  O601  1  0.07222545  0.18644384  0.32350653  1
  O  O602  1  0.07281123  0.18541887  0.57470913  1
  O  O603  1  0.07133995  0.18553001  0.82314760  1
  O  O604  1  0.07270873  0.52044045  0.07454173  1
  O  O605  1  0.07371366  0.51983111  0.32588133  1
  O  O606  1  0.07240882  0.52019774  0.57478174  1
  O  O607  1  0.07298144  0.51863055  0.82455313  1
  O  O608  1  0.07400068  0.85516640  0.07429598  1
  O  O609  1  0.07395735  0.85336092  0.32534515  1
  O  O610  1  0.07387901  0.85383082  0.57679511  1
  O  O611  1  0.07216890  0.85400850  0.82591314  1
  O  O612  1  0.57337120  0.18536027  0.07364265  1
  O  O613  1  0.57451425  0.18673445  0.32612292  1
  O  O614  1  0.57340279  0.18806376  0.57557194  1
  O  O615  1  0.57298169  0.18710815  0.82317289  1
  O  O616  1  0.57280252  0.51982225  0.07261752  1
  O  O617  1  0.57229371  0.52003077  0.32338071  1
  O  O618  1  0.57086727  0.51940250  0.57258093  1
  O  O619  1  0.57328231  0.52162836  0.82385042  1
  O  O620  1  0.57216805  0.85242611  0.07348834  1
  O  O621  1  0.57392168  0.85389569  0.32469216  1
  O  O622  1  0.57172869  0.85265350  0.57308703  1
  O  O623  1  0.57410583  0.85335689  0.82531612  1
  O  O624  1  0.32405514  0.18486982  0.05139005  1
  O  O625  1  0.32427417  0.18486518  0.30151050  1
  O  O626  1  0.32364870  0.18442844  0.55135524  1
  O  O627  1  0.32367293  0.18513874  0.80166541  1
  O  O628  1  0.32264397  0.52145264  0.04987569  1
  O  O629  1  0.32387798  0.51984013  0.29966058  1
  O  O630  1  0.32378030  0.51947890  0.55071448  1
  O  O631  1  0.32348092  0.52081436  0.80155530  1
  O  O632  1  0.32426330  0.85355016  0.04926671  1
  O  O633  1  0.32362756  0.85416367  0.30021029  1
  O  O634  1  0.32410169  0.85388853  0.54988650  1
  O  O635  1  0.32371246  0.85364499  0.80225781  1
  O  O636  1  0.82286519  0.18518162  0.04939348  1
  O  O637  1  0.82328346  0.18596631  0.29943971  1
  O  O638  1  0.82241459  0.18500283  0.55228162  1
  O  O639  1  0.82266952  0.18741273  0.79974791  1
  O  O640  1  0.82270865  0.52101902  0.04927226  1
  O  O641  1  0.82306249  0.52063484  0.29866897  1
  O  O642  1  0.82184863  0.51972124  0.55166261  1
  O  O643  1  0.82195955  0.51902771  0.80034702  1
  O  O644  1  0.82275030  0.85346519  0.05042048  1
  O  O645  1  0.82382315  0.85313446  0.29966841  1
  O  O646  1  0.82209213  0.85274120  0.55236160  1
  O  O647  1  0.82176537  0.85303668  0.80120229  1
  O  O648  1  0.17762583  0.14782793  0.19952506  1
  O  O649  1  0.17817511  0.14695226  0.44824567  1
  O  O650  1  0.17719125  0.14738780  0.69973494  1
  O  O651  1  0.17746755  0.14712013  0.94822771  1
  O  O652  1  0.17581350  0.47933565  0.20073305  1
  O  O653  1  0.17612255  0.47918284  0.45082607  1
  O  O654  1  0.17629323  0.47984031  0.70097166  1
  O  O655  1  0.17574227  0.47992493  0.95100198  1
  O  O656  1  0.17707959  0.81329801  0.19916778  1
  O  O657  1  0.17603182  0.81402062  0.45044158  1
  O  O658  1  0.17664227  0.81433079  0.70169881  1
  O  O659  1  0.17800580  0.81414046  0.94911108  1
  O  O660  1  0.67736169  0.14650994  0.19744930  1
  O  O661  1  0.67643879  0.14616990  0.45076928  1
  O  O662  1  0.67875364  0.14711629  0.69907583  1
  O  O663  1  0.67657275  0.14490730  0.94926615  1
  O  O664  1  0.67531365  0.48019777  0.19895916  1
  O  O665  1  0.67578838  0.48029429  0.44971634  1
  O  O666  1  0.67615361  0.48153163  0.69909712  1
  O  O667  1  0.67759435  0.48064442  0.94755904  1
  O  O668  1  0.67707380  0.81399088  0.19732700  1
  O  O669  1  0.67643117  0.81363433  0.45016281  1
  O  O670  1  0.67656573  0.81395408  0.69821917  1
  O  O671  1  0.67732865  0.81516033  0.94891774  1
