# generated using pymatgen
data_Na2MnFe(PO4)2
_symmetry_space_group_name_H-M   'P 1'
_cell_length_a   22.34218931
_cell_length_b   20.09528666
_cell_length_c   19.45125725
_cell_angle_alpha   90.00989451
_cell_angle_beta   89.94240861
_cell_angle_gamma   89.98693079
_symmetry_Int_Tables_number   1
_chemical_formula_structural   Na2MnFe(PO4)2
_chemical_formula_sum   'Na96 Mn48 Fe48 P96 O384'
_cell_volume   8733.07869363
_cell_formula_units_Z   48
loop_
 _symmetry_equiv_pos_site_id
 _symmetry_equiv_pos_as_xyz
  1  'x, y, z'
loop_
 _atom_site_type_symbol
 _atom_site_label
 _atom_site_symmetry_multiplicity
 _atom_site_fract_x
 _atom_site_fract_y
 _atom_site_fract_z
 _atom_site_occupancy
  Na  Na0  1  0.14069867  0.24819013  0.24258750  1
  Na  Na1  1  0.14068018  0.25025709  0.49361188  1
  Na  Na2  1  0.14088771  0.25034321  0.74175552  1
  Na  Na3  1  0.14044768  0.24914302  0.99169349  1
  Na  Na4  1  0.14054931  0.58457424  0.24406698  1
  Na  Na5  1  0.14073001  0.58476803  0.49391016  1
  Na  Na6  1  0.14089004  0.58300535  0.74316099  1
  Na  Na7  1  0.14081792  0.58199801  0.99288102  1
  Na  Na8  1  0.14079799  0.91625495  0.24439497  1
  Na  Na9  1  0.14053278  0.91754842  0.49266348  1
  Na  Na10  1  0.14007807  0.91735453  0.74252407  1
  Na  Na11  1  0.13996468  0.91527743  0.99253342  1
  Na  Na12  1  0.64051221  0.25098257  0.24365892  1
  Na  Na13  1  0.64067080  0.24958525  0.49459611  1
  Na  Na14  1  0.64044082  0.24867497  0.74448090  1
  Na  Na15  1  0.64033865  0.24953554  0.99247700  1
  Na  Na16  1  0.64021816  0.58473559  0.24431013  1
  Na  Na17  1  0.64038048  0.58437863  0.49536706  1
  Na  Na18  1  0.64083220  0.58189729  0.74419352  1
  Na  Na19  1  0.64073194  0.58349037  0.99547061  1
  Na  Na20  1  0.64065168  0.91809239  0.24415609  1
  Na  Na21  1  0.64064359  0.91679848  0.49479851  1
  Na  Na22  1  0.64025703  0.91560606  0.74429862  1
  Na  Na23  1  0.64032170  0.91712235  0.99372909  1
  Na  Na24  1  0.35961157  0.08154238  0.00651061  1
  Na  Na25  1  0.35913943  0.08246304  0.25581512  1
  Na  Na26  1  0.35893612  0.08493791  0.50616248  1
  Na  Na27  1  0.35928042  0.08415019  0.75585512  1
  Na  Na28  1  0.35909817  0.41590539  0.00530870  1
  Na  Na29  1  0.35866258  0.41711282  0.25605486  1
  Na  Na30  1  0.35835481  0.41755818  0.50755935  1
  Na  Na31  1  0.35917229  0.41666550  0.75670911  1
  Na  Na32  1  0.35827076  0.74909751  0.00649489  1
  Na  Na33  1  0.35850141  0.75048191  0.25801315  1
  Na  Na34  1  0.35976066  0.75043713  0.50749660  1
  Na  Na35  1  0.35925325  0.74977302  0.75636355  1
  Na  Na36  1  0.86066859  0.08274086  0.00549573  1
  Na  Na37  1  0.86015415  0.08424764  0.25501945  1
  Na  Na38  1  0.86028017  0.08340644  0.50661423  1
  Na  Na39  1  0.86031242  0.08266010  0.75690327  1
  Na  Na40  1  0.85955248  0.41682452  0.00585090  1
  Na  Na41  1  0.85940135  0.41742924  0.25511542  1
  Na  Na42  1  0.85979280  0.41723940  0.50650843  1
  Na  Na43  1  0.85962522  0.41501535  0.75641189  1
  Na  Na44  1  0.85980784  0.74995511  0.00647626  1
  Na  Na45  1  0.85970629  0.75079876  0.25558774  1
  Na  Na46  1  0.86009448  0.75148489  0.50743558  1
  Na  Na47  1  0.86027700  0.74966627  0.75702163  1
  Na  Na48  1  0.10979774  0.08167762  0.11754340  1
  Na  Na49  1  0.11049802  0.08229211  0.36849946  1
  Na  Na50  1  0.11056039  0.08236435  0.61790413  1
  Na  Na51  1  0.10984122  0.08277760  0.86697899  1
  Na  Na52  1  0.10998510  0.41637928  0.11778450  1
  Na  Na53  1  0.10985171  0.41743647  0.36812186  1
  Na  Na54  1  0.11031886  0.41651510  0.61842039  1
  Na  Na55  1  0.11003596  0.41642077  0.86638848  1
  Na  Na56  1  0.10993570  0.75048126  0.11865107  1
  Na  Na57  1  0.11028631  0.75075875  0.36887870  1
  Na  Na58  1  0.10984756  0.75087486  0.61848336  1
  Na  Na59  1  0.10946885  0.75090812  0.86781766  1
  Na  Na60  1  0.60985481  0.08459073  0.11748907  1
  Na  Na61  1  0.61001722  0.08354962  0.36967074  1
  Na  Na62  1  0.60992561  0.08211614  0.61917726  1
  Na  Na63  1  0.61001980  0.08280233  0.86885127  1
  Na  Na64  1  0.60947370  0.41648090  0.11844038  1
  Na  Na65  1  0.60929073  0.41712142  0.36998222  1
  Na  Na66  1  0.60963708  0.41539058  0.61924651  1
  Na  Na67  1  0.60997772  0.41626892  0.86930180  1
  Na  Na68  1  0.60966884  0.75115867  0.11919615  1
  Na  Na69  1  0.60964887  0.75065246  0.37052224  1
  Na  Na70  1  0.60933224  0.74989560  0.61955789  1
  Na  Na71  1  0.60927502  0.74973187  0.87036305  1
  Na  Na72  1  0.39009218  0.24978555  0.12975787  1
  Na  Na73  1  0.38964054  0.24985158  0.38163855  1
  Na  Na74  1  0.38939212  0.24965255  0.63123558  1
  Na  Na75  1  0.39026290  0.24981302  0.88098794  1
  Na  Na76  1  0.38928805  0.58251378  0.13173802  1
  Na  Na77  1  0.38927948  0.58414448  0.38317210  1
  Na  Na78  1  0.38939237  0.58371055  0.63254983  1
  Na  Na79  1  0.38938453  0.58216863  0.88158795  1
  Na  Na80  1  0.38906993  0.91761405  0.13169185  1
  Na  Na81  1  0.38974038  0.91704615  0.38263776  1
  Na  Na82  1  0.38996003  0.91693633  0.63047032  1
  Na  Na83  1  0.38979147  0.91718981  0.88148731  1
  Na  Na84  1  0.89068541  0.24905820  0.12959617  1
  Na  Na85  1  0.89106354  0.24898638  0.38037147  1
  Na  Na86  1  0.89082766  0.24887011  0.63226802  1
  Na  Na87  1  0.89077105  0.24824379  0.88063562  1
  Na  Na88  1  0.89022276  0.58379917  0.13149084  1
  Na  Na89  1  0.89042056  0.58483300  0.38054081  1
  Na  Na90  1  0.89074807  0.58378253  0.63275831  1
  Na  Na91  1  0.89032476  0.58393239  0.88160822  1
  Na  Na92  1  0.89043315  0.91674786  0.13064938  1
  Na  Na93  1  0.89030902  0.91740536  0.38160092  1
  Na  Na94  1  0.89118046  0.91725813  0.63177823  1
  Na  Na95  1  0.89072822  0.91793669  0.88120051  1
  Mn  Mn96  1  0.49980525  0.33310512  0.25025479  1
  Mn  Mn97  1  0.00009205  0.50026022  0.50001759  1
  Mn  Mn98  1  0.00048950  0.83324248  0.25012975  1
  Mn  Mn99  1  0.75011466  0.50119091  0.37582550  1
  Mn  Mn100  1  0.00017506  0.50022339  -0.00090768  1
  Mn  Mn101  1  0.24992743  0.16473608  0.12365666  1
  Mn  Mn102  1  0.75071421  0.83358340  0.62580153  1
  Mn  Mn103  1  0.24976791  0.33327813  0.12458274  1
  Mn  Mn104  1  0.75035020  0.66796854  0.37456102  1
  Mn  Mn105  1  0.49952801  0.83397166  0.25039337  1
  Mn  Mn106  1  0.24982546  0.83383673  0.62475323  1
  Mn  Mn107  1  0.75009301  0.33345577  0.12441135  1
  Mn  Mn108  1  0.24993787  0.83295685  0.87468577  1
  Mn  Mn109  1  0.75030754  0.33411860  0.37429310  1
  Mn  Mn110  1  0.50015104  0.49913140  0.00064831  1
  Mn  Mn111  1  0.24981543  0.16610899  0.87388454  1
  Mn  Mn112  1  0.49928952  0.66735567  0.25101647  1
  Mn  Mn113  1  0.49931732  -0.00089685  0.74955767  1
  Mn  Mn114  1  0.00019257  0.66813464  0.50078179  1
  Mn  Mn115  1  0.50005507  0.16706373  0.24914377  1
  Mn  Mn116  1  0.49986943  0.00000409  0.50032281  1
  Mn  Mn117  1  0.00030764  0.33199445  0.24865806  1
  Mn  Mn118  1  -0.00012155  0.49999934  0.74978977  1
  Mn  Mn119  1  0.74949577  0.83322108  0.87519635  1
  Mn  Mn120  1  0.74967603  0.66553582  0.87647428  1
  Mn  Mn121  1  0.24941909  0.33383001  0.37476319  1
  Mn  Mn122  1  0.75080512  0.16672760  0.37544153  1
  Mn  Mn123  1  0.49929894  0.33231685  0.49991269  1
  Mn  Mn124  1  0.49962323  0.00083825  0.25066793  1
  Mn  Mn125  1  0.75015059  0.49966498  0.62530393  1
  Mn  Mn126  1  0.49949404  0.16662164  0.75041621  1
  Mn  Mn127  1  0.00047324  0.00009107  0.24944055  1
  Mn  Mn128  1  0.49903110  0.50040223  0.50060305  1
  Mn  Mn129  1  0.74984248  0.00072806  0.12460651  1
  Mn  Mn130  1  0.75004749  0.83477898  0.37582781  1
  Mn  Mn131  1  0.74999765  0.33247449  0.87565133  1
  Mn  Mn132  1  0.50025064  0.49904062  0.75075031  1
  Mn  Mn133  1  0.49831098  0.83421958  0.00036140  1
  Mn  Mn134  1  0.49939743  0.50020923  0.25089417  1
  Mn  Mn135  1  0.00034977  0.33206434  -0.00120826  1
  Mn  Mn136  1  0.00058310  0.66800485  -0.00025296  1
  Mn  Mn137  1  0.74995489  0.16594288  0.62500133  1
  Mn  Mn138  1  0.00014901  0.33237739  0.49937143  1
  Mn  Mn139  1  0.00123898  0.16516060  0.50060780  1
  Mn  Mn140  1  0.49902447  0.66671401  0.00043268  1
  Mn  Mn141  1  -0.00018278  0.50057479  0.24920047  1
  Mn  Mn142  1  0.49971752  0.66702658  0.75087047  1
  Mn  Mn143  1  0.24992923  0.66618385  0.12559066  1
  Fe  Fe144  1  -0.00013659  0.83380873  0.50019012  1
  Fe  Fe145  1  0.25028664  0.83388945  0.37518468  1
  Fe  Fe146  1  0.24946501  0.49973683  0.12446704  1
  Fe  Fe147  1  0.00061506  0.16585361  0.24929427  1
  Fe  Fe148  1  0.24988091  0.50073449  0.62558027  1
  Fe  Fe149  1  0.00005972  0.66748837  0.24985041  1
  Fe  Fe150  1  0.74986615  0.50061449  0.12537891  1
  Fe  Fe151  1  0.49936843  0.83320417  0.75049852  1
  Fe  Fe152  1  0.24966650  0.66676308  0.62506103  1
  Fe  Fe153  1  -0.00066573  0.83376102  -0.00100503  1
  Fe  Fe154  1  0.00014136  -0.00027311  0.50021563  1
  Fe  Fe155  1  0.00113865  0.16606260  -0.00117369  1
  Fe  Fe156  1  0.25003330  -0.00056285  0.87457233  1
  Fe  Fe157  1  0.75041718  0.00089385  0.37445869  1
  Fe  Fe158  1  0.25005551  0.33416746  0.62430782  1
  Fe  Fe159  1  0.24989286  0.33320535  0.87376896  1
  Fe  Fe160  1  0.49998847  0.16691551  -0.00076612  1
  Fe  Fe161  1  0.75028266  0.16557583  0.87429086  1
  Fe  Fe162  1  0.50036447  0.83335393  0.50069496  1
  Fe  Fe163  1  0.75022879  -0.00000987  0.62559431  1
  Fe  Fe164  1  0.24979173  0.83318172  0.12565865  1
  Fe  Fe165  1  0.00045787  0.83432957  0.74959143  1
  Fe  Fe166  1  0.00065544  0.16570228  0.74982062  1
  Fe  Fe167  1  0.00010222  0.33265312  0.74951077  1
  Fe  Fe168  1  0.00051491  0.66789339  0.74998544  1
  Fe  Fe169  1  0.75037744  0.66726438  0.12507486  1
  Fe  Fe170  1  0.75006388  0.16664823  0.12465994  1
  Fe  Fe171  1  0.75061937  -0.00026634  0.87552866  1
  Fe  Fe172  1  0.75046204  0.83435296  0.12520186  1
  Fe  Fe173  1  0.25006844  0.66696540  0.37547240  1
  Fe  Fe174  1  0.24987299  0.16703586  0.62442059  1
  Fe  Fe175  1  0.50011605  0.00010297  0.00000388  1
  Fe  Fe176  1  0.50016615  0.33244856  0.75001630  1
  Fe  Fe177  1  0.49966065  0.33310279  -0.00016535  1
  Fe  Fe178  1  0.25033745  0.00076349  0.62383707  1
  Fe  Fe179  1  0.00064931  -0.00016712  -0.00107505  1
  Fe  Fe180  1  0.24919776  -0.00153603  0.12546529  1
  Fe  Fe181  1  0.24961519  0.66577777  0.87534353  1
  Fe  Fe182  1  0.24964955  0.49938518  0.87425211  1
  Fe  Fe183  1  0.75045155  0.66650819  0.62595602  1
  Fe  Fe184  1  0.49977572  0.66727485  0.50142424  1
  Fe  Fe185  1  0.00067099  -0.00020523  0.75008223  1
  Fe  Fe186  1  0.25005677  0.16670205  0.37498180  1
  Fe  Fe187  1  0.75039553  0.49954767  0.87541892  1
  Fe  Fe188  1  0.75019708  0.33274844  0.62576422  1
  Fe  Fe189  1  0.24943790  0.50073113  0.37572050  1
  Fe  Fe190  1  0.25011384  0.00045676  0.37469160  1
  Fe  Fe191  1  0.50028402  0.16656646  0.50038110  1
  P  P192  1  0.04295936  0.24769210  0.10163220  1
  P  P193  1  0.04295877  0.24789705  0.35177544  1
  P  P194  1  0.04288991  0.24933482  0.60391051  1
  P  P195  1  0.04213606  0.24892962  0.85074630  1
  P  P196  1  0.04290157  0.58396975  0.10286155  1
  P  P197  1  0.04210429  0.58534614  0.35223947  1
  P  P198  1  0.04261675  0.58419805  0.60373175  1
  P  P199  1  0.04210130  0.58507808  0.85179856  1
  P  P200  1  0.04128266  0.91627817  0.10063291  1
  P  P201  1  0.04266870  0.91683269  0.35381167  1
  P  P202  1  0.04190919  0.91662543  0.60193931  1
  P  P203  1  0.04168770  0.91673009  0.85175728  1
  P  P204  1  0.54149720  0.25013169  0.10086036  1
  P  P205  1  0.54293968  0.24942917  0.35355017  1
  P  P206  1  0.54223024  0.24863262  0.60311866  1
  P  P207  1  0.54207956  0.25079721  0.85327683  1
  P  P208  1  0.54242010  0.58351686  0.10378981  1
  P  P209  1  0.54222675  0.58432093  0.35465177  1
  P  P210  1  0.54169800  0.58435829  0.60329030  1
  P  P211  1  0.54281538  0.58295587  0.85376844  1
  P  P212  1  0.54208067  0.91828281  0.10266083  1
  P  P213  1  0.54254789  0.91676070  0.35408681  1
  P  P214  1  0.54225700  0.91507618  0.60315809  1
  P  P215  1  0.54175748  0.91564678  0.85294581  1
  P  P216  1  0.45726736  0.08350935  0.14566521  1
  P  P217  1  0.45731111  0.08483920  0.39795430  1
  P  P218  1  0.45718830  0.08344209  0.64653046  1
  P  P219  1  0.45852518  0.08296244  0.89835701  1
  P  P220  1  0.45685768  0.41614757  0.14680467  1
  P  P221  1  0.45603909  0.41664632  0.39751335  1
  P  P222  1  0.45752727  0.41486880  0.64809445  1
  P  P223  1  0.45783924  0.41469835  0.89724534  1
  P  P224  1  0.45591297  0.75060075  0.14753100  1
  P  P225  1  0.45807969  0.75038004  0.39958295  1
  P  P226  1  0.45755699  0.75141516  0.64735822  1
  P  P227  1  0.45603301  0.75032766  0.89686837  1
  P  P228  1  0.95853376  0.08428936  0.14603241  1
  P  P229  1  0.95824974  0.08195015  0.39745807  1
  P  P230  1  0.95929392  0.08240001  0.64846960  1
  P  P231  1  0.95954684  0.08321590  0.89713587  1
  P  P232  1  0.95733872  0.41606907  0.14597932  1
  P  P233  1  0.95741119  0.41660351  0.39639574  1
  P  P234  1  0.95798371  0.41519669  0.64749691  1
  P  P235  1  0.95765665  0.41581177  0.89574431  1
  P  P236  1  0.95798948  0.74965381  0.14699838  1
  P  P237  1  0.95774587  0.75160802  0.39765071  1
  P  P238  1  0.95884016  0.75142786  0.64845330  1
  P  P239  1  0.95787855  0.75204407  0.89623854  1
  P  P240  1  0.20778422  0.08113910  0.22765669  1
  P  P241  1  0.20884360  0.08359260  0.47694600  1
  P  P242  1  0.20912635  0.08329134  0.72598638  1
  P  P243  1  0.20772860  0.08096657  0.97675757  1
  P  P244  1  0.20751581  0.41826785  0.22739517  1
  P  P245  1  0.20761334  0.41864647  0.47818156  1
  P  P246  1  0.20884127  0.41689065  0.72679945  1
  P  P247  1  0.20813930  0.41610704  0.97568982  1
  P  P248  1  0.20803471  0.75129952  0.22836138  1
  P  P249  1  0.20922678  0.75042493  0.47682715  1
  P  P250  1  0.20815018  0.74888059  0.72758079  1
  P  P251  1  0.20749055  0.74831397  0.97749493  1
  P  P252  1  0.70748585  0.08490325  0.22749580  1
  P  P253  1  0.70825167  0.08184201  0.47798104  1
  P  P254  1  0.70802315  0.08153698  0.72850311  1
  P  P255  1  0.70883597  0.08339688  0.97674670  1
  P  P256  1  0.70739201  0.41827860  0.22723966  1
  P  P257  1  0.70736907  0.41669535  0.47891489  1
  P  P258  1  0.70782438  0.41489376  0.72821304  1
  P  P259  1  0.70815305  0.41805798  0.97814081  1
  P  P260  1  0.70864510  0.75129524  0.22656544  1
  P  P261  1  0.70789287  0.75030540  0.47920295  1
  P  P262  1  0.70788177  0.74846133  0.72810673  1
  P  P263  1  0.70744369  0.75011699  0.97975757  1
  P  P264  1  0.29189734  0.24951231  0.02071437  1
  P  P265  1  0.29171413  0.24858715  0.27238155  1
  P  P266  1  0.29062636  0.25038936  0.52272801  1
  P  P267  1  0.29185803  0.25126239  0.77111635  1
  P  P268  1  0.29176463  0.58156668  0.02199880  1
  P  P269  1  0.29112063  0.58329907  0.27388433  1
  P  P270  1  0.29108812  0.58364609  0.52344982  1
  P  P271  1  0.29079222  0.58316473  0.77292298  1
  P  P272  1  0.29064161  0.91600140  0.02323989  1
  P  P273  1  0.29140767  0.91688730  0.27325817  1
  P  P274  1  0.29180560  0.91839487  0.52150410  1
  P  P275  1  0.29187489  0.91804660  0.77181610  1
  P  P276  1  0.79205398  0.24799740  0.02168553  1
  P  P277  1  0.79306056  0.24993566  0.27103646  1
  P  P278  1  0.79292258  0.25111261  0.52300481  1
  P  P279  1  0.79230009  0.24827827  0.77238754  1
  P  P280  1  0.79187030  0.58306047  0.02360952  1
  P  P281  1  0.79264875  0.58403696  0.27091278  1
  P  P282  1  0.79302030  0.58499516  0.52328415  1
  P  P283  1  0.79229784  0.58183699  0.77294651  1
  P  P284  1  0.79230681  0.91619402  0.02210911  1
  P  P285  1  0.79247731  0.91835973  0.27212655  1
  P  P286  1  0.79275869  0.91869362  0.52285730  1
  P  P287  1  0.79225529  0.91776565  0.77270385  1
  O  O288  1  0.03764020  0.24763495  0.18157433  1
  O  O289  1  0.03788239  0.24822162  0.43178619  1
  O  O290  1  0.03752039  0.24950519  0.68380100  1
  O  O291  1  0.03735483  0.24858567  0.93074696  1
  O  O292  1  0.03761440  0.58429137  0.18280884  1
  O  O293  1  0.03711519  0.58510732  0.43224719  1
  O  O294  1  0.03735178  0.58466257  0.68364948  1
  O  O295  1  0.03735658  0.58493631  0.93178827  1
  O  O296  1  0.03662126  0.91657030  0.18060596  1
  O  O297  1  0.03744738  0.91699831  0.43368065  1
  O  O298  1  0.03684737  0.91633003  0.68184218  1
  O  O299  1  0.03666196  0.91676267  0.93161109  1
  O  O300  1  0.53713085  0.24987245  0.18087566  1
  O  O301  1  0.53799108  0.24882528  0.43352968  1
  O  O302  1  0.53695350  0.24942993  0.68306616  1
  O  O303  1  0.53662022  0.25069291  0.93313443  1
  O  O304  1  0.53731556  0.58346530  0.18379091  1
  O  O305  1  0.53684320  0.58493047  0.43463383  1
  O  O306  1  0.53685430  0.58403105  0.68329506  1
  O  O307  1  0.53772268  0.58289799  0.93371513  1
  O  O308  1  0.53729340  0.91812823  0.18268513  1
  O  O309  1  0.53746712  0.91618288  0.43406243  1
  O  O310  1  0.53680337  0.91486137  0.68307425  1
  O  O311  1  0.53635511  0.91673173  0.93288094  1
  O  O312  1  0.46247447  0.08317133  0.06573470  1
  O  O313  1  0.46228022  0.08462032  0.31795111  1
  O  O314  1  0.46260727  0.08400012  0.56666267  1
  O  O315  1  0.46298468  0.08279506  0.81833069  1
  O  O316  1  0.46220237  0.41565837  0.06681666  1
  O  O317  1  0.46104110  0.41684931  0.31753029  1
  O  O318  1  0.46238664  0.41542456  0.56813195  1
  O  O319  1  0.46327285  0.41449082  0.81733110  1
  O  O320  1  0.46044153  0.75055124  0.06752465  1
  O  O321  1  0.46252223  0.75042144  0.31954057  1
  O  O322  1  0.46340988  0.75103930  0.56747950  1
  O  O323  1  0.46134392  0.75077521  0.81691787  1
  O  O324  1  0.96406733  0.08415011  0.06619379  1
  O  O325  1  0.96325572  0.08262124  0.31752579  1
  O  O326  1  0.96403249  0.08159319  0.56854140  1
  O  O327  1  0.96451368  0.08310174  0.81728813  1
  O  O328  1  0.96249141  0.41611086  0.06597887  1
  O  O329  1  0.96265315  0.41658966  0.31641974  1
  O  O330  1  0.96286743  0.41551864  0.56749060  1
  O  O331  1  0.96289047  0.41548364  0.81577734  1
  O  O332  1  0.96310665  0.75047550  0.06707466  1
  O  O333  1  0.96285034  0.75066939  0.31770803  1
  O  O334  1  0.96362009  0.75171084  0.56849001  1
  O  O335  1  0.96345597  0.75171446  0.81639164  1
  O  O336  1  0.21261445  0.08066508  0.05667033  1
  O  O337  1  0.21327257  0.08176734  0.30746514  1
  O  O338  1  0.21434912  0.08353983  0.55681236  1
  O  O339  1  0.21370322  0.08312712  0.80591310  1
  O  O340  1  0.21277669  0.41666141  0.05563715  1
  O  O341  1  0.21278724  0.41840692  0.30731038  1
  O  O342  1  0.21333436  0.41850505  0.55800290  1
  O  O343  1  0.21367632  0.41610492  0.80668775  1
  O  O344  1  0.21286693  0.74888094  0.05736500  1
  O  O345  1  0.21336532  0.75147945  0.30817267  1
  O  O346  1  0.21350861  0.75028037  0.55680809  1
  O  O347  1  0.21330297  0.74855043  0.80747635  1
  O  O348  1  0.71361371  0.08403829  0.05672319  1
  O  O349  1  0.71282298  0.08416016  0.30741095  1
  O  O350  1  0.71342566  0.08173237  0.55794026  1
  O  O351  1  0.71359344  0.08190737  0.80837039  1
  O  O352  1  0.71350579  0.41832348  0.05803839  1
  O  O353  1  0.71258702  0.41801928  0.30721613  1
  O  O354  1  0.71268669  0.41587600  0.55887029  1
  O  O355  1  0.71312158  0.41532947  0.80813509  1
  O  O356  1  0.71312066  0.75054375  0.05959225  1
  O  O357  1  0.71380090  0.75151765  0.30659714  1
  O  O358  1  0.71321320  0.74970348  0.55911598  1
  O  O359  1  0.71270906  0.74862857  0.80808647  1
  O  O360  1  0.28648871  0.24862623  0.19244651  1
  O  O361  1  0.28595323  0.24981154  0.44278234  1
  O  O362  1  0.28669167  0.25119638  0.69125051  1
  O  O363  1  0.28647578  0.25005891  0.94079870  1
  O  O364  1  0.28620617  0.58321687  0.19398317  1
  O  O365  1  0.28631002  0.58372833  0.44358764  1
  O  O366  1  0.28573079  0.58302776  0.69306236  1
  O  O367  1  0.28651129  0.58200906  0.94216635  1
  O  O368  1  0.28626620  0.91616550  0.19337406  1
  O  O369  1  0.28651428  0.91820013  0.44166969  1
  O  O370  1  0.28656110  0.91832845  0.69192636  1
  O  O371  1  0.28590977  0.91599115  0.94327826  1
  O  O372  1  0.78761514  0.24941365  0.19109172  1
  O  O373  1  0.78788942  0.25086483  0.44302301  1
  O  O374  1  0.78709248  0.24893552  0.69248209  1
  O  O375  1  0.78664271  0.24769212  0.94176105  1
  O  O376  1  0.78721088  0.58397761  0.19101102  1
  O  O377  1  0.78798375  0.58500207  0.44329651  1
  O  O378  1  0.78711040  0.58263978  0.69303333  1
  O  O379  1  0.78678198  0.58240369  0.94360667  1
  O  O380  1  0.78709354  0.91754919  0.19218151  1
  O  O381  1  0.78742733  0.91888365  0.44290754  1
  O  O382  1  0.78718867  0.91799067  0.69276726  1
  O  O383  1  0.78693717  0.91662377  0.94220619  1
  O  O384  1  0.22774213  0.24922651  0.05653412  1
  O  O385  1  0.22748393  0.24851178  0.30821915  1
  O  O386  1  0.22663174  0.25074089  0.55883229  1
  O  O387  1  0.22768464  0.25104955  0.80725873  1
  O  O388  1  0.22762164  0.58169994  0.05825907  1
  O  O389  1  0.22697857  0.58317446  0.31004992  1
  O  O390  1  0.22695248  0.58300586  0.55961888  1
  O  O391  1  0.22680147  0.58363547  0.80938667  1
  O  O392  1  0.22645940  0.91623844  0.05927529  1
  O  O393  1  0.22737485  0.91751234  0.30959269  1
  O  O394  1  0.22770661  0.91856967  0.55780105  1
  O  O395  1  0.22762706  0.91792313  0.80770917  1
  O  O396  1  0.72787310  0.24832161  0.05773599  1
  O  O397  1  0.72879221  0.24991717  0.30665548  1
  O  O398  1  0.72849339  0.25112048  0.55842774  1
  O  O399  1  0.72807057  0.24791949  0.80822957  1
  O  O400  1  0.72775728  0.58373811  0.05976433  1
  O  O401  1  0.72843357  0.58411670  0.30682771  1
  O  O402  1  0.72860346  0.58503137  0.55873727  1
  O  O403  1  0.72801261  0.58122088  0.80874142  1
  O  O404  1  0.72812008  0.91573339  0.05809541  1
  O  O405  1  0.72826573  0.91895193  0.30817992  1
  O  O406  1  0.72850665  0.91819075  0.55877311  1
  O  O407  1  0.72796982  0.91819748  0.80841818  1
  O  O408  1  0.27188342  0.08038559  0.19128070  1
  O  O409  1  0.27273014  0.08364309  0.44007379  1
  O  O410  1  0.27326866  0.08303014  0.69009380  1
  O  O411  1  0.27210340  0.08130281  0.94116822  1
  O  O412  1  0.27172844  0.41812669  0.19136182  1
  O  O413  1  0.27164934  0.41866080  0.44171015  1
  O  O414  1  0.27284827  0.41767137  0.69040311  1
  O  O415  1  0.27237594  0.41544174  0.93985684  1
  O  O416  1  0.27211923  0.75125594  0.19206982  1
  O  O417  1  0.27339835  0.75029821  0.44112442  1
  O  O418  1  0.27228038  0.74942724  0.69159607  1
  O  O419  1  0.27167938  0.74803717  0.94140281  1
  O  O420  1  0.77180292  0.08517924  0.19168984  1
  O  O421  1  0.77255432  0.08175900  0.44217281  1
  O  O422  1  0.77218833  0.08152367  0.69227397  1
  O  O423  1  0.77309282  0.08322786  0.94085653  1
  O  O424  1  0.77172423  0.41818871  0.19164225  1
  O  O425  1  0.77173794  0.41710500  0.44348615  1
  O  O426  1  0.77206278  0.41489901  0.69228454  1
  O  O427  1  0.77231073  0.41762187  0.94204634  1
  O  O428  1  0.77281395  0.75122261  0.19051276  1
  O  O429  1  0.77217430  0.75096276  0.44365748  1
  O  O430  1  0.77232059  0.74851039  0.69275330  1
  O  O431  1  0.77155844  0.74993323  0.94368553  1
  O  O432  1  0.02263095  0.08439606  0.18233724  1
  O  O433  1  0.02260317  0.08098035  0.43301567  1
  O  O434  1  0.02354882  0.08332293  0.68404953  1
  O  O435  1  0.02359530  0.08339240  0.93331979  1
  O  O436  1  0.02173601  0.41622110  0.18096957  1
  O  O437  1  0.02182537  0.41658614  0.43152194  1
  O  O438  1  0.02233035  0.41557246  0.68270567  1
  O  O439  1  0.02205787  0.41603885  0.93085096  1
  O  O440  1  0.02226202  0.74890970  0.18271852  1
  O  O441  1  0.02209750  0.75233331  0.43316848  1
  O  O442  1  0.02308435  0.75187379  0.68410235  1
  O  O443  1  0.02203440  0.75265012  0.93229706  1
  O  O444  1  0.52160060  0.08337681  0.18111453  1
  O  O445  1  0.52172656  0.08493021  0.43322987  1
  O  O446  1  0.52138742  0.08316017  0.68206729  1
  O  O447  1  0.52279408  0.08234085  0.93376673  1
  O  O448  1  0.52122804  0.41657986  0.18204862  1
  O  O449  1  0.52054590  0.41659540  0.43222786  1
  O  O450  1  0.52194825  0.41453624  0.68332324  1
  O  O451  1  0.52204634  0.41461201  0.93309028  1
  O  O452  1  0.52061557  0.75054045  0.18185564  1
  O  O453  1  0.52242679  0.75009902  0.43491681  1
  O  O454  1  0.52158317  0.75181157  0.68380953  1
  O  O455  1  0.52035733  0.75056056  0.93214342  1
  O  O456  1  0.47716481  0.25047811  0.06559643  1
  O  O457  1  0.47841434  0.24974083  0.31870459  1
  O  O458  1  0.47790079  0.24774213  0.56750123  1
  O  O459  1  0.47791447  0.25142497  0.81718522  1
  O  O460  1  0.47795097  0.58291055  0.06887741  1
  O  O461  1  0.47779814  0.58397473  0.31947379  1
  O  O462  1  0.47728235  0.58469851  0.56819348  1
  O  O463  1  0.47834997  0.58281260  0.81888415  1
  O  O464  1  0.47754076  0.91918670  0.06769879  1
  O  O465  1  0.47807867  0.91711174  0.31907747  1
  O  O466  1  0.47807999  0.91528320  0.56730874  1
  O  O467  1  0.47746194  0.91490509  0.81721146  1
  O  O468  1  0.97871629  0.24748427  0.06586863  1
  O  O469  1  0.97861809  0.24759186  0.31631995  1
  O  O470  1  0.97868670  0.24888818  0.56825757  1
  O  O471  1  0.97787589  0.24844957  0.81512536  1
  O  O472  1  0.97854272  0.58395751  0.06761227  1
  O  O473  1  0.97784137  0.58569813  0.31666888  1
  O  O474  1  0.97831198  0.58415309  0.56843471  1
  O  O475  1  0.97775008  0.58446152  0.81675001  1
  O  O476  1  0.97708531  0.91617230  0.06495569  1
  O  O477  1  0.97851502  0.91684919  0.31801816  1
  O  O478  1  0.97776578  0.91672306  0.56573303  1
  O  O479  1  0.97765218  0.91618044  0.81552643  1
  O  O480  1  0.07371474  0.31168415  0.07395794  1
  O  O481  1  0.07385374  0.31164122  0.32391845  1
  O  O482  1  0.07387092  0.31267798  0.57513375  1
  O  O483  1  0.07210141  0.31320418  0.82255967  1
  O  O484  1  0.07426917  0.64715736  0.07447851  1
  O  O485  1  0.07281505  0.64899174  0.32398593  1
  O  O486  1  0.07396887  0.64741667  0.57528087  1
  O  O487  1  0.07202583  0.64911515  0.82319422  1
  O  O488  1  0.07177818  0.98008187  0.07218334  1
  O  O489  1  0.07394554  0.97993578  0.32486725  1
  O  O490  1  0.07274422  0.98033891  0.57371905  1
  O  O491  1  0.07198324  0.98068120  0.82296310  1
  O  O492  1  0.57262170  0.31365658  0.07292374  1
  O  O493  1  0.57372121  0.31326571  0.32557970  1
  O  O494  1  0.57302594  0.31219666  0.57475385  1
  O  O495  1  0.57345408  0.31382364  0.82437902  1
  O  O496  1  0.57290637  0.64733430  0.07576090  1
  O  O497  1  0.57342417  0.64753216  0.32596002  1
  O  O498  1  0.57248101  0.64794871  0.57501268  1
  O  O499  1  0.57375543  0.64650270  0.82571359  1
  O  O500  1  0.57337990  0.98136119  0.07390896  1
  O  O501  1  0.57348995  0.98041625  0.32612483  1
  O  O502  1  0.57335936  0.97888191  0.57566101  1
  O  O503  1  0.57272902  0.97908076  0.82444368  1
  O  O504  1  0.42594522  0.02049562  0.17484260  1
  O  O505  1  0.42638665  0.02111043  0.42569082  1
  O  O506  1  0.42616664  0.01968406  0.67418168  1
  O  O507  1  0.42715468  0.01973947  0.92666960  1
  O  O508  1  0.42582437  0.35273337  0.17520816  1
  O  O509  1  0.42507535  0.35305453  0.42545703  1
  O  O510  1  0.42683406  0.35123511  0.67621358  1
  O  O511  1  0.42670654  0.35155291  0.92604718  1
  O  O512  1  0.42496717  0.68718882  0.17597246  1
  O  O513  1  0.42721737  0.68677942  0.42794644  1
  O  O514  1  0.42644744  0.68773043  0.67527930  1
  O  O515  1  0.42534071  0.68646288  0.92470803  1
  O  O516  1  0.92735565  0.02064636  0.17403045  1
  O  O517  1  0.92715931  0.01863451  0.42596888  1
  O  O518  1  0.92902606  0.01874264  0.67766749  1
  O  O519  1  0.92907999  0.01940494  0.92595535  1
  O  O520  1  0.92649364  0.35235833  0.17380915  1
  O  O521  1  0.92644816  0.35299604  0.42436703  1
  O  O522  1  0.92770361  0.35140208  0.67606075  1
  O  O523  1  0.92651708  0.35247001  0.92411543  1
  O  O524  1  0.92722335  0.68605921  0.17529657  1
  O  O525  1  0.92668077  0.68826554  0.42624656  1
  O  O526  1  0.92895185  0.68711391  0.67676185  1
  O  O527  1  0.92692189  0.68841091  0.92450376  1
  O  O528  1  0.17646328  0.01779923  0.19926207  1
  O  O529  1  0.17772273  0.02010371  0.44872158  1
  O  O530  1  0.17775832  0.02006190  0.69759358  1
  O  O531  1  0.17708107  0.01760591  0.94770336  1
  O  O532  1  0.17659580  0.35435112  0.19979036  1
  O  O533  1  0.17642268  0.35503265  0.45015750  1
  O  O534  1  0.17848620  0.35321427  0.69759481  1
  O  O535  1  0.17694054  0.35260651  0.94757385  1
  O  O536  1  0.17682904  0.68773650  0.20044410  1
  O  O537  1  0.17826237  0.68690364  0.44832595  1
  O  O538  1  0.17757627  0.68547267  0.69853100  1
  O  O539  1  0.17673221  0.68471056  0.94920858  1
  O  O540  1  0.67633245  0.02147942  0.19919248  1
  O  O541  1  0.67724839  0.01869183  0.44911662  1
  O  O542  1  0.67704166  0.01814755  0.69994882  1
  O  O543  1  0.67831784  0.01928303  0.94911250  1
  O  O544  1  0.67632089  0.35462413  0.19938800  1
  O  O545  1  0.67613842  0.35366515  0.44999262  1
  O  O546  1  0.67742517  0.35107212  0.69988001  1
  O  O547  1  0.67703409  0.35419611  0.95084034  1
  O  O548  1  0.67788135  0.68745038  0.19887543  1
  O  O549  1  0.67680620  0.68713543  0.45042491  1
  O  O550  1  0.67732278  0.68483532  0.69973250  1
  O  O551  1  0.67615167  0.68661510  0.95178113  1
  O  O552  1  0.32306524  0.31267973  0.04941015  1
  O  O553  1  0.32260143  0.31237591  0.30007926  1
  O  O554  1  0.32151094  0.31422386  0.55054925  1
  O  O555  1  0.32260088  0.31463982  0.80003749  1
  O  O556  1  0.32314160  0.64483814  0.05050863  1
  O  O557  1  0.32140370  0.64741258  0.30220077  1
  O  O558  1  0.32120226  0.64769413  0.55225535  1
  O  O559  1  0.32219723  0.64644955  0.80126011  1
  O  O560  1  0.32180068  0.97935919  0.05157699  1
  O  O561  1  0.32293292  0.98024646  0.30119991  1
  O  O562  1  0.32294788  0.98174840  0.54998680  1
  O  O563  1  0.32283484  0.98127956  0.80076819  1
  O  O564  1  0.82316674  0.31192722  0.04884665  1
  O  O565  1  0.82392150  0.31378207  0.29863191  1
  O  O566  1  0.82358315  0.31454210  0.55166303  1
  O  O567  1  0.82348274  0.31158177  0.80075307  1
  O  O568  1  0.82285041  0.64696381  0.05114106  1
  O  O569  1  0.82383635  0.64754439  0.29907759  1
  O  O570  1  0.82372055  0.64843367  0.55203483  1
  O  O571  1  0.82330683  0.64530207  0.80130078  1
  O  O572  1  0.82331271  0.97985096  0.04993580  1
  O  O573  1  0.82325957  0.98215076  0.29995387  1
  O  O574  1  0.82352481  0.98196420  0.55180689  1
  O  O575  1  0.82351118  0.98081251  0.80167856  1
  O  O576  1  0.42627771  0.14716560  0.17383835  1
  O  O577  1  0.42663562  0.14832761  0.42656476  1
  O  O578  1  0.42583142  0.14649480  0.67529005  1
  O  O579  1  0.42855984  0.14733865  0.92621482  1
  O  O580  1  0.42567850  0.47965168  0.17487987  1
  O  O581  1  0.42505554  0.48001042  0.42604814  1
  O  O582  1  0.42667825  0.47860728  0.67613662  1
  O  O583  1  0.42691891  0.47862991  0.92476763  1
  O  O584  1  0.42530937  0.81427542  0.17595796  1
  O  O585  1  0.42762258  0.81431490  0.42768406  1
  O  O586  1  0.42633815  0.81478555  0.67574225  1
  O  O587  1  0.42445376  0.81340483  0.92537623  1
  O  O588  1  0.92766740  0.14759232  0.17512323  1
  O  O589  1  0.92758450  0.14560608  0.42601704  1
  O  O590  1  0.92793071  0.14591197  0.67631012  1
  O  O591  1  0.92826855  0.14656969  0.92554961  1
  O  O592  1  0.92612082  0.47941032  0.17416465  1
  O  O593  1  0.92645353  0.48017487  0.42460367  1
  O  O594  1  0.92646238  0.47863983  0.67516682  1
  O  O595  1  0.92664737  0.47947164  0.92375805  1
  O  O596  1  0.92707350  0.81321636  0.17532062  1
  O  O597  1  0.92691566  0.81526216  0.42589848  1
  O  O598  1  0.92720623  0.81447818  0.67685195  1
  O  O599  1  0.92666582  0.81531874  0.92495600  1
  O  O600  1  0.07419260  0.18462609  0.07272694  1
  O  O601  1  0.07370646  0.18430156  0.32351314  1
  O  O602  1  0.07430048  0.18593681  0.57568702  1
  O  O603  1  0.07367411  0.18575664  0.82235590  1
  O  O604  1  0.07376742  0.52028617  0.07455796  1
  O  O605  1  0.07301779  0.52161562  0.32439228  1
  O  O606  1  0.07346001  0.52047329  0.57570772  1
  O  O607  1  0.07384784  0.52179868  0.82417792  1
  O  O608  1  0.07218712  0.85263539  0.07263469  1
  O  O609  1  0.07381918  0.85335309  0.32541813  1
  O  O610  1  0.07279797  0.85311502  0.57316483  1
  O  O611  1  0.07333764  0.85369201  0.82313567  1
  O  O612  1  0.57167903  0.18620772  0.07206609  1
  O  O613  1  0.57412309  0.18639114  0.32449605  1
  O  O614  1  0.57326068  0.18502964  0.57506088  1
  O  O615  1  0.57279193  0.18681654  0.82539319  1
  O  O616  1  0.57387832  0.52030128  0.07556496  1
  O  O617  1  0.57324223  0.52061302  0.32684244  1
  O  O618  1  0.57261302  0.52058699  0.57555183  1
  O  O619  1  0.57390947  0.51952165  0.82552749  1
  O  O620  1  0.57232165  0.85422829  0.07471278  1
  O  O621  1  0.57362306  0.85348238  0.32535881  1
  O  O622  1  0.57325867  0.85181330  0.57440037  1
  O  O623  1  0.57266848  0.85194913  0.82501739  1
  O  O624  1  0.32300142  0.18576304  0.04820694  1
  O  O625  1  0.32260392  0.18511855  0.30076861  1
  O  O626  1  0.32137886  0.18686738  0.55157415  1
  O  O627  1  0.32316281  0.18769955  0.79912862  1
  O  O628  1  0.32232569  0.51787197  0.05060736  1
  O  O629  1  0.32237185  0.52004039  0.30226427  1
  O  O630  1  0.32268663  0.52060460  0.55213875  1
  O  O631  1  0.32121653  0.51920314  0.80145394  1
  O  O632  1  0.32102282  0.85205926  0.05163969  1
  O  O633  1  0.32182386  0.85317090  0.30244062  1
  O  O634  1  0.32279578  0.85480341  0.54977085  1
  O  O635  1  0.32280434  0.85424028  0.79949646  1
  O  O636  1  0.82296034  0.18473207  0.05043016  1
  O  O637  1  0.82453917  0.18694247  0.29981027  1
  O  O638  1  0.82385124  0.18727901  0.55065456  1
  O  O639  1  0.82307848  0.18452452  0.80038852  1
  O  O640  1  0.82263861  0.51945588  0.05194877  1
  O  O641  1  0.82385233  0.52075868  0.29951411  1
  O  O642  1  0.82401195  0.52123537  0.55083901  1
  O  O643  1  0.82306798  0.51809716  0.80100789  1
  O  O644  1  0.82333220  0.85280933  0.05052367  1
  O  O645  1  0.82357799  0.85497648  0.30052862  1
  O  O646  1  0.82396398  0.85498106  0.55048089  1
  O  O647  1  0.82283639  0.85367063  0.80009950  1
  O  O648  1  0.17698741  0.14469158  0.19905115  1
  O  O649  1  0.17796384  0.14736258  0.44882907  1
  O  O650  1  0.17891441  0.14740894  0.69768536  1
  O  O651  1  0.17671558  0.14465636  0.94888132  1
  O  O652  1  0.17670590  0.48157244  0.19848076  1
  O  O653  1  0.17651230  0.48199337  0.44962650  1
  O  O654  1  0.17734606  0.48041303  0.69915261  1
  O  O655  1  0.17784447  0.47989712  0.94674657  1
  O  O656  1  0.17710764  0.81462568  0.19922862  1
  O  O657  1  0.17874056  0.81432353  0.44850975  1
  O  O658  1  0.17685762  0.81258533  0.70008692  1
  O  O659  1  0.17641147  0.81182203  0.94930935  1
  O  O660  1  0.67674833  0.14848472  0.19908728  1
  O  O661  1  0.67746730  0.14584348  0.45051303  1
  O  O662  1  0.67673503  0.14502609  0.70033841  1
  O  O663  1  0.67774016  0.14661704  0.94796585  1
  O  O664  1  0.67664684  0.48186843  0.19907123  1
  O  O665  1  0.67645580  0.48065716  0.45156118  1
  O  O666  1  0.67636263  0.47824264  0.70026457  1
  O  O667  1  0.67739746  0.48139092  0.94930936  1
  O  O668  1  0.67782227  0.81507858  0.19870037  1
  O  O669  1  0.67670639  0.81392648  0.45139120  1
  O  O670  1  0.67695611  0.81220597  0.70042820  1
  O  O671  1  0.67606985  0.81326114  0.95099808  1
