# generated using pymatgen
data_Na2MnFe(PO4)2
_symmetry_space_group_name_H-M   'P 1'
_cell_length_a   22.34152869
_cell_length_b   20.09579508
_cell_length_c   19.45114242
_cell_angle_alpha   90.05087576
_cell_angle_beta   90.06658232
_cell_angle_gamma   90.01842835
_symmetry_Int_Tables_number   1
_chemical_formula_structural   Na2MnFe(PO4)2
_chemical_formula_sum   'Na96 Mn48 Fe48 P96 O384'
_cell_volume   8732.98483748
_cell_formula_units_Z   48
loop_
 _symmetry_equiv_pos_site_id
 _symmetry_equiv_pos_as_xyz
  1  'x, y, z'
loop_
 _atom_site_type_symbol
 _atom_site_label
 _atom_site_symmetry_multiplicity
 _atom_site_fract_x
 _atom_site_fract_y
 _atom_site_fract_z
 _atom_site_occupancy
  Na  Na0  1  0.14041779  0.24930782  0.24302846  1
  Na  Na1  1  0.14050871  0.25044737  0.49260180  1
  Na  Na2  1  0.14121693  0.25075536  0.74382781  1
  Na  Na3  1  0.14059438  0.24985056  0.99563956  1
  Na  Na4  1  0.14021429  0.58291672  0.24257931  1
  Na  Na5  1  0.14056782  0.58289186  0.49149564  1
  Na  Na6  1  0.14022603  0.58386321  0.74294189  1
  Na  Na7  1  0.14034395  0.58238003  0.99259603  1
  Na  Na8  1  0.14055189  0.91669300  0.24211321  1
  Na  Na9  1  0.14075050  0.91651676  0.49253716  1
  Na  Na10  1  0.14028732  0.91799728  0.74342736  1
  Na  Na11  1  0.14026144  0.91556962  0.99460908  1
  Na  Na12  1  0.63909858  0.24890416  0.24304168  1
  Na  Na13  1  0.63934367  0.24885592  0.49304218  1
  Na  Na14  1  0.64020553  0.24907513  0.74425333  1
  Na  Na15  1  0.63959160  0.24970668  0.99344404  1
  Na  Na16  1  0.63939967  0.58349908  0.24406784  1
  Na  Na17  1  0.63985508  0.58389271  0.49386245  1
  Na  Na18  1  0.63986345  0.58271099  0.74472385  1
  Na  Na19  1  0.63987428  0.58343525  0.99484195  1
  Na  Na20  1  0.63968976  0.91678636  0.24433807  1
  Na  Na21  1  0.63969952  0.91666774  0.49475554  1
  Na  Na22  1  0.63929886  0.91679999  0.74432260  1
  Na  Na23  1  0.63954613  0.91665042  0.99445860  1
  Na  Na24  1  0.35916069  0.08345506  0.00844886  1
  Na  Na25  1  0.35956824  0.08375568  0.25699224  1
  Na  Na26  1  0.35928017  0.08435914  0.50688955  1
  Na  Na27  1  0.35959410  0.08452717  0.75625825  1
  Na  Na28  1  0.35996816  0.41476966  0.00730481  1
  Na  Na29  1  0.35994717  0.41537528  0.25863129  1
  Na  Na30  1  0.35964394  0.41568397  0.50593848  1
  Na  Na31  1  0.35982944  0.41709285  0.75660823  1
  Na  Na32  1  0.35982954  0.75014422  0.00707090  1
  Na  Na33  1  0.35967862  0.74944200  0.25790131  1
  Na  Na34  1  0.35973583  0.74975808  0.50550824  1
  Na  Na35  1  0.35955974  0.75140323  0.75583336  1
  Na  Na36  1  0.85966892  0.08315061  0.00537239  1
  Na  Na37  1  0.86035766  0.08323786  0.25607178  1
  Na  Na38  1  0.86048553  0.08310801  0.50511065  1
  Na  Na39  1  0.86004904  0.08252356  0.75503753  1
  Na  Na40  1  0.86035178  0.41787877  0.00552090  1
  Na  Na41  1  0.86035360  0.41692155  0.25604247  1
  Na  Na42  1  0.86017538  0.41704416  0.50527294  1
  Na  Na43  1  0.86020268  0.41713797  0.75569210  1
  Na  Na44  1  0.86064299  0.75093887  0.00670586  1
  Na  Na45  1  0.86058539  0.75114783  0.25615874  1
  Na  Na46  1  0.86012007  0.75084433  0.50548492  1
  Na  Na47  1  0.85984821  0.74973825  0.75720363  1
  Na  Na48  1  0.11042955  0.08293876  0.11920486  1
  Na  Na49  1  0.10984718  0.08443613  0.36697025  1
  Na  Na50  1  0.10993470  0.08349717  0.61829771  1
  Na  Na51  1  0.11010451  0.08350894  0.86962232  1
  Na  Na52  1  0.11009732  0.41723199  0.11928795  1
  Na  Na53  1  0.10978178  0.41720444  0.36692387  1
  Na  Na54  1  0.11021942  0.41622605  0.61788735  1
  Na  Na55  1  0.11013086  0.41780604  0.86839918  1
  Na  Na56  1  0.10989772  0.74933994  0.11838929  1
  Na  Na57  1  0.10974683  0.75030531  0.36602678  1
  Na  Na58  1  0.10978474  0.74901356  0.61802170  1
  Na  Na59  1  0.10979391  0.74972461  0.86860822  1
  Na  Na60  1  0.60897516  0.08314811  0.11869426  1
  Na  Na61  1  0.60902532  0.08312053  0.36851143  1
  Na  Na62  1  0.60891474  0.08210116  0.61856413  1
  Na  Na63  1  0.60892266  0.08242889  0.86902686  1
  Na  Na64  1  0.60888211  0.41597607  0.11921254  1
  Na  Na65  1  0.60846798  0.41570233  0.36805954  1
  Na  Na66  1  0.60885116  0.41708454  0.61884697  1
  Na  Na67  1  0.60931458  0.41654678  0.86936038  1
  Na  Na68  1  0.60891349  0.75007607  0.12031652  1
  Na  Na69  1  0.60879796  0.74925435  0.36938818  1
  Na  Na70  1  0.60891415  0.75047643  0.61949221  1
  Na  Na71  1  0.60877936  0.75074244  0.86942874  1
  Na  Na72  1  0.39020652  0.25054674  0.13295689  1
  Na  Na73  1  0.38968880  0.24997889  0.38211391  1
  Na  Na74  1  0.38971552  0.25029927  0.63138816  1
  Na  Na75  1  0.39019851  0.25030111  0.88229146  1
  Na  Na76  1  0.39074120  0.58271508  0.13306680  1
  Na  Na77  1  0.39004849  0.58314060  0.38204242  1
  Na  Na78  1  0.39031233  0.58474438  0.63078427  1
  Na  Na79  1  0.39024476  0.58312384  0.88180235  1
  Na  Na80  1  0.38976555  0.91569565  0.13288108  1
  Na  Na81  1  0.38991195  0.91527415  0.38154669  1
  Na  Na82  1  0.39007170  0.91609747  0.63120556  1
  Na  Na83  1  0.39017831  0.91751598  0.88127669  1
  Na  Na84  1  0.89110153  0.25045294  0.13196685  1
  Na  Na85  1  0.89094118  0.25092371  0.38005543  1
  Na  Na86  1  0.89112266  0.24933805  0.63024969  1
  Na  Na87  1  0.89104097  0.25088956  0.88055552  1
  Na  Na88  1  0.89156798  0.58376037  0.13037289  1
  Na  Na89  1  0.89111123  0.58375960  0.37983399  1
  Na  Na90  1  0.89131098  0.58276131  0.63077793  1
  Na  Na91  1  0.89117487  0.58383575  0.88115852  1
  Na  Na92  1  0.89102886  0.91684060  0.13194891  1
  Na  Na93  1  0.89088310  0.91802236  0.38045379  1
  Na  Na94  1  0.89081862  0.91636856  0.63121987  1
  Na  Na95  1  0.89078472  0.91684874  0.88108143  1
  Mn  Mn96  1  0.75027695  0.16536325  0.87413326  1
  Mn  Mn97  1  0.49931456  -0.00017461  0.00060695  1
  Mn  Mn98  1  0.49981572  0.50007947  0.49984686  1
  Mn  Mn99  1  0.74998337  0.16527755  0.62408076  1
  Mn  Mn100  1  0.00025430  0.16674858  0.00045487  1
  Mn  Mn101  1  0.25016701  0.66764348  0.62339295  1
  Mn  Mn102  1  0.00109508  0.16594345  0.75026311  1
  Mn  Mn103  1  0.25063536  0.83311888  0.87478837  1
  Mn  Mn104  1  0.75048937  0.33360950  0.87424841  1
  Mn  Mn105  1  0.00134413  0.00069364  0.49917157  1
  Mn  Mn106  1  0.25012650  0.16773253  0.87656818  1
  Mn  Mn107  1  0.25019478  0.49960197  0.87460084  1
  Mn  Mn108  1  0.49982667  0.66727288  0.00114756  1
  Mn  Mn109  1  0.49926276  -0.00012466  0.25039906  1
  Mn  Mn110  1  0.49937340  -0.00060328  0.49951788  1
  Mn  Mn111  1  0.25007392  0.00071358  0.62441335  1
  Mn  Mn112  1  0.24998088  -0.00002529  0.37498417  1
  Mn  Mn113  1  0.74968496  0.83452344  0.62580139  1
  Mn  Mn114  1  0.74949029  0.33270913  0.37465671  1
  Mn  Mn115  1  0.74965951  0.33281365  0.62487869  1
  Mn  Mn116  1  0.00048794  0.83309569  0.49941337  1
  Mn  Mn117  1  0.00103750  0.33476151  0.00050195  1
  Mn  Mn118  1  0.25082401  0.66631813  0.12509026  1
  Mn  Mn119  1  0.00104358  0.33418448  0.74978666  1
  Mn  Mn120  1  0.25048127  0.49965274  0.62432654  1
  Mn  Mn121  1  0.50025084  0.33363726  0.75042663  1
  Mn  Mn122  1  0.74975872  0.49979139  0.62475511  1
  Mn  Mn123  1  0.75004923  0.16533809  0.37410778  1
  Mn  Mn124  1  0.74949844  0.66635643  0.87572227  1
  Mn  Mn125  1  0.00054961  0.83278146  0.74986377  1
  Mn  Mn126  1  0.74990477  0.33318917  0.12415307  1
  Mn  Mn127  1  0.74983334  0.83473341  0.12571349  1
  Mn  Mn128  1  0.50002996  0.16618632  0.75027662  1
  Mn  Mn129  1  0.00016760  0.66574424  0.49842769  1
  Mn  Mn130  1  0.24999458  0.00036489  0.87538995  1
  Mn  Mn131  1  0.75021200  0.66673782  0.62582282  1
  Mn  Mn132  1  0.75036600  0.66727467  0.12508167  1
  Mn  Mn133  1  0.00019877  0.33388560  0.49930225  1
  Mn  Mn134  1  0.74974009  0.50009520  0.37500244  1
  Mn  Mn135  1  0.49951780  0.66723874  0.75078486  1
  Mn  Mn136  1  0.75034851  0.16540950  0.12388977  1
  Mn  Mn137  1  0.25097914  0.49865848  0.12479386  1
  Mn  Mn138  1  0.50010167  0.49914531  0.00170908  1
  Mn  Mn139  1  -0.00026161  -0.00078180  0.00041139  1
  Mn  Mn140  1  0.74991613  0.83452634  0.87586926  1
  Mn  Mn141  1  0.74966560  0.83486609  0.37599044  1
  Mn  Mn142  1  0.75012549  0.66735113  0.37525339  1
  Mn  Mn143  1  0.75027479  0.50015015  0.12513901  1
  Fe  Fe144  1  0.75000893  0.00001728  0.12498509  1
  Fe  Fe145  1  0.00030875  0.83344381  0.24902469  1
  Fe  Fe146  1  0.49967706  0.49938041  0.25113430  1
  Fe  Fe147  1  0.24951909  0.16694113  0.37524080  1
  Fe  Fe148  1  0.00036093  0.16714891  0.49916367  1
  Fe  Fe149  1  0.74991833  0.50001349  0.87504463  1
  Fe  Fe150  1  0.00073836  0.66669814  -0.00035638  1
  Fe  Fe151  1  0.25036320  0.16659309  0.12613822  1
  Fe  Fe152  1  0.24970685  0.16768314  0.62530281  1
  Fe  Fe153  1  0.24956111  0.66660378  0.37445552  1
  Fe  Fe154  1  0.49923875  0.16686504  0.00005663  1
  Fe  Fe155  1  0.49920741  0.16635797  0.49989433  1
  Fe  Fe156  1  0.00066771  0.50004915  0.49890790  1
  Fe  Fe157  1  0.00034773  0.66676172  0.24855050  1
  Fe  Fe158  1  0.49932568  0.33299529  0.00087010  1
  Fe  Fe159  1  0.24992999  0.49906024  0.37455860  1
  Fe  Fe160  1  0.49984952  0.83280275  0.50056103  1
  Fe  Fe161  1  0.49948819  0.66658130  0.25097535  1
  Fe  Fe162  1  0.00034414  0.50090677  0.24891512  1
  Fe  Fe163  1  0.00064061  0.83288711  0.00022588  1
  Fe  Fe164  1  0.49943248  0.83375404  0.74981729  1
  Fe  Fe165  1  0.49959498  0.33290212  0.49952232  1
  Fe  Fe166  1  0.00049458  0.50058354  0.74924274  1
  Fe  Fe167  1  0.49930286  0.16690620  0.24995041  1
  Fe  Fe168  1  0.25017283  0.66692353  0.87452836  1
  Fe  Fe169  1  0.75003250  -0.00007168  0.62501244  1
  Fe  Fe170  1  0.00049056  -0.00034385  0.74982555  1
  Fe  Fe171  1  0.25016621  -0.00053006  0.12577348  1
  Fe  Fe172  1  0.24969153  0.33356202  0.62482551  1
  Fe  Fe173  1  0.49993922  0.33223072  0.25011409  1
  Fe  Fe174  1  0.00026196  0.33442095  0.25013601  1
  Fe  Fe175  1  0.49903970  0.83355859  0.00058302  1
  Fe  Fe176  1  0.24972648  0.33250139  0.37562113  1
  Fe  Fe177  1  0.24977858  0.83264817  0.12510387  1
  Fe  Fe178  1  0.00041839  0.50072323  -0.00025087  1
  Fe  Fe179  1  0.74974005  -0.00013679  0.87483597  1
  Fe  Fe180  1  0.24983814  0.33267244  0.12644850  1
  Fe  Fe181  1  0.00061354  0.00036098  0.24990861  1
  Fe  Fe182  1  0.00037357  0.16724108  0.24986767  1
  Fe  Fe183  1  0.00021971  0.66650075  0.75007890  1
  Fe  Fe184  1  0.24940648  0.83344345  0.62406731  1
  Fe  Fe185  1  0.49951646  0.83258900  0.25105071  1
  Fe  Fe186  1  0.49952469  0.50039522  0.75008814  1
  Fe  Fe187  1  0.74986828  0.00006725  0.37497969  1
  Fe  Fe188  1  0.24986546  0.83320655  0.37422852  1
  Fe  Fe189  1  0.50000804  0.66667190  0.50036173  1
  Fe  Fe190  1  0.25039069  0.33316122  0.87540880  1
  Fe  Fe191  1  0.49888897  -0.00011799  0.75012862  1
  P  P192  1  0.04252160  0.25052638  0.10457680  1
  P  P193  1  0.04148015  0.25060810  0.35143141  1
  P  P194  1  0.04266349  0.24904669  0.60175335  1
  P  P195  1  0.04365935  0.25062472  0.85326536  1
  P  P196  1  0.04211547  0.58357249  0.10160092  1
  P  P197  1  0.04185825  0.58346658  0.35037124  1
  P  P198  1  0.04296190  0.58173770  0.60183785  1
  P  P199  1  0.04193615  0.58351588  0.85182585  1
  P  P200  1  0.04213376  0.91487599  0.10345331  1
  P  P201  1  0.04197581  0.91678362  0.35069460  1
  P  P202  1  0.04332042  0.91658149  0.60286691  1
  P  P203  1  0.04263015  0.91731423  0.85266768  1
  P  P204  1  0.54081872  0.24971727  0.10237205  1
  P  P205  1  0.54074850  0.24921429  0.35231482  1
  P  P206  1  0.54082492  0.24970111  0.60134954  1
  P  P207  1  0.54236920  0.24970307  0.85413751  1
  P  P208  1  0.54218386  0.58345744  0.10509635  1
  P  P209  1  0.54076219  0.58350943  0.35246942  1
  P  P210  1  0.54178826  0.58459907  0.60293210  1
  P  P211  1  0.54166832  0.58229365  0.85313322  1
  P  P212  1  0.54111473  0.91507303  0.10345013  1
  P  P213  1  0.54132864  0.91502540  0.35306097  1
  P  P214  1  0.54123486  0.91545352  0.60319491  1
  P  P215  1  0.54056042  0.91682920  0.85212775  1
  P  P216  1  0.45743984  0.08473923  0.14750964  1
  P  P217  1  0.45724541  0.08462204  0.39715049  1
  P  P218  1  0.45736289  0.08212610  0.64719906  1
  P  P219  1  0.45688848  0.08404109  0.89798194  1
  P  P220  1  0.45838406  0.41588810  0.14936921  1
  P  P221  1  0.45792711  0.41507544  0.39695214  1
  P  P222  1  0.45752790  0.41791502  0.64748739  1
  P  P223  1  0.45766166  0.41554638  0.89831706  1
  P  P224  1  0.45784172  0.74982590  0.14924488  1
  P  P225  1  0.45866055  0.74954820  0.39824097  1
  P  P226  1  0.45763879  0.75116022  0.64712923  1
  P  P227  1  0.45739517  0.75174158  0.89779734  1
  P  P228  1  0.95917208  0.08345708  0.14859381  1
  P  P229  1  0.95888159  0.08525689  0.39612604  1
  P  P230  1  0.95853970  0.08200960  0.64697511  1
  P  P231  1  0.95777521  0.08288075  0.89670710  1
  P  P232  1  0.95916909  0.41780245  0.14788127  1
  P  P233  1  0.95842570  0.41845607  0.39597292  1
  P  P234  1  0.95842425  0.41804696  0.64677666  1
  P  P235  1  0.95863052  0.41885770  0.89696125  1
  P  P236  1  0.95908141  0.75013537  0.14713633  1
  P  P237  1  0.95788915  0.75032536  0.39510712  1
  P  P238  1  0.95780734  0.74807338  0.64747276  1
  P  P239  1  0.95917347  0.74994894  0.89819243  1
  P  P240  1  0.20923514  0.08324310  0.22719491  1
  P  P241  1  0.20796104  0.08492585  0.47754580  1
  P  P242  1  0.20799258  0.08535601  0.72728697  1
  P  P243  1  0.20755063  0.08314504  0.97988678  1
  P  P244  1  0.20848383  0.41504969  0.22866671  1
  P  P245  1  0.20851085  0.41595384  0.47639383  1
  P  P246  1  0.20811370  0.41567228  0.72745851  1
  P  P247  1  0.20829148  0.41475252  0.97789638  1
  P  P248  1  0.20825607  0.75070662  0.22783848  1
  P  P249  1  0.20818760  0.75046181  0.47570182  1
  P  P250  1  0.20781047  0.75136091  0.72686655  1
  P  P251  1  0.20824776  0.74879440  0.97742824  1
  P  P252  1  0.70736836  0.08147960  0.22732690  1
  P  P253  1  0.70722962  0.08140020  0.47744640  1
  P  P254  1  0.70719367  0.08133980  0.72750048  1
  P  P255  1  0.70728482  0.08137943  0.97748971  1
  P  P256  1  0.70679255  0.41628124  0.22794913  1
  P  P257  1  0.70630650  0.41632037  0.47794725  1
  P  P258  1  0.70680308  0.41668846  0.72852811  1
  P  P259  1  0.70763830  0.41779194  0.97723944  1
  P  P260  1  0.70714951  0.75085947  0.22863920  1
  P  P261  1  0.70691117  0.75080735  0.47878547  1
  P  P262  1  0.70692696  0.75043773  0.72888766  1
  P  P263  1  0.70690112  0.75073554  0.97867045  1
  P  P264  1  0.29148192  0.25018597  0.02466394  1
  P  P265  1  0.29093144  0.24982715  0.27353760  1
  P  P266  1  0.29089873  0.25045271  0.52303001  1
  P  P267  1  0.29233405  0.25155607  0.77249348  1
  P  P268  1  0.29319097  0.58292220  0.02160099  1
  P  P269  1  0.29118904  0.58285664  0.27362858  1
  P  P270  1  0.29236455  0.58307899  0.52023049  1
  P  P271  1  0.29227741  0.58497752  0.77218341  1
  P  P272  1  0.29137028  0.91610943  0.02415561  1
  P  P273  1  0.29178136  0.91540945  0.27185020  1
  P  P274  1  0.29182845  0.91528566  0.52175594  1
  P  P275  1  0.29258414  0.91723634  0.77137839  1
  P  P276  1  0.79336789  0.24969534  0.02116577  1
  P  P277  1  0.79275045  0.24920838  0.27113914  1
  P  P278  1  0.79283012  0.24926607  0.52126656  1
  P  P279  1  0.79331061  0.24927518  0.77127952  1
  P  P280  1  0.79310651  0.58338768  0.02141047  1
  P  P281  1  0.79295336  0.58372780  0.27181834  1
  P  P282  1  0.79317476  0.58365788  0.52192200  1
  P  P283  1  0.79243500  0.58213925  0.77288291  1
  P  P284  1  0.79262518  0.91867733  0.02249659  1
  P  P285  1  0.79239381  0.91868813  0.27245333  1
  P  P286  1  0.79264371  0.91864078  0.52247629  1
  P  P287  1  0.79241575  0.91836138  0.77239665  1
  O  O288  1  0.03687411  0.25050194  0.18444514  1
  O  O289  1  0.03648981  0.25038971  0.43140629  1
  O  O290  1  0.03784034  0.24929206  0.68169155  1
  O  O291  1  0.03842094  0.25088447  0.93322162  1
  O  O292  1  0.03702727  0.58384343  0.18144467  1
  O  O293  1  0.03730079  0.58330342  0.43028474  1
  O  O294  1  0.03781014  0.58201678  0.68166507  1
  O  O295  1  0.03680015  0.58343336  0.93170279  1
  O  O296  1  0.03663073  0.91501680  0.18330240  1
  O  O297  1  0.03762235  0.91709418  0.43071777  1
  O  O298  1  0.03817571  0.91692433  0.68281048  1
  O  O299  1  0.03722508  0.91655565  0.93259410  1
  O  O300  1  0.53564661  0.24938013  0.18229440  1
  O  O301  1  0.53586488  0.24939182  0.43219094  1
  O  O302  1  0.53604935  0.24987578  0.68131823  1
  O  O303  1  0.53705741  0.24964386  0.93400995  1
  O  O304  1  0.53658519  0.58353501  0.18494506  1
  O  O305  1  0.53602199  0.58376984  0.43245559  1
  O  O306  1  0.53625565  0.58402179  0.68282592  1
  O  O307  1  0.53671552  0.58248951  0.93310059  1
  O  O308  1  0.53585113  0.91506018  0.18334688  1
  O  O309  1  0.53601120  0.91501172  0.43295588  1
  O  O310  1  0.53567110  0.91599247  0.68303669  1
  O  O311  1  0.53553662  0.91680570  0.93210398  1
  O  O312  1  0.46279751  0.08477168  0.06760303  1
  O  O313  1  0.46255518  0.08489770  0.31721743  1
  O  O314  1  0.46252442  0.08252329  0.56725019  1
  O  O315  1  0.46205623  0.08335910  0.81803714  1
  O  O316  1  0.46303803  0.41548678  0.06939663  1
  O  O317  1  0.46327010  0.41492790  0.31713716  1
  O  O318  1  0.46267661  0.41735696  0.56757689  1
  O  O319  1  0.46279208  0.41614557  0.81843212  1
  O  O320  1  0.46265255  0.75016945  0.06928097  1
  O  O321  1  0.46407988  0.74949387  0.31835235  1
  O  O322  1  0.46312224  0.75061820  0.56729253  1
  O  O323  1  0.46275627  0.75187198  0.81789223  1
  O  O324  1  0.96368078  0.08288401  0.06862992  1
  O  O325  1  0.96433859  0.08517479  0.31627065  1
  O  O326  1  0.96386556  0.08276323  0.56705482  1
  O  O327  1  0.96323173  0.08219446  0.81681804  1
  O  O328  1  0.96426564  0.41797205  0.06795447  1
  O  O329  1  0.96381429  0.41824592  0.31613455  1
  O  O330  1  0.96349829  0.41795701  0.56680494  1
  O  O331  1  0.96386540  0.41878298  0.81703083  1
  O  O332  1  0.96415073  0.75002409  0.06724395  1
  O  O333  1  0.96307773  0.75075308  0.31522978  1
  O  O334  1  0.96276530  0.74820060  0.56751287  1
  O  O335  1  0.96408415  0.74937746  0.81826210  1
  O  O336  1  0.21295262  0.08264307  0.05977090  1
  O  O337  1  0.21357131  0.08317432  0.30718527  1
  O  O338  1  0.21304606  0.08521570  0.55747010  1
  O  O339  1  0.21294601  0.08515349  0.80727379  1
  O  O340  1  0.21358952  0.41486226  0.05786007  1
  O  O341  1  0.21368498  0.41547521  0.30853679  1
  O  O342  1  0.21324672  0.41607980  0.55637063  1
  O  O343  1  0.21342866  0.41572305  0.80739989  1
  O  O344  1  0.21336504  0.74921731  0.05736903  1
  O  O345  1  0.21343327  0.75054321  0.30772762  1
  O  O346  1  0.21303688  0.75069968  0.55569784  1
  O  O347  1  0.21313793  0.75047960  0.80678040  1
  O  O348  1  0.71255072  0.08143002  0.05745540  1
  O  O349  1  0.71243703  0.08152435  0.30729739  1
  O  O350  1  0.71234446  0.08145289  0.55739852  1
  O  O351  1  0.71241524  0.08147851  0.80745419  1
  O  O352  1  0.71279254  0.41741857  0.05721344  1
  O  O353  1  0.71149472  0.41612167  0.30794937  1
  O  O354  1  0.71121902  0.41624562  0.55795443  1
  O  O355  1  0.71219560  0.41730563  0.80848827  1
  O  O356  1  0.71206966  0.75097601  0.05863206  1
  O  O357  1  0.71208266  0.75105291  0.30861886  1
  O  O358  1  0.71199667  0.75085159  0.55875731  1
  O  O359  1  0.71194604  0.75053358  0.80887758  1
  O  O360  1  0.28598751  0.24965362  0.19369529  1
  O  O361  1  0.28566066  0.25014946  0.44316838  1
  O  O362  1  0.28670715  0.25140612  0.69266552  1
  O  O363  1  0.28687888  0.25035832  0.94471463  1
  O  O364  1  0.28695300  0.58245295  0.19357201  1
  O  O365  1  0.28696767  0.58296511  0.44035825  1
  O  O366  1  0.28725644  0.58469008  0.69218717  1
  O  O367  1  0.28794587  0.58339201  0.94167233  1
  O  O368  1  0.28628840  0.91537706  0.19199272  1
  O  O369  1  0.28634553  0.91522628  0.44180467  1
  O  O370  1  0.28729656  0.91691903  0.69146372  1
  O  O371  1  0.28677142  0.91664954  0.94414084  1
  O  O372  1  0.78790182  0.24904782  0.19113412  1
  O  O373  1  0.78762875  0.24909215  0.44126562  1
  O  O374  1  0.78803377  0.24917167  0.69130697  1
  O  O375  1  0.78850666  0.24967373  0.94116048  1
  O  O376  1  0.78810374  0.58374306  0.19182680  1
  O  O377  1  0.78810349  0.58372644  0.44194478  1
  O  O378  1  0.78738975  0.58250684  0.69290661  1
  O  O379  1  0.78771324  0.58270966  0.94147462  1
  O  O380  1  0.78734415  0.91858930  0.19249522  1
  O  O381  1  0.78746500  0.91866627  0.44250756  1
  O  O382  1  0.78732225  0.91815669  0.69243287  1
  O  O383  1  0.78751649  0.91858906  0.94253800  1
  O  O384  1  0.22730326  0.25038415  0.06046023  1
  O  O385  1  0.22681717  0.25051934  0.30960562  1
  O  O386  1  0.22689790  0.25097766  0.55942985  1
  O  O387  1  0.22824123  0.25173088  0.80883572  1
  O  O388  1  0.22886933  0.58257216  0.05690808  1
  O  O389  1  0.22687276  0.58322460  0.30877578  1
  O  O390  1  0.22824371  0.58317502  0.55606731  1
  O  O391  1  0.22800488  0.58480292  0.80777166  1
  O  O392  1  0.22712245  0.91561584  0.05964050  1
  O  O393  1  0.22766879  0.91554870  0.30794466  1
  O  O394  1  0.22769291  0.91576031  0.55771846  1
  O  O395  1  0.22833488  0.91695779  0.80686292  1
  O  O396  1  0.72877417  0.24934500  0.05576425  1
  O  O397  1  0.72821270  0.24899162  0.30583240  1
  O  O398  1  0.72833793  0.24917184  0.55612673  1
  O  O399  1  0.72889919  0.24937353  0.80630374  1
  O  O400  1  0.72872846  0.58364489  0.05660743  1
  O  O401  1  0.72839457  0.58379796  0.30648178  1
  O  O402  1  0.72860445  0.58371317  0.55659129  1
  O  O403  1  0.72800966  0.58167719  0.80816648  1
  O  O404  1  0.72817539  0.91879741  0.05782206  1
  O  O405  1  0.72799108  0.91888156  0.30785476  1
  O  O406  1  0.72822782  0.91872682  0.55788104  1
  O  O407  1  0.72800777  0.91832506  0.80782572  1
  O  O408  1  0.27335730  0.08331668  0.19156796  1
  O  O409  1  0.27218324  0.08435405  0.44193169  1
  O  O410  1  0.27224141  0.08523836  0.69173250  1
  O  O411  1  0.27175369  0.08352245  0.94407895  1
  O  O412  1  0.27270529  0.41451298  0.19279379  1
  O  O413  1  0.27272244  0.41517930  0.44072600  1
  O  O414  1  0.27231467  0.41512304  0.69161766  1
  O  O415  1  0.27249619  0.41501435  0.94207909  1
  O  O416  1  0.27247602  0.75114725  0.19202724  1
  O  O417  1  0.27244305  0.75028969  0.44006500  1
  O  O418  1  0.27202338  0.75216112  0.69100729  1
  O  O419  1  0.27253152  0.74839957  0.94180744  1
  O  O420  1  0.77180890  0.08130802  0.19198987  1
  O  O421  1  0.77164710  0.08134428  0.44204847  1
  O  O422  1  0.77157846  0.08132668  0.69201237  1
  O  O423  1  0.77163036  0.08107174  0.94193495  1
  O  O424  1  0.77143260  0.41620737  0.19349178  1
  O  O425  1  0.77091629  0.41638435  0.44338172  1
  O  O426  1  0.77121940  0.41631594  0.69336652  1
  O  O427  1  0.77201800  0.41843115  0.94189166  1
  O  O428  1  0.77164984  0.75114513  0.19381195  1
  O  O429  1  0.77139359  0.75108118  0.44390814  1
  O  O430  1  0.77142080  0.75074124  0.69407517  1
  O  O431  1  0.77135860  0.75053221  0.94380851  1
  O  O432  1  0.02346980  0.08417534  0.18412371  1
  O  O433  1  0.02304801  0.08573716  0.43232827  1
  O  O434  1  0.02278427  0.08135874  0.68298529  1
  O  O435  1  0.02200231  0.08289883  0.93240322  1
  O  O436  1  0.02326041  0.41815540  0.18408357  1
  O  O437  1  0.02258903  0.41830045  0.43222710  1
  O  O438  1  0.02275699  0.41842492  0.68248504  1
  O  O439  1  0.02289303  0.41904995  0.93287633  1
  O  O440  1  0.02311856  0.75062134  0.18352223  1
  O  O441  1  0.02218239  0.74989721  0.43082504  1
  O  O442  1  0.02222817  0.74808870  0.68286567  1
  O  O443  1  0.02331263  0.75054501  0.93436177  1
  O  O444  1  0.52159201  0.08460045  0.18356330  1
  O  O445  1  0.52143609  0.08444133  0.43308626  1
  O  O446  1  0.52155604  0.08146490  0.68319187  1
  O  O447  1  0.52120456  0.08419356  0.93364464  1
  O  O448  1  0.52255338  0.41620223  0.18517113  1
  O  O449  1  0.52195073  0.41509183  0.43332678  1
  O  O450  1  0.52176997  0.41848627  0.68345458  1
  O  O451  1  0.52188511  0.41464433  0.93430925  1
  O  O452  1  0.52205963  0.74929924  0.18518482  1
  O  O453  1  0.52255733  0.74954413  0.43508274  1
  O  O454  1  0.52165678  0.75128204  0.68364611  1
  O  O455  1  0.52157581  0.75194430  0.93393456  1
  O  O456  1  0.47670252  0.24994197  0.06598091  1
  O  O457  1  0.47658996  0.24896057  0.31613949  1
  O  O458  1  0.47660443  0.24949705  0.56545304  1
  O  O459  1  0.47815719  0.24982750  0.81834545  1
  O  O460  1  0.47805654  0.58337464  0.06903944  1
  O  O461  1  0.47660716  0.58380962  0.31648955  1
  O  O462  1  0.47765117  0.58478365  0.56673649  1
  O  O463  1  0.47738781  0.58238969  0.81739140  1
  O  O464  1  0.47687857  0.91523862  0.06750957  1
  O  O465  1  0.47713981  0.91509849  0.31709095  1
  O  O466  1  0.47722728  0.91505248  0.56665193  1
  O  O467  1  0.47649431  0.91694504  0.81583572  1
  O  O468  1  0.97850517  0.25083392  0.06827225  1
  O  O469  1  0.97742141  0.25008456  0.31533289  1
  O  O470  1  0.97833159  0.24900967  0.56611156  1
  O  O471  1  0.97934963  0.25035655  0.81788996  1
  O  O472  1  0.97808404  0.58317810  0.06516531  1
  O  O473  1  0.97765026  0.58305373  0.31448602  1
  O  O474  1  0.97866022  0.58137152  0.56583661  1
  O  O475  1  0.97793529  0.58338402  0.81515346  1
  O  O476  1  0.97805496  0.91425180  0.06707713  1
  O  O477  1  0.97765511  0.91648344  0.31531584  1
  O  O478  1  0.97899797  0.91692803  0.56741761  1
  O  O479  1  0.97847226  0.91773286  0.81646032  1
  O  O480  1  0.07405790  0.31382706  0.07656521  1
  O  O481  1  0.07148822  0.31493419  0.32349314  1
  O  O482  1  0.07364218  0.31270135  0.57392941  1
  O  O483  1  0.07457024  0.31409189  0.82500368  1
  O  O484  1  0.07274247  0.64726161  0.07287798  1
  O  O485  1  0.07187942  0.64757121  0.32186208  1
  O  O486  1  0.07386875  0.64538160  0.57348643  1
  O  O487  1  0.07250550  0.64740081  0.82347208  1
  O  O488  1  0.07297876  0.97875441  0.07580918  1
  O  O489  1  0.07224543  0.98087999  0.32245233  1
  O  O490  1  0.07502386  0.97947588  0.57428233  1
  O  O491  1  0.07348410  0.98096431  0.82464691  1
  O  O492  1  0.57178582  0.31342214  0.07430865  1
  O  O493  1  0.57135732  0.31288310  0.32345858  1
  O  O494  1  0.57141126  0.31352176  0.57322331  1
  O  O495  1  0.57371330  0.31292608  0.82562177  1
  O  O496  1  0.57343086  0.64673623  0.07655530  1
  O  O497  1  0.57231801  0.64662516  0.32425219  1
  O  O498  1  0.57248949  0.64831929  0.57482867  1
  O  O499  1  0.57288169  0.64594450  0.82562893  1
  O  O500  1  0.57219088  0.97881536  0.07581108  1
  O  O501  1  0.57220011  0.97889911  0.32540797  1
  O  O502  1  0.57233830  0.97893581  0.57485618  1
  O  O503  1  0.57112681  0.98070054  0.82395821  1
  O  O504  1  0.42640466  0.02092624  0.17503733  1
  O  O505  1  0.42614295  0.02072222  0.42426015  1
  O  O506  1  0.42636359  0.01869942  0.67556867  1
  O  O507  1  0.42549100  0.02078638  0.92630644  1
  O  O508  1  0.42756893  0.35234243  0.17790344  1
  O  O509  1  0.42708770  0.35169224  0.42594319  1
  O  O510  1  0.42658376  0.35434446  0.67558128  1
  O  O511  1  0.42660435  0.35209197  0.92667789  1
  O  O512  1  0.42670604  0.68627648  0.17732553  1
  O  O513  1  0.42765841  0.68591971  0.42639300  1
  O  O514  1  0.42624110  0.68779048  0.67535377  1
  O  O515  1  0.42667437  0.68779718  0.92542956  1
  O  O516  1  0.92919853  0.01935348  0.17711329  1
  O  O517  1  0.92805724  0.02142453  0.42397819  1
  O  O518  1  0.92775813  0.01838897  0.67518135  1
  O  O519  1  0.92629406  0.01988563  0.92537549  1
  O  O520  1  0.92891760  0.35373977  0.17615665  1
  O  O521  1  0.92703252  0.35501082  0.42404179  1
  O  O522  1  0.92774850  0.35405086  0.67446523  1
  O  O523  1  0.92774226  0.35504135  0.92475253  1
  O  O524  1  0.92878321  0.68611624  0.17560486  1
  O  O525  1  0.92656832  0.68695511  0.42325901  1
  O  O526  1  0.92720740  0.68462971  0.67621419  1
  O  O527  1  0.92863927  0.68628112  0.92684005  1
  O  O528  1  0.17875591  0.01934228  0.19866827  1
  O  O529  1  0.17652436  0.02135701  0.44982872  1
  O  O530  1  0.17676619  0.02186148  0.69928404  1
  O  O531  1  0.17647487  0.01980710  0.95094727  1
  O  O532  1  0.17729329  0.35169311  0.20017481  1
  O  O533  1  0.17678801  0.35283169  0.44820404  1
  O  O534  1  0.17669451  0.35262521  0.69873370  1
  O  O535  1  0.17748290  0.35130237  0.94935080  1
  O  O536  1  0.17740811  0.68691580  0.19968213  1
  O  O537  1  0.17761567  0.68649336  0.44740986  1
  O  O538  1  0.17695250  0.68779466  0.69831417  1
  O  O539  1  0.17757499  0.68516394  0.94878918  1
  O  O540  1  0.67630116  0.01822575  0.19861348  1
  O  O541  1  0.67625120  0.01813566  0.44862566  1
  O  O542  1  0.67630848  0.01801667  0.69875928  1
  O  O543  1  0.67612455  0.01815664  0.94879043  1
  O  O544  1  0.67585969  0.35282495  0.19940544  1
  O  O545  1  0.67538987  0.35280182  0.44961699  1
  O  O546  1  0.67571100  0.35294734  0.70075027  1
  O  O547  1  0.67697462  0.35387065  0.94944056  1
  O  O548  1  0.67638055  0.68721629  0.20052364  1
  O  O549  1  0.67607686  0.68722510  0.45055064  1
  O  O550  1  0.67616237  0.68670368  0.70088078  1
  O  O551  1  0.67559538  0.68730535  0.95071962  1
  O  O552  1  0.32268913  0.31344024  0.05335731  1
  O  O553  1  0.32254333  0.31289099  0.30222492  1
  O  O554  1  0.32232092  0.31384023  0.55128374  1
  O  O555  1  0.32328629  0.31495704  0.80138580  1
  O  O556  1  0.32441613  0.64609793  0.05042172  1
  O  O557  1  0.32215141  0.64655815  0.30155032  1
  O  O558  1  0.32362098  0.64653175  0.54856556  1
  O  O559  1  0.32277952  0.64872811  0.80056307  1
  O  O560  1  0.32175159  0.97991987  0.05296747  1
  O  O561  1  0.32315314  0.97895347  0.29981690  1
  O  O562  1  0.32318587  0.97903811  0.54912281  1
  O  O563  1  0.32329789  0.98099226  0.79964378  1
  O  O564  1  0.82417578  0.31333474  0.04938443  1
  O  O565  1  0.82366028  0.31280290  0.29922892  1
  O  O566  1  0.82388913  0.31282668  0.54921636  1
  O  O567  1  0.82449538  0.31277476  0.79929185  1
  O  O568  1  0.82406414  0.64720613  0.04916382  1
  O  O569  1  0.82402339  0.64722004  0.29990593  1
  O  O570  1  0.82421273  0.64711460  0.55026445  1
  O  O571  1  0.82313333  0.64603269  0.80079637  1
  O  O572  1  0.82365045  0.98187535  0.05142146  1
  O  O573  1  0.82339815  0.98195664  0.30120825  1
  O  O574  1  0.82362674  0.98190752  0.55125398  1
  O  O575  1  0.82324246  0.98170198  0.80111479  1
  O  O576  1  0.42643397  0.14799731  0.17620438  1
  O  O577  1  0.42633548  0.14779728  0.42627925  1
  O  O578  1  0.42656218  0.14585510  0.67523375  1
  O  O579  1  0.42631524  0.14778493  0.92635266  1
  O  O580  1  0.42755477  0.47968825  0.17748111  1
  O  O581  1  0.42660250  0.47865031  0.42468169  1
  O  O582  1  0.42682666  0.48163599  0.67582494  1
  O  O583  1  0.42683753  0.47915833  0.92658940  1
  O  O584  1  0.42731764  0.81351254  0.17790615  1
  O  O585  1  0.42765376  0.81320940  0.42635404  1
  O  O586  1  0.42679997  0.81468260  0.67563817  1
  O  O587  1  0.42631619  0.81498409  0.92654969  1
  O  O588  1  0.92775267  0.14686211  0.17625901  1
  O  O589  1  0.92771487  0.14844882  0.42503036  1
  O  O590  1  0.92753151  0.14559029  0.67508212  1
  O  O591  1  0.92694075  0.14675336  0.92441580  1
  O  O592  1  0.92768501  0.48109372  0.17590648  1
  O  O593  1  0.92776716  0.48194806  0.42477372  1
  O  O594  1  0.92729837  0.48115250  0.67566824  1
  O  O595  1  0.92765534  0.48210171  0.92573906  1
  O  O596  1  0.92748547  0.81329927  0.17553414  1
  O  O597  1  0.92695511  0.81369841  0.42408821  1
  O  O598  1  0.92679067  0.81176050  0.67532086  1
  O  O599  1  0.92810227  0.81366244  0.92598401  1
  O  O600  1  0.07358928  0.18697041  0.07643045  1
  O  O601  1  0.07319567  0.18757408  0.32309001  1
  O  O602  1  0.07319012  0.18545333  0.57319168  1
  O  O603  1  0.07485947  0.18710311  0.82549129  1
  O  O604  1  0.07338458  0.52007862  0.07345413  1
  O  O605  1  0.07333065  0.52027416  0.32207272  1
  O  O606  1  0.07393328  0.51845582  0.57274302  1
  O  O607  1  0.07318171  0.52016505  0.82331999  1
  O  O608  1  0.07341685  0.85176537  0.07457506  1
  O  O609  1  0.07309953  0.85342022  0.32253911  1
  O  O610  1  0.07380679  0.85264263  0.57476600  1
  O  O611  1  0.07376693  0.85379782  0.82459474  1
  O  O612  1  0.57171544  0.18617504  0.07378488  1
  O  O613  1  0.57196995  0.18583596  0.32377300  1
  O  O614  1  0.57161764  0.18587058  0.57349896  1
  O  O615  1  0.57348556  0.18628758  0.82552007  1
  O  O616  1  0.57347196  0.52002312  0.07689488  1
  O  O617  1  0.57082594  0.51920769  0.32439895  1
  O  O618  1  0.57315757  0.52128599  0.57475811  1
  O  O619  1  0.57203925  0.51863011  0.82450314  1
  O  O620  1  0.57185564  0.85173881  0.07453527  1
  O  O621  1  0.57234467  0.85170874  0.32456297  1
  O  O622  1  0.57240838  0.85206955  0.57480556  1
  O  O623  1  0.57161593  0.85330278  0.82394816  1
  O  O624  1  0.32169482  0.18614255  0.05305420  1
  O  O625  1  0.32099094  0.18577915  0.30230727  1
  O  O626  1  0.32135037  0.18666244  0.55178211  1
  O  O627  1  0.32346576  0.18802365  0.80073497  1
  O  O628  1  0.32426658  0.51933235  0.04962792  1
  O  O629  1  0.32151071  0.51896826  0.30204416  1
  O  O630  1  0.32359377  0.51977464  0.54880050  1
  O  O631  1  0.32344235  0.52139649  0.79994428  1
  O  O632  1  0.32242957  0.85246916  0.05189530  1
  O  O633  1  0.32268462  0.85206826  0.30073768  1
  O  O634  1  0.32237444  0.85178936  0.55043346  1
  O  O635  1  0.32404098  0.85416345  0.79991379  1
  O  O636  1  0.82443781  0.18626099  0.04936104  1
  O  O637  1  0.82381248  0.18581409  0.29938792  1
  O  O638  1  0.82388338  0.18579015  0.54936387  1
  O  O639  1  0.82426577  0.18574249  0.79928783  1
  O  O640  1  0.82437181  0.52028236  0.05007851  1
  O  O641  1  0.82368614  0.52007360  0.29991930  1
  O  O642  1  0.82400238  0.52001860  0.54991268  1
  O  O643  1  0.82331528  0.51869979  0.80113494  1
  O  O644  1  0.82338313  0.85483491  0.05042826  1
  O  O645  1  0.82314838  0.85490070  0.30042474  1
  O  O646  1  0.82347531  0.85481402  0.55035344  1
  O  O647  1  0.82338225  0.85463575  0.80040170  1
  O  O648  1  0.17823670  0.14676141  0.19896934  1
  O  O649  1  0.17755519  0.14840988  0.44838500  1
  O  O650  1  0.17744121  0.14903520  0.69889179  1
  O  O651  1  0.17628400  0.14659908  0.95182978  1
  O  O652  1  0.17767337  0.47862219  0.20008565  1
  O  O653  1  0.17861971  0.48006518  0.44765245  1
  O  O654  1  0.17765764  0.47970582  0.69958642  1
  O  O655  1  0.17715595  0.47838212  0.94995907  1
  O  O656  1  0.17712119  0.81389090  0.19896486  1
  O  O657  1  0.17716289  0.81388149  0.44734626  1
  O  O658  1  0.17680701  0.81491883  0.69876574  1
  O  O659  1  0.17717921  0.81231743  0.94938294  1
  O  O660  1  0.67661603  0.14527257  0.19927533  1
  O  O661  1  0.67637530  0.14515716  0.44944861  1
  O  O662  1  0.67628057  0.14510857  0.69956590  1
  O  O663  1  0.67664615  0.14529502  0.94965114  1
  O  O664  1  0.67600417  0.47992067  0.20000485  1
  O  O665  1  0.67541942  0.47992240  0.44990303  1
  O  O666  1  0.67566359  0.47988434  0.69988960  1
  O  O667  1  0.67656663  0.48124906  0.94917953  1
  O  O668  1  0.67599602  0.81425047  0.20047430  1
  O  O669  1  0.67582630  0.81423932  0.45068299  1
  O  O670  1  0.67577286  0.81380703  0.70071862  1
  O  O671  1  0.67599068  0.81424991  0.95047171  1
