# generated using pymatgen
data_Na2MnFe(PO4)2
_symmetry_space_group_name_H-M   'P 1'
_cell_length_a   22.34515872
_cell_length_b   20.09797138
_cell_length_c   19.44625583
_cell_angle_alpha   89.97791199
_cell_angle_beta   89.99952665
_cell_angle_gamma   89.99963600
_symmetry_Int_Tables_number   1
_chemical_formula_structural   Na2MnFe(PO4)2
_chemical_formula_sum   'Na96 Mn48 Fe48 P96 O384'
_cell_volume   8733.16428041
_cell_formula_units_Z   48
loop_
 _symmetry_equiv_pos_site_id
 _symmetry_equiv_pos_as_xyz
  1  'x, y, z'
loop_
 _atom_site_type_symbol
 _atom_site_label
 _atom_site_symmetry_multiplicity
 _atom_site_fract_x
 _atom_site_fract_y
 _atom_site_fract_z
 _atom_site_occupancy
  Na  Na0  1  0.14109692  0.24927935  0.24293361  1
  Na  Na1  1  0.14051806  0.24965000  0.49386634  1
  Na  Na2  1  0.14008022  0.25022387  0.74335125  1
  Na  Na3  1  0.14044946  0.25063107  0.99416889  1
  Na  Na4  1  0.14010751  0.58317426  0.24326269  1
  Na  Na5  1  0.13992987  0.58498313  0.49349629  1
  Na  Na6  1  0.14064091  0.58468540  0.74275437  1
  Na  Na7  1  0.14050416  0.58413005  0.99389220  1
  Na  Na8  1  0.14035017  0.91752796  0.24339045  1
  Na  Na9  1  0.14031196  0.91652408  0.49401353  1
  Na  Na10  1  0.14056428  0.91504335  0.74382935  1
  Na  Na11  1  0.13994624  0.91733452  0.99518766  1
  Na  Na12  1  0.63992071  0.24927782  0.24185364  1
  Na  Na13  1  0.64059225  0.24886551  0.49395861  1
  Na  Na14  1  0.64066395  0.24944986  0.74519079  1
  Na  Na15  1  0.64042236  0.25119821  0.99436631  1
  Na  Na16  1  0.64012472  0.58271072  0.24214573  1
  Na  Na17  1  0.64021584  0.58249139  0.49405655  1
  Na  Na18  1  0.64026193  0.58405415  0.74491971  1
  Na  Na19  1  0.64036273  0.58318019  0.99263592  1
  Na  Na20  1  0.64048619  0.91635906  0.24274569  1
  Na  Na21  1  0.63981353  0.91651381  0.49425323  1
  Na  Na22  1  0.64027731  0.91766979  0.74269255  1
  Na  Na23  1  0.64063467  0.91649366  0.99377548  1
  Na  Na24  1  0.35894842  0.08343257  0.00757086  1
  Na  Na25  1  0.35976536  0.08285184  0.25626286  1
  Na  Na26  1  0.35983538  0.08127564  0.50613381  1
  Na  Na27  1  0.35960602  0.08134232  0.75583372  1
  Na  Na28  1  0.36033126  0.41610394  0.00788373  1
  Na  Na29  1  0.36043153  0.41641042  0.25635185  1
  Na  Na30  1  0.35980598  0.41844870  0.50567195  1
  Na  Na31  1  0.35941399  0.41735997  0.75561704  1
  Na  Na32  1  0.36025765  0.75140475  0.00656632  1
  Na  Na33  1  0.35955057  0.75079210  0.25629447  1
  Na  Na34  1  0.35887332  0.75078591  0.50730612  1
  Na  Na35  1  0.35997899  0.74984919  0.75607006  1
  Na  Na36  1  0.85923050  0.08354446  0.00752076  1
  Na  Na37  1  0.85979237  0.08292108  0.25510221  1
  Na  Na38  1  0.85965080  0.08283779  0.50694952  1
  Na  Na39  1  0.85915964  0.08425782  0.75592789  1
  Na  Na40  1  0.86033424  0.41698293  0.00671059  1
  Na  Na41  1  0.85968535  0.41630190  0.25458380  1
  Na  Na42  1  0.85940730  0.41563360  0.50651324  1
  Na  Na43  1  0.85944680  0.41640684  0.75867998  1
  Na  Na44  1  0.85953435  0.75022619  0.00650257  1
  Na  Na45  1  0.85979590  0.74967557  0.25553782  1
  Na  Na46  1  0.86006904  0.74994468  0.50648027  1
  Na  Na47  1  0.85991175  0.75017367  0.75644200  1
  Na  Na48  1  0.11022637  0.08356811  0.11834824  1
  Na  Na49  1  0.10968239  0.08244924  0.36860761  1
  Na  Na50  1  0.10962209  0.08242915  0.61862219  1
  Na  Na51  1  0.10930819  0.08272327  0.86963085  1
  Na  Na52  1  0.10962396  0.41722505  0.11854796  1
  Na  Na53  1  0.10966521  0.41789995  0.36871765  1
  Na  Na54  1  0.10912171  0.41674314  0.61841601  1
  Na  Na55  1  0.10969953  0.41766699  0.86913718  1
  Na  Na56  1  0.10972815  0.75107603  0.11925820  1
  Na  Na57  1  0.10919562  0.75019377  0.36798984  1
  Na  Na58  1  0.11006969  0.74985459  0.61870988  1
  Na  Na59  1  0.11002714  0.75060264  0.86841249  1
  Na  Na60  1  0.60983444  0.08443310  0.11759824  1
  Na  Na61  1  0.60972303  0.08298900  0.36881477  1
  Na  Na62  1  0.60987292  0.08160630  0.61845360  1
  Na  Na63  1  0.60984762  0.08384514  0.86905592  1
  Na  Na64  1  0.60927280  0.41698959  0.11778343  1
  Na  Na65  1  0.60922108  0.41602462  0.36803438  1
  Na  Na66  1  0.60985649  0.41636701  0.62003699  1
  Na  Na67  1  0.61000936  0.41782796  0.86931328  1
  Na  Na68  1  0.60966393  0.74933179  0.11710109  1
  Na  Na69  1  0.60929772  0.74912425  0.36902953  1
  Na  Na70  1  0.60951718  0.74963777  0.61835009  1
  Na  Na71  1  0.60992133  0.75054444  0.86923128  1
  Na  Na72  1  0.39038148  0.25121999  0.13281307  1
  Na  Na73  1  0.39103904  0.25034651  0.37991762  1
  Na  Na74  1  0.39067683  0.24907565  0.63079672  1
  Na  Na75  1  0.39012787  0.25077888  0.88201664  1
  Na  Na76  1  0.39091928  0.58273357  0.13110678  1
  Na  Na77  1  0.39018859  0.58291857  0.38149971  1
  Na  Na78  1  0.38975996  0.58302064  0.63108139  1
  Na  Na79  1  0.39093129  0.58409004  0.88163549  1
  Na  Na80  1  0.38988828  0.91651384  0.13199952  1
  Na  Na81  1  0.38980589  0.91646520  0.38220140  1
  Na  Na82  1  0.38978545  0.91543827  0.63119361  1
  Na  Na83  1  0.39003052  0.91596271  0.88157655  1
  Na  Na84  1  0.89013079  0.25063463  0.13115706  1
  Na  Na85  1  0.89041994  0.24969709  0.38022849  1
  Na  Na86  1  0.89044038  0.24910391  0.63201580  1
  Na  Na87  1  0.89009671  0.25066304  0.88284209  1
  Na  Na88  1  0.89065346  0.58380838  0.13077622  1
  Na  Na89  1  0.89027670  0.58325294  0.37958269  1
  Na  Na90  1  0.89060061  0.58367860  0.63211548  1
  Na  Na91  1  0.89042068  0.58356587  0.88180026  1
  Na  Na92  1  0.89012804  0.91650553  0.13234085  1
  Na  Na93  1  0.89011210  0.91642142  0.38044173  1
  Na  Na94  1  0.88992846  0.91579515  0.63164094  1
  Na  Na95  1  0.89017373  0.91636235  0.88071220  1
  Mn  Mn96  1  0.24995758  0.16638318  0.87515854  1
  Mn  Mn97  1  -0.00045748  -0.00073872  0.74952368  1
  Mn  Mn98  1  0.75070911  0.66721410  0.62513769  1
  Mn  Mn99  1  0.25026409  0.33344418  0.87457665  1
  Mn  Mn100  1  0.50027318  0.16570172  0.75060383  1
  Mn  Mn101  1  0.74997901  0.16588069  0.37436816  1
  Mn  Mn102  1  -0.00006882  0.66673945  -0.00014501  1
  Mn  Mn103  1  0.74996754  0.49998369  0.62589567  1
  Mn  Mn104  1  -0.00079973  0.50063204  0.49985815  1
  Mn  Mn105  1  0.74987258  -0.00045361  0.37467121  1
  Mn  Mn106  1  0.74990708  0.83317885  0.37452434  1
  Mn  Mn107  1  0.00089681  0.33429331  0.25037528  1
  Mn  Mn108  1  0.25046904  0.50054613  0.87499154  1
  Mn  Mn109  1  0.24947937  -0.00103416  0.87601644  1
  Mn  Mn110  1  0.49996890  0.66560169  0.49939327  1
  Mn  Mn111  1  0.50052693  0.16555217  0.50035288  1
  Mn  Mn112  1  0.25054672  0.16554629  0.37446971  1
  Mn  Mn113  1  0.75059510  0.83344394  0.87497225  1
  Mn  Mn114  1  0.25064655  0.49969506  0.12460315  1
  Mn  Mn115  1  -0.00018346  0.83222654  0.49963858  1
  Mn  Mn116  1  0.25035671  0.66791821  0.12520629  1
  Mn  Mn117  1  0.25033652  0.16525931  0.62410496  1
  Mn  Mn118  1  0.49996576  0.83294734  0.25005842  1
  Mn  Mn119  1  0.74953996  0.33229482  0.62656193  1
  Mn  Mn120  1  -0.00016347  0.16695927  0.00006842  1
  Mn  Mn121  1  -0.00048717  0.33256400  0.49938247  1
  Mn  Mn122  1  0.25043783  0.66808237  0.87446886  1
  Mn  Mn123  1  0.74997841  0.33229111  0.37509938  1
  Mn  Mn124  1  0.74967681  0.66664912  0.37463399  1
  Mn  Mn125  1  0.75001266  0.49974256  0.12405370  1
  Mn  Mn126  1  -0.00007161  0.50018498  0.75007298  1
  Mn  Mn127  1  0.50043900  0.33352136  0.49971374  1
  Mn  Mn128  1  0.00071742  0.16642772  0.24978386  1
  Mn  Mn129  1  0.50093092  0.00021222  0.25016134  1
  Mn  Mn130  1  -0.00041459  0.16706617  0.75069144  1
  Mn  Mn131  1  0.50043794  0.83298795  0.75011180  1
  Mn  Mn132  1  0.75031338  0.00099780  0.87463235  1
  Mn  Mn133  1  0.24982869  0.66733497  0.37522916  1
  Mn  Mn134  1  -0.00068870  0.83393682  0.00009524  1
  Mn  Mn135  1  0.49944442  0.66586363  0.24956672  1
  Mn  Mn136  1  0.49901441  0.16773280  -0.00036823  1
  Mn  Mn137  1  0.25066288  0.33422748  0.62390944  1
  Mn  Mn138  1  0.25036851  0.33395548  0.37464160  1
  Mn  Mn139  1  0.49924370  0.50073050  0.75043147  1
  Mn  Mn140  1  0.49971858  0.33372635  0.75028863  1
  Mn  Mn141  1  0.49930152  -0.00007074  0.00006955  1
  Mn  Mn142  1  0.00005155  0.00005584  0.50033594  1
  Mn  Mn143  1  0.74964837  0.49927387  0.37435174  1
  Fe  Fe144  1  0.00024611  0.66691089  0.75018256  1
  Fe  Fe145  1  0.74993298  0.83293241  0.12424530  1
  Fe  Fe146  1  0.75020800  0.16688079  0.12460362  1
  Fe  Fe147  1  -0.00040024  0.50045278  0.24965922  1
  Fe  Fe148  1  0.49989707  0.50043976  0.00028404  1
  Fe  Fe149  1  0.00014190  0.16650868  0.49993076  1
  Fe  Fe150  1  0.74957564  0.66725059  0.87504288  1
  Fe  Fe151  1  0.00015125  0.33436572  0.00045521  1
  Fe  Fe152  1  0.75021310  0.66641398  0.12426504  1
  Fe  Fe153  1  0.24969399  0.83418356  0.37571161  1
  Fe  Fe154  1  0.75025685  0.33305774  0.87547597  1
  Fe  Fe155  1  -0.00044929  0.66650647  0.49929466  1
  Fe  Fe156  1  0.24975916  0.83407523  0.12585890  1
  Fe  Fe157  1  0.24965547  -0.00067962  0.37487745  1
  Fe  Fe158  1  0.50038415  0.83359076  -0.00050117  1
  Fe  Fe159  1  0.00029829  0.83280659  0.75021652  1
  Fe  Fe160  1  0.50018390  0.49970566  0.49988803  1
  Fe  Fe161  1  0.24962612  0.33305790  0.12554431  1
  Fe  Fe162  1  0.24933241  0.50103181  0.62485410  1
  Fe  Fe163  1  0.75052957  0.50042712  0.87596167  1
  Fe  Fe164  1  0.25005148  0.83349526  0.87512259  1
  Fe  Fe165  1  0.24975420  -0.00111869  0.62554922  1
  Fe  Fe166  1  0.49955833  0.83270517  0.50042411  1
  Fe  Fe167  1  0.74989075  0.00007832  0.12426288  1
  Fe  Fe168  1  0.74976633  0.16691214  0.87594718  1
  Fe  Fe169  1  0.24969414  0.50073634  0.37499295  1
  Fe  Fe170  1  0.25024723  -0.00051683  0.12561851  1
  Fe  Fe171  1  0.74987977  0.00029976  0.62514826  1
  Fe  Fe172  1  0.74932284  0.83359002  0.62532725  1
  Fe  Fe173  1  0.49966133  -0.00080336  0.49957503  1
  Fe  Fe174  1  0.50005995  0.16689483  0.24977934  1
  Fe  Fe175  1  0.50051576  0.50006410  0.24941612  1
  Fe  Fe176  1  0.00097159  0.50066333  -0.00020126  1
  Fe  Fe177  1  -0.00003950  0.83326506  0.24997187  1
  Fe  Fe178  1  0.25026769  0.16631832  0.12531527  1
  Fe  Fe179  1  0.50026942  0.66682892  -0.00005146  1
  Fe  Fe180  1  0.50045934  0.33396681  0.25018186  1
  Fe  Fe181  1  0.50022642  0.66677943  0.75013508  1
  Fe  Fe182  1  0.74991974  0.33317353  0.12411437  1
  Fe  Fe183  1  0.50014694  0.33416087  0.00107065  1
  Fe  Fe184  1  0.75002412  0.16650802  0.62550259  1
  Fe  Fe185  1  0.24989307  0.83342373  0.62471505  1
  Fe  Fe186  1  0.25001441  0.66741438  0.62457130  1
  Fe  Fe187  1  0.49974770  -0.00086138  0.74996791  1
  Fe  Fe188  1  -0.00029992  -0.00038278  0.00012428  1
  Fe  Fe189  1  -0.00038349  0.00023175  0.25017367  1
  Fe  Fe190  1  0.00002016  0.33354186  0.75036706  1
  Fe  Fe191  1  0.00034928  0.66631070  0.24936174  1
  P  P192  1  0.04214840  0.25164765  0.10232998  1
  P  P193  1  0.04354997  0.24960163  0.35336621  1
  P  P194  1  0.04230903  0.24879844  0.60272583  1
  P  P195  1  0.04199032  0.25198971  0.85327955  1
  P  P196  1  0.04239331  0.58270977  0.10305915  1
  P  P197  1  0.04146628  0.58365999  0.35141883  1
  P  P198  1  0.04160449  0.58509292  0.60255408  1
  P  P199  1  0.04274213  0.58453149  0.85248088  1
  P  P200  1  0.04151266  0.91794402  0.10359016  1
  P  P201  1  0.04104023  0.91674824  0.35143223  1
  P  P202  1  0.04234372  0.91535151  0.60338542  1
  P  P203  1  0.04204654  0.91568509  0.85267014  1
  P  P204  1  0.54165523  0.25151138  0.10326947  1
  P  P205  1  0.54179063  0.24977458  0.35121601  1
  P  P206  1  0.54309930  0.24951453  0.60320721  1
  P  P207  1  0.54240123  0.25075194  0.85397073  1
  P  P208  1  0.54157964  0.58311471  0.10149377  1
  P  P209  1  0.54229541  0.58168290  0.35223532  1
  P  P210  1  0.54226242  0.58197130  0.60267762  1
  P  P211  1  0.54175722  0.58522227  0.85354152  1
  P  P212  1  0.54225720  0.91562958  0.10213128  1
  P  P213  1  0.54265011  0.91612443  0.35403271  1
  P  P214  1  0.54082659  0.91640963  0.60192174  1
  P  P215  1  0.54253548  0.91744742  0.85270125  1
  P  P216  1  0.45790603  0.08467176  0.14772984  1
  P  P217  1  0.45797763  0.08231779  0.39700952  1
  P  P218  1  0.45814625  0.08096360  0.64719941  1
  P  P219  1  0.45646694  0.08294780  0.89662097  1
  P  P220  1  0.45909894  0.41707672  0.14788664  1
  P  P221  1  0.45813851  0.41800267  0.39653716  1
  P  P222  1  0.45703264  0.41704583  0.64653703  1
  P  P223  1  0.45848428  0.41705766  0.89921269  1
  P  P224  1  0.45754803  0.74961612  0.14583898  1
  P  P225  1  0.45719490  0.75064041  0.39792392  1
  P  P226  1  0.45819129  0.74858695  0.64724992  1
  P  P227  1  0.45879445  0.75001808  0.89823924  1
  P  P228  1  0.95828817  0.08210716  0.14704521  1
  P  P229  1  0.95776061  0.08413006  0.39728276  1
  P  P230  1  0.95721068  0.08358561  0.64659788  1
  P  P231  1  0.95737517  0.08199245  0.89804988  1
  P  P232  1  0.95831277  0.41820675  0.14657972  1
  P  P233  1  0.95687157  0.41726583  0.39632605  1
  P  P234  1  0.95718316  0.41539410  0.64805553  1
  P  P235  1  0.95894254  0.41725693  0.89835162  1
  P  P236  1  0.95880028  0.74986196  0.14837664  1
  P  P237  1  0.95785827  0.74835433  0.39608598  1
  P  P238  1  0.95853978  0.74947214  0.64820693  1
  P  P239  1  0.95733609  0.75017693  0.89620098  1
  P  P240  1  0.20883818  0.08259555  0.22676924  1
  P  P241  1  0.20785429  0.08115259  0.47749944  1
  P  P242  1  0.20745027  0.08131971  0.72746308  1
  P  P243  1  0.20732852  0.08336314  0.97946434  1
  P  P244  1  0.20799331  0.41597765  0.22762532  1
  P  P245  1  0.20782623  0.41894191  0.47755260  1
  P  P246  1  0.20759452  0.41809504  0.72686438  1
  P  P247  1  0.20780391  0.41636358  0.97854853  1
  P  P248  1  0.20783640  0.75195472  0.22836643  1
  P  P249  1  0.20764735  0.75184653  0.47805590  1
  P  P250  1  0.20892322  0.75062815  0.72659266  1
  P  P251  1  0.20790674  0.75232490  0.97796491  1
  P  P252  1  0.70840414  0.08324693  0.22566485  1
  P  P253  1  0.70750825  0.08272822  0.47880864  1
  P  P254  1  0.70833958  0.08395698  0.72710951  1
  P  P255  1  0.70796932  0.08473429  0.97847699  1
  P  P256  1  0.70747353  0.41487604  0.22649461  1
  P  P257  1  0.70679693  0.41590523  0.47834489  1
  P  P258  1  0.70760967  0.41678458  0.73021372  1
  P  P259  1  0.70937760  0.41645496  0.97692277  1
  P  P260  1  0.70819627  0.74970471  0.22565487  1
  P  P261  1  0.70717143  0.75038337  0.47849953  1
  P  P262  1  0.70766375  0.75112294  0.72783950  1
  P  P263  1  0.70825397  0.74903816  0.97811449  1
  P  P264  1  0.29154755  0.24994944  0.02404265  1
  P  P265  1  0.29251053  0.24963749  0.27082796  1
  P  P266  1  0.29333737  0.24967229  0.52123222  1
  P  P267  1  0.29302537  0.24953300  0.77148061  1
  P  P268  1  0.29318490  0.58448172  0.02190595  1
  P  P269  1  0.29222325  0.58267855  0.27271261  1
  P  P270  1  0.29086157  0.58385881  0.52293178  1
  P  P271  1  0.29279897  0.58406512  0.77086521  1
  P  P272  1  0.29144248  0.91630316  0.02374324  1
  P  P273  1  0.29157807  0.91652670  0.27312367  1
  P  P274  1  0.29098687  0.91659176  0.52293493  1
  P  P275  1  0.29203613  0.91496137  0.77226122  1
  P  P276  1  0.79157070  0.25009186  0.02266486  1
  P  P277  1  0.79254878  0.24949789  0.27046745  1
  P  P278  1  0.79256203  0.24840931  0.52322848  1
  P  P279  1  0.79148812  0.24916726  0.77401907  1
  P  P280  1  0.79212448  0.58455641  0.02140999  1
  P  P281  1  0.79215655  0.58332835  0.27065506  1
  P  P282  1  0.79311530  0.58302452  0.52204498  1
  P  P283  1  0.79158815  0.58388549  0.77416578  1
  P  P284  1  0.79167747  0.91659336  0.02325408  1
  P  P285  1  0.79226820  0.91639937  0.27030670  1
  P  P286  1  0.79135521  0.91639644  0.52374838  1
  P  P287  1  0.79232625  0.91724965  0.77090872  1
  O  O288  1  0.03750790  0.25124651  0.18232330  1
  O  O289  1  0.03818122  0.24888888  0.43331898  1
  O  O290  1  0.03698606  0.24950176  0.68271010  1
  O  O291  1  0.03653543  0.25232685  0.93323850  1
  O  O292  1  0.03676702  0.58285465  0.18292830  1
  O  O293  1  0.03620240  0.58410770  0.43139517  1
  O  O294  1  0.03654147  0.58508720  0.68251615  1
  O  O295  1  0.03757584  0.58380599  0.93244412  1
  O  O296  1  0.03605870  0.91773270  0.18347221  1
  O  O297  1  0.03641294  0.91641596  0.43144425  1
  O  O298  1  0.03716586  0.91476049  0.68330778  1
  O  O299  1  0.03676867  0.91648266  0.93263992  1
  O  O300  1  0.53645940  0.25097436  0.18316528  1
  O  O301  1  0.53725655  0.24990978  0.43122556  1
  O  O302  1  0.53784204  0.24933569  0.68314474  1
  O  O303  1  0.53688291  0.25137263  0.93391778  1
  O  O304  1  0.53674544  0.58232951  0.18148138  1
  O  O305  1  0.53725320  0.58167170  0.43220349  1
  O  O306  1  0.53695450  0.58297057  0.68261373  1
  O  O307  1  0.53622968  0.58523895  0.93340513  1
  O  O308  1  0.53757586  0.91574516  0.18213155  1
  O  O309  1  0.53708996  0.91606134  0.43395535  1
  O  O310  1  0.53621089  0.91661055  0.68197294  1
  O  O311  1  0.53735483  0.91675994  0.93265740  1
  O  O312  1  0.46241127  0.08465160  0.06772130  1
  O  O313  1  0.46343228  0.08323546  0.31706911  1
  O  O314  1  0.46361796  0.08069554  0.56722447  1
  O  O315  1  0.46172975  0.08221748  0.81665691  1
  O  O316  1  0.46403023  0.41675934  0.06796602  1
  O  O317  1  0.46385731  0.41798392  0.31666184  1
  O  O318  1  0.46232548  0.41734170  0.56660151  1
  O  O319  1  0.46286381  0.41741175  0.81920409  1
  O  O320  1  0.46315519  0.74989629  0.06595739  1
  O  O321  1  0.46190290  0.75044009  0.31791129  1
  O  O322  1  0.46331136  0.74924782  0.56731341  1
  O  O323  1  0.46376417  0.74984413  0.81822227  1
  O  O324  1  0.96342610  0.08190274  0.06710685  1
  O  O325  1  0.96316058  0.08341257  0.31728821  1
  O  O326  1  0.96254369  0.08423225  0.56665552  1
  O  O327  1  0.96243594  0.08246649  0.81808407  1
  O  O328  1  0.96413924  0.41795677  0.06669725  1
  O  O329  1  0.96237674  0.41777968  0.31639904  1
  O  O330  1  0.96189616  0.41548254  0.56805705  1
  O  O331  1  0.96381016  0.41656664  0.81834507  1
  O  O332  1  0.96329580  0.75028561  0.06836158  1
  O  O333  1  0.96349673  0.74869909  0.31624132  1
  O  O334  1  0.96323323  0.74910142  0.56815077  1
  O  O335  1  0.96262945  0.75018559  0.81628663  1
  O  O336  1  0.21286849  0.08363709  0.05933520  1
  O  O337  1  0.21365417  0.08187853  0.30674167  1
  O  O338  1  0.21302125  0.08099454  0.55747076  1
  O  O339  1  0.21240332  0.08165746  0.80748461  1
  O  O340  1  0.21297859  0.41563252  0.05851889  1
  O  O341  1  0.21300404  0.41676885  0.30758839  1
  O  O342  1  0.21317004  0.41930567  0.55750928  1
  O  O343  1  0.21293708  0.41763030  0.80686212  1
  O  O344  1  0.21297885  0.75231215  0.05795092  1
  O  O345  1  0.21311721  0.75192332  0.30830085  1
  O  O346  1  0.21315392  0.75148511  0.55793782  1
  O  O347  1  0.21363399  0.75073125  0.80658399  1
  O  O348  1  0.71353827  0.08435546  0.05833964  1
  O  O349  1  0.71286487  0.08268803  0.30572926  1
  O  O350  1  0.71260180  0.08283633  0.55873827  1
  O  O351  1  0.71338704  0.08412851  0.80710953  1
  O  O352  1  0.71420978  0.41586554  0.05689573  1
  O  O353  1  0.71237906  0.41514120  0.30649716  1
  O  O354  1  0.71177462  0.41592732  0.55838930  1
  O  O355  1  0.71324635  0.41719732  0.81011363  1
  O  O356  1  0.71379223  0.74904426  0.05798663  1
  O  O357  1  0.71301767  0.74978438  0.30572025  1
  O  O358  1  0.71233842  0.75089256  0.55846770  1
  O  O359  1  0.71299940  0.75054480  0.80780280  1
  O  O360  1  0.28670625  0.24969179  0.19090808  1
  O  O361  1  0.28813469  0.24970258  0.44124177  1
  O  O362  1  0.28814268  0.24955755  0.69148538  1
  O  O363  1  0.28694070  0.25012994  0.94396460  1
  O  O364  1  0.28730019  0.58301507  0.19275316  1
  O  O365  1  0.28601294  0.58366880  0.44292762  1
  O  O366  1  0.28726282  0.58389212  0.69095164  1
  O  O367  1  0.28812457  0.58461786  0.94192884  1
  O  O368  1  0.28654353  0.91628608  0.19320285  1
  O  O369  1  0.28571848  0.91679173  0.44304080  1
  O  O370  1  0.28666576  0.91500752  0.69238793  1
  O  O371  1  0.28667062  0.91625572  0.94378488  1
  O  O372  1  0.78733197  0.24974137  0.19053176  1
  O  O373  1  0.78756299  0.24872347  0.44321190  1
  O  O374  1  0.78654838  0.24892517  0.69405371  1
  O  O375  1  0.78626348  0.24984919  0.94276465  1
  O  O376  1  0.78689054  0.58369707  0.19066787  1
  O  O377  1  0.78792744  0.58294344  0.44203560  1
  O  O378  1  0.78675556  0.58382721  0.69414859  1
  O  O379  1  0.78657900  0.58447888  0.94152078  1
  O  O380  1  0.78701536  0.91647880  0.19040559  1
  O  O381  1  0.78664909  0.91637116  0.44366175  1
  O  O382  1  0.78662945  0.91711435  0.69104353  1
  O  O383  1  0.78719997  0.91695590  0.94320896  1
  O  O384  1  0.22726288  0.24966618  0.05957036  1
  O  O385  1  0.22847034  0.24971198  0.30693199  1
  O  O386  1  0.22896068  0.24975696  0.55637242  1
  O  O387  1  0.22850057  0.24980188  0.80635771  1
  O  O388  1  0.22879798  0.58412444  0.05698820  1
  O  O389  1  0.22784592  0.58282604  0.30807339  1
  O  O390  1  0.22675386  0.58394834  0.55892844  1
  O  O391  1  0.22857765  0.58417256  0.80663622  1
  O  O392  1  0.22724371  0.91633187  0.05959457  1
  O  O393  1  0.22738802  0.91666196  0.30932850  1
  O  O394  1  0.22703033  0.91660475  0.55952790  1
  O  O395  1  0.22784867  0.91457569  0.80839667  1
  O  O396  1  0.72753869  0.24985069  0.05913444  1
  O  O397  1  0.72823502  0.24935579  0.30605104  1
  O  O398  1  0.72813130  0.24804874  0.55859875  1
  O  O399  1  0.72733512  0.24887313  0.80996932  1
  O  O400  1  0.72795823  0.58442478  0.05743355  1
  O  O401  1  0.72785818  0.58317003  0.30613382  1
  O  O402  1  0.72869103  0.58343385  0.55713348  1
  O  O403  1  0.72739393  0.58329252  0.80996589  1
  O  O404  1  0.72736978  0.91560685  0.05860279  1
  O  O405  1  0.72801302  0.91633212  0.30599144  1
  O  O406  1  0.72713070  0.91634435  0.55952175  1
  O  O407  1  0.72826536  0.91718894  0.80700785  1
  O  O408  1  0.27297087  0.08325170  0.19081727  1
  O  O409  1  0.27213239  0.08077892  0.44176828  1
  O  O410  1  0.27181908  0.08093457  0.69198625  1
  O  O411  1  0.27150516  0.08299919  0.94355719  1
  O  O412  1  0.27231725  0.41534612  0.19209587  1
  O  O413  1  0.27205638  0.41907913  0.44168741  1
  O  O414  1  0.27190900  0.41877325  0.69136861  1
  O  O415  1  0.27220606  0.41663071  0.94336304  1
  O  O416  1  0.27206660  0.75222062  0.19254423  1
  O  O417  1  0.27178857  0.75203614  0.44193421  1
  O  O418  1  0.27300641  0.75077462  0.69057434  1
  O  O419  1  0.27222402  0.75233551  0.94228733  1
  O  O420  1  0.77270317  0.08393130  0.19029235  1
  O  O421  1  0.77179924  0.08282323  0.44318777  1
  O  O422  1  0.77244218  0.08400237  0.69093470  1
  O  O423  1  0.77208662  0.08523632  0.94225813  1
  O  O424  1  0.77185342  0.41506817  0.19114632  1
  O  O425  1  0.77128472  0.41604110  0.44337108  1
  O  O426  1  0.77174087  0.41639937  0.69421234  1
  O  O427  1  0.77345798  0.41713548  0.94097664  1
  O  O428  1  0.77249407  0.75000801  0.19001442  1
  O  O429  1  0.77156296  0.74992431  0.44324353  1
  O  O430  1  0.77194135  0.75210877  0.69212026  1
  O  O431  1  0.77233972  0.74865922  0.94190341  1
  O  O432  1  0.02252170  0.08184852  0.18281516  1
  O  O433  1  0.02201958  0.08454894  0.43312913  1
  O  O434  1  0.02145954  0.08346778  0.68208965  1
  O  O435  1  0.02171429  0.08176307  0.93351817  1
  O  O436  1  0.02230141  0.41898767  0.18313312  1
  O  O437  1  0.02112646  0.41696564  0.43186904  1
  O  O438  1  0.02167681  0.41558678  0.68315385  1
  O  O439  1  0.02307354  0.41742684  0.93438988  1
  O  O440  1  0.02297934  0.74941268  0.18401210  1
  O  O441  1  0.02193226  0.74803643  0.43248461  1
  O  O442  1  0.02278305  0.74921097  0.68410975  1
  O  O443  1  0.02156148  0.75048463  0.93184201  1
  O  O444  1  0.52238055  0.08500267  0.18279617  1
  O  O445  1  0.52217529  0.08123393  0.43287682  1
  O  O446  1  0.52229572  0.08083539  0.68328212  1
  O  O447  1  0.52085479  0.08341482  0.93178591  1
  O  O448  1  0.52317025  0.41751847  0.18403154  1
  O  O449  1  0.52220309  0.41835562  0.43299922  1
  O  O450  1  0.52129996  0.41718040  0.68205578  1
  O  O451  1  0.52284516  0.41658014  0.93452493  1
  O  O452  1  0.52173663  0.74928494  0.18167144  1
  O  O453  1  0.52159983  0.75049026  0.43304641  1
  O  O454  1  0.52238709  0.74843479  0.68318169  1
  O  O455  1  0.52295797  0.74995347  0.93418925  1
  O  O456  1  0.47743659  0.25222521  0.06734114  1
  O  O457  1  0.47756727  0.24953827  0.31560526  1
  O  O458  1  0.47877093  0.24967936  0.56792060  1
  O  O459  1  0.47816578  0.24994425  0.81841254  1
  O  O460  1  0.47739834  0.58386719  0.06578052  1
  O  O461  1  0.47790863  0.58139168  0.31677607  1
  O  O462  1  0.47802653  0.58140421  0.56671825  1
  O  O463  1  0.47768513  0.58553556  0.81719977  1
  O  O464  1  0.47778847  0.91523575  0.06708070  1
  O  O465  1  0.47842626  0.91675442  0.31828731  1
  O  O466  1  0.47669332  0.91674422  0.56598270  1
  O  O467  1  0.47822031  0.91754950  0.81706337  1
  O  O468  1  0.97779719  0.25155028  0.06706742  1
  O  O469  1  0.97922744  0.25006981  0.31803018  1
  O  O470  1  0.97804073  0.24797465  0.56688086  1
  O  O471  1  0.97772440  0.25192724  0.81748388  1
  O  O472  1  0.97834222  0.58201010  0.06668339  1
  O  O473  1  0.97739218  0.58355169  0.31511198  1
  O  O474  1  0.97732746  0.58539943  0.56679504  1
  O  O475  1  0.97842530  0.58510308  0.81682518  1
  O  O476  1  0.97739543  0.91846070  0.06726755  1
  O  O477  1  0.97683286  0.91712241  0.31586047  1
  O  O478  1  0.97807796  0.91581934  0.56791803  1
  O  O479  1  0.97781919  0.91506171  0.81695525  1
  O  O480  1  0.07276796  0.31529594  0.07407050  1
  O  O481  1  0.07470433  0.31327374  0.32571952  1
  O  O482  1  0.07311824  0.31248406  0.57450213  1
  O  O483  1  0.07294968  0.31513683  0.82414430  1
  O  O484  1  0.07323993  0.64658882  0.07517980  1
  O  O485  1  0.07267638  0.64701438  0.32295927  1
  O  O486  1  0.07279212  0.64813649  0.57363243  1
  O  O487  1  0.07369289  0.64809007  0.82432956  1
  O  O488  1  0.07271073  0.98108635  0.07469695  1
  O  O489  1  0.07219433  0.98029943  0.32352131  1
  O  O490  1  0.07343831  0.97904741  0.57567694  1
  O  O491  1  0.07320254  0.97913167  0.82447832  1
  O  O492  1  0.57287395  0.31484624  0.07466813  1
  O  O493  1  0.57211543  0.31373660  0.32285791  1
  O  O494  1  0.57422824  0.31298036  0.57523659  1
  O  O495  1  0.57338153  0.31411181  0.82551913  1
  O  O496  1  0.57285877  0.64662380  0.07365868  1
  O  O497  1  0.57276280  0.64581263  0.32440699  1
  O  O498  1  0.57336521  0.64536948  0.57421069  1
  O  O499  1  0.57277993  0.64845733  0.82451722  1
  O  O500  1  0.57296303  0.97954617  0.07450985  1
  O  O501  1  0.57432678  0.97925737  0.32555721  1
  O  O502  1  0.57223626  0.97952532  0.57339054  1
  O  O503  1  0.57311934  0.98114264  0.82428418  1
  O  O504  1  0.42734665  0.02066653  0.17534847  1
  O  O505  1  0.42671111  0.01888729  0.42511071  1
  O  O506  1  0.42703621  0.01775177  0.67593548  1
  O  O507  1  0.42534798  0.01974765  0.92548239  1
  O  O508  1  0.42870419  0.35337064  0.17697529  1
  O  O509  1  0.42716868  0.35412070  0.42419336  1
  O  O510  1  0.42617722  0.35332220  0.67457052  1
  O  O511  1  0.42734159  0.35364020  0.92745447  1
  O  O512  1  0.42625047  0.68622951  0.17419776  1
  O  O513  1  0.42597493  0.68700776  0.42555304  1
  O  O514  1  0.42772626  0.68481531  0.67556876  1
  O  O515  1  0.42748445  0.68681669  0.92665292  1
  O  O516  1  0.92707340  0.01908481  0.17611284  1
  O  O517  1  0.92661970  0.02057109  0.42535332  1
  O  O518  1  0.92628939  0.01973284  0.67409136  1
  O  O519  1  0.92653137  0.01843674  0.92621976  1
  O  O520  1  0.92747262  0.35440119  0.17451836  1
  O  O521  1  0.92572186  0.35360081  0.42405673  1
  O  O522  1  0.92680934  0.35181471  0.67695588  1
  O  O523  1  0.92787156  0.35392530  0.92711116  1
  O  O524  1  0.92762130  0.68625529  0.17594888  1
  O  O525  1  0.92681359  0.68507480  0.42487022  1
  O  O526  1  0.92729829  0.68624378  0.67683551  1
  O  O527  1  0.92639922  0.68672782  0.92483095  1
  O  O528  1  0.17840234  0.01888158  0.19800870  1
  O  O529  1  0.17654120  0.01811664  0.44865214  1
  O  O530  1  0.17668881  0.01769256  0.69934637  1
  O  O531  1  0.17595646  0.01998858  0.95132362  1
  O  O532  1  0.17714988  0.35229076  0.19947742  1
  O  O533  1  0.17704492  0.35490963  0.45023979  1
  O  O534  1  0.17688981  0.35434094  0.69881444  1
  O  O535  1  0.17653804  0.35331134  0.94972124  1
  O  O536  1  0.17715369  0.68801184  0.20061860  1
  O  O537  1  0.17651596  0.68831493  0.44985833  1
  O  O538  1  0.17857805  0.68666960  0.69812391  1
  O  O539  1  0.17701218  0.68854211  0.95007878  1
  O  O540  1  0.67822558  0.01929946  0.19704441  1
  O  O541  1  0.67652207  0.01929049  0.45023259  1
  O  O542  1  0.67787352  0.01999351  0.69895712  1
  O  O543  1  0.67707655  0.02105566  0.95022914  1
  O  O544  1  0.67700408  0.35131503  0.19786739  1
  O  O545  1  0.67600290  0.35229819  0.45014548  1
  O  O546  1  0.67620981  0.35334636  0.70223496  1
  O  O547  1  0.67886740  0.35271814  0.94841543  1
  O  O548  1  0.67769816  0.68578091  0.19769772  1
  O  O549  1  0.67600886  0.68682001  0.45050530  1
  O  O550  1  0.67698620  0.68736713  0.69980498  1
  O  O551  1  0.67702839  0.68587515  0.94924423  1
  O  O552  1  0.32205627  0.31375522  0.05237516  1
  O  O553  1  0.32397360  0.31290004  0.29901284  1
  O  O554  1  0.32441467  0.31321811  0.54908460  1
  O  O555  1  0.32413072  0.31300650  0.79966045  1
  O  O556  1  0.32388870  0.64803923  0.05016216  1
  O  O557  1  0.32339428  0.64621955  0.30058345  1
  O  O558  1  0.32133462  0.64793189  0.55098441  1
  O  O559  1  0.32398682  0.64745781  0.79924575  1
  O  O560  1  0.32194539  0.98018041  0.05224863  1
  O  O561  1  0.32246475  0.98020963  0.30133413  1
  O  O562  1  0.32203196  0.97997519  0.55160621  1
  O  O563  1  0.32290628  0.97858491  0.80049127  1
  O  O564  1  0.82222854  0.31400639  0.05071114  1
  O  O565  1  0.82375981  0.31274324  0.29915647  1
  O  O566  1  0.82330674  0.31210250  0.55138292  1
  O  O567  1  0.82168144  0.31331819  0.80232363  1
  O  O568  1  0.82301803  0.64790941  0.05028543  1
  O  O569  1  0.82333844  0.64660098  0.29903785  1
  O  O570  1  0.82428718  0.64645395  0.55015853  1
  O  O571  1  0.82182278  0.64801542  0.80196526  1
  O  O572  1  0.82141929  0.98085202  0.05160696  1
  O  O573  1  0.82335074  0.97970657  0.29909334  1
  O  O574  1  0.82194743  0.98024172  0.55179910  1
  O  O575  1  0.82354873  0.98069518  0.79912063  1
  O  O576  1  0.42710067  0.14802127  0.17641656  1
  O  O577  1  0.42723060  0.14596339  0.42530250  1
  O  O578  1  0.42724894  0.14493682  0.67449650  1
  O  O579  1  0.42531631  0.14652960  0.92446167  1
  O  O580  1  0.42774705  0.48055144  0.17590930  1
  O  O581  1  0.42694380  0.48115064  0.42537844  1
  O  O582  1  0.42569060  0.48013967  0.67518725  1
  O  O583  1  0.42830438  0.48108747  0.92762892  1
  O  O584  1  0.42633879  0.81287670  0.17444762  1
  O  O585  1  0.42680268  0.81422052  0.42676648  1
  O  O586  1  0.42692212  0.81193059  0.67547242  1
  O  O587  1  0.42843828  0.81415477  0.92624514  1
  O  O588  1  0.92755800  0.14617101  0.17439276  1
  O  O589  1  0.92704186  0.14779435  0.42541628  1
  O  O590  1  0.92583302  0.14651404  0.67554282  1
  O  O591  1  0.92656004  0.14573326  0.92599710  1
  O  O592  1  0.92685813  0.48139258  0.17500932  1
  O  O593  1  0.92570716  0.48050118  0.42483864  1
  O  O594  1  0.92613241  0.47903810  0.67593497  1
  O  O595  1  0.92844188  0.48134620  0.92595454  1
  O  O596  1  0.92856244  0.81380432  0.17680896  1
  O  O597  1  0.92676058  0.81201913  0.42419503  1
  O  O598  1  0.92832196  0.81358778  0.67628927  1
  O  O599  1  0.92581624  0.81332283  0.92473287  1
  O  O600  1  0.07316980  0.18801678  0.07448588  1
  O  O601  1  0.07469060  0.18642399  0.32456595  1
  O  O602  1  0.07338836  0.18532819  0.57455384  1
  O  O603  1  0.07296982  0.18798932  0.82604600  1
  O  O604  1  0.07382002  0.51968711  0.07426291  1
  O  O605  1  0.07207821  0.51973716  0.32355552  1
  O  O606  1  0.07207054  0.52100256  0.57478632  1
  O  O607  1  0.07366471  0.52102577  0.82414473  1
  O  O608  1  0.07233986  0.85412525  0.07563553  1
  O  O609  1  0.07133434  0.85279282  0.32306138  1
  O  O610  1  0.07344541  0.85224518  0.57451263  1
  O  O611  1  0.07282022  0.85200354  0.82446200  1
  O  O612  1  0.57246768  0.18792306  0.07482993  1
  O  O613  1  0.57278330  0.18618710  0.32312770  1
  O  O614  1  0.57399850  0.18599234  0.57496827  1
  O  O615  1  0.57376398  0.18718621  0.82636963  1
  O  O616  1  0.57201127  0.51939562  0.07261425  1
  O  O617  1  0.57360283  0.51877615  0.32324671  1
  O  O618  1  0.57311655  0.51831378  0.57472199  1
  O  O619  1  0.57275699  0.52143881  0.82586602  1
  O  O620  1  0.57308548  0.85228151  0.07338206  1
  O  O621  1  0.57353213  0.85257840  0.32563609  1
  O  O622  1  0.57086528  0.85209006  0.57392749  1
  O  O623  1  0.57383595  0.85410158  0.82447671  1
  O  O624  1  0.32253168  0.18629982  0.05201590  1
  O  O625  1  0.32372411  0.18614548  0.29890339  1
  O  O626  1  0.32428670  0.18607077  0.54919701  1
  O  O627  1  0.32370610  0.18594284  0.79987217  1
  O  O628  1  0.32440513  0.52100848  0.04976779  1
  O  O629  1  0.32264475  0.51895842  0.30111564  1
  O  O630  1  0.32201113  0.52055899  0.55135607  1
  O  O631  1  0.32405917  0.52075567  0.79945027  1
  O  O632  1  0.32253315  0.85298062  0.05223476  1
  O  O633  1  0.32244638  0.85307072  0.30196777  1
  O  O634  1  0.32194734  0.85290704  0.55112193  1
  O  O635  1  0.32315262  0.85171528  0.80120346  1
  O  O636  1  0.82288656  0.18678291  0.05119088  1
  O  O637  1  0.82367595  0.18603310  0.29891084  1
  O  O638  1  0.82335802  0.18493910  0.55163891  1
  O  O639  1  0.82290984  0.18606956  0.80255873  1
  O  O640  1  0.82345225  0.52101632  0.04930039  1
  O  O641  1  0.82306585  0.51958980  0.29848009  1
  O  O642  1  0.82389061  0.51952360  0.55050059  1
  O  O643  1  0.82293380  0.52048230  0.80222201  1
  O  O644  1  0.82320783  0.85329449  0.05116080  1
  O  O645  1  0.82340470  0.85301028  0.29884440  1
  O  O646  1  0.82227274  0.85271959  0.55173505  1
  O  O647  1  0.82376413  0.85404767  0.79940765  1
  O  O648  1  0.17761187  0.14621208  0.19900634  1
  O  O649  1  0.17724054  0.14512481  0.44968203  1
  O  O650  1  0.17661756  0.14500481  0.69941632  1
  O  O651  1  0.17625438  0.14669923  0.95068910  1
  O  O652  1  0.17699039  0.47945076  0.19930046  1
  O  O653  1  0.17669542  0.48211837  0.44863664  1
  O  O654  1  0.17640427  0.48156134  0.69888125  1
  O  O655  1  0.17693525  0.48019219  0.95080547  1
  O  O656  1  0.17666711  0.81512166  0.19972044  1
  O  O657  1  0.17657301  0.81517144  0.44940978  1
  O  O658  1  0.17756052  0.81385713  0.69830107  1
  O  O659  1  0.17701233  0.81560528  0.94909307  1
  O  O660  1  0.67718391  0.14673224  0.19780286  1
  O  O661  1  0.67631091  0.14597999  0.44993519  1
  O  O662  1  0.67721643  0.14737109  0.69885982  1
  O  O663  1  0.67667182  0.14801310  0.95005350  1
  O  O664  1  0.67632471  0.47843742  0.19858119  1
  O  O665  1  0.67584938  0.47932343  0.44991514  1
  O  O666  1  0.67645178  0.48014664  0.70163306  1
  O  O667  1  0.67810865  0.48014137  0.94940291  1
  O  O668  1  0.67718655  0.81325803  0.19749974  1
  O  O669  1  0.67619501  0.81364413  0.44972623  1
  O  O670  1  0.67644799  0.81449440  0.69951715  1
  O  O671  1  0.67733242  0.81281821  0.95022130  1
