# generated using pymatgen
data_Na2MnFe(PO4)2
_symmetry_space_group_name_H-M   'P 1'
_cell_length_a   22.34541293
_cell_length_b   20.09813722
_cell_length_c   19.44750050
_cell_angle_alpha   90.00231526
_cell_angle_beta   90.06127911
_cell_angle_gamma   89.99775921
_symmetry_Int_Tables_number   1
_chemical_formula_structural   Na2MnFe(PO4)2
_chemical_formula_sum   'Na96 Mn48 Fe48 P96 O384'
_cell_volume   8733.89032042
_cell_formula_units_Z   48
loop_
 _symmetry_equiv_pos_site_id
 _symmetry_equiv_pos_as_xyz
  1  'x, y, z'
loop_
 _atom_site_type_symbol
 _atom_site_label
 _atom_site_symmetry_multiplicity
 _atom_site_fract_x
 _atom_site_fract_y
 _atom_site_fract_z
 _atom_site_occupancy
  Na  Na0  1  0.14030597  0.25022523  0.24421417  1
  Na  Na1  1  0.14076831  0.24920727  0.49511846  1
  Na  Na2  1  0.14058985  0.25048796  0.74455866  1
  Na  Na3  1  0.13981182  0.25092051  0.99287167  1
  Na  Na4  1  0.14014746  0.58402303  0.24410134  1
  Na  Na5  1  0.13985396  0.58229489  0.49518283  1
  Na  Na6  1  0.13976030  0.58315050  0.74459818  1
  Na  Na7  1  0.14062937  0.58367290  0.99227987  1
  Na  Na8  1  0.13983648  0.91709139  0.24358122  1
  Na  Na9  1  0.14012296  0.91685215  0.49455670  1
  Na  Na10  1  0.14037980  0.91655795  0.74462659  1
  Na  Na11  1  0.13999202  0.91523481  0.99359163  1
  Na  Na12  1  0.64003699  0.25070991  0.24314543  1
  Na  Na13  1  0.64063331  0.25085322  0.49316157  1
  Na  Na14  1  0.64052552  0.24983827  0.74350293  1
  Na  Na15  1  0.64007496  0.24833167  0.99239901  1
  Na  Na16  1  0.64032771  0.58443991  0.24398801  1
  Na  Na17  1  0.63967439  0.58390275  0.49369542  1
  Na  Na18  1  0.63983798  0.58395354  0.74308397  1
  Na  Na19  1  0.63983644  0.58407334  0.99257898  1
  Na  Na20  1  0.64011866  0.91674168  0.24342164  1
  Na  Na21  1  0.63959276  0.91594803  0.49324262  1
  Na  Na22  1  0.63988426  0.91588065  0.74297026  1
  Na  Na23  1  0.64016924  0.91673493  0.99255365  1
  Na  Na24  1  0.36035338  0.08255193  0.00594726  1
  Na  Na25  1  0.35985597  0.08301776  0.25513570  1
  Na  Na26  1  0.36024307  0.08250653  0.50768787  1
  Na  Na27  1  0.36068919  0.08317075  0.75661804  1
  Na  Na28  1  0.36040779  0.41669161  0.00557687  1
  Na  Na29  1  0.36058080  0.41620421  0.25603676  1
  Na  Na30  1  0.36033065  0.41570363  0.50730704  1
  Na  Na31  1  0.35976075  0.41727532  0.75679184  1
  Na  Na32  1  0.36051301  0.74919520  0.00563091  1
  Na  Na33  1  0.36036604  0.75070514  0.25589339  1
  Na  Na34  1  0.36019510  0.74974107  0.50779814  1
  Na  Na35  1  0.36007436  0.74896211  0.75753962  1
  Na  Na36  1  0.85960377  0.08201401  0.00704815  1
  Na  Na37  1  0.85974382  0.08383960  0.25533661  1
  Na  Na38  1  0.85959233  0.08340055  0.50570406  1
  Na  Na39  1  0.85941679  0.08235371  0.75672924  1
  Na  Na40  1  0.85930491  0.41582971  0.00643353  1
  Na  Na41  1  0.85958105  0.41852651  0.25635199  1
  Na  Na42  1  0.85958443  0.41895162  0.50626778  1
  Na  Na43  1  0.85940699  0.41753544  0.75592649  1
  Na  Na44  1  0.85968393  0.75052128  0.00662021  1
  Na  Na45  1  0.85920218  0.75078792  0.25548374  1
  Na  Na46  1  0.85943942  0.74981603  0.50665292  1
  Na  Na47  1  0.85947595  0.74976295  0.75647706  1
  Na  Na48  1  0.10877736  0.08309506  0.11807632  1
  Na  Na49  1  0.10963035  0.08391658  0.37064104  1
  Na  Na50  1  0.11002247  0.08268960  0.61875536  1
  Na  Na51  1  0.10919793  0.08300682  0.86956375  1
  Na  Na52  1  0.10918978  0.41763394  0.11834487  1
  Na  Na53  1  0.10944609  0.41725709  0.37031022  1
  Na  Na54  1  0.10970518  0.41697873  0.61971864  1
  Na  Na55  1  0.10952776  0.41704211  0.86848440  1
  Na  Na56  1  0.10962374  0.75103129  0.11764744  1
  Na  Na57  1  0.10910778  0.75110074  0.36906811  1
  Na  Na58  1  0.10909621  0.74866986  0.61993961  1
  Na  Na59  1  0.10977375  0.74919139  0.86938903  1
  Na  Na60  1  0.60929807  0.08409141  0.11742195  1
  Na  Na61  1  0.60960259  0.08220405  0.36828698  1
  Na  Na62  1  0.60973364  0.08238267  0.61845159  1
  Na  Na63  1  0.60940877  0.08171446  0.86790415  1
  Na  Na64  1  0.60910380  0.41642037  0.11766503  1
  Na  Na65  1  0.60956198  0.41739766  0.36930407  1
  Na  Na66  1  0.60931062  0.41795590  0.61772555  1
  Na  Na67  1  0.60995659  0.41641121  0.86827442  1
  Na  Na68  1  0.61006205  0.75068902  0.11770849  1
  Na  Na69  1  0.60941106  0.74940011  0.36916456  1
  Na  Na70  1  0.60892954  0.74971782  0.61822762  1
  Na  Na71  1  0.60943177  0.75074655  0.86799110  1
  Na  Na72  1  0.39086600  0.25005090  0.12966324  1
  Na  Na73  1  0.39116317  0.24994295  0.38165041  1
  Na  Na74  1  0.39128476  0.24921197  0.63189541  1
  Na  Na75  1  0.39126442  0.24966117  0.88170974  1
  Na  Na76  1  0.39102531  0.58312149  0.12990394  1
  Na  Na77  1  0.39110136  0.58301559  0.38286354  1
  Na  Na78  1  0.39023197  0.58327622  0.63216094  1
  Na  Na79  1  0.39079811  0.58280275  0.88217060  1
  Na  Na80  1  0.39068329  0.91641025  0.13041781  1
  Na  Na81  1  0.39087328  0.91551994  0.38152006  1
  Na  Na82  1  0.39109090  0.91662134  0.63230432  1
  Na  Na83  1  0.39055233  0.91606867  0.88135458  1
  Na  Na84  1  0.89036978  0.24989443  0.13058303  1
  Na  Na85  1  0.89083312  0.25126871  0.38076612  1
  Na  Na86  1  0.89064945  0.25039005  0.63100878  1
  Na  Na87  1  0.89052610  0.24957160  0.88244444  1
  Na  Na88  1  0.88997718  0.58483000  0.13121899  1
  Na  Na89  1  0.88947222  0.58444005  0.38168657  1
  Na  Na90  1  0.88963072  0.58317130  0.63126531  1
  Na  Na91  1  0.89023535  0.58349515  0.88103823  1
  Na  Na92  1  0.88996070  0.91675899  0.13035924  1
  Na  Na93  1  0.89014302  0.91881166  0.38103109  1
  Na  Na94  1  0.88985451  0.91610221  0.63144227  1
  Na  Na95  1  0.89000564  0.91606096  0.88293825  1
  Mn  Mn96  1  0.75000166  0.83336007  0.62464826  1
  Mn  Mn97  1  0.00063468  0.16686695  0.24974764  1
  Mn  Mn98  1  -0.00035957  -0.00064075  0.75022276  1
  Mn  Mn99  1  0.24999658  -0.00011933  0.37514044  1
  Mn  Mn100  1  0.49960921  -0.00101206  0.24946945  1
  Mn  Mn101  1  -0.00009832  0.16637771  0.75103622  1
  Mn  Mn102  1  0.50015890  0.33264897  0.74992427  1
  Mn  Mn103  1  0.24958140  0.66555010  0.62659552  1
  Mn  Mn104  1  -0.00032576  0.00008812  0.50038013  1
  Mn  Mn105  1  0.75019945  0.33464056  0.62408295  1
  Mn  Mn106  1  0.75052906  0.33462891  0.37426011  1
  Mn  Mn107  1  0.00029359  0.33491292  0.25069102  1
  Mn  Mn108  1  0.25050306  0.33277087  0.37612656  1
  Mn  Mn109  1  0.49995964  0.16692651  0.24927959  1
  Mn  Mn110  1  -0.00023010  0.50059185  -0.00030648  1
  Mn  Mn111  1  -0.00025555  0.33404509  0.50024699  1
  Mn  Mn112  1  -0.00008155  0.83201028  0.75132017  1
  Mn  Mn113  1  0.24983520  0.16684092  0.87513678  1
  Mn  Mn114  1  0.50033394  0.66699075  0.25045826  1
  Mn  Mn115  1  0.24949112  -0.00130973  0.12527913  1
  Mn  Mn116  1  0.25010283  0.16672481  0.12467838  1
  Mn  Mn117  1  0.25034155  0.49975445  0.37511248  1
  Mn  Mn118  1  0.25033628  0.16604578  0.37547235  1
  Mn  Mn119  1  -0.00013634  0.66651492  0.49975498  1
  Mn  Mn120  1  0.24930083  0.83323797  0.62592047  1
  Mn  Mn121  1  0.00038304  0.33353818  0.75017965  1
  Mn  Mn122  1  0.74930623  -0.00023158  0.12454290  1
  Mn  Mn123  1  0.50031310  0.83353054  -0.00110160  1
  Mn  Mn124  1  0.25014087  0.66668085  0.37526095  1
  Mn  Mn125  1  0.75013871  0.83354775  0.37508343  1
  Mn  Mn126  1  0.74927128  0.50100766  0.12489715  1
  Mn  Mn127  1  -0.00051208  0.83467621  0.24903898  1
  Mn  Mn128  1  0.50032289  0.49918925  0.25029909  1
  Mn  Mn129  1  0.75009968  0.66759484  0.87452540  1
  Mn  Mn130  1  0.25015422  0.50006790  0.12458830  1
  Mn  Mn131  1  -0.00056240  0.66702927  0.25021872  1
  Mn  Mn132  1  0.50049300  0.16644670  0.49959583  1
  Mn  Mn133  1  0.25076758  0.66728700  0.12424931  1
  Mn  Mn134  1  0.75010750  0.16590095  0.87401250  1
  Mn  Mn135  1  0.24987717  0.33369194  0.12472480  1
  Mn  Mn136  1  0.75024103  0.49983237  0.87484805  1
  Mn  Mn137  1  0.25022910  0.33332178  0.62564636  1
  Mn  Mn138  1  0.75011981  0.16635345  0.37460040  1
  Mn  Mn139  1  0.24984503  -0.00079600  0.87542587  1
  Mn  Mn140  1  0.75034752  0.16593249  0.62437786  1
  Mn  Mn141  1  0.74941050  0.33271915  0.12558267  1
  Mn  Mn142  1  0.25017194  0.83330901  0.37587306  1
  Mn  Mn143  1  0.49985956  0.50061719  0.74966536  1
  Fe  Fe144  1  0.50044892  -0.00016556  -0.00085987  1
  Fe  Fe145  1  0.74929548  0.50079691  0.62488402  1
  Fe  Fe146  1  -0.00023805  0.16665670  0.00081462  1
  Fe  Fe147  1  0.75010002  -0.00086404  0.87529371  1
  Fe  Fe148  1  0.74928451  0.83332347  0.87474978  1
  Fe  Fe149  1  0.49973840  0.83294774  0.50068066  1
  Fe  Fe150  1  0.25067817  -0.00015764  0.62579257  1
  Fe  Fe151  1  0.49942314  0.66713330  0.50042750  1
  Fe  Fe152  1  0.74951839  0.00020356  0.37415881  1
  Fe  Fe153  1  0.50028662  0.66660179  0.74972912  1
  Fe  Fe154  1  0.50012162  -0.00044395  0.50014164  1
  Fe  Fe155  1  -0.00017366  0.50099792  0.24954218  1
  Fe  Fe156  1  0.25066097  0.33381800  0.87415646  1
  Fe  Fe157  1  0.74981568  0.16619530  0.12423503  1
  Fe  Fe158  1  0.74992192  -0.00070551  0.62513592  1
  Fe  Fe159  1  -0.00027730  0.16703819  0.50009578  1
  Fe  Fe160  1  0.74949583  0.50161046  0.37511823  1
  Fe  Fe161  1  0.49970308  0.83316896  0.74936928  1
  Fe  Fe162  1  0.50085541  0.16591586  0.75021993  1
  Fe  Fe163  1  0.50062051  0.33321938  0.50032095  1
  Fe  Fe164  1  -0.00005273  0.00053583  0.24990843  1
  Fe  Fe165  1  -0.00052410  0.50003164  0.75029905  1
  Fe  Fe166  1  0.50020776  0.66694000  -0.00049367  1
  Fe  Fe167  1  0.74982210  0.66706166  0.37503869  1
  Fe  Fe168  1  0.50053362  0.83279418  0.24994177  1
  Fe  Fe169  1  0.25018497  0.49984091  0.62611057  1
  Fe  Fe170  1  -0.00005862  0.83307242  0.00016214  1
  Fe  Fe171  1  0.25033810  0.83266972  0.12459702  1
  Fe  Fe172  1  0.50015543  0.16617851  -0.00057997  1
  Fe  Fe173  1  -0.00045876  0.33407899  0.00017847  1
  Fe  Fe174  1  0.49967728  0.49999477  0.50008098  1
  Fe  Fe175  1  0.25067644  0.16655412  0.62599899  1
  Fe  Fe176  1  -0.00079773  0.66627651  0.74997207  1
  Fe  Fe177  1  0.74954797  0.66663339  0.62500438  1
  Fe  Fe178  1  -0.00047775  0.83351399  0.50002786  1
  Fe  Fe179  1  0.25024005  0.49993442  0.87499447  1
  Fe  Fe180  1  0.74960766  0.66736891  0.12477759  1
  Fe  Fe181  1  0.25057135  0.83289733  0.87481414  1
  Fe  Fe182  1  -0.00039570  0.50054004  0.50050655  1
  Fe  Fe183  1  0.74988539  0.33305415  0.87471315  1
  Fe  Fe184  1  0.50064202  0.49994326  -0.00013091  1
  Fe  Fe185  1  0.50010629  0.33323366  0.24962619  1
  Fe  Fe186  1  0.00001836  -0.00014601  0.00013120  1
  Fe  Fe187  1  0.25033565  0.66647220  0.87513179  1
  Fe  Fe188  1  0.50011696  -0.00034774  0.74960170  1
  Fe  Fe189  1  0.00020633  0.66636602  0.00005664  1
  Fe  Fe190  1  0.50070014  0.33286019  -0.00052261  1
  Fe  Fe191  1  0.74986908  0.83352401  0.12477056  1
  P  P192  1  0.04139848  0.25090845  0.10162714  1
  P  P193  1  0.04287427  0.25047457  0.35379708  1
  P  P194  1  0.04235903  0.24906231  0.60272854  1
  P  P195  1  0.04253824  0.25014935  0.85464305  1
  P  P196  1  0.04256725  0.58452055  0.10251408  1
  P  P197  1  0.04176246  0.58238013  0.35284577  1
  P  P198  1  0.04150485  0.58217442  0.60358786  1
  P  P199  1  0.04083182  0.58375006  0.85198134  1
  P  P200  1  0.04117322  0.91713932  0.10165738  1
  P  P201  1  0.04179259  0.91836875  0.35263299  1
  P  P202  1  0.04198558  0.91479292  0.60281693  1
  P  P203  1  0.04222680  0.91632170  0.85459791  1
  P  P204  1  0.54166766  0.25000969  0.10117687  1
  P  P205  1  0.54236910  0.25142762  0.35241677  1
  P  P206  1  0.54292144  0.25049410  0.60251246  1
  P  P207  1  0.54244308  0.24800522  0.85301142  1
  P  P208  1  0.54154894  0.58377219  0.10124572  1
  P  P209  1  0.54224926  0.58317756  0.35415076  1
  P  P210  1  0.54065671  0.58405186  0.60165398  1
  P  P211  1  0.54214686  0.58461978  0.85291892  1
  P  P212  1  0.54249548  0.91762345  0.10175866  1
  P  P213  1  0.54205391  0.91461524  0.35297227  1
  P  P214  1  0.54110862  0.91611549  0.60218750  1
  P  P215  1  0.54100793  0.91661088  0.85099063  1
  P  P216  1  0.45765265  0.08314829  0.14543793  1
  P  P217  1  0.45797555  0.08159375  0.39766047  1
  P  P218  1  0.45935945  0.08303273  0.64807222  1
  P  P219  1  0.45889922  0.08282657  0.89733957  1
  P  P220  1  0.45852359  0.41528740  0.14646700  1
  P  P221  1  0.45878958  0.41591564  0.39854846  1
  P  P222  1  0.45764024  0.41650078  0.64634964  1
  P  P223  1  0.45949154  0.41637978  0.89834583  1
  P  P224  1  0.45853148  0.75091615  0.14706069  1
  P  P225  1  0.45845251  0.75024083  0.39867078  1
  P  P226  1  0.45849064  0.74968391  0.64791980  1
  P  P227  1  0.45835525  0.74858810  0.89627381  1
  P  P228  1  0.95804134  0.08221427  0.14663151  1
  P  P229  1  0.95761788  0.08486408  0.39733481  1
  P  P230  1  0.95709700  0.08344127  0.64685649  1
  P  P231  1  0.95827028  0.08309319  0.89919259  1
  P  P232  1  0.95751219  0.41837650  0.14717736  1
  P  P233  1  0.95744223  0.41919112  0.39746384  1
  P  P234  1  0.95778972  0.41811704  0.64749004  1
  P  P235  1  0.95738850  0.41610312  0.89727169  1
  P  P236  1  0.95743473  0.75029494  0.14578236  1
  P  P237  1  0.95726536  0.75183937  0.39750746  1
  P  P238  1  0.95726077  0.74872140  0.64749042  1
  P  P239  1  0.95862250  0.74909805  0.89856437  1
  P  P240  1  0.20662075  0.08321152  0.22800232  1
  P  P241  1  0.20791248  0.08294210  0.47988595  1
  P  P242  1  0.20881292  0.08324031  0.72707256  1
  P  P243  1  0.20710897  0.08287311  0.97817495  1
  P  P244  1  0.20707143  0.41693500  0.22822069  1
  P  P245  1  0.20762289  0.41669247  0.47945701  1
  P  P246  1  0.20809825  0.41808262  0.72880608  1
  P  P247  1  0.20853965  0.41675698  0.97597748  1
  P  P248  1  0.20743904  0.75109628  0.22715560  1
  P  P249  1  0.20690734  0.74952274  0.47891589  1
  P  P250  1  0.20714997  0.74952859  0.72988699  1
  P  P251  1  0.20931973  0.75021609  0.97658266  1
  P  P252  1  0.70725372  0.08444517  0.22705112  1
  P  P253  1  0.70776613  0.08149229  0.47743517  1
  P  P254  1  0.70805667  0.08132280  0.72753307  1
  P  P255  1  0.70787220  0.08184461  0.97706215  1
  P  P256  1  0.70691096  0.41799554  0.22837603  1
  P  P257  1  0.70817782  0.41918302  0.47740200  1
  P  P258  1  0.70734914  0.41796998  0.72731016  1
  P  P259  1  0.70770219  0.41517858  0.97722471  1
  P  P260  1  0.70838990  0.75029509  0.22668160  1
  P  P261  1  0.70795362  0.74863760  0.47774795  1
  P  P262  1  0.70746331  0.74941564  0.72717791  1
  P  P263  1  0.70768279  0.75151034  0.97782873  1
  P  P264  1  0.29265678  0.25074812  0.02089015  1
  P  P265  1  0.29337775  0.24979351  0.27210442  1
  P  P266  1  0.29307496  0.24839165  0.52356189  1
  P  P267  1  0.29264349  0.25077090  0.77236471  1
  P  P268  1  0.29290766  0.58316256  0.02048594  1
  P  P269  1  0.29367626  0.58371467  0.27194072  1
  P  P270  1  0.29242139  0.58182719  0.52354311  1
  P  P271  1  0.29154841  0.58280377  0.77379206  1
  P  P272  1  0.29238735  0.91438623  0.02201546  1
  P  P273  1  0.29293410  0.91589869  0.27164414  1
  P  P274  1  0.29252564  0.91738000  0.52361818  1
  P  P275  1  0.29234341  0.91572515  0.77244943  1
  P  P276  1  0.79161092  0.24855855  0.02187675  1
  P  P277  1  0.79291790  0.24993078  0.27120733  1
  P  P278  1  0.79297989  0.25045228  0.52146235  1
  P  P279  1  0.79246564  0.25131433  0.77224691  1
  P  P280  1  0.79179082  0.58504098  0.02254177  1
  P  P281  1  0.79121628  0.58471896  0.27294293  1
  P  P282  1  0.79069305  0.58383433  0.52275224  1
  P  P283  1  0.79221630  0.58365061  0.77100745  1
  P  P284  1  0.79158337  0.91523876  0.02170053  1
  P  P285  1  0.79190006  0.91786290  0.27195456  1
  P  P286  1  0.79198503  0.91804578  0.52204812  1
  P  P287  1  0.79137732  0.91626818  0.77330045  1
  O  O288  1  0.03683353  0.25078735  0.18165939  1
  O  O289  1  0.03726590  0.25007490  0.43370048  1
  O  O290  1  0.03724418  0.24929524  0.68273734  1
  O  O291  1  0.03709558  0.25050481  0.93453102  1
  O  O292  1  0.03743931  0.58393450  0.18244084  1
  O  O293  1  0.03635904  0.58240752  0.43280161  1
  O  O294  1  0.03587010  0.58249233  0.68344515  1
  O  O295  1  0.03604152  0.58407179  0.93197155  1
  O  O296  1  0.03646211  0.91764379  0.18164827  1
  O  O297  1  0.03645888  0.91754931  0.43255591  1
  O  O298  1  0.03687171  0.91485302  0.68281298  1
  O  O299  1  0.03701630  0.91668606  0.93448855  1
  O  O300  1  0.53662206  0.25028466  0.18116331  1
  O  O301  1  0.53725075  0.25124932  0.43238554  1
  O  O302  1  0.53765428  0.24974179  0.68244091  1
  O  O303  1  0.53688182  0.24811584  0.93288001  1
  O  O304  1  0.53673052  0.58335175  0.18122926  1
  O  O305  1  0.53681644  0.58319828  0.43397716  1
  O  O306  1  0.53611921  0.58430259  0.68166515  1
  O  O307  1  0.53688895  0.58434987  0.93281519  1
  O  O308  1  0.53737101  0.91682780  0.18163167  1
  O  O309  1  0.53663690  0.91469461  0.43281510  1
  O  O310  1  0.53604345  0.91631111  0.68204682  1
  O  O311  1  0.53661290  0.91699429  0.93095220  1
  O  O312  1  0.46339424  0.08314360  0.06555961  1
  O  O313  1  0.46265488  0.08191523  0.31767276  1
  O  O314  1  0.46424250  0.08241328  0.56813943  1
  O  O315  1  0.46407956  0.08320561  0.81743022  1
  O  O316  1  0.46421937  0.41568439  0.06662688  1
  O  O317  1  0.46357516  0.41587512  0.31852805  1
  O  O318  1  0.46288404  0.41644116  0.56648211  1
  O  O319  1  0.46379816  0.41669256  0.81834576  1
  O  O320  1  0.46371290  0.75038309  0.06712402  1
  O  O321  1  0.46355885  0.75040204  0.31872312  1
  O  O322  1  0.46328038  0.75017534  0.56799463  1
  O  O323  1  0.46357134  0.74847404  0.81642545  1
  O  O324  1  0.96365061  0.08227165  0.06675952  1
  O  O325  1  0.96308039  0.08425444  0.31741442  1
  O  O326  1  0.96219360  0.08386787  0.56690560  1
  O  O327  1  0.96270119  0.08329828  0.81915186  1
  O  O328  1  0.96284885  0.41739578  0.06720596  1
  O  O329  1  0.96291661  0.41943308  0.31751941  1
  O  O330  1  0.96290506  0.41813264  0.56754042  1
  O  O331  1  0.96279165  0.41667323  0.81735183  1
  O  O332  1  0.96280058  0.74978410  0.06591238  1
  O  O333  1  0.96234074  0.75164600  0.31754629  1
  O  O334  1  0.96247333  0.74943462  0.56757720  1
  O  O335  1  0.96336199  0.74870208  0.81856588  1
  O  O336  1  0.21200453  0.08274991  0.05811195  1
  O  O337  1  0.21177116  0.08313884  0.30803886  1
  O  O338  1  0.21336189  0.08288325  0.55984059  1
  O  O339  1  0.21349179  0.08301917  0.80711346  1
  O  O340  1  0.21307906  0.41679073  0.05602360  1
  O  O341  1  0.21201309  0.41674688  0.30823271  1
  O  O342  1  0.21289136  0.41718514  0.55945113  1
  O  O343  1  0.21382748  0.41776095  0.80870474  1
  O  O344  1  0.21416184  0.75055144  0.05657473  1
  O  O345  1  0.21210663  0.75070153  0.30720833  1
  O  O346  1  0.21169579  0.74936606  0.55893498  1
  O  O347  1  0.21274371  0.74974580  0.80977344  1
  O  O348  1  0.71285366  0.08264161  0.05701290  1
  O  O349  1  0.71243828  0.08396535  0.30700997  1
  O  O350  1  0.71324994  0.08123417  0.55740044  1
  O  O351  1  0.71354522  0.08124665  0.80748267  1
  O  O352  1  0.71257326  0.41542464  0.05720947  1
  O  O353  1  0.71228350  0.41874613  0.30832089  1
  O  O354  1  0.71351223  0.41934789  0.55736782  1
  O  O355  1  0.71263371  0.41705517  0.80727066  1
  O  O356  1  0.71298268  0.75141954  0.05772433  1
  O  O357  1  0.71367624  0.74977017  0.30665338  1
  O  O358  1  0.71319083  0.74861869  0.55766651  1
  O  O359  1  0.71250195  0.75028227  0.80712894  1
  O  O360  1  0.28825019  0.24999293  0.19208785  1
  O  O361  1  0.28815905  0.24866165  0.44355284  1
  O  O362  1  0.28728577  0.25001822  0.69241479  1
  O  O363  1  0.28756480  0.25127719  0.94090305  1
  O  O364  1  0.28879705  0.58381007  0.19188064  1
  O  O365  1  0.28756236  0.58237911  0.44354735  1
  O  O366  1  0.28671493  0.58240313  0.69380168  1
  O  O367  1  0.28754079  0.58305269  0.94057269  1
  O  O368  1  0.28775072  0.91511888  0.19164624  1
  O  O369  1  0.28778124  0.91728791  0.44358656  1
  O  O370  1  0.28684577  0.91672635  0.69253856  1
  O  O371  1  0.28723026  0.91421116  0.94202113  1
  O  O372  1  0.78747643  0.24925692  0.19122849  1
  O  O373  1  0.78784445  0.25035492  0.44150516  1
  O  O374  1  0.78740514  0.25106846  0.69227818  1
  O  O375  1  0.78633803  0.24921657  0.94189909  1
  O  O376  1  0.78608098  0.58508643  0.19297510  1
  O  O377  1  0.78556857  0.58380184  0.44278752  1
  O  O378  1  0.78679308  0.58359801  0.69109311  1
  O  O379  1  0.78703260  0.58463520  0.94257154  1
  O  O380  1  0.78654059  0.91710102  0.19202707  1
  O  O381  1  0.78675521  0.91810787  0.44211002  1
  O  O382  1  0.78640065  0.91675459  0.69328726  1
  O  O383  1  0.78633704  0.91547484  0.94179244  1
  O  O384  1  0.22826835  0.25039887  0.05604018  1
  O  O385  1  0.22890246  0.24978876  0.30702386  1
  O  O386  1  0.22870210  0.24821477  0.55883762  1
  O  O387  1  0.22837630  0.25145642  0.80794060  1
  O  O388  1  0.22869432  0.58357928  0.05618285  1
  O  O389  1  0.22906324  0.58347990  0.30654649  1
  O  O390  1  0.22800778  0.58129788  0.55881104  1
  O  O391  1  0.22736561  0.58243486  0.80946922  1
  O  O392  1  0.22808115  0.91406356  0.05762660  1
  O  O393  1  0.22851666  0.91630149  0.30678433  1
  O  O394  1  0.22806964  0.91782634  0.55859285  1
  O  O395  1  0.22814283  0.91486222  0.80823100  1
  O  O396  1  0.72740857  0.24805828  0.05771132  1
  O  O397  1  0.72861828  0.25039698  0.30647650  1
  O  O398  1  0.72860769  0.25040067  0.55650188  1
  O  O399  1  0.72809789  0.25097334  0.80756662  1
  O  O400  1  0.72737093  0.58535763  0.05765473  1
  O  O401  1  0.72709505  0.58475280  0.30904100  1
  O  O402  1  0.72667807  0.58388583  0.55922880  1
  O  O403  1  0.72806937  0.58358489  0.80675086  1
  O  O404  1  0.72747885  0.91499060  0.05777115  1
  O  O405  1  0.72774168  0.91780157  0.30790655  1
  O  O406  1  0.72773222  0.91802997  0.55781216  1
  O  O407  1  0.72713440  0.91623750  0.80909764  1
  O  O408  1  0.27109643  0.08284436  0.19311235  1
  O  O409  1  0.27213454  0.08260228  0.44415821  1
  O  O410  1  0.27315718  0.08334788  0.69170882  1
  O  O411  1  0.27159255  0.08298141  0.94340332  1
  O  O412  1  0.27164184  0.41685684  0.19355437  1
  O  O413  1  0.27198082  0.41651027  0.44416207  1
  O  O414  1  0.27219433  0.41814206  0.69265565  1
  O  O415  1  0.27291206  0.41703688  0.94064991  1
  O  O416  1  0.27202692  0.75159167  0.19222444  1
  O  O417  1  0.27152462  0.74962053  0.44433459  1
  O  O418  1  0.27133819  0.74955906  0.69419731  1
  O  O419  1  0.27340839  0.75023028  0.94064440  1
  O  O420  1  0.77151462  0.08462681  0.19137426  1
  O  O421  1  0.77194722  0.08139312  0.44154168  1
  O  O422  1  0.77224718  0.08118655  0.69170527  1
  O  O423  1  0.77216083  0.08169958  0.94153329  1
  O  O424  1  0.77120571  0.41755311  0.19307713  1
  O  O425  1  0.77228094  0.41931930  0.44143716  1
  O  O426  1  0.77161340  0.41895528  0.69167741  1
  O  O427  1  0.77205676  0.41508348  0.94190201  1
  O  O428  1  0.77241686  0.75042987  0.19038051  1
  O  O429  1  0.77211810  0.74874457  0.44187308  1
  O  O430  1  0.77174216  0.74885054  0.69166040  1
  O  O431  1  0.77185079  0.75223324  0.94180549  1
  O  O432  1  0.02212692  0.08179174  0.18301995  1
  O  O433  1  0.02171173  0.08514721  0.43365155  1
  O  O434  1  0.02152001  0.08299291  0.68212672  1
  O  O435  1  0.02256692  0.08279858  0.93463177  1
  O  O436  1  0.02180829  0.41921973  0.18299427  1
  O  O437  1  0.02161174  0.41900023  0.43355855  1
  O  O438  1  0.02203045  0.41828324  0.68333004  1
  O  O439  1  0.02163520  0.41577321  0.93316164  1
  O  O440  1  0.02156499  0.75045132  0.18172717  1
  O  O441  1  0.02158015  0.75174497  0.43313175  1
  O  O442  1  0.02147684  0.74794945  0.68347440  1
  O  O443  1  0.02281222  0.74875963  0.93445264  1
  O  O444  1  0.52169579  0.08302678  0.18170507  1
  O  O445  1  0.52242087  0.08179325  0.43287554  1
  O  O446  1  0.52346335  0.08344727  0.68418459  1
  O  O447  1  0.52293364  0.08239073  0.93381785  1
  O  O448  1  0.52255019  0.41485679  0.18305926  1
  O  O449  1  0.52293239  0.41589163  0.43459605  1
  O  O450  1  0.52186693  0.41666477  0.68210755  1
  O  O451  1  0.52372413  0.41594839  0.93391715  1
  O  O452  1  0.52277625  0.75105951  0.18297358  1
  O  O453  1  0.52258856  0.75033805  0.43483558  1
  O  O454  1  0.52264458  0.74932440  0.68398387  1
  O  O455  1  0.52245717  0.74856400  0.93253067  1
  O  O456  1  0.47762150  0.25017235  0.06492799  1
  O  O457  1  0.47811132  0.25137189  0.31654147  1
  O  O458  1  0.47867828  0.25094001  0.56663825  1
  O  O459  1  0.47835977  0.24770277  0.81663944  1
  O  O460  1  0.47744517  0.58403111  0.06525081  1
  O  O461  1  0.47817396  0.58321698  0.31802062  1
  O  O462  1  0.47652079  0.58407566  0.56585388  1
  O  O463  1  0.47795810  0.58515715  0.81679946  1
  O  O464  1  0.47826234  0.91817002  0.06580899  1
  O  O465  1  0.47795280  0.91422780  0.31657147  1
  O  O466  1  0.47709663  0.91591447  0.56577101  1
  O  O467  1  0.47682547  0.91660168  0.81535442  1
  O  O468  1  0.97711651  0.25134348  0.06602784  1
  O  O469  1  0.97871408  0.25062787  0.31794286  1
  O  O470  1  0.97804633  0.24899408  0.56708412  1
  O  O471  1  0.97831357  0.25032166  0.81883723  1
  O  O472  1  0.97814902  0.58492004  0.06701568  1
  O  O473  1  0.97749926  0.58217403  0.31690065  1
  O  O474  1  0.97745766  0.58214383  0.56707102  1
  O  O475  1  0.97667972  0.58394688  0.81601057  1
  O  O476  1  0.97703097  0.91731055  0.06570445  1
  O  O477  1  0.97756513  0.91890789  0.31663426  1
  O  O478  1  0.97763556  0.91511892  0.56729890  1
  O  O479  1  0.97794188  0.91618357  0.81891627  1
  O  O480  1  0.07248569  0.31439777  0.07357205  1
  O  O481  1  0.07383736  0.31424383  0.32606086  1
  O  O482  1  0.07331669  0.31289919  0.57531581  1
  O  O483  1  0.07397118  0.31318111  0.82575792  1
  O  O484  1  0.07336643  0.64803438  0.07401423  1
  O  O485  1  0.07248255  0.64648084  0.32543293  1
  O  O486  1  0.07278182  0.64566174  0.57543259  1
  O  O487  1  0.07204886  0.64697388  0.82348349  1
  O  O488  1  0.07273066  0.98015381  0.07320445  1
  O  O489  1  0.07253905  0.98207102  0.32454157  1
  O  O490  1  0.07327454  0.97834222  0.57527241  1
  O  O491  1  0.07335911  0.97959569  0.82575766  1
  O  O492  1  0.57306250  0.31325885  0.07281804  1
  O  O493  1  0.57314823  0.31480187  0.32372246  1
  O  O494  1  0.57374331  0.31416008  0.57442592  1
  O  O495  1  0.57347032  0.31169618  0.82510708  1
  O  O496  1  0.57261743  0.64737547  0.07345583  1
  O  O497  1  0.57352780  0.64655375  0.32577834  1
  O  O498  1  0.57177484  0.64746728  0.57333656  1
  O  O499  1  0.57344702  0.64771466  0.82409054  1
  O  O500  1  0.57336919  0.98118231  0.07349652  1
  O  O501  1  0.57306571  0.97824010  0.32487324  1
  O  O502  1  0.57158824  0.97989091  0.57338514  1
  O  O503  1  0.57215864  0.97988632  0.82236381  1
  O  O504  1  0.42619666  0.01987956  0.17363579  1
  O  O505  1  0.42761480  0.01793461  0.42634120  1
  O  O506  1  0.42867256  0.01944780  0.67683432  1
  O  O507  1  0.42771093  0.01925269  0.92541149  1
  O  O508  1  0.42744403  0.35197175  0.17511415  1
  O  O509  1  0.42769595  0.35255193  0.42690815  1
  O  O510  1  0.42659384  0.35311646  0.67491405  1
  O  O511  1  0.42832260  0.35282749  0.92608108  1
  O  O512  1  0.42723396  0.68756501  0.17524233  1
  O  O513  1  0.42788486  0.68628241  0.42678568  1
  O  O514  1  0.42729449  0.68624984  0.67616588  1
  O  O515  1  0.42742898  0.68542691  0.92547232  1
  O  O516  1  0.92685873  0.01900037  0.17539851  1
  O  O517  1  0.92635869  0.02140158  0.42527797  1
  O  O518  1  0.92613308  0.01975478  0.67490498  1
  O  O519  1  0.92714141  0.01953045  0.92698538  1
  O  O520  1  0.92661519  0.35492122  0.17569675  1
  O  O521  1  0.92641665  0.35526654  0.42476860  1
  O  O522  1  0.92692919  0.35420030  0.67503071  1
  O  O523  1  0.92655955  0.35262592  0.92571699  1
  O  O524  1  0.92618448  0.68716166  0.17471083  1
  O  O525  1  0.92622041  0.68817268  0.42520457  1
  O  O526  1  0.92629346  0.68521479  0.67569355  1
  O  O527  1  0.92712165  0.68601056  0.92696785  1
  O  O528  1  0.17551338  0.01978676  0.19984208  1
  O  O529  1  0.17633653  0.01982183  0.45131913  1
  O  O530  1  0.17818030  0.01942829  0.69892940  1
  O  O531  1  0.17622998  0.01933311  0.94995714  1
  O  O532  1  0.17597728  0.35359131  0.19977633  1
  O  O533  1  0.17686883  0.35276608  0.45177069  1
  O  O534  1  0.17676448  0.35455673  0.70084670  1
  O  O535  1  0.17809620  0.35299279  0.94757226  1
  O  O536  1  0.17688529  0.68731910  0.19888007  1
  O  O537  1  0.17605271  0.68605781  0.45047582  1
  O  O538  1  0.17600988  0.68601899  0.70169323  1
  O  O539  1  0.17890776  0.68607365  0.94860404  1
  O  O540  1  0.67597928  0.02094059  0.19915930  1
  O  O541  1  0.67667217  0.01837531  0.44840561  1
  O  O542  1  0.67685995  0.01811423  0.69897746  1
  O  O543  1  0.67742020  0.01794169  0.94890984  1
  O  O544  1  0.67574804  0.35436532  0.20066644  1
  O  O545  1  0.67732541  0.35520840  0.44996161  1
  O  O546  1  0.67650310  0.35442583  0.69884467  1
  O  O547  1  0.67716236  0.35160829  0.94856760  1
  O  O548  1  0.67738537  0.68684157  0.19808649  1
  O  O549  1  0.67694499  0.68545567  0.44892551  1
  O  O550  1  0.67651958  0.68587317  0.69899330  1
  O  O551  1  0.67695158  0.68773072  0.94968904  1
  O  O552  1  0.32374098  0.31399807  0.04955080  1
  O  O553  1  0.32431855  0.31320707  0.30062435  1
  O  O554  1  0.32398155  0.31208311  0.55139190  1
  O  O555  1  0.32355930  0.31447158  0.80035961  1
  O  O556  1  0.32434919  0.64642100  0.04882123  1
  O  O557  1  0.32432741  0.64733253  0.30038543  1
  O  O558  1  0.32307664  0.64558979  0.55173681  1
  O  O559  1  0.32159848  0.64707744  0.80187955  1
  O  O560  1  0.32294066  0.97847173  0.04960370  1
  O  O561  1  0.32402200  0.97960067  0.29932248  1
  O  O562  1  0.32343784  0.98070298  0.55244901  1
  O  O563  1  0.32328795  0.97926677  0.80073958  1
  O  O564  1  0.82274666  0.31197323  0.05016566  1
  O  O565  1  0.82404885  0.31367234  0.29882826  1
  O  O566  1  0.82404356  0.31402863  0.54929324  1
  O  O567  1  0.82267801  0.31509478  0.80087166  1
  O  O568  1  0.82246222  0.64857748  0.05102235  1
  O  O569  1  0.82239952  0.64807451  0.30147007  1
  O  O570  1  0.82167083  0.64748135  0.55101452  1
  O  O571  1  0.82338619  0.64707941  0.79934791  1
  O  O572  1  0.82265339  0.97885286  0.04979227  1
  O  O573  1  0.82221911  0.98184460  0.29999048  1
  O  O574  1  0.82312006  0.98107069  0.55104105  1
  O  O575  1  0.82243621  0.97960804  0.80201371  1
  O  O576  1  0.42645138  0.14658572  0.17372323  1
  O  O577  1  0.42687784  0.14514047  0.42564337  1
  O  O578  1  0.42844283  0.14671620  0.67601941  1
  O  O579  1  0.42821137  0.14645686  0.92609805  1
  O  O580  1  0.42749933  0.47896067  0.17459834  1
  O  O581  1  0.42836705  0.47994918  0.42676266  1
  O  O582  1  0.42641121  0.47981766  0.67491545  1
  O  O583  1  0.42932359  0.48036002  0.92683969  1
  O  O584  1  0.42809184  0.81470110  0.17539593  1
  O  O585  1  0.42713780  0.81340272  0.42718952  1
  O  O586  1  0.42804934  0.81346183  0.67681460  1
  O  O587  1  0.42731863  0.81235243  0.92404109  1
  O  O588  1  0.92716012  0.14605991  0.17435194  1
  O  O589  1  0.92686219  0.14853377  0.42550620  1
  O  O590  1  0.92601365  0.14664879  0.67552204  1
  O  O591  1  0.92801217  0.14701048  0.92774742  1
  O  O592  1  0.92655085  0.48207517  0.17496114  1
  O  O593  1  0.92641440  0.48232005  0.42638978  1
  O  O594  1  0.92672973  0.48130565  0.67628366  1
  O  O595  1  0.92616770  0.47960749  0.92521938  1
  O  O596  1  0.92613626  0.81379794  0.17370823  1
  O  O597  1  0.92666471  0.81545504  0.42588949  1
  O  O598  1  0.92633425  0.81223194  0.67591530  1
  O  O599  1  0.92862687  0.81343445  0.92657640  1
  O  O600  1  0.07152118  0.18675296  0.07347932  1
  O  O601  1  0.07428210  0.18737157  0.32530941  1
  O  O602  1  0.07304184  0.18553300  0.57439107  1
  O  O603  1  0.07353715  0.18650158  0.82653960  1
  O  O604  1  0.07362581  0.52114349  0.07399182  1
  O  O605  1  0.07296338  0.51932779  0.32410516  1
  O  O606  1  0.07251473  0.51879757  0.57504977  1
  O  O607  1  0.07110781  0.51955944  0.82413111  1
  O  O608  1  0.07124755  0.85284593  0.07356094  1
  O  O609  1  0.07288638  0.85492727  0.32432191  1
  O  O610  1  0.07238024  0.85111866  0.57426553  1
  O  O611  1  0.07336747  0.85283986  0.82649875  1
  O  O612  1  0.57208568  0.18598918  0.07310699  1
  O  O613  1  0.57330570  0.18759868  0.32462590  1
  O  O614  1  0.57399985  0.18705439  0.57419090  1
  O  O615  1  0.57351095  0.18469320  0.82428753  1
  O  O616  1  0.57199934  0.51985928  0.07289460  1
  O  O617  1  0.57342579  0.51988432  0.32556535  1
  O  O618  1  0.57101600  0.52002688  0.57345028  1
  O  O619  1  0.57287506  0.52080317  0.82472828  1
  O  O620  1  0.57343367  0.85415081  0.07332755  1
  O  O621  1  0.57306589  0.85128089  0.32405348  1
  O  O622  1  0.57243696  0.85266628  0.57404753  1
  O  O623  1  0.57137838  0.85263545  0.82266318  1
  O  O624  1  0.32363246  0.18702147  0.04868906  1
  O  O625  1  0.32437451  0.18621624  0.30009986  1
  O  O626  1  0.32386988  0.18492074  0.55209079  1
  O  O627  1  0.32365955  0.18725395  0.80056158  1
  O  O628  1  0.32386490  0.51967924  0.04896671  1
  O  O629  1  0.32478403  0.52032272  0.30019065  1
  O  O630  1  0.32333872  0.51839234  0.55190324  1
  O  O631  1  0.32325920  0.51977188  0.80216081  1
  O  O632  1  0.32362325  0.85127902  0.05078032  1
  O  O633  1  0.32396422  0.85275404  0.30072540  1
  O  O634  1  0.32324540  0.85354936  0.55145058  1
  O  O635  1  0.32344871  0.85215858  0.80034377  1
  O  O636  1  0.82231290  0.18477585  0.04995782  1
  O  O637  1  0.82417113  0.18678504  0.29982455  1
  O  O638  1  0.82388441  0.18696238  0.54978793  1
  O  O639  1  0.82388497  0.18780539  0.79996945  1
  O  O640  1  0.82263113  0.52126732  0.05043045  1
  O  O641  1  0.82171942  0.52079314  0.30109348  1
  O  O642  1  0.82158607  0.52028329  0.55132388  1
  O  O643  1  0.82354974  0.52044093  0.79964192  1
  O  O644  1  0.82260953  0.85200268  0.05061895  1
  O  O645  1  0.82344136  0.85467085  0.30021043  1
  O  O646  1  0.82273820  0.85406467  0.54979034  1
  O  O647  1  0.82195500  0.85227151  0.80116795  1
  O  O648  1  0.17584836  0.14683169  0.19986782  1
  O  O649  1  0.17699284  0.14648899  0.45142970  1
  O  O650  1  0.17805728  0.14709684  0.69928123  1
  O  O651  1  0.17610740  0.14630983  0.94997257  1
  O  O652  1  0.17632765  0.48049792  0.19981586  1
  O  O653  1  0.17628892  0.47974309  0.45079180  1
  O  O654  1  0.17716826  0.48152007  0.70025340  1
  O  O655  1  0.17754591  0.48043488  0.94803379  1
  O  O656  1  0.17654980  0.81445611  0.19847504  1
  O  O657  1  0.17607881  0.81312271  0.45074234  1
  O  O658  1  0.17570951  0.81270261  0.70134297  1
  O  O659  1  0.17804408  0.81344254  0.94812308  1
  O  O660  1  0.67665451  0.14806087  0.19842239  1
  O  O661  1  0.67686099  0.14550471  0.45011523  1
  O  O662  1  0.67730143  0.14529811  0.69986682  1
  O  O663  1  0.67646622  0.14494598  0.94853134  1
  O  O664  1  0.67578352  0.48120156  0.19952555  1
  O  O665  1  0.67699495  0.48243841  0.44892310  1
  O  O666  1  0.67620350  0.48150144  0.69921826  1
  O  O667  1  0.67679174  0.47898555  0.94959053  1
  O  O668  1  0.67768199  0.81422118  0.19888571  1
  O  O669  1  0.67703239  0.81247888  0.45004183  1
  O  O670  1  0.67655092  0.81291201  0.69868791  1
  O  O671  1  0.67631849  0.81456615  0.94876582  1
