# generated using pymatgen
data_Na2MnFe(PO4)2
_symmetry_space_group_name_H-M   'P 1'
_cell_length_a   22.34073611
_cell_length_b   20.09565385
_cell_length_c   19.45097442
_cell_angle_alpha   89.88546522
_cell_angle_beta   90.07278496
_cell_angle_gamma   89.99624785
_symmetry_Int_Tables_number   1
_chemical_formula_structural   Na2MnFe(PO4)2
_chemical_formula_sum   'Na96 Mn48 Fe48 P96 O384'
_cell_volume   8732.52350895
_cell_formula_units_Z   48
loop_
 _symmetry_equiv_pos_site_id
 _symmetry_equiv_pos_as_xyz
  1  'x, y, z'
loop_
 _atom_site_type_symbol
 _atom_site_label
 _atom_site_symmetry_multiplicity
 _atom_site_fract_x
 _atom_site_fract_y
 _atom_site_fract_z
 _atom_site_occupancy
  Na  Na0  1  0.14042058  0.25053747  0.24472400  1
  Na  Na1  1  0.14072262  0.25062287  0.49314107  1
  Na  Na2  1  0.14137559  0.24965234  0.74221936  1
  Na  Na3  1  0.14099495  0.25041896  0.99311284  1
  Na  Na4  1  0.14049715  0.58280477  0.24460054  1
  Na  Na5  1  0.14087307  0.58214665  0.49423245  1
  Na  Na6  1  0.14055438  0.58233597  0.74351004  1
  Na  Na7  1  0.14077767  0.58376268  0.99301168  1
  Na  Na8  1  0.14030985  0.91732550  0.24384218  1
  Na  Na9  1  0.14074074  0.91798220  0.49446961  1
  Na  Na10  1  0.14047446  0.91780368  0.74342409  1
  Na  Na11  1  0.14033464  0.91795682  0.99219745  1
  Na  Na12  1  0.63991677  0.25125226  0.24382740  1
  Na  Na13  1  0.63969579  0.25015576  0.49486867  1
  Na  Na14  1  0.63978888  0.25079333  0.74354908  1
  Na  Na15  1  0.63984836  0.25094234  0.99355811  1
  Na  Na16  1  0.63950970  0.58354781  0.24363498  1
  Na  Na17  1  0.63938315  0.58333951  0.49501536  1
  Na  Na18  1  0.63928002  0.58423472  0.74431996  1
  Na  Na19  1  0.63973151  0.58325363  0.99315019  1
  Na  Na20  1  0.63919772  0.91680979  0.24285607  1
  Na  Na21  1  0.63935917  0.91726349  0.49391784  1
  Na  Na22  1  0.63945915  0.91728904  0.74372333  1
  Na  Na23  1  0.63935826  0.91673947  0.99181301  1
  Na  Na24  1  0.36009392  0.08267408  0.00526148  1
  Na  Na25  1  0.36009573  0.08339774  0.25703198  1
  Na  Na26  1  0.35969226  0.08338393  0.50829534  1
  Na  Na27  1  0.35984797  0.08258199  0.75720806  1
  Na  Na28  1  0.36069454  0.41669834  0.00677548  1
  Na  Na29  1  0.35941929  0.41556632  0.25700611  1
  Na  Na30  1  0.35981612  0.41556480  0.50744739  1
  Na  Na31  1  0.36035787  0.41559556  0.75710879  1
  Na  Na32  1  0.35972802  0.75021916  0.00663361  1
  Na  Na33  1  0.36020829  0.74879969  0.25733330  1
  Na  Na34  1  0.35966977  0.74932320  0.50825869  1
  Na  Na35  1  0.35944626  0.75043196  0.75786336  1
  Na  Na36  1  0.85981083  0.08339737  0.00511386  1
  Na  Na37  1  0.86054596  0.08357250  0.25603148  1
  Na  Na38  1  0.86032430  0.08323620  0.50610141  1
  Na  Na39  1  0.86004040  0.08274630  0.75555459  1
  Na  Na40  1  0.86002049  0.41651620  0.00519653  1
  Na  Na41  1  0.85977171  0.41722871  0.25489111  1
  Na  Na42  1  0.85988678  0.41568135  0.50668115  1
  Na  Na43  1  0.86004035  0.41753438  0.75564056  1
  Na  Na44  1  0.85998167  0.74949946  0.00526819  1
  Na  Na45  1  0.85963587  0.74983775  0.25468553  1
  Na  Na46  1  0.85924710  0.74904546  0.50583002  1
  Na  Na47  1  0.85948897  0.75004918  0.75650733  1
  Na  Na48  1  0.10959015  0.08370092  0.11897897  1
  Na  Na49  1  0.11023644  0.08373545  0.36985799  1
  Na  Na50  1  0.11026196  0.08394355  0.61791107  1
  Na  Na51  1  0.11065249  0.08303670  0.86788280  1
  Na  Na52  1  0.11030665  0.41762544  0.11838234  1
  Na  Na53  1  0.11040456  0.41544888  0.36858976  1
  Na  Na54  1  0.11034708  0.41713956  0.61729174  1
  Na  Na55  1  0.11028980  0.41667218  0.86845154  1
  Na  Na56  1  0.10942318  0.75114170  0.11799791  1
  Na  Na57  1  0.10935457  0.75056067  0.37004962  1
  Na  Na58  1  0.10973548  0.75124580  0.61896072  1
  Na  Na59  1  0.10983532  0.75059185  0.86859748  1
  Na  Na60  1  0.60867486  0.08229310  0.11823030  1
  Na  Na61  1  0.60863226  0.08259245  0.36917139  1
  Na  Na62  1  0.60920695  0.08443585  0.61907660  1
  Na  Na63  1  0.60895252  0.08356955  0.86742369  1
  Na  Na64  1  0.60892704  0.41624328  0.11867275  1
  Na  Na65  1  0.60918159  0.41687270  0.36953278  1
  Na  Na66  1  0.60918650  0.41823461  0.61921509  1
  Na  Na67  1  0.60860315  0.41671782  0.86861402  1
  Na  Na68  1  0.60850503  0.74952063  0.11809777  1
  Na  Na69  1  0.60803285  0.75030587  0.36894040  1
  Na  Na70  1  0.60858487  0.75124830  0.62036278  1
  Na  Na71  1  0.60899838  0.75029902  0.86774281  1
  Na  Na72  1  0.39059060  0.24898070  0.13147922  1
  Na  Na73  1  0.39004840  0.24962580  0.38284288  1
  Na  Na74  1  0.39017385  0.25049176  0.63305312  1
  Na  Na75  1  0.39056295  0.24942713  0.88091247  1
  Na  Na76  1  0.39033954  0.58168683  0.13222468  1
  Na  Na77  1  0.39024615  0.58233237  0.38202936  1
  Na  Na78  1  0.39062943  0.58354025  0.63311257  1
  Na  Na79  1  0.39049055  0.58241504  0.88201190  1
  Na  Na80  1  0.39084507  0.91534274  0.13047658  1
  Na  Na81  1  0.39068181  0.91553879  0.38203491  1
  Na  Na82  1  0.39023118  0.91740421  0.63361878  1
  Na  Na83  1  0.38987205  0.91659122  0.88144559  1
  Na  Na84  1  0.89136742  0.24964104  0.12990196  1
  Na  Na85  1  0.89108456  0.24861494  0.38134348  1
  Na  Na86  1  0.89078359  0.24948110  0.63108471  1
  Na  Na87  1  0.89088198  0.24905050  0.88019199  1
  Na  Na88  1  0.89051129  0.58363468  0.12983276  1
  Na  Na89  1  0.89033188  0.58267860  0.38108023  1
  Na  Na90  1  0.89051392  0.58377911  0.63095599  1
  Na  Na91  1  0.89072632  0.58324119  0.88109803  1
  Na  Na92  1  0.89071511  0.91765226  0.12926375  1
  Na  Na93  1  0.89090020  0.91730397  0.38030673  1
  Na  Na94  1  0.89060343  0.91736045  0.63043622  1
  Na  Na95  1  0.89086794  0.91628545  0.88151074  1
  Mn  Mn96  1  0.25016083  0.00043785  0.12486871  1
  Mn  Mn97  1  0.49954222  0.50063710  0.50075411  1
  Mn  Mn98  1  0.74965362  0.49992447  0.37479778  1
  Mn  Mn99  1  0.50026972  0.16594022  0.00016924  1
  Mn  Mn100  1  0.74990836  0.33319475  0.62541443  1
  Mn  Mn101  1  0.74922116  0.00059402  0.87419532  1
  Mn  Mn102  1  0.25036185  0.66637243  0.87508090  1
  Mn  Mn103  1  0.00116796  0.33372255  0.74938249  1
  Mn  Mn104  1  0.00030905  0.49982336  -0.00035004  1
  Mn  Mn105  1  0.74942811  0.83335627  0.37466093  1
  Mn  Mn106  1  0.00109974  0.16589146  0.74999638  1
  Mn  Mn107  1  0.49955575  0.16698755  0.50045078  1
  Mn  Mn108  1  0.74941050  0.50075563  0.87507548  1
  Mn  Mn109  1  0.00107411  0.16637305  -0.00027488  1
  Mn  Mn110  1  0.74953709  0.00036588  0.12380297  1
  Mn  Mn111  1  0.00005054  0.50007762  0.49935934  1
  Mn  Mn112  1  0.74915188  0.66620548  0.12465068  1
  Mn  Mn113  1  0.25033385  0.16702097  0.12510544  1
  Mn  Mn114  1  0.74993783  0.16716053  0.12461947  1
  Mn  Mn115  1  0.74862884  0.66607903  0.62544231  1
  Mn  Mn116  1  0.00037566  0.49977920  0.24967100  1
  Mn  Mn117  1  0.25003419  0.83328358  0.37605045  1
  Mn  Mn118  1  0.74932173  0.83320031  0.12393077  1
  Mn  Mn119  1  0.25009428  0.66593672  0.62608162  1
  Mn  Mn120  1  0.74970066  0.83327435  0.62503542  1
  Mn  Mn121  1  0.74982970  0.33316965  0.87464796  1
  Mn  Mn122  1  0.49956751  0.49901571  0.25083389  1
  Mn  Mn123  1  0.25047266  0.33339179  0.87440912  1
  Mn  Mn124  1  0.25055864  0.33418524  0.12456155  1
  Mn  Mn125  1  0.24950933  0.66527372  0.37673173  1
  Mn  Mn126  1  -0.00010935  0.83408276  0.49949551  1
  Mn  Mn127  1  0.49987355  0.16592159  0.25037466  1
  Mn  Mn128  1  0.49955292  0.66626138  0.00032465  1
  Mn  Mn129  1  0.75006925  0.33357698  0.37517114  1
  Mn  Mn130  1  0.49918170  0.83337531  0.50059009  1
  Mn  Mn131  1  -0.00031233  0.83437002  0.74942705  1
  Mn  Mn132  1  0.74966288  0.00025794  0.37467199  1
  Mn  Mn133  1  0.74962950  0.66626004  0.37490204  1
  Mn  Mn134  1  0.75013422  0.00056880  0.62498950  1
  Mn  Mn135  1  -0.00014065  0.66652418  0.74953937  1
  Mn  Mn136  1  0.74963728  0.16690342  0.37468546  1
  Mn  Mn137  1  0.24969964  0.66561498  0.12575353  1
  Mn  Mn138  1  0.25002093  0.83327418  0.12528574  1
  Mn  Mn139  1  0.75087721  0.33420234  0.12387847  1
  Mn  Mn140  1  -0.00052217  0.83456014  0.24923513  1
  Mn  Mn141  1  0.00011790  0.66720801  0.24947051  1
  Mn  Mn142  1  -0.00034407  0.33228175  0.24959082  1
  Mn  Mn143  1  0.25112626  0.00082611  0.37597566  1
  Fe  Fe144  1  0.49960225  -0.00099535  -0.00071180  1
  Fe  Fe145  1  0.00044032  0.49995068  0.74953827  1
  Fe  Fe146  1  0.49942461  0.83420702  0.75005905  1
  Fe  Fe147  1  0.49996107  0.00030596  0.75028098  1
  Fe  Fe148  1  0.00041587  0.00019029  0.74972832  1
  Fe  Fe149  1  0.75005484  0.50020036  0.62534724  1
  Fe  Fe150  1  0.25060622  0.16649909  0.87385791  1
  Fe  Fe151  1  0.49983222  0.83298831  -0.00040444  1
  Fe  Fe152  1  0.49986897  0.16694446  0.75037487  1
  Fe  Fe153  1  0.49968580  0.83293490  0.24981149  1
  Fe  Fe154  1  0.00075465  0.66674234  -0.00058788  1
  Fe  Fe155  1  0.74969358  0.16679181  0.62484984  1
  Fe  Fe156  1  0.74977274  0.50026907  0.12430119  1
  Fe  Fe157  1  0.49947722  -0.00125674  0.24927842  1
  Fe  Fe158  1  0.25043045  0.49897347  0.37544085  1
  Fe  Fe159  1  0.25051575  0.16661442  0.62513946  1
  Fe  Fe160  1  0.25035360  0.00018388  0.62585430  1
  Fe  Fe161  1  0.74987400  0.16695401  0.87450939  1
  Fe  Fe162  1  0.00027287  0.00045528  0.00001949  1
  Fe  Fe163  1  0.49954330  0.66630934  0.25053027  1
  Fe  Fe164  1  0.00015456  0.16629099  0.49971413  1
  Fe  Fe165  1  0.49975173  0.50026284  0.75049420  1
  Fe  Fe166  1  0.24957851  0.83373664  0.87519984  1
  Fe  Fe167  1  0.49944756  0.33266351  0.25045517  1
  Fe  Fe168  1  0.49917255  0.66731099  0.75116441  1
  Fe  Fe169  1  0.25007055  0.16736823  0.37630077  1
  Fe  Fe170  1  0.49997328  0.33358728  0.50120009  1
  Fe  Fe171  1  0.25039873  0.33321319  0.37583043  1
  Fe  Fe172  1  0.49984642  0.33261490  -0.00001241  1
  Fe  Fe173  1  0.00007711  0.66691308  0.49991450  1
  Fe  Fe174  1  0.50006095  0.33379792  0.75079161  1
  Fe  Fe175  1  0.00047667  0.00054773  0.49954508  1
  Fe  Fe176  1  0.00080477  0.00069637  0.24981055  1
  Fe  Fe177  1  0.49968356  0.49925695  0.00022526  1
  Fe  Fe178  1  0.00069589  0.83399068  -0.00033826  1
  Fe  Fe179  1  0.25043903  0.49954129  0.87470870  1
  Fe  Fe180  1  0.74996040  0.83325283  0.87434807  1
  Fe  Fe181  1  -0.00000341  0.33307541  0.49935164  1
  Fe  Fe182  1  0.25004451  0.33310935  0.62461817  1
  Fe  Fe183  1  0.00078640  0.33315313  -0.00051709  1
  Fe  Fe184  1  0.25026032  0.49986551  0.12548064  1
  Fe  Fe185  1  0.25071820  0.49892006  0.62501655  1
  Fe  Fe186  1  0.25000934  0.83351116  0.62638940  1
  Fe  Fe187  1  0.00069980  0.16627245  0.25016010  1
  Fe  Fe188  1  0.49941022  0.66709959  0.50097436  1
  Fe  Fe189  1  0.75018059  0.66662273  0.87468834  1
  Fe  Fe190  1  0.49948896  -0.00003543  0.50034372  1
  Fe  Fe191  1  0.25024018  0.00025855  0.87427000  1
  P  P192  1  0.04322883  0.25084103  0.10236055  1
  P  P193  1  0.04218368  0.24824060  0.35315684  1
  P  P194  1  0.04167830  0.25008009  0.60093464  1
  P  P195  1  0.04378779  0.25003169  0.85293213  1
  P  P196  1  0.04292636  0.58469808  0.10185671  1
  P  P197  1  0.04278267  0.58346457  0.35342085  1
  P  P198  1  0.04250697  0.58450551  0.60236041  1
  P  P199  1  0.04249214  0.58222705  0.85226305  1
  P  P200  1  0.04210755  0.91770092  0.10140004  1
  P  P201  1  0.04248962  0.91858260  0.35247085  1
  P  P202  1  0.04238793  0.91866427  0.60233793  1
  P  P203  1  0.04224669  0.91810590  0.85284966  1
  P  P204  1  0.54180460  0.25069056  0.10287077  1
  P  P205  1  0.54177726  0.25086723  0.35322003  1
  P  P206  1  0.54145963  0.25151144  0.60396110  1
  P  P207  1  0.54118798  0.25030088  0.85205637  1
  P  P208  1  0.54147965  0.58156639  0.10276735  1
  P  P209  1  0.54166731  0.58441945  0.35318374  1
  P  P210  1  0.54121938  0.58539108  0.60412616  1
  P  P211  1  0.54059599  0.58333217  0.85229075  1
  P  P212  1  0.54118062  0.91587627  0.10141967  1
  P  P213  1  0.54066684  0.91642772  0.35165997  1
  P  P214  1  0.54134026  0.91834378  0.60336496  1
  P  P215  1  0.54085039  0.91689599  0.85203386  1
  P  P216  1  0.45761012  0.08123035  0.14728316  1
  P  P217  1  0.45734525  0.08169922  0.39782145  1
  P  P218  1  0.45860046  0.08366574  0.64883385  1
  P  P219  1  0.45838090  0.08184926  0.89672057  1
  P  P220  1  0.45753986  0.41453029  0.14744594  1
  P  P221  1  0.45777819  0.41515821  0.39838243  1
  P  P222  1  0.45871215  0.41682259  0.64901680  1
  P  P223  1  0.45893373  0.41597271  0.89793038  1
  P  P224  1  0.45841296  0.74936011  0.14836930  1
  P  P225  1  0.45695853  0.74845972  0.39776638  1
  P  P226  1  0.45792938  0.75037761  0.64924194  1
  P  P227  1  0.45778679  0.75108847  0.89710841  1
  P  P228  1  0.95894791  0.08347466  0.14794474  1
  P  P229  1  0.95903214  0.08321442  0.39754080  1
  P  P230  1  0.95861461  0.08227829  0.64661793  1
  P  P231  1  0.95840015  0.08192171  0.89707378  1
  P  P232  1  0.95771542  0.41632070  0.14583405  1
  P  P233  1  0.95773209  0.41500879  0.39712425  1
  P  P234  1  0.95831984  0.41788830  0.64672321  1
  P  P235  1  0.95820552  0.41535043  0.89664573  1
  P  P236  1  0.95763305  0.75081319  0.14514773  1
  P  P237  1  0.95742335  0.74927175  0.39729101  1
  P  P238  1  0.95711118  0.75036514  0.64619138  1
  P  P239  1  0.95923705  0.75023412  0.89817666  1
  P  P240  1  0.20763537  0.08400014  0.22879998  1
  P  P241  1  0.20871936  0.08508067  0.47908487  1
  P  P242  1  0.20930547  0.08361739  0.72709813  1
  P  P243  1  0.20913345  0.08384364  0.97573780  1
  P  P244  1  0.20805863  0.41768035  0.22829263  1
  P  P245  1  0.20903300  0.41623238  0.47753110  1
  P  P246  1  0.20895948  0.41632335  0.72648412  1
  P  P247  1  0.20840613  0.41804715  0.97733062  1
  P  P248  1  0.20702178  0.74947147  0.22876730  1
  P  P249  1  0.20742576  0.74994639  0.47988757  1
  P  P250  1  0.20794163  0.75120414  0.72852296  1
  P  P251  1  0.20799221  0.75090027  0.97729326  1
  P  P252  1  0.70654714  0.08359637  0.22757654  1
  P  P253  1  0.70683630  0.08387740  0.47859179  1
  P  P254  1  0.70764893  0.08522141  0.72761473  1
  P  P255  1  0.70684531  0.08501712  0.97666229  1
  P  P256  1  0.70731274  0.41805208  0.22677721  1
  P  P257  1  0.70698223  0.41679051  0.47897561  1
  P  P258  1  0.70747951  0.41816647  0.72752807  1
  P  P259  1  0.70688567  0.41702301  0.97811873  1
  P  P260  1  0.70620283  0.74998927  0.22754004  1
  P  P261  1  0.70609384  0.74962805  0.47813562  1
  P  P262  1  0.70688265  0.75012001  0.72928701  1
  P  P263  1  0.70798628  0.74964439  0.97571752  1
  P  P264  1  0.29320263  0.24995987  0.02125277  1
  P  P265  1  0.29152210  0.25005423  0.27427264  1
  P  P266  1  0.29155685  0.24990906  0.52337931  1
  P  P267  1  0.29239644  0.24866416  0.77142072  1
  P  P268  1  0.29238635  0.58169518  0.02260804  1
  P  P269  1  0.29225712  0.58138883  0.27324390  1
  P  P270  1  0.29252225  0.58108724  0.52315181  1
  P  P271  1  0.29251462  0.58149653  0.77241288  1
  P  P272  1  0.29234641  0.91683161  0.02098591  1
  P  P273  1  0.29303351  0.91680240  0.27263777  1
  P  P274  1  0.29169768  0.91662184  0.52481903  1
  P  P275  1  0.29081635  0.91652530  0.77293892  1
  P  P276  1  0.79327370  0.24975366  0.02066024  1
  P  P277  1  0.79323891  0.25069698  0.27154515  1
  P  P278  1  0.79241791  0.24888238  0.52280437  1
  P  P279  1  0.79228079  0.24868807  0.77180524  1
  P  P280  1  0.79210301  0.58266915  0.02170975  1
  P  P281  1  0.79271579  0.58309968  0.27101439  1
  P  P282  1  0.79217638  0.58205292  0.52275269  1
  P  P283  1  0.79231134  0.58439897  0.77218096  1
  P  P284  1  0.79205556  0.91644070  0.02019135  1
  P  P285  1  0.79267476  0.91678524  0.27112060  1
  P  P286  1  0.79273511  0.91676978  0.52166004  1
  P  P287  1  0.79219806  0.91593103  0.77246754  1
  O  O288  1  0.03768969  0.24996419  0.18223890  1
  O  O289  1  0.03667163  0.24865394  0.43298895  1
  O  O290  1  0.03743824  0.25006494  0.68095257  1
  O  O291  1  0.03873376  0.25040476  0.93284559  1
  O  O292  1  0.03782614  0.58439060  0.18179024  1
  O  O293  1  0.03743183  0.58375120  0.43336373  1
  O  O294  1  0.03725312  0.58364798  0.68230054  1
  O  O295  1  0.03742302  0.58267159  0.93217819  1
  O  O296  1  0.03728185  0.91775410  0.18135422  1
  O  O297  1  0.03712871  0.91834954  0.43237631  1
  O  O298  1  0.03701626  0.91861461  0.68226217  1
  O  O299  1  0.03696690  0.91787031  0.93270398  1
  O  O300  1  0.53634054  0.25060917  0.18276772  1
  O  O301  1  0.53640326  0.25083646  0.43317635  1
  O  O302  1  0.53614730  0.25113407  0.68382676  1
  O  O303  1  0.53643096  0.25008623  0.93201165  1
  O  O304  1  0.53660057  0.58176666  0.18265964  1
  O  O305  1  0.53638190  0.58456077  0.43311934  1
  O  O306  1  0.53572431  0.58520640  0.68396422  1
  O  O307  1  0.53575786  0.58246439  0.93223137  1
  O  O308  1  0.53604606  0.91566281  0.18127092  1
  O  O309  1  0.53574540  0.91639438  0.43158821  1
  O  O310  1  0.53608640  0.91825432  0.68321804  1
  O  O311  1  0.53612790  0.91655492  0.93191031  1
  O  O312  1  0.46310121  0.08154825  0.06737481  1
  O  O313  1  0.46249223  0.08167127  0.31792508  1
  O  O314  1  0.46312367  0.08380762  0.56889134  1
  O  O315  1  0.46394369  0.08234747  0.81688927  1
  O  O316  1  0.46286114  0.41479429  0.06757846  1
  O  O317  1  0.46299844  0.41488530  0.31848382  1
  O  O318  1  0.46346237  0.41702517  0.56908664  1
  O  O319  1  0.46425172  0.41650818  0.81806729  1
  O  O320  1  0.46345603  0.74992055  0.06841960  1
  O  O321  1  0.46216390  0.74846740  0.31795515  1
  O  O322  1  0.46258311  0.75055192  0.56928924  1
  O  O323  1  0.46299298  0.75087160  0.81727423  1
  O  O324  1  0.96449647  0.08325160  0.06804335  1
  O  O325  1  0.96398072  0.08380712  0.31764774  1
  O  O326  1  0.96385451  0.08265852  0.56676293  1
  O  O327  1  0.96357567  0.08183556  0.81716410  1
  O  O328  1  0.96317584  0.41602180  0.06590941  1
  O  O329  1  0.96277600  0.41522474  0.31716625  1
  O  O330  1  0.96320035  0.41733044  0.56679808  1
  O  O331  1  0.96361409  0.41625884  0.81671959  1
  O  O332  1  0.96336654  0.75066577  0.06527913  1
  O  O333  1  0.96275601  0.74978540  0.31732163  1
  O  O334  1  0.96231481  0.74993236  0.56629757  1
  O  O335  1  0.96372521  0.75057053  0.81816775  1
  O  O336  1  0.21379341  0.08359868  0.05572045  1
  O  O337  1  0.21274881  0.08423177  0.30875145  1
  O  O338  1  0.21421406  0.08483988  0.55895243  1
  O  O339  1  0.21431746  0.08346604  0.80699951  1
  O  O340  1  0.21351156  0.41814691  0.05727528  1
  O  O341  1  0.21340256  0.41721040  0.30816963  1
  O  O342  1  0.21385931  0.41587399  0.55744412  1
  O  O343  1  0.21365680  0.41623461  0.80645137  1
  O  O344  1  0.21277391  0.75031169  0.05728246  1
  O  O345  1  0.21186281  0.74932574  0.30879585  1
  O  O346  1  0.21294310  0.75050156  0.55984619  1
  O  O347  1  0.21343071  0.75134033  0.80847344  1
  O  O348  1  0.71189757  0.08436180  0.05663025  1
  O  O349  1  0.71137948  0.08335339  0.30761008  1
  O  O350  1  0.71218650  0.08430839  0.55858993  1
  O  O351  1  0.71276560  0.08530802  0.80757303  1
  O  O352  1  0.71218299  0.41746885  0.05803394  1
  O  O353  1  0.71220450  0.41749436  0.30683092  1
  O  O354  1  0.71224205  0.41721519  0.55894463  1
  O  O355  1  0.71252095  0.41763570  0.80747500  1
  O  O356  1  0.71263691  0.74964024  0.05573829  1
  O  O357  1  0.71107802  0.74989237  0.30751126  1
  O  O358  1  0.71109173  0.74964184  0.55815401  1
  O  O359  1  0.71255851  0.75012681  0.80917712  1
  O  O360  1  0.28692705  0.25059338  0.19426566  1
  O  O361  1  0.28656135  0.25010530  0.44346751  1
  O  O362  1  0.28689611  0.24890450  0.69158827  1
  O  O363  1  0.28807536  0.24954913  0.94130480  1
  O  O364  1  0.28707036  0.58148872  0.19326337  1
  O  O365  1  0.28699678  0.58110226  0.44323541  1
  O  O366  1  0.28724637  0.58159113  0.69250249  1
  O  O367  1  0.28726960  0.58190548  0.94262509  1
  O  O368  1  0.28791292  0.91688714  0.19266679  1
  O  O369  1  0.28724845  0.91700217  0.44480478  1
  O  O370  1  0.28592293  0.91655982  0.69302720  1
  O  O371  1  0.28699766  0.91652504  0.94104900  1
  O  O372  1  0.78850433  0.25084440  0.19153077  1
  O  O373  1  0.78748861  0.24941372  0.44281952  1
  O  O374  1  0.78680630  0.24865370  0.69185707  1
  O  O375  1  0.78802790  0.24928994  0.94069107  1
  O  O376  1  0.78762174  0.58267966  0.19102739  1
  O  O377  1  0.78734148  0.58233458  0.44274246  1
  O  O378  1  0.78687375  0.58363389  0.69226103  1
  O  O379  1  0.78691161  0.58370899  0.94174872  1
  O  O380  1  0.78754959  0.91691005  0.19108583  1
  O  O381  1  0.78764130  0.91686214  0.44168659  1
  O  O382  1  0.78737643  0.91628095  0.69247507  1
  O  O383  1  0.78673449  0.91615494  0.94022642  1
  O  O384  1  0.22887428  0.25037347  0.05656653  1
  O  O385  1  0.22733609  0.24943097  0.30996345  1
  O  O386  1  0.22746473  0.24934917  0.55944899  1
  O  O387  1  0.22835322  0.24853780  0.80769835  1
  O  O388  1  0.22806521  0.58140362  0.05816973  1
  O  O389  1  0.22801689  0.58093985  0.30899360  1
  O  O390  1  0.22831674  0.58100226  0.55898134  1
  O  O391  1  0.22828249  0.58161406  0.80812137  1
  O  O392  1  0.22811774  0.91686675  0.05665234  1
  O  O393  1  0.22866018  0.91728220  0.30775367  1
  O  O394  1  0.22737690  0.91624340  0.56006912  1
  O  O395  1  0.22684308  0.91647626  0.80913498  1
  O  O396  1  0.72887867  0.25043476  0.05576837  1
  O  O397  1  0.72860254  0.25069501  0.30610053  1
  O  O398  1  0.72798337  0.24899129  0.55795106  1
  O  O399  1  0.72799781  0.24857967  0.80753522  1
  O  O400  1  0.72774929  0.58169522  0.05721799  1
  O  O401  1  0.72821436  0.58327496  0.30596905  1
  O  O402  1  0.72767583  0.58135500  0.55785159  1
  O  O403  1  0.72799971  0.58547784  0.80775918  1
  O  O404  1  0.72767440  0.91684006  0.05537130  1
  O  O405  1  0.72811954  0.91688566  0.30589850  1
  O  O406  1  0.72826367  0.91700354  0.55653741  1
  O  O407  1  0.72774714  0.91575713  0.80747297  1
  O  O408  1  0.27205982  0.08367494  0.19365773  1
  O  O409  1  0.27279735  0.08570394  0.44286940  1
  O  O410  1  0.27337951  0.08394579  0.69103551  1
  O  O411  1  0.27331193  0.08415566  0.94001967  1
  O  O412  1  0.27225565  0.41809839  0.19220062  1
  O  O413  1  0.27312856  0.41662545  0.44148434  1
  O  O414  1  0.27323789  0.41646667  0.69091567  1
  O  O415  1  0.27270698  0.41788664  0.94172174  1
  O  O416  1  0.27151092  0.74933645  0.19393178  1
  O  O417  1  0.27167816  0.74950685  0.44442926  1
  O  O418  1  0.27214484  0.75092203  0.69275595  1
  O  O419  1  0.27233703  0.75100037  0.94205684  1
  O  O420  1  0.77116492  0.08338186  0.19302545  1
  O  O421  1  0.77123349  0.08359177  0.44344980  1
  O  O422  1  0.77196602  0.08511406  0.69212578  1
  O  O423  1  0.77129421  0.08502013  0.94149974  1
  O  O424  1  0.77177268  0.41882918  0.19153164  1
  O  O425  1  0.77139659  0.41671711  0.44384422  1
  O  O426  1  0.77182431  0.41816257  0.69216515  1
  O  O427  1  0.77125142  0.41688820  0.94300617  1
  O  O428  1  0.77072163  0.74979221  0.19279306  1
  O  O429  1  0.77065745  0.74979281  0.44341392  1
  O  O430  1  0.77104543  0.74958069  0.69352193  1
  O  O431  1  0.77235127  0.74944700  0.94029947  1
  O  O432  1  0.02301653  0.08361752  0.18451099  1
  O  O433  1  0.02311002  0.08283296  0.43390647  1
  O  O434  1  0.02285402  0.08151952  0.68275007  1
  O  O435  1  0.02273759  0.08168185  0.93274848  1
  O  O436  1  0.02195187  0.41614801  0.18153979  1
  O  O437  1  0.02212821  0.41508932  0.43255775  1
  O  O438  1  0.02275887  0.41834045  0.68217645  1
  O  O439  1  0.02242701  0.41504410  0.93267572  1
  O  O440  1  0.02174465  0.75119813  0.18129165  1
  O  O441  1  0.02170768  0.74903157  0.43314531  1
  O  O442  1  0.02144093  0.75057256  0.68162588  1
  O  O443  1  0.02344521  0.74973258  0.93394008  1
  O  O444  1  0.52174681  0.08113195  0.18350929  1
  O  O445  1  0.52158864  0.08199785  0.43379838  1
  O  O446  1  0.52281060  0.08306941  0.68462055  1
  O  O447  1  0.52235863  0.08128532  0.93327092  1
  O  O448  1  0.52165320  0.41436472  0.18382468  1
  O  O449  1  0.52196308  0.41558450  0.43440911  1
  O  O450  1  0.52287420  0.41642054  0.68496472  1
  O  O451  1  0.52278929  0.41549658  0.93468925  1
  O  O452  1  0.52246016  0.74885989  0.18463232  1
  O  O453  1  0.52113927  0.74885598  0.43403737  1
  O  O454  1  0.52207572  0.74988668  0.68515686  1
  O  O455  1  0.52194060  0.75088372  0.93325404  1
  O  O456  1  0.47768581  0.25059071  0.06665809  1
  O  O457  1  0.47753215  0.25078844  0.31722700  1
  O  O458  1  0.47734163  0.25163513  0.56766771  1
  O  O459  1  0.47704527  0.25105222  0.81608579  1
  O  O460  1  0.47719196  0.58194977  0.06707978  1
  O  O461  1  0.47746922  0.58420730  0.31713176  1
  O  O462  1  0.47715733  0.58525382  0.56767688  1
  O  O463  1  0.47648747  0.58381780  0.81627028  1
  O  O464  1  0.47710386  0.91618250  0.06486690  1
  O  O465  1  0.47658946  0.91678379  0.31539767  1
  O  O466  1  0.47714486  0.91827496  0.56722411  1
  O  O467  1  0.47671469  0.91774025  0.81588480  1
  O  O468  1  0.97907289  0.25120023  0.06610747  1
  O  O469  1  0.97811031  0.24756348  0.31671267  1
  O  O470  1  0.97738453  0.25054756  0.56545234  1
  O  O471  1  0.97945533  0.24990903  0.81755935  1
  O  O472  1  0.97858102  0.58490748  0.06625492  1
  O  O473  1  0.97849167  0.58321087  0.31783257  1
  O  O474  1  0.97823440  0.58485473  0.56647795  1
  O  O475  1  0.97817270  0.58177012  0.81656652  1
  O  O476  1  0.97792338  0.91787920  0.06540525  1
  O  O477  1  0.97827860  0.91914643  0.31639183  1
  O  O478  1  0.97818340  0.91875371  0.56636778  1
  O  O479  1  0.97803520  0.91883167  0.81667434  1
  O  O480  1  0.07394521  0.31457141  0.07419316  1
  O  O481  1  0.07307580  0.31198928  0.32501250  1
  O  O482  1  0.07267587  0.31366767  0.57267042  1
  O  O483  1  0.07515299  0.31313059  0.82420517  1
  O  O484  1  0.07366187  0.64824492  0.07331008  1
  O  O485  1  0.07405804  0.64676431  0.32515288  1
  O  O486  1  0.07310192  0.64839289  0.57439223  1
  O  O487  1  0.07360363  0.64580055  0.82423173  1
  O  O488  1  0.07338038  0.98111480  0.07315862  1
  O  O489  1  0.07379146  0.98178508  0.32396945  1
  O  O490  1  0.07352556  0.98186660  0.57364471  1
  O  O491  1  0.07358503  0.98123606  0.82399149  1
  O  O492  1  0.57279780  0.31393621  0.07404450  1
  O  O493  1  0.57278755  0.31417141  0.32456669  1
  O  O494  1  0.57234610  0.31506756  0.57540279  1
  O  O495  1  0.57297884  0.31340800  0.82393327  1
  O  O496  1  0.57309884  0.64481521  0.07456404  1
  O  O497  1  0.57247485  0.64770296  0.32417946  1
  O  O498  1  0.57198670  0.64887783  0.57531617  1
  O  O499  1  0.57162384  0.64714497  0.82472266  1
  O  O500  1  0.57225814  0.97941177  0.07298695  1
  O  O501  1  0.57209103  0.97969217  0.32332125  1
  O  O502  1  0.57215293  0.98175006  0.57436952  1
  O  O503  1  0.57260333  0.98003467  0.82369091  1
  O  O504  1  0.42654180  0.01785326  0.17560425  1
  O  O505  1  0.42668508  0.01824562  0.42678286  1
  O  O506  1  0.42705339  0.02047981  0.67714107  1
  O  O507  1  0.42706090  0.01853990  0.92513575  1
  O  O508  1  0.42653121  0.35112651  0.17622736  1
  O  O509  1  0.42703299  0.35184052  0.42747447  1
  O  O510  1  0.42728484  0.35356576  0.67729489  1
  O  O511  1  0.42743000  0.35250967  0.92581786  1
  O  O512  1  0.42729425  0.68563396  0.17618050  1
  O  O513  1  0.42643439  0.68496281  0.42699871  1
  O  O514  1  0.42640262  0.68720660  0.67758294  1
  O  O515  1  0.42640365  0.68764953  0.92538103  1
  O  O516  1  0.92799250  0.01986350  0.17609900  1
  O  O517  1  0.92773742  0.01972123  0.42567621  1
  O  O518  1  0.92720748  0.01918027  0.67539571  1
  O  O519  1  0.92711570  0.01893032  0.92608438  1
  O  O520  1  0.92611922  0.35320726  0.17411693  1
  O  O521  1  0.92725828  0.35129433  0.42564319  1
  O  O522  1  0.92725296  0.35437082  0.67499271  1
  O  O523  1  0.92762387  0.35151320  0.92472813  1
  O  O524  1  0.92649867  0.68734053  0.17353304  1
  O  O525  1  0.92668246  0.68565454  0.42552976  1
  O  O526  1  0.92589399  0.68717843  0.67493537  1
  O  O527  1  0.92823079  0.68646255  0.92588899  1
  O  O528  1  0.17659169  0.02056917  0.20043628  1
  O  O529  1  0.17792639  0.02128723  0.45114539  1
  O  O530  1  0.17886530  0.01974201  0.69850893  1
  O  O531  1  0.17879517  0.01996076  0.94730144  1
  O  O532  1  0.17713268  0.35406361  0.19995445  1
  O  O533  1  0.17865224  0.35245948  0.44855757  1
  O  O534  1  0.17860789  0.35243578  0.69790011  1
  O  O535  1  0.17741424  0.35432936  0.94956563  1
  O  O536  1  0.17599735  0.68610979  0.20038887  1
  O  O537  1  0.17628637  0.68630588  0.45229353  1
  O  O538  1  0.17679328  0.68741182  0.70118821  1
  O  O539  1  0.17702350  0.68734141  0.94921463  1
  O  O540  1  0.67544722  0.02034772  0.19902865  1
  O  O541  1  0.67573369  0.02034727  0.45060227  1
  O  O542  1  0.67667533  0.02133346  0.70022279  1
  O  O543  1  0.67570680  0.02154861  0.94859048  1
  O  O544  1  0.67679761  0.35423503  0.19875223  1
  O  O545  1  0.67621988  0.35306577  0.45090349  1
  O  O546  1  0.67630558  0.35465292  0.69978961  1
  O  O547  1  0.67598522  0.35343641  0.95000883  1
  O  O548  1  0.67512590  0.68666883  0.19915547  1
  O  O549  1  0.67538662  0.68601084  0.45003778  1
  O  O550  1  0.67516710  0.68702722  0.70107644  1
  O  O551  1  0.67713488  0.68594464  0.94783160  1
  O  O552  1  0.32420154  0.31347371  0.04938218  1
  O  O553  1  0.32165720  0.31398963  0.30288955  1
  O  O554  1  0.32174895  0.31388454  0.55209387  1
  O  O555  1  0.32356830  0.31220351  0.79942048  1
  O  O556  1  0.32310715  0.64559101  0.05048722  1
  O  O557  1  0.32286247  0.64528159  0.30117447  1
  O  O558  1  0.32342125  0.64482645  0.55097525  1
  O  O559  1  0.32353390  0.64518673  0.80021692  1
  O  O560  1  0.32348296  0.98032223  0.04908170  1
  O  O561  1  0.32440394  0.97998032  0.30090357  1
  O  O562  1  0.32196021  0.98057537  0.55329115  1
  O  O563  1  0.32146180  0.98038958  0.80128540  1
  O  O564  1  0.82459602  0.31317970  0.04849787  1
  O  O565  1  0.82409780  0.31410976  0.29999280  1
  O  O566  1  0.82365231  0.31224868  0.55091870  1
  O  O567  1  0.82311076  0.31269636  0.79916550  1
  O  O568  1  0.82287382  0.64625201  0.04997292  1
  O  O569  1  0.82352650  0.64677136  0.29916842  1
  O  O570  1  0.82266136  0.64590787  0.55066309  1
  O  O571  1  0.82356414  0.64771160  0.80045103  1
  O  O572  1  0.82314542  0.98004378  0.04808783  1
  O  O573  1  0.82374484  0.98016356  0.29934911  1
  O  O574  1  0.82384743  0.98014703  0.54989150  1
  O  O575  1  0.82319095  0.97957968  0.80017416  1
  O  O576  1  0.42669685  0.14500277  0.17513505  1
  O  O577  1  0.42626321  0.14535569  0.42559528  1
  O  O578  1  0.42861974  0.14779997  0.67735707  1
  O  O579  1  0.42744562  0.14552602  0.92470252  1
  O  O580  1  0.42646249  0.47805803  0.17565859  1
  O  O581  1  0.42666495  0.47892570  0.42578178  1
  O  O582  1  0.42852096  0.48085704  0.67741870  1
  O  O583  1  0.42852983  0.47982044  0.92662275  1
  O  O584  1  0.42788233  0.81306622  0.17693432  1
  O  O585  1  0.42560314  0.81190039  0.42586446  1
  O  O586  1  0.42786027  0.81456203  0.67750028  1
  O  O587  1  0.42710703  0.81457806  0.92580181  1
  O  O588  1  0.92822715  0.14730524  0.17575626  1
  O  O589  1  0.92851168  0.14680402  0.42669430  1
  O  O590  1  0.92808757  0.14613249  0.67486766  1
  O  O591  1  0.92775696  0.14587983  0.92471030  1
  O  O592  1  0.92697987  0.48014334  0.17360993  1
  O  O593  1  0.92643969  0.47845862  0.42477997  1
  O  O594  1  0.92775113  0.48149741  0.67526992  1
  O  O595  1  0.92679840  0.47868442  0.92460596  1
  O  O596  1  0.92618540  0.81410097  0.17339227  1
  O  O597  1  0.92646135  0.81305462  0.42470555  1
  O  O598  1  0.92613313  0.81399490  0.67413040  1
  O  O599  1  0.92899105  0.81415720  0.92644598  1
  O  O600  1  0.07450301  0.18739781  0.07440422  1
  O  O601  1  0.07342983  0.18506139  0.32457510  1
  O  O602  1  0.07189536  0.18607144  0.57286210  1
  O  O603  1  0.07458796  0.18633314  0.82491421  1
  O  O604  1  0.07394050  0.52106340  0.07419861  1
  O  O605  1  0.07370905  0.51972918  0.32557920  1
  O  O606  1  0.07378089  0.52117773  0.57421959  1
  O  O607  1  0.07313888  0.51862095  0.82376497  1
  O  O608  1  0.07238894  0.85378329  0.07288295  1
  O  O609  1  0.07305544  0.85461680  0.32471363  1
  O  O610  1  0.07330763  0.85482705  0.57484945  1
  O  O611  1  0.07289165  0.85430686  0.82466792  1
  O  O612  1  0.57288152  0.18690615  0.07535225  1
  O  O613  1  0.57266008  0.18700486  0.32563788  1
  O  O614  1  0.57264366  0.18810721  0.57568442  1
  O  O615  1  0.57105130  0.18610963  0.82358417  1
  O  O616  1  0.57153840  0.51777828  0.07388669  1
  O  O617  1  0.57270976  0.52057653  0.32580603  1
  O  O618  1  0.57248574  0.52187733  0.57616839  1
  O  O619  1  0.57127464  0.51980347  0.82342853  1
  O  O620  1  0.57185448  0.85219797  0.07278703  1
  O  O621  1  0.57081855  0.85234933  0.32331158  1
  O  O622  1  0.57252860  0.85480080  0.57539643  1
  O  O623  1  0.57090100  0.85293863  0.82315463  1
  O  O624  1  0.32423086  0.18659884  0.05000912  1
  O  O625  1  0.32280892  0.18657843  0.30228988  1
  O  O626  1  0.32324259  0.18677114  0.55183685  1
  O  O627  1  0.32340137  0.18525123  0.80016031  1
  O  O628  1  0.32347796  0.51847978  0.05143213  1
  O  O629  1  0.32355641  0.51816479  0.30186177  1
  O  O630  1  0.32364119  0.51773950  0.55167661  1
  O  O631  1  0.32334759  0.51805314  0.80111726  1
  O  O632  1  0.32358788  0.85351228  0.04977314  1
  O  O633  1  0.32360651  0.85298257  0.30080552  1
  O  O634  1  0.32278137  0.85307760  0.55304108  1
  O  O635  1  0.32201671  0.85311430  0.80152135  1
  O  O636  1  0.82421572  0.18633150  0.04934295  1
  O  O637  1  0.82399511  0.18702615  0.29984112  1
  O  O638  1  0.82286309  0.18509121  0.55119693  1
  O  O639  1  0.82340395  0.18543837  0.80052469  1
  O  O640  1  0.82308533  0.51903209  0.04979972  1
  O  O641  1  0.82395642  0.51992416  0.29980921  1
  O  O642  1  0.82317425  0.51864132  0.55134211  1
  O  O643  1  0.82306950  0.52068616  0.80041440  1
  O  O644  1  0.82312650  0.85306212  0.04863800  1
  O  O645  1  0.82354059  0.85313724  0.29928077  1
  O  O646  1  0.82364191  0.85316279  0.54977279  1
  O  O647  1  0.82290431  0.85228886  0.80096151  1
  O  O648  1  0.17671304  0.14738973  0.20000336  1
  O  O649  1  0.17744323  0.14829611  0.45030646  1
  O  O650  1  0.17783056  0.14687629  0.69859661  1
  O  O651  1  0.17803864  0.14741393  0.94764494  1
  O  O652  1  0.17700761  0.48101920  0.19943705  1
  O  O653  1  0.17766323  0.47958562  0.44915577  1
  O  O654  1  0.17778053  0.47973370  0.69810194  1
  O  O655  1  0.17750855  0.48132948  0.94827717  1
  O  O656  1  0.17617513  0.81312190  0.20049506  1
  O  O657  1  0.17625705  0.81326041  0.45121683  1
  O  O658  1  0.17705799  0.81462627  0.69980862  1
  O  O659  1  0.17724731  0.81456943  0.94897403  1
  O  O660  1  0.67579700  0.14736337  0.19958314  1
  O  O661  1  0.67562338  0.14721797  0.45014169  1
  O  O662  1  0.67678544  0.14854260  0.69864178  1
  O  O663  1  0.67625341  0.14873639  0.94839397  1
  O  O664  1  0.67634789  0.48156918  0.19848300  1
  O  O665  1  0.67555007  0.47991686  0.45033277  1
  O  O666  1  0.67694928  0.48200575  0.69944086  1
  O  O667  1  0.67550408  0.48021740  0.94957778  1
  O  O668  1  0.67543425  0.81357401  0.19908400  1
  O  O669  1  0.67505350  0.81316593  0.44991105  1
  O  O670  1  0.67597024  0.81374272  0.70085369  1
  O  O671  1  0.67752121  0.81356236  0.94739277  1
