# generated using pymatgen
data_Na2MnFe(PO4)2
_symmetry_space_group_name_H-M   'P 1'
_cell_length_a   22.34079219
_cell_length_b   20.09620553
_cell_length_c   19.45204285
_cell_angle_alpha   89.94085811
_cell_angle_beta   89.92035238
_cell_angle_gamma   90.00564708
_symmetry_Int_Tables_number   1
_chemical_formula_structural   Na2MnFe(PO4)2
_chemical_formula_sum   'Na96 Mn48 Fe48 P96 O384'
_cell_volume   8733.27623382
_cell_formula_units_Z   48
loop_
 _symmetry_equiv_pos_site_id
 _symmetry_equiv_pos_as_xyz
  1  'x, y, z'
loop_
 _atom_site_type_symbol
 _atom_site_label
 _atom_site_symmetry_multiplicity
 _atom_site_fract_x
 _atom_site_fract_y
 _atom_site_fract_z
 _atom_site_occupancy
  Na  Na0  1  0.14113624  0.25172028  0.24415370  1
  Na  Na1  1  0.14133240  0.25175041  0.49328626  1
  Na  Na2  1  0.14118020  0.25153258  0.74392086  1
  Na  Na3  1  0.14152186  0.25001962  0.99440085  1
  Na  Na4  1  0.14107682  0.58493555  0.24371409  1
  Na  Na5  1  0.14172159  0.58394361  0.49360506  1
  Na  Na6  1  0.14129033  0.58320885  0.74340989  1
  Na  Na7  1  0.14068786  0.58331826  0.99378911  1
  Na  Na8  1  0.14163677  0.91711185  0.24454575  1
  Na  Na9  1  0.14135946  0.91632496  0.49438901  1
  Na  Na10  1  0.14065970  0.91629084  0.74421543  1
  Na  Na11  1  0.14121701  0.91623148  0.99430714  1
  Na  Na12  1  0.63993718  0.25016205  0.24339678  1
  Na  Na13  1  0.63970957  0.24932482  0.49297128  1
  Na  Na14  1  0.63984164  0.24844058  0.74157192  1
  Na  Na15  1  0.64039180  0.24791717  0.99352066  1
  Na  Na16  1  0.64013854  0.58388483  0.24292836  1
  Na  Na17  1  0.63999536  0.58452041  0.49377946  1
  Na  Na18  1  0.63971602  0.58337740  0.74340173  1
  Na  Na19  1  0.63970182  0.58286359  0.99347423  1
  Na  Na20  1  0.64036515  0.91667004  0.24311438  1
  Na  Na21  1  0.63989579  0.91699155  0.49382607  1
  Na  Na22  1  0.63991438  0.91572034  0.74280155  1
  Na  Na23  1  0.64040815  0.91485206  0.99326894  1
  Na  Na24  1  0.35963313  0.08182443  0.00600024  1
  Na  Na25  1  0.35979484  0.08400579  0.25789536  1
  Na  Na26  1  0.35974912  0.08487326  0.50754937  1
  Na  Na27  1  0.36011983  0.08337854  0.75789169  1
  Na  Na28  1  0.36006343  0.41589479  0.00608392  1
  Na  Na29  1  0.35955564  0.41712383  0.25830538  1
  Na  Na30  1  0.35998310  0.41807529  0.50723393  1
  Na  Na31  1  0.36033828  0.41730852  0.75632125  1
  Na  Na32  1  0.35960530  0.74919221  0.00578394  1
  Na  Na33  1  0.35969796  0.74944055  0.25764889  1
  Na  Na34  1  0.35977598  0.74969845  0.50749580  1
  Na  Na35  1  0.35966421  0.74981878  0.75672841  1
  Na  Na36  1  0.85863510  0.08167933  0.00558749  1
  Na  Na37  1  0.85872317  0.08245894  0.25505667  1
  Na  Na38  1  0.85902925  0.08266818  0.50577727  1
  Na  Na39  1  0.85909405  0.08171038  0.75575006  1
  Na  Na40  1  0.85886769  0.41659404  0.00640341  1
  Na  Na41  1  0.85915447  0.41702056  0.25544564  1
  Na  Na42  1  0.85914297  0.41759966  0.50516415  1
  Na  Na43  1  0.85910781  0.41701923  0.75563432  1
  Na  Na44  1  0.85875839  0.74949878  0.00668305  1
  Na  Na45  1  0.85891656  0.74973307  0.25557019  1
  Na  Na46  1  0.85894554  0.75152519  0.50500484  1
  Na  Na47  1  0.85852242  0.75040961  0.75683159  1
  Na  Na48  1  0.11048385  0.08388823  0.11964652  1
  Na  Na49  1  0.11024387  0.08525751  0.36876165  1
  Na  Na50  1  0.11011729  0.08328071  0.61978866  1
  Na  Na51  1  0.11007667  0.08286470  0.86936092  1
  Na  Na52  1  0.11041741  0.41768518  0.11890178  1
  Na  Na53  1  0.11056577  0.41833603  0.36817678  1
  Na  Na54  1  0.11084036  0.41698495  0.61841750  1
  Na  Na55  1  0.11062561  0.41718530  0.86864100  1
  Na  Na56  1  0.11031252  0.75002461  0.11979548  1
  Na  Na57  1  0.11093538  0.75051024  0.36908467  1
  Na  Na58  1  0.11073237  0.75049312  0.61866705  1
  Na  Na59  1  0.10998935  0.75074894  0.86902084  1
  Na  Na60  1  0.60994504  0.08210450  0.11808080  1
  Na  Na61  1  0.60959687  0.08415432  0.36862928  1
  Na  Na62  1  0.60962892  0.08275337  0.61791718  1
  Na  Na63  1  0.60940799  0.08213267  0.86669437  1
  Na  Na64  1  0.60936962  0.41608478  0.11911763  1
  Na  Na65  1  0.60957979  0.41807990  0.36893882  1
  Na  Na66  1  0.60914459  0.41590331  0.61828518  1
  Na  Na67  1  0.60898462  0.41632625  0.86818239  1
  Na  Na68  1  0.60976381  0.74833383  0.11798060  1
  Na  Na69  1  0.60945647  0.75175736  0.36792923  1
  Na  Na70  1  0.60960308  0.74895523  0.61900575  1
  Na  Na71  1  0.60954265  0.74900546  0.86668017  1
  Na  Na72  1  0.39039735  0.24884998  0.13258649  1
  Na  Na73  1  0.39043087  0.25170648  0.38319812  1
  Na  Na74  1  0.39085464  0.25073979  0.63163054  1
  Na  Na75  1  0.39057042  0.25076976  0.88095811  1
  Na  Na76  1  0.38997060  0.58124254  0.13207458  1
  Na  Na77  1  0.39013432  0.58406088  0.38273949  1
  Na  Na78  1  0.39024847  0.58241915  0.63279196  1
  Na  Na79  1  0.39010155  0.58234768  0.88040907  1
  Na  Na80  1  0.39013051  0.91524184  0.13192906  1
  Na  Na81  1  0.39053518  0.91748873  0.38226313  1
  Na  Na82  1  0.39037975  0.91575515  0.63288559  1
  Na  Na83  1  0.38967690  0.91616417  0.88107678  1
  Na  Na84  1  0.89018380  0.24976507  0.13052707  1
  Na  Na85  1  0.89031530  0.25094283  0.37983622  1
  Na  Na86  1  0.89017441  0.24892811  0.63097845  1
  Na  Na87  1  0.88999934  0.24939386  0.87989744  1
  Na  Na88  1  0.88951455  0.58334279  0.13129645  1
  Na  Na89  1  0.88973434  0.58400265  0.37991253  1
  Na  Na90  1  0.88998131  0.58422919  0.63062171  1
  Na  Na91  1  0.88980936  0.58373249  0.88142971  1
  Na  Na92  1  0.88926626  0.91573113  0.13150146  1
  Na  Na93  1  0.88942871  0.91693212  0.38045368  1
  Na  Na94  1  0.88989444  0.91707267  0.63097890  1
  Na  Na95  1  0.88924543  0.91631201  0.88171155  1
  Mn  Mn96  1  0.74951026  0.50155099  0.62562742  1
  Mn  Mn97  1  -0.00055941  0.50083432  0.00000025  1
  Mn  Mn98  1  0.25074849  0.66672034  0.12531608  1
  Mn  Mn99  1  0.00014586  0.16672552  -0.00011472  1
  Mn  Mn100  1  -0.00017343  -0.00033712  0.00021803  1
  Mn  Mn101  1  0.75002306  0.33387573  0.37396672  1
  Mn  Mn102  1  0.24994122  0.66648401  0.87502576  1
  Mn  Mn103  1  0.25029818  -0.00002434  0.62555713  1
  Mn  Mn104  1  0.75021029  0.16545726  0.37413977  1
  Mn  Mn105  1  0.00005556  0.66724789  0.49993022  1
  Mn  Mn106  1  0.74938281  0.33301040  0.62438684  1
  Mn  Mn107  1  0.49977128  0.83202164  -0.00015610  1
  Mn  Mn108  1  0.00041585  0.83244335  0.00064517  1
  Mn  Mn109  1  0.49978526  0.49984212  0.25079531  1
  Mn  Mn110  1  0.49983266  0.66684765  0.50094971  1
  Mn  Mn111  1  0.25093211  -0.00028511  0.12615932  1
  Mn  Mn112  1  0.00024031  0.50080015  0.24935952  1
  Mn  Mn113  1  0.00038887  0.50036883  0.74997858  1
  Mn  Mn114  1  0.49955949  0.00024143  0.50082056  1
  Mn  Mn115  1  0.00092037  0.16576880  0.75037582  1
  Mn  Mn116  1  0.00055432  0.83278538  0.25028301  1
  Mn  Mn117  1  0.00022216  0.33344287  0.74967065  1
  Mn  Mn118  1  0.00051043  0.33368276  -0.00037407  1
  Mn  Mn119  1  -0.00007286  0.33398937  0.49989697  1
  Mn  Mn120  1  0.00035351  0.00037550  0.49992076  1
  Mn  Mn121  1  0.25051989  0.00049017  0.37554555  1
  Mn  Mn122  1  0.74945255  0.33228709  0.87495894  1
  Mn  Mn123  1  0.00035539  0.66709100  0.75000870  1
  Mn  Mn124  1  0.49979362  0.16611193  -0.00011620  1
  Mn  Mn125  1  -0.00090212  0.83385761  0.75010126  1
  Mn  Mn126  1  -0.00039313  0.16801110  0.24939979  1
  Mn  Mn127  1  0.49931542  0.66480940  -0.00111630  1
  Mn  Mn128  1  0.50007533  0.83324880  0.24995622  1
  Mn  Mn129  1  0.25081831  0.33369030  0.12570701  1
  Mn  Mn130  1  0.25027667  0.16707856  0.87534937  1
  Mn  Mn131  1  0.74977585  0.83359903  0.62504048  1
  Mn  Mn132  1  0.74934670  0.66727420  0.37407554  1
  Mn  Mn133  1  0.74962648  0.16471739  0.87389571  1
  Mn  Mn134  1  0.50025323  0.16699808  0.25028915  1
  Mn  Mn135  1  0.74955886  0.33291736  0.12472229  1
  Mn  Mn136  1  0.00047800  0.50073758  0.49906493  1
  Mn  Mn137  1  0.00006663  0.16714287  0.49978339  1
  Mn  Mn138  1  0.49990857  -0.00093685  -0.00105361  1
  Mn  Mn139  1  0.74885017  0.50078974  0.87522028  1
  Mn  Mn140  1  0.00009436  0.83377025  0.49988358  1
  Mn  Mn141  1  0.50068965  0.33322466  -0.00021110  1
  Mn  Mn142  1  0.25034437  0.16830805  0.62639655  1
  Mn  Mn143  1  0.00014000  0.00030951  0.25007681  1
  Fe  Fe144  1  0.25021297  0.50005682  0.62453407  1
  Fe  Fe145  1  0.25055155  0.16675080  0.12536398  1
  Fe  Fe146  1  0.25081178  0.33469526  0.62459664  1
  Fe  Fe147  1  0.74887221  -0.00137666  0.87545654  1
  Fe  Fe148  1  0.49984899  0.66647920  0.25058775  1
  Fe  Fe149  1  0.00029582  0.33426477  0.24962288  1
  Fe  Fe150  1  0.25053866  0.66678240  0.62524388  1
  Fe  Fe151  1  0.50006915  0.49917653  0.74975719  1
  Fe  Fe152  1  0.74925223  -0.00048929  0.37421195  1
  Fe  Fe153  1  0.25048196  0.16779595  0.37607760  1
  Fe  Fe154  1  0.00009661  0.66679224  0.00010845  1
  Fe  Fe155  1  0.49978546  0.66567972  0.74962366  1
  Fe  Fe156  1  0.74991725  0.16540975  0.62391602  1
  Fe  Fe157  1  0.25064324  0.50103318  0.37599921  1
  Fe  Fe158  1  0.74937532  0.83303777  0.12444049  1
  Fe  Fe159  1  0.25086272  0.83328274  0.62529568  1
  Fe  Fe160  1  0.49998038  0.83325078  0.50065186  1
  Fe  Fe161  1  0.25059954  0.33410831  0.87508734  1
  Fe  Fe162  1  0.24988040  0.83286217  0.87507420  1
  Fe  Fe163  1  0.49960674  -0.00063858  0.74908831  1
  Fe  Fe164  1  0.25041609  0.66690040  0.37568560  1
  Fe  Fe165  1  0.50016434  0.33302055  0.74953098  1
  Fe  Fe166  1  0.25047653  0.49960014  0.87416242  1
  Fe  Fe167  1  0.74973355  0.50090404  0.37470238  1
  Fe  Fe168  1  0.74928689  0.66689766  0.12471308  1
  Fe  Fe169  1  0.74997772  -0.00076909  0.62455220  1
  Fe  Fe170  1  0.74964491  0.66668396  0.87534046  1
  Fe  Fe171  1  0.25031649  0.49998960  0.12520051  1
  Fe  Fe172  1  0.49969994  0.16690877  0.50048446  1
  Fe  Fe173  1  0.74926183  -0.00113196  0.12453951  1
  Fe  Fe174  1  -0.00016484  0.66691406  0.24984921  1
  Fe  Fe175  1  0.49989467  0.00033484  0.25070160  1
  Fe  Fe176  1  0.25110054  0.83312025  0.37571364  1
  Fe  Fe177  1  0.74983782  0.66751575  0.62454989  1
  Fe  Fe178  1  0.74934080  0.83373827  0.37450342  1
  Fe  Fe179  1  0.49962938  0.49934555  -0.00021347  1
  Fe  Fe180  1  0.50047685  0.49991191  0.50087300  1
  Fe  Fe181  1  0.24993563  -0.00057801  0.87593470  1
  Fe  Fe182  1  -0.00008701  -0.00033147  0.75017493  1
  Fe  Fe183  1  0.49977765  0.33376192  0.25139623  1
  Fe  Fe184  1  0.50013503  0.33353488  0.50093117  1
  Fe  Fe185  1  0.74969016  0.16544530  0.12428361  1
  Fe  Fe186  1  0.74897010  0.50012148  0.12448564  1
  Fe  Fe187  1  0.49987735  0.16650481  0.74937401  1
  Fe  Fe188  1  0.25062340  0.83314467  0.12547324  1
  Fe  Fe189  1  0.74923736  0.83283818  0.87491770  1
  Fe  Fe190  1  0.49947815  0.83252409  0.74978976  1
  Fe  Fe191  1  0.25029300  0.33451260  0.37504849  1
  P  P192  1  0.04327217  0.25078399  0.10349191  1
  P  P193  1  0.04266748  0.25223180  0.35214693  1
  P  P194  1  0.04356617  0.24994493  0.60299958  1
  P  P195  1  0.04364134  0.25002168  0.85310753  1
  P  P196  1  0.04234847  0.58517871  0.10280283  1
  P  P197  1  0.04285754  0.58513038  0.35196615  1
  P  P198  1  0.04368664  0.58373567  0.60288336  1
  P  P199  1  0.04331876  0.58403672  0.85370010  1
  P  P200  1  0.04323558  0.91622936  0.10350967  1
  P  P201  1  0.04352981  0.91693263  0.35325687  1
  P  P202  1  0.04318601  0.91713386  0.60382906  1
  P  P203  1  0.04211944  0.91741346  0.85270775  1
  P  P204  1  0.54279033  0.24959948  0.10344995  1
  P  P205  1  0.54200641  0.25166463  0.35371649  1
  P  P206  1  0.54122511  0.24957604  0.60235149  1
  P  P207  1  0.54161238  0.24958851  0.85077566  1
  P  P208  1  0.54146411  0.58122355  0.10253833  1
  P  P209  1  0.54215724  0.58483511  0.35306031  1
  P  P210  1  0.54176269  0.58173809  0.60352040  1
  P  P211  1  0.54100894  0.58208687  0.85135804  1
  P  P212  1  0.54245877  0.91596408  0.10301941  1
  P  P213  1  0.54201792  0.91821341  0.35290784  1
  P  P214  1  0.54148695  0.91496483  0.60352169  1
  P  P215  1  0.54080677  0.91581244  0.85072231  1
  P  P216  1  0.45758368  0.08173032  0.14805078  1
  P  P217  1  0.45774982  0.08505240  0.39804311  1
  P  P218  1  0.45842813  0.08365615  0.64803798  1
  P  P219  1  0.45738834  0.08322886  0.89543595  1
  P  P220  1  0.45756456  0.41501526  0.14825912  1
  P  P221  1  0.45890278  0.41709973  0.39929345  1
  P  P222  1  0.45915188  0.41630449  0.64777451  1
  P  P223  1  0.45814887  0.41755011  0.89668286  1
  P  P224  1  0.45757241  0.74766064  0.14787981  1
  P  P225  1  0.45809683  0.75143915  0.39798859  1
  P  P226  1  0.45854708  0.74953556  0.64831780  1
  P  P227  1  0.45735554  0.74917426  0.89547918  1
  P  P228  1  0.95691402  0.08345550  0.14665388  1
  P  P229  1  0.95696152  0.08409189  0.39653178  1
  P  P230  1  0.95774677  0.08201753  0.64769235  1
  P  P231  1  0.95693101  0.08270341  0.89640028  1
  P  P232  1  0.95756172  0.41612915  0.14726384  1
  P  P233  1  0.95722053  0.41721116  0.39570365  1
  P  P234  1  0.95696964  0.41712482  0.64644569  1
  P  P235  1  0.95673599  0.41696216  0.89666156  1
  P  P236  1  0.95759839  0.74837165  0.14721122  1
  P  P237  1  0.95705260  0.75007619  0.39612775  1
  P  P238  1  0.95660061  0.75038654  0.64687628  1
  P  P239  1  0.95728505  0.74898421  0.89788617  1
  P  P240  1  0.20876305  0.08539205  0.22860243  1
  P  P241  1  0.20829667  0.08507270  0.47806896  1
  P  P242  1  0.20803910  0.08331345  0.72929489  1
  P  P243  1  0.20834266  0.08217924  0.97828204  1
  P  P244  1  0.20860369  0.41881450  0.22847743  1
  P  P245  1  0.20926579  0.41758511  0.47719852  1
  P  P246  1  0.20940125  0.41712079  0.72692053  1
  P  P247  1  0.20912841  0.41698092  0.97681225  1
  P  P248  1  0.20879275  0.75134691  0.22855822  1
  P  P249  1  0.20962473  0.75003573  0.47769675  1
  P  P250  1  0.20916525  0.75015938  0.72689585  1
  P  P251  1  0.20822132  0.75091621  0.97793150  1
  P  P252  1  0.70814251  0.08239470  0.22620484  1
  P  P253  1  0.70769915  0.08149843  0.47747085  1
  P  P254  1  0.70812336  0.08188517  0.72599343  1
  P  P255  1  0.70683647  0.08087901  0.97758419  1
  P  P256  1  0.70755169  0.41828288  0.22747487  1
  P  P257  1  0.70763537  0.41833417  0.47701409  1
  P  P258  1  0.70655493  0.41673731  0.72794292  1
  P  P259  1  0.70670822  0.41648147  0.97843885  1
  P  P260  1  0.70797634  0.75052028  0.22635292  1
  P  P261  1  0.70719736  0.75170548  0.47710944  1
  P  P262  1  0.70753560  0.74878150  0.72793196  1
  P  P263  1  0.70795944  0.74960557  0.97688789  1
  P  P264  1  0.29286763  0.24904876  0.02286498  1
  P  P265  1  0.29188392  0.25044853  0.27409381  1
  P  P266  1  0.29239877  0.25215679  0.52230461  1
  P  P267  1  0.29245665  0.25244527  0.77259856  1
  P  P268  1  0.29234559  0.58151774  0.02237995  1
  P  P269  1  0.29187821  0.58362163  0.27397646  1
  P  P270  1  0.29182436  0.58378243  0.52330814  1
  P  P271  1  0.29203056  0.58242503  0.77167158  1
  P  P272  1  0.29239852  0.91509169  0.02236785  1
  P  P273  1  0.29288880  0.91545554  0.27319805  1
  P  P274  1  0.29274492  0.91542169  0.52288924  1
  P  P275  1  0.29131912  0.91618103  0.77364609  1
  P  P276  1  0.79184770  0.24775153  0.02209902  1
  P  P277  1  0.79223394  0.24932729  0.27061066  1
  P  P278  1  0.79166687  0.24859744  0.52196696  1
  P  P279  1  0.79197812  0.24870162  0.77068226  1
  P  P280  1  0.79046955  0.58380778  0.02311402  1
  P  P281  1  0.79128282  0.58246717  0.27121690  1
  P  P282  1  0.79174505  0.58542530  0.52194616  1
  P  P283  1  0.79168385  0.58526040  0.77246522  1
  P  P284  1  0.79083959  0.91569926  0.02260892  1
  P  P285  1  0.79079614  0.91634843  0.27216143  1
  P  P286  1  0.79192725  0.91768924  0.52153325  1
  P  P287  1  0.79053543  0.91653403  0.77333331  1
  O  O288  1  0.03790105  0.25160890  0.18345698  1
  O  O289  1  0.03750210  0.25162997  0.43212574  1
  O  O290  1  0.03875371  0.24978478  0.68300132  1
  O  O291  1  0.03862496  0.24992595  0.93308798  1
  O  O292  1  0.03710059  0.58517538  0.18276029  1
  O  O293  1  0.03804072  0.58469479  0.43193572  1
  O  O294  1  0.03891576  0.58363570  0.68289674  1
  O  O295  1  0.03802297  0.58429958  0.93368870  1
  O  O296  1  0.03830894  0.91611454  0.18347614  1
  O  O297  1  0.03856776  0.91688814  0.43327553  1
  O  O298  1  0.03775923  0.91751551  0.68381678  1
  O  O299  1  0.03739633  0.91680792  0.93269618  1
  O  O300  1  0.53773596  0.24999967  0.18336900  1
  O  O301  1  0.53669655  0.25129146  0.43360601  1
  O  O302  1  0.53592998  0.24918141  0.68223315  1
  O  O303  1  0.53707313  0.24964755  0.93080527  1
  O  O304  1  0.53643415  0.58196458  0.18244673  1
  O  O305  1  0.53738179  0.58463249  0.43297326  1
  O  O306  1  0.53629960  0.58165803  0.68336224  1
  O  O307  1  0.53606060  0.58191321  0.93133011  1
  O  O308  1  0.53758224  0.91634437  0.18296492  1
  O  O309  1  0.53679007  0.91777823  0.43282315  1
  O  O310  1  0.53587527  0.91503561  0.68337723  1
  O  O311  1  0.53611841  0.91593005  0.93072471  1
  O  O312  1  0.46241180  0.08188049  0.06803067  1
  O  O313  1  0.46292079  0.08470112  0.31814269  1
  O  O314  1  0.46324961  0.08391308  0.56803704  1
  O  O315  1  0.46265243  0.08341007  0.81551091  1
  O  O316  1  0.46257745  0.41539161  0.06833062  1
  O  O317  1  0.46366905  0.41678094  0.31932559  1
  O  O318  1  0.46427416  0.41617114  0.56791566  1
  O  O319  1  0.46364041  0.41749501  0.81684975  1
  O  O320  1  0.46245835  0.74755158  0.06787274  1
  O  O321  1  0.46337568  0.75093348  0.31809489  1
  O  O322  1  0.46351162  0.74992395  0.56835385  1
  O  O323  1  0.46272788  0.74934939  0.81559928  1
  O  O324  1  0.96199025  0.08339834  0.06668135  1
  O  O325  1  0.96189313  0.08423979  0.31655620  1
  O  O326  1  0.96267155  0.08257150  0.56769340  1
  O  O327  1  0.96232042  0.08196258  0.81643858  1
  O  O328  1  0.96255511  0.41661953  0.06729307  1
  O  O329  1  0.96254764  0.41679138  0.31573463  1
  O  O330  1  0.96187951  0.41738957  0.56639564  1
  O  O331  1  0.96176584  0.41710441  0.81665728  1
  O  O332  1  0.96284398  0.74828255  0.06725715  1
  O  O333  1  0.96220675  0.74946234  0.31614852  1
  O  O334  1  0.96150749  0.75067807  0.56689228  1
  O  O335  1  0.96213147  0.74960203  0.81790624  1
  O  O336  1  0.21379815  0.08255268  0.05820898  1
  O  O337  1  0.21413513  0.08563215  0.30853137  1
  O  O338  1  0.21350646  0.08473964  0.55801686  1
  O  O339  1  0.21333508  0.08271854  0.80920529  1
  O  O340  1  0.21413570  0.41705280  0.05674602  1
  O  O341  1  0.21387067  0.41893546  0.30829616  1
  O  O342  1  0.21430339  0.41700248  0.55705830  1
  O  O343  1  0.21426205  0.41737232  0.80680901  1
  O  O344  1  0.21361865  0.75085059  0.05781602  1
  O  O345  1  0.21417526  0.75109063  0.30839289  1
  O  O346  1  0.21468457  0.74944936  0.55756591  1
  O  O347  1  0.21390290  0.75054230  0.80687137  1
  O  O348  1  0.71228832  0.08159947  0.05741038  1
  O  O349  1  0.71301322  0.08173836  0.30615175  1
  O  O350  1  0.71318692  0.08178588  0.55730265  1
  O  O351  1  0.71248395  0.08180014  0.80594449  1
  O  O352  1  0.71198293  0.41693161  0.05838662  1
  O  O353  1  0.71320087  0.41866750  0.30737715  1
  O  O354  1  0.71288002  0.41792752  0.55694036  1
  O  O355  1  0.71148863  0.41650017  0.80790725  1
  O  O356  1  0.71283291  0.75021355  0.05677061  1
  O  O357  1  0.71289337  0.75064700  0.30627080  1
  O  O358  1  0.71231730  0.75107551  0.55701425  1
  O  O359  1  0.71274002  0.74867359  0.80776566  1
  O  O360  1  0.28735154  0.25032961  0.19411563  1
  O  O361  1  0.28690591  0.25156826  0.44247199  1
  O  O362  1  0.28717647  0.25281141  0.69269541  1
  O  O363  1  0.28746973  0.24973392  0.94302170  1
  O  O364  1  0.28711701  0.58381069  0.19405679  1
  O  O365  1  0.28697453  0.58348708  0.44342061  1
  O  O366  1  0.28678494  0.58303703  0.69185103  1
  O  O367  1  0.28695423  0.58139637  0.94249442  1
  O  O368  1  0.28773048  0.91547249  0.19325574  1
  O  O369  1  0.28766638  0.91535278  0.44298167  1
  O  O370  1  0.28653742  0.91606382  0.69366956  1
  O  O371  1  0.28645562  0.91554427  0.94254567  1
  O  O372  1  0.78676266  0.24881260  0.19072476  1
  O  O373  1  0.78686718  0.24885901  0.44195924  1
  O  O374  1  0.78666994  0.24849727  0.69075230  1
  O  O375  1  0.78646801  0.24786650  0.94213004  1
  O  O376  1  0.78583841  0.58248562  0.19139040  1
  O  O377  1  0.78637443  0.58477953  0.44203275  1
  O  O378  1  0.78667894  0.58564066  0.69251864  1
  O  O379  1  0.78560889  0.58451497  0.94317576  1
  O  O380  1  0.78553411  0.91592569  0.19231124  1
  O  O381  1  0.78652850  0.91753293  0.44173279  1
  O  O382  1  0.78601041  0.91665320  0.69338190  1
  O  O383  1  0.78582610  0.91608758  0.94274696  1
  O  O384  1  0.22869904  0.24907720  0.05904865  1
  O  O385  1  0.22765144  0.25020345  0.30987162  1
  O  O386  1  0.22833149  0.25249007  0.55869516  1
  O  O387  1  0.22831373  0.25231432  0.80869137  1
  O  O388  1  0.22821638  0.58203499  0.05861034  1
  O  O389  1  0.22770059  0.58305353  0.30998869  1
  O  O390  1  0.22777800  0.58449830  0.55960149  1
  O  O391  1  0.22800220  0.58207323  0.80811321  1
  O  O392  1  0.22849181  0.91500669  0.05926696  1
  O  O393  1  0.22868887  0.91543630  0.30913626  1
  O  O394  1  0.22845378  0.91553479  0.55854605  1
  O  O395  1  0.22721919  0.91631087  0.80989298  1
  O  O396  1  0.72761051  0.24776482  0.05794044  1
  O  O397  1  0.72804576  0.24955608  0.30641957  1
  O  O398  1  0.72729303  0.24861067  0.55729041  1
  O  O399  1  0.72763473  0.24874445  0.80616854  1
  O  O400  1  0.72628812  0.58315492  0.05906257  1
  O  O401  1  0.72721463  0.58230048  0.30767087  1
  O  O402  1  0.72749329  0.58582968  0.55794828  1
  O  O403  1  0.72727319  0.58535960  0.80801511  1
  O  O404  1  0.72671822  0.91493059  0.05886270  1
  O  O405  1  0.72677641  0.91655962  0.30887706  1
  O  O406  1  0.72777803  0.91795571  0.55789360  1
  O  O407  1  0.72625971  0.91677683  0.80913397  1
  O  O408  1  0.27293872  0.08508403  0.19251711  1
  O  O409  1  0.27263626  0.08507397  0.44250014  1
  O  O410  1  0.27233119  0.08365927  0.69368216  1
  O  O411  1  0.27240486  0.08189490  0.94198571  1
  O  O412  1  0.27279991  0.41872865  0.19233241  1
  O  O413  1  0.27333372  0.41826787  0.44084589  1
  O  O414  1  0.27352074  0.41679221  0.69063919  1
  O  O415  1  0.27328073  0.41684837  0.94060856  1
  O  O416  1  0.27289452  0.75141024  0.19214052  1
  O  O417  1  0.27366426  0.75020320  0.44129115  1
  O  O418  1  0.27336833  0.74937027  0.69090224  1
  O  O419  1  0.27234666  0.75099368  0.94174245  1
  O  O420  1  0.77221132  0.08295021  0.19000886  1
  O  O421  1  0.77178735  0.08074935  0.44106273  1
  O  O422  1  0.77238729  0.08161621  0.69016428  1
  O  O423  1  0.77105356  0.08036674  0.94143643  1
  O  O424  1  0.77160072  0.41815048  0.19109515  1
  O  O425  1  0.77187578  0.41862541  0.44112765  1
  O  O426  1  0.77098775  0.41683782  0.69285173  1
  O  O427  1  0.77100561  0.41670731  0.94292187  1
  O  O428  1  0.77208939  0.75094277  0.19017328  1
  O  O429  1  0.77139580  0.75188483  0.44112427  1
  O  O430  1  0.77167717  0.74875938  0.69161602  1
  O  O431  1  0.77209963  0.74936575  0.94069473  1
  O  O432  1  0.02140182  0.08380579  0.18144389  1
  O  O433  1  0.02155941  0.08404367  0.43113565  1
  O  O434  1  0.02218888  0.08141990  0.68282792  1
  O  O435  1  0.02136744  0.08302357  0.93147691  1
  O  O436  1  0.02199054  0.41600760  0.18245985  1
  O  O437  1  0.02167106  0.41715856  0.43079513  1
  O  O438  1  0.02161188  0.41707618  0.68097061  1
  O  O439  1  0.02132152  0.41752928  0.93123405  1
  O  O440  1  0.02195492  0.74823031  0.18268643  1
  O  O441  1  0.02152468  0.75050694  0.43108957  1
  O  O442  1  0.02119803  0.75087999  0.68139649  1
  O  O443  1  0.02181318  0.74838900  0.93289380  1
  O  O444  1  0.52201261  0.08183586  0.18326226  1
  O  O445  1  0.52195709  0.08493612  0.43377627  1
  O  O446  1  0.52261388  0.08382351  0.68367443  1
  O  O447  1  0.52165389  0.08315670  0.93102317  1
  O  O448  1  0.52187912  0.41500846  0.18383781  1
  O  O449  1  0.52306285  0.41707642  0.43510313  1
  O  O450  1  0.52310608  0.41680251  0.68405220  1
  O  O451  1  0.52222094  0.41804655  0.93296893  1
  O  O452  1  0.52199142  0.74785582  0.18309528  1
  O  O453  1  0.52228440  0.75147413  0.43383948  1
  O  O454  1  0.52263851  0.75010417  0.68417244  1
  O  O455  1  0.52156992  0.74882410  0.93116259  1
  O  O456  1  0.47844313  0.24975128  0.06819140  1
  O  O457  1  0.47785872  0.25153237  0.31765753  1
  O  O458  1  0.47724051  0.24996204  0.56596985  1
  O  O459  1  0.47731588  0.24905103  0.81541942  1
  O  O460  1  0.47719104  0.58074226  0.06686627  1
  O  O461  1  0.47776542  0.58487507  0.31768126  1
  O  O462  1  0.47768445  0.58165763  0.56738274  1
  O  O463  1  0.47693266  0.58174373  0.81541622  1
  O  O464  1  0.47804201  0.91564353  0.06795231  1
  O  O465  1  0.47782721  0.91811014  0.31704739  1
  O  O466  1  0.47742988  0.91486072  0.56732179  1
  O  O467  1  0.47656600  0.91539241  0.81524478  1
  O  O468  1  0.97887599  0.25048868  0.06835134  1
  O  O469  1  0.97829168  0.25277558  0.31676987  1
  O  O470  1  0.97888798  0.25013426  0.56858364  1
  O  O471  1  0.97914408  0.24971475  0.81835011  1
  O  O472  1  0.97798770  0.58545760  0.06726613  1
  O  O473  1  0.97837923  0.58508247  0.31690866  1
  O  O474  1  0.97904810  0.58360350  0.56843494  1
  O  O475  1  0.97887208  0.58372634  0.81867773  1
  O  O476  1  0.97866986  0.91600912  0.06891942  1
  O  O477  1  0.97896356  0.91665195  0.31865339  1
  O  O478  1  0.97876803  0.91696411  0.56870090  1
  O  O479  1  0.97760160  0.91789327  0.81777401  1
  O  O480  1  0.07463015  0.31394630  0.07480834  1
  O  O481  1  0.07359448  0.31577377  0.32396003  1
  O  O482  1  0.07454177  0.31341425  0.57465323  1
  O  O483  1  0.07435820  0.31372469  0.82493841  1
  O  O484  1  0.07354700  0.64830974  0.07402284  1
  O  O485  1  0.07333525  0.64884713  0.32360384  1
  O  O486  1  0.07445017  0.64740388  0.57469552  1
  O  O487  1  0.07440873  0.64743411  0.82524274  1
  O  O488  1  0.07422278  0.97975251  0.07538882  1
  O  O489  1  0.07438338  0.98057308  0.32517991  1
  O  O490  1  0.07452934  0.98031841  0.57529258  1
  O  O491  1  0.07294032  0.98090528  0.82424359  1
  O  O492  1  0.57422384  0.31267249  0.07475657  1
  O  O493  1  0.57253211  0.31537193  0.32496044  1
  O  O494  1  0.57246991  0.31316429  0.57428871  1
  O  O495  1  0.57163667  0.31378323  0.82243142  1
  O  O496  1  0.57255244  0.64466116  0.07402493  1
  O  O497  1  0.57258407  0.64852254  0.32408496  1
  O  O498  1  0.57291063  0.64544190  0.57569057  1
  O  O499  1  0.57113347  0.64632395  0.82300558  1
  O  O500  1  0.57348883  0.97916959  0.07411409  1
  O  O501  1  0.57228303  0.98215054  0.32440784  1
  O  O502  1  0.57260806  0.97864435  0.57556899  1
  O  O503  1  0.57094815  0.97987139  0.82221356  1
  O  O504  1  0.42715449  0.01806957  0.17681670  1
  O  O505  1  0.42627588  0.02170327  0.42614835  1
  O  O506  1  0.42820002  0.01938095  0.67611319  1
  O  O507  1  0.42626394  0.01970960  0.92377620  1
  O  O508  1  0.42711797  0.35137024  0.17719651  1
  O  O509  1  0.42778030  0.35378105  0.42791498  1
  O  O510  1  0.42881628  0.35235650  0.67655155  1
  O  O511  1  0.42734255  0.35372241  0.92476936  1
  O  O512  1  0.42707557  0.68408210  0.17680752  1
  O  O513  1  0.42675730  0.68803640  0.42614371  1
  O  O514  1  0.42867898  0.68505247  0.67629828  1
  O  O515  1  0.42596555  0.68577148  0.92370947  1
  O  O516  1  0.92610929  0.01977262  0.17472802  1
  O  O517  1  0.92601655  0.02056296  0.42471140  1
  O  O518  1  0.92691910  0.01845426  0.67612623  1
  O  O519  1  0.92568515  0.01953346  0.92520690  1
  O  O520  1  0.92683328  0.35255357  0.17556356  1
  O  O521  1  0.92572471  0.35418120  0.42440899  1
  O  O522  1  0.92611223  0.35344800  0.67448405  1
  O  O523  1  0.92602245  0.35324859  0.92471863  1
  O  O524  1  0.92657839  0.68514301  0.17610219  1
  O  O525  1  0.92598136  0.68675429  0.42475947  1
  O  O526  1  0.92609693  0.68663735  0.67508367  1
  O  O527  1  0.92643060  0.68552000  0.92633152  1
  O  O528  1  0.17761691  0.02153531  0.20136360  1
  O  O529  1  0.17725323  0.02142900  0.45030826  1
  O  O530  1  0.17685089  0.02016383  0.70071931  1
  O  O531  1  0.17751073  0.01854138  0.95009454  1
  O  O532  1  0.17748445  0.35524702  0.20040552  1
  O  O533  1  0.17889465  0.35387945  0.44816562  1
  O  O534  1  0.17814561  0.35378684  0.69855082  1
  O  O535  1  0.17853718  0.35305780  0.94875083  1
  O  O536  1  0.17767675  0.68778973  0.20037992  1
  O  O537  1  0.17893498  0.68642951  0.44872557  1
  O  O538  1  0.17785933  0.68670904  0.69904229  1
  O  O539  1  0.17739495  0.68706739  0.95022099  1
  O  O540  1  0.67768644  0.01867530  0.19750038  1
  O  O541  1  0.67622896  0.01845333  0.44885051  1
  O  O542  1  0.67686579  0.01859101  0.69774083  1
  O  O543  1  0.67580145  0.01741496  0.94919255  1
  O  O544  1  0.67644117  0.35433668  0.20049136  1
  O  O545  1  0.67670901  0.35459766  0.44929072  1
  O  O546  1  0.67551074  0.35340739  0.69963345  1
  O  O547  1  0.67595981  0.35261183  0.95073443  1
  O  O548  1  0.67793619  0.68627228  0.19816477  1
  O  O549  1  0.67588261  0.68840210  0.44888561  1
  O  O550  1  0.67659853  0.68557354  0.69890600  1
  O  O551  1  0.67674599  0.68606750  0.94888107  1
  O  O552  1  0.32432261  0.31230759  0.05101000  1
  O  O553  1  0.32195142  0.31468889  0.30231508  1
  O  O554  1  0.32347188  0.31565651  0.55048065  1
  O  O555  1  0.32342530  0.31564301  0.80142868  1
  O  O556  1  0.32367072  0.64520301  0.04983323  1
  O  O557  1  0.32191878  0.64765791  0.30265679  1
  O  O558  1  0.32345852  0.64691827  0.55154924  1
  O  O559  1  0.32304738  0.64590592  0.80010725  1
  O  O560  1  0.32379610  0.97852865  0.05044281  1
  O  O561  1  0.32367257  0.97940159  0.30080956  1
  O  O562  1  0.32382185  0.97916419  0.55058912  1
  O  O563  1  0.32202656  0.97999998  0.80164403  1
  O  O564  1  0.82302916  0.31146336  0.04942872  1
  O  O565  1  0.82327897  0.31303666  0.29825172  1
  O  O566  1  0.82303955  0.31207221  0.54956796  1
  O  O567  1  0.82298334  0.31224970  0.79886932  1
  O  O568  1  0.82083844  0.64752137  0.05197494  1
  O  O569  1  0.82231917  0.64620127  0.29902777  1
  O  O570  1  0.82241110  0.64917264  0.55000283  1
  O  O571  1  0.82277986  0.64824081  0.80156870  1
  O  O572  1  0.82104579  0.97951387  0.05164923  1
  O  O573  1  0.82185648  0.97994081  0.30020357  1
  O  O574  1  0.82308412  0.98080443  0.55048414  1
  O  O575  1  0.82179130  0.97965741  0.80186506  1
  O  O576  1  0.42649490  0.14528229  0.17597897  1
  O  O577  1  0.42723494  0.14874588  0.42657179  1
  O  O578  1  0.42695166  0.14680035  0.67634748  1
  O  O579  1  0.42625660  0.14650886  0.92422298  1
  O  O580  1  0.42629520  0.47837025  0.17653883  1
  O  O581  1  0.42841540  0.48115266  0.42725684  1
  O  O582  1  0.42756096  0.47951302  0.67596150  1
  O  O583  1  0.42700194  0.48070701  0.92565481  1
  O  O584  1  0.42652176  0.81129724  0.17554894  1
  O  O585  1  0.42761153  0.81516668  0.42640481  1
  O  O586  1  0.42671935  0.81244295  0.67667335  1
  O  O587  1  0.42633956  0.81248541  0.92426146  1
  O  O588  1  0.92573998  0.14684731  0.17463892  1
  O  O589  1  0.92611252  0.14766124  0.42477218  1
  O  O590  1  0.92699114  0.14573746  0.67562088  1
  O  O591  1  0.92597643  0.14645338  0.92407117  1
  O  O592  1  0.92659531  0.47984509  0.17501797  1
  O  O593  1  0.92653146  0.48107097  0.42357199  1
  O  O594  1  0.92598979  0.48052458  0.67481177  1
  O  O595  1  0.92536843  0.48018660  0.92500237  1
  O  O596  1  0.92676946  0.81224514  0.17489151  1
  O  O597  1  0.92599568  0.81368117  0.42399663  1
  O  O598  1  0.92518030  0.81355307  0.67530447  1
  O  O599  1  0.92665016  0.81276349  0.92595711  1
  O  O600  1  0.07415759  0.18698717  0.07586314  1
  O  O601  1  0.07342659  0.18845217  0.32429952  1
  O  O602  1  0.07432748  0.18637637  0.57470122  1
  O  O603  1  0.07486084  0.18663921  0.82507924  1
  O  O604  1  0.07303055  0.52116041  0.07519870  1
  O  O605  1  0.07396529  0.52163977  0.32391617  1
  O  O606  1  0.07467680  0.52041522  0.57437137  1
  O  O607  1  0.07444641  0.52056699  0.82553569  1
  O  O608  1  0.07423518  0.85275307  0.07528850  1
  O  O609  1  0.07464965  0.85353603  0.32514384  1
  O  O610  1  0.07413815  0.85349487  0.57580611  1
  O  O611  1  0.07284136  0.85364068  0.82467063  1
  O  O612  1  0.57342932  0.18581369  0.07525005  1
  O  O613  1  0.57352697  0.18837638  0.32544757  1
  O  O614  1  0.57194078  0.18593638  0.57366848  1
  O  O615  1  0.57293414  0.18630223  0.82250326  1
  O  O616  1  0.57208981  0.51757588  0.07415429  1
  O  O617  1  0.57328050  0.52142080  0.32488036  1
  O  O618  1  0.57278141  0.51851136  0.57451818  1
  O  O619  1  0.57264465  0.51902686  0.82317202  1
  O  O620  1  0.57333603  0.85226033  0.07485418  1
  O  O621  1  0.57348821  0.85497333  0.32480396  1
  O  O622  1  0.57250512  0.85163744  0.57477501  1
  O  O623  1  0.57215254  0.85237407  0.82299150  1
  O  O624  1  0.32327650  0.18513555  0.05108179  1
  O  O625  1  0.32323647  0.18728519  0.30268266  1
  O  O626  1  0.32355991  0.18869911  0.55077122  1
  O  O627  1  0.32342249  0.18853025  0.79991105  1
  O  O628  1  0.32300436  0.51812419  0.05133442  1
  O  O629  1  0.32351978  0.52051082  0.30223998  1
  O  O630  1  0.32197515  0.51975529  0.55207401  1
  O  O631  1  0.32310479  0.51897521  0.80006469  1
  O  O632  1  0.32347357  0.85157899  0.05063038  1
  O  O633  1  0.32397000  0.85224479  0.30187439  1
  O  O634  1  0.32352271  0.85209050  0.55192659  1
  O  O635  1  0.32222075  0.85251593  0.80177408  1
  O  O636  1  0.82252202  0.18410177  0.05027973  1
  O  O637  1  0.82354726  0.18613131  0.29905448  1
  O  O638  1  0.82195540  0.18471173  0.55046493  1
  O  O639  1  0.82322959  0.18535509  0.79891614  1
  O  O640  1  0.82167613  0.52011839  0.05071274  1
  O  O641  1  0.82237368  0.51925809  0.30017499  1
  O  O642  1  0.82293692  0.52200092  0.55017390  1
  O  O643  1  0.82232543  0.52119378  0.80009418  1
  O  O644  1  0.82242537  0.85242831  0.05076959  1
  O  O645  1  0.82152089  0.85268496  0.30083718  1
  O  O646  1  0.82290832  0.85404772  0.54979331  1
  O  O647  1  0.82063847  0.85235517  0.80171786  1
  O  O648  1  0.17795681  0.14867923  0.19959517  1
  O  O649  1  0.17756302  0.14868566  0.44983121  1
  O  O650  1  0.17702939  0.14708377  0.70163738  1
  O  O651  1  0.17707037  0.14571834  0.95049764  1
  O  O652  1  0.17775935  0.48214806  0.19934109  1
  O  O653  1  0.17779276  0.48104344  0.44933358  1
  O  O654  1  0.17889385  0.48087191  0.69798261  1
  O  O655  1  0.17810191  0.48042068  0.94837357  1
  O  O656  1  0.17786788  0.81474896  0.19988068  1
  O  O657  1  0.17847013  0.81360343  0.44960070  1
  O  O658  1  0.17894317  0.81407028  0.69824386  1
  O  O659  1  0.17707354  0.81411626  0.94923838  1
  O  O660  1  0.67708572  0.14616016  0.19850496  1
  O  O661  1  0.67692526  0.14531564  0.44929280  1
  O  O662  1  0.67814798  0.14598211  0.69722231  1
  O  O663  1  0.67580781  0.14429391  0.94885548  1
  O  O664  1  0.67641349  0.48143608  0.19864290  1
  O  O665  1  0.67682291  0.48199736  0.44902448  1
  O  O666  1  0.67572078  0.48042746  0.70004908  1
  O  O667  1  0.67523750  0.47960242  0.94998825  1
  O  O668  1  0.67631556  0.81352120  0.19801024  1
  O  O669  1  0.67663364  0.81544698  0.44878681  1
  O  O670  1  0.67651364  0.81250002  0.69997461  1
  O  O671  1  0.67742337  0.81321413  0.94763259  1
