# generated using pymatgen
data_Na2MnFe(PO4)2
_symmetry_space_group_name_H-M   'P 1'
_cell_length_a   22.34496530
_cell_length_b   20.09785042
_cell_length_c   19.44799439
_cell_angle_alpha   90.01099917
_cell_angle_beta   90.04206050
_cell_angle_gamma   89.94805705
_symmetry_Int_Tables_number   1
_chemical_formula_structural   Na2MnFe(PO4)2
_chemical_formula_sum   'Na96 Mn48 Fe48 P96 O384'
_cell_volume   8733.81143699
_cell_formula_units_Z   48
loop_
 _symmetry_equiv_pos_site_id
 _symmetry_equiv_pos_as_xyz
  1  'x, y, z'
loop_
 _atom_site_type_symbol
 _atom_site_label
 _atom_site_symmetry_multiplicity
 _atom_site_fract_x
 _atom_site_fract_y
 _atom_site_fract_z
 _atom_site_occupancy
  Na  Na0  1  0.13966658  0.24845692  0.24362253  1
  Na  Na1  1  0.14019419  0.25056214  0.49310232  1
  Na  Na2  1  0.14043640  0.24956883  0.74335928  1
  Na  Na3  1  0.13980303  0.24948050  0.99442674  1
  Na  Na4  1  0.13960687  0.58412250  0.24455190  1
  Na  Na5  1  0.13941522  0.58394504  0.49440181  1
  Na  Na6  1  0.13987330  0.58320961  0.74254536  1
  Na  Na7  1  0.13979958  0.58435001  0.99398261  1
  Na  Na8  1  0.14006508  0.91770626  0.24369150  1
  Na  Na9  1  0.14060803  0.91817298  0.49479082  1
  Na  Na10  1  0.13973430  0.91648233  0.74351092  1
  Na  Na11  1  0.13943163  0.91843837  0.99326002  1
  Na  Na12  1  0.64043892  0.24899955  0.24399712  1
  Na  Na13  1  0.64073590  0.24840836  0.49361999  1
  Na  Na14  1  0.64042841  0.24822597  0.74331577  1
  Na  Na15  1  0.64071876  0.24865457  0.99251208  1
  Na  Na16  1  0.64028339  0.58274802  0.24452221  1
  Na  Na17  1  0.63974825  0.58357450  0.49305842  1
  Na  Na18  1  0.63983836  0.58342587  0.74267353  1
  Na  Na19  1  0.64040530  0.58426994  0.99250131  1
  Na  Na20  1  0.64034376  0.91586778  0.24336923  1
  Na  Na21  1  0.64130895  0.91699236  0.49442426  1
  Na  Na22  1  0.64098081  0.91588774  0.74449066  1
  Na  Na23  1  0.64024099  0.91759022  0.99263847  1
  Na  Na24  1  0.36033639  0.08377600  0.00581655  1
  Na  Na25  1  0.36052675  0.08338635  0.25640430  1
  Na  Na26  1  0.36007452  0.08516599  0.50513534  1
  Na  Na27  1  0.35994335  0.08341372  0.75549489  1
  Na  Na28  1  0.35965400  0.41638780  0.00425204  1
  Na  Na29  1  0.35939314  0.41643829  0.25611949  1
  Na  Na30  1  0.35959374  0.41800172  0.50782865  1
  Na  Na31  1  0.35983968  0.41602667  0.75522481  1
  Na  Na32  1  0.36029099  0.75095735  0.00629079  1
  Na  Na33  1  0.35960577  0.75120599  0.25561442  1
  Na  Na34  1  0.35979580  0.75016237  0.50776757  1
  Na  Na35  1  0.36047905  0.74951777  0.75637317  1
  Na  Na36  1  0.86046800  0.08318459  0.00681240  1
  Na  Na37  1  0.86018806  0.08202940  0.25668658  1
  Na  Na38  1  0.85984183  0.08264518  0.50597896  1
  Na  Na39  1  0.85959283  0.08252663  0.75771460  1
  Na  Na40  1  0.85869429  0.41651104  0.00613841  1
  Na  Na41  1  0.85931325  0.41590553  0.25751182  1
  Na  Na42  1  0.85974862  0.41627823  0.50618117  1
  Na  Na43  1  0.85934189  0.41561653  0.75557646  1
  Na  Na44  1  0.86018175  0.75090957  0.00711434  1
  Na  Na45  1  0.85938883  0.74879424  0.25682860  1
  Na  Na46  1  0.85950509  0.75079716  0.50695812  1
  Na  Na47  1  0.86027932  0.75037534  0.75757804  1
  Na  Na48  1  0.10950637  0.08204851  0.11889127  1
  Na  Na49  1  0.10988224  0.08409032  0.36701689  1
  Na  Na50  1  0.10955067  0.08314449  0.61840847  1
  Na  Na51  1  0.10962929  0.08287505  0.86881891  1
  Na  Na52  1  0.10856489  0.41628266  0.11956711  1
  Na  Na53  1  0.10905152  0.41683797  0.36956110  1
  Na  Na54  1  0.10929402  0.41764027  0.61728117  1
  Na  Na55  1  0.10892438  0.41743029  0.86848339  1
  Na  Na56  1  0.10854408  0.75049061  0.11912790  1
  Na  Na57  1  0.10921801  0.75049702  0.36983255  1
  Na  Na58  1  0.10927619  0.74953966  0.61951065  1
  Na  Na59  1  0.10887140  0.75095300  0.86913037  1
  Na  Na60  1  0.61019704  0.08184415  0.11845900  1
  Na  Na61  1  0.61010017  0.08319273  0.36861878  1
  Na  Na62  1  0.61083345  0.08339809  0.61913218  1
  Na  Na63  1  0.61047692  0.08223081  0.86740904  1
  Na  Na64  1  0.60951155  0.41708312  0.11909783  1
  Na  Na65  1  0.60981478  0.41641560  0.36860472  1
  Na  Na66  1  0.60953532  0.41661539  0.61817885  1
  Na  Na67  1  0.60921331  0.41599170  0.86698936  1
  Na  Na68  1  0.60947608  0.75056016  0.11751069  1
  Na  Na69  1  0.60940458  0.75057960  0.36920732  1
  Na  Na70  1  0.60994553  0.74881697  0.61897108  1
  Na  Na71  1  0.60946610  0.74941368  0.86850447  1
  Na  Na72  1  0.39092830  0.24903072  0.13077041  1
  Na  Na73  1  0.39061449  0.25039545  0.38149688  1
  Na  Na74  1  0.39076612  0.25073877  0.63125537  1
  Na  Na75  1  0.39033975  0.24900491  0.87988784  1
  Na  Na76  1  0.39069175  0.58418620  0.13003737  1
  Na  Na77  1  0.39036720  0.58353512  0.38233861  1
  Na  Na78  1  0.39073715  0.58342916  0.63239316  1
  Na  Na79  1  0.39056106  0.58376908  0.87968453  1
  Na  Na80  1  0.39070330  0.91807551  0.13104126  1
  Na  Na81  1  0.39069957  0.91870860  0.38125255  1
  Na  Na82  1  0.39088022  0.91718601  0.63121724  1
  Na  Na83  1  0.39121534  0.91578971  0.88112035  1
  Na  Na84  1  0.89055206  0.24836111  0.13128535  1
  Na  Na85  1  0.89049759  0.25084345  0.38120298  1
  Na  Na86  1  0.89029284  0.24930860  0.63151919  1
  Na  Na87  1  0.88990090  0.24866746  0.88198770  1
  Na  Na88  1  0.88997180  0.58317381  0.13175317  1
  Na  Na89  1  0.89025955  0.58282606  0.38208134  1
  Na  Na90  1  0.88987506  0.58444220  0.63076806  1
  Na  Na91  1  0.89047583  0.58481117  0.88132833  1
  Na  Na92  1  0.89016337  0.91656672  0.13163500  1
  Na  Na93  1  0.88988655  0.91647497  0.38147846  1
  Na  Na94  1  0.89056808  0.91631827  0.63301766  1
  Na  Na95  1  0.89067768  0.91659159  0.88280116  1
  Mn  Mn96  1  -0.00083424  0.50087307  -0.00017687  1
  Mn  Mn97  1  0.50083172  0.00120569  0.50093786  1
  Mn  Mn98  1  0.24975011  0.83502857  0.37597182  1
  Mn  Mn99  1  0.25077874  0.00108435  0.87422274  1
  Mn  Mn100  1  0.74995063  0.83353637  0.12536153  1
  Mn  Mn101  1  0.00037701  0.83292023  0.50075782  1
  Mn  Mn102  1  0.00050241  0.16588249  0.75053048  1
  Mn  Mn103  1  0.25060710  0.16596922  0.12479589  1
  Mn  Mn104  1  0.50058761  0.33326162  0.50017347  1
  Mn  Mn105  1  0.25002125  0.66693438  0.87488285  1
  Mn  Mn106  1  0.74977281  0.33188434  0.62534935  1
  Mn  Mn107  1  -0.00038694  0.50024173  0.25021986  1
  Mn  Mn108  1  0.50037217  0.33293439  -0.00067842  1
  Mn  Mn109  1  0.75014088  0.49962355  0.87462929  1
  Mn  Mn110  1  0.75012265  0.16526966  0.37476753  1
  Mn  Mn111  1  -0.00123629  0.50139583  0.74934750  1
  Mn  Mn112  1  0.50076983  -0.00041078  0.74968019  1
  Mn  Mn113  1  -0.00068570  0.83314225  0.25022399  1
  Mn  Mn114  1  0.50133375  0.16531323  -0.00005900  1
  Mn  Mn115  1  -0.00065749  0.16743949  0.49906704  1
  Mn  Mn116  1  0.24899037  0.33259861  0.87481915  1
  Mn  Mn117  1  0.75079297  0.83371156  0.62553175  1
  Mn  Mn118  1  0.50085959  0.83305430  0.50021542  1
  Mn  Mn119  1  0.75069708  0.16525531  0.12463054  1
  Mn  Mn120  1  0.49928613  0.83432120  0.24950610  1
  Mn  Mn121  1  0.24963938  0.50014032  0.12512188  1
  Mn  Mn122  1  0.24981987  0.66746797  0.12511221  1
  Mn  Mn123  1  -0.00003385  0.00011840  0.50023217  1
  Mn  Mn124  1  0.74941932  0.50001286  0.62516869  1
  Mn  Mn125  1  0.24929755  0.83520080  0.12575824  1
  Mn  Mn126  1  0.24996752  0.33285900  0.12501418  1
  Mn  Mn127  1  0.49965216  0.50075936  -0.00146584  1
  Mn  Mn128  1  0.49999943  0.50050060  0.24971363  1
  Mn  Mn129  1  0.25020588  0.83413184  0.87469326  1
  Mn  Mn130  1  0.24952677  0.49982229  0.87419726  1
  Mn  Mn131  1  -0.00086079  0.33248442  0.00006352  1
  Mn  Mn132  1  0.24989969  0.50038703  0.37580358  1
  Mn  Mn133  1  0.74962348  0.33274684  0.12483475  1
  Mn  Mn134  1  0.24929322  0.33304011  0.37528952  1
  Mn  Mn135  1  0.75065446  0.66746739  0.87487355  1
  Mn  Mn136  1  0.25014175  0.66733483  0.37564753  1
  Mn  Mn137  1  -0.00022570  0.33357159  0.75012700  1
  Mn  Mn138  1  0.74961294  0.66665912  0.37508413  1
  Mn  Mn139  1  0.24963171  0.16667440  0.62405569  1
  Mn  Mn140  1  0.74885925  0.50009984  0.12514780  1
  Mn  Mn141  1  0.25072209  0.83407316  0.62467545  1
  Mn  Mn142  1  0.49950620  0.33284883  0.24983620  1
  Mn  Mn143  1  0.50017137  0.66715188  0.24994644  1
  Fe  Fe144  1  0.50045796  0.33279895  0.74900263  1
  Fe  Fe145  1  0.75110827  -0.00022778  0.62546412  1
  Fe  Fe146  1  0.50028725  0.83331519  -0.00022566  1
  Fe  Fe147  1  0.00071392  0.16563226  0.00087201  1
  Fe  Fe148  1  -0.00024925  -0.00026229  0.75083513  1
  Fe  Fe149  1  0.49998942  0.16618251  0.74971158  1
  Fe  Fe150  1  0.24963178  0.49997782  0.62506500  1
  Fe  Fe151  1  0.50034034  0.66655590  0.74971941  1
  Fe  Fe152  1  0.24999410  0.33309473  0.62477999  1
  Fe  Fe153  1  -0.00025285  0.83323529  0.75110787  1
  Fe  Fe154  1  -0.00009440  0.66710743  0.00030118  1
  Fe  Fe155  1  0.00027859  0.66735025  0.75043530  1
  Fe  Fe156  1  0.50025787  0.66692969  -0.00102968  1
  Fe  Fe157  1  -0.00055114  0.33318988  0.25007176  1
  Fe  Fe158  1  0.49977027  -0.00045222  -0.00052621  1
  Fe  Fe159  1  0.49951455  0.66655978  0.50057768  1
  Fe  Fe160  1  0.25035621  0.00086825  0.62455929  1
  Fe  Fe161  1  0.25014900  0.00083999  0.12481054  1
  Fe  Fe162  1  0.74974779  0.66665038  0.12544723  1
  Fe  Fe163  1  0.50087730  0.16633512  0.24993409  1
  Fe  Fe164  1  -0.00109997  0.66702606  0.50048934  1
  Fe  Fe165  1  0.24986602  0.16663935  0.87428747  1
  Fe  Fe166  1  0.75085747  0.16554404  0.62486263  1
  Fe  Fe167  1  0.75002625  0.66703770  0.62463941  1
  Fe  Fe168  1  0.74934476  0.33229078  0.87483416  1
  Fe  Fe169  1  0.75013117  0.49978979  0.37513794  1
  Fe  Fe170  1  0.75030474  0.16580435  0.87462288  1
  Fe  Fe171  1  0.25015948  0.00097943  0.37469904  1
  Fe  Fe172  1  0.50086893  0.00038504  0.24984609  1
  Fe  Fe173  1  0.25033547  0.16669443  0.37505420  1
  Fe  Fe174  1  0.75003120  0.83356966  0.87539977  1
  Fe  Fe175  1  -0.00015694  0.16660148  0.24962748  1
  Fe  Fe176  1  -0.00022866  -0.00044462  0.00033660  1
  Fe  Fe177  1  0.50030662  0.50004093  0.74967123  1
  Fe  Fe178  1  0.50050485  0.16705585  0.49987380  1
  Fe  Fe179  1  0.00003072  -0.00019582  0.24954830  1
  Fe  Fe180  1  -0.00038189  0.50057407  0.49969007  1
  Fe  Fe181  1  0.75053889  0.00014034  0.87496278  1
  Fe  Fe182  1  -0.00050157  0.66667188  0.25051277  1
  Fe  Fe183  1  0.74999749  -0.00059190  0.12457466  1
  Fe  Fe184  1  0.00011004  0.33358528  0.49979604  1
  Fe  Fe185  1  0.49986986  0.50010975  0.50049046  1
  Fe  Fe186  1  -0.00016763  0.83334320  0.00029308  1
  Fe  Fe187  1  0.74961737  0.83288477  0.37487058  1
  Fe  Fe188  1  0.24957674  0.66698301  0.62551922  1
  Fe  Fe189  1  0.75005357  -0.00092631  0.37569930  1
  Fe  Fe190  1  0.50054320  0.83254061  0.75068924  1
  Fe  Fe191  1  0.75006151  0.33246036  0.37528313  1
  P  P192  1  0.04169080  0.24815570  0.10350420  1
  P  P193  1  0.04105096  0.25041221  0.35152503  1
  P  P194  1  0.04210249  0.25095735  0.60208105  1
  P  P195  1  0.04273232  0.24945706  0.85377793  1
  P  P196  1  0.04160584  0.58470849  0.10297946  1
  P  P197  1  0.04160597  0.58476530  0.35355394  1
  P  P198  1  0.04054778  0.58424434  0.60186943  1
  P  P199  1  0.04204024  0.58540491  0.85272474  1
  P  P200  1  0.04077689  0.91663907  0.10197134  1
  P  P201  1  0.04204055  0.91773054  0.35224957  1
  P  P202  1  0.04245028  0.91654275  0.60453848  1
  P  P203  1  0.04107482  0.91682027  0.85267464  1
  P  P204  1  0.54341847  0.24924486  0.10320745  1
  P  P205  1  0.54236546  0.24862437  0.35267032  1
  P  P206  1  0.54252989  0.24854676  0.60313769  1
  P  P207  1  0.54150188  0.24920923  0.85088218  1
  P  P208  1  0.54261367  0.58480754  0.10141573  1
  P  P209  1  0.54246653  0.58354530  0.35419941  1
  P  P210  1  0.54130256  0.58314982  0.60237471  1
  P  P211  1  0.54160644  0.58370056  0.85114173  1
  P  P212  1  0.54148694  0.91711632  0.10132809  1
  P  P213  1  0.54236418  0.91810895  0.35232283  1
  P  P214  1  0.54335659  0.91620756  0.60387868  1
  P  P215  1  0.54222855  0.91481000  0.85315936  1
  P  P216  1  0.45923846  0.08293958  0.14808318  1
  P  P217  1  0.45885313  0.08513163  0.39692152  1
  P  P218  1  0.45825945  0.08480728  0.64708946  1
  P  P219  1  0.45850834  0.08189858  0.89679595  1
  P  P220  1  0.45693217  0.41691765  0.14638718  1
  P  P221  1  0.45764323  0.41774358  0.39817900  1
  P  P222  1  0.45931161  0.41709036  0.64791736  1
  P  P223  1  0.45769591  0.41636094  0.89492449  1
  P  P224  1  0.45746698  0.75065634  0.14574923  1
  P  P225  1  0.45732356  0.74934294  0.39803118  1
  P  P226  1  0.45910444  0.74978330  0.64828782  1
  P  P227  1  0.45882588  0.75013126  0.89751474  1
  P  P228  1  0.95870993  0.08291173  0.14786257  1
  P  P229  1  0.95770978  0.08341002  0.39564106  1
  P  P230  1  0.95756166  0.08193185  0.64820439  1
  P  P231  1  0.95907990  0.08267275  0.89875613  1
  P  P232  1  0.95694647  0.41524694  0.14794949  1
  P  P233  1  0.95866861  0.41648967  0.39810647  1
  P  P234  1  0.95726669  0.41695168  0.64566560  1
  P  P235  1  0.95640690  0.41700812  0.89686022  1
  P  P236  1  0.95730438  0.74859710  0.14737960  1
  P  P237  1  0.95726241  0.74887458  0.39780746  1
  P  P238  1  0.95844274  0.74984537  0.64890329  1
  P  P239  1  0.95868246  0.75027850  0.89831116  1
  P  P240  1  0.20810581  0.08206722  0.22806283  1
  P  P241  1  0.20815110  0.08371685  0.47650463  1
  P  P242  1  0.20751437  0.08267447  0.72710550  1
  P  P243  1  0.20796291  0.08466665  0.97728227  1
  P  P244  1  0.20656479  0.41630429  0.22841414  1
  P  P245  1  0.20726020  0.41687175  0.47942205  1
  P  P246  1  0.20793619  0.41613121  0.72600284  1
  P  P247  1  0.20626591  0.41662519  0.97785437  1
  P  P248  1  0.20658511  0.75106308  0.22868452  1
  P  P249  1  0.20731386  0.75060388  0.47929811  1
  P  P250  1  0.20790365  0.74964432  0.72727878  1
  P  P251  1  0.20707989  0.75115182  0.97818025  1
  P  P252  1  0.70838402  0.08072041  0.22761171  1
  P  P253  1  0.70830865  0.08157923  0.47832198  1
  P  P254  1  0.70946302  0.08269975  0.72733728  1
  P  P255  1  0.70895428  0.08295173  0.97639380  1
  P  P256  1  0.70732439  0.41604836  0.22921679  1
  P  P257  1  0.70880422  0.41618756  0.47660099  1
  P  P258  1  0.70708343  0.41550902  0.72841729  1
  P  P259  1  0.70715004  0.41523703  0.97681447  1
  P  P260  1  0.70739638  0.74882901  0.22767874  1
  P  P261  1  0.70784038  0.75139459  0.47790537  1
  P  P262  1  0.70842872  0.74932245  0.72767076  1
  P  P263  1  0.70802305  0.75161021  0.97778253  1
  P  P264  1  0.29311664  0.24952844  0.02111643  1
  P  P265  1  0.29238804  0.24845752  0.27268138  1
  P  P266  1  0.29233878  0.25114533  0.52208525  1
  P  P267  1  0.29191490  0.24893133  0.77150916  1
  P  P268  1  0.29278535  0.58357357  0.02164522  1
  P  P269  1  0.29292636  0.58379562  0.27232657  1
  P  P270  1  0.29124306  0.58387124  0.52428360  1
  P  P271  1  0.29220235  0.58324085  0.77045185  1
  P  P272  1  0.29226617  0.91876108  0.02256320  1
  P  P273  1  0.29236165  0.91891310  0.27243412  1
  P  P274  1  0.29279992  0.91953425  0.52200708  1
  P  P275  1  0.29324796  0.91741718  0.77092187  1
  P  P276  1  0.79250931  0.24929965  0.02082860  1
  P  P277  1  0.79221651  0.24998526  0.27282054  1
  P  P278  1  0.79217356  0.24835118  0.52220577  1
  P  P279  1  0.79150535  0.24873846  0.77312591  1
  P  P280  1  0.79195202  0.58467893  0.02283000  1
  P  P281  1  0.79204186  0.58212105  0.27263794  1
  P  P282  1  0.79137165  0.58416370  0.52207074  1
  P  P283  1  0.79274457  0.58363706  0.77130329  1
  P  P284  1  0.79201924  0.91785269  0.02194671  1
  P  P285  1  0.79131818  0.91610826  0.27347422  1
  P  P286  1  0.79279552  0.91796050  0.52255148  1
  P  P287  1  0.79184589  0.91659486  0.77388747  1
  O  O288  1  0.03578810  0.24842280  0.18336888  1
  O  O289  1  0.03594585  0.25103389  0.43150584  1
  O  O290  1  0.03728255  0.25048212  0.68205635  1
  O  O291  1  0.03766278  0.24884653  0.93373613  1
  O  O292  1  0.03638531  0.58453393  0.18294458  1
  O  O293  1  0.03592176  0.58450892  0.43341633  1
  O  O294  1  0.03587103  0.58426118  0.68184237  1
  O  O295  1  0.03676912  0.58534190  0.93266607  1
  O  O296  1  0.03597251  0.91687707  0.18191360  1
  O  O297  1  0.03731951  0.91744802  0.43222935  1
  O  O298  1  0.03694173  0.91674233  0.68441892  1
  O  O299  1  0.03610333  0.91644698  0.93256877  1
  O  O300  1  0.53801320  0.24876092  0.18315420  1
  O  O301  1  0.53737161  0.24871325  0.43266010  1
  O  O302  1  0.53687707  0.24860466  0.68298408  1
  O  O303  1  0.53703660  0.24931807  0.93089907  1
  O  O304  1  0.53752401  0.58442713  0.18140395  1
  O  O305  1  0.53715527  0.58346124  0.43415304  1
  O  O306  1  0.53630474  0.58281975  0.68229756  1
  O  O307  1  0.53660069  0.58440877  0.93107064  1
  O  O308  1  0.53657576  0.91777340  0.18131758  1
  O  O309  1  0.53759332  0.91786238  0.43227531  1
  O  O310  1  0.53805165  0.91556187  0.68379177  1
  O  O311  1  0.53641042  0.91511750  0.93300128  1
  O  O312  1  0.46397367  0.08223624  0.06805778  1
  O  O313  1  0.46449548  0.08472790  0.31706592  1
  O  O314  1  0.46363220  0.08521703  0.56718793  1
  O  O315  1  0.46359405  0.08251276  0.81687402  1
  O  O316  1  0.46218330  0.41689496  0.06640305  1
  O  O317  1  0.46229275  0.41745807  0.31817578  1
  O  O318  1  0.46425763  0.41724962  0.56794527  1
  O  O319  1  0.46336509  0.41648364  0.81502923  1
  O  O320  1  0.46282200  0.75080519  0.06584817  1
  O  O321  1  0.46215746  0.74974946  0.31802484  1
  O  O322  1  0.46403700  0.74908222  0.56834144  1
  O  O323  1  0.46423764  0.75041434  0.81761728  1
  O  O324  1  0.96408598  0.08304124  0.06797569  1
  O  O325  1  0.96314648  0.08334718  0.31575124  1
  O  O326  1  0.96230919  0.08233034  0.56823415  1
  O  O327  1  0.96401247  0.08207904  0.81880969  1
  O  O328  1  0.96191485  0.41549778  0.06799258  1
  O  O329  1  0.96351721  0.41627121  0.31812681  1
  O  O330  1  0.96287527  0.41670228  0.56576342  1
  O  O331  1  0.96152933  0.41725326  0.81685837  1
  O  O332  1  0.96289234  0.74892605  0.06754655  1
  O  O333  1  0.96228038  0.74887147  0.31788077  1
  O  O334  1  0.96306862  0.74991747  0.56892357  1
  O  O335  1  0.96378455  0.75062431  0.81842740  1
  O  O336  1  0.21303646  0.08377704  0.05723877  1
  O  O337  1  0.21331756  0.08235210  0.30796120  1
  O  O338  1  0.21309687  0.08330045  0.55650890  1
  O  O339  1  0.21289739  0.08376123  0.80701013  1
  O  O340  1  0.21134409  0.41655782  0.05782410  1
  O  O341  1  0.21165329  0.41634613  0.30845327  1
  O  O342  1  0.21263027  0.41660407  0.55934756  1
  O  O343  1  0.21242141  0.41622467  0.80605067  1
  O  O344  1  0.21185709  0.75129115  0.05819906  1
  O  O345  1  0.21174886  0.75141494  0.30868980  1
  O  O346  1  0.21275685  0.75014547  0.55926081  1
  O  O347  1  0.21289457  0.74985321  0.80726352  1
  O  O348  1  0.71340254  0.08247041  0.05637559  1
  O  O349  1  0.71359591  0.08037662  0.30753742  1
  O  O350  1  0.71384279  0.08205065  0.55819117  1
  O  O351  1  0.71479514  0.08308359  0.80724235  1
  O  O352  1  0.71195522  0.41566217  0.05685848  1
  O  O353  1  0.71309410  0.41603032  0.30912737  1
  O  O354  1  0.71362635  0.41626656  0.55662848  1
  O  O355  1  0.71227523  0.41505257  0.80834435  1
  O  O356  1  0.71295109  0.75085057  0.05772521  1
  O  O357  1  0.71242487  0.74962021  0.30763277  1
  O  O358  1  0.71329872  0.75085934  0.55783455  1
  O  O359  1  0.71342005  0.74989654  0.80759360  1
  O  O360  1  0.28756187  0.24854622  0.19266594  1
  O  O361  1  0.28706531  0.25045193  0.44217031  1
  O  O362  1  0.28643654  0.24974814  0.69155615  1
  O  O363  1  0.28789317  0.24895194  0.94113106  1
  O  O364  1  0.28786771  0.58376378  0.19234561  1
  O  O365  1  0.28696629  0.58366452  0.44423848  1
  O  O366  1  0.28670320  0.58357159  0.69052752  1
  O  O367  1  0.28761092  0.58346983  0.94161498  1
  O  O368  1  0.28718605  0.91898848  0.19244251  1
  O  O369  1  0.28717380  0.91961855  0.44206826  1
  O  O370  1  0.28822873  0.91788867  0.69097067  1
  O  O371  1  0.28748427  0.91827977  0.94255099  1
  O  O372  1  0.78730409  0.24981101  0.19284089  1
  O  O373  1  0.78660475  0.24920284  0.44230051  1
  O  O374  1  0.78661079  0.24803338  0.69309935  1
  O  O375  1  0.78696653  0.24925420  0.94089651  1
  O  O376  1  0.78665647  0.58259297  0.19272326  1
  O  O377  1  0.78604046  0.58348595  0.44211560  1
  O  O378  1  0.78728272  0.58423172  0.69135499  1
  O  O379  1  0.78715600  0.58448334  0.94281604  1
  O  O380  1  0.78640653  0.91632316  0.19349677  1
  O  O381  1  0.78722728  0.91767688  0.44276610  1
  O  O382  1  0.78741468  0.91707616  0.69390529  1
  O  O383  1  0.78681248  0.91740481  0.94211038  1
  O  O384  1  0.22874072  0.24942431  0.05632479  1
  O  O385  1  0.22796215  0.24808299  0.30788199  1
  O  O386  1  0.22801685  0.25175329  0.55762119  1
  O  O387  1  0.22770899  0.24805298  0.80745703  1
  O  O388  1  0.22829963  0.58374851  0.05659014  1
  O  O389  1  0.22840758  0.58388720  0.30718306  1
  O  O390  1  0.22685195  0.58403791  0.55943342  1
  O  O391  1  0.22795969  0.58355459  0.80609017  1
  O  O392  1  0.22779195  0.91950404  0.05772177  1
  O  O393  1  0.22802875  0.91899172  0.30795808  1
  O  O394  1  0.22861308  0.91919049  0.55788999  1
  O  O395  1  0.22883984  0.91750920  0.80600901  1
  O  O396  1  0.72834261  0.24870231  0.05662941  1
  O  O397  1  0.72792878  0.25008352  0.30825108  1
  O  O398  1  0.72806798  0.24715590  0.55827578  1
  O  O399  1  0.72729056  0.24842505  0.80894250  1
  O  O400  1  0.72750553  0.58505334  0.05798263  1
  O  O401  1  0.72785046  0.58184488  0.30845006  1
  O  O402  1  0.72724025  0.58462446  0.55801369  1
  O  O403  1  0.72846205  0.58356158  0.80668298  1
  O  O404  1  0.72782836  0.91794550  0.05794313  1
  O  O405  1  0.72719102  0.91579333  0.30950081  1
  O  O406  1  0.72873681  0.91819986  0.55887198  1
  O  O407  1  0.72761725  0.91592062  0.80946962  1
  O  O408  1  0.27236911  0.08157158  0.19220414  1
  O  O409  1  0.27242932  0.08411770  0.44080196  1
  O  O410  1  0.27181252  0.08242151  0.69143519  1
  O  O411  1  0.27228100  0.08553120  0.94168838  1
  O  O412  1  0.27108163  0.41648871  0.19358355  1
  O  O413  1  0.27150332  0.41653387  0.44381343  1
  O  O414  1  0.27228098  0.41590335  0.69062483  1
  O  O415  1  0.27071320  0.41633717  0.94285599  1
  O  O416  1  0.27100859  0.75128234  0.19367374  1
  O  O417  1  0.27163591  0.75108084  0.44401094  1
  O  O418  1  0.27228485  0.74929683  0.69202995  1
  O  O419  1  0.27162628  0.75091144  0.94342307  1
  O  O420  1  0.77262587  0.08061057  0.19179348  1
  O  O421  1  0.77234358  0.08130251  0.44201976  1
  O  O422  1  0.77344894  0.08280158  0.69076075  1
  O  O423  1  0.77328227  0.08398868  0.94104379  1
  O  O424  1  0.77138640  0.41646993  0.19315767  1
  O  O425  1  0.77295228  0.41606655  0.44085222  1
  O  O426  1  0.77134628  0.41596629  0.69303133  1
  O  O427  1  0.77154725  0.41491581  0.94162616  1
  O  O428  1  0.77173762  0.74862396  0.19217268  1
  O  O429  1  0.77198014  0.75148650  0.44195730  1
  O  O430  1  0.77270570  0.74880919  0.69208949  1
  O  O431  1  0.77241528  0.75213342  0.94240302  1
  O  O432  1  0.02264849  0.08307428  0.18451944  1
  O  O433  1  0.02185794  0.08374559  0.43157223  1
  O  O434  1  0.02205032  0.08136892  0.68331112  1
  O  O435  1  0.02317969  0.08282267  0.93485878  1
  O  O436  1  0.02128296  0.41527457  0.18349821  1
  O  O437  1  0.02269004  0.41636965  0.43431801  1
  O  O438  1  0.02138328  0.41734953  0.68174202  1
  O  O439  1  0.02077623  0.41689103  0.93202202  1
  O  O440  1  0.02137716  0.74853454  0.18377369  1
  O  O441  1  0.02159372  0.74832538  0.43346010  1
  O  O442  1  0.02262661  0.74976943  0.68483596  1
  O  O443  1  0.02266527  0.74978826  0.93476112  1
  O  O444  1  0.52349772  0.08319921  0.18385752  1
  O  O445  1  0.52292720  0.08543993  0.43337193  1
  O  O446  1  0.52252946  0.08466096  0.68288320  1
  O  O447  1  0.52283369  0.08097644  0.93243586  1
  O  O448  1  0.52131703  0.41653031  0.18165899  1
  O  O449  1  0.52210603  0.41801322  0.43340875  1
  O  O450  1  0.52335301  0.41731922  0.68401133  1
  O  O451  1  0.52182995  0.41665813  0.93098359  1
  O  O452  1  0.52168417  0.75076487  0.18157929  1
  O  O453  1  0.52179648  0.74835172  0.43325844  1
  O  O454  1  0.52322634  0.75028631  0.68436641  1
  O  O455  1  0.52278867  0.74994343  0.93421954  1
  O  O456  1  0.47912488  0.24907684  0.06770650  1
  O  O457  1  0.47809563  0.24829885  0.31694111  1
  O  O458  1  0.47845371  0.24859795  0.56674306  1
  O  O459  1  0.47728152  0.24901544  0.81522352  1
  O  O460  1  0.47824006  0.58532291  0.06590827  1
  O  O461  1  0.47821285  0.58376765  0.31848533  1
  O  O462  1  0.47715846  0.58315599  0.56613554  1
  O  O463  1  0.47751373  0.58313579  0.81505156  1
  O  O464  1  0.47732402  0.91689817  0.06531740  1
  O  O465  1  0.47801197  0.91881285  0.31687190  1
  O  O466  1  0.47910265  0.91676292  0.56834836  1
  O  O467  1  0.47829342  0.91494306  0.81652628  1
  O  O468  1  0.97771988  0.24750659  0.06688487  1
  O  O469  1  0.97692808  0.24998774  0.31543485  1
  O  O470  1  0.97767471  0.25151224  0.56679621  1
  O  O471  1  0.97832745  0.24954502  0.81853336  1
  O  O472  1  0.97732817  0.58517838  0.06719250  1
  O  O473  1  0.97751940  0.58494905  0.31710788  1
  O  O474  1  0.97645107  0.58428190  0.56576416  1
  O  O475  1  0.97769830  0.58593704  0.81705608  1
  O  O476  1  0.97666449  0.91664033  0.06597000  1
  O  O477  1  0.97763682  0.91786258  0.31693291  1
  O  O478  1  0.97827590  0.91638689  0.56858731  1
  O  O479  1  0.97699416  0.91719333  0.81639846  1
  O  O480  1  0.07261495  0.31188630  0.07566930  1
  O  O481  1  0.07183645  0.31398938  0.32313414  1
  O  O482  1  0.07304686  0.31429978  0.57368966  1
  O  O483  1  0.07356927  0.31313575  0.82580230  1
  O  O484  1  0.07286273  0.64780136  0.07438370  1
  O  O485  1  0.07262222  0.64808627  0.32497732  1
  O  O486  1  0.07159392  0.64773223  0.57381879  1
  O  O487  1  0.07331079  0.64848596  0.82407232  1
  O  O488  1  0.07193815  0.97995947  0.07350186  1
  O  O489  1  0.07270367  0.98115853  0.32357276  1
  O  O490  1  0.07367392  0.97974575  0.57587191  1
  O  O491  1  0.07234300  0.98024556  0.82450899  1
  O  O492  1  0.57417084  0.31292970  0.07516235  1
  O  O493  1  0.57293712  0.31260599  0.32496683  1
  O  O494  1  0.57366624  0.31223873  0.57529906  1
  O  O495  1  0.57182174  0.31303198  0.82235666  1
  O  O496  1  0.57346371  0.64823697  0.07306056  1
  O  O497  1  0.57380453  0.64683211  0.32582602  1
  O  O498  1  0.57198740  0.64691246  0.57412954  1
  O  O499  1  0.57227698  0.64731600  0.82250430  1
  O  O500  1  0.57236216  0.98048630  0.07248978  1
  O  O501  1  0.57344697  0.98133833  0.32381926  1
  O  O502  1  0.57449096  0.97984108  0.57629700  1
  O  O503  1  0.57370499  0.97822016  0.82524679  1
  O  O504  1  0.42853606  0.01950880  0.17697071  1
  O  O505  1  0.42784018  0.02156317  0.42511980  1
  O  O506  1  0.42740062  0.02094548  0.67456940  1
  O  O507  1  0.42744857  0.01847870  0.92511238  1
  O  O508  1  0.42579050  0.35348970  0.17447930  1
  O  O509  1  0.42693103  0.35396271  0.42608090  1
  O  O510  1  0.42912878  0.35281504  0.67580320  1
  O  O511  1  0.42672464  0.35284051  0.92318304  1
  O  O512  1  0.42625983  0.68739782  0.17420568  1
  O  O513  1  0.42617599  0.68622129  0.42674458  1
  O  O514  1  0.42857553  0.68613753  0.67704554  1
  O  O515  1  0.42786640  0.68635790  0.92533420  1
  O  O516  1  0.92800753  0.01904643  0.17596983  1
  O  O517  1  0.92662129  0.02009579  0.42415099  1
  O  O518  1  0.92663351  0.01870378  0.67697350  1
  O  O519  1  0.92811391  0.01923481  0.92733717  1
  O  O520  1  0.92639630  0.35161539  0.17632710  1
  O  O521  1  0.92739622  0.35321101  0.42639923  1
  O  O522  1  0.92616336  0.35356944  0.67422369  1
  O  O523  1  0.92535315  0.35354662  0.92473223  1
  O  O524  1  0.92636656  0.68533692  0.17613771  1
  O  O525  1  0.92589273  0.68592186  0.42661695  1
  O  O526  1  0.92739946  0.68642283  0.67710577  1
  O  O527  1  0.92724123  0.68699390  0.92649553  1
  O  O528  1  0.17704339  0.01889400  0.19899888  1
  O  O529  1  0.17729482  0.02027421  0.44799683  1
  O  O530  1  0.17704625  0.01882190  0.69910743  1
  O  O531  1  0.17712429  0.02110865  0.94893045  1
  O  O532  1  0.17595037  0.35260288  0.20028567  1
  O  O533  1  0.17576497  0.35381269  0.45072392  1
  O  O534  1  0.17703794  0.35254962  0.69795574  1
  O  O535  1  0.17516566  0.35322062  0.94963713  1
  O  O536  1  0.17580678  0.68744870  0.20071817  1
  O  O537  1  0.17623820  0.68734340  0.45077014  1
  O  O538  1  0.17695125  0.68618470  0.69893796  1
  O  O539  1  0.17607066  0.68773344  0.95000749  1
  O  O540  1  0.67736161  0.01764657  0.19846545  1
  O  O541  1  0.67727541  0.01822734  0.44974282  1
  O  O542  1  0.67868612  0.01881766  0.69948348  1
  O  O543  1  0.67902700  0.01899912  0.94738829  1
  O  O544  1  0.67627040  0.35260390  0.20082781  1
  O  O545  1  0.67807278  0.35229060  0.44883798  1
  O  O546  1  0.67619085  0.35216365  0.69978350  1
  O  O547  1  0.67650615  0.35161622  0.94838781  1
  O  O548  1  0.67702214  0.68501152  0.19934562  1
  O  O549  1  0.67638581  0.68814119  0.44988290  1
  O  O550  1  0.67773065  0.68574757  0.69904200  1
  O  O551  1  0.67706468  0.68822067  0.94921261  1
  O  O552  1  0.32379041  0.31329744  0.04920318  1
  O  O553  1  0.32315419  0.31224480  0.30044100  1
  O  O554  1  0.32334914  0.31452037  0.55059873  1
  O  O555  1  0.32271444  0.31254157  0.79963911  1
  O  O556  1  0.32371349  0.64713639  0.04965608  1
  O  O557  1  0.32387425  0.64731751  0.30049232  1
  O  O558  1  0.32215438  0.64748367  0.55233608  1
  O  O559  1  0.32370908  0.64632005  0.79911100  1
  O  O560  1  0.32320700  0.98225893  0.05072584  1
  O  O561  1  0.32341174  0.98208249  0.30123047  1
  O  O562  1  0.32356887  0.98292266  0.55063154  1
  O  O563  1  0.32465542  0.98047154  0.79950919  1
  O  O564  1  0.82338009  0.31282284  0.04921559  1
  O  O565  1  0.82287478  0.31343310  0.30158932  1
  O  O566  1  0.82274649  0.31205897  0.55056789  1
  O  O567  1  0.82163009  0.31298342  0.80096552  1
  O  O568  1  0.82258012  0.64816690  0.05151109  1
  O  O569  1  0.82325747  0.64555152  0.30066538  1
  O  O570  1  0.82198478  0.64800810  0.55016047  1
  O  O571  1  0.82416159  0.64665974  0.79999573  1
  O  O572  1  0.82270346  0.98138932  0.05070053  1
  O  O573  1  0.82221030  0.97956775  0.30189888  1
  O  O574  1  0.82386044  0.98116812  0.55146710  1
  O  O575  1  0.82214128  0.98036753  0.80274642  1
  O  O576  1  0.42842244  0.14677886  0.17599422  1
  O  O577  1  0.42767545  0.14846212  0.42548134  1
  O  O578  1  0.42710309  0.14797029  0.67587740  1
  O  O579  1  0.42776861  0.14551384  0.92517606  1
  O  O580  1  0.42614667  0.48054992  0.17450738  1
  O  O581  1  0.42678767  0.48111356  0.42696709  1
  O  O582  1  0.42772859  0.48022686  0.67613679  1
  O  O583  1  0.42617559  0.47968090  0.92315372  1
  O  O584  1  0.42626643  0.81409513  0.17433174  1
  O  O585  1  0.42701824  0.81345573  0.42590315  1
  O  O586  1  0.42796633  0.81344989  0.67606257  1
  O  O587  1  0.42781386  0.81361317  0.92614025  1
  O  O588  1  0.92731654  0.14623417  0.17625171  1
  O  O589  1  0.92629484  0.14678803  0.42394861  1
  O  O590  1  0.92699705  0.14583570  0.67621832  1
  O  O591  1  0.92834215  0.14650984  0.92665869  1
  O  O592  1  0.92587067  0.47889291  0.17579518  1
  O  O593  1  0.92831889  0.48061605  0.42620940  1
  O  O594  1  0.92569958  0.48033032  0.67362096  1
  O  O595  1  0.92545005  0.48061015  0.92494538  1
  O  O596  1  0.92612761  0.81228302  0.17542974  1
  O  O597  1  0.92690805  0.81297778  0.42577605  1
  O  O598  1  0.92802700  0.81370588  0.67760460  1
  O  O599  1  0.92821889  0.81412289  0.92712324  1
  O  O600  1  0.07309592  0.18482643  0.07515540  1
  O  O601  1  0.07203924  0.18663690  0.32369750  1
  O  O602  1  0.07272509  0.18710518  0.57395293  1
  O  O603  1  0.07396008  0.18629199  0.82496909  1
  O  O604  1  0.07218462  0.52065752  0.07515794  1
  O  O605  1  0.07276221  0.52110574  0.32551511  1
  O  O606  1  0.07097080  0.52031607  0.57339030  1
  O  O607  1  0.07258377  0.52145958  0.82462686  1
  O  O608  1  0.07129174  0.85271850  0.07371735  1
  O  O609  1  0.07295056  0.85397667  0.32443719  1
  O  O610  1  0.07368409  0.85308580  0.57625955  1
  O  O611  1  0.07156589  0.85303920  0.82381187  1
  O  O612  1  0.57493090  0.18608644  0.07468875  1
  O  O613  1  0.57363460  0.18547471  0.32395985  1
  O  O614  1  0.57362753  0.18531574  0.57435516  1
  O  O615  1  0.57254946  0.18549238  0.82312686  1
  O  O616  1  0.57340127  0.52102950  0.07343402  1
  O  O617  1  0.57350345  0.52012001  0.32552421  1
  O  O618  1  0.57239570  0.51966850  0.57377806  1
  O  O619  1  0.57284325  0.52008943  0.82336039  1
  O  O620  1  0.57235330  0.85326284  0.07354139  1
  O  O621  1  0.57279306  0.85412684  0.32431231  1
  O  O622  1  0.57443517  0.85295746  0.57515297  1
  O  O623  1  0.57314917  0.85129307  0.82473653  1
  O  O624  1  0.32467113  0.18652630  0.04986307  1
  O  O625  1  0.32318374  0.18498998  0.30125681  1
  O  O626  1  0.32329443  0.18754680  0.55024154  1
  O  O627  1  0.32291369  0.18533022  0.79952461  1
  O  O628  1  0.32371785  0.51998748  0.04968409  1
  O  O629  1  0.32380133  0.52025845  0.30071055  1
  O  O630  1  0.32161904  0.51994965  0.55273881  1
  O  O631  1  0.32310191  0.51951654  0.79848576  1
  O  O632  1  0.32288272  0.85505015  0.05082471  1
  O  O633  1  0.32325168  0.85507278  0.30030650  1
  O  O634  1  0.32415240  0.85582449  0.54949129  1
  O  O635  1  0.32396266  0.85363118  0.79906147  1
  O  O636  1  0.82410509  0.18614945  0.04941326  1
  O  O637  1  0.82319845  0.18617520  0.30031766  1
  O  O638  1  0.82363719  0.18497767  0.55014863  1
  O  O639  1  0.82300226  0.18560302  0.80174050  1
  O  O640  1  0.82272484  0.52079891  0.05052184  1
  O  O641  1  0.82282683  0.51852618  0.30119583  1
  O  O642  1  0.82266809  0.52072316  0.55000800  1
  O  O643  1  0.82368099  0.51985129  0.79907402  1
  O  O644  1  0.82329217  0.85453023  0.05051646  1
  O  O645  1  0.82201335  0.85215935  0.30153237  1
  O  O646  1  0.82396940  0.85434345  0.55074929  1
  O  O647  1  0.82286511  0.85297234  0.80200516  1
  O  O648  1  0.17712672  0.14569558  0.19988632  1
  O  O649  1  0.17752742  0.14770322  0.44852114  1
  O  O650  1  0.17608847  0.14585568  0.69852876  1
  O  O651  1  0.17699699  0.14813321  0.94891460  1
  O  O652  1  0.17537746  0.47975339  0.20038358  1
  O  O653  1  0.17633908  0.48056847  0.45128557  1
  O  O654  1  0.17752773  0.48015301  0.69779536  1
  O  O655  1  0.17540218  0.48018347  0.94954357  1
  O  O656  1  0.17535670  0.81444076  0.20039416  1
  O  O657  1  0.17614438  0.81429638  0.45158365  1
  O  O658  1  0.17705003  0.81340728  0.69956363  1
  O  O659  1  0.17636178  0.81481481  0.94986284  1
  O  O660  1  0.67766317  0.14474664  0.20009213  1
  O  O661  1  0.67712510  0.14506286  0.44991923  1
  O  O662  1  0.67835342  0.14608116  0.69865170  1
  O  O663  1  0.67730401  0.14605516  0.94796709  1
  O  O664  1  0.67567182  0.47929715  0.20088604  1
  O  O665  1  0.67806450  0.47997588  0.44852489  1
  O  O666  1  0.67588910  0.47904614  0.70037719  1
  O  O667  1  0.67626389  0.47901466  0.94898256  1
  O  O668  1  0.67614624  0.81217792  0.19929751  1
  O  O669  1  0.67725162  0.81516274  0.44955151  1
  O  O670  1  0.67734344  0.81284372  0.69958712  1
  O  O671  1  0.67736199  0.81527286  0.94935855  1
