# generated using pymatgen
data_Na2MnFe(PO4)2
_symmetry_space_group_name_H-M   'P 1'
_cell_length_a   22.34625722
_cell_length_b   20.09737900
_cell_length_c   19.44680763
_cell_angle_alpha   90.02465995
_cell_angle_beta   90.02821177
_cell_angle_gamma   89.99867459
_symmetry_Int_Tables_number   1
_chemical_formula_structural   Na2MnFe(PO4)2
_chemical_formula_sum   'Na96 Mn48 Fe48 P96 O384'
_cell_volume   8733.58278096
_cell_formula_units_Z   48
loop_
 _symmetry_equiv_pos_site_id
 _symmetry_equiv_pos_as_xyz
  1  'x, y, z'
loop_
 _atom_site_type_symbol
 _atom_site_label
 _atom_site_symmetry_multiplicity
 _atom_site_fract_x
 _atom_site_fract_y
 _atom_site_fract_z
 _atom_site_occupancy
  Na  Na0  1  0.14070881  0.24914755  0.24315315  1
  Na  Na1  1  0.14037233  0.24957271  0.49426724  1
  Na  Na2  1  0.14028240  0.24986867  0.74438323  1
  Na  Na3  1  0.14012100  0.24953296  0.99378614  1
  Na  Na4  1  0.13968556  0.58313465  0.24289692  1
  Na  Na5  1  0.14030543  0.58367434  0.49331061  1
  Na  Na6  1  0.14003908  0.58280183  0.74404552  1
  Na  Na7  1  0.13988905  0.58359486  0.99249272  1
  Na  Na8  1  0.13997853  0.91755050  0.24364303  1
  Na  Na9  1  0.13950164  0.91741618  0.49385238  1
  Na  Na10  1  0.13948851  0.91626031  0.74449107  1
  Na  Na11  1  0.14004287  0.91720082  0.99335199  1
  Na  Na12  1  0.64054036  0.24942419  0.24366897  1
  Na  Na13  1  0.64076362  0.24943665  0.49502237  1
  Na  Na14  1  0.64070399  0.25052990  0.74357214  1
  Na  Na15  1  0.64042106  0.24990035  0.99466211  1
  Na  Na16  1  0.64021293  0.58267374  0.24376115  1
  Na  Na17  1  0.64047025  0.58253373  0.49490516  1
  Na  Na18  1  0.64055633  0.58414437  0.74315878  1
  Na  Na19  1  0.64012381  0.58390537  0.99251666  1
  Na  Na20  1  0.64066204  0.91712965  0.24481241  1
  Na  Na21  1  0.63962699  0.91653309  0.49392316  1
  Na  Na22  1  0.64018890  0.91682126  0.74200481  1
  Na  Na23  1  0.64073396  0.91604240  0.99172574  1
  Na  Na24  1  0.35935702  0.08432100  0.00629949  1
  Na  Na25  1  0.35966805  0.08400567  0.25585354  1
  Na  Na26  1  0.35985486  0.08309111  0.50616638  1
  Na  Na27  1  0.35963308  0.08224320  0.75644028  1
  Na  Na28  1  0.35996720  0.41621087  0.00569370  1
  Na  Na29  1  0.35986554  0.41678109  0.25530198  1
  Na  Na30  1  0.35987870  0.41675790  0.50582550  1
  Na  Na31  1  0.36044028  0.41645567  0.75767051  1
  Na  Na32  1  0.35976823  0.75087277  0.00509406  1
  Na  Na33  1  0.35961885  0.75032416  0.25544807  1
  Na  Na34  1  0.35942327  0.75181486  0.50613273  1
  Na  Na35  1  0.35983017  0.75038568  0.75661254  1
  Na  Na36  1  0.85956235  0.08302123  0.00668500  1
  Na  Na37  1  0.86025383  0.08299193  0.25599256  1
  Na  Na38  1  0.85957086  0.08259942  0.50743294  1
  Na  Na39  1  0.85941792  0.08225576  0.75588152  1
  Na  Na40  1  0.85995777  0.41617905  0.00653058  1
  Na  Na41  1  0.85971392  0.41625325  0.25676949  1
  Na  Na42  1  0.85970821  0.41673858  0.50709101  1
  Na  Na43  1  0.86039755  0.41786003  0.75670651  1
  Na  Na44  1  0.86003057  0.74998703  0.00506336  1
  Na  Na45  1  0.86000565  0.74952097  0.25617405  1
  Na  Na46  1  0.85932144  0.74996017  0.50793853  1
  Na  Na47  1  0.85949547  0.75109236  0.75705414  1
  Na  Na48  1  0.10972824  0.08193388  0.11738720  1
  Na  Na49  1  0.10919330  0.08330159  0.36939007  1
  Na  Na50  1  0.10942898  0.08196016  0.61849531  1
  Na  Na51  1  0.10940729  0.08251954  0.86958440  1
  Na  Na52  1  0.10946659  0.41684411  0.11796355  1
  Na  Na53  1  0.10943558  0.41684842  0.36782402  1
  Na  Na54  1  0.10964076  0.41606043  0.61997691  1
  Na  Na55  1  0.10953804  0.41704516  0.86763680  1
  Na  Na56  1  0.10899947  0.75035614  0.11864818  1
  Na  Na57  1  0.10905351  0.75127761  0.36860139  1
  Na  Na58  1  0.10936878  0.75066276  0.61933129  1
  Na  Na59  1  0.10914318  0.74979744  0.86850955  1
  Na  Na60  1  0.60988517  0.08539840  0.11849039  1
  Na  Na61  1  0.60998299  0.08333279  0.36958521  1
  Na  Na62  1  0.60990831  0.08206083  0.61833514  1
  Na  Na63  1  0.60973731  0.08310690  0.86739234  1
  Na  Na64  1  0.60968997  0.41751179  0.11866005  1
  Na  Na65  1  0.60954493  0.41635188  0.36918512  1
  Na  Na66  1  0.60972982  0.41702360  0.62011270  1
  Na  Na67  1  0.60983634  0.41681279  0.86977745  1
  Na  Na68  1  0.60959929  0.74937193  0.11804077  1
  Na  Na69  1  0.60975487  0.74928500  0.36981954  1
  Na  Na70  1  0.60996497  0.75042650  0.61817029  1
  Na  Na71  1  0.60975534  0.74943919  0.86654581  1
  Na  Na72  1  0.38993342  0.25211804  0.13185129  1
  Na  Na73  1  0.39029349  0.25003125  0.38073696  1
  Na  Na74  1  0.39083382  0.25008505  0.63181894  1
  Na  Na75  1  0.39065313  0.25173164  0.88185821  1
  Na  Na76  1  0.39065331  0.58360961  0.12910666  1
  Na  Na77  1  0.39061511  0.58365665  0.38049257  1
  Na  Na78  1  0.39059409  0.58261548  0.63152480  1
  Na  Na79  1  0.39092697  0.58207588  0.88139556  1
  Na  Na80  1  0.39052205  0.91791211  0.13057900  1
  Na  Na81  1  0.39046389  0.91673014  0.38139591  1
  Na  Na82  1  0.39006871  0.91709034  0.63146228  1
  Na  Na83  1  0.38996062  0.91622779  0.88070540  1
  Na  Na84  1  0.89011646  0.24867979  0.13230752  1
  Na  Na85  1  0.89015066  0.24873980  0.38144635  1
  Na  Na86  1  0.89088300  0.24940000  0.63160351  1
  Na  Na87  1  0.89055581  0.24981028  0.88174413  1
  Na  Na88  1  0.89082119  0.58408889  0.13092582  1
  Na  Na89  1  0.89020150  0.58448697  0.38164960  1
  Na  Na90  1  0.89054870  0.58378289  0.63318038  1
  Na  Na91  1  0.89037363  0.58453808  0.88030404  1
  Na  Na92  1  0.89051946  0.91546991  0.12968294  1
  Na  Na93  1  0.89080432  0.91751257  0.38215185  1
  Na  Na94  1  0.88965684  0.91580833  0.63216562  1
  Na  Na95  1  0.88968227  0.91567739  0.88250075  1
  Mn  Mn96  1  0.00020357  0.16513310  0.25078709  1
  Mn  Mn97  1  0.00000086  0.50025728  0.50046770  1
  Mn  Mn98  1  0.25001162  0.49900909  0.12415172  1
  Mn  Mn99  1  0.75000217  0.33200977  0.37625031  1
  Mn  Mn100  1  0.50023740  0.16671607  0.75018366  1
  Mn  Mn101  1  0.75090586  0.33357554  0.62520145  1
  Mn  Mn102  1  0.50121870  0.00112189  0.25018551  1
  Mn  Mn103  1  0.50038964  0.00060429  -0.00024938  1
  Mn  Mn104  1  -0.00092090  -0.00113834  0.75025948  1
  Mn  Mn105  1  0.75112952  0.49942215  0.12504714  1
  Mn  Mn106  1  0.74957473  0.66676239  0.12470234  1
  Mn  Mn107  1  -0.00074595  0.33313869  0.00012605  1
  Mn  Mn108  1  0.25003355  0.66687737  0.87487174  1
  Mn  Mn109  1  -0.00040804  0.50094294  -0.00105331  1
  Mn  Mn110  1  0.24920977  0.83461602  0.62590931  1
  Mn  Mn111  1  0.75045575  0.00020241  0.12463628  1
  Mn  Mn112  1  0.74991711  0.50088853  0.87563336  1
  Mn  Mn113  1  0.25063843  0.16597112  0.62531178  1
  Mn  Mn114  1  0.24986270  0.49951060  0.62459408  1
  Mn  Mn115  1  0.24974913  0.16725969  0.37492143  1
  Mn  Mn116  1  0.25028981  0.33317281  0.62522662  1
  Mn  Mn117  1  0.25024395  0.66689642  0.62528753  1
  Mn  Mn118  1  0.24970278  0.00000826  0.37488065  1
  Mn  Mn119  1  0.49995697  0.66623503  0.50003868  1
  Mn  Mn120  1  0.50038973  0.16595248  0.50126755  1
  Mn  Mn121  1  0.25003399  0.66752598  0.37441299  1
  Mn  Mn122  1  0.49977836  0.66595075  0.24959902  1
  Mn  Mn123  1  0.24949751  0.83461141  0.12492011  1
  Mn  Mn124  1  0.49936485  0.16837915  -0.00114977  1
  Mn  Mn125  1  0.50020821  0.83346128  0.24946161  1
  Mn  Mn126  1  0.75038884  0.83237587  0.37526515  1
  Mn  Mn127  1  0.25015740  0.49912898  0.37388782  1
  Mn  Mn128  1  0.74961832  0.83294328  0.12434431  1
  Mn  Mn129  1  0.24941617  0.66704284  0.12425579  1
  Mn  Mn130  1  -0.00054284  0.33276946  0.49957367  1
  Mn  Mn131  1  -0.00019579  0.83391948  0.24973372  1
  Mn  Mn132  1  0.00036803  0.33345918  0.25022552  1
  Mn  Mn133  1  0.75049029  0.33319263  0.87499435  1
  Mn  Mn134  1  0.75075565  0.16573830  0.87470136  1
  Mn  Mn135  1  0.50048172  0.33404335  0.50033317  1
  Mn  Mn136  1  0.00048661  0.66751452  0.50080922  1
  Mn  Mn137  1  -0.00026028  0.16635646  0.74997835  1
  Mn  Mn138  1  0.24993065  0.16642372  0.87528736  1
  Mn  Mn139  1  0.75044356  0.00060032  0.37497575  1
  Mn  Mn140  1  0.50078819  0.83274894  -0.00047181  1
  Mn  Mn141  1  0.74967716  0.50013451  0.37564148  1
  Mn  Mn142  1  0.49996997  0.33417576  0.25052406  1
  Mn  Mn143  1  0.49988936  0.66609833  0.74915658  1
  Fe  Fe144  1  -0.00002130  0.83251054  0.00033703  1
  Fe  Fe145  1  0.24950233  0.83417752  0.87524276  1
  Fe  Fe146  1  0.75033782  0.66731317  0.87386618  1
  Fe  Fe147  1  0.25000382  0.16684932  0.12462325  1
  Fe  Fe148  1  0.49972988  0.49968989  0.50060946  1
  Fe  Fe149  1  0.75011242  0.50082087  0.62557441  1
  Fe  Fe150  1  -0.00039393  0.50073333  0.24940146  1
  Fe  Fe151  1  0.74956314  0.83332286  0.87366196  1
  Fe  Fe152  1  0.24956934  -0.00016423  0.62547796  1
  Fe  Fe153  1  0.24949707  0.00014315  0.87553577  1
  Fe  Fe154  1  0.00005642  0.83310980  0.75072282  1
  Fe  Fe155  1  0.00048550  0.66682185  -0.00025651  1
  Fe  Fe156  1  0.49957913  0.83355934  0.49982377  1
  Fe  Fe157  1  0.49972424  0.83316857  0.74903847  1
  Fe  Fe158  1  0.74981835  0.83344615  0.62553450  1
  Fe  Fe159  1  0.75046622  0.16633401  0.62522161  1
  Fe  Fe160  1  0.49950036  -0.00045671  0.49975452  1
  Fe  Fe161  1  0.50039305  0.50042488  0.24924655  1
  Fe  Fe162  1  0.74937170  -0.00020913  0.87444755  1
  Fe  Fe163  1  0.25002363  0.33295207  0.87526058  1
  Fe  Fe164  1  0.50034754  0.49949170  0.75093777  1
  Fe  Fe165  1  0.75027876  0.66703851  0.62524701  1
  Fe  Fe166  1  0.50039260  0.33432489  0.00069869  1
  Fe  Fe167  1  0.00039295  0.33274936  0.75019410  1
  Fe  Fe168  1  0.00035665  0.16613244  0.50045968  1
  Fe  Fe169  1  0.74989932  0.16621575  0.12489215  1
  Fe  Fe170  1  0.00001544  -0.00037808  0.24970480  1
  Fe  Fe171  1  0.49966112  -0.00064757  0.74915012  1
  Fe  Fe172  1  0.49983170  0.16730509  0.25035470  1
  Fe  Fe173  1  0.25016091  0.33299383  0.37451406  1
  Fe  Fe174  1  0.50034177  0.33402439  0.75075463  1
  Fe  Fe175  1  -0.00087104  0.83350141  0.50024191  1
  Fe  Fe176  1  0.75031493  0.16631404  0.37512930  1
  Fe  Fe177  1  -0.00049659  0.66728274  0.24993681  1
  Fe  Fe178  1  0.50011154  0.66630859  -0.00111142  1
  Fe  Fe179  1  0.00017383  0.50011713  0.75021042  1
  Fe  Fe180  1  -0.00039306  -0.00050170  0.50036660  1
  Fe  Fe181  1  0.75025870  0.33237169  0.12598461  1
  Fe  Fe182  1  0.50048238  0.50023288  -0.00040058  1
  Fe  Fe183  1  -0.00018832  0.16604593  0.00041125  1
  Fe  Fe184  1  0.74972152  -0.00020025  0.62502490  1
  Fe  Fe185  1  0.24936129  0.33326964  0.12433506  1
  Fe  Fe186  1  -0.00002006  -0.00079611  -0.00032185  1
  Fe  Fe187  1  0.24978823  0.83416442  0.37488078  1
  Fe  Fe188  1  -0.00019830  0.66734329  0.75041479  1
  Fe  Fe189  1  0.25012759  0.49951787  0.87486693  1
  Fe  Fe190  1  0.25063551  0.00012198  0.12481253  1
  Fe  Fe191  1  0.74992045  0.66605986  0.37612211  1
  P  P192  1  0.04186409  0.24839914  0.10250769  1
  P  P193  1  0.04283362  0.24928560  0.35365943  1
  P  P194  1  0.04222265  0.24896973  0.60294962  1
  P  P195  1  0.04197104  0.25028116  0.85312295  1
  P  P196  1  0.04214804  0.58475089  0.10265617  1
  P  P197  1  0.04104604  0.58407362  0.35130094  1
  P  P198  1  0.04274414  0.58363370  0.60438951  1
  P  P199  1  0.04119634  0.58419626  0.85163837  1
  P  P200  1  0.04128893  0.91620530  0.10153067  1
  P  P201  1  0.04173185  0.91842257  0.35309055  1
  P  P202  1  0.04083306  0.91583272  0.60217017  1
  P  P203  1  0.04126147  0.91500757  0.85366208  1
  P  P204  1  0.54183202  0.25168433  0.10291456  1
  P  P205  1  0.54242780  0.24899922  0.35288295  1
  P  P206  1  0.54292230  0.25062573  0.60422653  1
  P  P207  1  0.54253309  0.25200138  0.85286126  1
  P  P208  1  0.54184673  0.58345574  0.10112928  1
  P  P209  1  0.54226741  0.58164126  0.35276960  1
  P  P210  1  0.54203463  0.58172231  0.60312458  1
  P  P211  1  0.54232489  0.58207547  0.85284175  1
  P  P212  1  0.54371329  0.91706990  0.10252632  1
  P  P213  1  0.54274343  0.91658213  0.35396056  1
  P  P214  1  0.54081505  0.91659501  0.60200056  1
  P  P215  1  0.54126862  0.91617304  0.85061148  1
  P  P216  1  0.45800769  0.08557514  0.14745983  1
  P  P217  1  0.45794238  0.08274190  0.39751372  1
  P  P218  1  0.45787434  0.08173455  0.64733046  1
  P  P219  1  0.45726325  0.08319021  0.89595302  1
  P  P220  1  0.45822787  0.41856302  0.14671070  1
  P  P221  1  0.45785468  0.41830440  0.39724728  1
  P  P222  1  0.45854250  0.41710351  0.64872057  1
  P  P223  1  0.45916197  0.41669286  0.89815845  1
  P  P224  1  0.45734645  0.74949465  0.14573886  1
  P  P225  1  0.45770045  0.75082276  0.39761319  1
  P  P226  1  0.45776457  0.75139974  0.64668811  1
  P  P227  1  0.45816531  0.74874155  0.89639469  1
  P  P228  1  0.95830061  0.08131822  0.14676372  1
  P  P229  1  0.95831780  0.08292687  0.39883273  1
  P  P230  1  0.95744965  0.08239955  0.64631024  1
  P  P231  1  0.95825307  0.08301947  0.89876012  1
  P  P232  1  0.95771211  0.41787015  0.14759022  1
  P  P233  1  0.95697341  0.41743230  0.39648074  1
  P  P234  1  0.95887534  0.41618025  0.64886917  1
  P  P235  1  0.95734124  0.41667442  0.89575455  1
  P  P236  1  0.95784745  0.74904808  0.14682445  1
  P  P237  1  0.95740214  0.75122451  0.39776285  1
  P  P238  1  0.95842241  0.75061569  0.64882809  1
  P  P239  1  0.95893039  0.74988789  0.89781205  1
  P  P240  1  0.20870708  0.08331849  0.22605612  1
  P  P241  1  0.20711123  0.08320095  0.47852044  1
  P  P242  1  0.20744983  0.08156305  0.72820737  1
  P  P243  1  0.20793597  0.08240021  0.97835504  1
  P  P244  1  0.20744930  0.41475459  0.22712867  1
  P  P245  1  0.20742701  0.41516476  0.47678945  1
  P  P246  1  0.20775056  0.41650657  0.72932081  1
  P  P247  1  0.20814778  0.41593062  0.97640554  1
  P  P248  1  0.20687091  0.75083918  0.22818576  1
  P  P249  1  0.20738121  0.75210801  0.47731283  1
  P  P250  1  0.20725353  0.75045970  0.72900688  1
  P  P251  1  0.20744857  0.75184198  0.97714238  1
  P  P252  1  0.70802277  0.08459109  0.22760341  1
  P  P253  1  0.70833160  0.08467357  0.47842069  1
  P  P254  1  0.70864259  0.08291963  0.72658354  1
  P  P255  1  0.70757577  0.08236090  0.97725791  1
  P  P256  1  0.70808924  0.41504794  0.22773200  1
  P  P257  1  0.70756751  0.41681769  0.47929130  1
  P  P258  1  0.70837377  0.41826311  0.72766392  1
  P  P259  1  0.70793552  0.41593028  0.97902224  1
  P  P260  1  0.70694455  0.74966215  0.22851518  1
  P  P261  1  0.70808120  0.74834058  0.47887159  1
  P  P262  1  0.70882795  0.75018335  0.72695453  1
  P  P263  1  0.70827215  0.74990786  0.97521416  1
  P  P264  1  0.29118739  0.25045140  0.02296021  1
  P  P265  1  0.29214724  0.25120473  0.27133244  1
  P  P266  1  0.29325865  0.25004231  0.52165178  1
  P  P267  1  0.29263353  0.25059890  0.77312150  1
  P  P268  1  0.29205906  0.58285206  0.02071759  1
  P  P269  1  0.29272102  0.58321114  0.27113286  1
  P  P270  1  0.29291592  0.58364030  0.52156382  1
  P  P271  1  0.29243848  0.58209220  0.77274765  1
  P  P272  1  0.29213858  0.91843423  0.02160577  1
  P  P273  1  0.29250557  0.91616168  0.27220443  1
  P  P274  1  0.29190591  0.91795944  0.52258010  1
  P  P275  1  0.29094011  0.91743078  0.77355103  1
  P  P276  1  0.79183134  0.24948847  0.02376703  1
  P  P277  1  0.79217439  0.24825033  0.27216778  1
  P  P278  1  0.79273441  0.24817035  0.52279858  1
  P  P279  1  0.79312594  0.24938014  0.77146699  1
  P  P280  1  0.79290407  0.58398237  0.02128362  1
  P  P281  1  0.79209876  0.58427375  0.27309497  1
  P  P282  1  0.79184986  0.58378517  0.52385227  1
  P  P283  1  0.79195308  0.58507907  0.77162739  1
  P  P284  1  0.79221540  0.91636435  0.02031858  1
  P  P285  1  0.79328048  0.91649815  0.27212310  1
  P  P286  1  0.79084957  0.91638002  0.52381900  1
  P  P287  1  0.79077360  0.91690796  0.77248971  1
  O  O288  1  0.03688690  0.24848418  0.18248143  1
  O  O289  1  0.03762707  0.24889781  0.43361458  1
  O  O290  1  0.03669340  0.24985725  0.68291996  1
  O  O291  1  0.03651901  0.24961502  0.93305579  1
  O  O292  1  0.03659905  0.58443264  0.18252547  1
  O  O293  1  0.03649870  0.58384928  0.43136951  1
  O  O294  1  0.03746347  0.58367348  0.68427728  1
  O  O295  1  0.03645734  0.58440019  0.93163279  1
  O  O296  1  0.03657620  0.91693812  0.18151199  1
  O  O297  1  0.03616308  0.91840374  0.43292142  1
  O  O298  1  0.03592486  0.91528182  0.68216268  1
  O  O299  1  0.03600281  0.91509089  0.93350488  1
  O  O300  1  0.53651641  0.25079730  0.18284925  1
  O  O301  1  0.53749972  0.24924581  0.43287651  1
  O  O302  1  0.53761649  0.25125867  0.68416236  1
  O  O303  1  0.53712116  0.25229739  0.93283333  1
  O  O304  1  0.53680945  0.58321810  0.18113173  1
  O  O305  1  0.53672535  0.58158660  0.43270287  1
  O  O306  1  0.53669016  0.58177569  0.68305982  1
  O  O307  1  0.53686281  0.58285176  0.93272440  1
  O  O308  1  0.53882428  0.91712163  0.18251303  1
  O  O309  1  0.53699483  0.91651149  0.43389339  1
  O  O310  1  0.53571302  0.91647899  0.68195865  1
  O  O311  1  0.53689553  0.91620774  0.93062246  1
  O  O312  1  0.46286700  0.08547234  0.06744242  1
  O  O313  1  0.46339398  0.08369181  0.31757539  1
  O  O314  1  0.46311643  0.08138518  0.56739095  1
  O  O315  1  0.46248195  0.08263549  0.81601021  1
  O  O316  1  0.46365919  0.41792838  0.06684512  1
  O  O317  1  0.46329251  0.41834470  0.31730854  1
  O  O318  1  0.46361367  0.41747907  0.56872857  1
  O  O319  1  0.46435519  0.41637233  0.81824626  1
  O  O320  1  0.46282791  0.74886634  0.06575892  1
  O  O321  1  0.46263268  0.75049672  0.31761154  1
  O  O322  1  0.46298168  0.75179295  0.56676295  1
  O  O323  1  0.46330484  0.74933298  0.81640944  1
  O  O324  1  0.96370012  0.08197697  0.06691268  1
  O  O325  1  0.96331213  0.08248747  0.31882853  1
  O  O326  1  0.96296819  0.08232291  0.56646114  1
  O  O327  1  0.96278842  0.08288702  0.81874212  1
  O  O328  1  0.96255969  0.41762600  0.06755820  1
  O  O329  1  0.96217533  0.41803174  0.31650726  1
  O  O330  1  0.96345839  0.41635529  0.56882762  1
  O  O331  1  0.96283106  0.41622161  0.81587341  1
  O  O332  1  0.96345855  0.74912158  0.06697585  1
  O  O333  1  0.96241317  0.75064572  0.31782310  1
  O  O334  1  0.96306649  0.75083279  0.56886070  1
  O  O335  1  0.96429593  0.75012550  0.81793158  1
  O  O336  1  0.21349831  0.08261490  0.05818755  1
  O  O337  1  0.21344543  0.08373006  0.30606429  1
  O  O338  1  0.21231098  0.08261209  0.55848321  1
  O  O339  1  0.21269710  0.08151546  0.80818886  1
  O  O340  1  0.21292063  0.41559281  0.05643922  1
  O  O341  1  0.21271004  0.41473724  0.30706606  1
  O  O342  1  0.21243721  0.41574036  0.55682268  1
  O  O343  1  0.21307316  0.41667996  0.80926609  1
  O  O344  1  0.21241893  0.75163378  0.05711831  1
  O  O345  1  0.21222224  0.75136594  0.30814710  1
  O  O346  1  0.21242395  0.75173647  0.55734023  1
  O  O347  1  0.21257337  0.75098909  0.80892537  1
  O  O348  1  0.71283362  0.08304899  0.05719054  1
  O  O349  1  0.71319676  0.08476456  0.30756943  1
  O  O350  1  0.71373947  0.08449930  0.55830921  1
  O  O351  1  0.71350670  0.08192032  0.80656466  1
  O  O352  1  0.71350268  0.41515872  0.05895237  1
  O  O353  1  0.71284138  0.41516660  0.30777125  1
  O  O354  1  0.71315226  0.41769294  0.55920717  1
  O  O355  1  0.71342191  0.41813006  0.80765339  1
  O  O356  1  0.71264206  0.75021573  0.05524338  1
  O  O357  1  0.71205373  0.74916088  0.30847495  1
  O  O358  1  0.71372957  0.74867304  0.55876084  1
  O  O359  1  0.71377961  0.75045061  0.80685999  1
  O  O360  1  0.28652757  0.25091492  0.19144957  1
  O  O361  1  0.28822260  0.25036702  0.44164474  1
  O  O362  1  0.28778435  0.25024238  0.69313848  1
  O  O363  1  0.28635502  0.25041978  0.94297227  1
  O  O364  1  0.28748289  0.58314762  0.19114336  1
  O  O365  1  0.28779582  0.58367430  0.44157973  1
  O  O366  1  0.28758915  0.58228127  0.69270139  1
  O  O367  1  0.28666814  0.58226684  0.94076993  1
  O  O368  1  0.28746948  0.91698739  0.19223497  1
  O  O369  1  0.28683398  0.91698694  0.44263174  1
  O  O370  1  0.28586337  0.91791188  0.69356301  1
  O  O371  1  0.28648410  0.91802177  0.94171505  1
  O  O372  1  0.78660139  0.24867820  0.19225718  1
  O  O373  1  0.78748110  0.24799189  0.44282072  1
  O  O374  1  0.78792036  0.24893419  0.69154780  1
  O  O375  1  0.78720163  0.24952196  0.94370326  1
  O  O376  1  0.78711813  0.58379449  0.19309122  1
  O  O377  1  0.78660838  0.58410675  0.44386465  1
  O  O378  1  0.78643060  0.58469290  0.69173911  1
  O  O379  1  0.78763380  0.58446304  0.94131881  1
  O  O380  1  0.78819493  0.91656288  0.19213870  1
  O  O381  1  0.78662455  0.91629456  0.44383338  1
  O  O382  1  0.78584506  0.91677858  0.69257099  1
  O  O383  1  0.78672704  0.91650299  0.94039411  1
  O  O384  1  0.22704974  0.25065582  0.05884519  1
  O  O385  1  0.22803179  0.25175643  0.30766161  1
  O  O386  1  0.22888010  0.24950812  0.55679470  1
  O  O387  1  0.22823027  0.25089839  0.80836018  1
  O  O388  1  0.22780600  0.58275200  0.05617430  1
  O  O389  1  0.22833906  0.58331846  0.30623170  1
  O  O390  1  0.22844384  0.58366201  0.55656016  1
  O  O391  1  0.22806864  0.58212127  0.80792960  1
  O  O392  1  0.22797668  0.91918316  0.05770951  1
  O  O393  1  0.22808075  0.91553031  0.30759991  1
  O  O394  1  0.22753162  0.91883085  0.55811985  1
  O  O395  1  0.22678309  0.91717345  0.80949417  1
  O  O396  1  0.72758284  0.24952288  0.05937111  1
  O  O397  1  0.72809084  0.24774226  0.30853842  1
  O  O398  1  0.72853957  0.24876620  0.55854689  1
  O  O399  1  0.72880316  0.24929378  0.80676749  1
  O  O400  1  0.72856128  0.58296499  0.05649750  1
  O  O401  1  0.72773463  0.58484037  0.30852912  1
  O  O402  1  0.72768348  0.58382735  0.55982473  1
  O  O403  1  0.72788888  0.58552456  0.80788701  1
  O  O404  1  0.72810703  0.91668153  0.05628507  1
  O  O405  1  0.72891870  0.91646965  0.30726341  1
  O  O406  1  0.72658351  0.91629855  0.55915410  1
  O  O407  1  0.72665149  0.91737859  0.80852395  1
  O  O408  1  0.27291930  0.08289186  0.19040706  1
  O  O409  1  0.27139938  0.08344949  0.44315212  1
  O  O410  1  0.27176899  0.08114814  0.69251565  1
  O  O411  1  0.27196635  0.08204218  0.94202415  1
  O  O412  1  0.27173569  0.41454467  0.19143771  1
  O  O413  1  0.27185888  0.41487360  0.44151528  1
  O  O414  1  0.27201598  0.41656680  0.69371059  1
  O  O415  1  0.27247599  0.41605864  0.94084405  1
  O  O416  1  0.27117266  0.75074504  0.19281938  1
  O  O417  1  0.27172903  0.75235688  0.44184858  1
  O  O418  1  0.27152864  0.75072487  0.69355562  1
  O  O419  1  0.27177068  0.75189494  0.94177182  1
  O  O420  1  0.77230773  0.08464748  0.19191948  1
  O  O421  1  0.77245689  0.08506030  0.44218254  1
  O  O422  1  0.77279991  0.08309361  0.69078617  1
  O  O423  1  0.77190969  0.08123887  0.94166706  1
  O  O424  1  0.77250264  0.41482360  0.19248639  1
  O  O425  1  0.77175294  0.41644629  0.44367909  1
  O  O426  1  0.77268261  0.41838689  0.69226349  1
  O  O427  1  0.77213314  0.41676644  0.94337733  1
  O  O428  1  0.77136206  0.74985731  0.19331090  1
  O  O429  1  0.77216025  0.74778864  0.44249974  1
  O  O430  1  0.77290802  0.74987227  0.69090151  1
  O  O431  1  0.77262069  0.74964160  0.93987683  1
  O  O432  1  0.02243617  0.08101138  0.18304237  1
  O  O433  1  0.02244683  0.08291138  0.43493801  1
  O  O434  1  0.02154024  0.08223120  0.68234060  1
  O  O435  1  0.02251625  0.08364536  0.93428896  1
  O  O436  1  0.02206124  0.41820828  0.18294643  1
  O  O437  1  0.02134791  0.41684188  0.43174252  1
  O  O438  1  0.02304109  0.41594223  0.68464221  1
  O  O439  1  0.02149086  0.41663074  0.93165496  1
  O  O440  1  0.02183109  0.74904939  0.18338693  1
  O  O441  1  0.02175157  0.75210356  0.43340648  1
  O  O442  1  0.02266520  0.75074496  0.68463176  1
  O  O443  1  0.02288117  0.74998617  0.93451173  1
  O  O444  1  0.52239876  0.08602247  0.18285860  1
  O  O445  1  0.52209339  0.08176520  0.43355945  1
  O  O446  1  0.52211175  0.08197136  0.68308951  1
  O  O447  1  0.52163501  0.08414200  0.93120071  1
  O  O448  1  0.52230892  0.41845135  0.18307116  1
  O  O449  1  0.52209073  0.41862300  0.43322079  1
  O  O450  1  0.52273853  0.41721470  0.68475888  1
  O  O451  1  0.52311897  0.41665773  0.93472519  1
  O  O452  1  0.52159969  0.74955497  0.18132767  1
  O  O453  1  0.52198449  0.75074463  0.43311994  1
  O  O454  1  0.52201220  0.75096346  0.68243991  1
  O  O455  1  0.52244988  0.74823049  0.93209351  1
  O  O456  1  0.47759592  0.25241870  0.06699012  1
  O  O457  1  0.47808967  0.24928985  0.31737118  1
  O  O458  1  0.47868935  0.25034969  0.56866283  1
  O  O459  1  0.47827654  0.25157440  0.81713171  1
  O  O460  1  0.47776395  0.58367847  0.06489089  1
  O  O461  1  0.47808345  0.58140774  0.31666436  1
  O  O462  1  0.47786932  0.58165717  0.56712306  1
  O  O463  1  0.47817927  0.58170518  0.81668712  1
  O  O464  1  0.47917082  0.91670586  0.06773471  1
  O  O465  1  0.47868571  0.91713471  0.31782447  1
  O  O466  1  0.47680405  0.91682384  0.56556826  1
  O  O467  1  0.47692454  0.91615171  0.81525286  1
  O  O468  1  0.97751586  0.24808207  0.06702508  1
  O  O469  1  0.97852251  0.24937308  0.31830378  1
  O  O470  1  0.97806510  0.24808815  0.56687480  1
  O  O471  1  0.97781774  0.25090892  0.81713899  1
  O  O472  1  0.97803319  0.58531764  0.06635410  1
  O  O473  1  0.97683141  0.58421227  0.31554833  1
  O  O474  1  0.97843128  0.58391171  0.56879442  1
  O  O475  1  0.97714079  0.58437986  0.81560527  1
  O  O476  1  0.97720138  0.91543309  0.06552900  1
  O  O477  1  0.97765552  0.91839006  0.31668743  1
  O  O478  1  0.97664461  0.91594472  0.56615456  1
  O  O479  1  0.97710245  0.91453098  0.81753157  1
  O  O480  1  0.07262468  0.31225859  0.07490203  1
  O  O481  1  0.07369068  0.31288982  0.32548673  1
  O  O482  1  0.07315274  0.31251004  0.57476065  1
  O  O483  1  0.07294900  0.31376206  0.82481285  1
  O  O484  1  0.07340726  0.64796392  0.07397279  1
  O  O485  1  0.07183640  0.64788418  0.32352524  1
  O  O486  1  0.07405199  0.64688882  0.57573686  1
  O  O487  1  0.07257624  0.64743371  0.82340067  1
  O  O488  1  0.07156964  0.97991485  0.07250079  1
  O  O489  1  0.07265243  0.98173717  0.32412871  1
  O  O490  1  0.07154149  0.97970286  0.57432303  1
  O  O491  1  0.07197450  0.97882657  0.82553239  1
  O  O492  1  0.57282173  0.31531179  0.07504343  1
  O  O493  1  0.57366305  0.31257031  0.32520739  1
  O  O494  1  0.57416130  0.31373396  0.57551239  1
  O  O495  1  0.57340003  0.31530596  0.82414502  1
  O  O496  1  0.57266277  0.64715267  0.07292076  1
  O  O497  1  0.57298726  0.64563007  0.32518511  1
  O  O498  1  0.57278754  0.64570585  0.57555540  1
  O  O499  1  0.57341427  0.64539891  0.82413072  1
  O  O500  1  0.57429580  0.98076191  0.07429557  1
  O  O501  1  0.57440359  0.97987435  0.32594349  1
  O  O502  1  0.57193744  0.98011730  0.57377755  1
  O  O503  1  0.57191007  0.97991282  0.82228903  1
  O  O504  1  0.42745299  0.02161737  0.17513570  1
  O  O505  1  0.42678176  0.01916397  0.42534726  1
  O  O506  1  0.42706254  0.01839837  0.67616874  1
  O  O507  1  0.42660809  0.01979645  0.92476340  1
  O  O508  1  0.42681260  0.35533518  0.17522431  1
  O  O509  1  0.42731930  0.35420278  0.42487954  1
  O  O510  1  0.42807930  0.35308124  0.67669171  1
  O  O511  1  0.42801590  0.35331257  0.92672499  1
  O  O512  1  0.42597035  0.68641334  0.17436581  1
  O  O513  1  0.42656346  0.68725532  0.42546615  1
  O  O514  1  0.42650568  0.68768911  0.67410669  1
  O  O515  1  0.42731401  0.68515037  0.92456758  1
  O  O516  1  0.92739824  0.01778202  0.17516423  1
  O  O517  1  0.92708817  0.01958260  0.42720408  1
  O  O518  1  0.92610825  0.01910008  0.67475989  1
  O  O519  1  0.92820248  0.01888203  0.92693793  1
  O  O520  1  0.92691986  0.35407134  0.17535274  1
  O  O521  1  0.92577251  0.35381728  0.42426098  1
  O  O522  1  0.92780176  0.35258059  0.67661711  1
  O  O523  1  0.92588415  0.35362060  0.92463229  1
  O  O524  1  0.92686559  0.68578651  0.17574368  1
  O  O525  1  0.92679260  0.68765298  0.42637400  1
  O  O526  1  0.92810696  0.68666761  0.67722606  1
  O  O527  1  0.92811787  0.68613270  0.92587718  1
  O  O528  1  0.17764329  0.01968629  0.19826516  1
  O  O529  1  0.17585989  0.02006723  0.44975780  1
  O  O530  1  0.17617902  0.01845929  0.69946144  1
  O  O531  1  0.17662398  0.01923715  0.94963210  1
  O  O532  1  0.17626582  0.35166547  0.19824765  1
  O  O533  1  0.17679924  0.35151838  0.44857667  1
  O  O534  1  0.17665314  0.35299833  0.70104243  1
  O  O535  1  0.17728065  0.35235816  0.94801485  1
  O  O536  1  0.17600496  0.68711793  0.20014132  1
  O  O537  1  0.17638447  0.68839667  0.44945139  1
  O  O538  1  0.17667830  0.68660753  0.70099517  1
  O  O539  1  0.17639042  0.68816728  0.94946282  1
  O  O540  1  0.67708996  0.02073421  0.20000734  1
  O  O541  1  0.67754249  0.02081916  0.45035627  1
  O  O542  1  0.67780014  0.01951300  0.69747520  1
  O  O543  1  0.67624833  0.01914956  0.94875522  1
  O  O544  1  0.67733318  0.35151723  0.19926887  1
  O  O545  1  0.67648280  0.35302450  0.45184412  1
  O  O546  1  0.67739467  0.35452312  0.70005047  1
  O  O547  1  0.67706954  0.35257674  0.95021942  1
  O  O548  1  0.67576604  0.68644965  0.19970393  1
  O  O549  1  0.67689793  0.68498425  0.45038588  1
  O  O550  1  0.67738773  0.68690651  0.69867029  1
  O  O551  1  0.67737083  0.68630463  0.94710857  1
  O  O552  1  0.32245100  0.31380611  0.05117756  1
  O  O553  1  0.32343423  0.31441696  0.29998991  1
  O  O554  1  0.32425998  0.31342517  0.55018994  1
  O  O555  1  0.32341497  0.31405478  0.80168955  1
  O  O556  1  0.32278899  0.64680039  0.04828895  1
  O  O557  1  0.32392916  0.64659589  0.29925174  1
  O  O558  1  0.32385895  0.64714825  0.54987273  1
  O  O559  1  0.32358550  0.64580504  0.80031156  1
  O  O560  1  0.32347930  0.98159474  0.05035885  1
  O  O561  1  0.32342266  0.97972835  0.30050610  1
  O  O562  1  0.32285615  0.98147064  0.55083654  1
  O  O563  1  0.32199652  0.98076575  0.80207481  1
  O  O564  1  0.82271478  0.31307003  0.05209035  1
  O  O565  1  0.82315063  0.31187340  0.30046893  1
  O  O566  1  0.82413233  0.31192288  0.55014132  1
  O  O567  1  0.82388670  0.31313342  0.79947098  1
  O  O568  1  0.82357381  0.64752414  0.04983476  1
  O  O569  1  0.82302120  0.64767330  0.30152634  1
  O  O570  1  0.82310188  0.64709949  0.55226542  1
  O  O571  1  0.82300663  0.64859404  0.79999509  1
  O  O572  1  0.82377840  0.97946442  0.04884636  1
  O  O573  1  0.82411398  0.98007670  0.30043422  1
  O  O574  1  0.82140055  0.98019826  0.55209663  1
  O  O575  1  0.82220280  0.98011283  0.80102553  1
  O  O576  1  0.42704887  0.14893664  0.17602834  1
  O  O577  1  0.42700614  0.14626358  0.42587283  1
  O  O578  1  0.42669895  0.14548600  0.67479052  1
  O  O579  1  0.42582158  0.14671309  0.92366943  1
  O  O580  1  0.42753508  0.48226009  0.17499402  1
  O  O581  1  0.42655319  0.48130951  0.42604179  1
  O  O582  1  0.42744090  0.48042113  0.67731224  1
  O  O583  1  0.42832132  0.48047581  0.92621662  1
  O  O584  1  0.42640311  0.81330661  0.17336846  1
  O  O585  1  0.42707418  0.81447554  0.42598896  1
  O  O586  1  0.42698910  0.81469287  0.67583370  1
  O  O587  1  0.42712722  0.81227586  0.92456617  1
  O  O588  1  0.92716831  0.14473981  0.17531152  1
  O  O589  1  0.92793313  0.14694949  0.42684337  1
  O  O590  1  0.92631183  0.14575739  0.67476059  1
  O  O591  1  0.92703037  0.14645339  0.92687080  1
  O  O592  1  0.92692432  0.48146854  0.17584321  1
  O  O593  1  0.92600289  0.48064554  0.42550497  1
  O  O594  1  0.92855139  0.48022770  0.67710607  1
  O  O595  1  0.92622281  0.48030935  0.92368185  1
  O  O596  1  0.92658417  0.81267134  0.17463999  1
  O  O597  1  0.92645298  0.81475080  0.42612021  1
  O  O598  1  0.92721777  0.81387406  0.67743285  1
  O  O599  1  0.92772812  0.81326337  0.92631552  1
  O  O600  1  0.07273057  0.18495165  0.07406302  1
  O  O601  1  0.07415487  0.18602710  0.32528385  1
  O  O602  1  0.07323004  0.18526055  0.57521564  1
  O  O603  1  0.07303912  0.18668350  0.82506046  1
  O  O604  1  0.07305050  0.52108493  0.07425878  1
  O  O605  1  0.07160519  0.52028611  0.32287830  1
  O  O606  1  0.07373706  0.52019912  0.57573672  1
  O  O607  1  0.07145419  0.52000298  0.82362218  1
  O  O608  1  0.07257410  0.85258693  0.07393368  1
  O  O609  1  0.07291249  0.85488719  0.32497438  1
  O  O610  1  0.07175477  0.85245906  0.57339856  1
  O  O611  1  0.07258503  0.85194259  0.82476982  1
  O  O612  1  0.57281980  0.18833597  0.07421752  1
  O  O613  1  0.57273297  0.18528829  0.32432046  1
  O  O614  1  0.57395902  0.18684807  0.57666269  1
  O  O615  1  0.57378237  0.18827097  0.82534411  1
  O  O616  1  0.57277757  0.51984281  0.07296170  1
  O  O617  1  0.57348483  0.51857519  0.32388155  1
  O  O618  1  0.57314332  0.51852702  0.57461728  1
  O  O619  1  0.57336638  0.51848944  0.82480489  1
  O  O620  1  0.57485615  0.85370953  0.07414664  1
  O  O621  1  0.57381970  0.85311190  0.32565709  1
  O  O622  1  0.57161303  0.85287985  0.57358158  1
  O  O623  1  0.57196333  0.85244621  0.82231394  1
  O  O624  1  0.32144371  0.18641821  0.05135299  1
  O  O625  1  0.32295757  0.18743208  0.29949193  1
  O  O626  1  0.32440409  0.18660281  0.54996442  1
  O  O627  1  0.32348454  0.18684596  0.80087172  1
  O  O628  1  0.32357320  0.51978055  0.04915238  1
  O  O629  1  0.32364057  0.51959637  0.29906588  1
  O  O630  1  0.32381170  0.52006262  0.54965671  1
  O  O631  1  0.32306788  0.51860149  0.80143747  1
  O  O632  1  0.32303756  0.85471638  0.04961389  1
  O  O633  1  0.32324982  0.85259093  0.30059495  1
  O  O634  1  0.32267449  0.85447537  0.55126377  1
  O  O635  1  0.32161909  0.85339837  0.80129328  1
  O  O636  1  0.82237190  0.18553368  0.05165222  1
  O  O637  1  0.82343443  0.18493088  0.30058649  1
  O  O638  1  0.82335052  0.18481971  0.55173061  1
  O  O639  1  0.82445903  0.18620420  0.80003928  1
  O  O640  1  0.82451457  0.52070245  0.04926723  1
  O  O641  1  0.82271510  0.52042611  0.30102746  1
  O  O642  1  0.82246874  0.51981808  0.55181909  1
  O  O643  1  0.82307779  0.52161029  0.79979899  1
  O  O644  1  0.82312887  0.85272736  0.04853484  1
  O  O645  1  0.82435673  0.85311465  0.30032298  1
  O  O646  1  0.82166337  0.85280355  0.55229254  1
  O  O647  1  0.82110884  0.85292639  0.80105312  1
  O  O648  1  0.17838827  0.14720372  0.19757150  1
  O  O649  1  0.17615048  0.14679008  0.45045989  1
  O  O650  1  0.17697818  0.14565759  0.70055476  1
  O  O651  1  0.17694597  0.14608613  0.95026318  1
  O  O652  1  0.17670455  0.47868730  0.19934000  1
  O  O653  1  0.17647472  0.47884151  0.44876085  1
  O  O654  1  0.17647526  0.47972661  0.70065310  1
  O  O655  1  0.17752391  0.47983801  0.94834647  1
  O  O656  1  0.17545233  0.81399300  0.19975706  1
  O  O657  1  0.17670966  0.81570510  0.44898745  1
  O  O658  1  0.17564481  0.81351173  0.70063007  1
  O  O659  1  0.17681635  0.81547465  0.94888006  1
  O  O660  1  0.67707614  0.14779497  0.19860100  1
  O  O661  1  0.67711181  0.14784112  0.44969130  1
  O  O662  1  0.67785540  0.14689245  0.69915525  1
  O  O663  1  0.67703361  0.14618134  0.94903329  1
  O  O664  1  0.67733708  0.47884870  0.19987705  1
  O  O665  1  0.67629684  0.47987570  0.45043633  1
  O  O666  1  0.67754487  0.48177716  0.69933329  1
  O  O667  1  0.67649616  0.47942372  0.95142002  1
  O  O668  1  0.67610172  0.81330143  0.20028853  1
  O  O669  1  0.67713068  0.81205492  0.45092678  1
  O  O670  1  0.67834654  0.81403384  0.69820569  1
  O  O671  1  0.67789703  0.81367258  0.94646487  1
