# generated using pymatgen
data_Na2MnFe(PO4)2
_symmetry_space_group_name_H-M   'P 1'
_cell_length_a   22.34226422
_cell_length_b   20.09365805
_cell_length_c   19.45044446
_cell_angle_alpha   90.03857919
_cell_angle_beta   89.99822503
_cell_angle_gamma   90.03886095
_symmetry_Int_Tables_number   1
_chemical_formula_structural   Na2MnFe(PO4)2
_chemical_formula_sum   'Na96 Mn48 Fe48 P96 O384'
_cell_volume   8732.03609038
_cell_formula_units_Z   48
loop_
 _symmetry_equiv_pos_site_id
 _symmetry_equiv_pos_as_xyz
  1  'x, y, z'
loop_
 _atom_site_type_symbol
 _atom_site_label
 _atom_site_symmetry_multiplicity
 _atom_site_fract_x
 _atom_site_fract_y
 _atom_site_fract_z
 _atom_site_occupancy
  Na  Na0  1  0.14070279  0.24986637  0.24370599  1
  Na  Na1  1  0.14094103  0.25039952  0.49339484  1
  Na  Na2  1  0.13969225  0.25001540  0.74312846  1
  Na  Na3  1  0.14003706  0.24974449  0.99394388  1
  Na  Na4  1  0.14042782  0.58261839  0.24328749  1
  Na  Na5  1  0.14089265  0.58311406  0.49129672  1
  Na  Na6  1  0.14099020  0.58324569  0.74397271  1
  Na  Na7  1  0.14032799  0.58345884  0.99344230  1
  Na  Na8  1  0.14013309  0.91563462  0.24334619  1
  Na  Na9  1  0.14074227  0.91638252  0.49258248  1
  Na  Na10  1  0.14025825  0.91531157  0.74510038  1
  Na  Na11  1  0.13961074  0.91532275  0.99365916  1
  Na  Na12  1  0.64005748  0.25027564  0.24398752  1
  Na  Na13  1  0.63999762  0.24948335  0.49375617  1
  Na  Na14  1  0.63970638  0.24976358  0.74251445  1
  Na  Na15  1  0.63958332  0.25100478  0.99286230  1
  Na  Na16  1  0.64036506  0.58426729  0.24355538  1
  Na  Na17  1  0.64121365  0.58320111  0.49390682  1
  Na  Na18  1  0.64065431  0.58249122  0.74414815  1
  Na  Na19  1  0.64021726  0.58531521  0.99351250  1
  Na  Na20  1  0.64024832  0.91629572  0.24473206  1
  Na  Na21  1  0.64044334  0.91627614  0.49423207  1
  Na  Na22  1  0.64031641  0.91663122  0.74442423  1
  Na  Na23  1  0.63990382  0.91647087  0.99460034  1
  Na  Na24  1  0.35920691  0.08361057  0.00716744  1
  Na  Na25  1  0.35833865  0.08317887  0.25683464  1
  Na  Na26  1  0.35917913  0.08486056  0.50578656  1
  Na  Na27  1  0.35959037  0.08354262  0.75618383  1
  Na  Na28  1  0.35986444  0.41625196  0.00730711  1
  Na  Na29  1  0.35976513  0.41623797  0.25717761  1
  Na  Na30  1  0.36012507  0.41657209  0.50560124  1
  Na  Na31  1  0.36019889  0.41651837  0.75643873  1
  Na  Na32  1  0.35982898  0.74983905  0.00743229  1
  Na  Na33  1  0.35917625  0.75031649  0.25646734  1
  Na  Na34  1  0.35955793  0.75032801  0.50498427  1
  Na  Na35  1  0.35984881  0.74972298  0.75694693  1
  Na  Na36  1  0.85973831  0.08284868  0.00690937  1
  Na  Na37  1  0.85891448  0.08254085  0.25559851  1
  Na  Na38  1  0.85895473  0.08241874  0.50666934  1
  Na  Na39  1  0.85955647  0.08312904  0.75676352  1
  Na  Na40  1  0.85966933  0.41926530  0.00588196  1
  Na  Na41  1  0.85988240  0.41750861  0.25568423  1
  Na  Na42  1  0.86011131  0.41558991  0.50616959  1
  Na  Na43  1  0.86016926  0.41586891  0.75579219  1
  Na  Na44  1  0.85984627  0.75185821  0.00733899  1
  Na  Na45  1  0.85974401  0.75141560  0.25547528  1
  Na  Na46  1  0.86033048  0.75002798  0.50578754  1
  Na  Na47  1  0.86041006  0.74997750  0.75676974  1
  Na  Na48  1  0.10905312  0.08211798  0.11852858  1
  Na  Na49  1  0.10997154  0.08224228  0.36761400  1
  Na  Na50  1  0.10937815  0.08367405  0.61904367  1
  Na  Na51  1  0.10890960  0.08315916  0.86987928  1
  Na  Na52  1  0.11014778  0.41733131  0.11828711  1
  Na  Na53  1  0.11055982  0.41709417  0.36784399  1
  Na  Na54  1  0.11011406  0.41652712  0.61773913  1
  Na  Na55  1  0.10954142  0.41622570  0.86950057  1
  Na  Na56  1  0.10968039  0.75103418  0.11728424  1
  Na  Na57  1  0.11006627  0.74854589  0.36722989  1
  Na  Na58  1  0.11019779  0.74969872  0.61881019  1
  Na  Na59  1  0.11051279  0.74987895  0.86934261  1
  Na  Na60  1  0.60908186  0.08359373  0.11860847  1
  Na  Na61  1  0.60948317  0.08425553  0.36925113  1
  Na  Na62  1  0.60919312  0.08432045  0.61813461  1
  Na  Na63  1  0.60886370  0.08457899  0.86926154  1
  Na  Na64  1  0.60901104  0.41695233  0.11894718  1
  Na  Na65  1  0.61001405  0.41594462  0.36903939  1
  Na  Na66  1  0.60995007  0.41526668  0.61926609  1
  Na  Na67  1  0.60925499  0.41576360  0.86775057  1
  Na  Na68  1  0.60970614  0.75038182  0.11807139  1
  Na  Na69  1  0.61001677  0.75074915  0.36852708  1
  Na  Na70  1  0.61004563  0.75042721  0.61910027  1
  Na  Na71  1  0.60979360  0.74999963  0.86964860  1
  Na  Na72  1  0.39021711  0.25144104  0.13167696  1
  Na  Na73  1  0.38989281  0.25098347  0.38172873  1
  Na  Na74  1  0.39038337  0.25109435  0.63076030  1
  Na  Na75  1  0.39054401  0.25059016  0.88049151  1
  Na  Na76  1  0.39031472  0.58240118  0.13182981  1
  Na  Na77  1  0.39019763  0.58248223  0.38159642  1
  Na  Na78  1  0.39064388  0.58264266  0.63082619  1
  Na  Na79  1  0.39074287  0.58266134  0.88213673  1
  Na  Na80  1  0.38913825  0.91637831  0.13163711  1
  Na  Na81  1  0.38951899  0.91766444  0.38186006  1
  Na  Na82  1  0.39019496  0.91707299  0.63057881  1
  Na  Na83  1  0.39023759  0.91614048  0.88312589  1
  Na  Na84  1  0.89061306  0.25060973  0.13096980  1
  Na  Na85  1  0.89018728  0.25106198  0.38192779  1
  Na  Na86  1  0.89010417  0.24996996  0.63172349  1
  Na  Na87  1  0.89060275  0.25000648  0.87994322  1
  Na  Na88  1  0.89038973  0.58474767  0.13015785  1
  Na  Na89  1  0.89107640  0.58306986  0.38029893  1
  Na  Na90  1  0.89168782  0.58337161  0.63055908  1
  Na  Na91  1  0.89092581  0.58396836  0.88178802  1
  Na  Na92  1  0.88940770  0.91651566  0.13131157  1
  Na  Na93  1  0.88951321  0.91491667  0.38137903  1
  Na  Na94  1  0.89054949  0.91629025  0.63135067  1
  Na  Na95  1  0.89059555  0.91581727  0.88254302  1
  Mn  Mn96  1  0.49915758  0.16827246  0.24921363  1
  Mn  Mn97  1  0.74975032  0.16681933  0.87538107  1
  Mn  Mn98  1  0.74908654  0.50170658  0.12532972  1
  Mn  Mn99  1  0.00136920  0.49974571  0.75007853  1
  Mn  Mn100  1  0.00103957  0.33410342  0.49995632  1
  Mn  Mn101  1  0.25011142  0.83299702  0.62449982  1
  Mn  Mn102  1  0.75053797  0.66796485  0.37442326  1
  Mn  Mn103  1  0.24965415  0.33351448  0.87531423  1
  Mn  Mn104  1  0.50003620  0.00111349  0.75050173  1
  Mn  Mn105  1  0.25104638  0.49966786  0.62413355  1
  Mn  Mn106  1  0.50096005  0.66669317  0.50059034  1
  Mn  Mn107  1  0.75087483  0.66727236  0.62500117  1
  Mn  Mn108  1  0.49943674  0.66579325  0.75000312  1
  Mn  Mn109  1  0.75116497  0.49899755  0.62401491  1
  Mn  Mn110  1  0.49988477  0.00109823  0.50050493  1
  Mn  Mn111  1  0.75021322  0.66767049  0.87462396  1
  Mn  Mn112  1  0.25003621  -0.00006592  0.62470440  1
  Mn  Mn113  1  0.74969038  0.33432392  0.12420509  1
  Mn  Mn114  1  0.24939789  0.50013569  0.87520135  1
  Mn  Mn115  1  -0.00024255  0.33334766  -0.00024100  1
  Mn  Mn116  1  0.75065849  0.49951134  0.37427351  1
  Mn  Mn117  1  0.49936426  0.00062567  0.25011165  1
  Mn  Mn118  1  0.00044390  0.66648039  0.24919490  1
  Mn  Mn119  1  0.75001496  0.16650393  0.12544659  1
  Mn  Mn120  1  0.00013413  -0.00028817  0.75072777  1
  Mn  Mn121  1  0.00117361  0.83204521  0.50032804  1
  Mn  Mn122  1  0.49964119  0.83317446  0.75063793  1
  Mn  Mn123  1  0.24935704  -0.00135137  0.87576607  1
  Mn  Mn124  1  0.24933186  0.16728764  0.62483843  1
  Mn  Mn125  1  0.24932329  0.16631415  0.12597273  1
  Mn  Mn126  1  0.50104107  0.49881751  0.50082925  1
  Mn  Mn127  1  0.75077403  0.33427351  0.87434176  1
  Mn  Mn128  1  -0.00056830  0.16634465  0.24983028  1
  Mn  Mn129  1  0.75019939  0.16621280  0.37502882  1
  Mn  Mn130  1  0.49889396  0.00066038  -0.00016387  1
  Mn  Mn131  1  0.49994566  0.49927961  0.00045105  1
  Mn  Mn132  1  0.00006998  -0.00048480  0.50037233  1
  Mn  Mn133  1  0.24987180  0.16656273  0.87565056  1
  Mn  Mn134  1  0.49940677  0.83338407  0.25006230  1
  Mn  Mn135  1  0.25025044  0.66662911  0.62414539  1
  Mn  Mn136  1  0.75021062  -0.00097343  0.62568505  1
  Mn  Mn137  1  -0.00006451  0.16668975  0.49994237  1
  Mn  Mn138  1  0.00036788  0.33452173  0.24997906  1
  Mn  Mn139  1  0.00130355  0.66702132  0.75052354  1
  Mn  Mn140  1  0.24990831  0.66628373  0.12525876  1
  Mn  Mn141  1  -0.00134297  -0.00130613  0.24902908  1
  Mn  Mn142  1  0.49928041  0.66618733  0.25029509  1
  Mn  Mn143  1  0.74915146  -0.00060117  0.87534729  1
  Fe  Fe144  1  0.74964437  0.16595445  0.62468079  1
  Fe  Fe145  1  0.75007900  0.50074858  0.87461461  1
  Fe  Fe146  1  0.25042984  0.49970016  0.12535413  1
  Fe  Fe147  1  0.49994051  0.83313815  0.00039488  1
  Fe  Fe148  1  -0.00018087  0.16642003  0.75039303  1
  Fe  Fe149  1  0.00047530  0.66619886  0.49942585  1
  Fe  Fe150  1  0.50045869  0.49963117  0.25044174  1
  Fe  Fe151  1  0.24983290  0.16694691  0.37512704  1
  Fe  Fe152  1  0.49966859  0.33317842  -0.00060784  1
  Fe  Fe153  1  0.24991188  0.33300697  0.12593367  1
  Fe  Fe154  1  0.24998092  0.83364020  0.37430660  1
  Fe  Fe155  1  0.00029730  0.50065245  0.24916097  1
  Fe  Fe156  1  0.00034704  0.50006905  0.49980048  1
  Fe  Fe157  1  0.24949217  -0.00018839  0.37441907  1
  Fe  Fe158  1  0.00033297  0.66710910  0.00018083  1
  Fe  Fe159  1  0.49962008  0.16757568  0.74943335  1
  Fe  Fe160  1  0.50060404  0.49927962  0.75083738  1
  Fe  Fe161  1  0.25071750  0.83275024  0.87543921  1
  Fe  Fe162  1  -0.00022937  0.16681377  -0.00032791  1
  Fe  Fe163  1  0.25008896  0.33378952  0.62427948  1
  Fe  Fe164  1  0.49975467  0.33338088  0.50027063  1
  Fe  Fe165  1  0.00002592  0.50026248  -0.00042215  1
  Fe  Fe166  1  0.00023503  0.33330237  0.74982127  1
  Fe  Fe167  1  0.24961800  0.83304942  0.12564451  1
  Fe  Fe168  1  0.74995998  0.33256586  0.37521867  1
  Fe  Fe169  1  0.24915125  -0.00077319  0.12556482  1
  Fe  Fe170  1  0.00018682  0.83286801  0.75062653  1
  Fe  Fe171  1  0.74988251  0.33259318  0.62504337  1
  Fe  Fe172  1  0.75038376  0.83323721  0.62504758  1
  Fe  Fe173  1  0.74944864  0.83437617  0.12567804  1
  Fe  Fe174  1  0.49982765  0.83369950  0.50024896  1
  Fe  Fe175  1  0.74948093  0.83360145  0.37466134  1
  Fe  Fe176  1  0.49929334  0.16779942  0.49970152  1
  Fe  Fe177  1  0.74886295  -0.00035747  0.12572016  1
  Fe  Fe178  1  -0.00022509  0.83336981  -0.00030524  1
  Fe  Fe179  1  0.50020251  0.33279382  0.74974840  1
  Fe  Fe180  1  0.75042335  0.83380789  0.87597923  1
  Fe  Fe181  1  0.49917641  0.16771556  -0.00041610  1
  Fe  Fe182  1  0.75020980  0.66826376  0.12433954  1
  Fe  Fe183  1  0.74979097  -0.00056787  0.37567892  1
  Fe  Fe184  1  0.50040629  0.33357263  0.25014921  1
  Fe  Fe185  1  0.25009925  0.33363660  0.37457711  1
  Fe  Fe186  1  0.25030740  0.66683719  0.37376157  1
  Fe  Fe187  1  0.25017175  0.49958708  0.37428628  1
  Fe  Fe188  1  0.50022565  0.66596515  0.00052615  1
  Fe  Fe189  1  0.00000863  0.83286354  0.24917018  1
  Fe  Fe190  1  -0.00077034  -0.00027107  -0.00020547  1
  Fe  Fe191  1  0.25089017  0.66641145  0.87539283  1
  P  P192  1  0.04215089  0.24900385  0.10224149  1
  P  P193  1  0.04303822  0.25023788  0.35278266  1
  P  P194  1  0.04277002  0.25008181  0.60382720  1
  P  P195  1  0.04137630  0.24976585  0.85180705  1
  P  P196  1  0.04143789  0.58330033  0.10143463  1
  P  P197  1  0.04251321  0.58191974  0.35243881  1
  P  P198  1  0.04268877  0.58339518  0.60101374  1
  P  P199  1  0.04332961  0.58341260  0.85422435  1
  P  P200  1  0.04060605  0.91620117  0.10137692  1
  P  P201  1  0.04179505  0.91461943  0.35185083  1
  P  P202  1  0.04352059  0.91618942  0.60380429  1
  P  P203  1  0.04168335  0.91495988  0.85368440  1
  P  P204  1  0.54127577  0.25089939  0.10137578  1
  P  P205  1  0.54186821  0.25156594  0.35297808  1
  P  P206  1  0.54112213  0.25023196  0.60196707  1
  P  P207  1  0.54144581  0.24996879  0.85175665  1
  P  P208  1  0.54214989  0.58374927  0.10308085  1
  P  P209  1  0.54254797  0.58193264  0.35268114  1
  P  P210  1  0.54359672  0.58247849  0.60399929  1
  P  P211  1  0.54226344  0.58211343  0.85320283  1
  P  P212  1  0.54128796  0.91623590  0.10237549  1
  P  P213  1  0.54195530  0.91707654  0.35391941  1
  P  P214  1  0.54206375  0.91618677  0.60268607  1
  P  P215  1  0.54214238  0.91682535  0.85408244  1
  P  P216  1  0.45633593  0.08422084  0.14641310  1
  P  P217  1  0.45740253  0.08548147  0.39754530  1
  P  P218  1  0.45755778  0.08538180  0.64712372  1
  P  P219  1  0.45707003  0.08582454  0.89708121  1
  P  P220  1  0.45853318  0.41646924  0.14864316  1
  P  P221  1  0.45838264  0.41538716  0.39714735  1
  P  P222  1  0.45893220  0.41630851  0.64869939  1
  P  P223  1  0.45776066  0.41519980  0.89714555  1
  P  P224  1  0.45712633  0.74965099  0.14616762  1
  P  P225  1  0.45816542  0.75072121  0.39795261  1
  P  P226  1  0.45723005  0.75017776  0.64666053  1
  P  P227  1  0.45869009  0.74916940  0.89912590  1
  P  P228  1  0.95667442  0.08306660  0.14558645  1
  P  P229  1  0.95676720  0.08254450  0.39690822  1
  P  P230  1  0.95757988  0.08411041  0.64818523  1
  P  P231  1  0.95832510  0.08367257  0.89811727  1
  P  P232  1  0.95796418  0.41871246  0.14668610  1
  P  P233  1  0.95835279  0.41847538  0.39700318  1
  P  P234  1  0.95851854  0.41602126  0.64722105  1
  P  P235  1  0.95790816  0.41750976  0.89700790  1
  P  P236  1  0.95828299  0.75116800  0.14625039  1
  P  P237  1  0.95838712  0.74812641  0.39695360  1
  P  P238  1  0.95843447  0.75053666  0.64758071  1
  P  P239  1  0.95884960  0.75007145  0.89840316  1
  P  P240  1  0.20722054  0.08112143  0.22839121  1
  P  P241  1  0.20834855  0.08333068  0.47611128  1
  P  P242  1  0.20701377  0.08288344  0.72826442  1
  P  P243  1  0.20696806  0.08238312  0.97916868  1
  P  P244  1  0.20898322  0.41660625  0.22736133  1
  P  P245  1  0.20899604  0.41648858  0.47624655  1
  P  P246  1  0.20782640  0.41580442  0.72678122  1
  P  P247  1  0.20725093  0.41676857  0.97945069  1
  P  P248  1  0.20782580  0.75079520  0.22806154  1
  P  P249  1  0.20866859  0.75009602  0.47541519  1
  P  P250  1  0.20803613  0.74952357  0.72883668  1
  P  P251  1  0.20916420  0.74981410  0.97716289  1
  P  P252  1  0.70720455  0.08173525  0.22828590  1
  P  P253  1  0.70787633  0.08206214  0.47801343  1
  P  P254  1  0.70732018  0.08393268  0.72735916  1
  P  P255  1  0.70684573  0.08280675  0.97901136  1
  P  P256  1  0.70700971  0.41670755  0.22842910  1
  P  P257  1  0.70841341  0.41470118  0.47758229  1
  P  P258  1  0.70827678  0.41581358  0.72740596  1
  P  P259  1  0.70755920  0.41905825  0.97690578  1
  P  P260  1  0.70823603  0.75094321  0.22662917  1
  P  P261  1  0.70798616  0.75175266  0.47761848  1
  P  P262  1  0.70828027  0.75164644  0.72802012  1
  P  P263  1  0.70809102  0.75189921  0.97844085  1
  P  P264  1  0.29178975  0.25092628  0.02354542  1
  P  P265  1  0.29100286  0.25017460  0.27331750  1
  P  P266  1  0.29181816  0.25170319  0.52152200  1
  P  P267  1  0.29231330  0.25027683  0.77157391  1
  P  P268  1  0.29217683  0.58237188  0.02271225  1
  P  P269  1  0.29140118  0.58259040  0.27282417  1
  P  P270  1  0.29309970  0.58341719  0.52011800  1
  P  P271  1  0.29284425  0.58405207  0.77280338  1
  P  P272  1  0.29079038  0.91587031  0.02379720  1
  P  P273  1  0.29113311  0.91665611  0.27254354  1
  P  P274  1  0.29252870  0.91679664  0.52050596  1
  P  P275  1  0.29291144  0.91513171  0.77306257  1
  P  P276  1  0.79280676  0.25039535  0.02178731  1
  P  P277  1  0.79244556  0.25092060  0.27256424  1
  P  P278  1  0.79128175  0.24965789  0.52317390  1
  P  P279  1  0.79220520  0.24959246  0.77071902  1
  P  P280  1  0.79185516  0.58562333  0.02197575  1
  P  P281  1  0.79289488  0.58464737  0.27096543  1
  P  P282  1  0.79363244  0.58350758  0.52139184  1
  P  P283  1  0.79298110  0.58239043  0.77237386  1
  P  P284  1  0.79095906  0.91675500  0.02372859  1
  P  P285  1  0.79087580  0.91688626  0.27293613  1
  P  P286  1  0.79241312  0.91506773  0.52212983  1
  P  P287  1  0.79256880  0.91513374  0.77293309  1
  O  O288  1  0.03687680  0.24952880  0.18214906  1
  O  O289  1  0.03824953  0.25045889  0.43277283  1
  O  O290  1  0.03735402  0.25011108  0.68374195  1
  O  O291  1  0.03607034  0.24943822  0.93178401  1
  O  O292  1  0.03668393  0.58316305  0.18142746  1
  O  O293  1  0.03722827  0.58218707  0.43229366  1
  O  O294  1  0.03792815  0.58346907  0.68104248  1
  O  O295  1  0.03776239  0.58344901  0.93406274  1
  O  O296  1  0.03583161  0.91579981  0.18133391  1
  O  O297  1  0.03731081  0.91492476  0.43184765  1
  O  O298  1  0.03830911  0.91608560  0.68375402  1
  O  O299  1  0.03592098  0.91517767  0.93353834  1
  O  O300  1  0.53627199  0.25146639  0.18132764  1
  O  O301  1  0.53653150  0.25117912  0.43281996  1
  O  O302  1  0.53595491  0.24985667  0.68182482  1
  O  O303  1  0.53649215  0.25020275  0.93164471  1
  O  O304  1  0.53699524  0.58322358  0.18301748  1
  O  O305  1  0.53796549  0.58224477  0.43268767  1
  O  O306  1  0.53819905  0.58205950  0.68392563  1
  O  O307  1  0.53684875  0.58277361  0.93316259  1
  O  O308  1  0.53634324  0.91643558  0.18235027  1
  O  O309  1  0.53674408  0.91666163  0.43386442  1
  O  O310  1  0.53729847  0.91651851  0.68270556  1
  O  O311  1  0.53652338  0.91642252  0.93400121  1
  O  O312  1  0.46130316  0.08450212  0.06644491  1
  O  O313  1  0.46237747  0.08520245  0.31757703  1
  O  O314  1  0.46285326  0.08534144  0.56716284  1
  O  O315  1  0.46267760  0.08568472  0.81714770  1
  O  O316  1  0.46342279  0.41627784  0.06868747  1
  O  O317  1  0.46370819  0.41581947  0.31731361  1
  O  O318  1  0.46388851  0.41564299  0.56875253  1
  O  O319  1  0.46317066  0.41556010  0.81735040  1
  O  O320  1  0.46259123  0.74946287  0.06628180  1
  O  O321  1  0.46265898  0.75039336  0.31790284  1
  O  O322  1  0.46278655  0.75072191  0.56676147  1
  O  O323  1  0.46314936  0.74909642  0.81909280  1
  O  O324  1  0.96202561  0.08334737  0.06569010  1
  O  O325  1  0.96147585  0.08233861  0.31689384  1
  O  O326  1  0.96254702  0.08368578  0.56821837  1
  O  O327  1  0.96353011  0.08372141  0.81814971  1
  O  O328  1  0.96313306  0.41846690  0.06673625  1
  O  O329  1  0.96343729  0.41859677  0.31702967  1
  O  O330  1  0.96367692  0.41676396  0.56725813  1
  O  O331  1  0.96363513  0.41672361  0.81712110  1
  O  O332  1  0.96349693  0.75123389  0.06638663  1
  O  O333  1  0.96332053  0.74855938  0.31700997  1
  O  O334  1  0.96371346  0.74963250  0.56766796  1
  O  O335  1  0.96355746  0.75006547  0.81842957  1
  O  O336  1  0.21209493  0.08207845  0.05912331  1
  O  O337  1  0.21266096  0.08106469  0.30823722  1
  O  O338  1  0.21313946  0.08369695  0.55612581  1
  O  O339  1  0.21207664  0.08284268  0.80824000  1
  O  O340  1  0.21267879  0.41688271  0.05933411  1
  O  O341  1  0.21412851  0.41634766  0.30728058  1
  O  O342  1  0.21385636  0.41662056  0.55620359  1
  O  O343  1  0.21241235  0.41623527  0.80678227  1
  O  O344  1  0.21364079  0.75004378  0.05717694  1
  O  O345  1  0.21330468  0.75060078  0.30788873  1
  O  O346  1  0.21345878  0.74983711  0.55543140  1
  O  O347  1  0.21362459  0.74920494  0.80873277  1
  O  O348  1  0.71200700  0.08242615  0.05897859  1
  O  O349  1  0.71287446  0.08176344  0.30821981  1
  O  O350  1  0.71336022  0.08275619  0.55793171  1
  O  O351  1  0.71210983  0.08382104  0.80735219  1
  O  O352  1  0.71232917  0.41896793  0.05691411  1
  O  O353  1  0.71248662  0.41583741  0.30833885  1
  O  O354  1  0.71385055  0.41443196  0.55751055  1
  O  O355  1  0.71368284  0.41690929  0.80731459  1
  O  O356  1  0.71344045  0.75149848  0.05832923  1
  O  O357  1  0.71323615  0.75121827  0.30660493  1
  O  O358  1  0.71319863  0.75157349  0.55755374  1
  O  O359  1  0.71364435  0.75175878  0.80797495  1
  O  O360  1  0.28598593  0.25002566  0.19338140  1
  O  O361  1  0.28636121  0.25161847  0.44166306  1
  O  O362  1  0.28720465  0.25064131  0.69160936  1
  O  O363  1  0.28671154  0.25076401  0.94360930  1
  O  O364  1  0.28655241  0.58209269  0.19283827  1
  O  O365  1  0.28788790  0.58331476  0.44022484  1
  O  O366  1  0.28820453  0.58378191  0.69276568  1
  O  O367  1  0.28696330  0.58315098  0.94278852  1
  O  O368  1  0.28563878  0.91652571  0.19263857  1
  O  O369  1  0.28698594  0.91702744  0.44059839  1
  O  O370  1  0.28812615  0.91546435  0.69305935  1
  O  O371  1  0.28606292  0.91520676  0.94382171  1
  O  O372  1  0.78716237  0.25068396  0.19263413  1
  O  O373  1  0.78643450  0.24987661  0.44313480  1
  O  O374  1  0.78658558  0.24933087  0.69081131  1
  O  O375  1  0.78784404  0.25035746  0.94179304  1
  O  O376  1  0.78732583  0.58540273  0.19104482  1
  O  O377  1  0.78833739  0.58363048  0.44146338  1
  O  O378  1  0.78814382  0.58266062  0.69238465  1
  O  O379  1  0.78666936  0.58477603  0.94203437  1
  O  O380  1  0.78512124  0.91713714  0.19308839  1
  O  O381  1  0.78687146  0.91559000  0.44228048  1
  O  O382  1  0.78774237  0.91511871  0.69295952  1
  O  O383  1  0.78613363  0.91613283  0.94377451  1
  O  O384  1  0.22746810  0.25096423  0.05902420  1
  O  O385  1  0.22690100  0.25039346  0.30925834  1
  O  O386  1  0.22772060  0.25210884  0.55784394  1
  O  O387  1  0.22792676  0.24988931  0.80685238  1
  O  O388  1  0.22794748  0.58161815  0.05851561  1
  O  O389  1  0.22729904  0.58291851  0.30869181  1
  O  O390  1  0.22883904  0.58284321  0.55579633  1
  O  O391  1  0.22838329  0.58468872  0.80792242  1
  O  O392  1  0.22658462  0.91608013  0.05967895  1
  O  O393  1  0.22712816  0.91640234  0.30910927  1
  O  O394  1  0.22830366  0.91672968  0.55634745  1
  O  O395  1  0.22841494  0.91404640  0.80825000  1
  O  O396  1  0.72826826  0.25017105  0.05655705  1
  O  O397  1  0.72811992  0.25092033  0.30814009  1
  O  O398  1  0.72711487  0.24980603  0.55915358  1
  O  O399  1  0.72806135  0.25028067  0.80663810  1
  O  O400  1  0.72763886  0.58630584  0.05784437  1
  O  O401  1  0.72870139  0.58407981  0.30661406  1
  O  O402  1  0.72930530  0.58334563  0.55667326  1
  O  O403  1  0.72856319  0.58259167  0.80768392  1
  O  O404  1  0.72675114  0.91673594  0.05968475  1
  O  O405  1  0.72700292  0.91688776  0.30985154  1
  O  O406  1  0.72828391  0.91467997  0.55844977  1
  O  O407  1  0.72808383  0.91472472  0.80820614  1
  O  O408  1  0.27133630  0.08137984  0.19221141  1
  O  O409  1  0.27253141  0.08288254  0.44038853  1
  O  O410  1  0.27140671  0.08345221  0.69309482  1
  O  O411  1  0.27129954  0.08251666  0.94381486  1
  O  O412  1  0.27306981  0.41668206  0.19110776  1
  O  O413  1  0.27314723  0.41617276  0.44032889  1
  O  O414  1  0.27234496  0.41530253  0.69165687  1
  O  O415  1  0.27148014  0.41693544  0.94373614  1
  O  O416  1  0.27193466  0.75098581  0.19194059  1
  O  O417  1  0.27284965  0.75085975  0.43963146  1
  O  O418  1  0.27220979  0.74969615  0.69293090  1
  O  O419  1  0.27337392  0.75024402  0.94132841  1
  O  O420  1  0.77134291  0.08152598  0.19220736  1
  O  O421  1  0.77200459  0.08162295  0.44192125  1
  O  O422  1  0.77172614  0.08403015  0.69213394  1
  O  O423  1  0.77118131  0.08283644  0.94364566  1
  O  O424  1  0.77130362  0.41752949  0.19298724  1
  O  O425  1  0.77257593  0.41468749  0.44154696  1
  O  O426  1  0.77248302  0.41473520  0.69151879  1
  O  O427  1  0.77206771  0.41932611  0.94179996  1
  O  O428  1  0.77239354  0.75116397  0.19059581  1
  O  O429  1  0.77225143  0.75219114  0.44188700  1
  O  O430  1  0.77257002  0.75194343  0.69222119  1
  O  O431  1  0.77227024  0.75203944  0.94230739  1
  O  O432  1  0.02087649  0.08261686  0.18138768  1
  O  O433  1  0.02140130  0.08277972  0.43149131  1
  O  O434  1  0.02191740  0.08420425  0.68361427  1
  O  O435  1  0.02230274  0.08388529  0.93443465  1
  O  O436  1  0.02228366  0.41883991  0.18237363  1
  O  O437  1  0.02269334  0.41862687  0.43258609  1
  O  O438  1  0.02278864  0.41506283  0.68291771  1
  O  O439  1  0.02200909  0.41779803  0.93316984  1
  O  O440  1  0.02244666  0.75142512  0.18231326  1
  O  O441  1  0.02275015  0.74761671  0.43250273  1
  O  O442  1  0.02272153  0.75136673  0.68336079  1
  O  O443  1  0.02307397  0.75059386  0.93409510  1
  O  O444  1  0.52078920  0.08425614  0.18145337  1
  O  O445  1  0.52168173  0.08574256  0.43311771  1
  O  O446  1  0.52181777  0.08546990  0.68292051  1
  O  O447  1  0.52119690  0.08558066  0.93316403  1
  O  O448  1  0.52273329  0.41642143  0.18459342  1
  O  O449  1  0.52251394  0.41449467  0.43335346  1
  O  O450  1  0.52303853  0.41705696  0.68477966  1
  O  O451  1  0.52195936  0.41488419  0.93319096  1
  O  O452  1  0.52135899  0.74960110  0.18183643  1
  O  O453  1  0.52257696  0.75097710  0.43302795  1
  O  O454  1  0.52149353  0.74970693  0.68221147  1
  O  O455  1  0.52293785  0.74951422  0.93467845  1
  O  O456  1  0.47705122  0.25068600  0.06537137  1
  O  O457  1  0.47765580  0.25229641  0.31692218  1
  O  O458  1  0.47705091  0.25043826  0.56549227  1
  O  O459  1  0.47735189  0.24991571  0.81555404  1
  O  O460  1  0.47791148  0.58386399  0.06735275  1
  O  O461  1  0.47807095  0.58150153  0.31756767  1
  O  O462  1  0.47929681  0.58270285  0.56858328  1
  O  O463  1  0.47805658  0.58114412  0.81726906  1
  O  O464  1  0.47699577  0.91610453  0.06696987  1
  O  O465  1  0.47760088  0.91708457  0.31856261  1
  O  O466  1  0.47772081  0.91660567  0.56740880  1
  O  O467  1  0.47791156  0.91728141  0.81850864  1
  O  O468  1  0.97789912  0.24867634  0.06648534  1
  O  O469  1  0.97848389  0.25063436  0.31808013  1
  O  O470  1  0.97851622  0.25045468  0.56811122  1
  O  O471  1  0.97737744  0.25024606  0.81541546  1
  O  O472  1  0.97733337  0.58307315  0.06552512  1
  O  O473  1  0.97839003  0.58181105  0.31620790  1
  O  O474  1  0.97835426  0.58362412  0.56542314  1
  O  O475  1  0.97925120  0.58336870  0.81819419  1
  O  O476  1  0.97642986  0.91577571  0.06560086  1
  O  O477  1  0.97730058  0.91410177  0.31672977  1
  O  O478  1  0.97910620  0.91581097  0.56856532  1
  O  O479  1  0.97771970  0.91487621  0.81713764  1
  O  O480  1  0.07306592  0.31278288  0.07454712  1
  O  O481  1  0.07427199  0.31356119  0.32446824  1
  O  O482  1  0.07433687  0.31320648  0.57527467  1
  O  O483  1  0.07242435  0.31355753  0.82409268  1
  O  O484  1  0.07169091  0.64762240  0.07353424  1
  O  O485  1  0.07362367  0.64543614  0.32406932  1
  O  O486  1  0.07346322  0.64705044  0.57274117  1
  O  O487  1  0.07460622  0.64676741  0.82582979  1
  O  O488  1  0.07064232  0.98041250  0.07308437  1
  O  O489  1  0.07243179  0.97835534  0.32368622  1
  O  O490  1  0.07405630  0.98000589  0.57544743  1
  O  O491  1  0.07310495  0.97858935  0.82612529  1
  O  O492  1  0.57226868  0.31430604  0.07274847  1
  O  O493  1  0.57321852  0.31465787  0.32415259  1
  O  O494  1  0.57207516  0.31395208  0.57395031  1
  O  O495  1  0.57222196  0.31357236  0.82287441  1
  O  O496  1  0.57274966  0.64747222  0.07461393  1
  O  O497  1  0.57333211  0.64569943  0.32469927  1
  O  O498  1  0.57473861  0.64606016  0.57600681  1
  O  O499  1  0.57315721  0.64575729  0.82509876  1
  O  O500  1  0.57255408  0.97973925  0.07467715  1
  O  O501  1  0.57270247  0.98090246  0.32598184  1
  O  O502  1  0.57359053  0.97962138  0.57498367  1
  O  O503  1  0.57338075  0.98043002  0.82627735  1
  O  O504  1  0.42551585  0.02060955  0.17477523  1
  O  O505  1  0.42637857  0.02189872  0.42542650  1
  O  O506  1  0.42667834  0.02152785  0.67496857  1
  O  O507  1  0.42565787  0.02217539  0.92461350  1
  O  O508  1  0.42744017  0.35306083  0.17698443  1
  O  O509  1  0.42693270  0.35230558  0.42588662  1
  O  O510  1  0.42848705  0.35249728  0.67724265  1
  O  O511  1  0.42668122  0.35187682  0.92594561  1
  O  O512  1  0.42573758  0.68644973  0.17489810  1
  O  O513  1  0.42723823  0.68695015  0.42559784  1
  O  O514  1  0.42604141  0.68650687  0.67443187  1
  O  O515  1  0.42818943  0.68527973  0.92725111  1
  O  O516  1  0.92529004  0.01964079  0.17375488  1
  O  O517  1  0.92606201  0.01899573  0.42540025  1
  O  O518  1  0.92645907  0.02050289  0.67609552  1
  O  O519  1  0.92797722  0.01945278  0.92610049  1
  O  O520  1  0.92708171  0.35487050  0.17457937  1
  O  O521  1  0.92751735  0.35455436  0.42468688  1
  O  O522  1  0.92734344  0.35262649  0.67549315  1
  O  O523  1  0.92645263  0.35415153  0.92498779  1
  O  O524  1  0.92729549  0.68746143  0.17412883  1
  O  O525  1  0.92770971  0.68451673  0.42549727  1
  O  O526  1  0.92753623  0.68694436  0.67590203  1
  O  O527  1  0.92886415  0.68591263  0.92692904  1
  O  O528  1  0.17638435  0.01773027  0.19933302  1
  O  O529  1  0.17694867  0.01989620  0.44827504  1
  O  O530  1  0.17643708  0.01904619  0.70020205  1
  O  O531  1  0.17577034  0.01906798  0.95073185  1
  O  O532  1  0.17812308  0.35288337  0.19885782  1
  O  O533  1  0.17741807  0.35328184  0.44806251  1
  O  O534  1  0.17700009  0.35237016  0.69823762  1
  O  O535  1  0.17605466  0.35328250  0.95109148  1
  O  O536  1  0.17663773  0.68717854  0.19991821  1
  O  O537  1  0.17865975  0.68594271  0.44698874  1
  O  O538  1  0.17682517  0.68621545  0.69995835  1
  O  O539  1  0.17910114  0.68554248  0.94906564  1
  O  O540  1  0.67594270  0.01852649  0.19973346  1
  O  O541  1  0.67696577  0.01838814  0.45003638  1
  O  O542  1  0.67634260  0.02011210  0.69971758  1
  O  O543  1  0.67559558  0.01957026  0.95040028  1
  O  O544  1  0.67601196  0.35344591  0.19949130  1
  O  O545  1  0.67734810  0.35137867  0.44896916  1
  O  O546  1  0.67705147  0.35222498  0.69950983  1
  O  O547  1  0.67686544  0.35515362  0.94908412  1
  O  O548  1  0.67776982  0.68697962  0.19846096  1
  O  O549  1  0.67719714  0.68781461  0.44972184  1
  O  O550  1  0.67766586  0.68747306  0.70049713  1
  O  O551  1  0.67689039  0.68845833  0.94994760  1
  O  O552  1  0.32250880  0.31451624  0.05211891  1
  O  O553  1  0.32245827  0.31354087  0.30127506  1
  O  O554  1  0.32289666  0.31502046  0.55039365  1
  O  O555  1  0.32336119  0.31366458  0.80008590  1
  O  O556  1  0.32303026  0.64596936  0.05106816  1
  O  O557  1  0.32220258  0.64660855  0.30051663  1
  O  O558  1  0.32389956  0.64699596  0.54870912  1
  O  O559  1  0.32381289  0.64737147  0.80164109  1
  O  O560  1  0.32163297  0.97978316  0.05160417  1
  O  O561  1  0.32205326  0.98033783  0.30081758  1
  O  O562  1  0.32372381  0.98019702  0.54908482  1
  O  O563  1  0.32312446  0.97920666  0.80118713  1
  O  O564  1  0.82364509  0.31420456  0.04955309  1
  O  O565  1  0.82322299  0.31449082  0.30094332  1
  O  O566  1  0.82253863  0.31305279  0.55147660  1
  O  O567  1  0.82397142  0.31283828  0.79879110  1
  O  O568  1  0.82275926  0.64932763  0.05006054  1
  O  O569  1  0.82412475  0.64794704  0.29942104  1
  O  O570  1  0.82454137  0.64704485  0.54966391  1
  O  O571  1  0.82414516  0.64599331  0.80031156  1
  O  O572  1  0.82145172  0.98075583  0.05166550  1
  O  O573  1  0.82209349  0.98027337  0.30148334  1
  O  O574  1  0.82342836  0.97868295  0.55058179  1
  O  O575  1  0.82294064  0.97931283  0.80086383  1
  O  O576  1  0.42517012  0.14753208  0.17486035  1
  O  O577  1  0.42664920  0.14909974  0.42574337  1
  O  O578  1  0.42647781  0.14866990  0.67558818  1
  O  O579  1  0.42631677  0.14923298  0.92578937  1
  O  O580  1  0.42815610  0.48044076  0.17695724  1
  O  O581  1  0.42774548  0.47912886  0.42558231  1
  O  O582  1  0.42777954  0.47992197  0.67656657  1
  O  O583  1  0.42667299  0.47865183  0.92568479  1
  O  O584  1  0.42592011  0.81309057  0.17442815  1
  O  O585  1  0.42764134  0.81445670  0.42630521  1
  O  O586  1  0.42604374  0.81338319  0.67531915  1
  O  O587  1  0.42793545  0.81294927  0.92724695  1
  O  O588  1  0.92563526  0.14640087  0.17433177  1
  O  O589  1  0.92583711  0.14614323  0.42497920  1
  O  O590  1  0.92694254  0.14772314  0.67655398  1
  O  O591  1  0.92697282  0.14701513  0.92617838  1
  O  O592  1  0.92702918  0.48204875  0.17525522  1
  O  O593  1  0.92732266  0.48158111  0.42606381  1
  O  O594  1  0.92782738  0.47977445  0.67537839  1
  O  O595  1  0.92720560  0.48125578  0.92512001  1
  O  O596  1  0.92728761  0.81440425  0.17537283  1
  O  O597  1  0.92740360  0.81158121  0.42528851  1
  O  O598  1  0.92756926  0.81406924  0.67596486  1
  O  O599  1  0.92720635  0.81315945  0.92668503  1
  O  O600  1  0.07302332  0.18547850  0.07407440  1
  O  O601  1  0.07359696  0.18650838  0.32468934  1
  O  O602  1  0.07368927  0.18652080  0.57535478  1
  O  O603  1  0.07206185  0.18599658  0.82358607  1
  O  O604  1  0.07274081  0.52007835  0.07308179  1
  O  O605  1  0.07347263  0.51862832  0.32352142  1
  O  O606  1  0.07312641  0.51946049  0.57291872  1
  O  O607  1  0.07464482  0.52009871  0.82574068  1
  O  O608  1  0.07228689  0.85318332  0.07295296  1
  O  O609  1  0.07252106  0.85109526  0.32330245  1
  O  O610  1  0.07506675  0.85315674  0.57527759  1
  O  O611  1  0.07256408  0.85152549  0.82501823  1
  O  O612  1  0.57181289  0.18691776  0.07345123  1
  O  O613  1  0.57261443  0.18786156  0.32450572  1
  O  O614  1  0.57190836  0.18671285  0.57315064  1
  O  O615  1  0.57246135  0.18649740  0.82318506  1
  O  O616  1  0.57349605  0.52041932  0.07493751  1
  O  O617  1  0.57324152  0.51838195  0.32422198  1
  O  O618  1  0.57480614  0.51922579  0.57551057  1
  O  O619  1  0.57327609  0.51856992  0.82509303  1
  O  O620  1  0.57186423  0.85248071  0.07405857  1
  O  O621  1  0.57329669  0.85397180  0.32525199  1
  O  O622  1  0.57217348  0.85231728  0.57407629  1
  O  O623  1  0.57329534  0.85347664  0.82578577  1
  O  O624  1  0.32284233  0.18733285  0.05122729  1
  O  O625  1  0.32127045  0.18615892  0.30171587  1
  O  O626  1  0.32268924  0.18794314  0.54941854  1
  O  O627  1  0.32333246  0.18678174  0.79981238  1
  O  O628  1  0.32329874  0.51894485  0.05094200  1
  O  O629  1  0.32228890  0.51914851  0.30143985  1
  O  O630  1  0.32464504  0.52028650  0.54875110  1
  O  O631  1  0.32333845  0.52016697  0.80074016  1
  O  O632  1  0.32159415  0.85239352  0.05246126  1
  O  O633  1  0.32234788  0.85316790  0.30076554  1
  O  O634  1  0.32364367  0.85337864  0.54874649  1
  O  O635  1  0.32417289  0.85204872  0.80175433  1
  O  O636  1  0.82383200  0.18708783  0.05016703  1
  O  O637  1  0.82351105  0.18725260  0.30023288  1
  O  O638  1  0.82162387  0.18554656  0.55112938  1
  O  O639  1  0.82310906  0.18616126  0.79931161  1
  O  O640  1  0.82285062  0.52218018  0.05024309  1
  O  O641  1  0.82410160  0.52101583  0.29852314  1
  O  O642  1  0.82477518  0.52000201  0.54918582  1
  O  O643  1  0.82332822  0.51866842  0.80077738  1
  O  O644  1  0.82205378  0.85349830  0.05245464  1
  O  O645  1  0.82181101  0.85305402  0.30069719  1
  O  O646  1  0.82360635  0.85181099  0.55063013  1
  O  O647  1  0.82376069  0.85222921  0.80205036  1
  O  O648  1  0.17584862  0.14472138  0.20073104  1
  O  O649  1  0.17821186  0.14743119  0.44784682  1
  O  O650  1  0.17567405  0.14608157  0.70001602  1
  O  O651  1  0.17606838  0.14603286  0.95115391  1
  O  O652  1  0.17795958  0.48015858  0.19913692  1
  O  O653  1  0.17883186  0.48048376  0.44765014  1
  O  O654  1  0.17728827  0.47964568  0.69870343  1
  O  O655  1  0.17596354  0.47992211  0.95070647  1
  O  O656  1  0.17681383  0.81407043  0.19927400  1
  O  O657  1  0.17719621  0.81344477  0.44769423  1
  O  O658  1  0.17677244  0.81288430  0.70056077  1
  O  O659  1  0.17788971  0.81303080  0.94870378  1
  O  O660  1  0.67634400  0.14569777  0.20080441  1
  O  O661  1  0.67674726  0.14551868  0.44985699  1
  O  O662  1  0.67665107  0.14733252  0.69856211  1
  O  O663  1  0.67593406  0.14645625  0.95104119  1
  O  O664  1  0.67570427  0.48031441  0.20096929  1
  O  O665  1  0.67748407  0.47864593  0.45022779  1
  O  O666  1  0.67747877  0.47932922  0.69904366  1
  O  O667  1  0.67687125  0.48254151  0.94842611  1
  O  O668  1  0.67693585  0.81434032  0.19854632  1
  O  O669  1  0.67677777  0.81481959  0.44881404  1
  O  O670  1  0.67700592  0.81464385  0.69924285  1
  O  O671  1  0.67715239  0.81532099  0.95002615  1
