# generated using pymatgen
data_Na2MnFe(PO4)2
_symmetry_space_group_name_H-M   'P 1'
_cell_length_a   22.34541257
_cell_length_b   20.09833161
_cell_length_c   19.44699094
_cell_angle_alpha   89.99660897
_cell_angle_beta   90.04220174
_cell_angle_gamma   90.01402937
_symmetry_Int_Tables_number   1
_chemical_formula_structural   Na2MnFe(PO4)2
_chemical_formula_sum   'Na96 Mn48 Fe48 P96 O384'
_cell_volume   8733.74817306
_cell_formula_units_Z   48
loop_
 _symmetry_equiv_pos_site_id
 _symmetry_equiv_pos_as_xyz
  1  'x, y, z'
loop_
 _atom_site_type_symbol
 _atom_site_label
 _atom_site_symmetry_multiplicity
 _atom_site_fract_x
 _atom_site_fract_y
 _atom_site_fract_z
 _atom_site_occupancy
  Na  Na0  1  0.13911534  0.24947681  0.24271756  1
  Na  Na1  1  0.13995822  0.25022953  0.49403957  1
  Na  Na2  1  0.14044633  0.25040711  0.74437809  1
  Na  Na3  1  0.14001443  0.25048372  0.99241040  1
  Na  Na4  1  0.14006549  0.58423319  0.24422207  1
  Na  Na5  1  0.14030123  0.58374154  0.49497291  1
  Na  Na6  1  0.14006818  0.58352885  0.74345202  1
  Na  Na7  1  0.13993865  0.58368278  0.99300173  1
  Na  Na8  1  0.13944849  0.91674405  0.24381638  1
  Na  Na9  1  0.13940868  0.91626319  0.49401383  1
  Na  Na10  1  0.13972204  0.91803562  0.74394749  1
  Na  Na11  1  0.13972697  0.91806053  0.99416615  1
  Na  Na12  1  0.64024640  0.24832208  0.24265123  1
  Na  Na13  1  0.64053237  0.24973559  0.49286867  1
  Na  Na14  1  0.64085338  0.24946529  0.74477863  1
  Na  Na15  1  0.64076950  0.25081004  0.99317548  1
  Na  Na16  1  0.64070199  0.58132280  0.24337216  1
  Na  Na17  1  0.64047765  0.58168989  0.49461738  1
  Na  Na18  1  0.64003116  0.58232964  0.74418419  1
  Na  Na19  1  0.64102422  0.58322856  0.99274305  1
  Na  Na20  1  0.64083580  0.91641778  0.24274154  1
  Na  Na21  1  0.64030538  0.91702126  0.49457428  1
  Na  Na22  1  0.64000042  0.91604117  0.74407439  1
  Na  Na23  1  0.64055900  0.91786882  0.99296940  1
  Na  Na24  1  0.36016453  0.08428786  0.00549900  1
  Na  Na25  1  0.36022367  0.08375467  0.25482487  1
  Na  Na26  1  0.35984607  0.08367018  0.50664042  1
  Na  Na27  1  0.35969041  0.08427520  0.75719086  1
  Na  Na28  1  0.36004210  0.41696506  0.00459686  1
  Na  Na29  1  0.35968429  0.41666589  0.25431879  1
  Na  Na30  1  0.35952859  0.41670604  0.50666789  1
  Na  Na31  1  0.35960597  0.41674502  0.75650313  1
  Na  Na32  1  0.35977606  0.75172677  0.00529741  1
  Na  Na33  1  0.36013858  0.75061156  0.25535285  1
  Na  Na34  1  0.36010801  0.74998037  0.50761785  1
  Na  Na35  1  0.35964238  0.75119223  0.75672068  1
  Na  Na36  1  0.85941855  0.08463653  0.00745555  1
  Na  Na37  1  0.86015237  0.08366045  0.25706135  1
  Na  Na38  1  0.86032418  0.08365087  0.50651355  1
  Na  Na39  1  0.86002059  0.08253975  0.75662633  1
  Na  Na40  1  0.85987592  0.41608031  0.00668489  1
  Na  Na41  1  0.85945707  0.41452021  0.25622630  1
  Na  Na42  1  0.85926797  0.41582562  0.50435740  1
  Na  Na43  1  0.85913686  0.41559018  0.75683796  1
  Na  Na44  1  0.86001775  0.75103605  0.00764579  1
  Na  Na45  1  0.86012804  0.74825248  0.25729614  1
  Na  Na46  1  0.86017954  0.74924587  0.50756987  1
  Na  Na47  1  0.85977628  0.74870469  0.75747829  1
  Na  Na48  1  0.10939667  0.08316561  0.11843715  1
  Na  Na49  1  0.10872970  0.08308324  0.36852353  1
  Na  Na50  1  0.10898041  0.08249641  0.61971508  1
  Na  Na51  1  0.10943010  0.08318458  0.86829437  1
  Na  Na52  1  0.10897415  0.41723281  0.11777697  1
  Na  Na53  1  0.10935862  0.41707060  0.36885938  1
  Na  Na54  1  0.10994258  0.41661534  0.61851149  1
  Na  Na55  1  0.10969452  0.41641126  0.86711359  1
  Na  Na56  1  0.10885056  0.75054504  0.11975002  1
  Na  Na57  1  0.10912752  0.75117542  0.36984611  1
  Na  Na58  1  0.10861485  0.75098403  0.61867271  1
  Na  Na59  1  0.10893868  0.75130424  0.86927484  1
  Na  Na60  1  0.60991502  0.08392028  0.11695574  1
  Na  Na61  1  0.60998392  0.08378410  0.36864924  1
  Na  Na62  1  0.60988749  0.08148752  0.61886945  1
  Na  Na63  1  0.61013601  0.08283854  0.86908744  1
  Na  Na64  1  0.60989935  0.41543095  0.11724481  1
  Na  Na65  1  0.60980461  0.41528592  0.36787682  1
  Na  Na66  1  0.61008438  0.41651346  0.61873198  1
  Na  Na67  1  0.61069558  0.41720941  0.86811285  1
  Na  Na68  1  0.60995061  0.74986729  0.11730084  1
  Na  Na69  1  0.60971229  0.75034751  0.36935703  1
  Na  Na70  1  0.60939221  0.74969383  0.62035134  1
  Na  Na71  1  0.60925352  0.75078445  0.86851270  1
  Na  Na72  1  0.39045803  0.25005133  0.12929081  1
  Na  Na73  1  0.39030190  0.24963953  0.38045021  1
  Na  Na74  1  0.39069964  0.24974675  0.63190884  1
  Na  Na75  1  0.39068894  0.25067882  0.88225766  1
  Na  Na76  1  0.39076482  0.58309572  0.12937585  1
  Na  Na77  1  0.39094899  0.58408516  0.38131621  1
  Na  Na78  1  0.39076102  0.58366241  0.63287422  1
  Na  Na79  1  0.39052510  0.58330991  0.88068573  1
  Na  Na80  1  0.39058669  0.91849690  0.12999204  1
  Na  Na81  1  0.39085768  0.91767618  0.38094747  1
  Na  Na82  1  0.39051635  0.91552043  0.63210151  1
  Na  Na83  1  0.39056740  0.91813075  0.88113363  1
  Na  Na84  1  0.89021337  0.24958585  0.13264478  1
  Na  Na85  1  0.88995438  0.24891060  0.38069100  1
  Na  Na86  1  0.89031650  0.24839665  0.63087457  1
  Na  Na87  1  0.88992036  0.24923020  0.88222662  1
  Na  Na88  1  0.89047264  0.58379254  0.13188964  1
  Na  Na89  1  0.89032438  0.58369764  0.38160346  1
  Na  Na90  1  0.89003016  0.58293582  0.63118842  1
  Na  Na91  1  0.89067978  0.58354933  0.88225294  1
  Na  Na92  1  0.89070481  0.91623434  0.13276829  1
  Na  Na93  1  0.89091381  0.91678631  0.38173478  1
  Na  Na94  1  0.89023242  0.91668113  0.63181289  1
  Na  Na95  1  0.89025114  0.91616006  0.88195675  1
  Mn  Mn96  1  0.74986816  0.83325606  0.62567923  1
  Mn  Mn97  1  0.75033854  0.83269905  0.37500456  1
  Mn  Mn98  1  0.24986337  0.50001780  0.37525203  1
  Mn  Mn99  1  0.24967064  0.16673581  0.37483251  1
  Mn  Mn100  1  0.75037969  0.66659285  0.87502685  1
  Mn  Mn101  1  0.50112599  0.00137165  0.24995023  1
  Mn  Mn102  1  0.24930188  0.16793444  0.62611215  1
  Mn  Mn103  1  0.75017032  0.83311352  0.12546805  1
  Mn  Mn104  1  0.24926751  0.33342935  0.37486503  1
  Mn  Mn105  1  0.50048678  0.66711530  0.24920907  1
  Mn  Mn106  1  0.49955440  0.33234124  0.24886027  1
  Mn  Mn107  1  0.24988471  0.66689750  0.62554703  1
  Mn  Mn108  1  0.24968925  0.50028143  0.12431740  1
  Mn  Mn109  1  0.50023009  0.49974170  0.24947823  1
  Mn  Mn110  1  0.49995677  0.66698287  -0.00095823  1
  Mn  Mn111  1  -0.00005376  0.50075534  0.24963885  1
  Mn  Mn112  1  0.24928970  0.83514224  0.87560543  1
  Mn  Mn113  1  -0.00046457  0.50082321  0.49924874  1
  Mn  Mn114  1  -0.00096104  -0.00063681  0.00060749  1
  Mn  Mn115  1  0.24939821  0.33355538  0.12382479  1
  Mn  Mn116  1  0.75041872  0.00071065  0.37437286  1
  Mn  Mn117  1  0.50066113  0.16546482  0.75064190  1
  Mn  Mn118  1  0.75051918  0.16601211  0.62494304  1
  Mn  Mn119  1  0.25038135  0.66661986  0.37577264  1
  Mn  Mn120  1  0.75031202  0.00012493  0.87551906  1
  Mn  Mn121  1  -0.00039754  0.16685813  0.00036595  1
  Mn  Mn122  1  0.50023833  0.83409120  0.24943019  1
  Mn  Mn123  1  0.75035188  0.33337836  0.62458412  1
  Mn  Mn124  1  0.49984564  0.33199611  0.49946692  1
  Mn  Mn125  1  -0.00067771  0.33198007  0.74897324  1
  Mn  Mn126  1  0.25009863  0.16625072  0.12359616  1
  Mn  Mn127  1  -0.00056804  0.50077302  0.74978002  1
  Mn  Mn128  1  0.75013557  0.49891427  0.12476764  1
  Mn  Mn129  1  0.24926484  0.66709906  0.87452261  1
  Mn  Mn130  1  0.50074696  0.66761030  0.50102785  1
  Mn  Mn131  1  0.50003492  -0.00036504  0.49976081  1
  Mn  Mn132  1  0.50106278  0.33337352  0.75042221  1
  Mn  Mn133  1  0.25043672  0.66710263  0.12445004  1
  Mn  Mn134  1  0.00008311  0.50012278  0.00032819  1
  Mn  Mn135  1  0.50030286  0.49994241  0.50000855  1
  Mn  Mn136  1  0.25031058  0.83356643  0.37466450  1
  Mn  Mn137  1  0.24974419  0.83502233  0.12508823  1
  Mn  Mn138  1  -0.00078907  0.83348667  0.75007742  1
  Mn  Mn139  1  0.74947897  0.66450197  0.37607592  1
  Mn  Mn140  1  0.25008240  0.00003026  0.37553810  1
  Mn  Mn141  1  0.24953207  0.00020152  0.62556412  1
  Mn  Mn142  1  0.74975113  0.66483548  0.62609881  1
  Mn  Mn143  1  -0.00047882  0.33217796  0.49946537  1
  Fe  Fe144  1  0.00035387  0.16580614  0.49963630  1
  Fe  Fe145  1  -0.00000481  0.83294235  0.00124608  1
  Fe  Fe146  1  0.00019849  0.66752634  0.25062769  1
  Fe  Fe147  1  0.75013174  0.49831610  0.37409824  1
  Fe  Fe148  1  -0.00045187  0.00003751  0.50008495  1
  Fe  Fe149  1  0.49990199  0.49999494  0.75011559  1
  Fe  Fe150  1  0.74989914  0.33238457  0.12526180  1
  Fe  Fe151  1  0.49996163  0.83417152  -0.00130060  1
  Fe  Fe152  1  0.24977750  0.83402558  0.62549139  1
  Fe  Fe153  1  -0.00014632  0.66732924  0.00084921  1
  Fe  Fe154  1  0.25007606  0.16740697  0.87506097  1
  Fe  Fe155  1  -0.00000503  0.16634951  0.25051973  1
  Fe  Fe156  1  0.75020552  0.66606175  0.12524519  1
  Fe  Fe157  1  0.00011297  0.33319760  0.24972136  1
  Fe  Fe158  1  0.24986805  0.33412339  0.87417774  1
  Fe  Fe159  1  0.75074316  0.49979726  0.87571437  1
  Fe  Fe160  1  0.00012285  0.33294480  -0.00016813  1
  Fe  Fe161  1  -0.00040673  0.16573950  0.75009091  1
  Fe  Fe162  1  0.75024336  -0.00016522  0.62552980  1
  Fe  Fe163  1  0.50095774  0.50019022  -0.00061470  1
  Fe  Fe164  1  0.75026838  0.83364884  0.87582935  1
  Fe  Fe165  1  0.50048943  0.16663241  -0.00075349  1
  Fe  Fe166  1  0.00013326  -0.00010912  0.25077358  1
  Fe  Fe167  1  0.50026732  0.00022775  -0.00051809  1
  Fe  Fe168  1  0.25007293  0.49998546  0.87394173  1
  Fe  Fe169  1  0.25005862  0.49962412  0.62514167  1
  Fe  Fe170  1  -0.00029740  0.66731388  0.75040344  1
  Fe  Fe171  1  0.49994807  0.83372754  0.75058375  1
  Fe  Fe172  1  0.25028272  0.00106015  0.87462017  1
  Fe  Fe173  1  0.49997037  0.66714103  0.75066101  1
  Fe  Fe174  1  -0.00046636  0.83325089  0.25092731  1
  Fe  Fe175  1  -0.00090998  0.83372156  0.50003800  1
  Fe  Fe176  1  0.75031205  0.16705203  0.12524595  1
  Fe  Fe177  1  -0.00050189  -0.00041873  0.75002036  1
  Fe  Fe178  1  0.75057741  0.00049922  0.12463338  1
  Fe  Fe179  1  0.50015953  0.16591147  0.50029088  1
  Fe  Fe180  1  -0.00025113  0.66735204  0.50021202  1
  Fe  Fe181  1  0.74958043  0.16622534  0.37454854  1
  Fe  Fe182  1  0.50008757  0.16682300  0.24889387  1
  Fe  Fe183  1  0.50002627  0.83322797  0.50100616  1
  Fe  Fe184  1  0.25035928  0.33359330  0.62571889  1
  Fe  Fe185  1  0.74950116  0.33233291  0.37446592  1
  Fe  Fe186  1  0.74996698  0.49847357  0.62488764  1
  Fe  Fe187  1  0.49970378  -0.00054311  0.74984932  1
  Fe  Fe188  1  0.50028542  0.33364748  -0.00037780  1
  Fe  Fe189  1  0.24989658  0.00103381  0.12436513  1
  Fe  Fe190  1  0.75042594  0.33296954  0.87535945  1
  Fe  Fe191  1  0.75011008  0.16677725  0.87603388  1
  P  P192  1  0.04197117  0.25135739  0.10300430  1
  P  P193  1  0.04106735  0.24949791  0.35173210  1
  P  P194  1  0.04172796  0.24751050  0.60255363  1
  P  P195  1  0.04160538  0.24859025  0.85245869  1
  P  P196  1  0.04199710  0.58531060  0.10299267  1
  P  P197  1  0.04197077  0.58549082  0.35295285  1
  P  P198  1  0.04160202  0.58516542  0.60278720  1
  P  P199  1  0.04177796  0.58534783  0.85294525  1
  P  P200  1  0.04159659  0.91527236  0.10383291  1
  P  P201  1  0.04082729  0.91671605  0.35268796  1
  P  P202  1  0.04060324  0.91700125  0.60182464  1
  P  P203  1  0.04168862  0.91754129  0.85285881  1
  P  P204  1  0.54145649  0.24956777  0.10089744  1
  P  P205  1  0.54224325  0.24804201  0.35210616  1
  P  P206  1  0.54278542  0.24800441  0.60250679  1
  P  P207  1  0.54283029  0.24965662  0.85418366  1
  P  P208  1  0.54299470  0.58249979  0.10152138  1
  P  P209  1  0.54330769  0.58365256  0.35291476  1
  P  P210  1  0.54252638  0.58324953  0.60458193  1
  P  P211  1  0.54124124  0.58307303  0.85188297  1
  P  P212  1  0.54183073  0.91693070  0.10070339  1
  P  P213  1  0.54351427  0.91700812  0.35324510  1
  P  P214  1  0.54201556  0.91525309  0.60352418  1
  P  P215  1  0.54155440  0.91720102  0.85220385  1
  P  P216  1  0.45859776  0.08494808  0.14591355  1
  P  P217  1  0.45783967  0.08498250  0.39709847  1
  P  P218  1  0.45773562  0.08170428  0.64752554  1
  P  P219  1  0.45904948  0.08306819  0.89787230  1
  P  P220  1  0.45777377  0.41654782  0.14500958  1
  P  P221  1  0.45717394  0.41615727  0.39656070  1
  P  P222  1  0.45809820  0.41722156  0.64789810  1
  P  P223  1  0.45972186  0.41746610  0.89765747  1
  P  P224  1  0.45746961  0.75084583  0.14543908  1
  P  P225  1  0.45781449  0.75171551  0.39807686  1
  P  P226  1  0.45857590  0.75059815  0.64898678  1
  P  P227  1  0.45791967  0.75187445  0.89615994  1
  P  P228  1  0.95886273  0.08314725  0.14918741  1
  P  P229  1  0.95855489  0.08303720  0.39780505  1
  P  P230  1  0.95837261  0.08257466  0.64785706  1
  P  P231  1  0.95702115  0.08303070  0.89674676  1
  P  P232  1  0.95799718  0.41537075  0.14713124  1
  P  P233  1  0.95754345  0.41619656  0.39576931  1
  P  P234  1  0.95693743  0.41652245  0.64647381  1
  P  P235  1  0.95816291  0.41545262  0.89764082  1
  P  P236  1  0.95822662  0.75014447  0.14864098  1
  P  P237  1  0.95834982  0.75031321  0.39815663  1
  P  P238  1  0.95712744  0.74887326  0.64731424  1
  P  P239  1  0.95837432  0.75026668  0.89907939  1
  P  P240  1  0.20734789  0.08247538  0.22700433  1
  P  P241  1  0.20662800  0.08361145  0.47847044  1
  P  P242  1  0.20727371  0.08410108  0.72954439  1
  P  P243  1  0.20839557  0.08349765  0.97632737  1
  P  P244  1  0.20627981  0.41675510  0.22746695  1
  P  P245  1  0.20688571  0.41675175  0.47928530  1
  P  P246  1  0.20850365  0.41671222  0.72728827  1
  P  P247  1  0.20800224  0.41697859  0.97548558  1
  P  P248  1  0.20714481  0.75047426  0.22804470  1
  P  P249  1  0.20754395  0.75056036  0.47910498  1
  P  P250  1  0.20716564  0.75199245  0.72756145  1
  P  P251  1  0.20679030  0.75094671  0.97814251  1
  P  P252  1  0.70895150  0.08341396  0.22629557  1
  P  P253  1  0.70794817  0.08423199  0.47754128  1
  P  P254  1  0.70805196  0.08202260  0.72808381  1
  P  P255  1  0.70832928  0.08491829  0.97853914  1
  P  P256  1  0.70772828  0.41406130  0.22764107  1
  P  P257  1  0.70826373  0.41606160  0.47614091  1
  P  P258  1  0.70805371  0.41703172  0.72835691  1
  P  P259  1  0.70931457  0.41624912  0.97682721  1
  P  P260  1  0.70777804  0.74784977  0.22758849  1
  P  P261  1  0.70750921  0.74936294  0.47878707  1
  P  P262  1  0.70766891  0.74947358  0.72931440  1
  P  P263  1  0.70796383  0.75127844  0.97781033  1
  P  P264  1  0.29218657  0.25037130  0.01977766  1
  P  P265  1  0.29248453  0.24992373  0.27119660  1
  P  P266  1  0.29227540  0.25141011  0.52317299  1
  P  P267  1  0.29180540  0.25092900  0.77346499  1
  P  P268  1  0.29262928  0.58320671  0.02034426  1
  P  P269  1  0.29322337  0.58346360  0.27174087  1
  P  P270  1  0.29279360  0.58221596  0.52341710  1
  P  P271  1  0.29178583  0.58228828  0.77182233  1
  P  P272  1  0.29203643  0.91952404  0.02175065  1
  P  P273  1  0.29309869  0.91778569  0.27122838  1
  P  P274  1  0.29233548  0.91584905  0.52304764  1
  P  P275  1  0.29216018  0.91834521  0.77241328  1
  P  P276  1  0.79154709  0.25030710  0.02320935  1
  P  P277  1  0.79108131  0.24910128  0.27263702  1
  P  P278  1  0.79254677  0.24979634  0.52085780  1
  P  P279  1  0.79150441  0.24924797  0.77394047  1
  P  P280  1  0.79238818  0.58414093  0.02260085  1
  P  P281  1  0.79226022  0.58101317  0.27229540  1
  P  P282  1  0.79198900  0.58049427  0.52251106  1
  P  P283  1  0.79242295  0.58091052  0.77273225  1
  P  P284  1  0.79248247  0.91794004  0.02276979  1
  P  P285  1  0.79289342  0.91665125  0.27146950  1
  P  P286  1  0.79230509  0.91798921  0.52290691  1
  P  P287  1  0.79232709  0.91543246  0.77287135  1
  O  O288  1  0.03713597  0.25162153  0.18290317  1
  O  O289  1  0.03633725  0.24875541  0.43171458  1
  O  O290  1  0.03622957  0.24721372  0.68247100  1
  O  O291  1  0.03654103  0.24953519  0.93242695  1
  O  O292  1  0.03671411  0.58513758  0.18293009  1
  O  O293  1  0.03648801  0.58538692  0.43287747  1
  O  O294  1  0.03618996  0.58518497  0.68274972  1
  O  O295  1  0.03638021  0.58515128  0.93289991  1
  O  O296  1  0.03622546  0.91531678  0.18367838  1
  O  O297  1  0.03560256  0.91747177  0.43256374  1
  O  O298  1  0.03571137  0.91685360  0.68179531  1
  O  O299  1  0.03681201  0.91698503  0.93276565  1
  O  O300  1  0.53656626  0.24943322  0.18088835  1
  O  O301  1  0.53706928  0.24795514  0.43207869  1
  O  O302  1  0.53787560  0.24845625  0.68251425  1
  O  O303  1  0.53727623  0.24979082  0.93402362  1
  O  O304  1  0.53793337  0.58285810  0.18149982  1
  O  O305  1  0.53832737  0.58374529  0.43294850  1
  O  O306  1  0.53686936  0.58306663  0.68448457  1
  O  O307  1  0.53647311  0.58301917  0.93187459  1
  O  O308  1  0.53746923  0.91748123  0.18073472  1
  O  O309  1  0.53845031  0.91663499  0.43319281  1
  O  O310  1  0.53654817  0.91562258  0.68340025  1
  O  O311  1  0.53630644  0.91736708  0.93209738  1
  O  O312  1  0.46410193  0.08462459  0.06604788  1
  O  O313  1  0.46326547  0.08524082  0.31712341  1
  O  O314  1  0.46273869  0.08247312  0.56756372  1
  O  O315  1  0.46374671  0.08206647  0.81792076  1
  O  O316  1  0.46339185  0.41692938  0.06509481  1
  O  O317  1  0.46224618  0.41607278  0.31654084  1
  O  O318  1  0.46293809  0.41667068  0.56792482  1
  O  O319  1  0.46455383  0.41756915  0.81767437  1
  O  O320  1  0.46253416  0.75116346  0.06544247  1
  O  O321  1  0.46275936  0.75133746  0.31806415  1
  O  O322  1  0.46340734  0.75069702  0.56899804  1
  O  O323  1  0.46358098  0.75159524  0.81629044  1
  O  O324  1  0.96311254  0.08317012  0.06918476  1
  O  O325  1  0.96388487  0.08308159  0.31795331  1
  O  O326  1  0.96372545  0.08244237  0.56797450  1
  O  O327  1  0.96207206  0.08316879  0.81683945  1
  O  O328  1  0.96339352  0.41519630  0.06713609  1
  O  O329  1  0.96318939  0.41588391  0.31584911  1
  O  O330  1  0.96201565  0.41655258  0.56650500  1
  O  O331  1  0.96283584  0.41572901  0.81764830  1
  O  O332  1  0.96360762  0.75007639  0.06875536  1
  O  O333  1  0.96343454  0.75060332  0.31826567  1
  O  O334  1  0.96240136  0.74916815  0.56746196  1
  O  O335  1  0.96323682  0.75013003  0.81910270  1
  O  O336  1  0.21339823  0.08291999  0.05636195  1
  O  O337  1  0.21219205  0.08288215  0.30701177  1
  O  O338  1  0.21130151  0.08375533  0.55848170  1
  O  O339  1  0.21287345  0.08414543  0.80944103  1
  O  O340  1  0.21266052  0.41699814  0.05549754  1
  O  O341  1  0.21108412  0.41668121  0.30750625  1
  O  O342  1  0.21221782  0.41666971  0.55925702  1
  O  O343  1  0.21388315  0.41691836  0.80723316  1
  O  O344  1  0.21214759  0.75091477  0.05804576  1
  O  O345  1  0.21227026  0.75033414  0.30806806  1
  O  O346  1  0.21271959  0.75109614  0.55910488  1
  O  O347  1  0.21214423  0.75183803  0.80755558  1
  O  O348  1  0.71392036  0.08436104  0.05837270  1
  O  O349  1  0.71349124  0.08400520  0.30630954  1
  O  O350  1  0.71319262  0.08347749  0.55746330  1
  O  O351  1  0.71309739  0.08244586  0.80801613  1
  O  O352  1  0.71391741  0.41561188  0.05677844  1
  O  O353  1  0.71303325  0.41416102  0.30751589  1
  O  O354  1  0.71339058  0.41642404  0.55614950  1
  O  O355  1  0.71372773  0.41698279  0.80819697  1
  O  O356  1  0.71301029  0.75065005  0.05776455  1
  O  O357  1  0.71283811  0.74800035  0.30758793  1
  O  O358  1  0.71268379  0.74946549  0.55878239  1
  O  O359  1  0.71326098  0.75021726  0.80923416  1
  O  O360  1  0.28749094  0.24973953  0.19115394  1
  O  O361  1  0.28716810  0.25091498  0.44318067  1
  O  O362  1  0.28671594  0.25139252  0.69348224  1
  O  O363  1  0.28681520  0.25038876  0.93983783  1
  O  O364  1  0.28817897  0.58360496  0.19168578  1
  O  O365  1  0.28812801  0.58263255  0.44335894  1
  O  O366  1  0.28641271  0.58189211  0.69188245  1
  O  O367  1  0.28716148  0.58278688  0.94035934  1
  O  O368  1  0.28790736  0.91860701  0.19122724  1
  O  O369  1  0.28750350  0.91596879  0.44302745  1
  O  O370  1  0.28697227  0.91734822  0.69246610  1
  O  O371  1  0.28671407  0.91984977  0.94178630  1
  O  O372  1  0.78620391  0.24937076  0.19268186  1
  O  O373  1  0.78695901  0.24955387  0.44099895  1
  O  O374  1  0.78682936  0.24958605  0.69395040  1
  O  O375  1  0.78680091  0.24979331  0.94329115  1
  O  O376  1  0.78701896  0.58204275  0.19234019  1
  O  O377  1  0.78656860  0.58047785  0.44255470  1
  O  O378  1  0.78702305  0.58059825  0.69279397  1
  O  O379  1  0.78720669  0.58375371  0.94265184  1
  O  O380  1  0.78774033  0.91702056  0.19150163  1
  O  O381  1  0.78732119  0.91787257  0.44291891  1
  O  O382  1  0.78706380  0.91596003  0.69293292  1
  O  O383  1  0.78714013  0.91727911  0.94279514  1
  O  O384  1  0.22799349  0.24999461  0.05550248  1
  O  O385  1  0.22796929  0.24992098  0.30608677  1
  O  O386  1  0.22787842  0.25227225  0.55853817  1
  O  O387  1  0.22763548  0.25078022  0.80936911  1
  O  O388  1  0.22832099  0.58378909  0.05571500  1
  O  O389  1  0.22870698  0.58362150  0.30666738  1
  O  O390  1  0.22829975  0.58234807  0.55837312  1
  O  O391  1  0.22756021  0.58219535  0.80753622  1
  O  O392  1  0.22779892  0.91955461  0.05753194  1
  O  O393  1  0.22864140  0.91725806  0.30627797  1
  O  O394  1  0.22784330  0.91558362  0.55816013  1
  O  O395  1  0.22781909  0.91923801  0.80781182  1
  O  O396  1  0.72736777  0.25067972  0.05911288  1
  O  O397  1  0.72700645  0.24881133  0.30884831  1
  O  O398  1  0.72847281  0.24972113  0.55690158  1
  O  O399  1  0.72738276  0.24904218  0.80978602  1
  O  O400  1  0.72813269  0.58411332  0.05825037  1
  O  O401  1  0.72799863  0.58032948  0.30801324  1
  O  O402  1  0.72785008  0.58034012  0.55858741  1
  O  O403  1  0.72823539  0.58119720  0.80857803  1
  O  O404  1  0.72823957  0.91828140  0.05844377  1
  O  O405  1  0.72855563  0.91665670  0.30668180  1
  O  O406  1  0.72799731  0.91819404  0.55840071  1
  O  O407  1  0.72811175  0.91509041  0.80867675  1
  O  O408  1  0.27180425  0.08220560  0.19176099  1
  O  O409  1  0.27126052  0.08376896  0.44397188  1
  O  O410  1  0.27139249  0.08395459  0.69370228  1
  O  O411  1  0.27261267  0.08386152  0.94052706  1
  O  O412  1  0.27084693  0.41672669  0.19278673  1
  O  O413  1  0.27116590  0.41650478  0.44369368  1
  O  O414  1  0.27255906  0.41654584  0.69097266  1
  O  O415  1  0.27236186  0.41672791  0.94005351  1
  O  O416  1  0.27155585  0.75085973  0.19297776  1
  O  O417  1  0.27192935  0.75038281  0.44387656  1
  O  O418  1  0.27158260  0.75210041  0.69238036  1
  O  O419  1  0.27112924  0.75093641  0.94295989  1
  O  O420  1  0.77326925  0.08270588  0.19083862  1
  O  O421  1  0.77221033  0.08507010  0.44180544  1
  O  O422  1  0.77235287  0.08160823  0.69242492  1
  O  O423  1  0.77238618  0.08492630  0.94228210  1
  O  O424  1  0.77192722  0.41400500  0.19166190  1
  O  O425  1  0.77231316  0.41579854  0.43985974  1
  O  O426  1  0.77214834  0.41740077  0.69197979  1
  O  O427  1  0.77348436  0.41682987  0.94108919  1
  O  O428  1  0.77217267  0.74808240  0.19227516  1
  O  O429  1  0.77187066  0.74885020  0.44362360  1
  O  O430  1  0.77181531  0.74917909  0.69366343  1
  O  O431  1  0.77231528  0.75143113  0.94234407  1
  O  O432  1  0.02313676  0.08335605  0.18452777  1
  O  O433  1  0.02253411  0.08267702  0.43446175  1
  O  O434  1  0.02228564  0.08272843  0.68465651  1
  O  O435  1  0.02126900  0.08291509  0.93240466  1
  O  O436  1  0.02214884  0.41578820  0.18304233  1
  O  O437  1  0.02160285  0.41637161  0.43178352  1
  O  O438  1  0.02128823  0.41633779  0.68169720  1
  O  O439  1  0.02252895  0.41589009  0.93292594  1
  O  O440  1  0.02221139  0.75060251  0.18534108  1
  O  O441  1  0.02230728  0.75006875  0.43468324  1
  O  O442  1  0.02129830  0.74892734  0.68353342  1
  O  O443  1  0.02252801  0.75017728  0.93513921  1
  O  O444  1  0.52275122  0.08559274  0.18222333  1
  O  O445  1  0.52208957  0.08467791  0.43299597  1
  O  O446  1  0.52211030  0.08109931  0.68308162  1
  O  O447  1  0.52320068  0.08373496  0.93374626  1
  O  O448  1  0.52191394  0.41611337  0.18099913  1
  O  O449  1  0.52164392  0.41589288  0.43158617  1
  O  O450  1  0.52252769  0.41780009  0.68314476  1
  O  O451  1  0.52383851  0.41755037  0.93365163  1
  O  O452  1  0.52190370  0.75070544  0.18068349  1
  O  O453  1  0.52225314  0.75208467  0.43349704  1
  O  O454  1  0.52269608  0.75085831  0.68491758  1
  O  O455  1  0.52196357  0.75196994  0.93255221  1
  O  O456  1  0.47739301  0.24930657  0.06483134  1
  O  O457  1  0.47795433  0.24777477  0.31625635  1
  O  O458  1  0.47834156  0.24771881  0.56719328  1
  O  O459  1  0.47871025  0.24960874  0.81821537  1
  O  O460  1  0.47863680  0.58210709  0.06605462  1
  O  O461  1  0.47884139  0.58371933  0.31785561  1
  O  O462  1  0.47843412  0.58354807  0.56848605  1
  O  O463  1  0.47713142  0.58276142  0.81594549  1
  O  O464  1  0.47751919  0.91623685  0.06521613  1
  O  O465  1  0.47913407  0.91771521  0.31794247  1
  O  O466  1  0.47790759  0.91518904  0.56720202  1
  O  O467  1  0.47749444  0.91720186  0.81575548  1
  O  O468  1  0.97762369  0.25131050  0.06736579  1
  O  O469  1  0.97692348  0.24973513  0.31573468  1
  O  O470  1  0.97758963  0.24725294  0.56647531  1
  O  O471  1  0.97732396  0.24792665  0.81676571  1
  O  O472  1  0.97778351  0.58492579  0.06709927  1
  O  O473  1  0.97780111  0.58532816  0.31692514  1
  O  O474  1  0.97746362  0.58526499  0.56667412  1
  O  O475  1  0.97754275  0.58554591  0.81703770  1
  O  O476  1  0.97745961  0.91479242  0.06763018  1
  O  O477  1  0.97690603  0.91623131  0.31608601  1
  O  O478  1  0.97650227  0.91752646  0.56574399  1
  O  O479  1  0.97739586  0.91776504  0.81713682  1
  O  O480  1  0.07276753  0.31451846  0.07336107  1
  O  O481  1  0.07195230  0.31328128  0.32392163  1
  O  O482  1  0.07239851  0.31162583  0.57517746  1
  O  O483  1  0.07262511  0.31204917  0.82402105  1
  O  O484  1  0.07279087  0.64871429  0.07444875  1
  O  O485  1  0.07285302  0.64894912  0.32455077  1
  O  O486  1  0.07272755  0.64842260  0.57426260  1
  O  O487  1  0.07290120  0.64859193  0.82440844  1
  O  O488  1  0.07241156  0.97906738  0.07576854  1
  O  O489  1  0.07143631  0.98037320  0.32362975  1
  O  O490  1  0.07233579  0.98011457  0.57383288  1
  O  O491  1  0.07223199  0.98115000  0.82417318  1
  O  O492  1  0.57170460  0.31372168  0.07268842  1
  O  O493  1  0.57287295  0.31199239  0.32427135  1
  O  O494  1  0.57363376  0.31172309  0.57450209  1
  O  O495  1  0.57410611  0.31301386  0.82583422  1
  O  O496  1  0.57380436  0.64615551  0.07344716  1
  O  O497  1  0.57425370  0.64714764  0.32466636  1
  O  O498  1  0.57391233  0.64672871  0.57667205  1
  O  O499  1  0.57135131  0.64741052  0.82396217  1
  O  O500  1  0.57186606  0.98102976  0.07219173  1
  O  O501  1  0.57472077  0.98053217  0.32514377  1
  O  O502  1  0.57332686  0.97864749  0.57526941  1
  O  O503  1  0.57250128  0.98073371  0.82365101  1
  O  O504  1  0.42796299  0.02117000  0.17424909  1
  O  O505  1  0.42670262  0.02118295  0.42458351  1
  O  O506  1  0.42690498  0.01812793  0.67578843  1
  O  O507  1  0.42857894  0.01949129  0.92694507  1
  O  O508  1  0.42631973  0.35309803  0.17294690  1
  O  O509  1  0.42609301  0.35267655  0.42465324  1
  O  O510  1  0.42749840  0.35341302  0.67605752  1
  O  O511  1  0.42938209  0.35333866  0.92578522  1
  O  O512  1  0.42666343  0.68710202  0.17352118  1
  O  O513  1  0.42704502  0.68801044  0.42623006  1
  O  O514  1  0.42831282  0.68648808  0.67728621  1
  O  O515  1  0.42657551  0.68827758  0.92381090  1
  O  O516  1  0.92837386  0.01935810  0.17749319  1
  O  O517  1  0.92714599  0.01974501  0.42616490  1
  O  O518  1  0.92760551  0.01891250  0.67648768  1
  O  O519  1  0.92577746  0.01972077  0.92523847  1
  O  O520  1  0.92718616  0.35204146  0.17601776  1
  O  O521  1  0.92619528  0.35293128  0.42395827  1
  O  O522  1  0.92571404  0.35297715  0.67428239  1
  O  O523  1  0.92791541  0.35158705  0.92606898  1
  O  O524  1  0.92766403  0.68627414  0.17698099  1
  O  O525  1  0.92700592  0.68690708  0.42633764  1
  O  O526  1  0.92631188  0.68550940  0.67622419  1
  O  O527  1  0.92717431  0.68690789  0.92747296  1
  O  O528  1  0.17658217  0.01895707  0.19861954  1
  O  O529  1  0.17597657  0.01992603  0.45022541  1
  O  O530  1  0.17579882  0.02089163  0.70117833  1
  O  O531  1  0.17746870  0.02005844  0.94775036  1
  O  O532  1  0.17537255  0.35337623  0.19889193  1
  O  O533  1  0.17542608  0.35359512  0.45062618  1
  O  O534  1  0.17751796  0.35301420  0.69917593  1
  O  O535  1  0.17707755  0.35336483  0.94733220  1
  O  O536  1  0.17627277  0.68697329  0.19986001  1
  O  O537  1  0.17673753  0.68671339  0.45133150  1
  O  O538  1  0.17622163  0.68824132  0.69991544  1
  O  O539  1  0.17571194  0.68758887  0.94983245  1
  O  O540  1  0.67777013  0.01986334  0.19823526  1
  O  O541  1  0.67704268  0.02066503  0.44923059  1
  O  O542  1  0.67747784  0.01834103  0.69949091  1
  O  O543  1  0.67692153  0.02157697  0.95024292  1
  O  O544  1  0.67679458  0.35074294  0.19866773  1
  O  O545  1  0.67749525  0.35213578  0.44830225  1
  O  O546  1  0.67720345  0.35320317  0.70023661  1
  O  O547  1  0.67891462  0.35257999  0.94784510  1
  O  O548  1  0.67741231  0.68416652  0.19894166  1
  O  O549  1  0.67606620  0.68595896  0.45109473  1
  O  O550  1  0.67665765  0.68562561  0.70189861  1
  O  O551  1  0.67662391  0.68797590  0.94946771  1
  O  O552  1  0.32319894  0.31383697  0.04814082  1
  O  O553  1  0.32346361  0.31343115  0.29926839  1
  O  O554  1  0.32352426  0.31464453  0.55158294  1
  O  O555  1  0.32286809  0.31442720  0.80176742  1
  O  O556  1  0.32405366  0.64667724  0.04811592  1
  O  O557  1  0.32429168  0.64687195  0.30008779  1
  O  O558  1  0.32396749  0.64571884  0.55150027  1
  O  O559  1  0.32257486  0.64636996  0.79906525  1
  O  O560  1  0.32308614  0.98271097  0.05054389  1
  O  O561  1  0.32413467  0.98094860  0.30028140  1
  O  O562  1  0.32311094  0.97972717  0.55067138  1
  O  O563  1  0.32320401  0.98190336  0.80054770  1
  O  O564  1  0.82273579  0.31372577  0.05154935  1
  O  O565  1  0.82180965  0.31270417  0.30128913  1
  O  O566  1  0.82371335  0.31326167  0.54916376  1
  O  O567  1  0.82199667  0.31308957  0.80243543  1
  O  O568  1  0.82279841  0.64788898  0.05123989  1
  O  O569  1  0.82327248  0.64434565  0.30100350  1
  O  O570  1  0.82276540  0.64440255  0.55034187  1
  O  O571  1  0.82354829  0.64473601  0.80023210  1
  O  O572  1  0.82328968  0.98167481  0.05080356  1
  O  O573  1  0.82422528  0.97982974  0.29992917  1
  O  O574  1  0.82289028  0.98159702  0.55151328  1
  O  O575  1  0.82349677  0.97891546  0.80087762  1
  O  O576  1  0.42716569  0.14809759  0.17438513  1
  O  O577  1  0.42695353  0.14811680  0.42621252  1
  O  O578  1  0.42684669  0.14519569  0.67604679  1
  O  O579  1  0.42792825  0.14680464  0.92532306  1
  O  O580  1  0.42664854  0.47986817  0.17359712  1
  O  O581  1  0.42637370  0.47972172  0.42471111  1
  O  O582  1  0.42711945  0.48060958  0.67627572  1
  O  O583  1  0.42833563  0.48070547  0.92583860  1
  O  O584  1  0.42633387  0.81408351  0.17399502  1
  O  O585  1  0.42708160  0.81523123  0.42653241  1
  O  O586  1  0.42713613  0.81376222  0.67727094  1
  O  O587  1  0.42701880  0.81532825  0.92468326  1
  O  O588  1  0.92804726  0.14683277  0.17738865  1
  O  O589  1  0.92800147  0.14685959  0.42620174  1
  O  O590  1  0.92719592  0.14609390  0.67607437  1
  O  O591  1  0.92597784  0.14635319  0.92559854  1
  O  O592  1  0.92671825  0.47913872  0.17440867  1
  O  O593  1  0.92643492  0.47985819  0.42340252  1
  O  O594  1  0.92611347  0.47998083  0.67483439  1
  O  O595  1  0.92678072  0.47880811  0.92564157  1
  O  O596  1  0.92688586  0.81344144  0.17699278  1
  O  O597  1  0.92776165  0.81411172  0.42682509  1
  O  O598  1  0.92595091  0.81241872  0.67548305  1
  O  O599  1  0.92797798  0.81420931  0.92732592  1
  O  O600  1  0.07297152  0.18755969  0.07518399  1
  O  O601  1  0.07174860  0.18585695  0.32304916  1
  O  O602  1  0.07304843  0.18449117  0.57378115  1
  O  O603  1  0.07245923  0.18498632  0.82441682  1
  O  O604  1  0.07319814  0.52166805  0.07515617  1
  O  O605  1  0.07312714  0.52182806  0.32523127  1
  O  O606  1  0.07250350  0.52125844  0.57527631  1
  O  O607  1  0.07252102  0.52144160  0.82510380  1
  O  O608  1  0.07275276  0.85214589  0.07485166  1
  O  O609  1  0.07218229  0.85323568  0.32488017  1
  O  O610  1  0.07059055  0.85286014  0.57332933  1
  O  O611  1  0.07285107  0.85418984  0.82449036  1
  O  O612  1  0.57301673  0.18644955  0.07270993  1
  O  O613  1  0.57342180  0.18500364  0.32316550  1
  O  O614  1  0.57340452  0.18437958  0.57426561  1
  O  O615  1  0.57410527  0.18629865  0.82596189  1
  O  O616  1  0.57398015  0.51901698  0.07334226  1
  O  O617  1  0.57412519  0.52002987  0.32485235  1
  O  O618  1  0.57373564  0.51997714  0.57594107  1
  O  O619  1  0.57271228  0.51992462  0.82358039  1
  O  O620  1  0.57307733  0.85359051  0.07259781  1
  O  O621  1  0.57439809  0.85373632  0.32439573  1
  O  O622  1  0.57279776  0.85169185  0.57503768  1
  O  O623  1  0.57250106  0.85356412  0.82405725  1
  O  O624  1  0.32355022  0.18707124  0.04810508  1
  O  O625  1  0.32338928  0.18643324  0.29956043  1
  O  O626  1  0.32273853  0.18754166  0.55135824  1
  O  O627  1  0.32255379  0.18705013  0.80131521  1
  O  O628  1  0.32348573  0.51974641  0.04881795  1
  O  O629  1  0.32394254  0.51978216  0.29976698  1
  O  O630  1  0.32318131  0.51851727  0.55191840  1
  O  O631  1  0.32296156  0.51915301  0.80063037  1
  O  O632  1  0.32287262  0.85552888  0.04906197  1
  O  O633  1  0.32422279  0.85412611  0.29892198  1
  O  O634  1  0.32304044  0.85245605  0.55184643  1
  O  O635  1  0.32298277  0.85485214  0.80093185  1
  O  O636  1  0.82203349  0.18663441  0.05238938  1
  O  O637  1  0.82210930  0.18550798  0.30092070  1
  O  O638  1  0.82394594  0.18664916  0.54957837  1
  O  O639  1  0.82239605  0.18559546  0.80186924  1
  O  O640  1  0.82375184  0.52072365  0.05048926  1
  O  O641  1  0.82303559  0.51717478  0.30001065  1
  O  O642  1  0.82310262  0.51719301  0.55087118  1
  O  O643  1  0.82339360  0.51777858  0.80180557  1
  O  O644  1  0.82366944  0.85457542  0.05098127  1
  O  O645  1  0.82360433  0.85287595  0.29958445  1
  O  O646  1  0.82328074  0.85428327  0.55058805  1
  O  O647  1  0.82310273  0.85183628  0.80131175  1
  O  O648  1  0.17654426  0.14605440  0.19868032  1
  O  O649  1  0.17569126  0.14696067  0.44987056  1
  O  O650  1  0.17620484  0.14760805  0.70131533  1
  O  O651  1  0.17755026  0.14741273  0.94871318  1
  O  O652  1  0.17549212  0.48037103  0.19926429  1
  O  O653  1  0.17594614  0.48031874  0.45087491  1
  O  O654  1  0.17750963  0.48029128  0.69893010  1
  O  O655  1  0.17746654  0.48078002  0.94724613  1
  O  O656  1  0.17603298  0.81399958  0.20008684  1
  O  O657  1  0.17625106  0.81365130  0.45041887  1
  O  O658  1  0.17648760  0.81557437  0.69913059  1
  O  O659  1  0.17574940  0.81456109  0.95034743  1
  O  O660  1  0.67868619  0.14718052  0.19737595  1
  O  O661  1  0.67691169  0.14764112  0.44914662  1
  O  O662  1  0.67697596  0.14550030  0.69993323  1
  O  O663  1  0.67758651  0.14847051  0.95002696  1
  O  O664  1  0.67667221  0.47762662  0.19942036  1
  O  O665  1  0.67732426  0.47951642  0.44771745  1
  O  O666  1  0.67681067  0.48011895  0.69945999  1
  O  O667  1  0.67825006  0.47995448  0.94900537  1
  O  O668  1  0.67651702  0.81141396  0.19985447  1
  O  O669  1  0.67695571  0.81307970  0.45049877  1
  O  O670  1  0.67622767  0.81253312  0.70083116  1
  O  O671  1  0.67749614  0.81510202  0.94950740  1
