# generated using pymatgen
data_Na2MnFe(PO4)2
_symmetry_space_group_name_H-M   'P 1'
_cell_length_a   22.34346667
_cell_length_b   20.09285425
_cell_length_c   19.45079615
_cell_angle_alpha   89.97020059
_cell_angle_beta   89.97769003
_cell_angle_gamma   90.04018705
_symmetry_Int_Tables_number   1
_chemical_formula_structural   Na2MnFe(PO4)2
_chemical_formula_sum   'Na96 Mn48 Fe48 P96 O384'
_cell_volume   8732.31460723
_cell_formula_units_Z   48
loop_
 _symmetry_equiv_pos_site_id
 _symmetry_equiv_pos_as_xyz
  1  'x, y, z'
loop_
 _atom_site_type_symbol
 _atom_site_label
 _atom_site_symmetry_multiplicity
 _atom_site_fract_x
 _atom_site_fract_y
 _atom_site_fract_z
 _atom_site_occupancy
  Na  Na0  1  0.13972513  0.25017931  0.24260825  1
  Na  Na1  1  0.14040632  0.24960003  0.49304764  1
  Na  Na2  1  0.14048955  0.25071451  0.74338742  1
  Na  Na3  1  0.14054270  0.25180063  0.99339728  1
  Na  Na4  1  0.14077141  0.58438782  0.24361983  1
  Na  Na5  1  0.14113539  0.58285237  0.49262181  1
  Na  Na6  1  0.14081955  0.58423759  0.74323632  1
  Na  Na7  1  0.14095042  0.58532218  0.99299432  1
  Na  Na8  1  0.14019594  0.91613383  0.24325280  1
  Na  Na9  1  0.13984771  0.91500832  0.49319117  1
  Na  Na10  1  0.14024050  0.91713767  0.74312286  1
  Na  Na11  1  0.14111057  0.91801853  0.99285437  1
  Na  Na12  1  0.63977256  0.24930797  0.24348576  1
  Na  Na13  1  0.64021692  0.25124056  0.49381398  1
  Na  Na14  1  0.64052116  0.24927062  0.74544973  1
  Na  Na15  1  0.64039738  0.24901676  0.99512977  1
  Na  Na16  1  0.64110307  0.58206026  0.24383939  1
  Na  Na17  1  0.64061653  0.58319543  0.49484243  1
  Na  Na18  1  0.64047277  0.58118937  0.74503670  1
  Na  Na19  1  0.64054208  0.58222146  0.99426253  1
  Na  Na20  1  0.63981528  0.91703031  0.24305637  1
  Na  Na21  1  0.63967320  0.91703181  0.49308008  1
  Na  Na22  1  0.63997541  0.91720166  0.74488812  1
  Na  Na23  1  0.64024213  0.91634735  0.99450731  1
  Na  Na24  1  0.35927131  0.08429569  0.00688365  1
  Na  Na25  1  0.35951452  0.08246623  0.25651903  1
  Na  Na26  1  0.35923921  0.08237287  0.50593629  1
  Na  Na27  1  0.35897485  0.08311473  0.75718444  1
  Na  Na28  1  0.35946805  0.41814438  0.00618088  1
  Na  Na29  1  0.35922273  0.41663324  0.25691463  1
  Na  Na30  1  0.35893919  0.41689822  0.50624962  1
  Na  Na31  1  0.35900331  0.41861496  0.75691105  1
  Na  Na32  1  0.35927315  0.75193630  0.00630220  1
  Na  Na33  1  0.35945248  0.75017777  0.25669132  1
  Na  Na34  1  0.35934611  0.74952122  0.50624017  1
  Na  Na35  1  0.35830819  0.75104098  0.75680269  1
  Na  Na36  1  0.86001467  0.08289550  0.00608221  1
  Na  Na37  1  0.86018563  0.08417874  0.25587316  1
  Na  Na38  1  0.85980413  0.08441933  0.50598179  1
  Na  Na39  1  0.85994282  0.08242695  0.75612933  1
  Na  Na40  1  0.86003830  0.41509915  0.00635399  1
  Na  Na41  1  0.85999202  0.41472426  0.25616214  1
  Na  Na42  1  0.86020219  0.41684215  0.50552335  1
  Na  Na43  1  0.86016967  0.41421458  0.75634874  1
  Na  Na44  1  0.86027524  0.74949141  0.00659023  1
  Na  Na45  1  0.86049484  0.74997132  0.25618447  1
  Na  Na46  1  0.85991808  0.75032813  0.50528911  1
  Na  Na47  1  0.85961225  0.74954158  0.75617336  1
  Na  Na48  1  0.10989391  0.08468351  0.11777946  1
  Na  Na49  1  0.10905569  0.08329658  0.36894605  1
  Na  Na50  1  0.10957090  0.08209024  0.61835803  1
  Na  Na51  1  0.11054232  0.08395067  0.86768673  1
  Na  Na52  1  0.11013337  0.41747394  0.11876144  1
  Na  Na53  1  0.11033850  0.41712087  0.36715924  1
  Na  Na54  1  0.10977560  0.41555151  0.61785611  1
  Na  Na55  1  0.11000338  0.41692448  0.86853962  1
  Na  Na56  1  0.11038393  0.75181897  0.11830757  1
  Na  Na57  1  0.11019099  0.75067962  0.36807856  1
  Na  Na58  1  0.11019851  0.74958832  0.61700388  1
  Na  Na59  1  0.11021736  0.75051433  0.86773640  1
  Na  Na60  1  0.60922614  0.08272198  0.11927175  1
  Na  Na61  1  0.60886200  0.08376476  0.36755330  1
  Na  Na62  1  0.60929570  0.08238083  0.61982206  1
  Na  Na63  1  0.60996739  0.08366899  0.86956676  1
  Na  Na64  1  0.60951469  0.41450117  0.11914321  1
  Na  Na65  1  0.60964798  0.41614986  0.36856166  1
  Na  Na66  1  0.60986682  0.41660524  0.61975550  1
  Na  Na67  1  0.60974902  0.41713732  0.86961378  1
  Na  Na68  1  0.60961977  0.74997764  0.11914109  1
  Na  Na69  1  0.60933265  0.75109747  0.36872590  1
  Na  Na70  1  0.60924475  0.75002390  0.61963260  1
  Na  Na71  1  0.60906821  0.75040717  0.86986613  1
  Na  Na72  1  0.39008405  0.24946540  0.13205516  1
  Na  Na73  1  0.38965150  0.25023681  0.38061166  1
  Na  Na74  1  0.38978062  0.24944842  0.63187414  1
  Na  Na75  1  0.39004596  0.25065237  0.88153342  1
  Na  Na76  1  0.39066691  0.58310220  0.13120923  1
  Na  Na77  1  0.38987112  0.58408169  0.38229667  1
  Na  Na78  1  0.38924187  0.58375689  0.63204522  1
  Na  Na79  1  0.38949266  0.58429308  0.88172661  1
  Na  Na80  1  0.38963647  0.91688172  0.13201541  1
  Na  Na81  1  0.38972092  0.91622672  0.38040496  1
  Na  Na82  1  0.38966157  0.91578969  0.63157230  1
  Na  Na83  1  0.38939029  0.91830000  0.88223952  1
  Na  Na84  1  0.89033885  0.25017274  0.13166430  1
  Na  Na85  1  0.89056861  0.24951436  0.38083273  1
  Na  Na86  1  0.89054433  0.24837139  0.63104512  1
  Na  Na87  1  0.89055249  0.24879842  0.88188562  1
  Na  Na88  1  0.89146875  0.58399923  0.13141692  1
  Na  Na89  1  0.89094444  0.58391915  0.38104232  1
  Na  Na90  1  0.89096148  0.58137802  0.63078638  1
  Na  Na91  1  0.89077631  0.58192079  0.88186296  1
  Na  Na92  1  0.89096474  0.91689538  0.13106229  1
  Na  Na93  1  0.89106790  0.91717348  0.38065805  1
  Na  Na94  1  0.89041209  0.91629911  0.63021488  1
  Na  Na95  1  0.89049372  0.91678992  0.88153646  1
  Mn  Mn96  1  0.75007475  0.33306009  0.37474522  1
  Mn  Mn97  1  0.50036125  0.66756412  0.50078603  1
  Mn  Mn98  1  0.00087348  0.16720299  -0.00055048  1
  Mn  Mn99  1  0.49960040  0.00029797  0.00099546  1
  Mn  Mn100  1  0.49932650  0.83436968  0.75006185  1
  Mn  Mn101  1  0.50008674  0.49921996  0.25076193  1
  Mn  Mn102  1  0.74962070  0.00081932  0.62481012  1
  Mn  Mn103  1  0.49929315  0.66650695  0.75059488  1
  Mn  Mn104  1  0.00004273  0.66659620  0.49940164  1
  Mn  Mn105  1  0.75095718  0.66622411  0.12480089  1
  Mn  Mn106  1  0.75004734  0.83359623  0.37495353  1
  Mn  Mn107  1  0.74977896  0.66525289  0.87578965  1
  Mn  Mn108  1  0.75036313  0.66577923  0.62549532  1
  Mn  Mn109  1  0.25082209  0.66791584  0.12456955  1
  Mn  Mn110  1  0.74963744  0.66599758  0.37492533  1
  Mn  Mn111  1  0.00064258  0.49993567  0.00022255  1
  Mn  Mn112  1  0.00040908  0.33260233  0.49941222  1
  Mn  Mn113  1  0.24900341  0.16661565  0.37457339  1
  Mn  Mn114  1  0.49937465  0.33320079  0.50057014  1
  Mn  Mn115  1  0.49906155  -0.00105983  0.49889813  1
  Mn  Mn116  1  0.00044327  0.83389406  -0.00040068  1
  Mn  Mn117  1  0.49999038  0.16614427  0.75062759  1
  Mn  Mn118  1  0.00041348  0.50104616  0.24889172  1
  Mn  Mn119  1  0.75013375  0.00129846  0.37387627  1
  Mn  Mn120  1  0.00003840  0.16569351  0.75018954  1
  Mn  Mn121  1  0.50033053  0.66726350  0.25033386  1
  Mn  Mn122  1  0.74886516  0.16733535  0.62561079  1
  Mn  Mn123  1  0.74964279  0.83320988  0.87534422  1
  Mn  Mn124  1  0.75097836  0.49851954  0.12483854  1
  Mn  Mn125  1  -0.00030374  0.83359665  0.74942607  1
  Mn  Mn126  1  0.25060327  0.50041791  0.12514184  1
  Mn  Mn127  1  0.25004540  0.16725351  0.12504630  1
  Mn  Mn128  1  0.00054918  0.49808584  0.75081988  1
  Mn  Mn129  1  0.25004653  0.33356251  0.62506400  1
  Mn  Mn130  1  0.75078559  0.49845868  0.62485770  1
  Mn  Mn131  1  0.74966311  0.83369720  0.62547637  1
  Mn  Mn132  1  0.50004860  0.33435188  0.75148227  1
  Mn  Mn133  1  0.24910914  -0.00152298  0.37573767  1
  Mn  Mn134  1  0.25014198  0.33469100  0.87405832  1
  Mn  Mn135  1  0.49970503  0.50011623  0.49996532  1
  Mn  Mn136  1  0.49986837  0.66674270  0.00036614  1
  Mn  Mn137  1  0.49949405  0.33310970  0.00033654  1
  Mn  Mn138  1  0.75023630  0.33202644  0.87578824  1
  Mn  Mn139  1  0.75029825  0.00007386  0.12510479  1
  Mn  Mn140  1  0.49939909  0.16623672  0.50002997  1
  Mn  Mn141  1  0.00014595  0.66576627  0.74876588  1
  Mn  Mn142  1  0.24989268  -0.00021061  0.62553050  1
  Mn  Mn143  1  0.00047951  0.00089566  0.25015519  1
  Fe  Fe144  1  0.24961635  0.16670337  0.62490292  1
  Fe  Fe145  1  0.24994899  0.66837461  0.87413936  1
  Fe  Fe146  1  0.24947194  0.00026327  0.12461292  1
  Fe  Fe147  1  0.00030288  0.16602198  0.50001172  1
  Fe  Fe148  1  0.49957893  0.00008161  0.75051019  1
  Fe  Fe149  1  0.25002679  0.66626504  0.37555455  1
  Fe  Fe150  1  0.49968791  0.50035403  0.75064517  1
  Fe  Fe151  1  0.00017872  0.33218192  0.74932071  1
  Fe  Fe152  1  0.00073571  0.66730035  -0.00007310  1
  Fe  Fe153  1  0.75027680  0.83314697  0.12492765  1
  Fe  Fe154  1  0.00059770  0.49944997  0.49915755  1
  Fe  Fe155  1  0.49932675  0.16643955  0.25002437  1
  Fe  Fe156  1  0.24964471  0.50164421  0.87479738  1
  Fe  Fe157  1  0.49961190  -0.00039059  0.24967972  1
  Fe  Fe158  1  0.00078294  0.66801755  0.25015956  1
  Fe  Fe159  1  0.24976113  0.83406535  0.12479073  1
  Fe  Fe160  1  0.00057264  0.83400599  0.24971164  1
  Fe  Fe161  1  0.25018260  0.49995520  0.37508466  1
  Fe  Fe162  1  0.24957083  0.50074866  0.62462347  1
  Fe  Fe163  1  0.24987100  0.33422866  0.12451287  1
  Fe  Fe164  1  0.75059381  0.16598764  0.87542729  1
  Fe  Fe165  1  0.25018059  0.83243302  0.37458324  1
  Fe  Fe166  1  -0.00030523  0.83329035  0.49931648  1
  Fe  Fe167  1  0.49986973  0.49973300  0.00092294  1
  Fe  Fe168  1  0.75026113  0.33297381  0.62511634  1
  Fe  Fe169  1  0.74986195  0.16738115  0.37504638  1
  Fe  Fe170  1  0.00043878  0.33325081  0.00038904  1
  Fe  Fe171  1  -0.00003042  0.16705830  0.24974200  1
  Fe  Fe172  1  0.00008405  -0.00053342  0.74902351  1
  Fe  Fe173  1  0.49962482  0.16633827  0.00088093  1
  Fe  Fe174  1  0.24962618  0.83280424  0.62483252  1
  Fe  Fe175  1  0.25027103  0.16768665  0.87517018  1
  Fe  Fe176  1  0.00060720  0.00061185  0.00004133  1
  Fe  Fe177  1  0.74986654  0.16615961  0.12473897  1
  Fe  Fe178  1  0.00004658  -0.00034718  0.49924655  1
  Fe  Fe179  1  0.49967048  0.83384017  0.49996003  1
  Fe  Fe180  1  0.24978417  0.66696472  0.62476746  1
  Fe  Fe181  1  0.75062229  0.49840739  0.87514803  1
  Fe  Fe182  1  0.24980049  0.33314124  0.37502309  1
  Fe  Fe183  1  0.75039105  -0.00038132  0.87580917  1
  Fe  Fe184  1  0.24967874  0.83441613  0.87483640  1
  Fe  Fe185  1  0.74980625  0.33223582  0.12528096  1
  Fe  Fe186  1  0.49914014  0.33257491  0.24937855  1
  Fe  Fe187  1  0.49964626  0.83401339  0.00036716  1
  Fe  Fe188  1  0.24969538  0.00074838  0.87504894  1
  Fe  Fe189  1  0.75036236  0.49929686  0.37498221  1
  Fe  Fe190  1  0.49940147  0.83348752  0.24983422  1
  Fe  Fe191  1  0.00045328  0.33369883  0.25012111  1
  P  P192  1  0.04253007  0.25157034  0.10310323  1
  P  P193  1  0.04152465  0.24952561  0.35169338  1
  P  P194  1  0.04250313  0.24803909  0.60238369  1
  P  P195  1  0.04250111  0.25120906  0.85244044  1
  P  P196  1  0.04280298  0.58563250  0.10262113  1
  P  P197  1  0.04254687  0.58489153  0.35214406  1
  P  P198  1  0.04267131  0.58123507  0.60166080  1
  P  P199  1  0.04292253  0.58340362  0.85332950  1
  P  P200  1  0.04269062  0.91844620  0.10239379  1
  P  P201  1  0.04220300  0.91590323  0.35280894  1
  P  P202  1  0.04138611  0.91652634  0.60108345  1
  P  P203  1  0.04227044  0.91826536  0.85220292  1
  P  P204  1  0.54134814  0.24822088  0.10356868  1
  P  P205  1  0.54099937  0.24994102  0.35125218  1
  P  P206  1  0.54256656  0.24965150  0.60361004  1
  P  P207  1  0.54250586  0.24985979  0.85443627  1
  P  P208  1  0.54246436  0.58178085  0.10287549  1
  P  P209  1  0.54303664  0.58371848  0.35341397  1
  P  P210  1  0.54249186  0.58300029  0.60411574  1
  P  P211  1  0.54169278  0.58218261  0.85357805  1
  P  P212  1  0.54166986  0.91537750  0.10351389  1
  P  P213  1  0.54117014  0.91636069  0.35138575  1
  P  P214  1  0.54197924  0.91596557  0.60259024  1
  P  P215  1  0.54167449  0.91823419  0.85336705  1
  P  P216  1  0.45805947  0.08336557  0.14841567  1
  P  P217  1  0.45675727  0.08322454  0.39555010  1
  P  P218  1  0.45697252  0.08167327  0.64785641  1
  P  P219  1  0.45754958  0.08448162  0.89806383  1
  P  P220  1  0.45740595  0.41549761  0.14745036  1
  P  P221  1  0.45680117  0.41595289  0.39652905  1
  P  P222  1  0.45730175  0.41793206  0.64831041  1
  P  P223  1  0.45759923  0.41872239  0.89785893  1
  P  P224  1  0.45764502  0.75131602  0.14729654  1
  P  P225  1  0.45783049  0.75192275  0.39741460  1
  P  P226  1  0.45645862  0.75035823  0.64709510  1
  P  P227  1  0.45743505  0.75182329  0.89813710  1
  P  P228  1  0.95821961  0.08497260  0.14713614  1
  P  P229  1  0.95860772  0.08366080  0.39793711  1
  P  P230  1  0.95804713  0.08142859  0.64645939  1
  P  P231  1  0.95848172  0.08189344  0.89717231  1
  P  P232  1  0.95842581  0.41544827  0.14717239  1
  P  P233  1  0.95870876  0.41741572  0.39659522  1
  P  P234  1  0.95813536  0.41448979  0.64700097  1
  P  P235  1  0.95830186  0.41451278  0.89762663  1
  P  P236  1  0.95945873  0.75056096  0.14791836  1
  P  P237  1  0.95830003  0.75153087  0.39628005  1
  P  P238  1  0.95725500  0.74988424  0.64582122  1
  P  P239  1  0.95804594  0.74901432  0.89740367  1
  P  P240  1  0.20746247  0.08205089  0.22703786  1
  P  P241  1  0.20699127  0.08297218  0.47860945  1
  P  P242  1  0.20790667  0.08512495  0.72818231  1
  P  P243  1  0.20893969  0.08421682  0.97670613  1
  P  P244  1  0.20812571  0.41573867  0.22801919  1
  P  P245  1  0.20859968  0.41655115  0.47651068  1
  P  P246  1  0.20781847  0.41901947  0.72726444  1
  P  P247  1  0.20804881  0.41875137  0.97714725  1
  P  P248  1  0.20831981  0.75138300  0.22771479  1
  P  P249  1  0.20874556  0.74954915  0.47695758  1
  P  P250  1  0.20812847  0.75034931  0.72680395  1
  P  P251  1  0.20879975  0.75147540  0.97630993  1
  P  P252  1  0.70778025  0.08488618  0.22751648  1
  P  P253  1  0.70703432  0.08526072  0.47695971  1
  P  P254  1  0.70717093  0.08317692  0.72962008  1
  P  P255  1  0.70887744  0.08330848  0.97736664  1
  P  P256  1  0.70785889  0.41473800  0.22773847  1
  P  P257  1  0.70777511  0.41725182  0.47756934  1
  P  P258  1  0.70812956  0.41445959  0.72822487  1
  P  P259  1  0.70795882  0.41647095  0.97809340  1
  P  P260  1  0.70808966  0.75065388  0.22721708  1
  P  P261  1  0.70684050  0.74984902  0.47827574  1
  P  P262  1  0.70698533  0.74937807  0.72871520  1
  P  P263  1  0.70729149  0.74974860  0.97905453  1
  P  P264  1  0.29192362  0.25199254  0.02215283  1
  P  P265  1  0.29134812  0.25134819  0.27197337  1
  P  P266  1  0.29194538  0.24898302  0.52228955  1
  P  P267  1  0.29218176  0.24920313  0.77214730  1
  P  P268  1  0.29275454  0.58434936  0.02113649  1
  P  P269  1  0.29154299  0.58373299  0.27383818  1
  P  P270  1  0.29122312  0.58356187  0.52279693  1
  P  P271  1  0.29086503  0.58473036  0.77268208  1
  P  P272  1  0.29102593  0.91750901  0.02276926  1
  P  P273  1  0.29146680  0.91519200  0.27186469  1
  P  P274  1  0.29159618  0.91463417  0.52258878  1
  P  P275  1  0.29086050  0.91714624  0.77340547  1
  P  P276  1  0.79173000  0.24906565  0.02345163  1
  P  P277  1  0.79202692  0.24847385  0.27167998  1
  P  P278  1  0.79229485  0.25116048  0.52240786  1
  P  P279  1  0.79277002  0.24830364  0.77284821  1
  P  P280  1  0.79369861  0.58197354  0.02145532  1
  P  P281  1  0.79288690  0.58129567  0.27252498  1
  P  P282  1  0.79336662  0.58257089  0.52139185  1
  P  P283  1  0.79278328  0.58085497  0.77290189  1
  P  P284  1  0.79233541  0.91571720  0.02238023  1
  P  P285  1  0.79293913  0.91669863  0.27097439  1
  P  P286  1  0.79248927  0.91742921  0.52158546  1
  P  P287  1  0.79241291  0.91779540  0.77297429  1
  O  O288  1  0.03716089  0.25126256  0.18298191  1
  O  O289  1  0.03643286  0.24898654  0.43165956  1
  O  O290  1  0.03729073  0.24858175  0.68231408  1
  O  O291  1  0.03743718  0.25139023  0.93242641  1
  O  O292  1  0.03724365  0.58592575  0.18255875  1
  O  O293  1  0.03725097  0.58402930  0.43204281  1
  O  O294  1  0.03746428  0.58120549  0.68161917  1
  O  O295  1  0.03780719  0.58425940  0.93329264  1
  O  O296  1  0.03755124  0.91783197  0.18231460  1
  O  O297  1  0.03663799  0.91586473  0.43264911  1
  O  O298  1  0.03628142  0.91680869  0.68107387  1
  O  O299  1  0.03725180  0.91838550  0.93216726  1
  O  O300  1  0.53552302  0.24841641  0.18341663  1
  O  O301  1  0.53613194  0.24981114  0.43125171  1
  O  O302  1  0.53780509  0.24972951  0.68358736  1
  O  O303  1  0.53705268  0.24942597  0.93435760  1
  O  O304  1  0.53727972  0.58210922  0.18282453  1
  O  O305  1  0.53793666  0.58395191  0.43337083  1
  O  O306  1  0.53708042  0.58244693  0.68409251  1
  O  O307  1  0.53656582  0.58204538  0.93355093  1
  O  O308  1  0.53632834  0.91548881  0.18338281  1
  O  O309  1  0.53631054  0.91604246  0.43139241  1
  O  O310  1  0.53683675  0.91698538  0.68253155  1
  O  O311  1  0.53652320  0.91765062  0.93332159  1
  O  O312  1  0.46306393  0.08369387  0.06843779  1
  O  O313  1  0.46215261  0.08324310  0.31565293  1
  O  O314  1  0.46176755  0.08182140  0.56782215  1
  O  O315  1  0.46265525  0.08355349  0.81815591  1
  O  O316  1  0.46286515  0.41636263  0.06752368  1
  O  O317  1  0.46195817  0.41525540  0.31656780  1
  O  O318  1  0.46209116  0.41747806  0.56827897  1
  O  O319  1  0.46294691  0.41911508  0.81791972  1
  O  O320  1  0.46291763  0.75131888  0.06736719  1
  O  O321  1  0.46314256  0.75189292  0.31744873  1
  O  O322  1  0.46160465  0.75062681  0.56714638  1
  O  O323  1  0.46241975  0.75153455  0.81820053  1
  O  O324  1  0.96349218  0.08457614  0.06724511  1
  O  O325  1  0.96379818  0.08446316  0.31795924  1
  O  O326  1  0.96351769  0.08179424  0.56660727  1
  O  O327  1  0.96340818  0.08158975  0.81721952  1
  O  O328  1  0.96379732  0.41526668  0.06724570  1
  O  O329  1  0.96390402  0.41704993  0.31667446  1
  O  O330  1  0.96343186  0.41527359  0.56708715  1
  O  O331  1  0.96354157  0.41415683  0.81765743  1
  O  O332  1  0.96441945  0.75018199  0.06792589  1
  O  O333  1  0.96402794  0.75152152  0.31640046  1
  O  O334  1  0.96235399  0.75045099  0.56584892  1
  O  O335  1  0.96288454  0.74932902  0.81741788  1
  O  O336  1  0.21374731  0.08331789  0.05668155  1
  O  O337  1  0.21213960  0.08200639  0.30699436  1
  O  O338  1  0.21245543  0.08344000  0.55850051  1
  O  O339  1  0.21347319  0.08537154  0.80805544  1
  O  O340  1  0.21339950  0.41783141  0.05705394  1
  O  O341  1  0.21345907  0.41558985  0.30787892  1
  O  O342  1  0.21333282  0.41721548  0.55645536  1
  O  O343  1  0.21310761  0.41932156  0.80716829  1
  O  O344  1  0.21361050  0.75171457  0.05623844  1
  O  O345  1  0.21356703  0.75100551  0.30754236  1
  O  O346  1  0.21352309  0.74914018  0.55684433  1
  O  O347  1  0.21319133  0.75066754  0.80666494  1
  O  O348  1  0.71404761  0.08370022  0.05733478  1
  O  O349  1  0.71274172  0.08522105  0.30743165  1
  O  O350  1  0.71179157  0.08490116  0.55698237  1
  O  O351  1  0.71278513  0.08273768  0.80949287  1
  O  O352  1  0.71324049  0.41569324  0.05799776  1
  O  O353  1  0.71300145  0.41565439  0.30766759  1
  O  O354  1  0.71295954  0.41616035  0.55750449  1
  O  O355  1  0.71343492  0.41512186  0.80816780  1
  O  O356  1  0.71284303  0.75033981  0.05899061  1
  O  O357  1  0.71294347  0.75036769  0.30721576  1
  O  O358  1  0.71187524  0.74981261  0.55825791  1
  O  O359  1  0.71205689  0.74925952  0.80871960  1
  O  O360  1  0.28613983  0.25180567  0.19203418  1
  O  O361  1  0.28636243  0.24972983  0.44236697  1
  O  O362  1  0.28686523  0.24885085  0.69223057  1
  O  O363  1  0.28663587  0.25136186  0.94221692  1
  O  O364  1  0.28731500  0.58394325  0.19384501  1
  O  O365  1  0.28623745  0.58342875  0.44290805  1
  O  O366  1  0.28581749  0.58500546  0.69281577  1
  O  O367  1  0.28739848  0.58425935  0.94131831  1
  O  O368  1  0.28607769  0.91575585  0.19201060  1
  O  O369  1  0.28636280  0.91429078  0.44268433  1
  O  O370  1  0.28637005  0.91692319  0.69350373  1
  O  O371  1  0.28579938  0.91787107  0.94291422  1
  O  O372  1  0.78668499  0.24858257  0.19182835  1
  O  O373  1  0.78714057  0.25057477  0.44246356  1
  O  O374  1  0.78735737  0.24939071  0.69298687  1
  O  O375  1  0.78682685  0.24863594  0.94349789  1
  O  O376  1  0.78793292  0.58163211  0.19253503  1
  O  O377  1  0.78795354  0.58221777  0.44145314  1
  O  O378  1  0.78759622  0.58118925  0.69289497  1
  O  O379  1  0.78842291  0.58153289  0.94151743  1
  O  O380  1  0.78780590  0.91611672  0.19099597  1
  O  O381  1  0.78753690  0.91763663  0.44159961  1
  O  O382  1  0.78734633  0.91767855  0.69299105  1
  O  O383  1  0.78701642  0.91642492  0.94244563  1
  O  O384  1  0.22774141  0.25200588  0.05810393  1
  O  O385  1  0.22710800  0.25146710  0.30781980  1
  O  O386  1  0.22775579  0.24863368  0.55835551  1
  O  O387  1  0.22797818  0.24951365  0.80800856  1
  O  O388  1  0.22859742  0.58418537  0.05705603  1
  O  O389  1  0.22726233  0.58364926  0.30922889  1
  O  O390  1  0.22714763  0.58364033  0.55912600  1
  O  O391  1  0.22689653  0.58427530  0.80918245  1
  O  O392  1  0.22697483  0.91723673  0.05922792  1
  O  O393  1  0.22736787  0.91433102  0.30813032  1
  O  O394  1  0.22740073  0.91505360  0.55848403  1
  O  O395  1  0.22663481  0.91714762  0.80909456  1
  O  O396  1  0.72751647  0.24952053  0.05940952  1
  O  O397  1  0.72783363  0.24842043  0.30773250  1
  O  O398  1  0.72792867  0.25188972  0.55804468  1
  O  O399  1  0.72855635  0.24762715  0.80880028  1
  O  O400  1  0.72935293  0.58225459  0.05673247  1
  O  O401  1  0.72845982  0.58085477  0.30785922  1
  O  O402  1  0.72906635  0.58239631  0.55690249  1
  O  O403  1  0.72844344  0.58029785  0.80851129  1
  O  O404  1  0.72813569  0.91522848  0.05824159  1
  O  O405  1  0.72851265  0.91718329  0.30608801  1
  O  O406  1  0.72800386  0.91717574  0.55654912  1
  O  O407  1  0.72804582  0.91804585  0.80838344  1
  O  O408  1  0.27181477  0.08201790  0.19162560  1
  O  O409  1  0.27114068  0.08290996  0.44284117  1
  O  O410  1  0.27196696  0.08512931  0.69177146  1
  O  O411  1  0.27302099  0.08456601  0.94071255  1
  O  O412  1  0.27227115  0.41543168  0.19179309  1
  O  O413  1  0.27276016  0.41590295  0.44063537  1
  O  O414  1  0.27201772  0.41888104  0.69139886  1
  O  O415  1  0.27217665  0.41942654  0.94109027  1
  O  O416  1  0.27247217  0.75236701  0.19155655  1
  O  O417  1  0.27284103  0.74989164  0.44076608  1
  O  O418  1  0.27222312  0.75029927  0.69051509  1
  O  O419  1  0.27291015  0.75171487  0.94032555  1
  O  O420  1  0.77211859  0.08474181  0.19201232  1
  O  O421  1  0.77157764  0.08554436  0.44182592  1
  O  O422  1  0.77131511  0.08372193  0.69361689  1
  O  O423  1  0.77297508  0.08323479  0.94112997  1
  O  O424  1  0.77217885  0.41373024  0.19211595  1
  O  O425  1  0.77210368  0.41767940  0.44186545  1
  O  O426  1  0.77242425  0.41393009  0.69240887  1
  O  O427  1  0.77223433  0.41675558  0.94232277  1
  O  O428  1  0.77253953  0.75092769  0.19199588  1
  O  O429  1  0.77132637  0.74977043  0.44328287  1
  O  O430  1  0.77146237  0.74977828  0.69370651  1
  O  O431  1  0.77156078  0.74947452  0.94357993  1
  O  O432  1  0.02242590  0.08540016  0.18300023  1
  O  O433  1  0.02269489  0.08321480  0.43406732  1
  O  O434  1  0.02212965  0.08138359  0.68280068  1
  O  O435  1  0.02283450  0.08226303  0.93267050  1
  O  O436  1  0.02260535  0.41595295  0.18298740  1
  O  O437  1  0.02289879  0.41739358  0.43251156  1
  O  O438  1  0.02242645  0.41413248  0.68276485  1
  O  O439  1  0.02258308  0.41491987  0.93329998  1
  O  O440  1  0.02359749  0.75053033  0.18388486  1
  O  O441  1  0.02229919  0.75155893  0.43273865  1
  O  O442  1  0.02166048  0.74997912  0.68095511  1
  O  O443  1  0.02246065  0.74910497  0.93272403  1
  O  O444  1  0.52215566  0.08361779  0.18435794  1
  O  O445  1  0.52096053  0.08298832  0.43129741  1
  O  O446  1  0.52143354  0.08143661  0.68306108  1
  O  O447  1  0.52179592  0.08479658  0.93384936  1
  O  O448  1  0.52162254  0.41471115  0.18327272  1
  O  O449  1  0.52120764  0.41625813  0.43168319  1
  O  O450  1  0.52175487  0.41817798  0.68347470  1
  O  O451  1  0.52178698  0.41817989  0.93373384  1
  O  O452  1  0.52191947  0.75142916  0.18295797  1
  O  O453  1  0.52204151  0.75216990  0.43327458  1
  O  O454  1  0.52082321  0.75028642  0.68230142  1
  O  O455  1  0.52172969  0.75161721  0.93363976  1
  O  O456  1  0.47732034  0.24822469  0.06718859  1
  O  O457  1  0.47675468  0.25011362  0.31548428  1
  O  O458  1  0.47796772  0.24955531  0.56891024  1
  O  O459  1  0.47828556  0.25016620  0.81883492  1
  O  O460  1  0.47812420  0.58193178  0.06740863  1
  O  O461  1  0.47853822  0.58362655  0.31856495  1
  O  O462  1  0.47818359  0.58355470  0.56869432  1
  O  O463  1  0.47738119  0.58222900  0.81796006  1
  O  O464  1  0.47749229  0.91554058  0.06751530  1
  O  O465  1  0.47694821  0.91642226  0.31564680  1
  O  O466  1  0.47756635  0.91504337  0.56707000  1
  O  O467  1  0.47737554  0.91864984  0.81767767  1
  O  O468  1  0.97838134  0.25129922  0.06700359  1
  O  O469  1  0.97745914  0.24941462  0.31551734  1
  O  O470  1  0.97828473  0.24809760  0.56659782  1
  O  O471  1  0.97820917  0.25091321  0.81680297  1
  O  O472  1  0.97866995  0.58530106  0.06660483  1
  O  O473  1  0.97839026  0.58517488  0.31622903  1
  O  O474  1  0.97839072  0.58130706  0.56608262  1
  O  O475  1  0.97860178  0.58264476  0.81797525  1
  O  O476  1  0.97843456  0.91843359  0.06667762  1
  O  O477  1  0.97824042  0.91594854  0.31633665  1
  O  O478  1  0.97731556  0.91666872  0.56490664  1
  O  O479  1  0.97794184  0.91831555  0.81660127  1
  O  O480  1  0.07333099  0.31507481  0.07431746  1
  O  O481  1  0.07187694  0.31378721  0.32394112  1
  O  O482  1  0.07400626  0.31134216  0.57414907  1
  O  O483  1  0.07339799  0.31445518  0.82342864  1
  O  O484  1  0.07378098  0.64891982  0.07379192  1
  O  O485  1  0.07322225  0.64877177  0.32416939  1
  O  O486  1  0.07382762  0.64495396  0.57411762  1
  O  O487  1  0.07386619  0.64663242  0.82423459  1
  O  O488  1  0.07311606  0.98233159  0.07406834  1
  O  O489  1  0.07356322  0.97957435  0.32508606  1
  O  O490  1  0.07267699  0.97989480  0.57276816  1
  O  O491  1  0.07334436  0.98136499  0.82316141  1
  O  O492  1  0.57277663  0.31171715  0.07565839  1
  O  O493  1  0.57190541  0.31360538  0.32311847  1
  O  O494  1  0.57337183  0.31323390  0.57518910  1
  O  O495  1  0.57356953  0.31364577  0.82674364  1
  O  O496  1  0.57362499  0.64539706  0.07504312  1
  O  O497  1  0.57405322  0.64716558  0.32503977  1
  O  O498  1  0.57376602  0.64663703  0.57638885  1
  O  O499  1  0.57263943  0.64611740  0.82598780  1
  O  O500  1  0.57304776  0.97902273  0.07569307  1
  O  O501  1  0.57169301  0.98039857  0.32320055  1
  O  O502  1  0.57283442  0.97941523  0.57378325  1
  O  O503  1  0.57226513  0.98197127  0.82494011  1
  O  O504  1  0.42775662  0.01910890  0.17626234  1
  O  O505  1  0.42534940  0.01984213  0.42387010  1
  O  O506  1  0.42632857  0.01810231  0.67654674  1
  O  O507  1  0.42626175  0.02116700  0.92655080  1
  O  O508  1  0.42641748  0.35181012  0.17533703  1
  O  O509  1  0.42559895  0.35283719  0.42545984  1
  O  O510  1  0.42638108  0.35424780  0.67639983  1
  O  O511  1  0.42632525  0.35481855  0.92505838  1
  O  O512  1  0.42680075  0.68735086  0.17509539  1
  O  O513  1  0.42697535  0.68800589  0.42514367  1
  O  O514  1  0.42551384  0.68676950  0.67541915  1
  O  O515  1  0.42619800  0.68826019  0.92590047  1
  O  O516  1  0.92710082  0.02143155  0.17526980  1
  O  O517  1  0.92768445  0.01969218  0.42537592  1
  O  O518  1  0.92717339  0.01792359  0.67509497  1
  O  O519  1  0.92772874  0.01868415  0.92648447  1
  O  O520  1  0.92770261  0.35208500  0.17621618  1
  O  O521  1  0.92721124  0.35403862  0.42458707  1
  O  O522  1  0.92753301  0.35063649  0.67514832  1
  O  O523  1  0.92737403  0.35122753  0.92658161  1
  O  O524  1  0.92819036  0.68725869  0.17654337  1
  O  O525  1  0.92694651  0.68789522  0.42404488  1
  O  O526  1  0.92650426  0.68595659  0.67360957  1
  O  O527  1  0.92742719  0.68545243  0.92597362  1
  O  O528  1  0.17667904  0.01866123  0.19832165  1
  O  O529  1  0.17603128  0.01917951  0.45097970  1
  O  O530  1  0.17678849  0.02127974  0.70059962  1
  O  O531  1  0.17822030  0.02071043  0.94764858  1
  O  O532  1  0.17696806  0.35265780  0.19886481  1
  O  O533  1  0.17730372  0.35291280  0.44882560  1
  O  O534  1  0.17692805  0.35500938  0.69983220  1
  O  O535  1  0.17706467  0.35523362  0.94876010  1
  O  O536  1  0.17789818  0.68741896  0.19941039  1
  O  O537  1  0.17820691  0.68578983  0.44806599  1
  O  O538  1  0.17718267  0.68682078  0.69823023  1
  O  O539  1  0.17851918  0.68747367  0.94786471  1
  O  O540  1  0.67685069  0.02097323  0.19994307  1
  O  O541  1  0.67618549  0.02160784  0.44882515  1
  O  O542  1  0.67609162  0.01990608  0.70067088  1
  O  O543  1  0.67823783  0.01922286  0.94976289  1
  O  O544  1  0.67685242  0.35116769  0.19958351  1
  O  O545  1  0.67650892  0.35394098  0.44910408  1
  O  O546  1  0.67736996  0.35080184  0.69995542  1
  O  O547  1  0.67659968  0.35304302  0.95015614  1
  O  O548  1  0.67717578  0.68682734  0.19957612  1
  O  O549  1  0.67587824  0.68633499  0.45005188  1
  O  O550  1  0.67627644  0.68567783  0.70068406  1
  O  O551  1  0.67616612  0.68602229  0.95144957  1
  O  O552  1  0.32251579  0.31578141  0.05020654  1
  O  O553  1  0.32257296  0.31428511  0.30112856  1
  O  O554  1  0.32307240  0.31250180  0.55048392  1
  O  O555  1  0.32327785  0.31321200  0.79928443  1
  O  O556  1  0.32380515  0.64792251  0.04945168  1
  O  O557  1  0.32238458  0.64731368  0.30228959  1
  O  O558  1  0.32227497  0.64708312  0.55122288  1
  O  O559  1  0.32134341  0.64861263  0.80142912  1
  O  O560  1  0.32174474  0.98120094  0.05149057  1
  O  O561  1  0.32215462  0.97898062  0.30018986  1
  O  O562  1  0.32285450  0.97839082  0.55002705  1
  O  O563  1  0.32125579  0.98107346  0.80193815  1
  O  O564  1  0.82244925  0.31290717  0.05147140  1
  O  O565  1  0.82332080  0.31197107  0.29978985  1
  O  O566  1  0.82320008  0.31475266  0.55061425  1
  O  O567  1  0.82391836  0.31160036  0.80141881  1
  O  O568  1  0.82472527  0.64562514  0.04949156  1
  O  O569  1  0.82358753  0.64522025  0.30016734  1
  O  O570  1  0.82423074  0.64627821  0.54943918  1
  O  O571  1  0.82356066  0.64471588  0.80058489  1
  O  O572  1  0.82347625  0.97927545  0.05035193  1
  O  O573  1  0.82397161  0.98049068  0.29863278  1
  O  O574  1  0.82330644  0.98106751  0.54968239  1
  O  O575  1  0.82320391  0.98121547  0.80168060  1
  O  O576  1  0.42656490  0.14650978  0.17670375  1
  O  O577  1  0.42571019  0.14659721  0.42414286  1
  O  O578  1  0.42617309  0.14537190  0.67578246  1
  O  O579  1  0.42692636  0.14819530  0.92626836  1
  O  O580  1  0.42640212  0.47900736  0.17567174  1
  O  O581  1  0.42590559  0.47973163  0.42426077  1
  O  O582  1  0.42662002  0.48153554  0.67663289  1
  O  O583  1  0.42681921  0.48194219  0.92686151  1
  O  O584  1  0.42654572  0.81445064  0.17607300  1
  O  O585  1  0.42685866  0.81520303  0.42604507  1
  O  O586  1  0.42522351  0.81356759  0.67556110  1
  O  O587  1  0.42703353  0.81563113  0.92637969  1
  O  O588  1  0.92738600  0.14846281  0.17560421  1
  O  O589  1  0.92781642  0.14710998  0.42669928  1
  O  O590  1  0.92682899  0.14488110  0.67478495  1
  O  O591  1  0.92751469  0.14573321  0.92475389  1
  O  O592  1  0.92711621  0.47921036  0.17440122  1
  O  O593  1  0.92834478  0.48121860  0.42502709  1
  O  O594  1  0.92695178  0.47777308  0.67550247  1
  O  O595  1  0.92729822  0.47830904  0.92519080  1
  O  O596  1  0.92902043  0.81465211  0.17577845  1
  O  O597  1  0.92723635  0.81483975  0.42495473  1
  O  O598  1  0.92587562  0.81288555  0.67462702  1
  O  O599  1  0.92708092  0.81269144  0.92532014  1
  O  O600  1  0.07394347  0.18821525  0.07479137  1
  O  O601  1  0.07281717  0.18630707  0.32319157  1
  O  O602  1  0.07291350  0.18429315  0.57397739  1
  O  O603  1  0.07342404  0.18736054  0.82488504  1
  O  O604  1  0.07386304  0.52166807  0.07551025  1
  O  O605  1  0.07387695  0.52165155  0.32379882  1
  O  O606  1  0.07320818  0.51765512  0.57304960  1
  O  O607  1  0.07405038  0.51969585  0.82583155  1
  O  O608  1  0.07403647  0.85521564  0.07405078  1
  O  O609  1  0.07310075  0.85261938  0.32381493  1
  O  O610  1  0.07193579  0.85252432  0.57318323  1
  O  O611  1  0.07292634  0.85426839  0.82445033  1
  O  O612  1  0.57223343  0.18475566  0.07500166  1
  O  O613  1  0.57161428  0.18615388  0.32312724  1
  O  O614  1  0.57335678  0.18613762  0.57523354  1
  O  O615  1  0.57375799  0.18671918  0.82596790  1
  O  O616  1  0.57302195  0.51803528  0.07477317  1
  O  O617  1  0.57402010  0.52017007  0.32547699  1
  O  O618  1  0.57358745  0.51975804  0.57549074  1
  O  O619  1  0.57256689  0.51892263  0.82467297  1
  O  O620  1  0.57242357  0.85208151  0.07443054  1
  O  O621  1  0.57229861  0.85304862  0.32295410  1
  O  O622  1  0.57280228  0.85232877  0.57447554  1
  O  O623  1  0.57285836  0.85480923  0.82526100  1
  O  O624  1  0.32318909  0.18860568  0.05041109  1
  O  O625  1  0.32199287  0.18713775  0.29910029  1
  O  O626  1  0.32278881  0.18533531  0.55033199  1
  O  O627  1  0.32311852  0.18614096  0.80142876  1
  O  O628  1  0.32410990  0.52126072  0.05005671  1
  O  O629  1  0.32198039  0.51981633  0.30206965  1
  O  O630  1  0.32196867  0.51986967  0.55137013  1
  O  O631  1  0.32215204  0.52133739  0.80096133  1
  O  O632  1  0.32211456  0.85396817  0.05098707  1
  O  O633  1  0.32289239  0.85206615  0.30046334  1
  O  O634  1  0.32225729  0.85129801  0.55162946  1
  O  O635  1  0.32196676  0.85380377  0.80202120  1
  O  O636  1  0.82247647  0.18544085  0.05179386  1
  O  O637  1  0.82287233  0.18518907  0.30079688  1
  O  O638  1  0.82305887  0.18757073  0.55073341  1
  O  O639  1  0.82363406  0.18464349  0.80093190  1
  O  O640  1  0.82499275  0.51879200  0.04986349  1
  O  O641  1  0.82366534  0.51773233  0.30075825  1
  O  O642  1  0.82477809  0.51940029  0.54981347  1
  O  O643  1  0.82366189  0.51725017  0.80095382  1
  O  O644  1  0.82323527  0.85210916  0.05055850  1
  O  O645  1  0.82406693  0.85355565  0.29970478  1
  O  O646  1  0.82352513  0.85395256  0.54968220  1
  O  O647  1  0.82341249  0.85403057  0.80058890  1
  O  O648  1  0.17671877  0.14589869  0.19926081  1
  O  O649  1  0.17560439  0.14605972  0.44998606  1
  O  O650  1  0.17688317  0.14832617  0.69918462  1
  O  O651  1  0.17800027  0.14813544  0.94926085  1
  O  O652  1  0.17728284  0.47967771  0.20025120  1
  O  O653  1  0.17839676  0.48033171  0.44744721  1
  O  O654  1  0.17682128  0.48211109  0.69821050  1
  O  O655  1  0.17701109  0.48236063  0.94929890  1
  O  O656  1  0.17681514  0.81434077  0.19879302  1
  O  O657  1  0.17759854  0.81298342  0.44861503  1
  O  O658  1  0.17731638  0.81398729  0.69810408  1
  O  O659  1  0.17743039  0.81473837  0.94788001  1
  O  O660  1  0.67685116  0.14794749  0.19826317  1
  O  O661  1  0.67648415  0.14893656  0.44862916  1
  O  O662  1  0.67567075  0.14651819  0.70154910  1
  O  O663  1  0.67786483  0.14676166  0.94905993  1
  O  O664  1  0.67702271  0.47826300  0.19937702  1
  O  O665  1  0.67719361  0.48100383  0.44937167  1
  O  O666  1  0.67708368  0.47791832  0.69999605  1
  O  O667  1  0.67744123  0.48016448  0.94964154  1
  O  O668  1  0.67741169  0.81423891  0.19880622  1
  O  O669  1  0.67592978  0.81335608  0.45003339  1
  O  O670  1  0.67588480  0.81295986  0.70087710  1
  O  O671  1  0.67590902  0.81288237  0.95056281  1
