# generated using pymatgen
data_Na2MnFe(PO4)2
_symmetry_space_group_name_H-M   'P 1'
_cell_length_a   22.34297447
_cell_length_b   20.09317519
_cell_length_c   19.44925960
_cell_angle_alpha   90.01369698
_cell_angle_beta   90.00115590
_cell_angle_gamma   89.98345659
_symmetry_Int_Tables_number   1
_chemical_formula_structural   Na2MnFe(PO4)2
_chemical_formula_sum   'Na96 Mn48 Fe48 P96 O384'
_cell_volume   8731.57527800
_cell_formula_units_Z   48
loop_
 _symmetry_equiv_pos_site_id
 _symmetry_equiv_pos_as_xyz
  1  'x, y, z'
loop_
 _atom_site_type_symbol
 _atom_site_label
 _atom_site_symmetry_multiplicity
 _atom_site_fract_x
 _atom_site_fract_y
 _atom_site_fract_z
 _atom_site_occupancy
  Na  Na0  1  0.14105464  0.24928034  0.24401584  1
  Na  Na1  1  0.14046862  0.25114734  0.49340795  1
  Na  Na2  1  0.14043005  0.24927552  0.74469612  1
  Na  Na3  1  0.14047627  0.24890359  0.99283617  1
  Na  Na4  1  0.13976459  0.58282846  0.24399788  1
  Na  Na5  1  0.14000769  0.58455882  0.49286159  1
  Na  Na6  1  0.14061383  0.58574849  0.74324150  1
  Na  Na7  1  0.14045839  0.58402892  0.99303418  1
  Na  Na8  1  0.14020812  0.91678941  0.24416656  1
  Na  Na9  1  0.14027483  0.91774242  0.49469044  1
  Na  Na10  1  0.14009249  0.91682737  0.74372816  1
  Na  Na11  1  0.14056704  0.91748269  0.99203852  1
  Na  Na12  1  0.64033510  0.25026982  0.24393686  1
  Na  Na13  1  0.64013786  0.24991904  0.49509117  1
  Na  Na14  1  0.64015779  0.24968685  0.74371905  1
  Na  Na15  1  0.64058118  0.25059382  0.99174548  1
  Na  Na16  1  0.64008714  0.58291195  0.24320754  1
  Na  Na17  1  0.64023324  0.58192183  0.49224960  1
  Na  Na18  1  0.64024408  0.58115875  0.74369794  1
  Na  Na19  1  0.64032321  0.58309422  0.99436031  1
  Na  Na20  1  0.64023024  0.91447437  0.24336492  1
  Na  Na21  1  0.64041246  0.91626134  0.49402046  1
  Na  Na22  1  0.64016973  0.91699471  0.74526101  1
  Na  Na23  1  0.64002075  0.91725975  0.99318312  1
  Na  Na24  1  0.36021718  0.08324267  0.00601483  1
  Na  Na25  1  0.35964590  0.08201845  0.25556108  1
  Na  Na26  1  0.35944845  0.08352075  0.50659915  1
  Na  Na27  1  0.35922700  0.08329307  0.75773264  1
  Na  Na28  1  0.35971908  0.41575522  0.00575336  1
  Na  Na29  1  0.35978985  0.41673085  0.25572702  1
  Na  Na30  1  0.35977370  0.41748527  0.50561613  1
  Na  Na31  1  0.35975306  0.41615736  0.75700925  1
  Na  Na32  1  0.35973309  0.74996306  0.00750823  1
  Na  Na33  1  0.35973938  0.74926735  0.25642326  1
  Na  Na34  1  0.35965794  0.75140027  0.50552706  1
  Na  Na35  1  0.35938361  0.75138873  0.75779136  1
  Na  Na36  1  0.86037608  0.08438669  0.00651273  1
  Na  Na37  1  0.85972498  0.08318176  0.25596713  1
  Na  Na38  1  0.85899074  0.08374269  0.50628555  1
  Na  Na39  1  0.85941207  0.08337221  0.75745074  1
  Na  Na40  1  0.85917458  0.41786749  0.00570117  1
  Na  Na41  1  0.85998265  0.41763090  0.25666941  1
  Na  Na42  1  0.85996739  0.41648336  0.50629874  1
  Na  Na43  1  0.85934539  0.41586895  0.75518284  1
  Na  Na44  1  0.85999442  0.74979990  0.00536920  1
  Na  Na45  1  0.85931806  0.74933659  0.25685783  1
  Na  Na46  1  0.85974021  0.74989435  0.50710987  1
  Na  Na47  1  0.85983153  0.74964643  0.75627814  1
  Na  Na48  1  0.10974834  0.08255313  0.11833594  1
  Na  Na49  1  0.10958125  0.08361350  0.36901981  1
  Na  Na50  1  0.10982307  0.08224157  0.61907366  1
  Na  Na51  1  0.11000014  0.08211068  0.86829519  1
  Na  Na52  1  0.10963261  0.41811936  0.11862062  1
  Na  Na53  1  0.10980331  0.41771080  0.36892994  1
  Na  Na54  1  0.10958619  0.41775978  0.61796650  1
  Na  Na55  1  0.10966803  0.41715779  0.86875746  1
  Na  Na56  1  0.10940334  0.75139192  0.11825588  1
  Na  Na57  1  0.10953817  0.75109435  0.36959532  1
  Na  Na58  1  0.10964303  0.75032813  0.61913323  1
  Na  Na59  1  0.10997809  0.75078571  0.86726492  1
  Na  Na60  1  0.60931024  0.08338631  0.11710227  1
  Na  Na61  1  0.60906428  0.08300678  0.36963274  1
  Na  Na62  1  0.60982314  0.08327588  0.62016494  1
  Na  Na63  1  0.61035557  0.08377595  0.86861199  1
  Na  Na64  1  0.60992972  0.41666858  0.11794466  1
  Na  Na65  1  0.60984740  0.41674321  0.36875164  1
  Na  Na66  1  0.61003291  0.41474740  0.61854873  1
  Na  Na67  1  0.61034367  0.41489257  0.86775204  1
  Na  Na68  1  0.60944142  0.74993305  0.11953455  1
  Na  Na69  1  0.61004187  0.74902186  0.36727239  1
  Na  Na70  1  0.60921823  0.74863796  0.61825709  1
  Na  Na71  1  0.60914898  0.74968819  0.87032964  1
  Na  Na72  1  0.39066188  0.25036821  0.12956481  1
  Na  Na73  1  0.39036613  0.25026141  0.38140274  1
  Na  Na74  1  0.39024284  0.24931916  0.63176469  1
  Na  Na75  1  0.39042906  0.24889711  0.88170623  1
  Na  Na76  1  0.39048134  0.58392474  0.13177997  1
  Na  Na77  1  0.39035481  0.58310445  0.38005129  1
  Na  Na78  1  0.39055760  0.58194250  0.63063018  1
  Na  Na79  1  0.39042609  0.58315426  0.88258082  1
  Na  Na80  1  0.39015813  0.91635332  0.13092807  1
  Na  Na81  1  0.39037014  0.91633157  0.38138396  1
  Na  Na82  1  0.38972725  0.91738886  0.63259655  1
  Na  Na83  1  0.39009489  0.91669066  0.88343628  1
  Na  Na84  1  0.89031469  0.25029218  0.13096806  1
  Na  Na85  1  0.89049182  0.25154711  0.38107220  1
  Na  Na86  1  0.89050313  0.25044529  0.63157632  1
  Na  Na87  1  0.88989236  0.24959325  0.88237718  1
  Na  Na88  1  0.89045000  0.58457608  0.13091947  1
  Na  Na89  1  0.89075865  0.58346619  0.38230156  1
  Na  Na90  1  0.89019386  0.58339777  0.63040149  1
  Na  Na91  1  0.89021149  0.58373130  0.88019264  1
  Na  Na92  1  0.89052176  0.91726231  0.13025545  1
  Na  Na93  1  0.89011785  0.91605887  0.38151471  1
  Na  Na94  1  0.89006234  0.91576397  0.63209902  1
  Na  Na95  1  0.89041768  0.91692312  0.88098021  1
  Mn  Mn96  1  0.49955457  0.66517048  0.49886446  1
  Mn  Mn97  1  0.74911260  0.83364594  0.62563036  1
  Mn  Mn98  1  0.24991081  0.33376787  0.62482385  1
  Mn  Mn99  1  0.24896608  0.66575469  0.12560594  1
  Mn  Mn100  1  0.74907806  0.66546198  0.62509382  1
  Mn  Mn101  1  0.25036156  0.16636405  0.62536015  1
  Mn  Mn102  1  0.25000899  0.50037154  0.87485950  1
  Mn  Mn103  1  0.49996441  0.83291459  0.50002616  1
  Mn  Mn104  1  0.49963402  -0.00075535  0.24940539  1
  Mn  Mn105  1  0.25011308  -0.00015521  0.37547130  1
  Mn  Mn106  1  0.49966691  0.83293430  0.75108793  1
  Mn  Mn107  1  0.00006207  0.83377602  -0.00088600  1
  Mn  Mn108  1  0.74979040  0.00012465  0.12532445  1
  Mn  Mn109  1  0.00074351  0.33432363  0.25021551  1
  Mn  Mn110  1  0.74908645  -0.00079774  0.37538217  1
  Mn  Mn111  1  0.49969169  0.33292948  0.49996755  1
  Mn  Mn112  1  0.74964676  0.16757498  0.37564842  1
  Mn  Mn113  1  0.00050048  0.16598081  0.75033797  1
  Mn  Mn114  1  0.74932974  0.66548026  0.87477746  1
  Mn  Mn115  1  0.25032762  0.16543173  0.12385842  1
  Mn  Mn116  1  0.50075281  0.33410559  0.25019540  1
  Mn  Mn117  1  0.00017607  0.33356026  0.75012919  1
  Mn  Mn118  1  0.25028677  0.33316039  0.12496290  1
  Mn  Mn119  1  -0.00015542  0.66699619  0.25014050  1
  Mn  Mn120  1  -0.00081173  0.83452165  0.24924135  1
  Mn  Mn121  1  0.75007331  0.16671942  0.62542031  1
  Mn  Mn122  1  0.24939394  0.83363919  0.12475978  1
  Mn  Mn123  1  0.25023797  0.33363549  0.37445526  1
  Mn  Mn124  1  0.74938215  0.83366933  0.87530076  1
  Mn  Mn125  1  0.25110343  0.66897984  0.62420706  1
  Mn  Mn126  1  0.74989121  0.49921843  0.37445761  1
  Mn  Mn127  1  0.00021845  0.16633515  0.25060173  1
  Mn  Mn128  1  0.24952316  0.66715900  0.37496365  1
  Mn  Mn129  1  0.49995514  0.16678297  0.24918395  1
  Mn  Mn130  1  0.49991518  0.00060616  0.50095945  1
  Mn  Mn131  1  -0.00017902  0.50135651  0.74891065  1
  Mn  Mn132  1  0.50022393  0.49958277  -0.00020944  1
  Mn  Mn133  1  -0.00001812  0.50191285  -0.00092162  1
  Mn  Mn134  1  -0.00053209  0.16697516  0.49991376  1
  Mn  Mn135  1  -0.00041096  0.33359907  0.00041304  1
  Mn  Mn136  1  -0.00124755  -0.00085351  0.50005761  1
  Mn  Mn137  1  0.74971443  0.16799389  0.12529860  1
  Mn  Mn138  1  0.49978591  0.66564528  0.75002061  1
  Mn  Mn139  1  0.24978007  0.50132979  0.62608791  1
  Mn  Mn140  1  0.75076528  0.83231254  0.12449284  1
  Mn  Mn141  1  0.50032941  0.00058394  0.75117846  1
  Mn  Mn142  1  0.75019531  0.49987800  0.12525443  1
  Mn  Mn143  1  0.50051846  0.49812320  0.75082485  1
  Fe  Fe144  1  0.74975964  0.49874649  0.62420546  1
  Fe  Fe145  1  0.00048619  0.16608790  0.00054367  1
  Fe  Fe146  1  0.25039182  -0.00017031  0.87476679  1
  Fe  Fe147  1  0.50008953  0.66667971  0.24980767  1
  Fe  Fe148  1  0.24994229  0.49943881  0.12423788  1
  Fe  Fe149  1  0.25017144  0.83472623  0.62620999  1
  Fe  Fe150  1  0.00041876  -0.00002961  -0.00047540  1
  Fe  Fe151  1  0.75010334  0.00006240  0.62530086  1
  Fe  Fe152  1  0.24987522  -0.00019698  0.12447883  1
  Fe  Fe153  1  0.24993830  0.50033536  0.37491141  1
  Fe  Fe154  1  0.75075635  0.00054986  0.87501056  1
  Fe  Fe155  1  0.49961212  0.16645929  0.50046868  1
  Fe  Fe156  1  0.50026106  0.33313332  -0.00054110  1
  Fe  Fe157  1  0.00006649  0.50062321  0.25075148  1
  Fe  Fe158  1  0.50077957  0.16700088  -0.00066807  1
  Fe  Fe159  1  0.75064936  0.33298191  0.62553831  1
  Fe  Fe160  1  0.00021248  0.66759188  -0.00056283  1
  Fe  Fe161  1  0.24973417  0.00019385  0.62551643  1
  Fe  Fe162  1  0.50046269  -0.00020805  0.00022138  1
  Fe  Fe163  1  0.49980261  0.83274111  0.00106152  1
  Fe  Fe164  1  0.75025747  0.83258028  0.37508088  1
  Fe  Fe165  1  0.75004676  0.66620122  0.12505911  1
  Fe  Fe166  1  0.25009368  0.83413731  0.37551642  1
  Fe  Fe167  1  0.50014228  0.66655862  0.00132021  1
  Fe  Fe168  1  0.00019295  0.83319401  0.50053242  1
  Fe  Fe169  1  -0.00045682  0.83287701  0.74995594  1
  Fe  Fe170  1  0.75021789  0.49935109  0.87459383  1
  Fe  Fe171  1  0.25038289  0.16641691  0.37489157  1
  Fe  Fe172  1  0.75030884  0.16717336  0.87494600  1
  Fe  Fe173  1  0.25024672  0.83396523  0.87512103  1
  Fe  Fe174  1  0.75015996  0.33381282  0.87432559  1
  Fe  Fe175  1  0.25055799  0.66727112  0.87499691  1
  Fe  Fe176  1  0.00038187  0.66709769  0.74906360  1
  Fe  Fe177  1  -0.00015187  0.66722680  0.50022195  1
  Fe  Fe178  1  0.50017666  0.49938400  0.49945502  1
  Fe  Fe179  1  0.49955807  0.33185416  0.74932356  1
  Fe  Fe180  1  0.24952478  0.33335942  0.87541883  1
  Fe  Fe181  1  0.75024207  0.66601589  0.37517522  1
  Fe  Fe182  1  0.49971116  0.50029192  0.24904141  1
  Fe  Fe183  1  0.24995077  0.16609030  0.87485845  1
  Fe  Fe184  1  0.75020957  0.33331434  0.37517118  1
  Fe  Fe185  1  -0.00007744  0.00022744  0.24969834  1
  Fe  Fe186  1  0.00025181  0.50051924  0.50018119  1
  Fe  Fe187  1  0.00071395  0.33393547  0.50004057  1
  Fe  Fe188  1  0.75002236  0.33373250  0.12415422  1
  Fe  Fe189  1  0.49938625  0.16647890  0.75080451  1
  Fe  Fe190  1  0.49998110  0.83319819  0.24959441  1
  Fe  Fe191  1  -0.00058355  -0.00043730  0.74988867  1
  P  P192  1  0.04240260  0.24890579  0.10258039  1
  P  P193  1  0.04310632  0.25084072  0.35377866  1
  P  P194  1  0.04245581  0.25098966  0.60237891  1
  P  P195  1  0.04247505  0.24947190  0.85407600  1
  P  P196  1  0.04250966  0.58554813  0.10235997  1
  P  P197  1  0.04186266  0.58277629  0.35358446  1
  P  P198  1  0.04156679  0.58431006  0.60142319  1
  P  P199  1  0.04246529  0.58561882  0.85187426  1
  P  P200  1  0.04260561  0.91834317  0.10193268  1
  P  P201  1  0.04186767  0.91782634  0.35255324  1
  P  P202  1  0.04148055  0.91503973  0.60349596  1
  P  P203  1  0.04105424  0.91672984  0.85136490  1
  P  P204  1  0.54192675  0.25045561  0.10089730  1
  P  P205  1  0.54269541  0.24968552  0.35345924  1
  P  P206  1  0.54180090  0.24826833  0.60336281  1
  P  P207  1  0.54137706  0.24960239  0.85208193  1
  P  P208  1  0.54195265  0.58430388  0.10344247  1
  P  P209  1  0.54139669  0.58259194  0.35113469  1
  P  P210  1  0.54251722  0.58099676  0.60196232  1
  P  P211  1  0.54270135  0.58289720  0.85395455  1
  P  P212  1  0.54138849  0.91609895  0.10199756  1
  P  P213  1  0.54227659  0.91540327  0.35230355  1
  P  P214  1  0.54275991  0.91666757  0.60378596  1
  P  P215  1  0.54228951  0.91664078  0.85500580  1
  P  P216  1  0.45766984  0.08315257  0.14545409  1
  P  P217  1  0.45735574  0.08431377  0.39775908  1
  P  P218  1  0.45741076  0.08475349  0.64824614  1
  P  P219  1  0.45932815  0.08349024  0.89858771  1
  P  P220  1  0.45810665  0.41751923  0.14672464  1
  P  P221  1  0.45784474  0.41807633  0.39679370  1
  P  P222  1  0.45771208  0.41474142  0.64733918  1
  P  P223  1  0.45805060  0.41438257  0.89698201  1
  P  P224  1  0.45841934  0.75001978  0.14795524  1
  P  P225  1  0.45758841  0.74959117  0.39554935  1
  P  P226  1  0.45678260  0.74935465  0.64716420  1
  P  P227  1  0.45836522  0.74932002  0.89954659  1
  P  P228  1  0.95807905  0.08235268  0.14673649  1
  P  P229  1  0.95648313  0.08307559  0.39655101  1
  P  P230  1  0.95739327  0.08196976  0.64791009  1
  P  P231  1  0.95896357  0.08282914  0.89822517  1
  P  P232  1  0.95805371  0.41880144  0.14786032  1
  P  P233  1  0.95891091  0.41753914  0.39843150  1
  P  P234  1  0.95790898  0.41713664  0.64564594  1
  P  P235  1  0.95708175  0.41737163  0.89670599  1
  P  P236  1  0.95683614  0.75036397  0.14625495  1
  P  P237  1  0.95851396  0.75057438  0.39869840  1
  P  P238  1  0.95833289  0.74986255  0.64759805  1
  P  P239  1  0.95803154  0.74909533  0.89615336  1
  P  P240  1  0.20792437  0.08183506  0.22731720  1
  P  P241  1  0.20760270  0.08459682  0.47777260  1
  P  P242  1  0.20797429  0.08188894  0.72849731  1
  P  P243  1  0.20888877  0.08253563  0.97633957  1
  P  P244  1  0.20791961  0.41800796  0.22754735  1
  P  P245  1  0.20779517  0.41822222  0.47731175  1
  P  P246  1  0.20705678  0.41660631  0.72884098  1
  P  P247  1  0.20765604  0.41597846  0.97763696  1
  P  P248  1  0.20670568  0.75027096  0.22843551  1
  P  P249  1  0.20793567  0.75265637  0.47802960  1
  P  P250  1  0.20832945  0.75218239  0.72839240  1
  P  P251  1  0.20884314  0.75020010  0.97631584  1
  P  P252  1  0.70661927  0.08364220  0.22817756  1
  P  P253  1  0.70702812  0.08333668  0.47894923  1
  P  P254  1  0.70843114  0.08214273  0.72853840  1
  P  P255  1  0.70909348  0.08392906  0.97649415  1
  P  P256  1  0.70782474  0.41500914  0.22735632  1
  P  P257  1  0.70796171  0.41498369  0.47796524  1
  P  P258  1  0.70865225  0.41598488  0.72699338  1
  P  P259  1  0.70844469  0.41658008  0.97640258  1
  P  P260  1  0.70830026  0.74815856  0.22810140  1
  P  P261  1  0.70841435  0.74961929  0.47654652  1
  P  P262  1  0.70651190  0.74937405  0.72826917  1
  P  P263  1  0.70728919  0.74928807  0.97858249  1
  P  P264  1  0.29235239  0.24970257  0.02058211  1
  P  P265  1  0.29272812  0.24830383  0.27224952  1
  P  P266  1  0.29282080  0.24998214  0.52149363  1
  P  P267  1  0.29121384  0.24999721  0.77391455  1
  P  P268  1  0.29217823  0.58237445  0.02234536  1
  P  P269  1  0.29159830  0.58184962  0.27215712  1
  P  P270  1  0.29244726  0.58376525  0.52134131  1
  P  P271  1  0.29271165  0.58532294  0.77284606  1
  P  P272  1  0.29193151  0.91794014  0.02171493  1
  P  P273  1  0.29240217  0.91548280  0.27255748  1
  P  P274  1  0.29163444  0.91715983  0.52381730  1
  P  P275  1  0.29173522  0.91704338  0.77330274  1
  P  P276  1  0.79209544  0.25182879  0.02144068  1
  P  P277  1  0.79238248  0.25182118  0.27224603  1
  P  P278  1  0.79252139  0.25152667  0.52268295  1
  P  P279  1  0.79152313  0.25045583  0.77316299  1
  P  P280  1  0.79223334  0.58395927  0.02221538  1
  P  P281  1  0.79233193  0.58432487  0.27252538  1
  P  P282  1  0.79151316  0.58181452  0.52197897  1
  P  P283  1  0.79188491  0.58081504  0.77168475  1
  P  P284  1  0.79255685  0.91744511  0.02133975  1
  P  P285  1  0.79212403  0.91492943  0.27279288  1
  P  P286  1  0.79195292  0.91731269  0.52268874  1
  P  P287  1  0.79205520  0.91802705  0.77245024  1
  O  O288  1  0.03750941  0.24910187  0.18260053  1
  O  O289  1  0.03775894  0.25139278  0.43372481  1
  O  O290  1  0.03767850  0.25070310  0.68244010  1
  O  O291  1  0.03712059  0.24889271  0.93401962  1
  O  O292  1  0.03735700  0.58474177  0.18228982  1
  O  O293  1  0.03636358  0.58274670  0.43343117  1
  O  O294  1  0.03681531  0.58497975  0.68139752  1
  O  O295  1  0.03743203  0.58594129  0.93183450  1
  O  O296  1  0.03728074  0.91848434  0.18184024  1
  O  O297  1  0.03653235  0.91680542  0.43245666  1
  O  O298  1  0.03579445  0.91521054  0.68333091  1
  O  O299  1  0.03636528  0.91739350  0.93136319  1
  O  O300  1  0.53739440  0.25038570  0.18089308  1
  O  O301  1  0.53719712  0.24929543  0.43336385  1
  O  O302  1  0.53619060  0.24865530  0.68323674  1
  O  O303  1  0.53662144  0.25000997  0.93201977  1
  O  O304  1  0.53616388  0.58407235  0.18329815  1
  O  O305  1  0.53650917  0.58205335  0.43113252  1
  O  O306  1  0.53763568  0.58122179  0.68195037  1
  O  O307  1  0.53746864  0.58341082  0.93389493  1
  O  O308  1  0.53641458  0.91556674  0.18199173  1
  O  O309  1  0.53724562  0.91590775  0.43228592  1
  O  O310  1  0.53766319  0.91664683  0.68379878  1
  O  O311  1  0.53705592  0.91674782  0.93493448  1
  O  O312  1  0.46345236  0.08293430  0.06561255  1
  O  O313  1  0.46250629  0.08367700  0.31779391  1
  O  O314  1  0.46244538  0.08483663  0.56828272  1
  O  O315  1  0.46393527  0.08412462  0.81861040  1
  O  O316  1  0.46335257  0.41678864  0.06679551  1
  O  O317  1  0.46311092  0.41835145  0.31683031  1
  O  O318  1  0.46292698  0.41549265  0.56740951  1
  O  O319  1  0.46306215  0.41396205  0.81702679  1
  O  O320  1  0.46356621  0.74970614  0.06803100  1
  O  O321  1  0.46301247  0.74974115  0.31563725  1
  O  O322  1  0.46183556  0.74938742  0.56716647  1
  O  O323  1  0.46298119  0.74957046  0.81953706  1
  O  O324  1  0.96391382  0.08285090  0.06684537  1
  O  O325  1  0.96180638  0.08268685  0.31660371  1
  O  O326  1  0.96192652  0.08231386  0.56792971  1
  O  O327  1  0.96376744  0.08254268  0.81823461  1
  O  O328  1  0.96308265  0.41859229  0.06791194  1
  O  O329  1  0.96392234  0.41789449  0.31842969  1
  O  O330  1  0.96351809  0.41695367  0.56575151  1
  O  O331  1  0.96219854  0.41725919  0.81676066  1
  O  O332  1  0.96199801  0.75010381  0.06630069  1
  O  O333  1  0.96314677  0.75049457  0.31871795  1
  O  O334  1  0.96345884  0.75010723  0.56769631  1
  O  O335  1  0.96350689  0.74938773  0.81627158  1
  O  O336  1  0.21345104  0.08219885  0.05630041  1
  O  O337  1  0.21310596  0.08251066  0.30723275  1
  O  O338  1  0.21277490  0.08392681  0.55771105  1
  O  O339  1  0.21340432  0.08196598  0.80835552  1
  O  O340  1  0.21303885  0.41657421  0.05757721  1
  O  O341  1  0.21340501  0.41819500  0.30751559  1
  O  O342  1  0.21257783  0.41812320  0.55731898  1
  O  O343  1  0.21217005  0.41607384  0.80881155  1
  O  O344  1  0.21302818  0.75011677  0.05635571  1
  O  O345  1  0.21191972  0.75074176  0.30833812  1
  O  O346  1  0.21357129  0.75305250  0.55794297  1
  O  O347  1  0.21363478  0.75138424  0.80826382  1
  O  O348  1  0.71335050  0.08456355  0.05652090  1
  O  O349  1  0.71143768  0.08367409  0.30815718  1
  O  O350  1  0.71263610  0.08297419  0.55888598  1
  O  O351  1  0.71434910  0.08240835  0.80840984  1
  O  O352  1  0.71363158  0.41622811  0.05636354  1
  O  O353  1  0.71293164  0.41492174  0.30729386  1
  O  O354  1  0.71331798  0.41553929  0.55783512  1
  O  O355  1  0.71399373  0.41629298  0.80689908  1
  O  O356  1  0.71281335  0.74888198  0.05848763  1
  O  O357  1  0.71386729  0.74855286  0.30799317  1
  O  O358  1  0.71294355  0.74940739  0.55659193  1
  O  O359  1  0.71170993  0.74940320  0.80820282  1
  O  O360  1  0.28750675  0.24849825  0.19226866  1
  O  O361  1  0.28769470  0.24961813  0.44153960  1
  O  O362  1  0.28664975  0.24976093  0.69388411  1
  O  O363  1  0.28687056  0.25006900  0.94072822  1
  O  O364  1  0.28631287  0.58145243  0.19222387  1
  O  O365  1  0.28685611  0.58301219  0.44141155  1
  O  O366  1  0.28768017  0.58548533  0.69287127  1
  O  O367  1  0.28721544  0.58358464  0.94237875  1
  O  O368  1  0.28731115  0.91590346  0.19266611  1
  O  O369  1  0.28663286  0.91691100  0.44385386  1
  O  O370  1  0.28698476  0.91677539  0.69339322  1
  O  O371  1  0.28690770  0.91791078  0.94181508  1
  O  O372  1  0.78711992  0.25198044  0.19225492  1
  O  O373  1  0.78728451  0.25146321  0.44275200  1
  O  O374  1  0.78680312  0.25020713  0.69318506  1
  O  O375  1  0.78682173  0.25140181  0.94152261  1
  O  O376  1  0.78738599  0.58454924  0.19256515  1
  O  O377  1  0.78632967  0.58257335  0.44201777  1
  O  O378  1  0.78639633  0.58063573  0.69176218  1
  O  O379  1  0.78685097  0.58279053  0.94230994  1
  O  O380  1  0.78712706  0.91503132  0.19281324  1
  O  O381  1  0.78661756  0.91618103  0.44274857  1
  O  O382  1  0.78668909  0.91814470  0.69251355  1
  O  O383  1  0.78725046  0.91807583  0.94140580  1
  O  O384  1  0.22824375  0.24966539  0.05654644  1
  O  O385  1  0.22844654  0.24844007  0.30790461  1
  O  O386  1  0.22847787  0.24995695  0.55686174  1
  O  O387  1  0.22698612  0.25024311  0.80945394  1
  O  O388  1  0.22776732  0.58151012  0.05779180  1
  O  O389  1  0.22741602  0.58234719  0.30803406  1
  O  O390  1  0.22826032  0.58474006  0.55705427  1
  O  O391  1  0.22829581  0.58522195  0.80809003  1
  O  O392  1  0.22767605  0.91821290  0.05758104  1
  O  O393  1  0.22808765  0.91549848  0.30824949  1
  O  O394  1  0.22744962  0.91750309  0.55989135  1
  O  O395  1  0.22751105  0.91753194  0.80914584  1
  O  O396  1  0.72784553  0.25213404  0.05741793  1
  O  O397  1  0.72808235  0.25202151  0.30798697  1
  O  O398  1  0.72830596  0.25155433  0.55854462  1
  O  O399  1  0.72736461  0.25085146  0.80898790  1
  O  O400  1  0.72806955  0.58441052  0.05829910  1
  O  O401  1  0.72799439  0.58430150  0.30803573  1
  O  O402  1  0.72727190  0.58133933  0.55768455  1
  O  O403  1  0.72770336  0.58057156  0.80767259  1
  O  O404  1  0.72828915  0.91661118  0.05678536  1
  O  O405  1  0.72775682  0.91422781  0.30820083  1
  O  O406  1  0.72767854  0.91833118  0.55848952  1
  O  O407  1  0.72787764  0.91839505  0.80831483  1
  O  O408  1  0.27219082  0.08131065  0.19148890  1
  O  O409  1  0.27190155  0.08478040  0.44203635  1
  O  O410  1  0.27212618  0.08152901  0.69238597  1
  O  O411  1  0.27314895  0.08228770  0.94072626  1
  O  O412  1  0.27215363  0.41809335  0.19164747  1
  O  O413  1  0.27216422  0.41791557  0.44199464  1
  O  O414  1  0.27151050  0.41701357  0.69376609  1
  O  O415  1  0.27187855  0.41568896  0.94181998  1
  O  O416  1  0.27101512  0.74989821  0.19306659  1
  O  O417  1  0.27200321  0.75205761  0.44177130  1
  O  O418  1  0.27254869  0.75273784  0.69243950  1
  O  O419  1  0.27322742  0.75015535  0.94115511  1
  O  O420  1  0.77117830  0.08397258  0.19342701  1
  O  O421  1  0.77118971  0.08318770  0.44318862  1
  O  O422  1  0.77237899  0.08175640  0.69189146  1
  O  O423  1  0.77342011  0.08367754  0.94123214  1
  O  O424  1  0.77213684  0.41493432  0.19170680  1
  O  O425  1  0.77213108  0.41477903  0.44180445  1
  O  O426  1  0.77263818  0.41609268  0.69038000  1
  O  O427  1  0.77258072  0.41678126  0.94023422  1
  O  O428  1  0.77241246  0.74761143  0.19180694  1
  O  O429  1  0.77276447  0.74985784  0.44109580  1
  O  O430  1  0.77090701  0.74930912  0.69319169  1
  O  O431  1  0.77144865  0.74948763  0.94284327  1
  O  O432  1  0.02213431  0.08186609  0.18323755  1
  O  O433  1  0.02079649  0.08305759  0.43194006  1
  O  O434  1  0.02193770  0.08173783  0.68279511  1
  O  O435  1  0.02318749  0.08281188  0.93407694  1
  O  O436  1  0.02241909  0.41914554  0.18331685  1
  O  O437  1  0.02303781  0.41788301  0.43447721  1
  O  O438  1  0.02203818  0.41732326  0.68160230  1
  O  O439  1  0.02144228  0.41735577  0.93188202  1
  O  O440  1  0.02116577  0.75071421  0.18156934  1
  O  O441  1  0.02275255  0.75100123  0.43435988  1
  O  O442  1  0.02243754  0.75014992  0.68392550  1
  O  O443  1  0.02215557  0.74899423  0.93247947  1
  O  O444  1  0.52180101  0.08287521  0.18145315  1
  O  O445  1  0.52166243  0.08479725  0.43343334  1
  O  O446  1  0.52176829  0.08513905  0.68377307  1
  O  O447  1  0.52350520  0.08276846  0.93436876  1
  O  O448  1  0.52237012  0.41813544  0.18246669  1
  O  O449  1  0.52205613  0.41757310  0.43267023  1
  O  O450  1  0.52203098  0.41398168  0.68297893  1
  O  O451  1  0.52237984  0.41485941  0.93252326  1
  O  O452  1  0.52243633  0.75017240  0.18438850  1
  O  O453  1  0.52175990  0.74925219  0.43145508  1
  O  O454  1  0.52128352  0.74944110  0.68212201  1
  O  O455  1  0.52260618  0.74883312  0.93515450  1
  O  O456  1  0.47763530  0.25045572  0.06545391  1
  O  O457  1  0.47846725  0.25026141  0.31783649  1
  O  O458  1  0.47772938  0.24803079  0.56697980  1
  O  O459  1  0.47714455  0.24952303  0.81604193  1
  O  O460  1  0.47794359  0.58424910  0.06698283  1
  O  O461  1  0.47727015  0.58281107  0.31510887  1
  O  O462  1  0.47806002  0.58089566  0.56670448  1
  O  O463  1  0.47836019  0.58222281  0.81858161  1
  O  O464  1  0.47728768  0.91702612  0.06604037  1
  O  O465  1  0.47791596  0.91489794  0.31681049  1
  O  O466  1  0.47830710  0.91655696  0.56878639  1
  O  O467  1  0.47803523  0.91695470  0.81935862  1
  O  O468  1  0.97802796  0.24864900  0.06730199  1
  O  O469  1  0.97883178  0.25071583  0.31829363  1
  O  O470  1  0.97802055  0.25118198  0.56726286  1
  O  O471  1  0.97823150  0.24951730  0.81848054  1
  O  O472  1  0.97818798  0.58630831  0.06660302  1
  O  O473  1  0.97778494  0.58246388  0.31722237  1
  O  O474  1  0.97737011  0.58350003  0.56569460  1
  O  O475  1  0.97811258  0.58578800  0.81635081  1
  O  O476  1  0.97831376  0.91812476  0.06622518  1
  O  O477  1  0.97759526  0.91891919  0.31668173  1
  O  O478  1  0.97737383  0.91442583  0.56720431  1
  O  O479  1  0.97687495  0.91633457  0.81556328  1
  O  O480  1  0.07326252  0.31274574  0.07499984  1
  O  O481  1  0.07442338  0.31397530  0.32515911  1
  O  O482  1  0.07308883  0.31461974  0.57394980  1
  O  O483  1  0.07342558  0.31318426  0.82631801  1
  O  O484  1  0.07341027  0.64908769  0.07405628  1
  O  O485  1  0.07296186  0.64651254  0.32584737  1
  O  O486  1  0.07188366  0.64815312  0.57271603  1
  O  O487  1  0.07360252  0.64863754  0.82277022  1
  O  O488  1  0.07351709  0.98150339  0.07290852  1
  O  O489  1  0.07305369  0.98129073  0.32456243  1
  O  O490  1  0.07233748  0.97879496  0.57545143  1
  O  O491  1  0.07170874  0.98027860  0.82255709  1
  O  O492  1  0.57270722  0.31411901  0.07274475  1
  O  O493  1  0.57389730  0.31329017  0.32560235  1
  O  O494  1  0.57294632  0.31181050  0.57518786  1
  O  O495  1  0.57217696  0.31298920  0.82301056  1
  O  O496  1  0.57281729  0.64786911  0.07511656  1
  O  O497  1  0.57200451  0.64660798  0.32333533  1
  O  O498  1  0.57339303  0.64465570  0.57383309  1
  O  O499  1  0.57360670  0.64620254  0.82524807  1
  O  O500  1  0.57296324  0.97948390  0.07419851  1
  O  O501  1  0.57303292  0.97917556  0.32437164  1
  O  O502  1  0.57348305  0.98037327  0.57576489  1
  O  O503  1  0.57372871  0.97983400  0.82649006  1
  O  O504  1  0.42616791  0.02002202  0.17405323  1
  O  O505  1  0.42661763  0.02050137  0.42579895  1
  O  O506  1  0.42684234  0.02079552  0.67616352  1
  O  O507  1  0.42799444  0.02002347  0.92638714  1
  O  O508  1  0.42713077  0.35401283  0.17505722  1
  O  O509  1  0.42647702  0.35447102  0.42431223  1
  O  O510  1  0.42669084  0.35118689  0.67548786  1
  O  O511  1  0.42739311  0.35106516  0.92602742  1
  O  O512  1  0.42757701  0.68640912  0.17650621  1
  O  O513  1  0.42621164  0.68616439  0.42361465  1
  O  O514  1  0.42602996  0.68564397  0.67516667  1
  O  O515  1  0.42726777  0.68586590  0.92768485  1
  O  O516  1  0.92696686  0.01890460  0.17505318  1
  O  O517  1  0.92504737  0.01999629  0.42503942  1
  O  O518  1  0.92681424  0.01838708  0.67644421  1
  O  O519  1  0.92787695  0.01937725  0.92651587  1
  O  O520  1  0.92730152  0.35493818  0.17559941  1
  O  O521  1  0.92875982  0.35331058  0.42640394  1
  O  O522  1  0.92669154  0.35386178  0.67422375  1
  O  O523  1  0.92601252  0.35402731  0.92503918  1
  O  O524  1  0.92578041  0.68721454  0.17510629  1
  O  O525  1  0.92832975  0.68653543  0.42705144  1
  O  O526  1  0.92761657  0.68601876  0.67575556  1
  O  O527  1  0.92705552  0.68576809  0.92484530  1
  O  O528  1  0.17730805  0.01814982  0.19888466  1
  O  O529  1  0.17639773  0.02108269  0.44971841  1
  O  O530  1  0.17696639  0.01864323  0.69946134  1
  O  O531  1  0.17745024  0.01950230  0.94765623  1
  O  O532  1  0.17709398  0.35393156  0.20022028  1
  O  O533  1  0.17660733  0.35470146  0.44942318  1
  O  O534  1  0.17600849  0.35341394  0.69997006  1
  O  O535  1  0.17690424  0.35225316  0.94955660  1
  O  O536  1  0.17556604  0.68665666  0.20052140  1
  O  O537  1  0.17655586  0.68894731  0.45077343  1
  O  O538  1  0.17737030  0.68876719  0.69955853  1
  O  O539  1  0.17816239  0.68653950  0.94794044  1
  O  O540  1  0.67602399  0.01989120  0.19998083  1
  O  O541  1  0.67542875  0.02023562  0.45064503  1
  O  O542  1  0.67702845  0.01898467  0.70005124  1
  O  O543  1  0.67812749  0.02026274  0.94868571  1
  O  O544  1  0.67660114  0.35208750  0.19825134  1
  O  O545  1  0.67696513  0.35156888  0.44951544  1
  O  O546  1  0.67792549  0.35209207  0.69898659  1
  O  O547  1  0.67751256  0.35317301  0.94772380  1
  O  O548  1  0.67717099  0.68480931  0.19957659  1
  O  O549  1  0.67797237  0.68571878  0.44826283  1
  O  O550  1  0.67540564  0.68591813  0.70014940  1
  O  O551  1  0.67594960  0.68610645  0.95018786  1
  O  O552  1  0.32371967  0.31283209  0.04941278  1
  O  O553  1  0.32387567  0.31205239  0.29972406  1
  O  O554  1  0.32357854  0.31379028  0.54948164  1
  O  O555  1  0.32226187  0.31349359  0.80197641  1
  O  O556  1  0.32289841  0.64580574  0.05130186  1
  O  O557  1  0.32279130  0.64565537  0.29950741  1
  O  O558  1  0.32399369  0.64738140  0.54857210  1
  O  O559  1  0.32332951  0.64879900  0.80162873  1
  O  O560  1  0.32277119  0.98123531  0.05078675  1
  O  O561  1  0.32377404  0.97880946  0.30079093  1
  O  O562  1  0.32224721  0.98106668  0.55193641  1
  O  O563  1  0.32320462  0.98030446  0.80167717  1
  O  O564  1  0.82315250  0.31521951  0.04998492  1
  O  O565  1  0.82351917  0.31498360  0.30106899  1
  O  O566  1  0.82353468  0.31475263  0.55141208  1
  O  O567  1  0.82297161  0.31374084  0.80120733  1
  O  O568  1  0.82305755  0.64766381  0.05003690  1
  O  O569  1  0.82340505  0.64732087  0.30184025  1
  O  O570  1  0.82263907  0.64531907  0.55014660  1
  O  O571  1  0.82265051  0.64484705  0.79916467  1
  O  O572  1  0.82334141  0.98081033  0.05018694  1
  O  O573  1  0.82263837  0.97891662  0.30043877  1
  O  O574  1  0.82306856  0.98086929  0.55060344  1
  O  O575  1  0.82339751  0.98107781  0.80121666  1
  O  O576  1  0.42659429  0.14678082  0.17352352  1
  O  O577  1  0.42647103  0.14778371  0.42601461  1
  O  O578  1  0.42610963  0.14775442  0.67728889  1
  O  O579  1  0.42906235  0.14741531  0.92721586  1
  O  O580  1  0.42716394  0.48113813  0.17483106  1
  O  O581  1  0.42728101  0.48152125  0.42578874  1
  O  O582  1  0.42674517  0.47821919  0.67581985  1
  O  O583  1  0.42683122  0.47811061  0.92453800  1
  O  O584  1  0.42736056  0.81372061  0.17598982  1
  O  O585  1  0.42644955  0.81294520  0.42416373  1
  O  O586  1  0.42579792  0.81276587  0.67566389  1
  O  O587  1  0.42816392  0.81339254  0.92794298  1
  O  O588  1  0.92688096  0.14594123  0.17483566  1
  O  O589  1  0.92562710  0.14686758  0.42450718  1
  O  O590  1  0.92654856  0.14566313  0.67607847  1
  O  O591  1  0.92848406  0.14678208  0.92650144  1
  O  O592  1  0.92720641  0.48225968  0.17641963  1
  O  O593  1  0.92735326  0.48073176  0.42672033  1
  O  O594  1  0.92663937  0.48067894  0.67362281  1
  O  O595  1  0.92615927  0.48105496  0.92456687  1
  O  O596  1  0.92579093  0.81403976  0.17424947  1
  O  O597  1  0.92738506  0.81398984  0.42687250  1
  O  O598  1  0.92705299  0.81311614  0.67640621  1
  O  O599  1  0.92686206  0.81274817  0.92413424  1
  O  O600  1  0.07322386  0.18534357  0.07414410  1
  O  O601  1  0.07405148  0.18708797  0.32602240  1
  O  O602  1  0.07342574  0.18724088  0.57460997  1
  O  O603  1  0.07384516  0.18629636  0.82548115  1
  O  O604  1  0.07335762  0.52196268  0.07393425  1
  O  O605  1  0.07279811  0.51947123  0.32452036  1
  O  O606  1  0.07291879  0.52077923  0.57362888  1
  O  O607  1  0.07314565  0.52157658  0.82427125  1
  O  O608  1  0.07365024  0.85458062  0.07405388  1
  O  O609  1  0.07247472  0.85416942  0.32395418  1
  O  O610  1  0.07278548  0.85187083  0.57471582  1
  O  O611  1  0.07199381  0.85290747  0.82370774  1
  O  O612  1  0.57249458  0.18664844  0.07239609  1
  O  O613  1  0.57379156  0.18642609  0.32482827  1
  O  O614  1  0.57286580  0.18484595  0.57494392  1
  O  O615  1  0.57217809  0.18579867  0.82394136  1
  O  O616  1  0.57344636  0.52088821  0.07542737  1
  O  O617  1  0.57250106  0.51922021  0.32256891  1
  O  O618  1  0.57313787  0.51739773  0.57344608  1
  O  O619  1  0.57391543  0.51927957  0.82611941  1
  O  O620  1  0.57156572  0.85205672  0.07355288  1
  O  O621  1  0.57316701  0.85193602  0.32388146  1
  O  O622  1  0.57399141  0.85332074  0.57557757  1
  O  O623  1  0.57323386  0.85303727  0.82669646  1
  O  O624  1  0.32355498  0.18613640  0.04851779  1
  O  O625  1  0.32323844  0.18464996  0.30068568  1
  O  O626  1  0.32409849  0.18688818  0.55027648  1
  O  O627  1  0.32148142  0.18585739  0.80209749  1
  O  O628  1  0.32306933  0.51858163  0.05002123  1
  O  O629  1  0.32245587  0.51854392  0.30107287  1
  O  O630  1  0.32336074  0.52048247  0.55023164  1
  O  O631  1  0.32383128  0.52158415  0.80033160  1
  O  O632  1  0.32286703  0.85420765  0.04973953  1
  O  O633  1  0.32281433  0.85178196  0.30125807  1
  O  O634  1  0.32260254  0.85369091  0.55219772  1
  O  O635  1  0.32204776  0.85328655  0.80252257  1
  O  O636  1  0.82308074  0.18825321  0.04987228  1
  O  O637  1  0.82307972  0.18782007  0.29992129  1
  O  O638  1  0.82350146  0.18774908  0.55053758  1
  O  O639  1  0.82176507  0.18639887  0.80169283  1
  O  O640  1  0.82331173  0.52055445  0.05079711  1
  O  O641  1  0.82308758  0.52030099  0.30005689  1
  O  O642  1  0.82230897  0.51815511  0.55010433  1
  O  O643  1  0.82313300  0.51773150  0.80049600  1
  O  O644  1  0.82408410  0.85389938  0.04878003  1
  O  O645  1  0.82325783  0.85162432  0.30133715  1
  O  O646  1  0.82266015  0.85367918  0.55124344  1
  O  O647  1  0.82271785  0.85390739  0.79988795  1
  O  O648  1  0.17678817  0.14528828  0.19902348  1
  O  O649  1  0.17703061  0.14820746  0.44919422  1
  O  O650  1  0.17687375  0.14556186  0.70059716  1
  O  O651  1  0.17877528  0.14675041  0.94811110  1
  O  O652  1  0.17675597  0.48108402  0.19866867  1
  O  O653  1  0.17733154  0.48193619  0.44884713  1
  O  O654  1  0.17611335  0.48046092  0.70115070  1
  O  O655  1  0.17633934  0.47937987  0.94950673  1
  O  O656  1  0.17555620  0.81345969  0.19964146  1
  O  O657  1  0.17723778  0.81609373  0.44927499  1
  O  O658  1  0.17729389  0.81566130  0.70001883  1
  O  O659  1  0.17833625  0.81412280  0.94810787  1
  O  O660  1  0.67552154  0.14697370  0.19968066  1
  O  O661  1  0.67627841  0.14722098  0.45126081  1
  O  O662  1  0.67739226  0.14598711  0.70085893  1
  O  O663  1  0.67872888  0.14775211  0.94767366  1
  O  O664  1  0.67719595  0.47911273  0.19972002  1
  O  O665  1  0.67688258  0.47844992  0.44932211  1
  O  O666  1  0.67747604  0.47931000  0.69827380  1
  O  O667  1  0.67765797  0.48046790  0.94865847  1
  O  O668  1  0.67730892  0.81179467  0.19984723  1
  O  O669  1  0.67755368  0.81331264  0.44851800  1
  O  O670  1  0.67551362  0.81294987  0.70030683  1
  O  O671  1  0.67620173  0.81302801  0.95096913  1
