# generated using pymatgen
data_Na2MnFe(PO4)2
_symmetry_space_group_name_H-M   'P 1'
_cell_length_a   22.34174795
_cell_length_b   20.09551650
_cell_length_c   19.45196750
_cell_angle_alpha   90.01164048
_cell_angle_beta   89.96108584
_cell_angle_gamma   89.95936708
_symmetry_Int_Tables_number   1
_chemical_formula_structural   Na2MnFe(PO4)2
_chemical_formula_sum   'Na96 Mn48 Fe48 P96 O384'
_cell_volume   8733.32531315
_cell_formula_units_Z   48
loop_
 _symmetry_equiv_pos_site_id
 _symmetry_equiv_pos_as_xyz
  1  'x, y, z'
loop_
 _atom_site_type_symbol
 _atom_site_label
 _atom_site_symmetry_multiplicity
 _atom_site_fract_x
 _atom_site_fract_y
 _atom_site_fract_z
 _atom_site_occupancy
  Na  Na0  1  0.14061518  0.24985708  0.24338562  1
  Na  Na1  1  0.14017163  0.24989611  0.49548905  1
  Na  Na2  1  0.13968988  0.24985401  0.74391969  1
  Na  Na3  1  0.14008663  0.25043628  0.99305055  1
  Na  Na4  1  0.13954196  0.58406511  0.24312607  1
  Na  Na5  1  0.13993679  0.58363347  0.49386922  1
  Na  Na6  1  0.13982931  0.58342752  0.74546491  1
  Na  Na7  1  0.13997586  0.58434204  0.99436205  1
  Na  Na8  1  0.13971428  0.91625503  0.24416336  1
  Na  Na9  1  0.13954155  0.91676923  0.49409413  1
  Na  Na10  1  0.13994620  0.91640158  0.74422894  1
  Na  Na11  1  0.14007610  0.91668225  0.99479839  1
  Na  Na12  1  0.64130352  0.25127766  0.24263859  1
  Na  Na13  1  0.64111952  0.24938941  0.49330845  1
  Na  Na14  1  0.64024251  0.24915945  0.74249288  1
  Na  Na15  1  0.64145154  0.25017340  0.99247180  1
  Na  Na16  1  0.64101797  0.58384927  0.24336040  1
  Na  Na17  1  0.64110886  0.58343305  0.49237836  1
  Na  Na18  1  0.64054608  0.58323286  0.74366369  1
  Na  Na19  1  0.64064470  0.58244170  0.99307824  1
  Na  Na20  1  0.64061881  0.91654982  0.24342668  1
  Na  Na21  1  0.64052220  0.91570878  0.49246972  1
  Na  Na22  1  0.64175573  0.91681169  0.74261208  1
  Na  Na23  1  0.64113121  0.91638655  0.99456975  1
  Na  Na24  1  0.35995341  0.08338959  0.00508341  1
  Na  Na25  1  0.35975544  0.08281341  0.25503244  1
  Na  Na26  1  0.35998694  0.08351724  0.50561971  1
  Na  Na27  1  0.35973988  0.08291848  0.75585330  1
  Na  Na28  1  0.35955503  0.41751827  0.00499548  1
  Na  Na29  1  0.35979355  0.41822780  0.25567329  1
  Na  Na30  1  0.36017190  0.41754430  0.50550074  1
  Na  Na31  1  0.36012531  0.41671472  0.75666936  1
  Na  Na32  1  0.35969971  0.74985908  0.00673233  1
  Na  Na33  1  0.36025403  0.74990953  0.25583431  1
  Na  Na34  1  0.35985978  0.75068564  0.50491793  1
  Na  Na35  1  0.35968522  0.74911475  0.75589034  1
  Na  Na36  1  0.85938417  0.08359423  0.00686879  1
  Na  Na37  1  0.85934980  0.08185812  0.25727263  1
  Na  Na38  1  0.85910300  0.08138592  0.50766734  1
  Na  Na39  1  0.85963564  0.08398801  0.75750083  1
  Na  Na40  1  0.85907466  0.41655363  0.00601597  1
  Na  Na41  1  0.85932244  0.41790092  0.25660259  1
  Na  Na42  1  0.85941805  0.41644577  0.50582029  1
  Na  Na43  1  0.85866835  0.41640141  0.75812872  1
  Na  Na44  1  0.85936168  0.74951429  0.00779854  1
  Na  Na45  1  0.85935600  0.75019162  0.25817463  1
  Na  Na46  1  0.85906814  0.75089648  0.50715060  1
  Na  Na47  1  0.85910092  0.74981125  0.75731747  1
  Na  Na48  1  0.10901876  0.08166013  0.11918672  1
  Na  Na49  1  0.10921802  0.08253913  0.36990745  1
  Na  Na50  1  0.10925556  0.08228961  0.61962441  1
  Na  Na51  1  0.10874217  0.08430916  0.86855900  1
  Na  Na52  1  0.10963652  0.41790626  0.11781819  1
  Na  Na53  1  0.10919898  0.41784709  0.36812069  1
  Na  Na54  1  0.10912216  0.41640500  0.62088369  1
  Na  Na55  1  0.10965612  0.41697465  0.86814948  1
  Na  Na56  1  0.10904731  0.74939674  0.11905893  1
  Na  Na57  1  0.10894628  0.75038265  0.36853486  1
  Na  Na58  1  0.10895261  0.75039344  0.61955955  1
  Na  Na59  1  0.10918990  0.75157751  0.87008209  1
  Na  Na60  1  0.61055508  0.08234566  0.11842652  1
  Na  Na61  1  0.60998300  0.08282524  0.36777367  1
  Na  Na62  1  0.61077123  0.08307409  0.61787882  1
  Na  Na63  1  0.61090220  0.08361952  0.86700916  1
  Na  Na64  1  0.61091768  0.41693534  0.11799488  1
  Na  Na65  1  0.61073059  0.41848560  0.36732249  1
  Na  Na66  1  0.61004503  0.41652767  0.61897655  1
  Na  Na67  1  0.61023062  0.41576774  0.86714467  1
  Na  Na68  1  0.61042386  0.75014311  0.11940746  1
  Na  Na69  1  0.61036454  0.75133452  0.36764620  1
  Na  Na70  1  0.61057228  0.74892195  0.61748321  1
  Na  Na71  1  0.61028577  0.74769187  0.86858424  1
  Na  Na72  1  0.39093247  0.24954596  0.13021589  1
  Na  Na73  1  0.39125379  0.25156546  0.37982344  1
  Na  Na74  1  0.39117012  0.25077310  0.63158494  1
  Na  Na75  1  0.39062910  0.25011088  0.87973533  1
  Na  Na76  1  0.38995589  0.58403120  0.13167703  1
  Na  Na77  1  0.39053992  0.58528974  0.37983700  1
  Na  Na78  1  0.39071647  0.58212292  0.63043150  1
  Na  Na79  1  0.39026653  0.58212826  0.88176175  1
  Na  Na80  1  0.39102637  0.91627173  0.13145205  1
  Na  Na81  1  0.39062531  0.91695484  0.38005616  1
  Na  Na82  1  0.39051610  0.91680323  0.63089608  1
  Na  Na83  1  0.39067720  0.91561309  0.88049346  1
  Na  Na84  1  0.89031227  0.24951318  0.13161026  1
  Na  Na85  1  0.89023203  0.24956980  0.38147126  1
  Na  Na86  1  0.89003494  0.24876463  0.63282592  1
  Na  Na87  1  0.88940847  0.25007356  0.88172301  1
  Na  Na88  1  0.88988050  0.58321195  0.13208121  1
  Na  Na89  1  0.88950539  0.58430789  0.38189498  1
  Na  Na90  1  0.88964723  0.58325338  0.63211595  1
  Na  Na91  1  0.88931892  0.58477097  0.88249153  1
  Na  Na92  1  0.88954942  0.91522241  0.13292071  1
  Na  Na93  1  0.88954690  0.91695192  0.38275019  1
  Na  Na94  1  0.88941244  0.91656693  0.63255083  1
  Na  Na95  1  0.88979502  0.91789093  0.88248604  1
  Mn  Mn96  1  0.49989972  0.50016902  -0.00014641  1
  Mn  Mn97  1  0.25044449  0.83241652  0.37421414  1
  Mn  Mn98  1  0.24905786  0.16696911  0.87502037  1
  Mn  Mn99  1  0.50043060  0.83200567  0.74990150  1
  Mn  Mn100  1  0.25087220  0.16611352  0.62482250  1
  Mn  Mn101  1  0.50066026  0.16744157  0.49884683  1
  Mn  Mn102  1  0.50059849  0.50081473  0.24905984  1
  Mn  Mn103  1  -0.00025257  0.33312910  0.50044348  1
  Mn  Mn104  1  0.00013370  0.16542406  0.50133136  1
  Mn  Mn105  1  0.75023470  0.16610954  0.37468699  1
  Mn  Mn106  1  0.24951105  -0.00085644  0.87518113  1
  Mn  Mn107  1  -0.00074259  0.50075180  0.75071823  1
  Mn  Mn108  1  0.24990266  0.66686173  0.87540692  1
  Mn  Mn109  1  0.25010426  0.16659222  0.37459224  1
  Mn  Mn110  1  0.74997377  0.33257370  0.62524181  1
  Mn  Mn111  1  0.75011598  0.16670698  0.12512869  1
  Mn  Mn112  1  0.25045910  0.33470081  0.12415516  1
  Mn  Mn113  1  0.50054595  -0.00072942  -0.00094019  1
  Mn  Mn114  1  0.24986440  0.33404619  0.37429554  1
  Mn  Mn115  1  -0.00040722  0.50024998  0.50089520  1
  Mn  Mn116  1  0.50102745  0.16616640  -0.00027631  1
  Mn  Mn117  1  0.50115655  0.33501633  0.50048014  1
  Mn  Mn118  1  0.75006138  0.83336115  0.87527905  1
  Mn  Mn119  1  -0.00070713  0.50124672  -0.00067503  1
  Mn  Mn120  1  0.50029917  0.66692262  0.49945931  1
  Mn  Mn121  1  0.50079439  0.33292854  -0.00116402  1
  Mn  Mn122  1  0.25012558  0.83356447  0.12535802  1
  Mn  Mn123  1  0.50102326  0.16714342  0.24945110  1
  Mn  Mn124  1  0.75023690  0.66612931  0.12552362  1
  Mn  Mn125  1  0.74973086  0.50072142  0.62502723  1
  Mn  Mn126  1  0.24964678  0.50016285  0.62497342  1
  Mn  Mn127  1  -0.00053559  0.83318339  0.25067046  1
  Mn  Mn128  1  0.00002382  0.16501453  0.25137267  1
  Mn  Mn129  1  0.25025182  0.16643189  0.12384764  1
  Mn  Mn130  1  0.00057018  0.33342656  0.25019819  1
  Mn  Mn131  1  0.49964949  0.66485148  0.74841916  1
  Mn  Mn132  1  0.24895966  0.83360062  0.62491637  1
  Mn  Mn133  1  0.24985404  0.33364322  0.62515890  1
  Mn  Mn134  1  -0.00068841  0.83368201  0.75081867  1
  Mn  Mn135  1  0.24970020  -0.00029581  0.37491913  1
  Mn  Mn136  1  0.24953680  0.50144937  0.37499855  1
  Mn  Mn137  1  0.50111753  0.83173085  0.00033559  1
  Mn  Mn138  1  0.49984692  -0.00043535  0.49914153  1
  Mn  Mn139  1  0.50130858  -0.00009399  0.74934668  1
  Mn  Mn140  1  -0.00043186  0.33284705  0.00010563  1
  Mn  Mn141  1  0.00028213  0.66732043  0.50033906  1
  Mn  Mn142  1  0.25005983  0.66665976  0.62570678  1
  Mn  Mn143  1  -0.00079234  0.00003865  0.00045123  1
  Fe  Fe144  1  0.50020630  -0.00013615  0.24954860  1
  Fe  Fe145  1  -0.00057494  0.83347920  0.00070701  1
  Fe  Fe146  1  -0.00073534  -0.00091479  0.25046019  1
  Fe  Fe147  1  -0.00097688  0.33304977  0.75044393  1
  Fe  Fe148  1  -0.00065230  0.66741095  0.00107003  1
  Fe  Fe149  1  0.75042503  0.49999309  0.37495547  1
  Fe  Fe150  1  0.50098478  0.33430664  0.24970883  1
  Fe  Fe151  1  -0.00058884  0.66759046  0.75083853  1
  Fe  Fe152  1  0.74951934  0.83298458  0.62489893  1
  Fe  Fe153  1  0.74970880  0.33292794  0.87512380  1
  Fe  Fe154  1  0.50036514  0.83333964  0.24928572  1
  Fe  Fe155  1  0.75032150  0.33343585  0.37413611  1
  Fe  Fe156  1  0.25000221  0.33400866  0.87488103  1
  Fe  Fe157  1  0.50028706  0.50023463  0.49941413  1
  Fe  Fe158  1  0.74978451  0.66648221  0.87545264  1
  Fe  Fe159  1  0.50053567  0.49960022  0.74998301  1
  Fe  Fe160  1  -0.00068443  0.50076616  0.24965986  1
  Fe  Fe161  1  0.50024748  0.33332582  0.74913575  1
  Fe  Fe162  1  0.74999963  -0.00019228  0.62525491  1
  Fe  Fe163  1  0.50024701  0.83336289  0.49883692  1
  Fe  Fe164  1  0.75024492  0.00023517  0.87464354  1
  Fe  Fe165  1  0.25037167  0.83345292  0.87549050  1
  Fe  Fe166  1  -0.00030892  0.16661007  0.00000643  1
  Fe  Fe167  1  0.50069345  0.66746142  0.25022680  1
  Fe  Fe168  1  0.50013696  0.16657810  0.74893319  1
  Fe  Fe169  1  0.24951105  0.66675122  0.37459996  1
  Fe  Fe170  1  0.75056491  0.33387944  0.12421194  1
  Fe  Fe171  1  -0.00086970  0.83378483  0.50058507  1
  Fe  Fe172  1  0.75017048  0.83361278  0.37610451  1
  Fe  Fe173  1  0.75033563  0.83366207  0.12643114  1
  Fe  Fe174  1  0.74982908  0.66711451  0.37485216  1
  Fe  Fe175  1  0.75019814  0.49949383  0.12436455  1
  Fe  Fe176  1  0.24955745  0.50072547  0.12480361  1
  Fe  Fe177  1  0.74959667  -0.00060246  0.37575425  1
  Fe  Fe178  1  0.75058713  0.66697089  0.62475531  1
  Fe  Fe179  1  0.24961172  0.66706680  0.12455390  1
  Fe  Fe180  1  -0.00084069  -0.00044070  0.50109683  1
  Fe  Fe181  1  -0.00115876  0.66694211  0.25028322  1
  Fe  Fe182  1  0.25003082  -0.00045639  0.62514118  1
  Fe  Fe183  1  0.75035995  0.16614731  0.62497200  1
  Fe  Fe184  1  0.74985644  0.49988995  0.87506186  1
  Fe  Fe185  1  0.25010883  -0.00022596  0.12449978  1
  Fe  Fe186  1  0.74981773  0.16632921  0.87517166  1
  Fe  Fe187  1  0.75027413  -0.00024335  0.12539576  1
  Fe  Fe188  1  0.25005218  0.50054295  0.87551169  1
  Fe  Fe189  1  -0.00056622  0.16649849  0.75042118  1
  Fe  Fe190  1  -0.00023136  -0.00003995  0.75082343  1
  Fe  Fe191  1  0.50021378  0.66633610  0.00011909  1
  P  P192  1  0.04210543  0.24824267  0.10253969  1
  P  P193  1  0.04310703  0.24944082  0.35366280  1
  P  P194  1  0.04198069  0.24965694  0.60486098  1
  P  P195  1  0.04070388  0.24965839  0.85206150  1
  P  P196  1  0.04110805  0.58467943  0.10333242  1
  P  P197  1  0.04066188  0.58396827  0.35149027  1
  P  P198  1  0.04242018  0.58393788  0.60424393  1
  P  P199  1  0.04127737  0.58601679  0.85348250  1
  P  P200  1  0.04145253  0.91524331  0.10313292  1
  P  P201  1  0.04141902  0.91784043  0.35367271  1
  P  P202  1  0.04072288  0.91662695  0.60259179  1
  P  P203  1  0.04163561  0.91804081  0.85330430  1
  P  P204  1  0.54396108  0.25027298  0.10289044  1
  P  P205  1  0.54345172  0.25224113  0.35185994  1
  P  P206  1  0.54326092  0.25016747  0.60347763  1
  P  P207  1  0.54181729  0.24950920  0.85046456  1
  P  P208  1  0.54251726  0.58496757  0.10266278  1
  P  P209  1  0.54272598  0.58496944  0.35219191  1
  P  P210  1  0.54281506  0.58148336  0.60188671  1
  P  P211  1  0.54235329  0.58195675  0.85230573  1
  P  P212  1  0.54284037  0.91619588  0.10374822  1
  P  P213  1  0.54157355  0.91624752  0.35109754  1
  P  P214  1  0.54275862  0.91506575  0.60149984  1
  P  P215  1  0.54393909  0.91563430  0.85259374  1
  P  P216  1  0.45851831  0.08226553  0.14720590  1
  P  P217  1  0.45782153  0.08344772  0.39554748  1
  P  P218  1  0.45819408  0.08413757  0.64688946  1
  P  P219  1  0.45807688  0.08352211  0.89560810  1
  P  P220  1  0.45814799  0.41576178  0.14714823  1
  P  P221  1  0.45852017  0.41851008  0.39672335  1
  P  P222  1  0.45891270  0.41748005  0.64791638  1
  P  P223  1  0.45796483  0.41642307  0.89554654  1
  P  P224  1  0.45893796  0.74948610  0.14799221  1
  P  P225  1  0.45844399  0.75162019  0.39610229  1
  P  P226  1  0.45731897  0.74972204  0.64573649  1
  P  P227  1  0.45785590  0.74779952  0.89756614  1
  P  P228  1  0.95711002  0.08143573  0.14807048  1
  P  P229  1  0.95725658  0.08135642  0.39841273  1
  P  P230  1  0.95833848  0.08240700  0.64906590  1
  P  P231  1  0.95754882  0.08491047  0.89728673  1
  P  P232  1  0.95785833  0.41763374  0.14765605  1
  P  P233  1  0.95743591  0.41742943  0.39659610  1
  P  P234  1  0.95673511  0.41565092  0.64856481  1
  P  P235  1  0.95711223  0.41641644  0.89654302  1
  P  P236  1  0.95700300  0.74868065  0.14771150  1
  P  P237  1  0.95722111  0.75156563  0.39809019  1
  P  P238  1  0.95709224  0.74947550  0.64809129  1
  P  P239  1  0.95787218  0.75056864  0.89910654  1
  P  P240  1  0.20751903  0.08202162  0.22682093  1
  P  P241  1  0.20719991  0.08306057  0.47872492  1
  P  P242  1  0.20764423  0.08181344  0.72748129  1
  P  P243  1  0.20670446  0.08280687  0.97838172  1
  P  P244  1  0.20727730  0.41868216  0.22693139  1
  P  P245  1  0.20652569  0.41710146  0.47791306  1
  P  P246  1  0.20727834  0.41701972  0.72950607  1
  P  P247  1  0.20810685  0.41775391  0.97671876  1
  P  P248  1  0.20748542  0.74852265  0.22745079  1
  P  P249  1  0.20713699  0.74897707  0.47716429  1
  P  P250  1  0.20669372  0.75027697  0.72912141  1
  P  P251  1  0.20794884  0.75129315  0.97815865  1
  P  P252  1  0.70824862  0.08176353  0.22782511  1
  P  P253  1  0.70773326  0.08179523  0.47797849  1
  P  P254  1  0.70917143  0.08333164  0.72692539  1
  P  P255  1  0.70900810  0.08263565  0.97675630  1
  P  P256  1  0.70934667  0.41714597  0.22671154  1
  P  P257  1  0.70903321  0.41619463  0.47610459  1
  P  P258  1  0.70791739  0.41680814  0.72870886  1
  P  P259  1  0.70860476  0.41649244  0.97662964  1
  P  P260  1  0.70880340  0.75096564  0.22853503  1
  P  P261  1  0.70881281  0.74972966  0.47716458  1
  P  P262  1  0.70876779  0.74958332  0.72675316  1
  P  P263  1  0.70815031  0.74879590  0.97803774  1
  P  P264  1  0.29277789  0.25111667  0.02065790  1
  P  P265  1  0.29321867  0.25029957  0.27104268  1
  P  P266  1  0.29358847  0.25033236  0.52167088  1
  P  P267  1  0.29194841  0.25102328  0.77266736  1
  P  P268  1  0.29121302  0.58328500  0.02310328  1
  P  P269  1  0.29174507  0.58535040  0.27128657  1
  P  P270  1  0.29284816  0.58412349  0.52141801  1
  P  P271  1  0.29251222  0.58228458  0.77309335  1
  P  P272  1  0.29284828  0.91733583  0.02223951  1
  P  P273  1  0.29269967  0.91656481  0.27106205  1
  P  P274  1  0.29227119  0.91748827  0.52241239  1
  P  P275  1  0.29226614  0.91522887  0.77217583  1
  P  P276  1  0.79203752  0.25102897  0.02199235  1
  P  P277  1  0.79239120  0.25133556  0.27195752  1
  P  P278  1  0.79241382  0.24821196  0.52244820  1
  P  P279  1  0.79051492  0.24921090  0.77350840  1
  P  P280  1  0.79202736  0.58162672  0.02209978  1
  P  P281  1  0.79104980  0.58354941  0.27348359  1
  P  P282  1  0.79200883  0.58480372  0.52185840  1
  P  P283  1  0.79111311  0.58368066  0.77351868  1
  P  P284  1  0.79143135  0.91655980  0.02391306  1
  P  P285  1  0.79112950  0.91651815  0.27384347  1
  P  P286  1  0.79050754  0.91623077  0.52347217  1
  P  P287  1  0.79228998  0.91786546  0.77238774  1
  O  O288  1  0.03722858  0.24841622  0.18249488  1
  O  O289  1  0.03790880  0.24952455  0.43363501  1
  O  O290  1  0.03620856  0.24974873  0.68476387  1
  O  O291  1  0.03597223  0.24920119  0.93206837  1
  O  O292  1  0.03554822  0.58415965  0.18318359  1
  O  O293  1  0.03619875  0.58377801  0.43152424  1
  O  O294  1  0.03707560  0.58447436  0.68415219  1
  O  O295  1  0.03590889  0.58628340  0.93341657  1
  O  O296  1  0.03633643  0.91566731  0.18305275  1
  O  O297  1  0.03597487  0.91768732  0.43353099  1
  O  O298  1  0.03579993  0.91672377  0.68255204  1
  O  O299  1  0.03649922  0.91745913  0.93316897  1
  O  O300  1  0.53901423  0.25092191  0.18284082  1
  O  O301  1  0.53834249  0.25208510  0.43184175  1
  O  O302  1  0.53780586  0.24972451  0.68337022  1
  O  O303  1  0.53757196  0.24948453  0.93051040  1
  O  O304  1  0.53740886  0.58526248  0.18261139  1
  O  O305  1  0.53746993  0.58417709  0.43205410  1
  O  O306  1  0.53753238  0.58106047  0.68184223  1
  O  O307  1  0.53735837  0.58288808  0.93223955  1
  O  O308  1  0.53719302  0.91643121  0.18363082  1
  O  O309  1  0.53663954  0.91593468  0.43108502  1
  O  O310  1  0.53805150  0.91532001  0.68148081  1
  O  O311  1  0.53892705  0.91567409  0.93257653  1
  O  O312  1  0.46341413  0.08233783  0.06719648  1
  O  O313  1  0.46323619  0.08287783  0.31562809  1
  O  O314  1  0.46305985  0.08396087  0.56688395  1
  O  O315  1  0.46326334  0.08402994  0.81562968  1
  O  O316  1  0.46316465  0.41600002  0.06719257  1
  O  O317  1  0.46369940  0.41774757  0.31678706  1
  O  O318  1  0.46379885  0.41802370  0.56792721  1
  O  O319  1  0.46309770  0.41667824  0.81564197  1
  O  O320  1  0.46409255  0.74873862  0.06804347  1
  O  O321  1  0.46399567  0.75150658  0.31622645  1
  O  O322  1  0.46246650  0.75039537  0.56579501  1
  O  O323  1  0.46256943  0.74780417  0.81758968  1
  O  O324  1  0.96215986  0.08208197  0.06817237  1
  O  O325  1  0.96228258  0.08103416  0.31846785  1
  O  O326  1  0.96331148  0.08175448  0.56910680  1
  O  O327  1  0.96301141  0.08470278  0.81743625  1
  O  O328  1  0.96264338  0.41752997  0.06764543  1
  O  O329  1  0.96301283  0.41809448  0.31665952  1
  O  O330  1  0.96167546  0.41588325  0.56853650  1
  O  O331  1  0.96236835  0.41589891  0.81664089  1
  O  O332  1  0.96222173  0.74903340  0.06785912  1
  O  O333  1  0.96204002  0.75114667  0.31815672  1
  O  O334  1  0.96235909  0.75015869  0.56820817  1
  O  O335  1  0.96298255  0.75046805  0.81914382  1
  O  O336  1  0.21207960  0.08241525  0.05826921  1
  O  O337  1  0.21278545  0.08253619  0.30678823  1
  O  O338  1  0.21268288  0.08241118  0.55865320  1
  O  O339  1  0.21244377  0.08216693  0.80746626  1
  O  O340  1  0.21314567  0.41815882  0.05670768  1
  O  O341  1  0.21213352  0.41845785  0.30689262  1
  O  O342  1  0.21148586  0.41711927  0.55792432  1
  O  O343  1  0.21270620  0.41699839  0.80942962  1
  O  O344  1  0.21346788  0.75052670  0.05804594  1
  O  O345  1  0.21252275  0.74824758  0.30739317  1
  O  O346  1  0.21197669  0.74945531  0.55714832  1
  O  O347  1  0.21207785  0.75099005  0.80904734  1
  O  O348  1  0.71384011  0.08281143  0.05668899  1
  O  O349  1  0.71360317  0.08168219  0.30771289  1
  O  O350  1  0.71309733  0.08220209  0.55782439  1
  O  O351  1  0.71382782  0.08312423  0.80680545  1
  O  O352  1  0.71374796  0.41591391  0.05650062  1
  O  O353  1  0.71439200  0.41696611  0.30658133  1
  O  O354  1  0.71363455  0.41640281  0.55607170  1
  O  O355  1  0.71320573  0.41715072  0.80854157  1
  O  O356  1  0.71319458  0.74878742  0.05787936  1
  O  O357  1  0.71372413  0.75089962  0.30837996  1
  O  O358  1  0.71371429  0.74978864  0.55703516  1
  O  O359  1  0.71367107  0.74985870  0.80668581  1
  O  O360  1  0.28817455  0.25028044  0.19104115  1
  O  O361  1  0.28846641  0.25032116  0.44168343  1
  O  O362  1  0.28739412  0.25070072  0.69266119  1
  O  O363  1  0.28708827  0.25163376  0.94076334  1
  O  O364  1  0.28637038  0.58504583  0.19141163  1
  O  O365  1  0.28764228  0.58469826  0.44144484  1
  O  O366  1  0.28756715  0.58253109  0.69315238  1
  O  O367  1  0.28633223  0.58307379  0.94313778  1
  O  O368  1  0.28761597  0.91710683  0.19114362  1
  O  O369  1  0.28737590  0.91699732  0.44243070  1
  O  O370  1  0.28682627  0.91605494  0.69224712  1
  O  O371  1  0.28745925  0.91628552  0.94230971  1
  O  O372  1  0.78700450  0.25142432  0.19203635  1
  O  O373  1  0.78741387  0.24857925  0.44256591  1
  O  O374  1  0.78622881  0.24871893  0.69355261  1
  O  O375  1  0.78653412  0.25060551  0.94216532  1
  O  O376  1  0.78622148  0.58293065  0.19358042  1
  O  O377  1  0.78655503  0.58464047  0.44203441  1
  O  O378  1  0.78631261  0.58441200  0.69355600  1
  O  O379  1  0.78664061  0.58175747  0.94228004  1
  O  O380  1  0.78650299  0.91620204  0.19395325  1
  O  O381  1  0.78586697  0.91641716  0.44360489  1
  O  O382  1  0.78701498  0.91752837  0.69261303  1
  O  O383  1  0.78683676  0.91623549  0.94401910  1
  O  O384  1  0.22853449  0.25081464  0.05626881  1
  O  O385  1  0.22869329  0.25023847  0.30600645  1
  O  O386  1  0.22909784  0.24991506  0.55669225  1
  O  O387  1  0.22750738  0.25148052  0.80782794  1
  O  O388  1  0.22699972  0.58296779  0.05899730  1
  O  O389  1  0.22752220  0.58561826  0.30743282  1
  O  O390  1  0.22839246  0.58380753  0.55659134  1
  O  O391  1  0.22811539  0.58239078  0.80848718  1
  O  O392  1  0.22851930  0.91797542  0.05800677  1
  O  O393  1  0.22833167  0.91601788  0.30630219  1
  O  O394  1  0.22778111  0.91836843  0.55767849  1
  O  O395  1  0.22798485  0.91437802  0.80804731  1
  O  O396  1  0.72796392  0.25129812  0.05826396  1
  O  O397  1  0.72820604  0.25118428  0.30795749  1
  O  O398  1  0.72809652  0.24794351  0.55819139  1
  O  O399  1  0.72634709  0.24914628  0.80921720  1
  O  O400  1  0.72791758  0.58144272  0.05834796  1
  O  O401  1  0.72698449  0.58407334  0.30960443  1
  O  O402  1  0.72787642  0.58548236  0.55811042  1
  O  O403  1  0.72697698  0.58304347  0.80953257  1
  O  O404  1  0.72731205  0.91719959  0.05997726  1
  O  O405  1  0.72698391  0.91703784  0.30993777  1
  O  O406  1  0.72649122  0.91626681  0.55963020  1
  O  O407  1  0.72814383  0.91797457  0.80861614  1
  O  O408  1  0.27186934  0.08164309  0.19114943  1
  O  O409  1  0.27153584  0.08323005  0.44326703  1
  O  O410  1  0.27207642  0.08117536  0.69214360  1
  O  O411  1  0.27101921  0.08310876  0.94300674  1
  O  O412  1  0.27176814  0.41914583  0.19171725  1
  O  O413  1  0.27107470  0.41752170  0.44305203  1
  O  O414  1  0.27153303  0.41711463  0.69372457  1
  O  O415  1  0.27232696  0.41766114  0.94075033  1
  O  O416  1  0.27181265  0.74877457  0.19194390  1
  O  O417  1  0.27161041  0.74810113  0.44182023  1
  O  O418  1  0.27103221  0.75054294  0.69369362  1
  O  O419  1  0.27211505  0.75147639  0.94206089  1
  O  O420  1  0.77240302  0.08174460  0.19179544  1
  O  O421  1  0.77194155  0.08138218  0.44191288  1
  O  O422  1  0.77327190  0.08377412  0.69074991  1
  O  O423  1  0.77315070  0.08264087  0.94075720  1
  O  O424  1  0.77336162  0.41744375  0.19018879  1
  O  O425  1  0.77323161  0.41561709  0.44033951  1
  O  O426  1  0.77202305  0.41675846  0.69268670  1
  O  O427  1  0.77259668  0.41696027  0.94023150  1
  O  O428  1  0.77290681  0.75046118  0.19249608  1
  O  O429  1  0.77287888  0.74918764  0.44091785  1
  O  O430  1  0.77290581  0.74926901  0.69068160  1
  O  O431  1  0.77236083  0.74908300  0.94216125  1
  O  O432  1  0.02145653  0.08078778  0.18364990  1
  O  O433  1  0.02157577  0.08091976  0.43393887  1
  O  O434  1  0.02245107  0.08306421  0.68503703  1
  O  O435  1  0.02162476  0.08470903  0.93354384  1
  O  O436  1  0.02220826  0.41793428  0.18285729  1
  O  O437  1  0.02164510  0.41705608  0.43227406  1
  O  O438  1  0.02108097  0.41590297  0.68382483  1
  O  O439  1  0.02135451  0.41676241  0.93199596  1
  O  O440  1  0.02120121  0.74847518  0.18365023  1
  O  O441  1  0.02158239  0.75228697  0.43349349  1
  O  O442  1  0.02134968  0.74906132  0.68387945  1
  O  O443  1  0.02199836  0.75088049  0.93519431  1
  O  O444  1  0.52286612  0.08245621  0.18243057  1
  O  O445  1  0.52210087  0.08316869  0.43101040  1
  O  O446  1  0.52265577  0.08451741  0.68204021  1
  O  O447  1  0.52251080  0.08300037  0.93073773  1
  O  O448  1  0.52261233  0.41585899  0.18235611  1
  O  O449  1  0.52287125  0.41909079  0.43234051  1
  O  O450  1  0.52309328  0.41746325  0.68372806  1
  O  O451  1  0.52224262  0.41693595  0.93108528  1
  O  O452  1  0.52308442  0.74991849  0.18401496  1
  O  O453  1  0.52252324  0.75176677  0.43239318  1
  O  O454  1  0.52175630  0.74883681  0.68080902  1
  O  O455  1  0.52241434  0.74733885  0.93253873  1
  O  O456  1  0.47948174  0.24982047  0.06794621  1
  O  O457  1  0.47914575  0.25217970  0.31634810  1
  O  O458  1  0.47907710  0.25069987  0.56772199  1
  O  O459  1  0.47757450  0.24925622  0.81497643  1
  O  O460  1  0.47816175  0.58502306  0.06714476  1
  O  O461  1  0.47851752  0.58506638  0.31637320  1
  O  O462  1  0.47850420  0.58181231  0.56628443  1
  O  O463  1  0.47799357  0.58119303  0.81681521  1
  O  O464  1  0.47876896  0.91588316  0.06770959  1
  O  O465  1  0.47749043  0.91595812  0.31508098  1
  O  O466  1  0.47830414  0.91479272  0.56630343  1
  O  O467  1  0.47943354  0.91616308  0.81778500  1
  O  O468  1  0.97766675  0.24826977  0.06728797  1
  O  O469  1  0.97870041  0.24961578  0.31861093  1
  O  O470  1  0.97787738  0.24938519  0.56887767  1
  O  O471  1  0.97649939  0.24944144  0.81626317  1
  O  O472  1  0.97700944  0.58506717  0.06715626  1
  O  O473  1  0.97632534  0.58395765  0.31610560  1
  O  O474  1  0.97807986  0.58410697  0.56893552  1
  O  O475  1  0.97709618  0.58582255  0.81757101  1
  O  O476  1  0.97717371  0.91503592  0.06750510  1
  O  O477  1  0.97722193  0.91784974  0.31761902  1
  O  O478  1  0.97650140  0.91639328  0.56667144  1
  O  O479  1  0.97733117  0.91826065  0.81773373  1
  O  O480  1  0.07309388  0.31194607  0.07466889  1
  O  O481  1  0.07430010  0.31271031  0.32528018  1
  O  O482  1  0.07319707  0.31302797  0.57653421  1
  O  O483  1  0.07097846  0.31382055  0.82418145  1
  O  O484  1  0.07212785  0.64813287  0.07491914  1
  O  O485  1  0.07118888  0.64788451  0.32352594  1
  O  O486  1  0.07390964  0.64687832  0.57540355  1
  O  O487  1  0.07217387  0.64931774  0.82480151  1
  O  O488  1  0.07265976  0.97855613  0.07490600  1
  O  O489  1  0.07227521  0.98108113  0.32452584  1
  O  O490  1  0.07168201  0.98010915  0.57435257  1
  O  O491  1  0.07223819  0.98167879  0.82476174  1
  O  O492  1  0.57489777  0.31344107  0.07383266  1
  O  O493  1  0.57392885  0.31589838  0.32339987  1
  O  O494  1  0.57463389  0.31369161  0.57559760  1
  O  O495  1  0.57190926  0.31362856  0.82223383  1
  O  O496  1  0.57356340  0.64807930  0.07372406  1
  O  O497  1  0.57324459  0.64882778  0.32416336  1
  O  O498  1  0.57384674  0.64528709  0.57438415  1
  O  O499  1  0.57317456  0.64537075  0.82352148  1
  O  O500  1  0.57408802  0.97943577  0.07521835  1
  O  O501  1  0.57181048  0.98043014  0.32310957  1
  O  O502  1  0.57343947  0.97890387  0.57365300  1
  O  O503  1  0.57522028  0.97888174  0.82425363  1
  O  O504  1  0.42805237  0.01860430  0.17575189  1
  O  O505  1  0.42624714  0.02044607  0.42414690  1
  O  O506  1  0.42751472  0.02029479  0.67470166  1
  O  O507  1  0.42692298  0.01991185  0.92343009  1
  O  O508  1  0.42761389  0.35225725  0.17577053  1
  O  O509  1  0.42757434  0.35512836  0.42534957  1
  O  O510  1  0.42870216  0.35323851  0.67589438  1
  O  O511  1  0.42722840  0.35274285  0.92378352  1
  O  O512  1  0.42807817  0.68608912  0.17673272  1
  O  O513  1  0.42732720  0.68798971  0.42398223  1
  O  O514  1  0.42604195  0.68612596  0.67347459  1
  O  O515  1  0.42697761  0.68451950  0.92640427  1
  O  O516  1  0.92635930  0.01782677  0.17642821  1
  O  O517  1  0.92590347  0.01849618  0.42758285  1
  O  O518  1  0.92779319  0.01875916  0.67775014  1
  O  O519  1  0.92613072  0.02148626  0.92525767  1
  O  O520  1  0.92697437  0.35388980  0.17538617  1
  O  O521  1  0.92631402  0.35374154  0.42419247  1
  O  O522  1  0.92632065  0.35189347  0.67700090  1
  O  O523  1  0.92594757  0.35324958  0.92521199  1
  O  O524  1  0.92607467  0.68531447  0.17650522  1
  O  O525  1  0.92650984  0.68787873  0.42614901  1
  O  O526  1  0.92632363  0.68592431  0.67654024  1
  O  O527  1  0.92701644  0.68701800  0.92733413  1
  O  O528  1  0.17678578  0.01834847  0.19879783  1
  O  O529  1  0.17588170  0.01989519  0.45020398  1
  O  O530  1  0.17680276  0.01828454  0.69926534  1
  O  O531  1  0.17541184  0.01959993  0.95003835  1
  O  O532  1  0.17655659  0.35494669  0.19892946  1
  O  O533  1  0.17587170  0.35348201  0.44971648  1
  O  O534  1  0.17618215  0.35360569  0.70107495  1
  O  O535  1  0.17756247  0.35377703  0.94873335  1
  O  O536  1  0.17669188  0.68537785  0.19818218  1
  O  O537  1  0.17598271  0.68575189  0.44872698  1
  O  O538  1  0.17618826  0.68629346  0.70144682  1
  O  O539  1  0.17655646  0.68792015  0.95024212  1
  O  O540  1  0.67727351  0.01858146  0.19901693  1
  O  O541  1  0.67666678  0.01842433  0.44936465  1
  O  O542  1  0.67872817  0.01950944  0.69811588  1
  O  O543  1  0.67803118  0.01917478  0.94840831  1
  O  O544  1  0.67872274  0.35354275  0.19789300  1
  O  O545  1  0.67784243  0.35278556  0.44804146  1
  O  O546  1  0.67687547  0.35327394  0.70054218  1
  O  O547  1  0.67813504  0.35274402  0.94760158  1
  O  O548  1  0.67706506  0.68784109  0.20037152  1
  O  O549  1  0.67724068  0.68666077  0.44860716  1
  O  O550  1  0.67748394  0.68628618  0.69852831  1
  O  O551  1  0.67795002  0.68499159  0.94903993  1
  O  O552  1  0.32408769  0.31432475  0.04903628  1
  O  O553  1  0.32398860  0.31396685  0.29908517  1
  O  O554  1  0.32430163  0.31395774  0.54987187  1
  O  O555  1  0.32273875  0.31452255  0.80106190  1
  O  O556  1  0.32137791  0.64744941  0.05117519  1
  O  O557  1  0.32270232  0.64863937  0.30011584  1
  O  O558  1  0.32395188  0.64730439  0.55015365  1
  O  O559  1  0.32363121  0.64588137  0.80087665  1
  O  O560  1  0.32355724  0.98111644  0.05010066  1
  O  O561  1  0.32382157  0.97969575  0.29968450  1
  O  O562  1  0.32332001  0.98082033  0.55082424  1
  O  O563  1  0.32319807  0.97882215  0.80027121  1
  O  O564  1  0.82316028  0.31444359  0.05037849  1
  O  O565  1  0.82320295  0.31468396  0.30067829  1
  O  O566  1  0.82338124  0.31175368  0.55070912  1
  O  O567  1  0.82083433  0.31326488  0.80173710  1
  O  O568  1  0.82304633  0.64520323  0.05029724  1
  O  O569  1  0.82218120  0.64714982  0.30134103  1
  O  O570  1  0.82340591  0.64781271  0.55076388  1
  O  O571  1  0.82137110  0.64744771  0.80255769  1
  O  O572  1  0.82282258  0.97987609  0.05207334  1
  O  O573  1  0.82235625  0.97989932  0.30217433  1
  O  O574  1  0.82143222  0.97970194  0.55228038  1
  O  O575  1  0.82303613  0.98133976  0.80123485  1
  O  O576  1  0.42717301  0.14583020  0.17483955  1
  O  O577  1  0.42718083  0.14741864  0.42329091  1
  O  O578  1  0.42726042  0.14758271  0.67538678  1
  O  O579  1  0.42705182  0.14678048  0.92446787  1
  O  O580  1  0.42710425  0.47953803  0.17479688  1
  O  O581  1  0.42766180  0.48225006  0.42478765  1
  O  O582  1  0.42757841  0.48061609  0.67659367  1
  O  O583  1  0.42643585  0.47944607  0.92452290  1
  O  O584  1  0.42796551  0.81337347  0.17556803  1
  O  O585  1  0.42737307  0.81497618  0.42483456  1
  O  O586  1  0.42647389  0.81297060  0.67481255  1
  O  O587  1  0.42730668  0.81168869  0.92562850  1
  O  O588  1  0.92617517  0.14498808  0.17645584  1
  O  O589  1  0.92676731  0.14551939  0.42608297  1
  O  O590  1  0.92711472  0.14609231  0.67677563  1
  O  O591  1  0.92688338  0.14842449  0.92623774  1
  O  O592  1  0.92704880  0.48120119  0.17618022  1
  O  O593  1  0.92619764  0.48064318  0.42532491  1
  O  O594  1  0.92534951  0.47915865  0.67635090  1
  O  O595  1  0.92598818  0.48016363  0.92410868  1
  O  O596  1  0.92587437  0.81217391  0.17610034  1
  O  O597  1  0.92630794  0.81500349  0.42679022  1
  O  O598  1  0.92603240  0.81297354  0.67639498  1
  O  O599  1  0.92706821  0.81441379  0.92727131  1
  O  O600  1  0.07258513  0.18460583  0.07391351  1
  O  O601  1  0.07393330  0.18570227  0.32575753  1
  O  O602  1  0.07342986  0.18622717  0.57677389  1
  O  O603  1  0.07207082  0.18643896  0.82346622  1
  O  O604  1  0.07232392  0.52125214  0.07482854  1
  O  O605  1  0.07142256  0.52038315  0.32291880  1
  O  O606  1  0.07313333  0.52003451  0.57635890  1
  O  O607  1  0.07232224  0.52207088  0.82621259  1
  O  O608  1  0.07209627  0.85150547  0.07476802  1
  O  O609  1  0.07270268  0.85427424  0.32557965  1
  O  O610  1  0.07135328  0.85278944  0.57420684  1
  O  O611  1  0.07286992  0.85467652  0.82495815  1
  O  O612  1  0.57498313  0.18655226  0.07488523  1
  O  O613  1  0.57465005  0.18853063  0.32435016  1
  O  O614  1  0.57435073  0.18690806  0.57454503  1
  O  O615  1  0.57290751  0.18599517  0.82230769  1
  O  O616  1  0.57324645  0.52094183  0.07505128  1
  O  O617  1  0.57419218  0.52178591  0.32370680  1
  O  O618  1  0.57365255  0.51821908  0.57282929  1
  O  O619  1  0.57338013  0.51841305  0.82414334  1
  O  O620  1  0.57422752  0.85267124  0.07580034  1
  O  O621  1  0.57309582  0.85307985  0.32265833  1
  O  O622  1  0.57350592  0.85158997  0.57283651  1
  O  O623  1  0.57453567  0.85180929  0.82457402  1
  O  O624  1  0.32401425  0.18743325  0.04822068  1
  O  O625  1  0.32420054  0.18676786  0.29910482  1
  O  O626  1  0.32484967  0.18697917  0.54988247  1
  O  O627  1  0.32269823  0.18713970  0.80037839  1
  O  O628  1  0.32261845  0.52005123  0.05147190  1
  O  O629  1  0.32290909  0.52174184  0.29936245  1
  O  O630  1  0.32385507  0.52043980  0.54928427  1
  O  O631  1  0.32307461  0.51874723  0.80168483  1
  O  O632  1  0.32399666  0.85394558  0.05058899  1
  O  O633  1  0.32372793  0.85280685  0.29883457  1
  O  O634  1  0.32274838  0.85353776  0.55027410  1
  O  O635  1  0.32332471  0.85174474  0.80047198  1
  O  O636  1  0.82315073  0.18749742  0.05035026  1
  O  O637  1  0.82349439  0.18754206  0.29954120  1
  O  O638  1  0.82310548  0.18461513  0.55107211  1
  O  O639  1  0.82166402  0.18597476  0.80240535  1
  O  O640  1  0.82311091  0.51832409  0.05089922  1
  O  O641  1  0.82161434  0.51985010  0.30223116  1
  O  O642  1  0.82267168  0.52087989  0.54997927  1
  O  O643  1  0.82240569  0.52010436  0.80118142  1
  O  O644  1  0.82138254  0.85245028  0.05275595  1
  O  O645  1  0.82152559  0.85275359  0.30297447  1
  O  O646  1  0.82132844  0.85254489  0.55199306  1
  O  O647  1  0.82347208  0.85438157  0.80075228  1
  O  O648  1  0.17654676  0.14572118  0.19902443  1
  O  O649  1  0.17622879  0.14676624  0.45084924  1
  O  O650  1  0.17705139  0.14572326  0.69974227  1
  O  O651  1  0.17561119  0.14645071  0.95042793  1
  O  O652  1  0.17639464  0.48213638  0.19850956  1
  O  O653  1  0.17528617  0.48049949  0.44975576  1
  O  O654  1  0.17589605  0.48037439  0.70126245  1
  O  O655  1  0.17696521  0.48124367  0.94848992  1
  O  O656  1  0.17624860  0.81231407  0.20005210  1
  O  O657  1  0.17681137  0.81300086  0.44914037  1
  O  O658  1  0.17496639  0.81310594  0.70024765  1
  O  O659  1  0.17730544  0.81508992  0.95021390  1
  O  O660  1  0.67734120  0.14568105  0.20028072  1
  O  O661  1  0.67668301  0.14529929  0.44950599  1
  O  O662  1  0.67790844  0.14665381  0.69835775  1
  O  O663  1  0.67843751  0.14652089  0.94827339  1
  O  O664  1  0.67816120  0.48070306  0.19838451  1
  O  O665  1  0.67896441  0.48035578  0.44776161  1
  O  O666  1  0.67666669  0.48003442  0.69992426  1
  O  O667  1  0.67713928  0.47991813  0.94871005  1
  O  O668  1  0.67857967  0.81475712  0.19946541  1
  O  O669  1  0.67858303  0.81378155  0.44852412  1
  O  O670  1  0.67846130  0.81359652  0.69823247  1
  O  O671  1  0.67656193  0.81206391  0.95010088  1
