# generated using pymatgen
data_Na2MnFe(PO4)2
_symmetry_space_group_name_H-M   'P 1'
_cell_length_a   22.34677074
_cell_length_b   20.09618840
_cell_length_c   19.44530257
_cell_angle_alpha   89.94202108
_cell_angle_beta   90.02986804
_cell_angle_gamma   89.99666987
_symmetry_Int_Tables_number   1
_chemical_formula_structural   Na2MnFe(PO4)2
_chemical_formula_sum   'Na96 Mn48 Fe48 P96 O384'
_cell_volume   8732.58637931
_cell_formula_units_Z   48
loop_
 _symmetry_equiv_pos_site_id
 _symmetry_equiv_pos_as_xyz
  1  'x, y, z'
loop_
 _atom_site_type_symbol
 _atom_site_label
 _atom_site_symmetry_multiplicity
 _atom_site_fract_x
 _atom_site_fract_y
 _atom_site_fract_z
 _atom_site_occupancy
  Na  Na0  1  0.13990920  0.25040775  0.24347136  1
  Na  Na1  1  0.14024571  0.25107896  0.49474101  1
  Na  Na2  1  0.14045988  0.25224689  0.74334065  1
  Na  Na3  1  0.13988799  0.24986794  0.99357471  1
  Na  Na4  1  0.14032439  0.58460862  0.24281280  1
  Na  Na5  1  0.14033946  0.58334960  0.49552513  1
  Na  Na6  1  0.14070639  0.58401040  0.74292481  1
  Na  Na7  1  0.14030163  0.58430474  0.99275928  1
  Na  Na8  1  0.14000438  0.91635512  0.24220711  1
  Na  Na9  1  0.13983908  0.91670703  0.49357131  1
  Na  Na10  1  0.14049608  0.91652987  0.74377223  1
  Na  Na11  1  0.14016881  0.91494297  0.99412131  1
  Na  Na12  1  0.64029569  0.24886143  0.24356364  1
  Na  Na13  1  0.64034689  0.25010280  0.49383309  1
  Na  Na14  1  0.64015046  0.24962218  0.74343710  1
  Na  Na15  1  0.64002553  0.24964586  0.99379086  1
  Na  Na16  1  0.64028110  0.58255256  0.24515952  1
  Na  Na17  1  0.64008444  0.58495958  0.49398273  1
  Na  Na18  1  0.64000817  0.58453896  0.74245242  1
  Na  Na19  1  0.64064851  0.58307915  0.99329238  1
  Na  Na20  1  0.63976966  0.91594345  0.24458820  1
  Na  Na21  1  0.63993207  0.91741057  0.49402996  1
  Na  Na22  1  0.64084809  0.91612943  0.74293029  1
  Na  Na23  1  0.64027963  0.91626881  0.99348869  1
  Na  Na24  1  0.35924167  0.08266454  0.00672809  1
  Na  Na25  1  0.36013084  0.08358596  0.25613057  1
  Na  Na26  1  0.35943126  0.08304393  0.50653788  1
  Na  Na27  1  0.35862565  0.08426023  0.75552492  1
  Na  Na28  1  0.36022395  0.41641222  0.00628663  1
  Na  Na29  1  0.35960235  0.41719091  0.25536347  1
  Na  Na30  1  0.35957396  0.41763046  0.50862489  1
  Na  Na31  1  0.36048889  0.41800872  0.75720720  1
  Na  Na32  1  0.36011795  0.75022328  0.00487780  1
  Na  Na33  1  0.35978619  0.75021637  0.25538113  1
  Na  Na34  1  0.35974339  0.74962004  0.50817791  1
  Na  Na35  1  0.36045344  0.75032384  0.75598584  1
  Na  Na36  1  0.85945613  0.08253635  0.00583278  1
  Na  Na37  1  0.85937725  0.08097365  0.25607010  1
  Na  Na38  1  0.85930779  0.08251268  0.50638987  1
  Na  Na39  1  0.85925524  0.08235159  0.75536975  1
  Na  Na40  1  0.86017769  0.41591157  0.00604151  1
  Na  Na41  1  0.85954195  0.41518973  0.25616601  1
  Na  Na42  1  0.85959633  0.41667331  0.50646816  1
  Na  Na43  1  0.86023034  0.41659308  0.75625203  1
  Na  Na44  1  0.86025766  0.75026423  0.00717006  1
  Na  Na45  1  0.86019684  0.74881851  0.25636937  1
  Na  Na46  1  0.85957175  0.75113870  0.50633618  1
  Na  Na47  1  0.85989603  0.75056551  0.75678862  1
  Na  Na48  1  0.10925131  0.08314807  0.11843699  1
  Na  Na49  1  0.10892073  0.08285905  0.36844765  1
  Na  Na50  1  0.10938169  0.08469439  0.61792094  1
  Na  Na51  1  0.10930820  0.08513620  0.86929745  1
  Na  Na52  1  0.10898706  0.41590982  0.11827851  1
  Na  Na53  1  0.10964476  0.41681885  0.36992970  1
  Na  Na54  1  0.11024051  0.41707229  0.61945233  1
  Na  Na55  1  0.10966178  0.41714900  0.86791352  1
  Na  Na56  1  0.10980773  0.74949979  0.11810458  1
  Na  Na57  1  0.10947473  0.75051468  0.36817961  1
  Na  Na58  1  0.11025476  0.75007539  0.61910068  1
  Na  Na59  1  0.11019153  0.74953474  0.86877267  1
  Na  Na60  1  0.60941357  0.08217167  0.11883726  1
  Na  Na61  1  0.60941630  0.08296346  0.36883174  1
  Na  Na62  1  0.60976273  0.08259226  0.61779707  1
  Na  Na63  1  0.60956536  0.08295081  0.86797126  1
  Na  Na64  1  0.60962517  0.41669587  0.11874958  1
  Na  Na65  1  0.60936073  0.41719132  0.36895501  1
  Na  Na66  1  0.60926386  0.41775019  0.61889937  1
  Na  Na67  1  0.60918837  0.41762854  0.86907906  1
  Na  Na68  1  0.60970581  0.74933083  0.11877934  1
  Na  Na69  1  0.60954890  0.75089500  0.37056169  1
  Na  Na70  1  0.61001719  0.75031548  0.61768168  1
  Na  Na71  1  0.61004548  0.74993599  0.86726458  1
  Na  Na72  1  0.39056280  0.24947212  0.13130216  1
  Na  Na73  1  0.39061290  0.24961535  0.38187099  1
  Na  Na74  1  0.39017173  0.25137027  0.63239880  1
  Na  Na75  1  0.39021881  0.25192101  0.88130140  1
  Na  Na76  1  0.39037997  0.58358126  0.12976749  1
  Na  Na77  1  0.39009929  0.58470364  0.38244886  1
  Na  Na78  1  0.39080946  0.58389703  0.63284591  1
  Na  Na79  1  0.39067974  0.58411026  0.88071335  1
  Na  Na80  1  0.39042135  0.91646619  0.13081230  1
  Na  Na81  1  0.39045233  0.91633298  0.38174825  1
  Na  Na82  1  0.39003632  0.91548860  0.63130471  1
  Na  Na83  1  0.39021209  0.91571411  0.88040237  1
  Na  Na84  1  0.89063107  0.24831285  0.13081179  1
  Na  Na85  1  0.89018813  0.24867898  0.38126917  1
  Na  Na86  1  0.89019799  0.25060839  0.63088159  1
  Na  Na87  1  0.89084552  0.25057685  0.88053780  1
  Na  Na88  1  0.89080493  0.58278564  0.13158216  1
  Na  Na89  1  0.89077904  0.58267587  0.38100043  1
  Na  Na90  1  0.89051526  0.58307258  0.63230345  1
  Na  Na91  1  0.89106476  0.58307829  0.88106379  1
  Na  Na92  1  0.89053188  0.91501403  0.13138246  1
  Na  Na93  1  0.89040362  0.91566284  0.38083246  1
  Na  Na94  1  0.88982336  0.91666565  0.63189003  1
  Na  Na95  1  0.88984846  0.91626704  0.88221069  1
  Mn  Mn96  1  0.00031678  0.49922490  0.50052546  1
  Mn  Mn97  1  0.49914023  0.33298749  0.25001923  1
  Mn  Mn98  1  0.74969263  0.66548345  0.12597832  1
  Mn  Mn99  1  0.49961924  -0.00080060  -0.00088015  1
  Mn  Mn100  1  0.24961926  0.83313384  0.37464974  1
  Mn  Mn101  1  0.00006135  -0.00042782  0.00013971  1
  Mn  Mn102  1  0.50020380  0.16616002  0.50061874  1
  Mn  Mn103  1  0.75006866  0.50021840  0.87460774  1
  Mn  Mn104  1  -0.00047895  0.83396133  0.49952005  1
  Mn  Mn105  1  0.24971928  0.66706938  0.37519191  1
  Mn  Mn106  1  0.50001922  0.33425014  0.50056819  1
  Mn  Mn107  1  0.25019595  0.50079863  0.37553003  1
  Mn  Mn108  1  0.74985372  0.16469090  0.12401215  1
  Mn  Mn109  1  0.00003026  0.49941877  0.24980333  1
  Mn  Mn110  1  -0.00031729  0.16821181  0.74905285  1
  Mn  Mn111  1  0.74985879  -0.00065563  0.37588611  1
  Mn  Mn112  1  0.49942797  0.16743518  0.74969414  1
  Mn  Mn113  1  0.25011688  0.50057938  0.87494866  1
  Mn  Mn114  1  0.75091362  0.66750495  0.87494653  1
  Mn  Mn115  1  0.49919439  0.83392959  0.25031201  1
  Mn  Mn116  1  0.24970598  0.16765054  0.87505042  1
  Mn  Mn117  1  0.24943543  0.50085262  0.12472542  1
  Mn  Mn118  1  0.25029793  0.33374836  0.37564619  1
  Mn  Mn119  1  0.74964271  0.33299964  0.62460454  1
  Mn  Mn120  1  0.00000944  0.00061733  0.75078958  1
  Mn  Mn121  1  0.24977661  0.16731366  0.37584692  1
  Mn  Mn122  1  0.74984707  0.33286544  0.87471854  1
  Mn  Mn123  1  -0.00002083  0.66643801  0.50015094  1
  Mn  Mn124  1  -0.00003899  0.16609517  0.25003985  1
  Mn  Mn125  1  0.49926114  0.16731660  -0.00046871  1
  Mn  Mn126  1  0.24922098  -0.00070693  0.87534226  1
  Mn  Mn127  1  0.49933641  -0.00083210  0.74937927  1
  Mn  Mn128  1  0.50021583  0.66698283  0.25033388  1
  Mn  Mn129  1  0.00027500  0.49987256  -0.00002131  1
  Mn  Mn130  1  0.74952897  0.83342564  0.12537752  1
  Mn  Mn131  1  0.00078040  0.83287462  0.75067153  1
  Mn  Mn132  1  0.24970432  0.33289091  0.12548212  1
  Mn  Mn133  1  0.50057421  0.66679976  -0.00081107  1
  Mn  Mn134  1  0.24956289  0.00019651  0.37472481  1
  Mn  Mn135  1  0.75021686  0.66653173  0.37542990  1
  Mn  Mn136  1  0.24911385  0.00008408  0.62532291  1
  Mn  Mn137  1  0.74978002  0.50105007  0.62508131  1
  Mn  Mn138  1  0.49969816  0.50030270  0.25028979  1
  Mn  Mn139  1  0.25007224  -0.00027773  0.12463014  1
  Mn  Mn140  1  0.74975782  0.33287770  0.37489641  1
  Mn  Mn141  1  0.75025918  0.16501033  0.87426178  1
  Mn  Mn142  1  0.75026657  0.33298644  0.12520240  1
  Mn  Mn143  1  -0.00023435  0.16699155  0.49932104  1
  Fe  Fe144  1  0.25053212  0.66734348  0.12365590  1
  Fe  Fe145  1  0.00047993  0.33398540  0.75014608  1
  Fe  Fe146  1  0.75006330  -0.00117188  0.12513281  1
  Fe  Fe147  1  0.00043638  0.83241934  0.00074447  1
  Fe  Fe148  1  0.75025471  0.50000643  0.37546907  1
  Fe  Fe149  1  0.00009148  0.83267589  0.24966728  1
  Fe  Fe150  1  0.50048649  0.50045596  -0.00067878  1
  Fe  Fe151  1  0.24996157  0.66723383  0.62550746  1
  Fe  Fe152  1  0.50074785  0.66677692  0.74941626  1
  Fe  Fe153  1  0.25023255  0.16670458  0.12491850  1
  Fe  Fe154  1  0.75082250  0.66799382  0.62446086  1
  Fe  Fe155  1  0.49966394  0.66689741  0.50103055  1
  Fe  Fe156  1  0.74982407  -0.00028696  0.62488806  1
  Fe  Fe157  1  0.50060733  0.33439841  0.75062942  1
  Fe  Fe158  1  0.74954337  -0.00085484  0.87428472  1
  Fe  Fe159  1  -0.00048334  0.33363561  0.50007546  1
  Fe  Fe160  1  0.50024251  -0.00002685  0.25019810  1
  Fe  Fe161  1  0.74964670  0.16567320  0.37477629  1
  Fe  Fe162  1  -0.00033905  0.16673056  0.00015452  1
  Fe  Fe163  1  0.25031505  0.33394565  0.87486568  1
  Fe  Fe164  1  0.00014479  0.33309360  -0.00078904  1
  Fe  Fe165  1  0.74997594  0.83340472  0.87477093  1
  Fe  Fe166  1  0.50029152  0.16633875  0.25019024  1
  Fe  Fe167  1  0.25054957  0.83271565  0.87438715  1
  Fe  Fe168  1  0.00050584  0.66644630  0.00028052  1
  Fe  Fe169  1  0.50083393  0.83310047  0.74910781  1
  Fe  Fe170  1  0.49942575  0.50065220  0.50073265  1
  Fe  Fe171  1  0.25038190  0.83284999  0.12392784  1
  Fe  Fe172  1  0.25037599  0.66740222  0.87405933  1
  Fe  Fe173  1  0.49986368  0.83335573  0.50002897  1
  Fe  Fe174  1  0.74979421  0.83321960  0.37557389  1
  Fe  Fe175  1  0.00011764  0.66671065  0.75060432  1
  Fe  Fe176  1  0.50035660  0.50049275  0.75025514  1
  Fe  Fe177  1  0.50044997  0.83305401  -0.00048725  1
  Fe  Fe178  1  0.75007065  0.49949277  0.12515194  1
  Fe  Fe179  1  0.24987419  0.83329904  0.62507313  1
  Fe  Fe180  1  0.25038126  0.50079947  0.62605214  1
  Fe  Fe181  1  0.00018542  0.49990540  0.75038040  1
  Fe  Fe182  1  0.24935484  0.16754580  0.62585351  1
  Fe  Fe183  1  0.75003727  0.16611511  0.62480820  1
  Fe  Fe184  1  0.25059606  0.33413005  0.62567595  1
  Fe  Fe185  1  -0.00008363  -0.00033061  0.49943764  1
  Fe  Fe186  1  0.50038350  0.33399635  0.00030828  1
  Fe  Fe187  1  0.49910561  -0.00031804  0.49966763  1
  Fe  Fe188  1  -0.00036828  -0.00097482  0.24944777  1
  Fe  Fe189  1  0.00046602  0.66667371  0.24994387  1
  Fe  Fe190  1  0.75032014  0.83405777  0.62552597  1
  Fe  Fe191  1  -0.00027858  0.33276720  0.24970475  1
  P  P192  1  0.04110102  0.24992162  0.10169988  1
  P  P193  1  0.04198185  0.25125816  0.35262246  1
  P  P194  1  0.04192485  0.25206924  0.60242181  1
  P  P195  1  0.04237600  0.25192002  0.85279875  1
  P  P196  1  0.04234127  0.58442509  0.10276901  1
  P  P197  1  0.04256564  0.58402622  0.35223634  1
  P  P198  1  0.04229743  0.58301230  0.60461186  1
  P  P199  1  0.04187632  0.58347716  0.85186504  1
  P  P200  1  0.04189882  0.91469347  0.10331372  1
  P  P201  1  0.04148785  0.91650889  0.35123638  1
  P  P202  1  0.04204350  0.91790910  0.60239542  1
  P  P203  1  0.04280029  0.91636459  0.85421281  1
  P  P204  1  0.54204935  0.25067679  0.10279238  1
  P  P205  1  0.54217951  0.24876291  0.35260643  1
  P  P206  1  0.54266503  0.25091075  0.60385724  1
  P  P207  1  0.54206779  0.25192214  0.85285245  1
  P  P208  1  0.54275913  0.58223067  0.10191596  1
  P  P209  1  0.54215954  0.58378661  0.35468127  1
  P  P210  1  0.54135079  0.58352408  0.60254343  1
  P  P211  1  0.54167178  0.58343556  0.85146164  1
  P  P212  1  0.54209133  0.91547430  0.10238380  1
  P  P213  1  0.54170188  0.91784727  0.35346031  1
  P  P214  1  0.54091380  0.91631442  0.60154557  1
  P  P215  1  0.54232107  0.91502989  0.85195784  1
  P  P216  1  0.45864837  0.08298801  0.14837198  1
  P  P217  1  0.45780758  0.08216951  0.39693194  1
  P  P218  1  0.45689424  0.08291089  0.64631017  1
  P  P219  1  0.45657811  0.08342459  0.89647684  1
  P  P220  1  0.45726624  0.41706150  0.14595461  1
  P  P221  1  0.45710850  0.41824077  0.39833043  1
  P  P222  1  0.45888461  0.41766243  0.64873997  1
  P  P223  1  0.45892433  0.41717471  0.89780350  1
  P  P224  1  0.45765698  0.75016602  0.14625292  1
  P  P225  1  0.45813629  0.75007760  0.39919426  1
  P  P226  1  0.45944714  0.74983136  0.64754429  1
  P  P227  1  0.45870100  0.75133280  0.89609201  1
  P  P228  1  0.95769307  0.08159700  0.14726519  1
  P  P229  1  0.95763444  0.08135410  0.39689613  1
  P  P230  1  0.95737224  0.08342762  0.64614957  1
  P  P231  1  0.95766066  0.08489845  0.89772254  1
  P  P232  1  0.95781725  0.41464648  0.14688704  1
  P  P233  1  0.95750747  0.41508452  0.39722210  1
  P  P234  1  0.95861147  0.41652550  0.64841613  1
  P  P235  1  0.95827346  0.41586968  0.89676073  1
  P  P236  1  0.95881276  0.74940373  0.14769920  1
  P  P237  1  0.95752971  0.74984864  0.39591728  1
  P  P238  1  0.95795938  0.74906621  0.64810629  1
  P  P239  1  0.95898405  0.74938325  0.89861877  1
  P  P240  1  0.20754004  0.08458267  0.22710232  1
  P  P241  1  0.20662200  0.08357986  0.47878413  1
  P  P242  1  0.20685722  0.08499750  0.72769629  1
  P  P243  1  0.20712264  0.08347838  0.97848264  1
  P  P244  1  0.20657976  0.41722914  0.22818412  1
  P  P245  1  0.20800016  0.41724139  0.47984052  1
  P  P246  1  0.20927305  0.41712908  0.72733114  1
  P  P247  1  0.20778251  0.41567647  0.97720949  1
  P  P248  1  0.20864187  0.75007664  0.22550518  1
  P  P249  1  0.20708364  0.75003561  0.47910847  1
  P  P250  1  0.20901847  0.75038466  0.72722237  1
  P  P251  1  0.20903426  0.74986952  0.97653970  1
  P  P252  1  0.70766283  0.08101785  0.22767109  1
  P  P253  1  0.70759456  0.08439518  0.47825847  1
  P  P254  1  0.70829618  0.08230929  0.72641651  1
  P  P255  1  0.70753107  0.08073058  0.97714040  1
  P  P256  1  0.70787495  0.41771568  0.22801998  1
  P  P257  1  0.70757767  0.41805853  0.47746641  1
  P  P258  1  0.70707857  0.41681157  0.72784224  1
  P  P259  1  0.70745656  0.41674895  0.97851172  1
  P  P260  1  0.70696296  0.74968696  0.22901949  1
  P  P261  1  0.70826687  0.75156834  0.47870891  1
  P  P262  1  0.70895669  0.75084230  0.72662853  1
  P  P263  1  0.70793287  0.75124033  0.97729882  1
  P  P264  1  0.29235975  0.24901616  0.02239690  1
  P  P265  1  0.29298052  0.24995433  0.27190987  1
  P  P266  1  0.29170586  0.25036237  0.52436904  1
  P  P267  1  0.29208029  0.25238135  0.77186181  1
  P  P268  1  0.29210357  0.58506298  0.02140891  1
  P  P269  1  0.29274281  0.58428817  0.27133890  1
  P  P270  1  0.29168634  0.58402003  0.52450698  1
  P  P271  1  0.29197668  0.58514217  0.77167228  1
  P  P272  1  0.29223203  0.91478602  0.02163615  1
  P  P273  1  0.29270181  0.91651018  0.27115483  1
  P  P274  1  0.29186884  0.91566709  0.52281071  1
  P  P275  1  0.29179367  0.91531139  0.77192711  1
  P  P276  1  0.79286750  0.24918205  0.02163345  1
  P  P277  1  0.79204887  0.24771364  0.27249941  1
  P  P278  1  0.79174925  0.24826629  0.52196685  1
  P  P279  1  0.79262504  0.24890633  0.77097432  1
  P  P280  1  0.79264045  0.58211761  0.02282643  1
  P  P281  1  0.79245589  0.58136210  0.27262449  1
  P  P282  1  0.79244393  0.58498879  0.52244069  1
  P  P283  1  0.79282633  0.58450230  0.77123770  1
  P  P284  1  0.79222977  0.91737189  0.02189138  1
  P  P285  1  0.79194666  0.91510655  0.27282454  1
  P  P286  1  0.79134734  0.91646056  0.52346661  1
  P  P287  1  0.79160753  0.91631104  0.77271748  1
  O  O288  1  0.03600481  0.25001201  0.18170019  1
  O  O289  1  0.03645631  0.25120902  0.43255019  1
  O  O290  1  0.03671339  0.25224337  0.68237157  1
  O  O291  1  0.03706848  0.25161049  0.93267185  1
  O  O292  1  0.03711371  0.58447222  0.18269068  1
  O  O293  1  0.03728145  0.58349963  0.43222479  1
  O  O294  1  0.03666146  0.58303883  0.68451543  1
  O  O295  1  0.03711564  0.58359889  0.93190585  1
  O  O296  1  0.03625506  0.91470565  0.18319635  1
  O  O297  1  0.03631891  0.91722697  0.43126156  1
  O  O298  1  0.03714585  0.91764135  0.68239465  1
  O  O299  1  0.03755639  0.91551415  0.93416524  1
  O  O300  1  0.53668614  0.24972325  0.18278405  1
  O  O301  1  0.53737560  0.24893407  0.43261634  1
  O  O302  1  0.53742190  0.25151838  0.68381231  1
  O  O303  1  0.53663555  0.25192087  0.93282288  1
  O  O304  1  0.53773991  0.58264956  0.18188799  1
  O  O305  1  0.53659462  0.58389689  0.43459202  1
  O  O306  1  0.53649765  0.58350427  0.68248490  1
  O  O307  1  0.53702463  0.58317917  0.93143929  1
  O  O308  1  0.53676139  0.91633516  0.18232302  1
  O  O309  1  0.53610748  0.91772534  0.43330440  1
  O  O310  1  0.53625915  0.91544482  0.68152890  1
  O  O311  1  0.53728952  0.91497303  0.93192620  1
  O  O312  1  0.46326546  0.08335647  0.06834031  1
  O  O313  1  0.46355731  0.08262684  0.31702632  1
  O  O314  1  0.46210649  0.08240785  0.56634436  1
  O  O315  1  0.46158713  0.08348493  0.81651391  1
  O  O316  1  0.46286481  0.41704511  0.06604972  1
  O  O317  1  0.46198130  0.41764805  0.31833281  1
  O  O318  1  0.46347593  0.41834401  0.56874545  1
  O  O319  1  0.46435482  0.41686068  0.81788903  1
  O  O320  1  0.46308026  0.75043013  0.06631413  1
  O  O321  1  0.46256084  0.75028901  0.31915315  1
  O  O322  1  0.46410896  0.74941347  0.56761684  1
  O  O323  1  0.46419861  0.75124215  0.81622812  1
  O  O324  1  0.96300356  0.08246346  0.06737140  1
  O  O325  1  0.96313016  0.08122113  0.31695351  1
  O  O326  1  0.96270279  0.08275885  0.56618066  1
  O  O327  1  0.96289004  0.08493260  0.81775856  1
  O  O328  1  0.96345772  0.41489440  0.06694470  1
  O  O329  1  0.96263366  0.41509276  0.31725386  1
  O  O330  1  0.96348024  0.41635843  0.56839447  1
  O  O331  1  0.96366375  0.41648807  0.81686516  1
  O  O332  1  0.96413805  0.74962190  0.06776026  1
  O  O333  1  0.96296552  0.74980001  0.31599279  1
  O  O334  1  0.96254356  0.74955855  0.56810197  1
  O  O335  1  0.96416879  0.74894535  0.81865015  1
  O  O336  1  0.21270284  0.08381756  0.05840879  1
  O  O337  1  0.21250591  0.08437769  0.30713488  1
  O  O338  1  0.21147955  0.08358896  0.55878911  1
  O  O339  1  0.21218191  0.08470726  0.80763990  1
  O  O340  1  0.21260364  0.41594202  0.05718306  1
  O  O341  1  0.21171829  0.41731327  0.30820390  1
  O  O342  1  0.21365867  0.41728354  0.55977088  1
  O  O343  1  0.21403249  0.41684209  0.80733328  1
  O  O344  1  0.21441077  0.74984181  0.05643854  1
  O  O345  1  0.21300615  0.75006322  0.30557792  1
  O  O346  1  0.21216347  0.75021511  0.55905343  1
  O  O347  1  0.21435497  0.75011035  0.80712246  1
  O  O348  1  0.71273794  0.08033933  0.05711319  1
  O  O349  1  0.71309019  0.08184436  0.30761606  1
  O  O350  1  0.71298210  0.08437087  0.55814399  1
  O  O351  1  0.71319684  0.08146641  0.80642297  1
  O  O352  1  0.71280186  0.41707232  0.05849751  1
  O  O353  1  0.71333603  0.41780721  0.30799678  1
  O  O354  1  0.71277576  0.41763536  0.55742752  1
  O  O355  1  0.71214157  0.41670452  0.80781105  1
  O  O356  1  0.71260303  0.75054660  0.05729240  1
  O  O357  1  0.71228486  0.75009801  0.30896237  1
  O  O358  1  0.71415405  0.75136044  0.55858130  1
  O  O359  1  0.71392477  0.75128444  0.80664361  1
  O  O360  1  0.28788826  0.24931592  0.19191234  1
  O  O361  1  0.28671281  0.25038436  0.44434033  1
  O  O362  1  0.28662747  0.25249299  0.69195106  1
  O  O363  1  0.28720283  0.24978554  0.94242568  1
  O  O364  1  0.28767427  0.58486212  0.19133123  1
  O  O365  1  0.28732940  0.58382905  0.44444015  1
  O  O366  1  0.28648275  0.58481573  0.69179721  1
  O  O367  1  0.28691207  0.58503019  0.94142351  1
  O  O368  1  0.28794382  0.91603567  0.19111567  1
  O  O369  1  0.28678587  0.91608597  0.44280136  1
  O  O370  1  0.28625770  0.91532392  0.69198714  1
  O  O371  1  0.28686985  0.91475660  0.94167597  1
  O  O372  1  0.78687818  0.24814237  0.19253208  1
  O  O373  1  0.78629995  0.24826214  0.44199697  1
  O  O374  1  0.78733612  0.24853129  0.69098917  1
  O  O375  1  0.78789341  0.24928267  0.94164456  1
  O  O376  1  0.78700375  0.58111684  0.19267419  1
  O  O377  1  0.78717882  0.58422492  0.44247876  1
  O  O378  1  0.78769179  0.58535575  0.69129472  1
  O  O379  1  0.78765340  0.58287983  0.94280251  1
  O  O380  1  0.78677904  0.91591148  0.19290060  1
  O  O381  1  0.78658425  0.91624462  0.44351305  1
  O  O382  1  0.78631849  0.91618503  0.69280310  1
  O  O383  1  0.78691790  0.91711672  0.94197972  1
  O  O384  1  0.22803961  0.24824831  0.05801714  1
  O  O385  1  0.22850434  0.25046135  0.30688230  1
  O  O386  1  0.22751393  0.25066523  0.56015325  1
  O  O387  1  0.22792501  0.25263198  0.80789584  1
  O  O388  1  0.22787945  0.58542335  0.05718352  1
  O  O389  1  0.22830360  0.58390323  0.30648444  1
  O  O390  1  0.22740584  0.58419698  0.55980819  1
  O  O391  1  0.22795509  0.58521480  0.80797722  1
  O  O392  1  0.22808252  0.91511650  0.05755872  1
  O  O393  1  0.22815397  0.91659394  0.30597562  1
  O  O394  1  0.22753130  0.91536740  0.55821358  1
  O  O395  1  0.22767202  0.91492535  0.80791167  1
  O  O396  1  0.72846213  0.24922992  0.05665939  1
  O  O397  1  0.72777669  0.24778394  0.30814756  1
  O  O398  1  0.72759272  0.24834614  0.55787804  1
  O  O399  1  0.72832375  0.24883580  0.80635590  1
  O  O400  1  0.72822480  0.58139996  0.05815915  1
  O  O401  1  0.72825919  0.58156669  0.30851572  1
  O  O402  1  0.72817814  0.58560232  0.55805782  1
  O  O403  1  0.72848068  0.58448912  0.80646268  1
  O  O404  1  0.72799174  0.91790014  0.05786617  1
  O  O405  1  0.72774035  0.91484299  0.30867690  1
  O  O406  1  0.72714988  0.91590355  0.55924014  1
  O  O407  1  0.72749719  0.91607398  0.80900677  1
  O  O408  1  0.27191448  0.08470805  0.19169863  1
  O  O409  1  0.27110385  0.08333717  0.44384449  1
  O  O410  1  0.27110074  0.08502677  0.69202854  1
  O  O411  1  0.27132087  0.08322177  0.94288319  1
  O  O412  1  0.27099848  0.41718670  0.19316276  1
  O  O413  1  0.27214605  0.41738752  0.44386768  1
  O  O414  1  0.27340251  0.41676642  0.69153716  1
  O  O415  1  0.27217059  0.41590196  0.94193148  1
  O  O416  1  0.27299854  0.74996426  0.19021538  1
  O  O417  1  0.27145693  0.75017386  0.44374795  1
  O  O418  1  0.27298626  0.75082650  0.69071047  1
  O  O419  1  0.27305039  0.74979216  0.94004720  1
  O  O420  1  0.77188090  0.08043122  0.19173748  1
  O  O421  1  0.77171668  0.08452669  0.44206913  1
  O  O422  1  0.77244748  0.08265250  0.69057260  1
  O  O423  1  0.77182379  0.08046719  0.94150689  1
  O  O424  1  0.77209352  0.41778225  0.19211126  1
  O  O425  1  0.77189540  0.41768541  0.44198816  1
  O  O426  1  0.77150014  0.41684640  0.69290936  1
  O  O427  1  0.77178443  0.41658324  0.94313006  1
  O  O428  1  0.77123953  0.74947388  0.19356903  1
  O  O429  1  0.77221791  0.75160964  0.44216800  1
  O  O430  1  0.77319850  0.75103237  0.69090709  1
  O  O431  1  0.77241965  0.75174968  0.94223197  1
  O  O432  1  0.02188941  0.08147584  0.18320299  1
  O  O433  1  0.02180011  0.08161804  0.43292848  1
  O  O434  1  0.02163479  0.08386635  0.68171297  1
  O  O435  1  0.02186987  0.08489336  0.93352256  1
  O  O436  1  0.02193288  0.41453990  0.18305969  1
  O  O437  1  0.02183493  0.41482025  0.43293097  1
  O  O438  1  0.02279194  0.41678888  0.68446062  1
  O  O439  1  0.02238959  0.41576188  0.93294611  1
  O  O440  1  0.02282638  0.74953272  0.18427040  1
  O  O441  1  0.02168216  0.75017416  0.43179974  1
  O  O442  1  0.02242042  0.74873001  0.68327105  1
  O  O443  1  0.02314844  0.74985773  0.93467400  1
  O  O444  1  0.52281854  0.08261515  0.18428355  1
  O  O445  1  0.52187870  0.08154209  0.43333207  1
  O  O446  1  0.52124350  0.08312066  0.68158292  1
  O  O447  1  0.52102059  0.08345941  0.93142891  1
  O  O448  1  0.52136114  0.41662294  0.18205565  1
  O  O449  1  0.52158678  0.41888703  0.43351035  1
  O  O450  1  0.52310370  0.41703824  0.68446233  1
  O  O451  1  0.52286001  0.41728698  0.93453863  1
  O  O452  1  0.52182872  0.75051493  0.18202961  1
  O  O453  1  0.52242829  0.74940724  0.43466775  1
  O  O454  1  0.52357897  0.75024794  0.68358160  1
  O  O455  1  0.52276176  0.75147514  0.93250515  1
  O  O456  1  0.47786147  0.25164985  0.06687258  1
  O  O457  1  0.47778847  0.24855379  0.31734309  1
  O  O458  1  0.47833928  0.25055009  0.56853879  1
  O  O459  1  0.47787109  0.25213656  0.81691903  1
  O  O460  1  0.47847145  0.58230641  0.06626965  1
  O  O461  1  0.47798204  0.58388540  0.31874104  1
  O  O462  1  0.47717021  0.58338635  0.56642579  1
  O  O463  1  0.47753594  0.58367181  0.81566958  1
  O  O464  1  0.47789235  0.91469219  0.06635932  1
  O  O465  1  0.47766506  0.91869947  0.31699917  1
  O  O466  1  0.47671751  0.91686471  0.56579454  1
  O  O467  1  0.47795401  0.91461835  0.81649858  1
  O  O468  1  0.97707726  0.24984049  0.06540184  1
  O  O469  1  0.97779076  0.25096354  0.31658551  1
  O  O470  1  0.97769543  0.25175382  0.56655772  1
  O  O471  1  0.97816408  0.25227292  0.81672554  1
  O  O472  1  0.97815525  0.58426485  0.06684904  1
  O  O473  1  0.97832609  0.58443702  0.31645751  1
  O  O474  1  0.97822513  0.58274264  0.56847157  1
  O  O475  1  0.97766898  0.58303573  0.81608748  1
  O  O476  1  0.97791286  0.91454423  0.06684808  1
  O  O477  1  0.97733151  0.91588223  0.31518235  1
  O  O478  1  0.97764580  0.91836126  0.56694762  1
  O  O479  1  0.97847785  0.91633263  0.81884377  1
  O  O480  1  0.07234701  0.31327478  0.07336319  1
  O  O481  1  0.07290309  0.31454152  0.32389702  1
  O  O482  1  0.07268988  0.31549548  0.57381068  1
  O  O483  1  0.07338223  0.31526046  0.82394516  1
  O  O484  1  0.07321353  0.64773776  0.07389753  1
  O  O485  1  0.07353597  0.64758642  0.32419464  1
  O  O486  1  0.07343302  0.64644730  0.57628299  1
  O  O487  1  0.07245442  0.64727240  0.82346445  1
  O  O488  1  0.07316922  0.97833489  0.07560542  1
  O  O489  1  0.07215534  0.98012243  0.32256214  1
  O  O490  1  0.07303122  0.98122751  0.57383242  1
  O  O491  1  0.07354712  0.98031093  0.82665976  1
  O  O492  1  0.57316617  0.31423403  0.07477998  1
  O  O493  1  0.57306020  0.31255851  0.32487093  1
  O  O494  1  0.57373699  0.31415119  0.57503180  1
  O  O495  1  0.57327598  0.31515063  0.82433207  1
  O  O496  1  0.57398164  0.64577069  0.07393178  1
  O  O497  1  0.57342282  0.64719552  0.32625731  1
  O  O498  1  0.57203723  0.64732410  0.57418536  1
  O  O499  1  0.57233848  0.64727139  0.82307191  1
  O  O500  1  0.57286998  0.97909762  0.07396902  1
  O  O501  1  0.57323775  0.98080975  0.32456950  1
  O  O502  1  0.57187164  0.98005870  0.57378421  1
  O  O503  1  0.57282544  0.97910136  0.82408271  1
  O  O504  1  0.42768957  0.01925046  0.17613496  1
  O  O505  1  0.42646794  0.01885959  0.42536057  1
  O  O506  1  0.42562613  0.01966533  0.67476375  1
  O  O507  1  0.42571410  0.01978111  0.92457975  1
  O  O508  1  0.42570315  0.35386335  0.17442976  1
  O  O509  1  0.42661704  0.35430534  0.42644735  1
  O  O510  1  0.42786890  0.35402588  0.67676394  1
  O  O511  1  0.42794469  0.35371929  0.92649837  1
  O  O512  1  0.42704375  0.68629331  0.17425333  1
  O  O513  1  0.42681918  0.68684772  0.42760745  1
  O  O514  1  0.42909566  0.68607753  0.67668832  1
  O  O515  1  0.42756850  0.68759457  0.92390832  1
  O  O516  1  0.92709999  0.01771637  0.17526317  1
  O  O517  1  0.92673539  0.01800992  0.42563017  1
  O  O518  1  0.92624650  0.02027129  0.67508243  1
  O  O519  1  0.92662098  0.02110919  0.92515730  1
  O  O520  1  0.92663805  0.35138689  0.17533648  1
  O  O521  1  0.92633909  0.35193687  0.42605680  1
  O  O522  1  0.92769034  0.35293865  0.67663126  1
  O  O523  1  0.92730742  0.35241899  0.92529639  1
  O  O524  1  0.92802235  0.68562244  0.17592688  1
  O  O525  1  0.92640205  0.68647066  0.42438665  1
  O  O526  1  0.92726912  0.68556096  0.67667767  1
  O  O527  1  0.92831345  0.68570290  0.92716357  1
  O  O528  1  0.17659428  0.02086571  0.19940287  1
  O  O529  1  0.17567789  0.02017600  0.45011436  1
  O  O530  1  0.17565631  0.02137048  0.70021941  1
  O  O531  1  0.17596291  0.01981752  0.95082198  1
  O  O532  1  0.17556653  0.35373403  0.20014759  1
  O  O533  1  0.17689474  0.35380231  0.45150803  1
  O  O534  1  0.17766039  0.35421459  0.69873298  1
  O  O535  1  0.17740673  0.35203150  0.94869744  1
  O  O536  1  0.17785363  0.68652567  0.19711283  1
  O  O537  1  0.17617602  0.68649068  0.45062931  1
  O  O538  1  0.17843269  0.68657093  0.69878885  1
  O  O539  1  0.17798959  0.68638436  0.94803412  1
  O  O540  1  0.67683589  0.01737806  0.19970156  1
  O  O541  1  0.67664878  0.02056580  0.45052123  1
  O  O542  1  0.67748856  0.01876613  0.69768832  1
  O  O543  1  0.67622959  0.01789181  0.94795989  1
  O  O544  1  0.67704625  0.35367500  0.20067600  1
  O  O545  1  0.67618579  0.35463570  0.44963326  1
  O  O546  1  0.67602289  0.35344548  0.69963915  1
  O  O547  1  0.67646032  0.35311103  0.95062297  1
  O  O548  1  0.67600390  0.68597368  0.20113900  1
  O  O549  1  0.67682965  0.68813160  0.45092678  1
  O  O550  1  0.67851500  0.68686886  0.69856693  1
  O  O551  1  0.67718844  0.68754078  0.94907017  1
  O  O552  1  0.32323394  0.31258509  0.05055942  1
  O  O553  1  0.32400824  0.31360611  0.29985965  1
  O  O554  1  0.32294316  0.31390625  0.55212935  1
  O  O555  1  0.32307044  0.31559278  0.80099695  1
  O  O556  1  0.32336408  0.64825952  0.04985498  1
  O  O557  1  0.32367619  0.64757101  0.30022859  1
  O  O558  1  0.32251123  0.64767987  0.55261632  1
  O  O559  1  0.32300160  0.64857509  0.80002822  1
  O  O560  1  0.32349164  0.97844572  0.04920440  1
  O  O561  1  0.32334008  0.98020621  0.29944708  1
  O  O562  1  0.32285438  0.97921543  0.55076924  1
  O  O563  1  0.32251890  0.97928264  0.79953587  1
  O  O564  1  0.82401393  0.31243970  0.04998150  1
  O  O565  1  0.82318395  0.31127873  0.30033282  1
  O  O566  1  0.82277110  0.31217838  0.54940680  1
  O  O567  1  0.82344507  0.31265448  0.79884630  1
  O  O568  1  0.82311676  0.64598772  0.05095461  1
  O  O569  1  0.82349931  0.64520708  0.29999702  1
  O  O570  1  0.82327738  0.64865241  0.55054488  1
  O  O571  1  0.82426653  0.64741827  0.80020939  1
  O  O572  1  0.82334474  0.98052100  0.05086023  1
  O  O573  1  0.82316546  0.97841958  0.30115714  1
  O  O574  1  0.82120733  0.98074202  0.55179362  1
  O  O575  1  0.82238172  0.98004434  0.80089308  1
  O  O576  1  0.42832209  0.14686862  0.17676638  1
  O  O577  1  0.42682638  0.14578292  0.42516368  1
  O  O578  1  0.42593445  0.14656946  0.67415748  1
  O  O579  1  0.42546408  0.14679095  0.92463394  1
  O  O580  1  0.42621242  0.48057708  0.17418441  1
  O  O581  1  0.42606462  0.48153019  0.42679884  1
  O  O582  1  0.42843713  0.48133466  0.67757416  1
  O  O583  1  0.42798074  0.48105024  0.92553206  1
  O  O584  1  0.42601695  0.81314242  0.17466466  1
  O  O585  1  0.42807052  0.81422844  0.42737739  1
  O  O586  1  0.42817173  0.81326966  0.67561549  1
  O  O587  1  0.42768438  0.81451604  0.92505262  1
  O  O588  1  0.92631931  0.14483804  0.17558082  1
  O  O589  1  0.92655900  0.14517131  0.42430261  1
  O  O590  1  0.92630021  0.14714555  0.67368098  1
  O  O591  1  0.92698549  0.14843456  0.92612916  1
  O  O592  1  0.92706119  0.47857786  0.17455472  1
  O  O593  1  0.92693962  0.47899970  0.42522917  1
  O  O594  1  0.92782952  0.48026312  0.67655184  1
  O  O595  1  0.92699972  0.47932168  0.92498392  1
  O  O596  1  0.92756629  0.81279973  0.17605678  1
  O  O597  1  0.92620507  0.81318153  0.42431987  1
  O  O598  1  0.92722958  0.81279058  0.67620286  1
  O  O599  1  0.92791968  0.81303668  0.92646341  1
  O  O600  1  0.07156436  0.18586847  0.07374816  1
  O  O601  1  0.07309215  0.18744697  0.32508866  1
  O  O602  1  0.07300267  0.18836854  0.57480450  1
  O  O603  1  0.07331624  0.18831913  0.82453770  1
  O  O604  1  0.07342760  0.52070315  0.07508586  1
  O  O605  1  0.07340939  0.52028511  0.32446349  1
  O  O606  1  0.07368352  0.51972743  0.57630034  1
  O  O607  1  0.07291519  0.51988898  0.82377650  1
  O  O608  1  0.07298097  0.85137275  0.07464186  1
  O  O609  1  0.07262753  0.85280598  0.32359271  1
  O  O610  1  0.07263645  0.85400209  0.57459213  1
  O  O611  1  0.07422870  0.85339724  0.82537828  1
  O  O612  1  0.57293842  0.18710492  0.07447848  1
  O  O613  1  0.57287751  0.18526648  0.32399613  1
  O  O614  1  0.57377559  0.18727760  0.57623450  1
  O  O615  1  0.57292184  0.18798791  0.82526476  1
  O  O616  1  0.57327422  0.51865119  0.07345404  1
  O  O617  1  0.57334698  0.52046374  0.32625188  1
  O  O618  1  0.57233636  0.52006732  0.57402693  1
  O  O619  1  0.57268727  0.52001688  0.82303735  1
  O  O620  1  0.57314830  0.85193955  0.07439042  1
  O  O621  1  0.57234552  0.85386064  0.32570394  1
  O  O622  1  0.57146924  0.85268900  0.57268624  1
  O  O623  1  0.57359897  0.85209124  0.82294600  1
  O  O624  1  0.32327360  0.18538626  0.05064974  1
  O  O625  1  0.32399153  0.18674631  0.30085368  1
  O  O626  1  0.32206547  0.18634651  0.55245116  1
  O  O627  1  0.32313822  0.18858767  0.79957597  1
  O  O628  1  0.32271570  0.52107112  0.04922927  1
  O  O629  1  0.32375430  0.52071392  0.29955428  1
  O  O630  1  0.32223361  0.52030430  0.55318788  1
  O  O631  1  0.32322854  0.52162415  0.79983794  1
  O  O632  1  0.32298471  0.85132681  0.05027189  1
  O  O633  1  0.32385882  0.85330273  0.30000617  1
  O  O634  1  0.32269130  0.85206562  0.55105376  1
  O  O635  1  0.32316745  0.85212867  0.80039145  1
  O  O636  1  0.82365032  0.18543910  0.04959706  1
  O  O637  1  0.82266362  0.18397124  0.30064438  1
  O  O638  1  0.82276248  0.18500205  0.55071721  1
  O  O639  1  0.82395409  0.18566580  0.79942916  1
  O  O640  1  0.82369166  0.51867051  0.05094586  1
  O  O641  1  0.82341715  0.51810835  0.30156814  1
  O  O642  1  0.82353565  0.52141542  0.55054634  1
  O  O643  1  0.82359131  0.52059186  0.79892230  1
  O  O644  1  0.82308501  0.85365992  0.05026570  1
  O  O645  1  0.82257128  0.85132339  0.30099030  1
  O  O646  1  0.82315226  0.85356816  0.55202894  1
  O  O647  1  0.82270799  0.85288725  0.80143181  1
  O  O648  1  0.17680378  0.14813174  0.19863432  1
  O  O649  1  0.17565508  0.14711485  0.45053127  1
  O  O650  1  0.17634342  0.14876379  0.69938139  1
  O  O651  1  0.17581398  0.14669677  0.95001374  1
  O  O652  1  0.17562514  0.48065163  0.19970495  1
  O  O653  1  0.17661537  0.48058320  0.45149006  1
  O  O654  1  0.17921788  0.48151002  0.69938834  1
  O  O655  1  0.17661350  0.47930984  0.94937264  1
  O  O656  1  0.17814563  0.81394065  0.19718650  1
  O  O657  1  0.17580437  0.81320207  0.45013892  1
  O  O658  1  0.17754013  0.81376024  0.69907027  1
  O  O659  1  0.17809509  0.81350065  0.94816017  1
  O  O660  1  0.67667603  0.14453063  0.19925364  1
  O  O661  1  0.67648495  0.14752607  0.44912354  1
  O  O662  1  0.67742857  0.14618718  0.69874258  1
  O  O663  1  0.67690199  0.14489823  0.94962863  1
  O  O664  1  0.67680600  0.48091368  0.19918875  1
  O  O665  1  0.67722730  0.48196394  0.44942987  1
  O  O666  1  0.67611355  0.48044273  0.69990674  1
  O  O667  1  0.67629994  0.48004896  0.94992340  1
  O  O668  1  0.67564791  0.81283147  0.20040206  1
  O  O669  1  0.67736129  0.81509028  0.45012945  1
  O  O670  1  0.67765469  0.81407542  0.69799771  1
  O  O671  1  0.67717958  0.81470294  0.94873941  1
