# generated using pymatgen
data_Na2MnFe(PO4)2
_symmetry_space_group_name_H-M   'P 1'
_cell_length_a   22.34523823
_cell_length_b   20.09836523
_cell_length_c   19.44709536
_cell_angle_alpha   90.01459042
_cell_angle_beta   89.98548884
_cell_angle_gamma   89.96954135
_symmetry_Int_Tables_number   1
_chemical_formula_structural   Na2MnFe(PO4)2
_chemical_formula_sum   'Na96 Mn48 Fe48 P96 O384'
_cell_volume   8733.74238378
_cell_formula_units_Z   48
loop_
 _symmetry_equiv_pos_site_id
 _symmetry_equiv_pos_as_xyz
  1  'x, y, z'
loop_
 _atom_site_type_symbol
 _atom_site_label
 _atom_site_symmetry_multiplicity
 _atom_site_fract_x
 _atom_site_fract_y
 _atom_site_fract_z
 _atom_site_occupancy
  Na  Na0  1  0.14019871  0.25093933  0.24395969  1
  Na  Na1  1  0.13988672  0.24924697  0.49306021  1
  Na  Na2  1  0.13959304  0.24899042  0.74443008  1
  Na  Na3  1  0.13993738  0.24977867  0.99463498  1
  Na  Na4  1  0.14080694  0.58303688  0.24419450  1
  Na  Na5  1  0.14092659  0.58237083  0.49500634  1
  Na  Na6  1  0.14005065  0.58442835  0.74403132  1
  Na  Na7  1  0.14009818  0.58279144  0.99453799  1
  Na  Na8  1  0.13976943  0.91721808  0.24314284  1
  Na  Na9  1  0.14004601  0.91532546  0.49360122  1
  Na  Na10  1  0.14074985  0.91553121  0.74323774  1
  Na  Na11  1  0.14070302  0.91719512  0.99528920  1
  Na  Na12  1  0.64012152  0.24999357  0.24187785  1
  Na  Na13  1  0.64025212  0.24904538  0.49385121  1
  Na  Na14  1  0.64039107  0.24988596  0.74414979  1
  Na  Na15  1  0.64012496  0.25101764  0.99297653  1
  Na  Na16  1  0.64092872  0.58345187  0.24230126  1
  Na  Na17  1  0.64070760  0.58253223  0.49458564  1
  Na  Na18  1  0.64028223  0.58308693  0.74371466  1
  Na  Na19  1  0.64060301  0.58373688  0.99090488  1
  Na  Na20  1  0.64105467  0.91885400  0.24249137  1
  Na  Na21  1  0.64026479  0.91700195  0.49499350  1
  Na  Na22  1  0.64064943  0.91718241  0.74270360  1
  Na  Na23  1  0.64072583  0.91748211  0.99309530  1
  Na  Na24  1  0.35983025  0.08399878  0.00645089  1
  Na  Na25  1  0.36016196  0.08400263  0.25595880  1
  Na  Na26  1  0.35969187  0.08177945  0.50491742  1
  Na  Na27  1  0.35959991  0.08266406  0.75637315  1
  Na  Na28  1  0.36009170  0.41659949  0.00700283  1
  Na  Na29  1  0.36017857  0.41641570  0.25486896  1
  Na  Na30  1  0.36012513  0.41638040  0.50635347  1
  Na  Na31  1  0.36000051  0.41644434  0.75772417  1
  Na  Na32  1  0.36009661  0.74895684  0.00606841  1
  Na  Na33  1  0.35960483  0.75010970  0.25482646  1
  Na  Na34  1  0.35982579  0.74985484  0.50687097  1
  Na  Na35  1  0.36021485  0.74974964  0.75648577  1
  Na  Na36  1  0.85873710  0.08410312  0.00676301  1
  Na  Na37  1  0.85947752  0.08461220  0.25660015  1
  Na  Na38  1  0.85880551  0.08353307  0.50742061  1
  Na  Na39  1  0.85931212  0.08386733  0.75614428  1
  Na  Na40  1  0.85965211  0.41613398  0.00658041  1
  Na  Na41  1  0.85965769  0.41592474  0.25608019  1
  Na  Na42  1  0.85966762  0.41492857  0.50655049  1
  Na  Na43  1  0.85915294  0.41555143  0.75729022  1
  Na  Na44  1  0.85929365  0.75112115  0.00572485  1
  Na  Na45  1  0.85923791  0.75254807  0.25644236  1
  Na  Na46  1  0.85973626  0.75098522  0.50674547  1
  Na  Na47  1  0.85958820  0.74930912  0.75713011  1
  Na  Na48  1  0.10994614  0.08355997  0.11906202  1
  Na  Na49  1  0.10899447  0.08353884  0.36789575  1
  Na  Na50  1  0.10891648  0.08367659  0.61844547  1
  Na  Na51  1  0.10965140  0.08369339  0.86968237  1
  Na  Na52  1  0.10924895  0.41644877  0.11927943  1
  Na  Na53  1  0.10997100  0.41662598  0.36992129  1
  Na  Na54  1  0.10928364  0.41551114  0.61872077  1
  Na  Na55  1  0.10910990  0.41650006  0.86991012  1
  Na  Na56  1  0.10928847  0.74951561  0.11911130  1
  Na  Na57  1  0.10944643  0.75099821  0.36947540  1
  Na  Na58  1  0.10983387  0.74858654  0.61867644  1
  Na  Na59  1  0.11024096  0.74899635  0.86884235  1
  Na  Na60  1  0.61030883  0.08474664  0.11779044  1
  Na  Na61  1  0.60988451  0.08410794  0.36718428  1
  Na  Na62  1  0.61008718  0.08283066  0.61876903  1
  Na  Na63  1  0.60988593  0.08465014  0.86800309  1
  Na  Na64  1  0.60968324  0.41575282  0.11668520  1
  Na  Na65  1  0.61027011  0.41543113  0.36791119  1
  Na  Na66  1  0.61005271  0.41613381  0.62014051  1
  Na  Na67  1  0.60980438  0.41729357  0.86825608  1
  Na  Na68  1  0.60995652  0.75007837  0.11698436  1
  Na  Na69  1  0.60980243  0.75104234  0.36851086  1
  Na  Na70  1  0.61012257  0.75037678  0.62013173  1
  Na  Na71  1  0.60991093  0.74959971  0.86687465  1
  Na  Na72  1  0.39069492  0.24904844  0.13134152  1
  Na  Na73  1  0.39051797  0.25034359  0.37971961  1
  Na  Na74  1  0.39038035  0.24980529  0.63167744  1
  Na  Na75  1  0.39060144  0.25066733  0.88206171  1
  Na  Na76  1  0.39046375  0.58230407  0.13000179  1
  Na  Na77  1  0.39091424  0.58332655  0.38010875  1
  Na  Na78  1  0.39111563  0.58369130  0.63284925  1
  Na  Na79  1  0.39064723  0.58311391  0.88171994  1
  Na  Na80  1  0.39069042  0.91776909  0.13137932  1
  Na  Na81  1  0.39021091  0.91743312  0.37999504  1
  Na  Na82  1  0.39041128  0.91537078  0.63213874  1
  Na  Na83  1  0.39107707  0.91665201  0.88082101  1
  Na  Na84  1  0.88920078  0.25009537  0.13189898  1
  Na  Na85  1  0.88995493  0.25165978  0.38211277  1
  Na  Na86  1  0.88943665  0.25003333  0.63136998  1
  Na  Na87  1  0.88927171  0.25012957  0.88208807  1
  Na  Na88  1  0.89022116  0.58263257  0.13056915  1
  Na  Na89  1  0.89067637  0.58354257  0.38153615  1
  Na  Na90  1  0.89047301  0.58247217  0.63133721  1
  Na  Na91  1  0.88993427  0.58280127  0.88202302  1
  Na  Na92  1  0.88963856  0.91699090  0.13235857  1
  Na  Na93  1  0.88979521  0.91850317  0.38171265  1
  Na  Na94  1  0.89002265  0.91608459  0.63215316  1
  Na  Na95  1  0.89003878  0.91621874  0.88099307  1
  Mn  Mn96  1  0.50136247  0.49907083  0.24917332  1
  Mn  Mn97  1  0.00022317  0.00043649  0.75006927  1
  Mn  Mn98  1  0.75043066  0.66792548  0.12364357  1
  Mn  Mn99  1  0.50057461  0.66682430  0.50036320  1
  Mn  Mn100  1  0.25040377  0.33252703  0.62581026  1
  Mn  Mn101  1  -0.00083379  0.33228830  0.74956753  1
  Mn  Mn102  1  -0.00114558  0.16705873  0.00074386  1
  Mn  Mn103  1  0.00025288  0.83316810  0.00030905  1
  Mn  Mn104  1  0.74992680  0.00055316  0.87497426  1
  Mn  Mn105  1  0.75045985  0.49873998  0.37407396  1
  Mn  Mn106  1  0.50035342  0.33331368  0.49980863  1
  Mn  Mn107  1  0.25039793  0.66628048  0.37527891  1
  Mn  Mn108  1  0.24930359  -0.00140427  0.62554566  1
  Mn  Mn109  1  0.49976692  0.16672635  0.49967133  1
  Mn  Mn110  1  0.50053408  0.66629306  0.24901017  1
  Mn  Mn111  1  -0.00085342  0.49970678  0.75007952  1
  Mn  Mn112  1  0.75067593  0.49872403  0.62477046  1
  Mn  Mn113  1  0.24952255  0.83359225  0.37466720  1
  Mn  Mn114  1  0.24954685  0.50060036  0.87569997  1
  Mn  Mn115  1  0.49994200  0.16715341  0.74996734  1
  Mn  Mn116  1  0.00023918  0.66729195  0.25120077  1
  Mn  Mn117  1  0.75077134  0.66698205  0.62508956  1
  Mn  Mn118  1  0.50081798  0.83309491  -0.00065025  1
  Mn  Mn119  1  0.50068067  0.00105673  -0.00029536  1
  Mn  Mn120  1  0.24957588  0.33228764  0.87619445  1
  Mn  Mn121  1  0.74985542  0.66724079  0.37461908  1
  Mn  Mn122  1  0.00004067  0.16764235  0.25018355  1
  Mn  Mn123  1  0.74946420  0.83520189  0.37560823  1
  Mn  Mn124  1  0.25167069  0.49927965  0.37518445  1
  Mn  Mn125  1  -0.00088478  0.66593297  0.00061422  1
  Mn  Mn126  1  0.25037353  0.83258420  0.87539777  1
  Mn  Mn127  1  0.50003959  0.83362019  0.49997756  1
  Mn  Mn128  1  0.50045223  0.49970736  0.50022725  1
  Mn  Mn129  1  0.25028517  0.00042308  0.87467233  1
  Mn  Mn130  1  0.24979460  0.50033247  0.62590753  1
  Mn  Mn131  1  0.00053411  0.83212351  0.75052295  1
  Mn  Mn132  1  -0.00016575  0.00039640  0.50021649  1
  Mn  Mn133  1  0.24998497  0.16625051  0.37469417  1
  Mn  Mn134  1  0.49963438  0.83396046  0.24870169  1
  Mn  Mn135  1  -0.00017312  0.66671509  0.49981628  1
  Mn  Mn136  1  0.50011931  0.00001387  0.49945767  1
  Mn  Mn137  1  0.24990308  0.16559776  0.62402023  1
  Mn  Mn138  1  0.25020607  0.83342063  0.12491510  1
  Mn  Mn139  1  0.00016519  0.49896602  0.25093581  1
  Mn  Mn140  1  -0.00034598  -0.00007223  0.00010658  1
  Mn  Mn141  1  0.24989465  0.33340752  0.12475722  1
  Mn  Mn142  1  0.74999156  0.16672624  0.37507252  1
  Mn  Mn143  1  0.75023499  0.49972847  0.12397281  1
  Fe  Fe144  1  0.25071476  0.66681690  0.62505179  1
  Fe  Fe145  1  0.50016139  0.66607320  -0.00138169  1
  Fe  Fe146  1  0.74987563  0.00009196  0.62547369  1
  Fe  Fe147  1  0.50034628  0.49971518  -0.00086063  1
  Fe  Fe148  1  0.74976137  0.00077738  0.37519226  1
  Fe  Fe149  1  0.74975100  0.16768347  0.12485962  1
  Fe  Fe150  1  0.50050443  0.83309293  0.75049237  1
  Fe  Fe151  1  -0.00048267  0.16691396  0.75024874  1
  Fe  Fe152  1  -0.00027431  0.66569650  0.74998990  1
  Fe  Fe153  1  0.74949665  0.16712548  0.87527268  1
  Fe  Fe154  1  0.50040933  0.66624680  0.75033543  1
  Fe  Fe155  1  -0.00049787  0.33371176  0.25097609  1
  Fe  Fe156  1  -0.00058901  0.83359873  0.50013488  1
  Fe  Fe157  1  0.24960088  0.16625088  0.87543906  1
  Fe  Fe158  1  0.25003886  0.33324571  0.37447719  1
  Fe  Fe159  1  -0.00006004  0.33325946  0.50055896  1
  Fe  Fe160  1  0.24973580  0.50018890  0.12552922  1
  Fe  Fe161  1  0.49990594  0.33341397  -0.00037807  1
  Fe  Fe162  1  0.75028172  0.49957780  0.87456927  1
  Fe  Fe163  1  0.24961424  0.66630500  0.12537008  1
  Fe  Fe164  1  0.74933102  0.33262976  0.37488287  1
  Fe  Fe165  1  0.75023932  0.83437311  0.87487390  1
  Fe  Fe166  1  0.74999616  0.66749586  0.87427714  1
  Fe  Fe167  1  0.74932427  0.83425369  0.12431759  1
  Fe  Fe168  1  0.50063196  0.16714095  0.24869637  1
  Fe  Fe169  1  -0.00059101  0.16744546  0.49954853  1
  Fe  Fe170  1  0.25008892  0.66666063  0.87537255  1
  Fe  Fe171  1  0.74990818  0.83352362  0.62543179  1
  Fe  Fe172  1  0.75029007  0.00110264  0.12476827  1
  Fe  Fe173  1  -0.00066165  0.83404685  0.25014644  1
  Fe  Fe174  1  0.49983459  0.49973092  0.75086333  1
  Fe  Fe175  1  -0.00022536  0.33299587  0.00038812  1
  Fe  Fe176  1  0.50005999  0.00034135  0.74993427  1
  Fe  Fe177  1  0.24967973  -0.00024308  0.37448408  1
  Fe  Fe178  1  0.25023495  0.16689798  0.12569013  1
  Fe  Fe179  1  0.50020715  0.33388358  0.75112281  1
  Fe  Fe180  1  -0.00048713  0.00061375  0.25077370  1
  Fe  Fe181  1  0.00015911  0.49965235  0.50039469  1
  Fe  Fe182  1  0.74947329  0.16646868  0.62525522  1
  Fe  Fe183  1  -0.00002227  0.49927568  0.00066430  1
  Fe  Fe184  1  0.25062431  0.00077676  0.12449259  1
  Fe  Fe185  1  0.25047647  0.83260779  0.62468328  1
  Fe  Fe186  1  0.74943481  0.33241917  0.62583018  1
  Fe  Fe187  1  0.75003872  0.33276172  0.87510114  1
  Fe  Fe188  1  0.50066561  0.00077616  0.24949409  1
  Fe  Fe189  1  0.74958214  0.33372492  0.12419159  1
  Fe  Fe190  1  0.49975011  0.16717755  -0.00050246  1
  Fe  Fe191  1  0.49993228  0.33277549  0.24846810  1
  P  P192  1  0.04163032  0.25145024  0.10332582  1
  P  P193  1  0.04182174  0.25185654  0.35354686  1
  P  P194  1  0.04125713  0.24940299  0.60189456  1
  P  P195  1  0.04142994  0.24917090  0.85316996  1
  P  P196  1  0.04195737  0.58169359  0.10303287  1
  P  P197  1  0.04303085  0.58291003  0.35416875  1
  P  P198  1  0.04203600  0.58196056  0.60279020  1
  P  P199  1  0.04176974  0.58358100  0.85304640  1
  P  P200  1  0.04215767  0.91684283  0.10452718  1
  P  P201  1  0.04095619  0.91685589  0.35206588  1
  P  P202  1  0.04195514  0.91536187  0.60243870  1
  P  P203  1  0.04332412  0.91660408  0.85318837  1
  P  P204  1  0.54127600  0.24998201  0.10130500  1
  P  P205  1  0.54165679  0.25029236  0.35041129  1
  P  P206  1  0.54272197  0.25021286  0.60360374  1
  P  P207  1  0.54200828  0.25171721  0.85343621  1
  P  P208  1  0.54226002  0.58289225  0.10017549  1
  P  P209  1  0.54389730  0.58313496  0.35249463  1
  P  P210  1  0.54292659  0.58304548  0.60448562  1
  P  P211  1  0.54129495  0.58306336  0.85214905  1
  P  P212  1  0.54301016  0.91750993  0.10279500  1
  P  P213  1  0.54258323  0.91809951  0.35147416  1
  P  P214  1  0.54228583  0.91683391  0.60420778  1
  P  P215  1  0.54192581  0.91728455  0.85125211  1
  P  P216  1  0.45919798  0.08385265  0.14761014  1
  P  P217  1  0.45774134  0.08371284  0.39527633  1
  P  P218  1  0.45750119  0.08221413  0.64765925  1
  P  P219  1  0.45804126  0.08472784  0.89696533  1
  P  P220  1  0.45844794  0.41501489  0.14587263  1
  P  P221  1  0.45763343  0.41625008  0.39609783  1
  P  P222  1  0.45858203  0.41643411  0.64925256  1
  P  P223  1  0.45861061  0.41672059  0.89786533  1
  P  P224  1  0.45753999  0.74921261  0.14528829  1
  P  P225  1  0.45725887  0.75029956  0.39660867  1
  P  P226  1  0.45918080  0.74970625  0.64899782  1
  P  P227  1  0.45863952  0.74871218  0.89631602  1
  P  P228  1  0.95752746  0.08272286  0.14823884  1
  P  P229  1  0.95748495  0.08492125  0.39756328  1
  P  P230  1  0.95770779  0.08512258  0.64719983  1
  P  P231  1  0.95645852  0.08380559  0.89671140  1
  P  P232  1  0.95778198  0.41502983  0.14726475  1
  P  P233  1  0.95838863  0.41645342  0.39884489  1
  P  P234  1  0.95680771  0.41603880  0.64627814  1
  P  P235  1  0.95815585  0.41632739  0.89886433  1
  P  P236  1  0.95742248  0.75084629  0.14816337  1
  P  P237  1  0.95748564  0.75225912  0.39734418  1
  P  P238  1  0.95766721  0.74816090  0.64758496  1
  P  P239  1  0.95729576  0.74920144  0.89670625  1
  P  P240  1  0.20857809  0.08328671  0.22682476  1
  P  P241  1  0.20714011  0.08140791  0.47686297  1
  P  P242  1  0.20665502  0.08329644  0.72840167  1
  P  P243  1  0.20789151  0.08439104  0.97848750  1
  P  P244  1  0.20790020  0.41749745  0.22787260  1
  P  P245  1  0.20829592  0.41509741  0.47764584  1
  P  P246  1  0.20691088  0.41641096  0.72884353  1
  P  P247  1  0.20730344  0.41692577  0.97917724  1
  P  P248  1  0.20750151  0.74913366  0.22737475  1
  P  P249  1  0.20755904  0.74970099  0.47894131  1
  P  P250  1  0.20880024  0.74966747  0.72685874  1
  P  P251  1  0.20800009  0.74827380  0.97830275  1
  P  P252  1  0.70897688  0.08432646  0.22635987  1
  P  P253  1  0.70748108  0.08219203  0.47804272  1
  P  P254  1  0.70870032  0.08363982  0.72700157  1
  P  P255  1  0.70784228  0.08522345  0.97794776  1
  P  P256  1  0.70750815  0.41523767  0.22682069  1
  P  P257  1  0.70789123  0.41447157  0.47768721  1
  P  P258  1  0.70846761  0.41506035  0.72852205  1
  P  P259  1  0.70890059  0.41609969  0.97616312  1
  P  P260  1  0.70759122  0.75213471  0.22666199  1
  P  P261  1  0.70728797  0.75073112  0.47868725  1
  P  P262  1  0.70856596  0.75132544  0.72839574  1
  P  P263  1  0.70861055  0.75123802  0.97592787  1
  P  P264  1  0.29215923  0.24821270  0.02265132  1
  P  P265  1  0.29193015  0.25086010  0.27191980  1
  P  P266  1  0.29291893  0.24974103  0.52111788  1
  P  P267  1  0.29231016  0.24824338  0.77317946  1
  P  P268  1  0.29128068  0.58325077  0.02345623  1
  P  P269  1  0.29310014  0.58316349  0.27090659  1
  P  P270  1  0.29343479  0.58392650  0.52322703  1
  P  P271  1  0.29210539  0.58498656  0.77268221  1
  P  P272  1  0.29278947  0.91790038  0.02247826  1
  P  P273  1  0.29184581  0.91838947  0.27161643  1
  P  P274  1  0.29227877  0.91535361  0.52221381  1
  P  P275  1  0.29296154  0.91563175  0.77168475  1
  P  P276  1  0.79100441  0.25047612  0.02277155  1
  P  P277  1  0.79178859  0.25125253  0.27196500  1
  P  P278  1  0.79069355  0.24970401  0.52366074  1
  P  P279  1  0.79091217  0.24970136  0.77311078  1
  P  P280  1  0.79230378  0.58358747  0.02010117  1
  P  P281  1  0.79306868  0.58357696  0.27132390  1
  P  P282  1  0.79319684  0.58275856  0.52174934  1
  P  P283  1  0.79126028  0.58305033  0.77349715  1
  P  P284  1  0.79116286  0.91729403  0.02315373  1
  P  P285  1  0.79186827  0.91937447  0.27212278  1
  P  P286  1  0.79120375  0.91714024  0.52388640  1
  P  P287  1  0.79203903  0.91601130  0.77200626  1
  O  O288  1  0.03671783  0.25168255  0.18330506  1
  O  O289  1  0.03635959  0.25131450  0.43344245  1
  O  O290  1  0.03618363  0.24865168  0.68190576  1
  O  O291  1  0.03613325  0.25006759  0.93312380  1
  O  O292  1  0.03716239  0.58190707  0.18300258  1
  O  O293  1  0.03759040  0.58257218  0.43409359  1
  O  O294  1  0.03651563  0.58258951  0.68274442  1
  O  O295  1  0.03646182  0.58291720  0.93299829  1
  O  O296  1  0.03661192  0.91704369  0.18446532  1
  O  O297  1  0.03621895  0.91667536  0.43209774  1
  O  O298  1  0.03708740  0.91558737  0.68238516  1
  O  O299  1  0.03819740  0.91667181  0.93318711  1
  O  O300  1  0.53615051  0.24993137  0.18123025  1
  O  O301  1  0.53711525  0.24993480  0.43043427  1
  O  O302  1  0.53774017  0.25056038  0.68355531  1
  O  O303  1  0.53631319  0.25134189  0.93328981  1
  O  O304  1  0.53780009  0.58271428  0.18022141  1
  O  O305  1  0.53879280  0.58324002  0.43251859  1
  O  O306  1  0.53746895  0.58304748  0.68442108  1
  O  O307  1  0.53631443  0.58298760  0.93205920  1
  O  O308  1  0.53753040  0.91795805  0.18269051  1
  O  O309  1  0.53760355  0.91776564  0.43151512  1
  O  O310  1  0.53705460  0.91691826  0.68412924  1
  O  O311  1  0.53733342  0.91721989  0.93127956  1
  O  O312  1  0.46375976  0.08458888  0.06761567  1
  O  O313  1  0.46329627  0.08363867  0.31536922  1
  O  O314  1  0.46248352  0.08258162  0.56763931  1
  O  O315  1  0.46327146  0.08388622  0.81704236  1
  O  O316  1  0.46380181  0.41520503  0.06597816  1
  O  O317  1  0.46266571  0.41588738  0.31612236  1
  O  O318  1  0.46329928  0.41671237  0.56923036  1
  O  O319  1  0.46357377  0.41686120  0.81794871  1
  O  O320  1  0.46300013  0.74872939  0.06531997  1
  O  O321  1  0.46213303  0.75026506  0.31658042  1
  O  O322  1  0.46371448  0.75010942  0.56896584  1
  O  O323  1  0.46422297  0.74878575  0.81642810  1
  O  O324  1  0.96220710  0.08282621  0.06823698  1
  O  O325  1  0.96291961  0.08411201  0.31762413  1
  O  O326  1  0.96322088  0.08525636  0.56724412  1
  O  O327  1  0.96174443  0.08436380  0.81674891  1
  O  O328  1  0.96347174  0.41520714  0.06740096  1
  O  O329  1  0.96334915  0.41588236  0.31882750  1
  O  O330  1  0.96214729  0.41611433  0.56640770  1
  O  O331  1  0.96264575  0.41626403  0.81883086  1
  O  O332  1  0.96243657  0.75043972  0.06814342  1
  O  O333  1  0.96296563  0.75263298  0.31740877  1
  O  O334  1  0.96260411  0.74884449  0.56760679  1
  O  O335  1  0.96255024  0.74849082  0.81675522  1
  O  O336  1  0.21362590  0.08412168  0.05837969  1
  O  O337  1  0.21347161  0.08269052  0.30680473  1
  O  O338  1  0.21201756  0.08161060  0.55683659  1
  O  O339  1  0.21175462  0.08388492  0.80838067  1
  O  O340  1  0.21271028  0.41751197  0.05908554  1
  O  O341  1  0.21346518  0.41668891  0.30779349  1
  O  O342  1  0.21323325  0.41546051  0.55764632  1
  O  O343  1  0.21177103  0.41643775  0.80886508  1
  O  O344  1  0.21327724  0.74820528  0.05823689  1
  O  O345  1  0.21247763  0.74952911  0.30735684  1
  O  O346  1  0.21291809  0.74982536  0.55889665  1
  O  O347  1  0.21363013  0.74939750  0.80690328  1
  O  O348  1  0.71301034  0.08550858  0.05779387  1
  O  O349  1  0.71346129  0.08397680  0.30632437  1
  O  O350  1  0.71263535  0.08232393  0.55789514  1
  O  O351  1  0.71311801  0.08368105  0.80696410  1
  O  O352  1  0.71360730  0.41615259  0.05615156  1
  O  O353  1  0.71243800  0.41525134  0.30680301  1
  O  O354  1  0.71335325  0.41438735  0.55764787  1
  O  O355  1  0.71409589  0.41544671  0.80837185  1
  O  O356  1  0.71333608  0.75130034  0.05592994  1
  O  O357  1  0.71257519  0.75184944  0.30664535  1
  O  O358  1  0.71275027  0.75093031  0.55864336  1
  O  O359  1  0.71389758  0.75130688  0.80828553  1
  O  O360  1  0.28649876  0.25019906  0.19199488  1
  O  O361  1  0.28756426  0.25052176  0.44115181  1
  O  O362  1  0.28744357  0.24854066  0.69315708  1
  O  O363  1  0.28693405  0.24783379  0.94272755  1
  O  O364  1  0.28727407  0.58324266  0.19100831  1
  O  O365  1  0.28873901  0.58331264  0.44319682  1
  O  O366  1  0.28701623  0.58497153  0.69273354  1
  O  O367  1  0.28624489  0.58370786  0.94345585  1
  O  O368  1  0.28663304  0.91858522  0.19164381  1
  O  O369  1  0.28701705  0.91599554  0.44224779  1
  O  O370  1  0.28778132  0.91486025  0.69172442  1
  O  O371  1  0.28777065  0.91760583  0.94249047  1
  O  O372  1  0.78669797  0.25119178  0.19209726  1
  O  O373  1  0.78600859  0.24967548  0.44369440  1
  O  O374  1  0.78584389  0.24968703  0.69325700  1
  O  O375  1  0.78582236  0.25048721  0.94291381  1
  O  O376  1  0.78802059  0.58353353  0.19126896  1
  O  O377  1  0.78805640  0.58278066  0.44179203  1
  O  O378  1  0.78695886  0.58300405  0.69346597  1
  O  O379  1  0.78679568  0.58336447  0.94021566  1
  O  O380  1  0.78682907  0.91908405  0.19229191  1
  O  O381  1  0.78629023  0.91786328  0.44393991  1
  O  O382  1  0.78676728  0.91600901  0.69216221  1
  O  O383  1  0.78628588  0.91705140  0.94318860  1
  O  O384  1  0.22791008  0.24832647  0.05835789  1
  O  O385  1  0.22781275  0.25107025  0.30799371  1
  O  O386  1  0.22849898  0.24964073  0.55638539  1
  O  O387  1  0.22785592  0.24797577  0.80849955  1
  O  O388  1  0.22718017  0.58286751  0.05963943  1
  O  O389  1  0.22902951  0.58265354  0.30701588  1
  O  O390  1  0.22889678  0.58456172  0.55827581  1
  O  O391  1  0.22779550  0.58509148  0.80833380  1
  O  O392  1  0.22849521  0.91791048  0.05793128  1
  O  O393  1  0.22757039  0.91825266  0.30740295  1
  O  O394  1  0.22797928  0.91428495  0.55798017  1
  O  O395  1  0.22862532  0.91607400  0.80698951  1
  O  O396  1  0.72696167  0.25047221  0.05923263  1
  O  O397  1  0.72754891  0.25098134  0.30792777  1
  O  O398  1  0.72655768  0.25005753  0.55963202  1
  O  O399  1  0.72686528  0.25066251  0.80947287  1
  O  O400  1  0.72817695  0.58376489  0.05610329  1
  O  O401  1  0.72862446  0.58307991  0.30630576  1
  O  O402  1  0.72890669  0.58298992  0.55709344  1
  O  O403  1  0.72703542  0.58283487  0.80896578  1
  O  O404  1  0.72702453  0.91718404  0.05907166  1
  O  O405  1  0.72760796  0.91950351  0.30810319  1
  O  O406  1  0.72709541  0.91653923  0.55990729  1
  O  O407  1  0.72786143  0.91606870  0.80810146  1
  O  O408  1  0.27280154  0.08386935  0.19090728  1
  O  O409  1  0.27154535  0.08140354  0.44152722  1
  O  O410  1  0.27108289  0.08258523  0.69328129  1
  O  O411  1  0.27197955  0.08491510  0.94207741  1
  O  O412  1  0.27201420  0.41806634  0.19178336  1
  O  O413  1  0.27266804  0.41430787  0.44220211  1
  O  O414  1  0.27148341  0.41658853  0.69416757  1
  O  O415  1  0.27154248  0.41660709  0.94363642  1
  O  O416  1  0.27182827  0.74896692  0.19197090  1
  O  O417  1  0.27179049  0.75017512  0.44327669  1
  O  O418  1  0.27302989  0.74996497  0.69090870  1
  O  O419  1  0.27225482  0.74818363  0.94247327  1
  O  O420  1  0.77312784  0.08493011  0.19054717  1
  O  O421  1  0.77173362  0.08233205  0.44204757  1
  O  O422  1  0.77278892  0.08389712  0.69110495  1
  O  O423  1  0.77195773  0.08468207  0.94189470  1
  O  O424  1  0.77191913  0.41518445  0.19143527  1
  O  O425  1  0.77208065  0.41412976  0.44164526  1
  O  O426  1  0.77248646  0.41424366  0.69213748  1
  O  O427  1  0.77309764  0.41574477  0.94041202  1
  O  O428  1  0.77195554  0.75254965  0.19118158  1
  O  O429  1  0.77154832  0.75104154  0.44311368  1
  O  O430  1  0.77265713  0.75161170  0.69215092  1
  O  O431  1  0.77283325  0.75159665  0.94021772  1
  O  O432  1  0.02187243  0.08272825  0.18351573  1
  O  O433  1  0.02171476  0.08509640  0.43332250  1
  O  O434  1  0.02185098  0.08537359  0.68328230  1
  O  O435  1  0.02080667  0.08388129  0.93200261  1
  O  O436  1  0.02186932  0.41455010  0.18361480  1
  O  O437  1  0.02253042  0.41660109  0.43491023  1
  O  O438  1  0.02102871  0.41610286  0.68190480  1
  O  O439  1  0.02238968  0.41637506  0.93449680  1
  O  O440  1  0.02177971  0.75129115  0.18350414  1
  O  O441  1  0.02168672  0.75195527  0.43321408  1
  O  O442  1  0.02202183  0.74734336  0.68314698  1
  O  O443  1  0.02159893  0.74914708  0.93205433  1
  O  O444  1  0.52342602  0.08334068  0.18328570  1
  O  O445  1  0.52193268  0.08367620  0.43115002  1
  O  O446  1  0.52190124  0.08226512  0.68301227  1
  O  O447  1  0.52236512  0.08532087  0.93250986  1
  O  O448  1  0.52258970  0.41421867  0.18198223  1
  O  O449  1  0.52207080  0.41652319  0.43130299  1
  O  O450  1  0.52281850  0.41586527  0.68491624  1
  O  O451  1  0.52270058  0.41640260  0.93400816  1
  O  O452  1  0.52183685  0.75004566  0.18066992  1
  O  O453  1  0.52178561  0.75024114  0.43145980  1
  O  O454  1  0.52336282  0.74907801  0.68467867  1
  O  O455  1  0.52278135  0.74831986  0.93240503  1
  O  O456  1  0.47721585  0.25007969  0.06500774  1
  O  O457  1  0.47742918  0.25055232  0.31479125  1
  O  O458  1  0.47832598  0.25013207  0.56838906  1
  O  O459  1  0.47796823  0.25187452  0.81708360  1
  O  O460  1  0.47786702  0.58308776  0.06485694  1
  O  O461  1  0.47945425  0.58275354  0.31745146  1
  O  O462  1  0.47873222  0.58318532  0.56862454  1
  O  O463  1  0.47726863  0.58385836  0.81596649  1
  O  O464  1  0.47876196  0.91713009  0.06728391  1
  O  O465  1  0.47818010  0.91858195  0.31617233  1
  O  O466  1  0.47809042  0.91689798  0.56841513  1
  O  O467  1  0.47764033  0.91775401  0.81587407  1
  O  O468  1  0.97727567  0.25164204  0.06788646  1
  O  O469  1  0.97766265  0.25188527  0.31743368  1
  O  O470  1  0.97704520  0.24990058  0.56599352  1
  O  O471  1  0.97716780  0.24830673  0.81736878  1
  O  O472  1  0.97761069  0.58131133  0.06764119  1
  O  O473  1  0.97874063  0.58323935  0.31872473  1
  O  O474  1  0.97790748  0.58156534  0.56677396  1
  O  O475  1  0.97750183  0.58442125  0.81722095  1
  O  O476  1  0.97793997  0.91656765  0.06875619  1
  O  O477  1  0.97674125  0.91674291  0.31633035  1
  O  O478  1  0.97758330  0.91568124  0.56705318  1
  O  O479  1  0.97889593  0.91638606  0.81821392  1
  O  O480  1  0.07279498  0.31440172  0.07418130  1
  O  O481  1  0.07265733  0.31530278  0.32507424  1
  O  O482  1  0.07212478  0.31333645  0.57437480  1
  O  O483  1  0.07224842  0.31274698  0.82476658  1
  O  O484  1  0.07276862  0.64544207  0.07524148  1
  O  O485  1  0.07408025  0.64654467  0.32627788  1
  O  O486  1  0.07323163  0.64536311  0.57474196  1
  O  O487  1  0.07275870  0.64700122  0.82458088  1
  O  O488  1  0.07323403  0.98020775  0.07597727  1
  O  O489  1  0.07111299  0.98106851  0.32392870  1
  O  O490  1  0.07314917  0.97890917  0.57463944  1
  O  O491  1  0.07409931  0.98015710  0.82499490  1
  O  O492  1  0.57243980  0.31339510  0.07299864  1
  O  O493  1  0.57261554  0.31376991  0.32224351  1
  O  O494  1  0.57387035  0.31339741  0.57493406  1
  O  O495  1  0.57290957  0.31519299  0.82501882  1
  O  O496  1  0.57307747  0.64649774  0.07191949  1
  O  O497  1  0.57467351  0.64665445  0.32411865  1
  O  O498  1  0.57423033  0.64634965  0.57610830  1
  O  O499  1  0.57310469  0.64607751  0.82386851  1
  O  O500  1  0.57417754  0.98078161  0.07440650  1
  O  O501  1  0.57342927  0.98163332  0.32316065  1
  O  O502  1  0.57354093  0.98007791  0.57561729  1
  O  O503  1  0.57311586  0.98075769  0.82327637  1
  O  O504  1  0.42821030  0.02018662  0.17547035  1
  O  O505  1  0.42638473  0.02050163  0.42380151  1
  O  O506  1  0.42691624  0.01865641  0.67614748  1
  O  O507  1  0.42699427  0.02130178  0.92533374  1
  O  O508  1  0.42701985  0.35189039  0.17451050  1
  O  O509  1  0.42670232  0.35292958  0.42479967  1
  O  O510  1  0.42734230  0.35302775  0.67727855  1
  O  O511  1  0.42728788  0.35340153  0.92616626  1
  O  O512  1  0.42675781  0.68580047  0.17385717  1
  O  O513  1  0.42638189  0.68688961  0.42509157  1
  O  O514  1  0.42788975  0.68628505  0.67680137  1
  O  O515  1  0.42745607  0.68547827  0.92503234  1
  O  O516  1  0.92692132  0.01924998  0.17689836  1
  O  O517  1  0.92618420  0.02167959  0.42600292  1
  O  O518  1  0.92707885  0.02099785  0.67456079  1
  O  O519  1  0.92568709  0.01997605  0.92451382  1
  O  O520  1  0.92657921  0.35190536  0.17613306  1
  O  O521  1  0.92746196  0.35302401  0.42740004  1
  O  O522  1  0.92581508  0.35259201  0.67486238  1
  O  O523  1  0.92747337  0.35257184  0.92697952  1
  O  O524  1  0.92664779  0.68708987  0.17601385  1
  O  O525  1  0.92636507  0.68842965  0.42461670  1
  O  O526  1  0.92681370  0.68460847  0.67593912  1
  O  O527  1  0.92573994  0.68631063  0.92539461  1
  O  O528  1  0.17797465  0.01980356  0.19795017  1
  O  O529  1  0.17655783  0.01782321  0.44841921  1
  O  O530  1  0.17547353  0.01968802  0.70061864  1
  O  O531  1  0.17694882  0.02069068  0.95041444  1
  O  O532  1  0.17675955  0.35403641  0.19975957  1
  O  O533  1  0.17714827  0.35186055  0.44916038  1
  O  O534  1  0.17606151  0.35285983  0.70066569  1
  O  O535  1  0.17630187  0.35313229  0.95164128  1
  O  O536  1  0.17684327  0.68546219  0.19917009  1
  O  O537  1  0.17668865  0.68606788  0.45072570  1
  O  O538  1  0.17805982  0.68607347  0.69841388  1
  O  O539  1  0.17702829  0.68507261  0.94942074  1
  O  O540  1  0.67862998  0.02067823  0.19739432  1
  O  O541  1  0.67685609  0.01880004  0.44892795  1
  O  O542  1  0.67848018  0.01961998  0.69861944  1
  O  O543  1  0.67626163  0.02189400  0.94994311  1
  O  O544  1  0.67667143  0.35199419  0.19782758  1
  O  O545  1  0.67679826  0.35122159  0.44901332  1
  O  O546  1  0.67696128  0.35193487  0.70008148  1
  O  O547  1  0.67750515  0.35283623  0.94806707  1
  O  O548  1  0.67681615  0.68842595  0.19853616  1
  O  O549  1  0.67654559  0.68698833  0.45061034  1
  O  O550  1  0.67759047  0.68757752  0.70053971  1
  O  O551  1  0.67851197  0.68710326  0.94748850  1
  O  O552  1  0.32311849  0.31217704  0.04987057  1
  O  O553  1  0.32257437  0.31460476  0.29995168  1
  O  O554  1  0.32435797  0.31254565  0.55032192  1
  O  O555  1  0.32299719  0.31205767  0.80118276  1
  O  O556  1  0.32208387  0.64682974  0.05178818  1
  O  O557  1  0.32405824  0.64669277  0.29923537  1
  O  O558  1  0.32417038  0.64750930  0.55145313  1
  O  O559  1  0.32298912  0.64822771  0.80155308  1
  O  O560  1  0.32340348  0.98155704  0.05081869  1
  O  O561  1  0.32258835  0.98170597  0.30053924  1
  O  O562  1  0.32291332  0.97906250  0.55045370  1
  O  O563  1  0.32402111  0.97932133  0.79934772  1
  O  O564  1  0.82185901  0.31410437  0.05118754  1
  O  O565  1  0.82235546  0.31463968  0.30124023  1
  O  O566  1  0.82206849  0.31282919  0.55214383  1
  O  O567  1  0.82275106  0.31266914  0.80164955  1
  O  O568  1  0.82364996  0.64697393  0.04826934  1
  O  O569  1  0.82364557  0.64732102  0.29939004  1
  O  O570  1  0.82443015  0.64612339  0.54985030  1
  O  O571  1  0.82156545  0.64702809  0.80170337  1
  O  O572  1  0.82153675  0.98133942  0.05133172  1
  O  O573  1  0.82251782  0.98281507  0.30122507  1
  O  O574  1  0.82169562  0.98082786  0.55272337  1
  O  O575  1  0.82310723  0.97963136  0.80011174  1
  O  O576  1  0.42874132  0.14753042  0.17654634  1
  O  O577  1  0.42663156  0.14720882  0.42367751  1
  O  O578  1  0.42636357  0.14580069  0.67552179  1
  O  O579  1  0.42726592  0.14835395  0.92529898  1
  O  O580  1  0.42785525  0.47889134  0.17398688  1
  O  O581  1  0.42666169  0.47978574  0.42448315  1
  O  O582  1  0.42837088  0.48042847  0.67782400  1
  O  O583  1  0.42794095  0.48052620  0.92640350  1
  O  O584  1  0.42603093  0.81269185  0.17301853  1
  O  O585  1  0.42643518  0.81393647  0.42482789  1
  O  O586  1  0.42903472  0.81371593  0.67754011  1
  O  O587  1  0.42761630  0.81249296  0.92414890  1
  O  O588  1  0.92650569  0.14648297  0.17583320  1
  O  O589  1  0.92670887  0.14870853  0.42551079  1
  O  O590  1  0.92640994  0.14820106  0.67590679  1
  O  O591  1  0.92499814  0.14678364  0.92558480  1
  O  O592  1  0.92680633  0.47878244  0.17528052  1
  O  O593  1  0.92767813  0.48043643  0.42644880  1
  O  O594  1  0.92539991  0.47917202  0.67504032  1
  O  O595  1  0.92749356  0.48010470  0.92701796  1
  O  O596  1  0.92651683  0.81439146  0.17639378  1
  O  O597  1  0.92661570  0.81553746  0.42639732  1
  O  O598  1  0.92689701  0.81182101  0.67583350  1
  O  O599  1  0.92654909  0.81312687  0.92444108  1
  O  O600  1  0.07229223  0.18738228  0.07574584  1
  O  O601  1  0.07313544  0.18839631  0.32523730  1
  O  O602  1  0.07218164  0.18609593  0.57295538  1
  O  O603  1  0.07251698  0.18570373  0.82502366  1
  O  O604  1  0.07265695  0.51818623  0.07441969  1
  O  O605  1  0.07419109  0.51962209  0.32572262  1
  O  O606  1  0.07296991  0.51827022  0.57474329  1
  O  O607  1  0.07263463  0.51992373  0.82490899  1
  O  O608  1  0.07360888  0.85349534  0.07628689  1
  O  O609  1  0.07228797  0.85365628  0.32351748  1
  O  O610  1  0.07229305  0.85159801  0.57396342  1
  O  O611  1  0.07460057  0.85315471  0.82525516  1
  O  O612  1  0.57206238  0.18626060  0.07285096  1
  O  O613  1  0.57210563  0.18644972  0.32178876  1
  O  O614  1  0.57348466  0.18651979  0.57531674  1
  O  O615  1  0.57330515  0.18824226  0.82534224  1
  O  O616  1  0.57275841  0.51899397  0.07192924  1
  O  O617  1  0.57505475  0.51972332  0.32424704  1
  O  O618  1  0.57403180  0.51953168  0.57608433  1
  O  O619  1  0.57136449  0.51889248  0.82361442  1
  O  O620  1  0.57418173  0.85399847  0.07473636  1
  O  O621  1  0.57340448  0.85439227  0.32353032  1
  O  O622  1  0.57336444  0.85334868  0.57574549  1
  O  O623  1  0.57206152  0.85309770  0.82314152  1
  O  O624  1  0.32319270  0.18518028  0.05189441  1
  O  O625  1  0.32326958  0.18743690  0.29981305  1
  O  O626  1  0.32363698  0.18568532  0.54855690  1
  O  O627  1  0.32313841  0.18478532  0.80149041  1
  O  O628  1  0.32211624  0.51934927  0.05120678  1
  O  O629  1  0.32479918  0.51994089  0.29902330  1
  O  O630  1  0.32404596  0.52019609  0.55152864  1
  O  O631  1  0.32298496  0.52114392  0.80051078  1
  O  O632  1  0.32397078  0.85426204  0.05008122  1
  O  O633  1  0.32294062  0.85455770  0.29904900  1
  O  O634  1  0.32351537  0.85199895  0.55058625  1
  O  O635  1  0.32412073  0.85253427  0.80057168  1
  O  O636  1  0.82206335  0.18696483  0.05121390  1
  O  O637  1  0.82314384  0.18784737  0.30020903  1
  O  O638  1  0.82084630  0.18557438  0.55200884  1
  O  O639  1  0.82083880  0.18558928  0.80188477  1
  O  O640  1  0.82349152  0.52022007  0.04860431  1
  O  O641  1  0.82438092  0.52018396  0.29937442  1
  O  O642  1  0.82397997  0.51913751  0.54993399  1
  O  O643  1  0.82233902  0.51944852  0.80156655  1
  O  O644  1  0.82230709  0.85392325  0.05157465  1
  O  O645  1  0.82293678  0.85588295  0.30059510  1
  O  O646  1  0.82239071  0.85349274  0.55162584  1
  O  O647  1  0.82307704  0.85276511  0.80097624  1
  O  O648  1  0.17759228  0.14724354  0.19937646  1
  O  O649  1  0.17612393  0.14504213  0.44897624  1
  O  O650  1  0.17578449  0.14652870  0.69939897  1
  O  O651  1  0.17659281  0.14767676  0.95003172  1
  O  O652  1  0.17691560  0.48109286  0.19982406  1
  O  O653  1  0.17783084  0.47910995  0.44988142  1
  O  O654  1  0.17590281  0.47990118  0.70064181  1
  O  O655  1  0.17596692  0.48001411  0.95059029  1
  O  O656  1  0.17649481  0.81273917  0.19945546  1
  O  O657  1  0.17597466  0.81276675  0.45024810  1
  O  O658  1  0.17800459  0.81341611  0.69872870  1
  O  O659  1  0.17712753  0.81222610  0.95075567  1
  O  O660  1  0.67776477  0.14788953  0.19832066  1
  O  O661  1  0.67631072  0.14570365  0.44970706  1
  O  O662  1  0.67739501  0.14695940  0.69862128  1
  O  O663  1  0.67745484  0.14878003  0.94859926  1
  O  O664  1  0.67664992  0.47898614  0.19872128  1
  O  O665  1  0.67709531  0.47838135  0.45002483  1
  O  O666  1  0.67774953  0.47886706  0.70033343  1
  O  O667  1  0.67861886  0.48012449  0.94775058  1
  O  O668  1  0.67674530  0.81563676  0.19828294  1
  O  O669  1  0.67575450  0.81392218  0.45046403  1
  O  O670  1  0.67746764  0.81462940  0.69967799  1
  O  O671  1  0.67718164  0.81451519  0.94773326  1
