# generated using pymatgen
data_Na2MnFe(PO4)2
_symmetry_space_group_name_H-M   'P 1'
_cell_length_a   22.34339770
_cell_length_b   20.09245247
_cell_length_c   19.44978478
_cell_angle_alpha   89.95725076
_cell_angle_beta   90.02781393
_cell_angle_gamma   90.01191635
_symmetry_Int_Tables_number   1
_chemical_formula_structural   Na2MnFe(PO4)2
_chemical_formula_sum   'Na96 Mn48 Fe48 P96 O384'
_cell_volume   8731.65934602
_cell_formula_units_Z   48
loop_
 _symmetry_equiv_pos_site_id
 _symmetry_equiv_pos_as_xyz
  1  'x, y, z'
loop_
 _atom_site_type_symbol
 _atom_site_label
 _atom_site_symmetry_multiplicity
 _atom_site_fract_x
 _atom_site_fract_y
 _atom_site_fract_z
 _atom_site_occupancy
  Na  Na0  1  0.14005531  0.25020269  0.24433423  1
  Na  Na1  1  0.14037845  0.25205856  0.49448391  1
  Na  Na2  1  0.14002079  0.25210856  0.74358089  1
  Na  Na3  1  0.14009645  0.25126084  0.99381671  1
  Na  Na4  1  0.13977906  0.58286437  0.24510916  1
  Na  Na5  1  0.13971024  0.58357047  0.49372415  1
  Na  Na6  1  0.14001680  0.58305700  0.74282240  1
  Na  Na7  1  0.14014269  0.58373732  0.99238901  1
  Na  Na8  1  0.13999463  0.91718891  0.24396013  1
  Na  Na9  1  0.14002937  0.91604924  0.49412380  1
  Na  Na10  1  0.14024614  0.91569414  0.74434919  1
  Na  Na11  1  0.13997457  0.91662616  0.99450389  1
  Na  Na12  1  0.64039465  0.24908069  0.24430636  1
  Na  Na13  1  0.64040696  0.25083096  0.49395087  1
  Na  Na14  1  0.64046218  0.25010584  0.74241870  1
  Na  Na15  1  0.64037370  0.25148691  0.99184929  1
  Na  Na16  1  0.64022172  0.58247563  0.24467307  1
  Na  Na17  1  0.64084169  0.58116611  0.49311539  1
  Na  Na18  1  0.64044464  0.58180419  0.74347540  1
  Na  Na19  1  0.64052331  0.58390750  0.99379749  1
  Na  Na20  1  0.64038172  0.91556047  0.24336880  1
  Na  Na21  1  0.64033212  0.91648064  0.49363240  1
  Na  Na22  1  0.64033272  0.91761543  0.74319482  1
  Na  Na23  1  0.64053786  0.91865935  0.99374863  1
  Na  Na24  1  0.36006455  0.08318849  0.00545740  1
  Na  Na25  1  0.35959724  0.08344858  0.25557535  1
  Na  Na26  1  0.35919998  0.08267412  0.50670248  1
  Na  Na27  1  0.36000776  0.08282743  0.75688420  1
  Na  Na28  1  0.35999256  0.41581037  0.00513493  1
  Na  Na29  1  0.36016868  0.41675784  0.25607814  1
  Na  Na30  1  0.36033162  0.41679186  0.50656853  1
  Na  Na31  1  0.36010121  0.41599430  0.75540811  1
  Na  Na32  1  0.35991052  0.74974719  0.00559962  1
  Na  Na33  1  0.35975556  0.74961217  0.25640078  1
  Na  Na34  1  0.35979813  0.74953537  0.50619199  1
  Na  Na35  1  0.35975166  0.74869869  0.75605296  1
  Na  Na36  1  0.85927272  0.08477647  0.00613101  1
  Na  Na37  1  0.85984745  0.08360617  0.25653745  1
  Na  Na38  1  0.85889130  0.08471333  0.50582251  1
  Na  Na39  1  0.85889988  0.08482121  0.75538178  1
  Na  Na40  1  0.85987862  0.41757405  0.00568489  1
  Na  Na41  1  0.85950750  0.41693701  0.25836320  1
  Na  Na42  1  0.85988481  0.41580798  0.50719451  1
  Na  Na43  1  0.86006866  0.41623216  0.75664225  1
  Na  Na44  1  0.86007614  0.75076767  0.00710420  1
  Na  Na45  1  0.85940507  0.74867293  0.25663447  1
  Na  Na46  1  0.85976719  0.74908148  0.50752376  1
  Na  Na47  1  0.85978789  0.74887789  0.75662708  1
  Na  Na48  1  0.10918862  0.08433968  0.11938168  1
  Na  Na49  1  0.10896740  0.08368189  0.36853341  1
  Na  Na50  1  0.10914848  0.08361823  0.61872087  1
  Na  Na51  1  0.10900074  0.08421322  0.86926790  1
  Na  Na52  1  0.10918086  0.41843338  0.11896338  1
  Na  Na53  1  0.10952112  0.41682925  0.37006607  1
  Na  Na54  1  0.11014137  0.41779436  0.61865877  1
  Na  Na55  1  0.10998405  0.41751416  0.86726048  1
  Na  Na56  1  0.10909314  0.75039424  0.11895309  1
  Na  Na57  1  0.10909931  0.75021084  0.36950649  1
  Na  Na58  1  0.10904899  0.74910940  0.61831905  1
  Na  Na59  1  0.10930430  0.74972258  0.86861464  1
  Na  Na60  1  0.60983291  0.08473798  0.11803292  1
  Na  Na61  1  0.60951598  0.08281644  0.36862925  1
  Na  Na62  1  0.60980279  0.08286272  0.61823663  1
  Na  Na63  1  0.60966244  0.08412705  0.86726782  1
  Na  Na64  1  0.60972509  0.41811773  0.11899977  1
  Na  Na65  1  0.61019761  0.41520162  0.36902340  1
  Na  Na66  1  0.61076631  0.41527419  0.61782101  1
  Na  Na67  1  0.61037138  0.41599102  0.86727665  1
  Na  Na68  1  0.60952748  0.75105612  0.11906281  1
  Na  Na69  1  0.60973155  0.74849619  0.36864073  1
  Na  Na70  1  0.60931252  0.74792504  0.61857732  1
  Na  Na71  1  0.60960512  0.75022138  0.86931172  1
  Na  Na72  1  0.39066854  0.25088868  0.13032619  1
  Na  Na73  1  0.39069711  0.25010075  0.38116606  1
  Na  Na74  1  0.39095421  0.24956415  0.63199207  1
  Na  Na75  1  0.39051770  0.24934772  0.88064847  1
  Na  Na76  1  0.39063005  0.58451347  0.13050185  1
  Na  Na77  1  0.39059672  0.58188377  0.38196132  1
  Na  Na78  1  0.39087945  0.58099514  0.63091007  1
  Na  Na79  1  0.39047944  0.58232439  0.88058629  1
  Na  Na80  1  0.39092269  0.91805064  0.13111238  1
  Na  Na81  1  0.39033047  0.91550610  0.38130014  1
  Na  Na82  1  0.39044560  0.91482279  0.63154067  1
  Na  Na83  1  0.39060264  0.91589664  0.88091369  1
  Na  Na84  1  0.89040415  0.25128013  0.13132374  1
  Na  Na85  1  0.89007028  0.25034291  0.38218144  1
  Na  Na86  1  0.88964607  0.25184791  0.63208011  1
  Na  Na87  1  0.88955848  0.25139711  0.88104812  1
  Na  Na88  1  0.89015244  0.58467206  0.13141885  1
  Na  Na89  1  0.89006427  0.58275708  0.38312413  1
  Na  Na90  1  0.89043868  0.58174855  0.63129778  1
  Na  Na91  1  0.89049815  0.58295732  0.88140809  1
  Na  Na92  1  0.89044921  0.91774812  0.13177090  1
  Na  Na93  1  0.89037277  0.91684153  0.38134263  1
  Na  Na94  1  0.89008278  0.91570458  0.63118263  1
  Na  Na95  1  0.89034386  0.91626507  0.88160749  1
  Mn  Mn96  1  0.50032893  0.83386539  -0.00075919  1
  Mn  Mn97  1  0.25022873  0.49961492  0.12417775  1
  Mn  Mn98  1  -0.00078496  0.66645470  0.25052870  1
  Mn  Mn99  1  0.25011695  0.66639352  0.37538250  1
  Mn  Mn100  1  0.24916062  0.16744416  0.87504155  1
  Mn  Mn101  1  0.25005589  0.16724289  0.37587526  1
  Mn  Mn102  1  0.25006736  0.83321538  0.12529117  1
  Mn  Mn103  1  0.50053401  0.50039635  -0.00076997  1
  Mn  Mn104  1  0.49934187  0.16598998  0.50033238  1
  Mn  Mn105  1  0.50037399  0.00028108  0.25000026  1
  Mn  Mn106  1  0.50010286  0.66526278  0.49947009  1
  Mn  Mn107  1  0.50013940  0.33355822  0.24974655  1
  Mn  Mn108  1  -0.00047655  0.33437140  0.25061136  1
  Mn  Mn109  1  0.25047373  0.00060809  0.12479724  1
  Mn  Mn110  1  0.25007084  0.66651811  0.62466714  1
  Mn  Mn111  1  0.75020475  0.83322392  0.12538503  1
  Mn  Mn112  1  0.24915534  -0.00059872  0.37579226  1
  Mn  Mn113  1  0.74984457  0.33343473  0.12494206  1
  Mn  Mn114  1  -0.00016102  0.83189432  0.75060474  1
  Mn  Mn115  1  0.24970143  -0.00096151  0.62593580  1
  Mn  Mn116  1  -0.00058671  0.16835535  0.74955681  1
  Mn  Mn117  1  0.74957928  0.66595696  0.87531377  1
  Mn  Mn118  1  -0.00070027  0.16762661  0.50008680  1
  Mn  Mn119  1  0.75029187  0.83410546  0.87544050  1
  Mn  Mn120  1  0.50072771  0.49885271  0.75029290  1
  Mn  Mn121  1  -0.00084270  0.00034000  0.00016017  1
  Mn  Mn122  1  0.50041584  0.16714395  -0.00128873  1
  Mn  Mn123  1  0.75003771  0.50042437  0.12622136  1
  Mn  Mn124  1  0.25087713  0.33451336  0.37450483  1
  Mn  Mn125  1  0.49992340  0.66675674  0.25053174  1
  Mn  Mn126  1  0.24945268  -0.00072552  0.87561997  1
  Mn  Mn127  1  0.25006051  0.66652692  0.87390461  1
  Mn  Mn128  1  -0.00016881  -0.00025463  0.74998677  1
  Mn  Mn129  1  0.74982626  0.66516279  0.62571571  1
  Mn  Mn130  1  0.50031907  0.83206419  0.75049442  1
  Mn  Mn131  1  -0.00101915  0.83389540  0.24999267  1
  Mn  Mn132  1  0.49945766  -0.00180189  0.49917253  1
  Mn  Mn133  1  0.24963973  0.66623197  0.12463268  1
  Mn  Mn134  1  0.24894985  0.33286365  0.12505959  1
  Mn  Mn135  1  0.74999539  0.00064884  0.37485540  1
  Mn  Mn136  1  0.00023530  0.50072922  -0.00030184  1
  Mn  Mn137  1  0.75054249  0.83220532  0.37463449  1
  Mn  Mn138  1  0.24948198  0.16776076  0.62598229  1
  Mn  Mn139  1  0.75062251  0.00168107  0.87393135  1
  Mn  Mn140  1  -0.00049130  0.16841817  -0.00033809  1
  Mn  Mn141  1  -0.00098450  -0.00034458  0.49963953  1
  Mn  Mn142  1  0.75073203  0.16673597  0.12467393  1
  Mn  Mn143  1  0.74927887  0.83354304  0.62507788  1
  Fe  Fe144  1  0.25051553  0.33438956  0.62469854  1
  Fe  Fe145  1  -0.00016432  0.49970821  0.50115523  1
  Fe  Fe146  1  0.25042796  0.49998241  0.62477121  1
  Fe  Fe147  1  0.74981971  0.00053631  0.12499241  1
  Fe  Fe148  1  0.75003263  0.66550265  0.37605039  1
  Fe  Fe149  1  0.75038043  0.00097140  0.62439239  1
  Fe  Fe150  1  0.24999584  0.50022282  0.37524873  1
  Fe  Fe151  1  0.25006678  0.16686140  0.12489733  1
  Fe  Fe152  1  -0.00067107  0.66630125  0.74980632  1
  Fe  Fe153  1  0.75015872  0.49918956  0.37523354  1
  Fe  Fe154  1  0.00022597  0.00055726  0.25017522  1
  Fe  Fe155  1  0.25028238  0.83289947  0.87495839  1
  Fe  Fe156  1  0.49969696  0.49977215  0.24999603  1
  Fe  Fe157  1  0.50019449  0.66701202  0.00045893  1
  Fe  Fe158  1  0.24989898  0.83297568  0.37502243  1
  Fe  Fe159  1  0.50025121  0.00067175  -0.00033570  1
  Fe  Fe160  1  -0.00017034  0.83293124  0.50015390  1
  Fe  Fe161  1  0.75045516  0.49894093  0.62459925  1
  Fe  Fe162  1  0.50030818  0.66542619  0.74951434  1
  Fe  Fe163  1  0.50039411  0.33257472  0.74920284  1
  Fe  Fe164  1  0.74966958  0.66628631  0.12542494  1
  Fe  Fe165  1  0.75003480  0.33384544  0.87417990  1
  Fe  Fe166  1  -0.00007843  0.16778835  0.25033294  1
  Fe  Fe167  1  0.00005078  0.33461016  0.00045251  1
  Fe  Fe168  1  0.49996665  0.83364172  0.24945121  1
  Fe  Fe169  1  0.75031417  0.33268541  0.37603665  1
  Fe  Fe170  1  -0.00037959  0.50049259  0.25056938  1
  Fe  Fe171  1  0.00002446  0.83326743  0.00051382  1
  Fe  Fe172  1  0.00031269  0.33391204  0.50013197  1
  Fe  Fe173  1  0.75037948  0.49971401  0.87484004  1
  Fe  Fe174  1  0.74923039  0.16693132  0.37550576  1
  Fe  Fe175  1  -0.00042263  0.66592158  0.50027880  1
  Fe  Fe176  1  0.50038560  -0.00100998  0.74949512  1
  Fe  Fe177  1  0.00027310  0.66655524  -0.00004550  1
  Fe  Fe178  1  0.00041633  0.33449867  0.75026114  1
  Fe  Fe179  1  0.50016859  0.16596298  0.74967804  1
  Fe  Fe180  1  0.25032427  0.49956844  0.87379949  1
  Fe  Fe181  1  0.50059975  0.33367172  -0.00031819  1
  Fe  Fe182  1  0.75019541  0.33341747  0.62505550  1
  Fe  Fe183  1  0.50058491  0.33240006  0.49978064  1
  Fe  Fe184  1  0.50038079  0.83187357  0.50051454  1
  Fe  Fe185  1  0.50068503  0.49841583  0.50043641  1
  Fe  Fe186  1  0.25026612  0.33377133  0.87444552  1
  Fe  Fe187  1  0.74985718  0.16775791  0.62488845  1
  Fe  Fe188  1  0.49995059  0.16705532  0.24933413  1
  Fe  Fe189  1  0.00022492  0.50039724  0.74992247  1
  Fe  Fe190  1  0.74943426  0.16747081  0.87420573  1
  Fe  Fe191  1  0.24992703  0.83290605  0.62506235  1
  P  P192  1  0.04194803  0.25216442  0.10307241  1
  P  P193  1  0.04212423  0.24996331  0.35307138  1
  P  P194  1  0.04183694  0.25242061  0.60294617  1
  P  P195  1  0.04203648  0.25242206  0.85282904  1
  P  P196  1  0.04246270  0.58471599  0.10265497  1
  P  P197  1  0.04132624  0.58189141  0.35387542  1
  P  P198  1  0.04115503  0.58300713  0.60252846  1
  P  P199  1  0.04140264  0.58387616  0.85157750  1
  P  P200  1  0.04163666  0.91638874  0.10298343  1
  P  P201  1  0.04172572  0.91754601  0.35270826  1
  P  P202  1  0.04177117  0.91503296  0.60246701  1
  P  P203  1  0.04234209  0.91596276  0.85390448  1
  P  P204  1  0.54270967  0.25162315  0.10190784  1
  P  P205  1  0.54205416  0.24869544  0.35245076  1
  P  P206  1  0.54202882  0.25027160  0.60300561  1
  P  P207  1  0.54163630  0.24994312  0.85092976  1
  P  P208  1  0.54244451  0.58478672  0.10273822  1
  P  P209  1  0.54192813  0.58086894  0.35296695  1
  P  P210  1  0.54273307  0.58103053  0.60246416  1
  P  P211  1  0.54256823  0.58438938  0.85265681  1
  P  P212  1  0.54240985  0.91846815  0.10226712  1
  P  P213  1  0.54245637  0.91453131  0.35253817  1
  P  P214  1  0.54224461  0.91463446  0.60268106  1
  P  P215  1  0.54252414  0.91783898  0.85253092  1
  P  P216  1  0.45806999  0.08506222  0.14675122  1
  P  P217  1  0.45687889  0.08290687  0.39645206  1
  P  P218  1  0.45854941  0.08217964  0.64834721  1
  P  P219  1  0.45820940  0.08186858  0.89610388  1
  P  P220  1  0.45788176  0.41833993  0.14692527  1
  P  P221  1  0.45893608  0.41589705  0.39824901  1
  P  P222  1  0.45887581  0.41482082  0.64668271  1
  P  P223  1  0.45859081  0.41482517  0.89670804  1
  P  P224  1  0.45778113  0.75138504  0.14725594  1
  P  P225  1  0.45797848  0.75079365  0.39735154  1
  P  P226  1  0.45801412  0.74762883  0.64728951  1
  P  P227  1  0.45807682  0.74807391  0.89713104  1
  P  P228  1  0.95851483  0.08449644  0.14873303  1
  P  P229  1  0.95715068  0.08396258  0.39592718  1
  P  P230  1  0.95682187  0.08377371  0.64680247  1
  P  P231  1  0.95658922  0.08429648  0.89682722  1
  P  P232  1  0.95723066  0.41886701  0.14788078  1
  P  P233  1  0.95832498  0.41723292  0.39893716  1
  P  P234  1  0.95911223  0.41717381  0.64818716  1
  P  P235  1  0.95836382  0.41604122  0.89699575  1
  P  P236  1  0.95701588  0.75018195  0.14637533  1
  P  P237  1  0.95814529  0.74979634  0.39891308  1
  P  P238  1  0.95745782  0.74795218  0.64686584  1
  P  P239  1  0.95840447  0.74935008  0.89855137  1
  P  P240  1  0.20763486  0.08465518  0.22763608  1
  P  P241  1  0.20644460  0.08363482  0.47886572  1
  P  P242  1  0.20657747  0.08333481  0.72858469  1
  P  P243  1  0.20685809  0.08387337  0.97866640  1
  P  P244  1  0.20698404  0.41725082  0.22834851  1
  P  P245  1  0.20830078  0.41833439  0.47820862  1
  P  P246  1  0.20898851  0.41707543  0.72687005  1
  P  P247  1  0.20852813  0.41660800  0.97570942  1
  P  P248  1  0.20698952  0.74965671  0.22868089  1
  P  P249  1  0.20778463  0.75121364  0.47782061  1
  P  P250  1  0.20781285  0.75084327  0.72743841  1
  P  P251  1  0.20756923  0.75079770  0.97695264  1
  P  P252  1  0.70764416  0.08269993  0.22751200  1
  P  P253  1  0.70750120  0.08506093  0.47826847  1
  P  P254  1  0.70848571  0.08437691  0.72603128  1
  P  P255  1  0.70765661  0.08528491  0.97690209  1
  P  P256  1  0.70754820  0.41599374  0.22944549  1
  P  P257  1  0.70936175  0.41608672  0.47743178  1
  P  P258  1  0.70915256  0.41640926  0.72693389  1
  P  P259  1  0.70856168  0.41723775  0.97622096  1
  P  P260  1  0.70787717  0.74781956  0.22818015  1
  P  P261  1  0.70779807  0.74820633  0.47760816  1
  P  P262  1  0.70692733  0.74952975  0.72837690  1
  P  P263  1  0.70750480  0.75007761  0.97888297  1
  P  P264  1  0.29210136  0.24920400  0.02214324  1
  P  P265  1  0.29304058  0.24975209  0.27149688  1
  P  P266  1  0.29272310  0.25164890  0.52299458  1
  P  P267  1  0.29206252  0.25191182  0.77211422  1
  P  P268  1  0.29275747  0.58289701  0.02051315  1
  P  P269  1  0.29270584  0.58196183  0.27274072  1
  P  P270  1  0.29230281  0.58197016  0.52221950  1
  P  P271  1  0.29228146  0.58143386  0.77135436  1
  P  P272  1  0.29310823  0.91623246  0.02156422  1
  P  P273  1  0.29221130  0.91563424  0.27296403  1
  P  P274  1  0.29206958  0.91489643  0.52256884  1
  P  P275  1  0.29222344  0.91473505  0.77247248  1
  P  P276  1  0.79252533  0.25086712  0.02073361  1
  P  P277  1  0.79162059  0.24976240  0.27403318  1
  P  P278  1  0.79119057  0.25056366  0.52300616  1
  P  P279  1  0.79097969  0.25030549  0.77239508  1
  P  P280  1  0.79213228  0.58414178  0.02273073  1
  P  P281  1  0.79136768  0.58331625  0.27405165  1
  P  P282  1  0.79207715  0.58129147  0.52205642  1
  P  P283  1  0.79224713  0.58120851  0.77232478  1
  P  P284  1  0.79235448  0.91868526  0.02279881  1
  P  P285  1  0.79277276  0.91673380  0.27149230  1
  P  P286  1  0.79195000  0.91807851  0.52247370  1
  P  P287  1  0.79290022  0.91753643  0.77108261  1
  O  O288  1  0.03638795  0.25129048  0.18300111  1
  O  O289  1  0.03689334  0.25048204  0.43299304  1
  O  O290  1  0.03674958  0.25277946  0.68291306  1
  O  O291  1  0.03683844  0.25262846  0.93277369  1
  O  O292  1  0.03720525  0.58405426  0.18255421  1
  O  O293  1  0.03593353  0.58179614  0.43373746  1
  O  O294  1  0.03638426  0.58358211  0.68241932  1
  O  O295  1  0.03674914  0.58410540  0.93155097  1
  O  O296  1  0.03643594  0.91718302  0.18295723  1
  O  O297  1  0.03655993  0.91682648  0.43263163  1
  O  O298  1  0.03661371  0.91488973  0.68243995  1
  O  O299  1  0.03698329  0.91563744  0.93384559  1
  O  O300  1  0.53749962  0.25104104  0.18180070  1
  O  O301  1  0.53679079  0.24909356  0.43235282  1
  O  O302  1  0.53659045  0.25011624  0.68286619  1
  O  O303  1  0.53723795  0.25008132  0.93089682  1
  O  O304  1  0.53697100  0.58407351  0.18263552  1
  O  O305  1  0.53666019  0.58044861  0.43290166  1
  O  O306  1  0.53759913  0.58162782  0.68241662  1
  O  O307  1  0.53718068  0.58465253  0.93257089  1
  O  O308  1  0.53709443  0.91773742  0.18219931  1
  O  O309  1  0.53719150  0.91406522  0.43250082  1
  O  O310  1  0.53706898  0.91536562  0.68263924  1
  O  O311  1  0.53723153  0.91834909  0.93245057  1
  O  O312  1  0.46335511  0.08460475  0.06679805  1
  O  O313  1  0.46210745  0.08346611  0.31653253  1
  O  O314  1  0.46301650  0.08248533  0.56833097  1
  O  O315  1  0.46360532  0.08171360  0.81622657  1
  O  O316  1  0.46320463  0.41802557  0.06704372  1
  O  O317  1  0.46372566  0.41667968  0.31825993  1
  O  O318  1  0.46435189  0.41510924  0.56682854  1
  O  O319  1  0.46397776  0.41448671  0.81679118  1
  O  O320  1  0.46319495  0.75082408  0.06734095  1
  O  O321  1  0.46310406  0.75126144  0.31741143  1
  O  O322  1  0.46342832  0.74828360  0.56736777  1
  O  O323  1  0.46362206  0.74771797  0.81722478  1
  O  O324  1  0.96328267  0.08444938  0.06871398  1
  O  O325  1  0.96294814  0.08412738  0.31605861  1
  O  O326  1  0.96183949  0.08384268  0.56681886  1
  O  O327  1  0.96177015  0.08421846  0.81690798  1
  O  O328  1  0.96249919  0.41844147  0.06796647  1
  O  O329  1  0.96311233  0.41761046  0.31898553  1
  O  O330  1  0.96400142  0.41731644  0.56831167  1
  O  O331  1  0.96368106  0.41605016  0.81716068  1
  O  O332  1  0.96254234  0.75015143  0.06651928  1
  O  O333  1  0.96267934  0.74957651  0.31890783  1
  O  O334  1  0.96286238  0.74853145  0.56702129  1
  O  O335  1  0.96333194  0.74888937  0.81852903  1
  O  O336  1  0.21240081  0.08434447  0.05861022  1
  O  O337  1  0.21270964  0.08415822  0.30763523  1
  O  O338  1  0.21153350  0.08344462  0.55885419  1
  O  O339  1  0.21149091  0.08325707  0.80857617  1
  O  O340  1  0.21298933  0.41647803  0.05572111  1
  O  O341  1  0.21221601  0.41776802  0.30828609  1
  O  O342  1  0.21383239  0.41796468  0.55809795  1
  O  O343  1  0.21403732  0.41698968  0.80679166  1
  O  O344  1  0.21257667  0.75016639  0.05692995  1
  O  O345  1  0.21221198  0.74997173  0.30866086  1
  O  O346  1  0.21315677  0.75119445  0.55777245  1
  O  O347  1  0.21304710  0.75072149  0.80736918  1
  O  O348  1  0.71277974  0.08457773  0.05682384  1
  O  O349  1  0.71245962  0.08325919  0.30746770  1
  O  O350  1  0.71309200  0.08487837  0.55811424  1
  O  O351  1  0.71361057  0.08493264  0.80598351  1
  O  O352  1  0.71296474  0.41705566  0.05624175  1
  O  O353  1  0.71292357  0.41541601  0.30931430  1
  O  O354  1  0.71428637  0.41642296  0.55733220  1
  O  O355  1  0.71392898  0.41626758  0.80683137  1
  O  O356  1  0.71277762  0.74955780  0.05885731  1
  O  O357  1  0.71336599  0.74761161  0.30813451  1
  O  O358  1  0.71268865  0.74854522  0.55759009  1
  O  O359  1  0.71214339  0.74968684  0.80834492  1
  O  O360  1  0.28758026  0.24932979  0.19156894  1
  O  O361  1  0.28780239  0.25145136  0.44299941  1
  O  O362  1  0.28694191  0.25221870  0.69217732  1
  O  O363  1  0.28692776  0.24994044  0.94219964  1
  O  O364  1  0.28768893  0.58241627  0.19273805  1
  O  O365  1  0.28709925  0.58196156  0.44229362  1
  O  O366  1  0.28702388  0.58144006  0.69139816  1
  O  O367  1  0.28756532  0.58260022  0.94052125  1
  O  O368  1  0.28744256  0.91625643  0.19296592  1
  O  O369  1  0.28682855  0.91502853  0.44260473  1
  O  O370  1  0.28687479  0.91459141  0.69249808  1
  O  O371  1  0.28794124  0.91569471  0.94160766  1
  O  O372  1  0.78692170  0.24993596  0.19401782  1
  O  O373  1  0.78602237  0.25080287  0.44313385  1
  O  O374  1  0.78605985  0.25039627  0.69250144  1
  O  O375  1  0.78729252  0.25082139  0.94084606  1
  O  O376  1  0.78659526  0.58374582  0.19406358  1
  O  O377  1  0.78668806  0.58184741  0.44219033  1
  O  O378  1  0.78701044  0.58091745  0.69238827  1
  O  O379  1  0.78688789  0.58329128  0.94282182  1
  O  O380  1  0.78744392  0.91722313  0.19155150  1
  O  O381  1  0.78683861  0.91770725  0.44249093  1
  O  O382  1  0.78754082  0.91771844  0.69113085  1
  O  O383  1  0.78735014  0.91856897  0.94277626  1
  O  O384  1  0.22777883  0.24835272  0.05783553  1
  O  O385  1  0.22873909  0.25060106  0.30692434  1
  O  O386  1  0.22828989  0.25209679  0.55818423  1
  O  O387  1  0.22774165  0.25214507  0.80762503  1
  O  O388  1  0.22833754  0.58300968  0.05567614  1
  O  O389  1  0.22830374  0.58187371  0.30813623  1
  O  O390  1  0.22804940  0.58221913  0.55787193  1
  O  O391  1  0.22806517  0.58162492  0.80713250  1
  O  O392  1  0.22872625  0.91677681  0.05672430  1
  O  O393  1  0.22774542  0.91509646  0.30812203  1
  O  O394  1  0.22775410  0.91507015  0.55814590  1
  O  O395  1  0.22797088  0.91447623  0.80825181  1
  O  O396  1  0.72826374  0.25022790  0.05633298  1
  O  O397  1  0.72733034  0.25024023  0.30965982  1
  O  O398  1  0.72720995  0.25054709  0.55941923  1
  O  O399  1  0.72695127  0.24995634  0.80869645  1
  O  O400  1  0.72788644  0.58449096  0.05860228  1
  O  O401  1  0.72716491  0.58338338  0.30977576  1
  O  O402  1  0.72795266  0.58087188  0.55817914  1
  O  O403  1  0.72796379  0.58100950  0.80795842  1
  O  O404  1  0.72805472  0.91842361  0.05831368  1
  O  O405  1  0.72849603  0.91630497  0.30690508  1
  O  O406  1  0.72765950  0.91853804  0.55795457  1
  O  O407  1  0.72859721  0.91750650  0.80648592  1
  O  O408  1  0.27198082  0.08520599  0.19208703  1
  O  O409  1  0.27093918  0.08309037  0.44402962  1
  O  O410  1  0.27110298  0.08342105  0.69384771  1
  O  O411  1  0.27111840  0.08367349  0.94315969  1
  O  O412  1  0.27133688  0.41639804  0.19311897  1
  O  O413  1  0.27244744  0.41896079  0.44200767  1
  O  O414  1  0.27306364  0.41677500  0.69057835  1
  O  O415  1  0.27288755  0.41679716  0.94035572  1
  O  O416  1  0.27140065  0.74934508  0.19350809  1
  O  O417  1  0.27201864  0.75118575  0.44202536  1
  O  O418  1  0.27210703  0.75060971  0.69182275  1
  O  O419  1  0.27196263  0.75086105  0.94156495  1
  O  O420  1  0.77204319  0.08203424  0.19205556  1
  O  O421  1  0.77158687  0.08542047  0.44200185  1
  O  O422  1  0.77258299  0.08433145  0.68992399  1
  O  O423  1  0.77197762  0.08632904  0.94132365  1
  O  O424  1  0.77179847  0.41644195  0.19376784  1
  O  O425  1  0.77335066  0.41552091  0.44116841  1
  O  O426  1  0.77327750  0.41684496  0.69084365  1
  O  O427  1  0.77286643  0.41746155  0.94073414  1
  O  O428  1  0.77204645  0.74795384  0.19224288  1
  O  O429  1  0.77222825  0.74778916  0.44239644  1
  O  O430  1  0.77130431  0.74957506  0.69329330  1
  O  O431  1  0.77179688  0.74991228  0.94345114  1
  O  O432  1  0.02268196  0.08494247  0.18463828  1
  O  O433  1  0.02122331  0.08380788  0.43203628  1
  O  O434  1  0.02124553  0.08415016  0.68187466  1
  O  O435  1  0.02095086  0.08415325  0.93203772  1
  O  O436  1  0.02152772  0.41890029  0.18362609  1
  O  O437  1  0.02250308  0.41736482  0.43497820  1
  O  O438  1  0.02319725  0.41703590  0.68439858  1
  O  O439  1  0.02249935  0.41593226  0.93323634  1
  O  O440  1  0.02112715  0.75014190  0.18236288  1
  O  O441  1  0.02237973  0.75035046  0.43452814  1
  O  O442  1  0.02163838  0.74752547  0.68302998  1
  O  O443  1  0.02257203  0.74942717  0.93461880  1
  O  O444  1  0.52225521  0.08511789  0.18278481  1
  O  O445  1  0.52121087  0.08257496  0.43181194  1
  O  O446  1  0.52286488  0.08187818  0.68378502  1
  O  O447  1  0.52232413  0.08198924  0.93238165  1
  O  O448  1  0.52209354  0.41843234  0.18287901  1
  O  O449  1  0.52315528  0.41535568  0.43424897  1
  O  O450  1  0.52299340  0.41460518  0.68288651  1
  O  O451  1  0.52282147  0.41532379  0.93259693  1
  O  O452  1  0.52196796  0.75142963  0.18331486  1
  O  O453  1  0.52225039  0.75033446  0.43314900  1
  O  O454  1  0.52224012  0.74750873  0.68320401  1
  O  O455  1  0.52222477  0.74840146  0.93325597  1
  O  O456  1  0.47844385  0.25174344  0.06604592  1
  O  O457  1  0.47790037  0.24863742  0.31638561  1
  O  O458  1  0.47792841  0.25109163  0.56676005  1
  O  O459  1  0.47739163  0.25005919  0.81529272  1
  O  O460  1  0.47827760  0.58463037  0.06663174  1
  O  O461  1  0.47775649  0.58141377  0.31699322  1
  O  O462  1  0.47846755  0.58076363  0.56675262  1
  O  O463  1  0.47836781  0.58394034  0.81666407  1
  O  O464  1  0.47822859  0.91843243  0.06628874  1
  O  O465  1  0.47821030  0.91507762  0.31669825  1
  O  O466  1  0.47792934  0.91390934  0.56699375  1
  O  O467  1  0.47829117  0.91738050  0.81666285  1
  O  O468  1  0.97774572  0.25291606  0.06704074  1
  O  O469  1  0.97786979  0.24940301  0.31724172  1
  O  O470  1  0.97751509  0.25241775  0.56738432  1
  O  O471  1  0.97774236  0.25269511  0.81712480  1
  O  O472  1  0.97818264  0.58507508  0.06685406  1
  O  O473  1  0.97720718  0.58176355  0.31756535  1
  O  O474  1  0.97707315  0.58235437  0.56636442  1
  O  O475  1  0.97718868  0.58398611  0.81573568  1
  O  O476  1  0.97744439  0.91568814  0.06712935  1
  O  O477  1  0.97747238  0.91840327  0.31699705  1
  O  O478  1  0.97746323  0.91471953  0.56683936  1
  O  O479  1  0.97804762  0.91592530  0.81842307  1
  O  O480  1  0.07285575  0.31591860  0.07517295  1
  O  O481  1  0.07306930  0.31367001  0.32513991  1
  O  O482  1  0.07277327  0.31567919  0.57387685  1
  O  O483  1  0.07328863  0.31546819  0.82386970  1
  O  O484  1  0.07331713  0.64823758  0.07418975  1
  O  O485  1  0.07240228  0.64567647  0.32610200  1
  O  O486  1  0.07142002  0.64677572  0.57321721  1
  O  O487  1  0.07265685  0.64705566  0.82296012  1
  O  O488  1  0.07271418  0.97998823  0.07497743  1
  O  O489  1  0.07269116  0.98113371  0.32433576  1
  O  O490  1  0.07260895  0.97893360  0.57501724  1
  O  O491  1  0.07321829  0.97972277  0.82587738  1
  O  O492  1  0.57311472  0.31557967  0.07358703  1
  O  O493  1  0.57341333  0.31213800  0.32452749  1
  O  O494  1  0.57343540  0.31338742  0.57417339  1
  O  O495  1  0.57298503  0.31322501  0.82253031  1
  O  O496  1  0.57279741  0.64875994  0.07467535  1
  O  O497  1  0.57307790  0.64477032  0.32575669  1
  O  O498  1  0.57390635  0.64443137  0.57413019  1
  O  O499  1  0.57339478  0.64761557  0.82364616  1
  O  O500  1  0.57283934  0.98236740  0.07407767  1
  O  O501  1  0.57370992  0.97837952  0.32522072  1
  O  O502  1  0.57303706  0.97822840  0.57420524  1
  O  O503  1  0.57340772  0.98099266  0.82327117  1
  O  O504  1  0.42665185  0.02171237  0.17484557  1
  O  O505  1  0.42592891  0.01913934  0.42438938  1
  O  O506  1  0.42743897  0.01857753  0.67618897  1
  O  O507  1  0.42728004  0.01863298  0.92527189  1
  O  O508  1  0.42666020  0.35481595  0.17493710  1
  O  O509  1  0.42815901  0.35194883  0.42595602  1
  O  O510  1  0.42770740  0.35154723  0.67535353  1
  O  O511  1  0.42799720  0.35141731  0.92579214  1
  O  O512  1  0.42639079  0.68801681  0.17544063  1
  O  O513  1  0.42687761  0.68679542  0.42454676  1
  O  O514  1  0.42744343  0.68369277  0.67520435  1
  O  O515  1  0.42715356  0.68483189  0.92603828  1
  O  O516  1  0.92827244  0.02038926  0.17681081  1
  O  O517  1  0.92565840  0.02060361  0.42402804  1
  O  O518  1  0.92613669  0.02004682  0.67475957  1
  O  O519  1  0.92538965  0.02092190  0.92507062  1
  O  O520  1  0.92583678  0.35550488  0.17608879  1
  O  O521  1  0.92808657  0.35294793  0.42682335  1
  O  O522  1  0.92777399  0.35381552  0.67657908  1
  O  O523  1  0.92733458  0.35286516  0.92612422  1
  O  O524  1  0.92576721  0.68687966  0.17509155  1
  O  O525  1  0.92801770  0.68572697  0.42731495  1
  O  O526  1  0.92638039  0.68450722  0.67540596  1
  O  O527  1  0.92741819  0.68578531  0.92684143  1
  O  O528  1  0.17693427  0.02077752  0.19985573  1
  O  O529  1  0.17508804  0.02039022  0.45055017  1
  O  O530  1  0.17562260  0.01980290  0.70045584  1
  O  O531  1  0.17581448  0.02015458  0.95094269  1
  O  O532  1  0.17556748  0.35377473  0.20051442  1
  O  O533  1  0.17747348  0.35459455  0.45008915  1
  O  O534  1  0.17787259  0.35367442  0.69827059  1
  O  O535  1  0.17805196  0.35275323  0.94748449  1
  O  O536  1  0.17601293  0.68601539  0.20058208  1
  O  O537  1  0.17681727  0.68726917  0.45043976  1
  O  O538  1  0.17676230  0.68708091  0.69960694  1
  O  O539  1  0.17650730  0.68730425  0.94874099  1
  O  O540  1  0.67686440  0.01914555  0.19897479  1
  O  O541  1  0.67635208  0.02147771  0.45020088  1
  O  O542  1  0.67790941  0.02035211  0.69822853  1
  O  O543  1  0.67702602  0.02159282  0.94850588  1
  O  O544  1  0.67644287  0.35279276  0.20047590  1
  O  O545  1  0.67777527  0.35275609  0.44942840  1
  O  O546  1  0.67873841  0.35258682  0.69805760  1
  O  O547  1  0.67824871  0.35346469  0.94741169  1
  O  O548  1  0.67687314  0.68456354  0.19945789  1
  O  O549  1  0.67686920  0.68463024  0.44952326  1
  O  O550  1  0.67604486  0.68587066  0.70044878  1
  O  O551  1  0.67598204  0.68704324  0.95033230  1
  O  O552  1  0.32283292  0.31291948  0.05033423  1
  O  O553  1  0.32448801  0.31329276  0.29921730  1
  O  O554  1  0.32359583  0.31513064  0.55125901  1
  O  O555  1  0.32315890  0.31502819  0.80111754  1
  O  O556  1  0.32361062  0.64648094  0.04884472  1
  O  O557  1  0.32376128  0.64552996  0.30077124  1
  O  O558  1  0.32348874  0.64572667  0.54975693  1
  O  O559  1  0.32340388  0.64517757  0.79892560  1
  O  O560  1  0.32422891  0.97986042  0.04948277  1
  O  O561  1  0.32295819  0.97936046  0.30103949  1
  O  O562  1  0.32321099  0.97858849  0.55045321  1
  O  O563  1  0.32295311  0.97872229  0.80004643  1
  O  O564  1  0.82327070  0.31443529  0.04942637  1
  O  O565  1  0.82289200  0.31309857  0.30233531  1
  O  O566  1  0.82210798  0.31411967  0.55173942  1
  O  O567  1  0.82144874  0.31421849  0.80090899  1
  O  O568  1  0.82280180  0.64781405  0.05098398  1
  O  O569  1  0.82279623  0.64640687  0.30272571  1
  O  O570  1  0.82313896  0.64478800  0.55044542  1
  O  O571  1  0.82299584  0.64515386  0.79995255  1
  O  O572  1  0.82270335  0.98251846  0.05112874  1
  O  O573  1  0.82392138  0.97992602  0.30008193  1
  O  O574  1  0.82292157  0.98163972  0.55052720  1
  O  O575  1  0.82420180  0.98086587  0.79924354  1
  O  O576  1  0.42765991  0.14893027  0.17492228  1
  O  O577  1  0.42561951  0.14596309  0.42526855  1
  O  O578  1  0.42830144  0.14617009  0.67676534  1
  O  O579  1  0.42701427  0.14560845  0.92376582  1
  O  O580  1  0.42720062  0.48190642  0.17550572  1
  O  O581  1  0.42826140  0.47935264  0.42712265  1
  O  O582  1  0.42775348  0.47836745  0.67486809  1
  O  O583  1  0.42727517  0.47854293  0.92389909  1
  O  O584  1  0.42725801  0.81520313  0.17537988  1
  O  O585  1  0.42726333  0.81390714  0.42670238  1
  O  O586  1  0.42667434  0.81085134  0.67565094  1
  O  O587  1  0.42704529  0.81202638  0.92430022  1
  O  O588  1  0.92735602  0.14807827  0.17657511  1
  O  O589  1  0.92590647  0.14728311  0.42439874  1
  O  O590  1  0.92571633  0.14730728  0.67469409  1
  O  O591  1  0.92578478  0.14792034  0.92488677  1
  O  O592  1  0.92677784  0.48256073  0.17642402  1
  O  O593  1  0.92701902  0.48027892  0.42762623  1
  O  O594  1  0.92862771  0.48089897  0.67708127  1
  O  O595  1  0.92728725  0.47978061  0.92477897  1
  O  O596  1  0.92567104  0.81349387  0.17467773  1
  O  O597  1  0.92699626  0.81334395  0.42673743  1
  O  O598  1  0.92636859  0.81139789  0.67534236  1
  O  O599  1  0.92782282  0.81331100  0.92645582  1
  O  O600  1  0.07293376  0.18874651  0.07469044  1
  O  O601  1  0.07309875  0.18656600  0.32463312  1
  O  O602  1  0.07280929  0.18858082  0.57550809  1
  O  O603  1  0.07273954  0.18844751  0.82519157  1
  O  O604  1  0.07357333  0.52129164  0.07426347  1
  O  O605  1  0.07223858  0.51862974  0.32485729  1
  O  O606  1  0.07262917  0.51964589  0.57452320  1
  O  O607  1  0.07161444  0.51975516  0.82332447  1
  O  O608  1  0.07252866  0.85274200  0.07484170  1
  O  O609  1  0.07258708  0.85393895  0.32457842  1
  O  O610  1  0.07258906  0.85158202  0.57396923  1
  O  O611  1  0.07368142  0.85279667  0.82546085  1
  O  O612  1  0.57407150  0.18842980  0.07356036  1
  O  O613  1  0.57255467  0.18501455  0.32390797  1
  O  O614  1  0.57268928  0.18639848  0.57511155  1
  O  O615  1  0.57173276  0.18583705  0.82243024  1
  O  O616  1  0.57408043  0.52163815  0.07450049  1
  O  O617  1  0.57262336  0.51756262  0.32402386  1
  O  O618  1  0.57350826  0.51737783  0.57427387  1
  O  O619  1  0.57366322  0.52049041  0.82535089  1
  O  O620  1  0.57392437  0.85519477  0.07419640  1
  O  O621  1  0.57317074  0.85126514  0.32345203  1
  O  O622  1  0.57317983  0.85100596  0.57466271  1
  O  O623  1  0.57363393  0.85389123  0.82547204  1
  O  O624  1  0.32314553  0.18570877  0.05042327  1
  O  O625  1  0.32391725  0.18646662  0.30033035  1
  O  O626  1  0.32343917  0.18781449  0.55099827  1
  O  O627  1  0.32279392  0.18789970  0.79967173  1
  O  O628  1  0.32398051  0.51957943  0.04889763  1
  O  O629  1  0.32333026  0.51836276  0.30117035  1
  O  O630  1  0.32320071  0.51868243  0.55107843  1
  O  O631  1  0.32320933  0.51808027  0.80004884  1
  O  O632  1  0.32415598  0.85294476  0.05020595  1
  O  O633  1  0.32295621  0.85198112  0.30119033  1
  O  O634  1  0.32285275  0.85146484  0.55134053  1
  O  O635  1  0.32337083  0.85145186  0.80105434  1
  O  O636  1  0.82413900  0.18781752  0.04952926  1
  O  O637  1  0.82169128  0.18563795  0.30216382  1
  O  O638  1  0.82225045  0.18701954  0.55133072  1
  O  O639  1  0.82224092  0.18694095  0.80080713  1
  O  O640  1  0.82325623  0.52068692  0.05114908  1
  O  O641  1  0.82155591  0.51910192  0.30225179  1
  O  O642  1  0.82310307  0.51781474  0.55052945  1
  O  O643  1  0.82335982  0.51807475  0.80127113  1
  O  O644  1  0.82364913  0.85514670  0.05045009  1
  O  O645  1  0.82388587  0.85299808  0.29928828  1
  O  O646  1  0.82272648  0.85420994  0.55019616  1
  O  O647  1  0.82385312  0.85392337  0.79943598  1
  O  O648  1  0.17673023  0.14811951  0.19929168  1
  O  O649  1  0.17589821  0.14749023  0.45090155  1
  O  O650  1  0.17556225  0.14692542  0.70061101  1
  O  O651  1  0.17541792  0.14703889  0.95023951  1
  O  O652  1  0.17614944  0.48058204  0.19947794  1
  O  O653  1  0.17703835  0.48161715  0.44968019  1
  O  O654  1  0.17828419  0.48087631  0.69849287  1
  O  O655  1  0.17769616  0.48026072  0.94736889  1
  O  O656  1  0.17585119  0.81297451  0.20016537  1
  O  O657  1  0.17680390  0.81441108  0.44894406  1
  O  O658  1  0.17697009  0.81419391  0.69869528  1
  O  O659  1  0.17703649  0.81456305  0.94886857  1
  O  O660  1  0.67691933  0.14636826  0.19916915  1
  O  O661  1  0.67656442  0.14851894  0.44949485  1
  O  O662  1  0.67739012  0.14781843  0.69765812  1
  O  O663  1  0.67646989  0.14862711  0.94836971  1
  O  O664  1  0.67634711  0.47951262  0.20122712  1
  O  O665  1  0.67900371  0.47990051  0.44845513  1
  O  O666  1  0.67779888  0.47967559  0.69836264  1
  O  O667  1  0.67762760  0.48087886  0.94815361  1
  O  O668  1  0.67683290  0.81166898  0.20060485  1
  O  O669  1  0.67710776  0.81197679  0.44952855  1
  O  O670  1  0.67575055  0.81292786  0.70022900  1
  O  O671  1  0.67680490  0.81402085  0.95109641  1
