# generated using pymatgen
data_Na2MnFe(PO4)2
_symmetry_space_group_name_H-M   'P 1'
_cell_length_a   22.34603561
_cell_length_b   20.09821836
_cell_length_c   19.44662512
_cell_angle_alpha   90.01594061
_cell_angle_beta   90.07648986
_cell_angle_gamma   89.97298705
_symmetry_Int_Tables_number   1
_chemical_formula_structural   Na2MnFe(PO4)2
_chemical_formula_sum   'Na96 Mn48 Fe48 P96 O384'
_cell_volume   8733.77173345
_cell_formula_units_Z   48
loop_
 _symmetry_equiv_pos_site_id
 _symmetry_equiv_pos_as_xyz
  1  'x, y, z'
loop_
 _atom_site_type_symbol
 _atom_site_label
 _atom_site_symmetry_multiplicity
 _atom_site_fract_x
 _atom_site_fract_y
 _atom_site_fract_z
 _atom_site_occupancy
  Na  Na0  1  0.14007597  0.25023023  0.24300179  1
  Na  Na1  1  0.14007223  0.25012040  0.49335736  1
  Na  Na2  1  0.13962206  0.24987641  0.74300680  1
  Na  Na3  1  0.13965431  0.24956658  0.99319767  1
  Na  Na4  1  0.14017254  0.58451909  0.24478674  1
  Na  Na5  1  0.14102144  0.58501949  0.49482516  1
  Na  Na6  1  0.14040938  0.58410230  0.74318989  1
  Na  Na7  1  0.13982688  0.58340946  0.99451903  1
  Na  Na8  1  0.14043326  0.91750835  0.24444095  1
  Na  Na9  1  0.14099050  0.91596973  0.49303821  1
  Na  Na10  1  0.13977103  0.91596622  0.74230988  1
  Na  Na11  1  0.13993556  0.91763824  0.99378664  1
  Na  Na12  1  0.63956977  0.24879702  0.24250957  1
  Na  Na13  1  0.64017061  0.24965844  0.49261389  1
  Na  Na14  1  0.63993871  0.24975895  0.74496985  1
  Na  Na15  1  0.63931465  0.25016218  0.99317777  1
  Na  Na16  1  0.63986648  0.58236720  0.24333813  1
  Na  Na17  1  0.64057146  0.58330184  0.49376134  1
  Na  Na18  1  0.63982827  0.58247463  0.74467488  1
  Na  Na19  1  0.63955899  0.58226126  0.99308795  1
  Na  Na20  1  0.64046711  0.91679157  0.24452176  1
  Na  Na21  1  0.64056387  0.91619066  0.49366542  1
  Na  Na22  1  0.63947986  0.91682420  0.74393108  1
  Na  Na23  1  0.63964772  0.91725679  0.99360728  1
  Na  Na24  1  0.36005556  0.08344563  0.00706544  1
  Na  Na25  1  0.35923216  0.08327018  0.25588000  1
  Na  Na26  1  0.35938376  0.08332590  0.50567068  1
  Na  Na27  1  0.36038775  0.08314806  0.75674088  1
  Na  Na28  1  0.36016931  0.41607529  0.00752251  1
  Na  Na29  1  0.35999287  0.41739553  0.25619761  1
  Na  Na30  1  0.35987469  0.41755976  0.50573374  1
  Na  Na31  1  0.35997544  0.41649596  0.75642396  1
  Na  Na32  1  0.35968030  0.74919142  0.00687269  1
  Na  Na33  1  0.35957123  0.75077073  0.25672890  1
  Na  Na34  1  0.36044602  0.75071365  0.50640831  1
  Na  Na35  1  0.36066780  0.74971604  0.75657294  1
  Na  Na36  1  0.85998038  0.08379511  0.00580499  1
  Na  Na37  1  0.85942829  0.08328196  0.25522881  1
  Na  Na38  1  0.86005235  0.08370632  0.50543720  1
  Na  Na39  1  0.86067565  0.08393728  0.75717021  1
  Na  Na40  1  0.85982629  0.41604494  0.00572624  1
  Na  Na41  1  0.85955215  0.41522123  0.25636292  1
  Na  Na42  1  0.85960574  0.41612224  0.50514091  1
  Na  Na43  1  0.85983394  0.41579396  0.75663320  1
  Na  Na44  1  0.85965823  0.75067715  0.00625455  1
  Na  Na45  1  0.85942376  0.75079308  0.25720628  1
  Na  Na46  1  0.86000335  0.74984068  0.50623641  1
  Na  Na47  1  0.86065442  0.75001318  0.75769855  1
  Na  Na48  1  0.10981633  0.08440758  0.11772794  1
  Na  Na49  1  0.11017008  0.08474939  0.36746986  1
  Na  Na50  1  0.10922289  0.08322000  0.61813150  1
  Na  Na51  1  0.10914783  0.08345224  0.86891364  1
  Na  Na52  1  0.10925053  0.41700597  0.11833667  1
  Na  Na53  1  0.10938548  0.41669796  0.36920440  1
  Na  Na54  1  0.10941136  0.41483791  0.61878549  1
  Na  Na55  1  0.10944970  0.41599265  0.86857790  1
  Na  Na56  1  0.10895495  0.75177737  0.11998096  1
  Na  Na57  1  0.11043509  0.75108721  0.36948334  1
  Na  Na58  1  0.11033041  0.74995042  0.61880403  1
  Na  Na59  1  0.10887827  0.75060527  0.86825641  1
  Na  Na60  1  0.60924900  0.08365871  0.11816511  1
  Na  Na61  1  0.60983692  0.08383473  0.36780811  1
  Na  Na62  1  0.60953945  0.08224580  0.61953011  1
  Na  Na63  1  0.60887362  0.08198734  0.86889270  1
  Na  Na64  1  0.60910183  0.41605362  0.11762682  1
  Na  Na65  1  0.60902605  0.41703209  0.36668536  1
  Na  Na66  1  0.60974390  0.41699914  0.61983996  1
  Na  Na67  1  0.60951076  0.41634475  0.86888079  1
  Na  Na68  1  0.60902418  0.74886920  0.11874364  1
  Na  Na69  1  0.60956609  0.74932461  0.36847927  1
  Na  Na70  1  0.60995990  0.74975045  0.61964231  1
  Na  Na71  1  0.60843381  0.74906636  0.86849511  1
  Na  Na72  1  0.39062463  0.25059502  0.13170691  1
  Na  Na73  1  0.39001041  0.25013136  0.38010860  1
  Na  Na74  1  0.39053310  0.25011694  0.63171656  1
  Na  Na75  1  0.39105472  0.24929259  0.88214116  1
  Na  Na76  1  0.39051843  0.58211282  0.13163837  1
  Na  Na77  1  0.39059125  0.58469917  0.38070913  1
  Na  Na78  1  0.39097575  0.58432318  0.63224723  1
  Na  Na79  1  0.39045572  0.58189457  0.88124933  1
  Na  Na80  1  0.39008227  0.91774856  0.13204843  1
  Na  Na81  1  0.38995282  0.91680205  0.38199170  1
  Na  Na82  1  0.39116147  0.91540800  0.63169978  1
  Na  Na83  1  0.39052862  0.91623047  0.88132809  1
  Na  Na84  1  0.88994575  0.25035976  0.13012499  1
  Na  Na85  1  0.89046224  0.24988946  0.38056329  1
  Na  Na86  1  0.89088829  0.24901910  0.63063958  1
  Na  Na87  1  0.89109828  0.24950910  0.88121654  1
  Na  Na88  1  0.89058640  0.58401309  0.13171377  1
  Na  Na89  1  0.89002561  0.58330020  0.38224063  1
  Na  Na90  1  0.89076702  0.58265634  0.63151996  1
  Na  Na91  1  0.89089985  0.58259182  0.88128686  1
  Na  Na92  1  0.89019350  0.91817192  0.13091321  1
  Na  Na93  1  0.89056664  0.91773231  0.38152115  1
  Na  Na94  1  0.89159750  0.91645583  0.63196913  1
  Na  Na95  1  0.89077232  0.91729996  0.88125189  1
  Mn  Mn96  1  -0.00020988  0.16806738  0.24858574  1
  Mn  Mn97  1  0.24992641  0.66657110  0.87542086  1
  Mn  Mn98  1  0.75098494  0.66614764  0.62546112  1
  Mn  Mn99  1  0.00055972  0.49886869  0.50106646  1
  Mn  Mn100  1  0.24981059  -0.00012357  0.87477394  1
  Mn  Mn101  1  0.25015748  0.33274016  0.87591838  1
  Mn  Mn102  1  0.50038174  0.16658466  0.50026560  1
  Mn  Mn103  1  0.00030512  0.66752806  0.50088830  1
  Mn  Mn104  1  0.25008805  -0.00054943  0.62457615  1
  Mn  Mn105  1  0.74944168  0.83430154  0.12603223  1
  Mn  Mn106  1  -0.00012768  0.49961540  0.25046332  1
  Mn  Mn107  1  0.49938322  0.83268223  -0.00000652  1
  Mn  Mn108  1  0.75035376  0.00041162  0.62461444  1
  Mn  Mn109  1  0.75069347  0.83336056  0.62491033  1
  Mn  Mn110  1  0.00027689  0.49934479  0.75029246  1
  Mn  Mn111  1  -0.00036763  0.66833607  0.25113984  1
  Mn  Mn112  1  0.24929374  0.33354799  0.37461059  1
  Mn  Mn113  1  0.24889760  0.66667046  0.12573913  1
  Mn  Mn114  1  0.74932239  0.16637897  0.12425140  1
  Mn  Mn115  1  0.50096997  0.66740063  0.50072002  1
  Mn  Mn116  1  0.24971157  0.49937571  0.87429555  1
  Mn  Mn117  1  0.50017753  0.00076806  0.25039495  1
  Mn  Mn118  1  0.25002335  0.16639197  0.87475104  1
  Mn  Mn119  1  0.24985188  0.83339478  0.87507272  1
  Mn  Mn120  1  -0.00042597  0.83404632  -0.00071907  1
  Mn  Mn121  1  0.74963128  0.66602643  0.87574146  1
  Mn  Mn122  1  0.75041093  0.83329314  0.37499539  1
  Mn  Mn123  1  0.74984364  0.16655424  0.62511258  1
  Mn  Mn124  1  0.24936760  0.83461403  0.12618520  1
  Mn  Mn125  1  0.50009734  0.33343751  0.49990235  1
  Mn  Mn126  1  0.74931427  0.83433026  0.87592322  1
  Mn  Mn127  1  0.24961252  0.50154897  0.37646399  1
  Mn  Mn128  1  0.74963789  0.33334892  0.62413490  1
  Mn  Mn129  1  0.25046438  0.50040350  0.62490363  1
  Mn  Mn130  1  0.74953668  0.16681595  0.87545826  1
  Mn  Mn131  1  0.50001447  0.83283331  0.24943824  1
  Mn  Mn132  1  0.74927734  0.33262378  0.37457833  1
  Mn  Mn133  1  0.25003339  0.16719318  0.62478713  1
  Mn  Mn134  1  0.74998957  0.66616113  0.12519516  1
  Mn  Mn135  1  0.75029666  0.49971603  0.62487559  1
  Mn  Mn136  1  0.50022249  0.50045323  0.49933625  1
  Mn  Mn137  1  -0.00007926  0.50031213  -0.00018728  1
  Mn  Mn138  1  0.00086251  0.00013854  0.49994151  1
  Mn  Mn139  1  0.24941682  0.33347657  0.12547697  1
  Mn  Mn140  1  0.75039224  0.49877316  0.12466583  1
  Mn  Mn141  1  -0.00026738  0.00061404  0.24970936  1
  Mn  Mn142  1  0.50015579  0.33311884  0.75068608  1
  Mn  Mn143  1  0.49975396  -0.00069374  0.50011141  1
  Fe  Fe144  1  0.50038304  0.83271694  0.75071533  1
  Fe  Fe145  1  0.00025629  0.83351025  0.50104275  1
  Fe  Fe146  1  0.00030891  0.16657637  0.50004273  1
  Fe  Fe147  1  0.74972993  0.66596732  0.37517911  1
  Fe  Fe148  1  0.49974938  0.49951815  0.75081401  1
  Fe  Fe149  1  0.00032381  0.16646743  0.74987988  1
  Fe  Fe150  1  0.00018145  0.00038525  -0.00068133  1
  Fe  Fe151  1  0.49979623  -0.00052198  0.75059922  1
  Fe  Fe152  1  0.00044961  0.83324007  0.75036509  1
  Fe  Fe153  1  0.25066526  0.66768356  0.37512253  1
  Fe  Fe154  1  0.25064479  0.83385739  0.37543694  1
  Fe  Fe155  1  0.49980713  0.33306089  0.00023318  1
  Fe  Fe156  1  -0.00025718  0.66735310  0.00022864  1
  Fe  Fe157  1  0.25003088  0.16685237  0.37461762  1
  Fe  Fe158  1  -0.00004395  0.16713931  -0.00108907  1
  Fe  Fe159  1  0.75043599  0.00018328  0.37472118  1
  Fe  Fe160  1  0.74931483  0.33299434  0.12472535  1
  Fe  Fe161  1  0.74962489  0.00021851  0.12525770  1
  Fe  Fe162  1  0.74969496  0.49936912  0.37453491  1
  Fe  Fe163  1  -0.00014024  0.33225185  0.74947017  1
  Fe  Fe164  1  0.49935324  0.16734550  0.24890407  1
  Fe  Fe165  1  0.00062174  0.66650451  0.75045835  1
  Fe  Fe166  1  0.50032531  0.66599555  0.75032656  1
  Fe  Fe167  1  0.24956897  0.50044083  0.12588906  1
  Fe  Fe168  1  0.25102645  0.83305362  0.62390385  1
  Fe  Fe169  1  0.75016547  0.33329688  0.87497019  1
  Fe  Fe170  1  0.50040417  0.16592929  0.75128377  1
  Fe  Fe171  1  0.75005552  0.16602944  0.37380022  1
  Fe  Fe172  1  0.49989267  0.33340123  0.24908574  1
  Fe  Fe173  1  -0.00029796  0.83457619  0.24971124  1
  Fe  Fe174  1  0.49951285  0.66615299  0.24902068  1
  Fe  Fe175  1  0.75031487  0.49927359  0.87502258  1
  Fe  Fe176  1  0.25130200  0.66755836  0.62448697  1
  Fe  Fe177  1  0.49998358  0.50006450  0.24893313  1
  Fe  Fe178  1  0.24989236  0.00042789  0.12558862  1
  Fe  Fe179  1  0.49973593  -0.00010032  -0.00016652  1
  Fe  Fe180  1  0.50043370  0.83295072  0.50059843  1
  Fe  Fe181  1  0.49979556  0.49970679  0.00007380  1
  Fe  Fe182  1  -0.00014162  0.33247924  0.49981153  1
  Fe  Fe183  1  0.00030716  0.00022339  0.74984221  1
  Fe  Fe184  1  -0.00021083  0.33322442  -0.00082805  1
  Fe  Fe185  1  0.24984103  0.00066534  0.37445705  1
  Fe  Fe186  1  0.49935061  0.66546053  -0.00047119  1
  Fe  Fe187  1  0.25052828  0.33337737  0.62457893  1
  Fe  Fe188  1  0.49971387  0.16632424  0.00025375  1
  Fe  Fe189  1  0.24977144  0.16629474  0.12524366  1
  Fe  Fe190  1  0.00009305  0.33330201  0.24941363  1
  Fe  Fe191  1  0.74988033  0.00017747  0.87519787  1
  P  P192  1  0.04112252  0.25079301  0.10084032  1
  P  P193  1  0.04217400  0.25153345  0.35247160  1
  P  P194  1  0.04149326  0.24935809  0.60204968  1
  P  P195  1  0.04141523  0.24967487  0.85182059  1
  P  P196  1  0.04178065  0.58519606  0.10277279  1
  P  P197  1  0.04259476  0.58369187  0.35377488  1
  P  P198  1  0.04307589  0.58339564  0.60416265  1
  P  P199  1  0.04254625  0.58444427  0.85304031  1
  P  P200  1  0.04185870  0.91828926  0.10222645  1
  P  P201  1  0.04218065  0.91607224  0.35275542  1
  P  P202  1  0.04269123  0.91553514  0.60329621  1
  P  P203  1  0.04136792  0.91742957  0.85159079  1
  P  P204  1  0.54082624  0.24985453  0.10205702  1
  P  P205  1  0.54120066  0.25019015  0.35069799  1
  P  P206  1  0.54308260  0.24990105  0.60379601  1
  P  P207  1  0.54188472  0.24827345  0.85393200  1
  P  P208  1  0.54126506  0.58273177  0.10182965  1
  P  P209  1  0.54117315  0.58361102  0.35071649  1
  P  P210  1  0.54296343  0.58323085  0.60403675  1
  P  P211  1  0.54101810  0.58256621  0.85258184  1
  P  P212  1  0.54168767  0.91771723  0.10222854  1
  P  P213  1  0.54260732  0.91611073  0.35349425  1
  P  P214  1  0.54247992  0.91508078  0.60351730  1
  P  P215  1  0.54079115  0.91637222  0.85242953  1
  P  P216  1  0.45793724  0.08479724  0.14667912  1
  P  P217  1  0.45739223  0.08382602  0.39656216  1
  P  P218  1  0.45894627  0.08319224  0.64908792  1
  P  P219  1  0.45849311  0.08304674  0.89814346  1
  P  P220  1  0.45879529  0.41660286  0.14724723  1
  P  P221  1  0.45740848  0.41666396  0.39552617  1
  P  P222  1  0.45783440  0.41780637  0.64799628  1
  P  P223  1  0.45859920  0.41653597  0.89851808  1
  P  P224  1  0.45724535  0.74803184  0.14673534  1
  P  P225  1  0.45816791  0.75094944  0.39744544  1
  P  P226  1  0.45944604  0.74996717  0.64879089  1
  P  P227  1  0.45762949  0.74783953  0.89698216  1
  P  P228  1  0.95747538  0.08404971  0.14532642  1
  P  P229  1  0.95838865  0.08490328  0.39740050  1
  P  P230  1  0.95902003  0.08336895  0.64810008  1
  P  P231  1  0.95889781  0.08342707  0.89729113  1
  P  P232  1  0.95773858  0.41537870  0.14689433  1
  P  P233  1  0.95796510  0.41497817  0.39737221  1
  P  P234  1  0.95781677  0.41442039  0.64734506  1
  P  P235  1  0.95806761  0.41507831  0.89686144  1
  P  P236  1  0.95699101  0.75215241  0.14745242  1
  P  P237  1  0.95813737  0.75243895  0.39788958  1
  P  P238  1  0.95906715  0.74986346  0.64895034  1
  P  P239  1  0.95778812  0.74879707  0.89689396  1
  P  P240  1  0.20814878  0.08346917  0.22733134  1
  P  P241  1  0.20853849  0.08375871  0.47612007  1
  P  P242  1  0.20701024  0.08321768  0.72748473  1
  P  P243  1  0.20738571  0.08338336  0.97899726  1
  P  P244  1  0.20722616  0.41841500  0.22786804  1
  P  P245  1  0.20712370  0.41677408  0.47886586  1
  P  P246  1  0.20775429  0.41529560  0.72710666  1
  P  P247  1  0.20710416  0.41691217  0.97890675  1
  P  P248  1  0.20716864  0.75086351  0.22966985  1
  P  P249  1  0.20952750  0.75044402  0.47733921  1
  P  P250  1  0.20942519  0.75032304  0.72595266  1
  P  P251  1  0.20657619  0.75024458  0.97843749  1
  P  P252  1  0.70750303  0.08209890  0.22779200  1
  P  P253  1  0.70846714  0.08337092  0.47582992  1
  P  P254  1  0.70751414  0.08301833  0.72875948  1
  P  P255  1  0.70751749  0.08198026  0.97773179  1
  P  P256  1  0.70740978  0.41500304  0.22733445  1
  P  P257  1  0.70689084  0.41764504  0.47666541  1
  P  P258  1  0.70763067  0.41626100  0.72900509  1
  P  P259  1  0.70835768  0.41617089  0.97668085  1
  P  P260  1  0.70714608  0.74941534  0.22891545  1
  P  P261  1  0.70800881  0.74871688  0.47736850  1
  P  P262  1  0.70774918  0.75000220  0.72853572  1
  P  P263  1  0.70644680  0.75023230  0.97856413  1
  P  P264  1  0.29200899  0.24866534  0.02336527  1
  P  P265  1  0.29148587  0.24860950  0.27187685  1
  P  P266  1  0.29246438  0.25107971  0.52187416  1
  P  P267  1  0.29318598  0.25028750  0.77158516  1
  P  P268  1  0.29196432  0.58198533  0.02321387  1
  P  P269  1  0.29196474  0.58466578  0.27270667  1
  P  P270  1  0.29308905  0.58554801  0.52239890  1
  P  P271  1  0.29275993  0.58380608  0.77136127  1
  P  P272  1  0.29225993  0.91807316  0.02315955  1
  P  P273  1  0.29142754  0.91749842  0.27349761  1
  P  P274  1  0.29257158  0.91556338  0.52136308  1
  P  P275  1  0.29280043  0.91609358  0.77114336  1
  P  P276  1  0.79127576  0.25156001  0.02183041  1
  P  P277  1  0.79179873  0.24847600  0.27163889  1
  P  P278  1  0.79252215  0.24921860  0.52087447  1
  P  P279  1  0.79235480  0.25083198  0.77286918  1
  P  P280  1  0.79279889  0.58241174  0.02158413  1
  P  P281  1  0.79150515  0.58252110  0.27344656  1
  P  P282  1  0.79313816  0.58300359  0.52088465  1
  P  P283  1  0.79265904  0.58175989  0.77313829  1
  P  P284  1  0.79174141  0.91866546  0.02255335  1
  P  P285  1  0.79249012  0.91841450  0.27236067  1
  P  P286  1  0.79341724  0.91714334  0.52128419  1
  P  P287  1  0.79230214  0.91803624  0.77296470  1
  O  O288  1  0.03649899  0.25103499  0.18081044  1
  O  O289  1  0.03692576  0.25086150  0.43232789  1
  O  O290  1  0.03629267  0.24925021  0.68195361  1
  O  O291  1  0.03603028  0.24976612  0.93169496  1
  O  O292  1  0.03645205  0.58484474  0.18271918  1
  O  O293  1  0.03776294  0.58332034  0.43376340  1
  O  O294  1  0.03785352  0.58375718  0.68414174  1
  O  O295  1  0.03703357  0.58460068  0.93299087  1
  O  O296  1  0.03654537  0.91750591  0.18213579  1
  O  O297  1  0.03712678  0.91602086  0.43272815  1
  O  O298  1  0.03734415  0.91592753  0.68314640  1
  O  O299  1  0.03642096  0.91767173  0.93155193  1
  O  O300  1  0.53561257  0.25048779  0.18194505  1
  O  O301  1  0.53686669  0.25004252  0.43074709  1
  O  O302  1  0.53811037  0.24951814  0.68376923  1
  O  O303  1  0.53617490  0.24833663  0.93377786  1
  O  O304  1  0.53611600  0.58297358  0.18173410  1
  O  O305  1  0.53679435  0.58347481  0.43071334  1
  O  O306  1  0.53776211  0.58305301  0.68392264  1
  O  O307  1  0.53551602  0.58244577  0.93246584  1
  O  O308  1  0.53659129  0.91760733  0.18217802  1
  O  O309  1  0.53744290  0.91559092  0.43345965  1
  O  O310  1  0.53712252  0.91534933  0.68340934  1
  O  O311  1  0.53588940  0.91681215  0.93238987  1
  O  O312  1  0.46318991  0.08442298  0.06680545  1
  O  O313  1  0.46232769  0.08441682  0.31660564  1
  O  O314  1  0.46382087  0.08285786  0.56910111  1
  O  O315  1  0.46389486  0.08299781  0.81824837  1
  O  O316  1  0.46377856  0.41695439  0.06733507  1
  O  O317  1  0.46255404  0.41624854  0.31558027  1
  O  O318  1  0.46293763  0.41757834  0.56802691  1
  O  O319  1  0.46339474  0.41666386  0.81853595  1
  O  O320  1  0.46243205  0.74778625  0.06679227  1
  O  O321  1  0.46289575  0.75020929  0.31749985  1
  O  O322  1  0.46447789  0.75089242  0.56883017  1
  O  O323  1  0.46350139  0.74804333  0.81715427  1
  O  O324  1  0.96257040  0.08372925  0.06544066  1
  O  O325  1  0.96316527  0.08492402  0.31744231  1
  O  O326  1  0.96429670  0.08358259  0.56815226  1
  O  O327  1  0.96407178  0.08369329  0.81739751  1
  O  O328  1  0.96318777  0.41562207  0.06694018  1
  O  O329  1  0.96318845  0.41505392  0.31739110  1
  O  O330  1  0.96328762  0.41445924  0.56741725  1
  O  O331  1  0.96350057  0.41494782  0.81695458  1
  O  O332  1  0.96221672  0.75132016  0.06750347  1
  O  O333  1  0.96325957  0.75289645  0.31794067  1
  O  O334  1  0.96389228  0.75056963  0.56897466  1
  O  O335  1  0.96335797  0.74871212  0.81706094  1
  O  O336  1  0.21257695  0.08349160  0.05897599  1
  O  O337  1  0.21326861  0.08386749  0.30728500  1
  O  O338  1  0.21348858  0.08345634  0.55608347  1
  O  O339  1  0.21173444  0.08317909  0.80749102  1
  O  O340  1  0.21212407  0.41759484  0.05892103  1
  O  O341  1  0.21229019  0.41810430  0.30784160  1
  O  O342  1  0.21271146  0.41608414  0.55876469  1
  O  O343  1  0.21279770  0.41534718  0.80716759  1
  O  O344  1  0.21120381  0.75048827  0.05844406  1
  O  O345  1  0.21292759  0.75090294  0.30955312  1
  O  O346  1  0.21534232  0.75041905  0.55724183  1
  O  O347  1  0.21382986  0.75025452  0.80600617  1
  O  O348  1  0.71242441  0.08183483  0.05772200  1
  O  O349  1  0.71320395  0.08259166  0.30766483  1
  O  O350  1  0.71325559  0.08352867  0.55587413  1
  O  O351  1  0.71253726  0.08261048  0.80873701  1
  O  O352  1  0.71316695  0.41567618  0.05671947  1
  O  O353  1  0.71226574  0.41565928  0.30728256  1
  O  O354  1  0.71199218  0.41744525  0.55666955  1
  O  O355  1  0.71320232  0.41609723  0.80894472  1
  O  O356  1  0.71147225  0.75027612  0.05856621  1
  O  O357  1  0.71269186  0.74879860  0.30887910  1
  O  O358  1  0.71327061  0.74905496  0.55738216  1
  O  O359  1  0.71241283  0.75018272  0.80855761  1
  O  O360  1  0.28584375  0.24833816  0.19196773  1
  O  O361  1  0.28689007  0.25039281  0.44192239  1
  O  O362  1  0.28831554  0.25099380  0.69156172  1
  O  O363  1  0.28742030  0.24886722  0.94332443  1
  O  O364  1  0.28625800  0.58360599  0.19279245  1
  O  O365  1  0.28768362  0.58581505  0.44244407  1
  O  O366  1  0.28787052  0.58453366  0.69137223  1
  O  O367  1  0.28699601  0.58206125  0.94318864  1
  O  O368  1  0.28635045  0.91830654  0.19352028  1
  O  O369  1  0.28712319  0.91585508  0.44146368  1
  O  O370  1  0.28797358  0.91551691  0.69112340  1
  O  O371  1  0.28725923  0.91747239  0.94313878  1
  O  O372  1  0.78650333  0.24902889  0.19167278  1
  O  O373  1  0.78725859  0.24843806  0.44089945  1
  O  O374  1  0.78751643  0.25044625  0.69284739  1
  O  O375  1  0.78599766  0.25194644  0.94190365  1
  O  O376  1  0.78664560  0.58246966  0.19339354  1
  O  O377  1  0.78771947  0.58318231  0.44092274  1
  O  O378  1  0.78785632  0.58206265  0.69308571  1
  O  O379  1  0.78750950  0.58194418  0.94165128  1
  O  O380  1  0.78702672  0.91833724  0.19240702  1
  O  O381  1  0.78823739  0.91740390  0.44129995  1
  O  O382  1  0.78787532  0.91756341  0.69289645  1
  O  O383  1  0.78641073  0.91882645  0.94256810  1
  O  O384  1  0.22756151  0.24897187  0.05826071  1
  O  O385  1  0.22737427  0.24852514  0.30785647  1
  O  O386  1  0.22822653  0.25165697  0.55769037  1
  O  O387  1  0.22864019  0.25011157  0.80633817  1
  O  O388  1  0.22753739  0.58172395  0.05842811  1
  O  O389  1  0.22788901  0.58578265  0.30880068  1
  O  O390  1  0.22887185  0.58550632  0.55807879  1
  O  O391  1  0.22832961  0.58352625  0.80639306  1
  O  O392  1  0.22785812  0.91880981  0.05839182  1
  O  O393  1  0.22739785  0.91663377  0.30951525  1
  O  O394  1  0.22844451  0.91509537  0.55738499  1
  O  O395  1  0.22828406  0.91639114  0.80601127  1
  O  O396  1  0.72710025  0.25128368  0.05765569  1
  O  O397  1  0.72755888  0.24800858  0.30731037  1
  O  O398  1  0.72813483  0.24950539  0.55607600  1
  O  O399  1  0.72794328  0.25079186  0.80796195  1
  O  O400  1  0.72842010  0.58236435  0.05671960  1
  O  O401  1  0.72723426  0.58240927  0.30902637  1
  O  O402  1  0.72889306  0.58329314  0.55643739  1
  O  O403  1  0.72824510  0.58126014  0.80828975  1
  O  O404  1  0.72749078  0.91861292  0.05828171  1
  O  O405  1  0.72830675  0.91820377  0.30809551  1
  O  O406  1  0.72899951  0.91681135  0.55633898  1
  O  O407  1  0.72773920  0.91827729  0.80775990  1
  O  O408  1  0.27221002  0.08323505  0.19105333  1
  O  O409  1  0.27270781  0.08421424  0.44041003  1
  O  O410  1  0.27156283  0.08325877  0.69292488  1
  O  O411  1  0.27166962  0.08316571  0.94349175  1
  O  O412  1  0.27157127  0.41826211  0.19251309  1
  O  O413  1  0.27132229  0.41694835  0.44332310  1
  O  O414  1  0.27210804  0.41520053  0.69174137  1
  O  O415  1  0.27158181  0.41669311  0.94397185  1
  O  O416  1  0.27122985  0.75050675  0.19369102  1
  O  O417  1  0.27337287  0.75045757  0.44049478  1
  O  O418  1  0.27378865  0.75043394  0.69066495  1
  O  O419  1  0.27121258  0.75018187  0.94398338  1
  O  O420  1  0.77154700  0.08207049  0.19146018  1
  O  O421  1  0.77277126  0.08370854  0.44034289  1
  O  O422  1  0.77194435  0.08336022  0.69373560  1
  O  O423  1  0.77184742  0.08245266  0.94236347  1
  O  O424  1  0.77182272  0.41433482  0.19208937  1
  O  O425  1  0.77127226  0.41750604  0.44137859  1
  O  O426  1  0.77179020  0.41604770  0.69314942  1
  O  O427  1  0.77258427  0.41656985  0.94096560  1
  O  O428  1  0.77142896  0.75010900  0.19354424  1
  O  O429  1  0.77226393  0.74843585  0.44189816  1
  O  O430  1  0.77231168  0.74999807  0.69385274  1
  O  O431  1  0.77093251  0.75026975  0.94382894  1
  O  O432  1  0.02169858  0.08407448  0.18111395  1
  O  O433  1  0.02273775  0.08494197  0.43293371  1
  O  O434  1  0.02308428  0.08327144  0.68438779  1
  O  O435  1  0.02283456  0.08298504  0.93388400  1
  O  O436  1  0.02195211  0.41518768  0.18293284  1
  O  O437  1  0.02216222  0.41456910  0.43336668  1
  O  O438  1  0.02203980  0.41446081  0.68328362  1
  O  O439  1  0.02218763  0.41527325  0.93302985  1
  O  O440  1  0.02127253  0.75257296  0.18337022  1
  O  O441  1  0.02241305  0.75234573  0.43373921  1
  O  O442  1  0.02328926  0.74938566  0.68484354  1
  O  O443  1  0.02186005  0.74901330  0.93327190  1
  O  O444  1  0.52206849  0.08487658  0.18280590  1
  O  O445  1  0.52177988  0.08303321  0.43186129  1
  O  O446  1  0.52305290  0.08356296  0.68509860  1
  O  O447  1  0.52245878  0.08318816  0.93483048  1
  O  O448  1  0.52279790  0.41585224  0.18364310  1
  O  O449  1  0.52174207  0.41659400  0.43116192  1
  O  O450  1  0.52208137  0.41793584  0.68380811  1
  O  O451  1  0.52272951  0.41693785  0.93453566  1
  O  O452  1  0.52155933  0.74799879  0.18244001  1
  O  O453  1  0.52251710  0.75176094  0.43316684  1
  O  O454  1  0.52346475  0.74920363  0.68506804  1
  O  O455  1  0.52163001  0.74798865  0.93356089  1
  O  O456  1  0.47686942  0.24933312  0.06557463  1
  O  O457  1  0.47690031  0.25107107  0.31511660  1
  O  O458  1  0.47861699  0.25006275  0.56859438  1
  O  O459  1  0.47797549  0.24813399  0.81717006  1
  O  O460  1  0.47712890  0.58257570  0.06552992  1
  O  O461  1  0.47692728  0.58377488  0.31506160  1
  O  O462  1  0.47871335  0.58362805  0.56829077  1
  O  O463  1  0.47715884  0.58282447  0.81566616  1
  O  O464  1  0.47738940  0.91766702  0.06664002  1
  O  O465  1  0.47828039  0.91649129  0.31804420  1
  O  O466  1  0.47830121  0.91462670  0.56718651  1
  O  O467  1  0.47681435  0.91602803  0.81623242  1
  O  O468  1  0.97695592  0.25097772  0.06487903  1
  O  O469  1  0.97795316  0.25210171  0.31630051  1
  O  O470  1  0.97750005  0.24918164  0.56541625  1
  O  O471  1  0.97741919  0.24963776  0.81520316  1
  O  O472  1  0.97759097  0.58501824  0.06682633  1
  O  O473  1  0.97817299  0.58372296  0.31865760  1
  O  O474  1  0.97879543  0.58320044  0.56865101  1
  O  O475  1  0.97836384  0.58432783  0.81699003  1
  O  O476  1  0.97769199  0.91875680  0.06612455  1
  O  O477  1  0.97788553  0.91587797  0.31691805  1
  O  O478  1  0.97855091  0.91583112  0.56703797  1
  O  O479  1  0.97726618  0.91740898  0.81557725  1
  O  O480  1  0.07252172  0.31398876  0.07255495  1
  O  O481  1  0.07328082  0.31480260  0.32384494  1
  O  O482  1  0.07231326  0.31295903  0.57373732  1
  O  O483  1  0.07247028  0.31314732  0.82337673  1
  O  O484  1  0.07227270  0.64897491  0.07469022  1
  O  O485  1  0.07344952  0.64735871  0.32601842  1
  O  O486  1  0.07424453  0.64664644  0.57570229  1
  O  O487  1  0.07351761  0.64769985  0.82431713  1
  O  O488  1  0.07268674  0.98187041  0.07409597  1
  O  O489  1  0.07278098  0.98010644  0.32508392  1
  O  O490  1  0.07419893  0.97880403  0.57500625  1
  O  O491  1  0.07264834  0.98061430  0.82307896  1
  O  O492  1  0.57128482  0.31363173  0.07317239  1
  O  O493  1  0.57267834  0.31336124  0.32252847  1
  O  O494  1  0.57388544  0.31350167  0.57549079  1
  O  O495  1  0.57301580  0.31196489  0.82627648  1
  O  O496  1  0.57208789  0.64623377  0.07314701  1
  O  O497  1  0.57201515  0.64721847  0.32268553  1
  O  O498  1  0.57418603  0.64661289  0.57555116  1
  O  O499  1  0.57232579  0.64602610  0.82457857  1
  O  O500  1  0.57237887  0.98122864  0.07379702  1
  O  O501  1  0.57368688  0.97974579  0.32574930  1
  O  O502  1  0.57331904  0.97882947  0.57536856  1
  O  O503  1  0.57151968  0.97990497  0.82376546  1
  O  O504  1  0.42657789  0.02148774  0.17493923  1
  O  O505  1  0.42617245  0.02038112  0.42458510  1
  O  O506  1  0.42855550  0.01918374  0.67723070  1
  O  O507  1  0.42778239  0.01923181  0.92641674  1
  O  O508  1  0.42713648  0.35339441  0.17528436  1
  O  O509  1  0.42617378  0.35354802  0.42449377  1
  O  O510  1  0.42685241  0.35418145  0.67581171  1
  O  O511  1  0.42849337  0.35236004  0.92677148  1
  O  O512  1  0.42632784  0.68489551  0.17571693  1
  O  O513  1  0.42766222  0.68729099  0.42604571  1
  O  O514  1  0.42820689  0.68629574  0.67620737  1
  O  O515  1  0.42668585  0.68442331  0.92551704  1
  O  O516  1  0.92626226  0.02097628  0.17436110  1
  O  O517  1  0.92751139  0.02119703  0.42512157  1
  O  O518  1  0.92834598  0.01950589  0.67611263  1
  O  O519  1  0.92755663  0.02012340  0.92557433  1
  O  O520  1  0.92671462  0.35209536  0.17534479  1
  O  O521  1  0.92674161  0.35180454  0.42588686  1
  O  O522  1  0.92684537  0.35107835  0.67577892  1
  O  O523  1  0.92708455  0.35177425  0.92538478  1
  O  O524  1  0.92585808  0.68878799  0.17587833  1
  O  O525  1  0.92735365  0.68838313  0.42518632  1
  O  O526  1  0.92799311  0.68615806  0.67657134  1
  O  O527  1  0.92698837  0.68551975  0.92595787  1
  O  O528  1  0.17724086  0.01975357  0.19920604  1
  O  O529  1  0.17810856  0.01984715  0.44779673  1
  O  O530  1  0.17615556  0.01980188  0.69902806  1
  O  O531  1  0.17616225  0.02009902  0.95040595  1
  O  O532  1  0.17610575  0.35480457  0.20005840  1
  O  O533  1  0.17570252  0.35384198  0.44995662  1
  O  O534  1  0.17706267  0.35180818  0.69857736  1
  O  O535  1  0.17638209  0.35303189  0.95105700  1
  O  O536  1  0.17549709  0.68775088  0.20136007  1
  O  O537  1  0.17845214  0.68682987  0.44921795  1
  O  O538  1  0.17882070  0.68657141  0.69764865  1
  O  O539  1  0.17588077  0.68666815  0.95007872  1
  O  O540  1  0.67655658  0.01861153  0.19937930  1
  O  O541  1  0.67808764  0.01931586  0.44793122  1
  O  O542  1  0.67646636  0.01982381  0.69988245  1
  O  O543  1  0.67694971  0.01862693  0.94856385  1
  O  O544  1  0.67664382  0.35146497  0.19874237  1
  O  O545  1  0.67571670  0.35404900  0.44895305  1
  O  O546  1  0.67621995  0.35304490  0.70043157  1
  O  O547  1  0.67760540  0.35261109  0.94813177  1
  O  O548  1  0.67618897  0.68609628  0.20024858  1
  O  O549  1  0.67712370  0.68518666  0.44901487  1
  O  O550  1  0.67693592  0.68636248  0.70055076  1
  O  O551  1  0.67551925  0.68673268  0.95035479  1
  O  O552  1  0.32320603  0.31221658  0.05125030  1
  O  O553  1  0.32239632  0.31261733  0.29910266  1
  O  O554  1  0.32336109  0.31465382  0.55010730  1
  O  O555  1  0.32444707  0.31324275  0.80076600  1
  O  O556  1  0.32266830  0.64581667  0.05101309  1
  O  O557  1  0.32321174  0.64823027  0.30045709  1
  O  O558  1  0.32419217  0.64874678  0.55114378  1
  O  O559  1  0.32383792  0.64684179  0.80049553  1
  O  O560  1  0.32326387  0.98144180  0.05149552  1
  O  O561  1  0.32181458  0.98129612  0.30221917  1
  O  O562  1  0.32351144  0.97930684  0.54942707  1
  O  O563  1  0.32357260  0.97982526  0.79923300  1
  O  O564  1  0.82211179  0.31473397  0.05095356  1
  O  O565  1  0.82283154  0.31193401  0.29990440  1
  O  O566  1  0.82328189  0.31309074  0.54858378  1
  O  O567  1  0.82292501  0.31437277  0.80146474  1
  O  O568  1  0.82357594  0.64615624  0.04965190  1
  O  O569  1  0.82219595  0.64632210  0.30146532  1
  O  O570  1  0.82463318  0.64610061  0.54971233  1
  O  O571  1  0.82334426  0.64556015  0.80101158  1
  O  O572  1  0.82274674  0.98192244  0.05119919  1
  O  O573  1  0.82335268  0.98185299  0.30089706  1
  O  O574  1  0.82445398  0.98051273  0.54974185  1
  O  O575  1  0.82285038  0.98168523  0.80147676  1
  O  O576  1  0.42728723  0.14846303  0.17531702  1
  O  O577  1  0.42658453  0.14719386  0.42534423  1
  O  O578  1  0.42778302  0.14669378  0.67705039  1
  O  O579  1  0.42717790  0.14643376  0.92638412  1
  O  O580  1  0.42854694  0.48052390  0.17606476  1
  O  O581  1  0.42645960  0.48028998  0.42377630  1
  O  O582  1  0.42702986  0.48132396  0.67637635  1
  O  O583  1  0.42699195  0.47963398  0.92681661  1
  O  O584  1  0.42643698  0.81203359  0.17424285  1
  O  O585  1  0.42721959  0.81437778  0.42588889  1
  O  O586  1  0.42886145  0.81353199  0.67772292  1
  O  O587  1  0.42615800  0.81135817  0.92485390  1
  O  O588  1  0.92635198  0.14761526  0.17348644  1
  O  O589  1  0.92765691  0.14833316  0.42602783  1
  O  O590  1  0.92782797  0.14676191  0.67641376  1
  O  O591  1  0.92840037  0.14733477  0.92585000  1
  O  O592  1  0.92683571  0.47920465  0.17474906  1
  O  O593  1  0.92729704  0.47891251  0.42519180  1
  O  O594  1  0.92679967  0.47818949  0.67510063  1
  O  O595  1  0.92700532  0.47882956  0.92449946  1
  O  O596  1  0.92635312  0.81594927  0.17547421  1
  O  O597  1  0.92709048  0.81548984  0.42701428  1
  O  O598  1  0.92856794  0.81360335  0.67773082  1
  O  O599  1  0.92638193  0.81249840  0.92445116  1
  O  O600  1  0.07128177  0.18665316  0.07252828  1
  O  O601  1  0.07302426  0.18796920  0.32380822  1
  O  O602  1  0.07252791  0.18578765  0.57356469  1
  O  O603  1  0.07240436  0.18600450  0.82356921  1
  O  O604  1  0.07308179  0.52163863  0.07507504  1
  O  O605  1  0.07366496  0.52033912  0.32531860  1
  O  O606  1  0.07414931  0.51974700  0.57643510  1
  O  O607  1  0.07360963  0.52058405  0.82560967  1
  O  O608  1  0.07303415  0.85485777  0.07397917  1
  O  O609  1  0.07325848  0.85297788  0.32389702  1
  O  O610  1  0.07319687  0.85184780  0.57468037  1
  O  O611  1  0.07185067  0.85331499  0.82362684  1
  O  O612  1  0.57239129  0.18649356  0.07419953  1
  O  O613  1  0.57104075  0.18597142  0.32228884  1
  O  O614  1  0.57417753  0.18661691  0.57509103  1
  O  O615  1  0.57302303  0.18492101  0.82542156  1
  O  O616  1  0.57236982  0.51910588  0.07365420  1
  O  O617  1  0.57156292  0.51979074  0.32206368  1
  O  O618  1  0.57400926  0.51997003  0.57509583  1
  O  O619  1  0.57181245  0.51879488  0.82431598  1
  O  O620  1  0.57278767  0.85396168  0.07478789  1
  O  O621  1  0.57377847  0.85298198  0.32467089  1
  O  O622  1  0.57360388  0.85180393  0.57483664  1
  O  O623  1  0.57179647  0.85256411  0.82467111  1
  O  O624  1  0.32246749  0.18502825  0.05192262  1
  O  O625  1  0.32266007  0.18545728  0.30066419  1
  O  O626  1  0.32354968  0.18749839  0.55001005  1
  O  O627  1  0.32390949  0.18645680  0.79957311  1
  O  O628  1  0.32281247  0.51858865  0.05195211  1
  O  O629  1  0.32285528  0.52109670  0.30100188  1
  O  O630  1  0.32402981  0.52162443  0.54988320  1
  O  O631  1  0.32355227  0.51992693  0.79911223  1
  O  O632  1  0.32291926  0.85427864  0.05128642  1
  O  O633  1  0.32293074  0.85395415  0.30100268  1
  O  O634  1  0.32376335  0.85233324  0.55018433  1
  O  O635  1  0.32390460  0.85300096  0.80015268  1
  O  O636  1  0.82235782  0.18763088  0.04900742  1
  O  O637  1  0.82275727  0.18488973  0.29981860  1
  O  O638  1  0.82378851  0.18622035  0.54992815  1
  O  O639  1  0.82347392  0.18731716  0.80101516  1
  O  O640  1  0.82420805  0.51928646  0.05017478  1
  O  O641  1  0.82221255  0.51861495  0.30132855  1
  O  O642  1  0.82412083  0.51944029  0.54928102  1
  O  O643  1  0.82356047  0.51824565  0.80140413  1
  O  O644  1  0.82265423  0.85476334  0.05021052  1
  O  O645  1  0.82367638  0.85476051  0.30012838  1
  O  O646  1  0.82442690  0.85360346  0.54957491  1
  O  O647  1  0.82316418  0.85446257  0.80125335  1
  O  O648  1  0.17727896  0.14702147  0.19854695  1
  O  O649  1  0.17745700  0.14737783  0.44825606  1
  O  O650  1  0.17606116  0.14669491  0.69919774  1
  O  O651  1  0.17635199  0.14682263  0.95042150  1
  O  O652  1  0.17664642  0.48210794  0.19962949  1
  O  O653  1  0.17616003  0.48073092  0.45155734  1
  O  O654  1  0.17680325  0.47915812  0.69972450  1
  O  O655  1  0.17578342  0.47984872  0.94980362  1
  O  O656  1  0.17615962  0.81442228  0.20133117  1
  O  O657  1  0.17833761  0.81401612  0.44929138  1
  O  O658  1  0.17865499  0.81398130  0.69764864  1
  O  O659  1  0.17572452  0.81371206  0.94983399  1
  O  O660  1  0.67617859  0.14549757  0.19942729  1
  O  O661  1  0.67735918  0.14679782  0.44742154  1
  O  O662  1  0.67649447  0.14662609  0.70071420  1
  O  O663  1  0.67632011  0.14575820  0.95030687  1
  O  O664  1  0.67659255  0.47857034  0.19891107  1
  O  O665  1  0.67637314  0.48125474  0.44805426  1
  O  O666  1  0.67659380  0.47980128  0.70078693  1
  O  O667  1  0.67759147  0.48001574  0.94868927  1
  O  O668  1  0.67580120  0.81301916  0.20129000  1
  O  O669  1  0.67694169  0.81238255  0.44964178  1
  O  O670  1  0.67691430  0.81348954  0.70003936  1
  O  O671  1  0.67541346  0.81373731  0.95043405  1
