# generated using pymatgen
data_Na2MnFe(PO4)2
_symmetry_space_group_name_H-M   'P 1'
_cell_length_a   22.34702275
_cell_length_b   20.09600722
_cell_length_c   19.44661807
_cell_angle_alpha   89.97146996
_cell_angle_beta   89.99906646
_cell_angle_gamma   90.00244116
_symmetry_Int_Tables_number   1
_chemical_formula_structural   Na2MnFe(PO4)2
_chemical_formula_sum   'Na96 Mn48 Fe48 P96 O384'
_cell_volume   8733.20147999
_cell_formula_units_Z   48
loop_
 _symmetry_equiv_pos_site_id
 _symmetry_equiv_pos_as_xyz
  1  'x, y, z'
loop_
 _atom_site_type_symbol
 _atom_site_label
 _atom_site_symmetry_multiplicity
 _atom_site_fract_x
 _atom_site_fract_y
 _atom_site_fract_z
 _atom_site_occupancy
  Na  Na0  1  0.14048731  0.25084980  0.24387479  1
  Na  Na1  1  0.14049737  0.24951408  0.49235455  1
  Na  Na2  1  0.14063966  0.24977112  0.74391260  1
  Na  Na3  1  0.14081689  0.24866446  0.99484499  1
  Na  Na4  1  0.14052543  0.58228355  0.24354943  1
  Na  Na5  1  0.14062035  0.58318746  0.49373572  1
  Na  Na6  1  0.14051515  0.58515112  0.74343445  1
  Na  Na7  1  0.14015362  0.58287333  0.99464217  1
  Na  Na8  1  0.13991282  0.91636528  0.24266640  1
  Na  Na9  1  0.14081099  0.91594799  0.49332096  1
  Na  Na10  1  0.14078046  0.91679317  0.74452934  1
  Na  Na11  1  0.14007314  0.91668574  0.99310244  1
  Na  Na12  1  0.64012577  0.25044678  0.24416072  1
  Na  Na13  1  0.63983615  0.24857858  0.49405911  1
  Na  Na14  1  0.64028010  0.25010701  0.74387675  1
  Na  Na15  1  0.64067257  0.24965188  0.99358362  1
  Na  Na16  1  0.63992911  0.58422041  0.24329370  1
  Na  Na17  1  0.63985474  0.58448193  0.49472055  1
  Na  Na18  1  0.63974118  0.58489618  0.74331237  1
  Na  Na19  1  0.64001192  0.58337919  0.99249780  1
  Na  Na20  1  0.63955620  0.91720355  0.24422462  1
  Na  Na21  1  0.64090536  0.91731498  0.49408242  1
  Na  Na22  1  0.64067980  0.91740090  0.74394833  1
  Na  Na23  1  0.63965478  0.91587527  0.99192978  1
  Na  Na24  1  0.36025055  0.08224239  0.00565869  1
  Na  Na25  1  0.35967250  0.08324977  0.25691820  1
  Na  Na26  1  0.35980008  0.08254510  0.50660244  1
  Na  Na27  1  0.36017092  0.08314251  0.75745096  1
  Na  Na28  1  0.35947481  0.41600793  0.00622237  1
  Na  Na29  1  0.35971521  0.41694866  0.25691993  1
  Na  Na30  1  0.35977904  0.41794360  0.50654520  1
  Na  Na31  1  0.35941565  0.41780848  0.75694603  1
  Na  Na32  1  0.36029516  0.74794774  0.00678007  1
  Na  Na33  1  0.35933712  0.74886843  0.25606379  1
  Na  Na34  1  0.35884077  0.74939959  0.50652254  1
  Na  Na35  1  0.35978997  0.75030038  0.75688554  1
  Na  Na36  1  0.85991015  0.08237142  0.00590047  1
  Na  Na37  1  0.85972343  0.08239637  0.25757507  1
  Na  Na38  1  0.86012389  0.08277970  0.50553231  1
  Na  Na39  1  0.85998157  0.08331316  0.75667490  1
  Na  Na40  1  0.85973741  0.41667616  0.00632995  1
  Na  Na41  1  0.85963261  0.41673618  0.25633133  1
  Na  Na42  1  0.85924349  0.41657448  0.50551597  1
  Na  Na43  1  0.85944586  0.41774509  0.75660816  1
  Na  Na44  1  0.85965432  0.75007395  0.00545251  1
  Na  Na45  1  0.85940289  0.75118834  0.25571728  1
  Na  Na46  1  0.85934630  0.75077670  0.50559707  1
  Na  Na47  1  0.85944890  0.75111818  0.75651031  1
  Na  Na48  1  0.10975006  0.08299315  0.11912999  1
  Na  Na49  1  0.10956109  0.08300393  0.36744284  1
  Na  Na50  1  0.11005859  0.08249384  0.61987779  1
  Na  Na51  1  0.11049301  0.08295088  0.86932083  1
  Na  Na52  1  0.10961742  0.41671532  0.12021884  1
  Na  Na53  1  0.10993370  0.41601459  0.36780419  1
  Na  Na54  1  0.10977538  0.41615443  0.61817011  1
  Na  Na55  1  0.10939115  0.41844440  0.86922756  1
  Na  Na56  1  0.10931698  0.75008776  0.11857106  1
  Na  Na57  1  0.10986977  0.75028201  0.36755220  1
  Na  Na58  1  0.11045660  0.74962532  0.61853895  1
  Na  Na59  1  0.10985739  0.75083907  0.86859572  1
  Na  Na60  1  0.60968821  0.08193164  0.11955040  1
  Na  Na61  1  0.60978999  0.08489784  0.36857031  1
  Na  Na62  1  0.61014157  0.08375719  0.61915638  1
  Na  Na63  1  0.60965686  0.08314642  0.86769075  1
  Na  Na64  1  0.60956090  0.41708145  0.11840411  1
  Na  Na65  1  0.60910288  0.41854428  0.36860570  1
  Na  Na66  1  0.60885565  0.41591647  0.61992355  1
  Na  Na67  1  0.60898710  0.41616804  0.86785498  1
  Na  Na68  1  0.60877201  0.75035336  0.11767031  1
  Na  Na69  1  0.60943408  0.75143148  0.36908180  1
  Na  Na70  1  0.61020579  0.74905989  0.61876228  1
  Na  Na71  1  0.60990258  0.74990471  0.86738076  1
  Na  Na72  1  0.39049557  0.24873571  0.13162481  1
  Na  Na73  1  0.39061967  0.25191280  0.38145611  1
  Na  Na74  1  0.39083759  0.24928119  0.63202557  1
  Na  Na75  1  0.39041195  0.24836697  0.88105968  1
  Na  Na76  1  0.38990044  0.58291392  0.13178390  1
  Na  Na77  1  0.39010095  0.58358064  0.38122427  1
  Na  Na78  1  0.38976912  0.58202646  0.63287367  1
  Na  Na79  1  0.38992902  0.58419579  0.88113050  1
  Na  Na80  1  0.39060553  0.91559854  0.13063361  1
  Na  Na81  1  0.38949779  0.91785963  0.38158983  1
  Na  Na82  1  0.39021511  0.91626142  0.63174106  1
  Na  Na83  1  0.39117353  0.91630455  0.88156600  1
  Na  Na84  1  0.89090593  0.24974983  0.13225524  1
  Na  Na85  1  0.89029670  0.24950818  0.38055164  1
  Na  Na86  1  0.89035166  0.24804355  0.63072233  1
  Na  Na87  1  0.89072372  0.25057519  0.88147063  1
  Na  Na88  1  0.88995262  0.58275849  0.13118517  1
  Na  Na89  1  0.89020288  0.58306994  0.38020107  1
  Na  Na90  1  0.89016910  0.58401315  0.63130758  1
  Na  Na91  1  0.89016953  0.58539326  0.88115521  1
  Na  Na92  1  0.89049908  0.91754632  0.13055765  1
  Na  Na93  1  0.88994014  0.91743114  0.38094805  1
  Na  Na94  1  0.89042921  0.91565427  0.63164859  1
  Na  Na95  1  0.89027319  0.91714339  0.88134863  1
  Mn  Mn96  1  0.74888580  0.33275385  0.37553943  1
  Mn  Mn97  1  0.75049246  0.16699177  0.87527459  1
  Mn  Mn98  1  0.74992285  0.66805355  0.37428244  1
  Mn  Mn99  1  0.00089199  0.00040970  0.49967751  1
  Mn  Mn100  1  0.74919761  0.50148017  0.62575426  1
  Mn  Mn101  1  -0.00006981  0.66636865  0.49870646  1
  Mn  Mn102  1  0.00070050  0.16532581  0.75110162  1
  Mn  Mn103  1  0.25051191  0.00005393  0.12470014  1
  Mn  Mn104  1  0.24957912  0.66623309  0.37558182  1
  Mn  Mn105  1  0.24932142  0.33272854  0.87570737  1
  Mn  Mn106  1  -0.00018081  0.49933970  0.49992959  1
  Mn  Mn107  1  0.49969735  0.83367819  0.50017158  1
  Mn  Mn108  1  0.25005303  -0.00107672  0.62541660  1
  Mn  Mn109  1  -0.00024704  0.66686158  0.24917692  1
  Mn  Mn110  1  0.25046960  0.16666789  0.37512517  1
  Mn  Mn111  1  -0.00021056  0.50102997  0.74939379  1
  Mn  Mn112  1  0.25030942  0.83202351  0.12436444  1
  Mn  Mn113  1  0.74980188  0.50040682  0.87451869  1
  Mn  Mn114  1  0.00006992  0.33304090  0.75002495  1
  Mn  Mn115  1  0.25021509  0.83243855  0.87515638  1
  Mn  Mn116  1  0.49987579  0.33273103  -0.00079609  1
  Mn  Mn117  1  0.50039771  0.83289553  0.75034918  1
  Mn  Mn118  1  0.74972310  -0.00059544  0.12530450  1
  Mn  Mn119  1  0.50022217  0.50081370  0.24932388  1
  Mn  Mn120  1  0.75062963  0.33368278  0.12495735  1
  Mn  Mn121  1  0.25059969  0.33302774  0.12513163  1
  Mn  Mn122  1  0.75066843  0.00020655  0.62482972  1
  Mn  Mn123  1  0.24972310  0.50102183  0.87572376  1
  Mn  Mn124  1  0.74991735  0.16603695  0.12452688  1
  Mn  Mn125  1  0.00074832  0.83359424  0.75012639  1
  Mn  Mn126  1  0.74971403  0.50077565  0.37537302  1
  Mn  Mn127  1  0.49997063  0.16697661  0.24993002  1
  Mn  Mn128  1  -0.00047494  0.33184332  0.49901330  1
  Mn  Mn129  1  0.49892252  0.50056775  -0.00054583  1
  Mn  Mn130  1  0.50098891  0.16528405  0.00065065  1
  Mn  Mn131  1  0.25000243  0.16624731  0.62434585  1
  Mn  Mn132  1  0.50045891  0.00140054  0.50097768  1
  Mn  Mn133  1  0.49907140  0.66599511  0.49997932  1
  Mn  Mn134  1  0.00078390  0.33436708  0.00111162  1
  Mn  Mn135  1  0.74962701  0.83340553  0.12419504  1
  Mn  Mn136  1  0.49934447  0.83369834  0.24943590  1
  Mn  Mn137  1  0.74974619  0.33297435  0.62508237  1
  Mn  Mn138  1  0.00016521  0.83330035  0.49997413  1
  Mn  Mn139  1  0.00065198  0.16602996  0.00105908  1
  Mn  Mn140  1  0.25054804  0.33418160  0.62482958  1
  Mn  Mn141  1  0.00007365  0.66738040  0.00055984  1
  Mn  Mn142  1  0.50006919  0.33385604  0.50101998  1
  Mn  Mn143  1  0.74911514  0.66620671  0.12491928  1
  Fe  Fe144  1  0.25055245  0.16627143  0.87493378  1
  Fe  Fe145  1  0.74908689  0.83373747  0.37555253  1
  Fe  Fe146  1  0.24994028  0.66662571  0.87478382  1
  Fe  Fe147  1  0.75034299  0.66834896  0.62460482  1
  Fe  Fe148  1  0.25045990  0.16617292  0.12513790  1
  Fe  Fe149  1  0.50006928  0.16578445  0.75040953  1
  Fe  Fe150  1  0.25026604  0.33392367  0.37455598  1
  Fe  Fe151  1  0.00031256  0.66745668  0.75038610  1
  Fe  Fe152  1  0.74976078  0.00012704  0.87434204  1
  Fe  Fe153  1  0.49985602  0.50002792  0.50066802  1
  Fe  Fe154  1  0.00007837  0.83443682  -0.00050588  1
  Fe  Fe155  1  0.24931707  0.50026163  0.62516989  1
  Fe  Fe156  1  0.49954493  0.49981707  0.75039020  1
  Fe  Fe157  1  -0.00049376  0.50052019  0.00035857  1
  Fe  Fe158  1  0.50053847  -0.00026609  0.75031922  1
  Fe  Fe159  1  0.74995994  0.66709192  0.87424410  1
  Fe  Fe160  1  0.25073789  -0.00010017  0.87475705  1
  Fe  Fe161  1  0.75035261  0.33348514  0.87495223  1
  Fe  Fe162  1  0.25050226  0.83326603  0.62492853  1
  Fe  Fe163  1  0.50006869  0.83278838  -0.00007904  1
  Fe  Fe164  1  0.24962654  0.66549928  0.12592247  1
  Fe  Fe165  1  -0.00056000  0.83408751  0.24884140  1
  Fe  Fe166  1  0.25052500  0.50020386  0.37544516  1
  Fe  Fe167  1  0.50006257  0.33394363  0.25042630  1
  Fe  Fe168  1  0.24959257  0.83288575  0.37520134  1
  Fe  Fe169  1  0.49959869  0.16697328  0.50067694  1
  Fe  Fe170  1  0.00033409  -0.00039090  0.75019929  1
  Fe  Fe171  1  0.49960935  0.00009320  0.24999453  1
  Fe  Fe172  1  0.24974929  -0.00061350  0.37484413  1
  Fe  Fe173  1  0.00002615  0.16644199  0.24973983  1
  Fe  Fe174  1  0.50036753  0.66650147  -0.00058490  1
  Fe  Fe175  1  0.00031647  0.16624889  0.49940618  1
  Fe  Fe176  1  0.00000862  0.49955427  0.24997894  1
  Fe  Fe177  1  0.50015655  -0.00072732  -0.00046035  1
  Fe  Fe178  1  0.75033044  0.16661747  0.62520233  1
  Fe  Fe179  1  0.74971613  0.49974044  0.12415725  1
  Fe  Fe180  1  -0.00028698  0.33315228  0.25020366  1
  Fe  Fe181  1  0.75020687  0.83391504  0.62511639  1
  Fe  Fe182  1  0.49979262  0.66710227  0.24983582  1
  Fe  Fe183  1  0.00009350  0.00003168  0.24962569  1
  Fe  Fe184  1  0.75011891  0.83335044  0.87425338  1
  Fe  Fe185  1  0.24980688  0.49963364  0.12561596  1
  Fe  Fe186  1  0.49949808  0.66626122  0.74995609  1
  Fe  Fe187  1  0.75030185  0.16621991  0.37506292  1
  Fe  Fe188  1  0.74958149  -0.00020680  0.37565739  1
  Fe  Fe189  1  0.00006670  0.00013694  0.00072520  1
  Fe  Fe190  1  0.49940367  0.33266927  0.74971095  1
  Fe  Fe191  1  0.25019577  0.66724833  0.62472167  1
  P  P192  1  0.04280076  0.24994548  0.10467380  1
  P  P193  1  0.04159607  0.24932843  0.35145720  1
  P  P194  1  0.04270071  0.24785655  0.60205249  1
  P  P195  1  0.04348393  0.25008316  0.85373982  1
  P  P196  1  0.04179374  0.58185397  0.10312718  1
  P  P197  1  0.04222114  0.58213813  0.35170553  1
  P  P198  1  0.04267845  0.58376850  0.60309590  1
  P  P199  1  0.04227226  0.58517349  0.85277837  1
  P  P200  1  0.04153734  0.91683396  0.10216411  1
  P  P201  1  0.04131172  0.91661137  0.35088410  1
  P  P202  1  0.04327480  0.91677982  0.60342525  1
  P  P203  1  0.04252469  0.91813699  0.85348370  1
  P  P204  1  0.54300626  0.25001358  0.10347606  1
  P  P205  1  0.54208421  0.25184096  0.35295202  1
  P  P206  1  0.54178517  0.24855043  0.60376681  1
  P  P207  1  0.54139027  0.24929424  0.85130933  1
  P  P208  1  0.54193700  0.58472072  0.10215449  1
  P  P209  1  0.54217356  0.58509942  0.35253363  1
  P  P210  1  0.54138982  0.58170349  0.60361607  1
  P  P211  1  0.54101913  0.58366855  0.85166584  1
  P  P212  1  0.54138078  0.91650111  0.10143853  1
  P  P213  1  0.54156860  0.91841376  0.35244256  1
  P  P214  1  0.54295148  0.91685715  0.60394230  1
  P  P215  1  0.54229063  0.91748798  0.85316946  1
  P  P216  1  0.45786248  0.08132786  0.14735310  1
  P  P217  1  0.45775359  0.08524014  0.39769302  1
  P  P218  1  0.45859925  0.08322677  0.64870841  1
  P  P219  1  0.45864940  0.08183266  0.89688041  1
  P  P220  1  0.45749206  0.41547305  0.14755493  1
  P  P221  1  0.45813088  0.41838987  0.39776201  1
  P  P222  1  0.45825553  0.41672420  0.64858471  1
  P  P223  1  0.45697567  0.41657959  0.89567665  1
  P  P224  1  0.45766262  0.74854954  0.14653191  1
  P  P225  1  0.45664052  0.75028824  0.39652916  1
  P  P226  1  0.45773233  0.74849456  0.64789133  1
  P  P227  1  0.45904338  0.74944232  0.89794816  1
  P  P228  1  0.95844142  0.08288763  0.14842180  1
  P  P229  1  0.95838119  0.08458882  0.39634356  1
  P  P230  1  0.95785900  0.08174026  0.64754504  1
  P  P231  1  0.95822241  0.08178955  0.89793940  1
  P  P232  1  0.95833657  0.41675060  0.14839802  1
  P  P233  1  0.95728298  0.41610960  0.39559729  1
  P  P234  1  0.95682712  0.41605275  0.64671059  1
  P  P235  1  0.95777949  0.41853616  0.89789229  1
  P  P236  1  0.95762638  0.75199112  0.14654326  1
  P  P237  1  0.95717054  0.75083223  0.39560777  1
  P  P238  1  0.95798957  0.74905467  0.64767480  1
  P  P239  1  0.95825049  0.75170061  0.89738570  1
  P  P240  1  0.20828402  0.08412330  0.22778389  1
  P  P241  1  0.20776850  0.08150047  0.47700029  1
  P  P242  1  0.20808151  0.08313610  0.72902809  1
  P  P243  1  0.20924502  0.08327070  0.97685011  1
  P  P244  1  0.20841111  0.41744439  0.22847824  1
  P  P245  1  0.20873909  0.41721128  0.47673600  1
  P  P246  1  0.20740482  0.41813393  0.72760120  1
  P  P247  1  0.20725291  0.41673421  0.97902208  1
  P  P248  1  0.20747551  0.74859735  0.22776008  1
  P  P249  1  0.20753780  0.75111510  0.47808054  1
  P  P250  1  0.20905593  0.75041603  0.72673080  1
  P  P251  1  0.20800066  0.74758171  0.97788646  1
  P  P252  1  0.70752454  0.08315707  0.22925461  1
  P  P253  1  0.70874345  0.08351758  0.47707748  1
  P  P254  1  0.70849328  0.08434541  0.72776889  1
  P  P255  1  0.70742654  0.08183686  0.97694765  1
  P  P256  1  0.70736508  0.41803466  0.22722315  1
  P  P257  1  0.70650953  0.41688766  0.47858639  1
  P  P258  1  0.70711493  0.41676405  0.72881221  1
  P  P259  1  0.70747418  0.41566814  0.97729664  1
  P  P260  1  0.70638612  0.75090707  0.22795289  1
  P  P261  1  0.70752396  0.75167213  0.47832648  1
  P  P262  1  0.70873628  0.75091831  0.72710989  1
  P  P263  1  0.70847866  0.74983937  0.97565273  1
  P  P264  1  0.29261574  0.24778089  0.02233994  1
  P  P265  1  0.29253512  0.25117701  0.27245089  1
  P  P266  1  0.29286797  0.25053869  0.52123817  1
  P  P267  1  0.29229076  0.24921672  0.77264269  1
  P  P268  1  0.29144717  0.58298661  0.02382924  1
  P  P269  1  0.29196502  0.58212154  0.27235814  1
  P  P270  1  0.29120080  0.58308086  0.52369221  1
  P  P271  1  0.29190438  0.58507732  0.77193551  1
  P  P272  1  0.29259752  0.91629100  0.02120802  1
  P  P273  1  0.29083440  0.91596184  0.27320844  1
  P  P274  1  0.29240887  0.91504234  0.52178156  1
  P  P275  1  0.29271745  0.91701439  0.77272519  1
  P  P276  1  0.79343171  0.25001946  0.02149626  1
  P  P277  1  0.79199160  0.24886187  0.27275449  1
  P  P278  1  0.79188655  0.24804217  0.52202808  1
  P  P279  1  0.79271095  0.25126490  0.77236193  1
  P  P280  1  0.79190336  0.58232055  0.02185958  1
  P  P281  1  0.79253047  0.58345910  0.27111663  1
  P  P282  1  0.79210463  0.58548540  0.52270051  1
  P  P283  1  0.79203493  0.58570975  0.77184098  1
  P  P284  1  0.79219190  0.91666224  0.02050665  1
  P  P285  1  0.79087071  0.91644458  0.27389694  1
  P  P286  1  0.79236437  0.91571179  0.52199937  1
  P  P287  1  0.79142270  0.91688094  0.77295277  1
  O  O288  1  0.03701808  0.24992032  0.18454353  1
  O  O289  1  0.03662956  0.24878797  0.43147939  1
  O  O290  1  0.03786441  0.24821328  0.68207105  1
  O  O291  1  0.03849047  0.25020804  0.93373552  1
  O  O292  1  0.03638621  0.58155691  0.18302580  1
  O  O293  1  0.03729207  0.58234013  0.43169518  1
  O  O294  1  0.03762465  0.58454179  0.68309764  1
  O  O295  1  0.03700292  0.58471029  0.93272874  1
  O  O296  1  0.03619740  0.91654447  0.18207309  1
  O  O297  1  0.03693404  0.91679256  0.43091339  1
  O  O298  1  0.03824110  0.91713383  0.68339704  1
  O  O299  1  0.03708205  0.91782119  0.93338064  1
  O  O300  1  0.53763705  0.25065082  0.18341038  1
  O  O301  1  0.53675118  0.25132792  0.43288300  1
  O  O302  1  0.53621378  0.24852358  0.68361859  1
  O  O303  1  0.53690498  0.24933545  0.93133528  1
  O  O304  1  0.53698512  0.58487364  0.18213608  1
  O  O305  1  0.53683520  0.58407086  0.43244857  1
  O  O306  1  0.53595842  0.58194385  0.68351138  1
  O  O307  1  0.53604498  0.58437827  0.93166259  1
  O  O308  1  0.53645542  0.91628552  0.18140330  1
  O  O309  1  0.53674145  0.91820070  0.43240755  1
  O  O310  1  0.53787435  0.91701429  0.68391630  1
  O  O311  1  0.53672138  0.91724600  0.93304066  1
  O  O312  1  0.46331874  0.08101283  0.06742764  1
  O  O313  1  0.46269956  0.08475043  0.31777162  1
  O  O314  1  0.46348515  0.08406680  0.56869179  1
  O  O315  1  0.46401256  0.08228259  0.81697608  1
  O  O316  1  0.46228633  0.41571925  0.06754111  1
  O  O317  1  0.46340515  0.41797190  0.31783068  1
  O  O318  1  0.46327521  0.41713422  0.56858523  1
  O  O319  1  0.46237979  0.41668493  0.81577886  1
  O  O320  1  0.46339762  0.74863496  0.06666204  1
  O  O321  1  0.46179762  0.74995357  0.31654742  1
  O  O322  1  0.46249196  0.74881369  0.56791680  1
  O  O323  1  0.46374942  0.74934788  0.81794306  1
  O  O324  1  0.96342882  0.08229718  0.06844858  1
  O  O325  1  0.96354750  0.08444169  0.31645569  1
  O  O326  1  0.96300792  0.08257310  0.56758524  1
  O  O327  1  0.96341619  0.08153476  0.81798234  1
  O  O328  1  0.96345493  0.41737030  0.06840112  1
  O  O329  1  0.96274042  0.41619780  0.31565718  1
  O  O330  1  0.96166232  0.41567459  0.56666971  1
  O  O331  1  0.96289404  0.41821013  0.81792275  1
  O  O332  1  0.96320435  0.75226211  0.06661191  1
  O  O333  1  0.96217544  0.75141239  0.31560980  1
  O  O334  1  0.96275953  0.74939974  0.56766695  1
  O  O335  1  0.96353224  0.75092764  0.81744724  1
  O  O336  1  0.21426650  0.08359735  0.05686688  1
  O  O337  1  0.21347958  0.08329273  0.30770121  1
  O  O338  1  0.21271075  0.08159700  0.55699095  1
  O  O339  1  0.21380114  0.08326879  0.80892450  1
  O  O340  1  0.21279945  0.41693433  0.05894516  1
  O  O341  1  0.21386969  0.41729969  0.30836815  1
  O  O342  1  0.21353943  0.41746416  0.55677162  1
  O  O343  1  0.21245013  0.41786092  0.80756951  1
  O  O344  1  0.21305534  0.74729695  0.05782858  1
  O  O345  1  0.21247085  0.74943651  0.30772943  1
  O  O346  1  0.21301590  0.75128304  0.55793913  1
  O  O347  1  0.21386171  0.74970231  0.80671874  1
  O  O348  1  0.71221140  0.08197791  0.05697614  1
  O  O349  1  0.71293174  0.08331043  0.30917844  1
  O  O350  1  0.71354839  0.08373435  0.55709129  1
  O  O351  1  0.71375345  0.08360343  0.80768066  1
  O  O352  1  0.71289252  0.41636779  0.05727994  1
  O  O353  1  0.71218063  0.41776984  0.30724735  1
  O  O354  1  0.71174183  0.41696501  0.55855153  1
  O  O355  1  0.71254346  0.41628384  0.80876261  1
  O  O356  1  0.71272041  0.74982560  0.05566782  1
  O  O357  1  0.71126732  0.75137668  0.30793643  1
  O  O358  1  0.71329720  0.75134659  0.55819577  1
  O  O359  1  0.71393970  0.75045055  0.80702392  1
  O  O360  1  0.28761350  0.25055786  0.19248564  1
  O  O361  1  0.28759683  0.25116134  0.44127680  1
  O  O362  1  0.28734077  0.24961029  0.69262564  1
  O  O363  1  0.28713191  0.24766405  0.94239076  1
  O  O364  1  0.28640269  0.58220935  0.19250422  1
  O  O365  1  0.28654111  0.58294752  0.44369153  1
  O  O366  1  0.28662670  0.58463382  0.69209630  1
  O  O367  1  0.28652310  0.58352296  0.94383968  1
  O  O368  1  0.28625228  0.91600550  0.19315717  1
  O  O369  1  0.28674184  0.91535400  0.44188200  1
  O  O370  1  0.28771335  0.91637400  0.69276379  1
  O  O371  1  0.28733699  0.91689369  0.94130968  1
  O  O372  1  0.78728893  0.24921156  0.19274076  1
  O  O373  1  0.78635784  0.24772499  0.44207554  1
  O  O374  1  0.78729381  0.25048958  0.69241473  1
  O  O375  1  0.78846846  0.25066992  0.94149594  1
  O  O376  1  0.78719594  0.58259302  0.19115212  1
  O  O377  1  0.78696575  0.58525150  0.44269143  1
  O  O378  1  0.78670613  0.58610077  0.69192607  1
  O  O379  1  0.78684701  0.58295775  0.94189795  1
  O  O380  1  0.78628332  0.91666796  0.19387271  1
  O  O381  1  0.78669739  0.91597346  0.44217261  1
  O  O382  1  0.78677367  0.91630578  0.69295153  1
  O  O383  1  0.78725128  0.91704649  0.94059321  1
  O  O384  1  0.22848190  0.24804800  0.05839405  1
  O  O385  1  0.22826908  0.25119542  0.30805544  1
  O  O386  1  0.22852675  0.25060285  0.55654089  1
  O  O387  1  0.22797453  0.24838952  0.80810777  1
  O  O388  1  0.22726450  0.58290776  0.05983957  1
  O  O389  1  0.22790974  0.58168376  0.30869427  1
  O  O390  1  0.22701773  0.58283790  0.55945919  1
  O  O391  1  0.22774017  0.58533237  0.80808632  1
  O  O392  1  0.22836537  0.91614591  0.05672609  1
  O  O393  1  0.22661851  0.91625409  0.30883211  1
  O  O394  1  0.22831184  0.91452998  0.55810447  1
  O  O395  1  0.22846939  0.91715732  0.80832349  1
  O  O396  1  0.72896567  0.25011993  0.05645474  1
  O  O397  1  0.72761485  0.24842518  0.30801689  1
  O  O398  1  0.72772156  0.24804976  0.55801475  1
  O  O399  1  0.72846258  0.25172719  0.80824626  1
  O  O400  1  0.72755643  0.58175354  0.05746228  1
  O  O401  1  0.72819963  0.58413490  0.30645868  1
  O  O402  1  0.72778612  0.58598078  0.55818376  1
  O  O403  1  0.72777489  0.58527126  0.80756821  1
  O  O404  1  0.72780293  0.91668616  0.05585471  1
  O  O405  1  0.72666549  0.91624010  0.30961068  1
  O  O406  1  0.72832698  0.91562723  0.55842312  1
  O  O407  1  0.72726421  0.91734089  0.80874435  1
  O  O408  1  0.27256923  0.08444030  0.19207609  1
  O  O409  1  0.27214055  0.08144315  0.44170045  1
  O  O410  1  0.27217672  0.08306587  0.69297836  1
  O  O411  1  0.27330963  0.08335319  0.94064695  1
  O  O412  1  0.27244385  0.41776014  0.19214381  1
  O  O413  1  0.27297355  0.41742248  0.44088909  1
  O  O414  1  0.27179580  0.41866544  0.69218052  1
  O  O415  1  0.27142647  0.41668090  0.94331882  1
  O  O416  1  0.27176363  0.74776543  0.19208444  1
  O  O417  1  0.27165095  0.75091576  0.44188855  1
  O  O418  1  0.27318630  0.75115981  0.69080056  1
  O  O419  1  0.27230763  0.74776690  0.94224853  1
  O  O420  1  0.77174713  0.08305190  0.19347076  1
  O  O421  1  0.77285615  0.08344342  0.44118715  1
  O  O422  1  0.77267478  0.08465467  0.69188991  1
  O  O423  1  0.77188436  0.08180434  0.94183974  1
  O  O424  1  0.77182184  0.41862736  0.19195694  1
  O  O425  1  0.77089008  0.41650875  0.44341803  1
  O  O426  1  0.77132191  0.41715776  0.69324384  1
  O  O427  1  0.77176349  0.41539199  0.94154300  1
  O  O428  1  0.77083952  0.75017297  0.19291973  1
  O  O429  1  0.77156389  0.75227656  0.44186235  1
  O  O430  1  0.77279331  0.75116358  0.69069419  1
  O  O431  1  0.77282800  0.74952645  0.94040087  1
  O  O432  1  0.02266691  0.08334950  0.18413894  1
  O  O433  1  0.02256429  0.08488940  0.43241960  1
  O  O434  1  0.02218804  0.08101629  0.68327435  1
  O  O435  1  0.02249315  0.08162607  0.93367827  1
  O  O436  1  0.02244574  0.41613118  0.18450064  1
  O  O437  1  0.02151216  0.41593793  0.43130344  1
  O  O438  1  0.02135866  0.41651061  0.68149514  1
  O  O439  1  0.02210134  0.41910366  0.93347922  1
  O  O440  1  0.02176870  0.75183666  0.18254937  1
  O  O441  1  0.02162009  0.75033532  0.43070129  1
  O  O442  1  0.02243400  0.74890910  0.68289587  1
  O  O443  1  0.02239382  0.75177811  0.93330797  1
  O  O444  1  0.52204839  0.08171482  0.18326483  1
  O  O445  1  0.52210143  0.08573409  0.43331204  1
  O  O446  1  0.52285860  0.08308267  0.68448267  1
  O  O447  1  0.52277485  0.08123180  0.93299532  1
  O  O448  1  0.52188043  0.41550575  0.18286816  1
  O  O449  1  0.52226621  0.41856458  0.43378842  1
  O  O450  1  0.52229347  0.41720977  0.68465848  1
  O  O451  1  0.52117890  0.41701625  0.93141024  1
  O  O452  1  0.52167898  0.74872763  0.18300651  1
  O  O453  1  0.52096619  0.75006577  0.43191132  1
  O  O454  1  0.52214503  0.74848234  0.68306502  1
  O  O455  1  0.52322009  0.74916347  0.93376601  1
  O  O456  1  0.47869539  0.24915922  0.06809417  1
  O  O457  1  0.47791814  0.25192408  0.31691378  1
  O  O458  1  0.47776348  0.24865846  0.56732391  1
  O  O459  1  0.47714951  0.24858859  0.81578810  1
  O  O460  1  0.47754624  0.58513707  0.06673207  1
  O  O461  1  0.47796543  0.58524500  0.31657580  1
  O  O462  1  0.47722912  0.58133708  0.56748757  1
  O  O463  1  0.47684063  0.58312286  0.81578642  1
  O  O464  1  0.47727474  0.91653304  0.06543564  1
  O  O465  1  0.47725005  0.91831058  0.31689880  1
  O  O466  1  0.47855630  0.91727667  0.56879263  1
  O  O467  1  0.47825773  0.91759355  0.81682837  1
  O  O468  1  0.97873183  0.25005803  0.06864055  1
  O  O469  1  0.97746942  0.24947820  0.31542461  1
  O  O470  1  0.97821999  0.24749503  0.56683819  1
  O  O471  1  0.97902115  0.24968964  0.81872709  1
  O  O472  1  0.97764970  0.58237759  0.06710689  1
  O  O473  1  0.97786945  0.58239345  0.31643560  1
  O  O474  1  0.97825542  0.58339725  0.56795446  1
  O  O475  1  0.97800109  0.58563033  0.81702004  1
  O  O476  1  0.97749778  0.91709624  0.06573643  1
  O  O477  1  0.97696038  0.91657783  0.31557879  1
  O  O478  1  0.97889321  0.91697465  0.56823043  1
  O  O479  1  0.97845454  0.91822002  0.81711542  1
  O  O480  1  0.07428498  0.31321901  0.07646789  1
  O  O481  1  0.07222411  0.31340374  0.32382812  1
  O  O482  1  0.07346553  0.31157253  0.57382227  1
  O  O483  1  0.07416832  0.31368769  0.82533730  1
  O  O484  1  0.07305246  0.64566076  0.07584791  1
  O  O485  1  0.07346834  0.64567731  0.32387306  1
  O  O486  1  0.07377920  0.64688941  0.57413952  1
  O  O487  1  0.07296658  0.64886305  0.82434113  1
  O  O488  1  0.07263284  0.98055675  0.07420808  1
  O  O489  1  0.07174856  0.98052723  0.32253292  1
  O  O490  1  0.07469250  0.97982177  0.57471936  1
  O  O491  1  0.07348757  0.98144613  0.82475062  1
  O  O492  1  0.57386825  0.31325130  0.07446517  1
  O  O493  1  0.57259738  0.31565867  0.32462411  1
  O  O494  1  0.57314766  0.31213987  0.57601184  1
  O  O495  1  0.57127397  0.31346035  0.82282706  1
  O  O496  1  0.57325807  0.64768097  0.07311759  1
  O  O497  1  0.57268419  0.64896205  0.32445297  1
  O  O498  1  0.57242574  0.64533832  0.57547387  1
  O  O499  1  0.57160815  0.64730254  0.82282269  1
  O  O500  1  0.57261803  0.97993197  0.07339814  1
  O  O501  1  0.57196621  0.98220866  0.32404344  1
  O  O502  1  0.57447217  0.98000725  0.57555140  1
  O  O503  1  0.57325879  0.98083488  0.82438405  1
  O  O504  1  0.42713704  0.01789999  0.17630474  1
  O  O505  1  0.42680756  0.02167778  0.42600161  1
  O  O506  1  0.42811059  0.01911959  0.67645385  1
  O  O507  1  0.42736226  0.01855394  0.92533288  1
  O  O508  1  0.42692746  0.35192562  0.17618899  1
  O  O509  1  0.42685802  0.35502996  0.42595008  1
  O  O510  1  0.42826748  0.35222145  0.67629603  1
  O  O511  1  0.42607924  0.35296066  0.92395145  1
  O  O512  1  0.42684470  0.68521612  0.17553371  1
  O  O513  1  0.42514877  0.68715719  0.42502561  1
  O  O514  1  0.42715358  0.68482870  0.67630925  1
  O  O515  1  0.42757724  0.68621451  0.92619533  1
  O  O516  1  0.92777691  0.01923199  0.17713231  1
  O  O517  1  0.92745124  0.02087035  0.42444558  1
  O  O518  1  0.92700921  0.01811751  0.67578772  1
  O  O519  1  0.92704933  0.01869435  0.92680167  1
  O  O520  1  0.92730749  0.35297259  0.17614571  1
  O  O521  1  0.92601602  0.35266478  0.42384427  1
  O  O522  1  0.92618623  0.35244946  0.67517785  1
  O  O523  1  0.92712978  0.35475342  0.92596769  1
  O  O524  1  0.92660732  0.68804140  0.17379172  1
  O  O525  1  0.92613839  0.68709724  0.42338470  1
  O  O526  1  0.92731485  0.68562607  0.67636287  1
  O  O527  1  0.92672685  0.68853482  0.92574817  1
  O  O528  1  0.17713218  0.02072336  0.19944716  1
  O  O529  1  0.17704372  0.01799304  0.44843571  1
  O  O530  1  0.17681135  0.01967385  0.70098792  1
  O  O531  1  0.17880806  0.01919171  0.94891699  1
  O  O532  1  0.17728831  0.35386520  0.20048335  1
  O  O533  1  0.17844146  0.35315256  0.44848857  1
  O  O534  1  0.17670760  0.35434662  0.69959351  1
  O  O535  1  0.17629484  0.35301555  0.95119550  1
  O  O536  1  0.17651135  0.68496441  0.19985825  1
  O  O537  1  0.17619323  0.68751783  0.45035703  1
  O  O538  1  0.17874739  0.68671590  0.69770795  1
  O  O539  1  0.17711234  0.68446573  0.94873567  1
  O  O540  1  0.67636130  0.01966738  0.20100663  1
  O  O541  1  0.67832126  0.01939790  0.44903736  1
  O  O542  1  0.67725603  0.02103258  0.69947558  1
  O  O543  1  0.67676375  0.01847721  0.94812060  1
  O  O544  1  0.67681338  0.35409435  0.19947072  1
  O  O545  1  0.67533525  0.35338807  0.45070124  1
  O  O546  1  0.67588561  0.35354860  0.70038477  1
  O  O547  1  0.67682410  0.35193406  0.94912123  1
  O  O548  1  0.67522015  0.68748847  0.19974309  1
  O  O549  1  0.67649472  0.68809198  0.45015668  1
  O  O550  1  0.67784872  0.68739910  0.69839367  1
  O  O551  1  0.67740311  0.68635716  0.94745036  1
  O  O552  1  0.32386964  0.31152517  0.04974828  1
  O  O553  1  0.32290088  0.31500343  0.30086691  1
  O  O554  1  0.32437951  0.31350466  0.54997759  1
  O  O555  1  0.32268409  0.31318118  0.80055383  1
  O  O556  1  0.32235702  0.64638801  0.05245166  1
  O  O557  1  0.32283297  0.64582438  0.30049183  1
  O  O558  1  0.32141515  0.64727121  0.55179315  1
  O  O559  1  0.32275367  0.64851926  0.80074879  1
  O  O560  1  0.32398929  0.97931715  0.04990378  1
  O  O561  1  0.32171649  0.97967243  0.30129440  1
  O  O562  1  0.32343777  0.97869805  0.54991886  1
  O  O563  1  0.32326349  0.98077310  0.80101779  1
  O  O564  1  0.82487435  0.31296554  0.05034819  1
  O  O565  1  0.82263204  0.31267776  0.30073501  1
  O  O566  1  0.82293109  0.31195218  0.54928644  1
  O  O567  1  0.82352503  0.31488824  0.80051209  1
  O  O568  1  0.82286892  0.64589205  0.05001700  1
  O  O569  1  0.82373687  0.64716505  0.29857788  1
  O  O570  1  0.82315482  0.64894779  0.55084334  1
  O  O571  1  0.82274944  0.64902746  0.80087404  1
  O  O572  1  0.82341463  0.97971279  0.04969571  1
  O  O573  1  0.82133873  0.98028949  0.30229137  1
  O  O574  1  0.82362418  0.97928810  0.54999025  1
  O  O575  1  0.82244778  0.98055601  0.80077249  1
  O  O576  1  0.42659831  0.14496648  0.17485864  1
  O  O577  1  0.42707435  0.14881961  0.42625549  1
  O  O578  1  0.42744334  0.14648754  0.67732133  1
  O  O579  1  0.42784858  0.14547939  0.92527796  1
  O  O580  1  0.42657188  0.47922101  0.17527740  1
  O  O581  1  0.42748354  0.48208716  0.42609644  1
  O  O582  1  0.42656163  0.47962682  0.67712851  1
  O  O583  1  0.42549681  0.47977980  0.92424923  1
  O  O584  1  0.42621417  0.81215693  0.17418311  1
  O  O585  1  0.42605276  0.81408407  0.42465253  1
  O  O586  1  0.42671658  0.81202901  0.67591950  1
  O  O587  1  0.42888109  0.81354869  0.92628518  1
  O  O588  1  0.92739349  0.14654726  0.17622609  1
  O  O589  1  0.92750631  0.14787126  0.42535117  1
  O  O590  1  0.92703366  0.14522822  0.67611695  1
  O  O591  1  0.92749818  0.14578191  0.92553714  1
  O  O592  1  0.92767617  0.48041774  0.17680791  1
  O  O593  1  0.92604163  0.47941668  0.42407225  1
  O  O594  1  0.92565500  0.47953523  0.67460255  1
  O  O595  1  0.92680915  0.48208535  0.92601667  1
  O  O596  1  0.92655845  0.81522011  0.17522108  1
  O  O597  1  0.92629484  0.81401890  0.42468917  1
  O  O598  1  0.92712231  0.81274579  0.67569417  1
  O  O599  1  0.92769681  0.81558572  0.92527572  1
  O  O600  1  0.07398939  0.18647810  0.07642227  1
  O  O601  1  0.07275165  0.18604004  0.32293063  1
  O  O602  1  0.07344206  0.18435784  0.57357010  1
  O  O603  1  0.07455803  0.18657946  0.82580557  1
  O  O604  1  0.07242902  0.51849320  0.07420583  1
  O  O605  1  0.07271399  0.51841774  0.32340891  1
  O  O606  1  0.07355841  0.51997495  0.57533586  1
  O  O607  1  0.07340611  0.52173005  0.82461846  1
  O  O608  1  0.07248228  0.85335852  0.07347245  1
  O  O609  1  0.07217790  0.85311402  0.32253623  1
  O  O610  1  0.07389087  0.85298329  0.57530530  1
  O  O611  1  0.07377425  0.85453299  0.82549988  1
  O  O612  1  0.57438981  0.18639486  0.07590009  1
  O  O613  1  0.57342182  0.18849643  0.32489330  1
  O  O614  1  0.57252632  0.18517425  0.57472224  1
  O  O615  1  0.57293566  0.18598338  0.82348464  1
  O  O616  1  0.57231969  0.52062870  0.07430946  1
  O  O617  1  0.57361941  0.52190945  0.32409298  1
  O  O618  1  0.57243477  0.51839102  0.57486472  1
  O  O619  1  0.57213201  0.51997316  0.82412900  1
  O  O620  1  0.57178440  0.85258434  0.07278251  1
  O  O621  1  0.57270513  0.85494630  0.32446153  1
  O  O622  1  0.57343601  0.85308134  0.57567152  1
  O  O623  1  0.57350775  0.85387313  0.82534517  1
  O  O624  1  0.32338608  0.18441012  0.05121325  1
  O  O625  1  0.32397912  0.18787675  0.30059218  1
  O  O626  1  0.32351842  0.18657327  0.54899316  1
  O  O627  1  0.32349827  0.18587341  0.80087678  1
  O  O628  1  0.32213615  0.51902446  0.05169907  1
  O  O629  1  0.32329836  0.51896702  0.30108028  1
  O  O630  1  0.32241955  0.51984577  0.55227838  1
  O  O631  1  0.32296466  0.52162556  0.80046722  1
  O  O632  1  0.32349004  0.85246598  0.04891700  1
  O  O633  1  0.32133771  0.85205269  0.30124055  1
  O  O634  1  0.32362071  0.85184772  0.55056939  1
  O  O635  1  0.32406913  0.85368291  0.80099191  1
  O  O636  1  0.82396550  0.18604216  0.04936512  1
  O  O637  1  0.82288661  0.18537485  0.30110368  1
  O  O638  1  0.82287107  0.18479931  0.55095581  1
  O  O639  1  0.82386543  0.18775980  0.80049248  1
  O  O640  1  0.82260224  0.51869375  0.05031698  1
  O  O641  1  0.82355012  0.52031811  0.30015009  1
  O  O642  1  0.82286400  0.52164267  0.55049731  1
  O  O643  1  0.82330675  0.52201581  0.79929699  1
  O  O644  1  0.82307529  0.85304678  0.04893404  1
  O  O645  1  0.82175499  0.85278949  0.30178027  1
  O  O646  1  0.82339124  0.85244407  0.55086295  1
  O  O647  1  0.82182042  0.85311077  0.80177051  1
  O  O648  1  0.17775142  0.14789225  0.19947901  1
  O  O649  1  0.17678233  0.14520172  0.44928114  1
  O  O650  1  0.17673479  0.14637536  0.70041011  1
  O  O651  1  0.17800039  0.14665763  0.94859792  1
  O  O652  1  0.17731419  0.48076972  0.19972886  1
  O  O653  1  0.17754063  0.48056442  0.44833775  1
  O  O654  1  0.17649900  0.48158785  0.69921472  1
  O  O655  1  0.17592147  0.47996057  0.95068831  1
  O  O656  1  0.17673261  0.81212253  0.19907375  1
  O  O657  1  0.17670490  0.81438358  0.44880984  1
  O  O658  1  0.17778286  0.81405660  0.69915612  1
  O  O659  1  0.17708162  0.81148684  0.95027192  1
  O  O660  1  0.67628878  0.14637795  0.20051416  1
  O  O661  1  0.67754634  0.14675055  0.44847491  1
  O  O662  1  0.67786474  0.14812451  0.69962951  1
  O  O663  1  0.67650057  0.14564561  0.94928404  1
  O  O664  1  0.67646815  0.48138724  0.19853209  1
  O  O665  1  0.67579685  0.48055364  0.45045398  1
  O  O666  1  0.67598132  0.48050253  0.70126560  1
  O  O667  1  0.67615830  0.47906626  0.94917790  1
  O  O668  1  0.67562236  0.81431184  0.19912724  1
  O  O669  1  0.67626018  0.81503041  0.44994466  1
  O  O670  1  0.67771805  0.81462386  0.69910681  1
  O  O671  1  0.67834143  0.81380225  0.94705320  1
