# generated using pymatgen
data_Na2MnFe(PO4)2
_symmetry_space_group_name_H-M   'P 1'
_cell_length_a   22.34224887
_cell_length_b   20.09346613
_cell_length_c   19.44926969
_cell_angle_alpha   89.97074985
_cell_angle_beta   89.98689383
_cell_angle_gamma   90.01399718
_symmetry_Int_Tables_number   1
_chemical_formula_structural   Na2MnFe(PO4)2
_chemical_formula_sum   'Na96 Mn48 Fe48 P96 O384'
_cell_volume   8731.42165912
_cell_formula_units_Z   48
loop_
 _symmetry_equiv_pos_site_id
 _symmetry_equiv_pos_as_xyz
  1  'x, y, z'
loop_
 _atom_site_type_symbol
 _atom_site_label
 _atom_site_symmetry_multiplicity
 _atom_site_fract_x
 _atom_site_fract_y
 _atom_site_fract_z
 _atom_site_occupancy
  Na  Na0  1  0.14030614  0.24866260  0.24343168  1
  Na  Na1  1  0.14041044  0.25007080  0.49283133  1
  Na  Na2  1  0.14060695  0.25088433  0.74471640  1
  Na  Na3  1  0.14043835  0.25089883  0.99312609  1
  Na  Na4  1  0.13996466  0.58346489  0.24248988  1
  Na  Na5  1  0.13985023  0.58323668  0.49241737  1
  Na  Na6  1  0.14004360  0.58371392  0.74333798  1
  Na  Na7  1  0.14010766  0.58508918  0.99305236  1
  Na  Na8  1  0.14043261  0.91580689  0.24373825  1
  Na  Na9  1  0.13984484  0.91689651  0.49291641  1
  Na  Na10  1  0.14010313  0.91713263  0.74451980  1
  Na  Na11  1  0.14054797  0.91769626  0.99444101  1
  Na  Na12  1  0.64070397  0.24976009  0.24506229  1
  Na  Na13  1  0.64067337  0.25067789  0.49473374  1
  Na  Na14  1  0.64068462  0.25035248  0.74208625  1
  Na  Na15  1  0.64082371  0.24918444  0.99277389  1
  Na  Na16  1  0.64026074  0.58233875  0.24566843  1
  Na  Na17  1  0.63989511  0.58372502  0.49394894  1
  Na  Na18  1  0.64087086  0.58208067  0.74260580  1
  Na  Na19  1  0.64061324  0.58196086  0.99362897  1
  Na  Na20  1  0.64073139  0.91730924  0.24467355  1
  Na  Na21  1  0.64028031  0.91746734  0.49404457  1
  Na  Na22  1  0.64021902  0.91699563  0.74380506  1
  Na  Na23  1  0.64005377  0.91639381  0.99319651  1
  Na  Na24  1  0.35956239  0.08297064  0.00621526  1
  Na  Na25  1  0.35939425  0.08202188  0.25663851  1
  Na  Na26  1  0.35925821  0.08262510  0.50640174  1
  Na  Na27  1  0.35912955  0.08283312  0.75752574  1
  Na  Na28  1  0.35965105  0.41805403  0.00572465  1
  Na  Na29  1  0.35945413  0.41569852  0.25658338  1
  Na  Na30  1  0.35994190  0.41612380  0.50624142  1
  Na  Na31  1  0.35973892  0.41655851  0.75530080  1
  Na  Na32  1  0.35904465  0.75168263  0.00597221  1
  Na  Na33  1  0.35936820  0.74960317  0.25495656  1
  Na  Na34  1  0.35927695  0.74927111  0.50672585  1
  Na  Na35  1  0.35899950  0.75125647  0.75606682  1
  Na  Na36  1  0.85982520  0.08319356  0.00667379  1
  Na  Na37  1  0.86015050  0.08301839  0.25715679  1
  Na  Na38  1  0.85968526  0.08370533  0.50682846  1
  Na  Na39  1  0.85946588  0.08435569  0.75584531  1
  Na  Na40  1  0.85997527  0.41550987  0.00555650  1
  Na  Na41  1  0.86018506  0.41664152  0.25617811  1
  Na  Na42  1  0.86022608  0.41769557  0.50818995  1
  Na  Na43  1  0.86019497  0.41709584  0.75599364  1
  Na  Na44  1  0.85961205  0.74884866  0.00628232  1
  Na  Na45  1  0.85979773  0.74950079  0.25777770  1
  Na  Na46  1  0.85946675  0.75053692  0.50686629  1
  Na  Na47  1  0.85927674  0.74908438  0.75540313  1
  Na  Na48  1  0.10995983  0.08359784  0.11894326  1
  Na  Na49  1  0.10929598  0.08285399  0.36811275  1
  Na  Na50  1  0.10954076  0.08384933  0.61867190  1
  Na  Na51  1  0.11019003  0.08417586  0.86936739  1
  Na  Na52  1  0.10950172  0.41651971  0.11749033  1
  Na  Na53  1  0.10948156  0.41620789  0.36863396  1
  Na  Na54  1  0.10981541  0.41868835  0.61760736  1
  Na  Na55  1  0.10999984  0.41769003  0.86932507  1
  Na  Na56  1  0.10968906  0.74898209  0.11849530  1
  Na  Na57  1  0.10950553  0.75102661  0.36866907  1
  Na  Na58  1  0.10921114  0.75110092  0.61718509  1
  Na  Na59  1  0.10932913  0.74937901  0.86910796  1
  Na  Na60  1  0.61002810  0.08283685  0.11849370  1
  Na  Na61  1  0.61004645  0.08243362  0.36988821  1
  Na  Na62  1  0.60989610  0.08451255  0.61876769  1
  Na  Na63  1  0.60987699  0.08216155  0.86779658  1
  Na  Na64  1  0.60972611  0.41683736  0.11941148  1
  Na  Na65  1  0.61025342  0.41690820  0.37067426  1
  Na  Na66  1  0.61015633  0.41712469  0.61798660  1
  Na  Na67  1  0.61033517  0.41560283  0.86707258  1
  Na  Na68  1  0.60970039  0.75042938  0.11926352  1
  Na  Na69  1  0.60936799  0.74896862  0.36980654  1
  Na  Na70  1  0.60896596  0.75026255  0.61863915  1
  Na  Na71  1  0.60951315  0.75044575  0.86887319  1
  Na  Na72  1  0.39036888  0.25078547  0.13171202  1
  Na  Na73  1  0.38998267  0.24961628  0.38193926  1
  Na  Na74  1  0.39047378  0.25035206  0.63052484  1
  Na  Na75  1  0.39075510  0.24876050  0.88101836  1
  Na  Na76  1  0.39021666  0.58384590  0.13052063  1
  Na  Na77  1  0.39055200  0.58169453  0.38127020  1
  Na  Na78  1  0.39001400  0.58274930  0.63076130  1
  Na  Na79  1  0.39013896  0.58379548  0.88053614  1
  Na  Na80  1  0.38972422  0.91652521  0.13029181  1
  Na  Na81  1  0.38970433  0.91483958  0.38144052  1
  Na  Na82  1  0.38983130  0.91746224  0.63182085  1
  Na  Na83  1  0.38964154  0.91644530  0.88190761  1
  Na  Na84  1  0.89059443  0.24887695  0.13054306  1
  Na  Na85  1  0.89096181  0.24955550  0.38187251  1
  Na  Na86  1  0.89035183  0.25212696  0.63203475  1
  Na  Na87  1  0.89038408  0.25124762  0.88200589  1
  Na  Na88  1  0.89056261  0.58251663  0.13047249  1
  Na  Na89  1  0.89097376  0.58351888  0.38300394  1
  Na  Na90  1  0.89006453  0.58354983  0.63094542  1
  Na  Na91  1  0.89033156  0.58145476  0.88080365  1
  Na  Na92  1  0.89058272  0.91642586  0.13261901  1
  Na  Na93  1  0.89024129  0.91663967  0.38272686  1
  Na  Na94  1  0.88997404  0.91752054  0.62995575  1
  Na  Na95  1  0.89009731  0.91687876  0.88151720  1
  Mn  Mn96  1  0.49972475  0.66531496  0.24948018  1
  Mn  Mn97  1  0.49971877  0.00000788  0.75020472  1
  Mn  Mn98  1  0.74938507  0.33222000  0.12531768  1
  Mn  Mn99  1  0.50043919  0.49952213  0.74966788  1
  Mn  Mn100  1  0.50026821  0.33293947  -0.00023216  1
  Mn  Mn101  1  0.75000568  0.83352287  0.87483211  1
  Mn  Mn102  1  0.25038016  0.33453636  0.87461773  1
  Mn  Mn103  1  0.24922216  0.66676613  0.62491827  1
  Mn  Mn104  1  -0.00029989  0.33257734  0.24930520  1
  Mn  Mn105  1  -0.00002103  0.16703755  0.50009971  1
  Mn  Mn106  1  0.49958943  0.83335201  0.49996117  1
  Mn  Mn107  1  0.00031881  0.00071619  0.00101958  1
  Mn  Mn108  1  -0.00049751  0.66590464  0.74880876  1
  Mn  Mn109  1  0.50093469  0.16595916  -0.00002542  1
  Mn  Mn110  1  0.00015887  0.16793382  0.74960469  1
  Mn  Mn111  1  0.50000669  0.16617091  0.25064672  1
  Mn  Mn112  1  -0.00020624  0.50059204  0.24971580  1
  Mn  Mn113  1  0.74953950  0.66544821  0.87520950  1
  Mn  Mn114  1  0.75086846  0.00032789  0.12522139  1
  Mn  Mn115  1  0.75006624  0.16650597  0.87407243  1
  Mn  Mn116  1  0.25011803  0.49883725  0.37321781  1
  Mn  Mn117  1  0.75140061  0.33421008  0.37542905  1
  Mn  Mn118  1  0.49996200  -0.00082026  0.24963113  1
  Mn  Mn119  1  0.75007562  0.49882689  0.12479446  1
  Mn  Mn120  1  0.50009226  0.66768191  0.75037356  1
  Mn  Mn121  1  -0.00031853  0.83334058  0.74964380  1
  Mn  Mn122  1  0.00097167  0.33510857  0.75094222  1
  Mn  Mn123  1  -0.00018485  0.00050799  0.75027042  1
  Mn  Mn124  1  0.24883350  -0.00081617  0.62562246  1
  Mn  Mn125  1  0.74973072  0.83400877  0.62559232  1
  Mn  Mn126  1  0.75015463  0.66664873  0.37583344  1
  Mn  Mn127  1  0.25047597  0.16684072  0.12512343  1
  Mn  Mn128  1  -0.00046188  0.83267071  0.25045905  1
  Mn  Mn129  1  0.25033816  0.33363862  0.62482541  1
  Mn  Mn130  1  0.24982226  0.16641932  0.62515767  1
  Mn  Mn131  1  0.50071340  0.66724043  0.00019668  1
  Mn  Mn132  1  0.50021322  0.49972790  -0.00058811  1
  Mn  Mn133  1  0.75039360  0.83343901  0.12555442  1
  Mn  Mn134  1  0.24999994  0.66778902  0.87413184  1
  Mn  Mn135  1  0.25007101  0.66689098  0.37445611  1
  Mn  Mn136  1  0.50007912  0.83287307  0.25048436  1
  Mn  Mn137  1  0.25035962  -0.00098633  0.37522994  1
  Mn  Mn138  1  0.74998740  0.66581124  0.12587336  1
  Mn  Mn139  1  0.75072083  0.16666024  0.37560584  1
  Mn  Mn140  1  0.24991960  0.50026332  0.12481208  1
  Mn  Mn141  1  0.50073078  0.33417640  0.25104484  1
  Mn  Mn142  1  0.00001285  0.83201080  0.00101286  1
  Mn  Mn143  1  0.50003236  0.16651744  0.50026576  1
  Fe  Fe144  1  0.24972992  0.00001810  0.12505388  1
  Fe  Fe145  1  0.74938467  0.66686480  0.62490357  1
  Fe  Fe146  1  0.50053933  0.33329380  0.50020619  1
  Fe  Fe147  1  0.75040084  0.33405537  0.62490164  1
  Fe  Fe148  1  0.24958807  0.49990219  0.62417742  1
  Fe  Fe149  1  0.49956922  -0.00048586  -0.00062445  1
  Fe  Fe150  1  0.49953507  0.83384397  0.74979783  1
  Fe  Fe151  1  0.00006284  0.66643803  0.25018968  1
  Fe  Fe152  1  0.25005515  0.16717204  0.87561356  1
  Fe  Fe153  1  -0.00004224  0.66719284  0.49998542  1
  Fe  Fe154  1  0.24994284  0.83259140  0.37402667  1
  Fe  Fe155  1  0.00032006  0.16645678  0.25037680  1
  Fe  Fe156  1  0.00050287  0.50049348  0.74957578  1
  Fe  Fe157  1  -0.00032356  0.00037823  0.49949383  1
  Fe  Fe158  1  0.24973325  0.16607839  0.37448431  1
  Fe  Fe159  1  0.24984603  0.00018686  0.87572615  1
  Fe  Fe160  1  0.24966533  0.33248401  0.37505159  1
  Fe  Fe161  1  0.00015493  0.50078972  0.49932647  1
  Fe  Fe162  1  0.00035628  0.33402090  0.50016039  1
  Fe  Fe163  1  0.75021325  0.50036298  0.62552315  1
  Fe  Fe164  1  0.24891727  0.83423709  0.87557809  1
  Fe  Fe165  1  0.00014042  -0.00013178  0.25051051  1
  Fe  Fe166  1  0.49966993  0.00013789  0.50087871  1
  Fe  Fe167  1  0.75012594  0.16604432  0.12479548  1
  Fe  Fe168  1  0.49963514  0.16652460  0.74962072  1
  Fe  Fe169  1  -0.00010307  0.16669436  0.00051909  1
  Fe  Fe170  1  0.74961512  0.00045474  0.37553655  1
  Fe  Fe171  1  0.49956290  0.83356641  -0.00038290  1
  Fe  Fe172  1  0.74956356  0.83377678  0.37618137  1
  Fe  Fe173  1  0.49977493  0.49952242  0.50058975  1
  Fe  Fe174  1  0.50006261  0.49952634  0.25090852  1
  Fe  Fe175  1  -0.00062000  0.66566770  -0.00058705  1
  Fe  Fe176  1  0.75038778  0.50043056  0.37624695  1
  Fe  Fe177  1  0.24959113  0.83362309  0.12467886  1
  Fe  Fe178  1  0.49971849  0.33291446  0.74907760  1
  Fe  Fe179  1  0.75019138  0.33308060  0.87385026  1
  Fe  Fe180  1  0.75039064  0.49887071  0.87392647  1
  Fe  Fe181  1  0.00033645  0.49996254  0.00011263  1
  Fe  Fe182  1  0.00032714  0.33323350  0.00006173  1
  Fe  Fe183  1  0.74998988  0.00050404  0.62467097  1
  Fe  Fe184  1  0.25012365  0.66744834  0.12383633  1
  Fe  Fe185  1  0.49931979  0.66632755  0.50000429  1
  Fe  Fe186  1  0.75045205  0.00030913  0.87467880  1
  Fe  Fe187  1  0.25016007  0.33313850  0.12481450  1
  Fe  Fe188  1  -0.00012707  0.83385953  0.49923210  1
  Fe  Fe189  1  0.75042029  0.16697239  0.62538053  1
  Fe  Fe190  1  0.24995716  0.50128044  0.87488664  1
  Fe  Fe191  1  0.24976633  0.83358212  0.62527029  1
  P  P192  1  0.04167679  0.24938414  0.10188463  1
  P  P193  1  0.04219985  0.24906596  0.35263844  1
  P  P194  1  0.04272094  0.25227410  0.60232805  1
  P  P195  1  0.04276566  0.25051069  0.85434977  1
  P  P196  1  0.04180448  0.58343257  0.10149476  1
  P  P197  1  0.04224896  0.58489551  0.35297214  1
  P  P198  1  0.04150732  0.58375731  0.60111795  1
  P  P199  1  0.04198351  0.58212773  0.85265924  1
  P  P200  1  0.04239219  0.91650015  0.10420778  1
  P  P201  1  0.04162961  0.91760809  0.35309261  1
  P  P202  1  0.04114145  0.91725746  0.60092705  1
  P  P203  1  0.04250196  0.91655119  0.85351277  1
  P  P204  1  0.54341129  0.24993976  0.10330117  1
  P  P205  1  0.54299667  0.25002922  0.35426398  1
  P  P206  1  0.54205614  0.25134536  0.60313168  1
  P  P207  1  0.54194007  0.24935741  0.85075167  1
  P  P208  1  0.54312231  0.58266806  0.10350944  1
  P  P209  1  0.54181615  0.58161190  0.35385982  1
  P  P210  1  0.54110396  0.58345725  0.60151631  1
  P  P211  1  0.54335084  0.58348669  0.85264428  1
  P  P212  1  0.54153475  0.91662117  0.10113481  1
  P  P213  1  0.54259977  0.91648963  0.35404740  1
  P  P214  1  0.54186517  0.91784985  0.60303970  1
  P  P215  1  0.54181158  0.91531723  0.85297662  1
  P  P216  1  0.45721457  0.08287525  0.14638406  1
  P  P217  1  0.45738520  0.08159955  0.39799022  1
  P  P218  1  0.45734676  0.08448370  0.64748495  1
  P  P219  1  0.45793208  0.08215541  0.89711272  1
  P  P220  1  0.45753588  0.41784734  0.14799867  1
  P  P221  1  0.45865462  0.41654846  0.39863902  1
  P  P222  1  0.45821755  0.41553310  0.64644171  1
  P  P223  1  0.45742755  0.41575094  0.89585688  1
  P  P224  1  0.45746152  0.75043321  0.14632585  1
  P  P225  1  0.45719581  0.74801313  0.39768714  1
  P  P226  1  0.45726354  0.75133771  0.64721472  1
  P  P227  1  0.45757817  0.75152574  0.89720385  1
  P  P228  1  0.95898234  0.08355000  0.14879270  1
  P  P229  1  0.95793746  0.08231103  0.39692519  1
  P  P230  1  0.95734512  0.08375901  0.64629587  1
  P  P231  1  0.95772971  0.08494830  0.89806403  1
  P  P232  1  0.95773918  0.41665095  0.14591351  1
  P  P233  1  0.95860571  0.41667554  0.39853426  1
  P  P234  1  0.95858538  0.41874417  0.64682142  1
  P  P235  1  0.95915734  0.41716941  0.89845505  1
  P  P236  1  0.95746829  0.74764456  0.14760735  1
  P  P237  1  0.95841280  0.74983634  0.39827726  1
  P  P238  1  0.95727147  0.75021816  0.64540980  1
  P  P239  1  0.95733516  0.74815663  0.89740475  1
  P  P240  1  0.20830214  0.08213462  0.22782944  1
  P  P241  1  0.20743333  0.08394668  0.47706416  1
  P  P242  1  0.20706135  0.08326609  0.72947980  1
  P  P243  1  0.20882373  0.08341879  0.97735438  1
  P  P244  1  0.20758536  0.41456004  0.22722060  1
  P  P245  1  0.20798800  0.41569565  0.47704675  1
  P  P246  1  0.20781506  0.41859266  0.72740764  1
  P  P247  1  0.20804790  0.41875673  0.97747677  1
  P  P248  1  0.20827916  0.74995929  0.22616734  1
  P  P249  1  0.20785436  0.75145137  0.47733754  1
  P  P250  1  0.20700598  0.75194205  0.72757071  1
  P  P251  1  0.20770178  0.75176731  0.97791305  1
  P  P252  1  0.70799699  0.08424902  0.22797275  1
  P  P253  1  0.70825883  0.08267498  0.47865852  1
  P  P254  1  0.70871605  0.08316072  0.72663767  1
  P  P255  1  0.70787931  0.08224611  0.97716515  1
  P  P256  1  0.70734244  0.41655418  0.22899282  1
  P  P257  1  0.70899851  0.41825524  0.47901740  1
  P  P258  1  0.70907094  0.41656696  0.72683149  1
  P  P259  1  0.70854410  0.41565347  0.97573395  1
  P  P260  1  0.70753395  0.75017052  0.22943241  1
  P  P261  1  0.70769636  0.75107739  0.47846578  1
  P  P262  1  0.70743200  0.74869414  0.72742120  1
  P  P263  1  0.70708968  0.74966025  0.97827268  1
  P  P264  1  0.29223950  0.25126269  0.02211986  1
  P  P265  1  0.29149026  0.24975748  0.27312691  1
  P  P266  1  0.29236787  0.24966722  0.52089801  1
  P  P267  1  0.29235012  0.24918572  0.77283417  1
  P  P268  1  0.29209511  0.58508733  0.02164739  1
  P  P269  1  0.29263933  0.58366660  0.27066910  1
  P  P270  1  0.29167989  0.58212543  0.52211776  1
  P  P271  1  0.29205146  0.58249557  0.77157025  1
  P  P272  1  0.29066208  0.91717339  0.02282079  1
  P  P273  1  0.29196521  0.91479329  0.27162492  1
  P  P274  1  0.29200780  0.91505690  0.52256111  1
  P  P275  1  0.29101492  0.91659642  0.77379619  1
  P  P276  1  0.79198469  0.24841992  0.02209712  1
  P  P277  1  0.79342522  0.24969509  0.27192625  1
  P  P278  1  0.79172688  0.25036452  0.52391825  1
  P  P279  1  0.79252819  0.25131582  0.77137560  1
  P  P280  1  0.79262575  0.58215918  0.02140917  1
  P  P281  1  0.79288212  0.58185180  0.27348280  1
  P  P282  1  0.79103977  0.58347451  0.52355062  1
  P  P283  1  0.79191678  0.58162644  0.77151155  1
  P  P284  1  0.79336881  0.91682366  0.02174900  1
  P  P285  1  0.79165339  0.91692307  0.27443673  1
  P  P286  1  0.79153709  0.91814221  0.52194044  1
  P  P287  1  0.79222917  0.91846589  0.77201747  1
  O  O288  1  0.03666972  0.24902034  0.18186862  1
  O  O289  1  0.03709473  0.24983457  0.43253289  1
  O  O290  1  0.03773088  0.25228265  0.68232044  1
  O  O291  1  0.03742357  0.25012245  0.93424103  1
  O  O292  1  0.03688465  0.58380644  0.18148050  1
  O  O293  1  0.03696616  0.58484797  0.43284637  1
  O  O294  1  0.03684137  0.58295285  0.68108140  1
  O  O295  1  0.03660362  0.58226960  0.93251150  1
  O  O296  1  0.03689476  0.91684760  0.18414055  1
  O  O297  1  0.03630314  0.91761557  0.43297905  1
  O  O298  1  0.03645766  0.91684647  0.68094064  1
  O  O299  1  0.03756833  0.91638676  0.93348633  1
  O  O300  1  0.53849948  0.25002796  0.18328356  1
  O  O301  1  0.53767934  0.25028848  0.43421398  1
  O  O302  1  0.53650396  0.25126794  0.68299713  1
  O  O303  1  0.53732469  0.24932968  0.93081804  1
  O  O304  1  0.53777420  0.58189820  0.18349870  1
  O  O305  1  0.53607455  0.58199676  0.43373373  1
  O  O306  1  0.53649813  0.58372759  0.68149552  1
  O  O307  1  0.53854864  0.58341339  0.93261512  1
  O  O308  1  0.53681392  0.91652386  0.18117292  1
  O  O309  1  0.53731929  0.91717383  0.43397613  1
  O  O310  1  0.53647216  0.91711673  0.68296989  1
  O  O311  1  0.53635377  0.91563681  0.93285769  1
  O  O312  1  0.46246531  0.08244014  0.06640330  1
  O  O313  1  0.46250075  0.08190291  0.31800266  1
  O  O314  1  0.46255164  0.08365105  0.56755598  1
  O  O315  1  0.46298190  0.08285119  0.81717087  1
  O  O316  1  0.46248746  0.41719308  0.06799446  1
  O  O317  1  0.46381663  0.41731793  0.31867033  1
  O  O318  1  0.46371747  0.41571345  0.56654295  1
  O  O319  1  0.46252076  0.41518309  0.81588115  1
  O  O320  1  0.46280035  0.75114935  0.06639325  1
  O  O321  1  0.46231497  0.74820204  0.31773695  1
  O  O322  1  0.46272848  0.75036169  0.56730002  1
  O  O323  1  0.46264583  0.75185810  0.81721980  1
  O  O324  1  0.96401554  0.08421526  0.06881322  1
  O  O325  1  0.96358099  0.08239925  0.31707345  1
  O  O326  1  0.96248622  0.08328555  0.56632260  1
  O  O327  1  0.96270128  0.08474810  0.81807348  1
  O  O328  1  0.96328712  0.41680219  0.06607603  1
  O  O329  1  0.96314306  0.41677303  0.31852754  1
  O  O330  1  0.96370157  0.41818210  0.56694418  1
  O  O331  1  0.96393901  0.41747807  0.81848370  1
  O  O332  1  0.96263777  0.74754550  0.06764928  1
  O  O333  1  0.96291910  0.74963926  0.31828660  1
  O  O334  1  0.96272418  0.75036028  0.56553644  1
  O  O335  1  0.96248042  0.74870528  0.81740071  1
  O  O336  1  0.21376713  0.08338382  0.05735701  1
  O  O337  1  0.21373564  0.08270323  0.30773417  1
  O  O338  1  0.21203920  0.08367389  0.55709470  1
  O  O339  1  0.21266382  0.08335922  0.80937607  1
  O  O340  1  0.21313744  0.41800526  0.05736659  1
  O  O341  1  0.21283458  0.41415223  0.30718043  1
  O  O342  1  0.21312765  0.41640400  0.55701278  1
  O  O343  1  0.21313967  0.41904692  0.80733897  1
  O  O344  1  0.21342747  0.75101119  0.05774898  1
  O  O345  1  0.21340624  0.75011002  0.30615115  1
  O  O346  1  0.21303002  0.75154219  0.55728048  1
  O  O347  1  0.21235598  0.75195050  0.80750680  1
  O  O348  1  0.71304532  0.08302515  0.05711726  1
  O  O349  1  0.71306762  0.08350632  0.30793012  1
  O  O350  1  0.71367111  0.08286689  0.55853169  1
  O  O351  1  0.71360235  0.08302489  0.80661427  1
  O  O352  1  0.71319856  0.41526023  0.05574131  1
  O  O353  1  0.71266734  0.41721424  0.30891240  1
  O  O354  1  0.71429037  0.41819039  0.55890641  1
  O  O355  1  0.71391528  0.41606534  0.80675399  1
  O  O356  1  0.71216832  0.74971611  0.05827851  1
  O  O357  1  0.71287695  0.75087724  0.30942623  1
  O  O358  1  0.71291627  0.75041903  0.55840502  1
  O  O359  1  0.71267287  0.74868677  0.80733904  1
  O  O360  1  0.28670049  0.25043704  0.19308672  1
  O  O361  1  0.28689353  0.24942759  0.44097482  1
  O  O362  1  0.28728159  0.24926816  0.69288062  1
  O  O363  1  0.28684633  0.25072506  0.94220924  1
  O  O364  1  0.28740134  0.58429324  0.19073393  1
  O  O365  1  0.28680777  0.58241733  0.44214769  1
  O  O366  1  0.28655566  0.58237187  0.69162819  1
  O  O367  1  0.28671892  0.58465249  0.94167276  1
  O  O368  1  0.28640499  0.91538405  0.19180730  1
  O  O369  1  0.28726370  0.91508702  0.44258900  1
  O  O370  1  0.28581260  0.91627871  0.69382772  1
  O  O371  1  0.28517935  0.91757851  0.94296307  1
  O  O372  1  0.78800379  0.24902795  0.19202138  1
  O  O373  1  0.78742503  0.25046103  0.44390093  1
  O  O374  1  0.78746916  0.25120967  0.69149663  1
  O  O375  1  0.78690975  0.24888251  0.94216058  1
  O  O376  1  0.78784744  0.58201216  0.19350910  1
  O  O377  1  0.78623420  0.58336653  0.44358470  1
  O  O378  1  0.78620408  0.58218016  0.69162906  1
  O  O379  1  0.78740780  0.58173031  0.94145844  1
  O  O380  1  0.78715523  0.91683888  0.19435412  1
  O  O381  1  0.78581329  0.91779243  0.44208818  1
  O  O382  1  0.78664393  0.91857461  0.69208805  1
  O  O383  1  0.78845816  0.91721634  0.94177710  1
  O  O384  1  0.22801400  0.25140001  0.05806296  1
  O  O385  1  0.22725714  0.24949378  0.30897185  1
  O  O386  1  0.22818810  0.25012452  0.55673204  1
  O  O387  1  0.22809892  0.24954770  0.80844122  1
  O  O388  1  0.22794565  0.58518740  0.05768112  1
  O  O389  1  0.22829375  0.58326273  0.30597279  1
  O  O390  1  0.22732571  0.58215195  0.55760979  1
  O  O391  1  0.22786563  0.58278568  0.80755013  1
  O  O392  1  0.22682099  0.91692595  0.05969693  1
  O  O393  1  0.22788763  0.91471937  0.30803329  1
  O  O394  1  0.22752577  0.91475209  0.55792309  1
  O  O395  1  0.22690673  0.91709075  0.81002430  1
  O  O396  1  0.72773541  0.24771474  0.05795364  1
  O  O397  1  0.72919115  0.25039491  0.30751682  1
  O  O398  1  0.72749726  0.25007644  0.55938401  1
  O  O399  1  0.72824463  0.25130282  0.80716463  1
  O  O400  1  0.72830328  0.58249055  0.05684735  1
  O  O401  1  0.72847408  0.58180014  0.30888054  1
  O  O402  1  0.72686152  0.58302042  0.55937288  1
  O  O403  1  0.72784384  0.58093820  0.80779515  1
  O  O404  1  0.72891901  0.91691942  0.05681254  1
  O  O405  1  0.72730134  0.91685212  0.30985115  1
  O  O406  1  0.72754496  0.91830445  0.55843854  1
  O  O407  1  0.72803576  0.91850116  0.80802304  1
  O  O408  1  0.27239300  0.08190208  0.19170112  1
  O  O409  1  0.27186226  0.08410046  0.44187180  1
  O  O410  1  0.27123404  0.08268335  0.69356507  1
  O  O411  1  0.27286196  0.08293673  0.94116803  1
  O  O412  1  0.27189841  0.41504119  0.19157492  1
  O  O413  1  0.27222183  0.41511334  0.44127770  1
  O  O414  1  0.27207635  0.41851774  0.69157515  1
  O  O415  1  0.27225891  0.41894653  0.94157184  1
  O  O416  1  0.27237706  0.75000542  0.18996865  1
  O  O417  1  0.27213761  0.75148272  0.44157716  1
  O  O418  1  0.27127065  0.75160633  0.69172602  1
  O  O419  1  0.27169648  0.75234418  0.94138307  1
  O  O420  1  0.77235694  0.08488752  0.19233485  1
  O  O421  1  0.77237598  0.08218539  0.44250847  1
  O  O422  1  0.77288739  0.08296012  0.69079010  1
  O  O423  1  0.77219185  0.08207902  0.94148000  1
  O  O424  1  0.77165486  0.41569527  0.19356577  1
  O  O425  1  0.77315699  0.41875742  0.44285017  1
  O  O426  1  0.77319255  0.41747827  0.69082582  1
  O  O427  1  0.77285008  0.41595684  0.94003583  1
  O  O428  1  0.77187919  0.74977965  0.19401424  1
  O  O429  1  0.77191741  0.75140907  0.44264839  1
  O  O430  1  0.77171726  0.74895526  0.69189001  1
  O  O431  1  0.77147275  0.74955759  0.94311484  1
  O  O432  1  0.02314088  0.08315867  0.18473222  1
  O  O433  1  0.02205099  0.08240272  0.43314692  1
  O  O434  1  0.02169697  0.08391921  0.68160483  1
  O  O435  1  0.02213465  0.08533733  0.93342585  1
  O  O436  1  0.02183020  0.41676063  0.18193889  1
  O  O437  1  0.02291498  0.41624402  0.43396395  1
  O  O438  1  0.02280175  0.41905895  0.68281595  1
  O  O439  1  0.02323694  0.41745149  0.93445971  1
  O  O440  1  0.02178698  0.74820219  0.18324761  1
  O  O441  1  0.02266313  0.74934984  0.43386221  1
  O  O442  1  0.02147216  0.74999125  0.68120901  1
  O  O443  1  0.02162583  0.74777452  0.93307241  1
  O  O444  1  0.52162231  0.08310480  0.18160038  1
  O  O445  1  0.52174522  0.08137280  0.43346024  1
  O  O446  1  0.52166670  0.08471728  0.68305394  1
  O  O447  1  0.52224577  0.08129045  0.93267048  1
  O  O448  1  0.52199095  0.41847457  0.18332521  1
  O  O449  1  0.52275655  0.41671881  0.43476898  1
  O  O450  1  0.52233601  0.41510284  0.68257249  1
  O  O451  1  0.52190855  0.41610309  0.93088830  1
  O  O452  1  0.52168997  0.74971337  0.18193338  1
  O  O453  1  0.52150940  0.74833754  0.43316791  1
  O  O454  1  0.52153009  0.75227150  0.68307996  1
  O  O455  1  0.52191465  0.75171006  0.93272092  1
  O  O456  1  0.47891459  0.24955307  0.06838223  1
  O  O457  1  0.47871253  0.25006728  0.31878858  1
  O  O458  1  0.47802159  0.25144282  0.56683913  1
  O  O459  1  0.47754864  0.24925989  0.81534492  1
  O  O460  1  0.47880332  0.58314234  0.06806465  1
  O  O461  1  0.47780263  0.58112135  0.31727896  1
  O  O462  1  0.47686526  0.58297658  0.56588315  1
  O  O463  1  0.47879578  0.58332822  0.81798320  1
  O  O464  1  0.47721036  0.91694887  0.06554007  1
  O  O465  1  0.47821313  0.91613533  0.31879385  1
  O  O466  1  0.47761813  0.91802570  0.56722598  1
  O  O467  1  0.47758560  0.91507788  0.81696547  1
  O  O468  1  0.97754224  0.24909769  0.06587312  1
  O  O469  1  0.97790791  0.24843151  0.31699462  1
  O  O470  1  0.97830146  0.25216172  0.56701864  1
  O  O471  1  0.97859043  0.25105824  0.81846757  1
  O  O472  1  0.97760734  0.58302403  0.06550254  1
  O  O473  1  0.97797673  0.58495500  0.31711147  1
  O  O474  1  0.97729701  0.58461873  0.56534414  1
  O  O475  1  0.97784350  0.58164701  0.81645709  1
  O  O476  1  0.97819680  0.91646557  0.06858437  1
  O  O477  1  0.97750862  0.91777698  0.31700702  1
  O  O478  1  0.97692216  0.91774500  0.56529970  1
  O  O479  1  0.97805575  0.91669575  0.81844786  1
  O  O480  1  0.07177595  0.31362471  0.07370664  1
  O  O481  1  0.07312125  0.31253483  0.32408379  1
  O  O482  1  0.07327738  0.31584796  0.57368339  1
  O  O483  1  0.07425866  0.31393908  0.82629971  1
  O  O484  1  0.07241773  0.64701901  0.07274052  1
  O  O485  1  0.07308421  0.64825866  0.32390032  1
  O  O486  1  0.07287215  0.64735613  0.57350971  1
  O  O487  1  0.07286939  0.64585154  0.82437349  1
  O  O488  1  0.07384949  0.97972086  0.07590976  1
  O  O489  1  0.07281237  0.98083760  0.32424717  1
  O  O490  1  0.07247838  0.98076984  0.57312380  1
  O  O491  1  0.07341870  0.98016871  0.82542525  1
  O  O492  1  0.57405451  0.31360787  0.07486892  1
  O  O493  1  0.57442614  0.31331906  0.32614374  1
  O  O494  1  0.57315567  0.31462900  0.57425353  1
  O  O495  1  0.57255890  0.31307805  0.82241774  1
  O  O496  1  0.57419285  0.64645278  0.07593943  1
  O  O497  1  0.57286471  0.64529230  0.32577135  1
  O  O498  1  0.57139310  0.64744639  0.57317088  1
  O  O499  1  0.57412702  0.64711542  0.82445671  1
  O  O500  1  0.57236914  0.98031541  0.07295469  1
  O  O501  1  0.57382923  0.97957592  0.32514382  1
  O  O502  1  0.57236219  0.98180237  0.57507713  1
  O  O503  1  0.57292529  0.97892484  0.82476073  1
  O  O504  1  0.42600666  0.01957291  0.17482753  1
  O  O505  1  0.42650734  0.01812516  0.42640881  1
  O  O506  1  0.42596723  0.02120779  0.67584797  1
  O  O507  1  0.42686559  0.01864052  0.92537816  1
  O  O508  1  0.42699641  0.35397976  0.17626131  1
  O  O509  1  0.42822492  0.35232673  0.42614780  1
  O  O510  1  0.42688866  0.35233119  0.67512160  1
  O  O511  1  0.42642294  0.35248974  0.92474865  1
  O  O512  1  0.42616631  0.68683580  0.17395966  1
  O  O513  1  0.42676937  0.68426345  0.42622658  1
  O  O514  1  0.42646811  0.68763673  0.67543632  1
  O  O515  1  0.42688103  0.68746218  0.92474103  1
  O  O516  1  0.92798575  0.01971810  0.17657313  1
  O  O517  1  0.92704671  0.01890840  0.42572196  1
  O  O518  1  0.92616060  0.02054324  0.67493298  1
  O  O519  1  0.92702837  0.02114709  0.92608924  1
  O  O520  1  0.92655371  0.35313385  0.17413443  1
  O  O521  1  0.92751343  0.35320899  0.42683037  1
  O  O522  1  0.92751157  0.35531766  0.67547936  1
  O  O523  1  0.92903282  0.35289899  0.92665782  1
  O  O524  1  0.92695263  0.68419337  0.17661177  1
  O  O525  1  0.92684109  0.68682468  0.42693407  1
  O  O526  1  0.92602418  0.68677366  0.67371442  1
  O  O527  1  0.92650567  0.68442847  0.92528883  1
  O  O528  1  0.17750462  0.01848406  0.19968186  1
  O  O529  1  0.17660033  0.02018695  0.44924931  1
  O  O530  1  0.17550420  0.02003463  0.70107280  1
  O  O531  1  0.17713055  0.02027046  0.94931946  1
  O  O532  1  0.17693071  0.35121717  0.19814480  1
  O  O533  1  0.17709268  0.35207864  0.44886730  1
  O  O534  1  0.17698342  0.35451793  0.70015812  1
  O  O535  1  0.17676640  0.35537707  0.94931826  1
  O  O536  1  0.17760695  0.68611900  0.19803990  1
  O  O537  1  0.17701860  0.68752044  0.44970588  1
  O  O538  1  0.17592131  0.68816322  0.69989862  1
  O  O539  1  0.17671004  0.68828120  0.94935175  1
  O  O540  1  0.67704869  0.02066229  0.19969944  1
  O  O541  1  0.67706592  0.01947908  0.44978650  1
  O  O542  1  0.67723631  0.01998284  0.69836919  1
  O  O543  1  0.67738103  0.01846180  0.94887878  1
  O  O544  1  0.67593940  0.35312481  0.20102717  1
  O  O545  1  0.67817629  0.35442105  0.45118577  1
  O  O546  1  0.67896853  0.35262782  0.69781169  1
  O  O547  1  0.67796250  0.35188550  0.94732088  1
  O  O548  1  0.67652747  0.68635633  0.20189725  1
  O  O549  1  0.67648531  0.68765125  0.45031809  1
  O  O550  1  0.67680221  0.68513104  0.69880541  1
  O  O551  1  0.67587284  0.68626521  0.95028480  1
  O  O552  1  0.32283901  0.31500742  0.05043266  1
  O  O553  1  0.32244465  0.31314002  0.30185677  1
  O  O554  1  0.32382230  0.31295724  0.54920423  1
  O  O555  1  0.32376764  0.31278980  0.80010141  1
  O  O556  1  0.32274550  0.64888428  0.04969857  1
  O  O557  1  0.32383076  0.64674429  0.29951430  1
  O  O558  1  0.32270629  0.64570026  0.55011994  1
  O  O559  1  0.32319028  0.64636582  0.79899375  1
  O  O560  1  0.32148753  0.98082763  0.05136384  1
  O  O561  1  0.32335134  0.97812632  0.30000684  1
  O  O562  1  0.32242642  0.97905286  0.55070299  1
  O  O563  1  0.32214803  0.98021774  0.80173268  1
  O  O564  1  0.82289602  0.31206321  0.05011197  1
  O  O565  1  0.82481785  0.31319816  0.29973945  1
  O  O566  1  0.82216555  0.31432437  0.55203106  1
  O  O567  1  0.82337287  0.31470634  0.80035001  1
  O  O568  1  0.82358612  0.64571771  0.04963418  1
  O  O569  1  0.82387707  0.64548022  0.30140477  1
  O  O570  1  0.82104212  0.64778749  0.55163137  1
  O  O571  1  0.82298020  0.64525597  0.79951221  1
  O  O572  1  0.82469456  0.97994012  0.05057037  1
  O  O573  1  0.82215075  0.98089778  0.30229191  1
  O  O574  1  0.82267170  0.98148474  0.55040939  1
  O  O575  1  0.82327579  0.98170448  0.80069535  1
  O  O576  1  0.42627930  0.14646831  0.17462099  1
  O  O577  1  0.42654981  0.14538888  0.42567965  1
  O  O578  1  0.42685121  0.14829291  0.67570393  1
  O  O579  1  0.42718998  0.14577936  0.92536871  1
  O  O580  1  0.42652693  0.48120896  0.17626712  1
  O  O581  1  0.42722832  0.47967727  0.42725811  1
  O  O582  1  0.42725958  0.47931648  0.67430212  1
  O  O583  1  0.42641685  0.47942683  0.92370097  1
  O  O584  1  0.42650779  0.81375173  0.17499967  1
  O  O585  1  0.42585953  0.81146516  0.42543094  1
  O  O586  1  0.42623812  0.81486878  0.67526960  1
  O  O587  1  0.42648063  0.81462103  0.92622510  1
  O  O588  1  0.92825286  0.14710880  0.17740856  1
  O  O589  1  0.92657637  0.14581316  0.42490489  1
  O  O590  1  0.92657154  0.14757903  0.67410857  1
  O  O591  1  0.92678503  0.14835144  0.92648805  1
  O  O592  1  0.92640197  0.47986943  0.17456244  1
  O  O593  1  0.92849663  0.48077371  0.42684587  1
  O  O594  1  0.92777702  0.48222719  0.67549390  1
  O  O595  1  0.92760310  0.48022901  0.92681860  1
  O  O596  1  0.92616789  0.81127178  0.17533362  1
  O  O597  1  0.92847267  0.81416231  0.42645325  1
  O  O598  1  0.92609393  0.81352651  0.67400545  1
  O  O599  1  0.92646737  0.81176447  0.92555473  1
  O  O600  1  0.07315515  0.18621445  0.07355522  1
  O  O601  1  0.07298135  0.18540888  0.32437284  1
  O  O602  1  0.07379129  0.18858950  0.57472065  1
  O  O603  1  0.07372647  0.18722691  0.82543525  1
  O  O604  1  0.07278099  0.51967649  0.07371718  1
  O  O605  1  0.07329629  0.52124951  0.32483553  1
  O  O606  1  0.07170764  0.52006371  0.57192008  1
  O  O607  1  0.07312911  0.51893199  0.82378825  1
  O  O608  1  0.07327078  0.85276003  0.07643900  1
  O  O609  1  0.07269427  0.85389376  0.32519543  1
  O  O610  1  0.07129662  0.85327913  0.57229327  1
  O  O611  1  0.07330779  0.85306251  0.82509143  1
  O  O612  1  0.57461350  0.18665738  0.07494443  1
  O  O613  1  0.57385956  0.18628666  0.32637117  1
  O  O614  1  0.57324184  0.18766015  0.57542426  1
  O  O615  1  0.57253291  0.18548626  0.82267472  1
  O  O616  1  0.57427455  0.51951672  0.07470796  1
  O  O617  1  0.57301505  0.51827397  0.32546797  1
  O  O618  1  0.57228267  0.51986742  0.57380954  1
  O  O619  1  0.57438375  0.52013657  0.82421890  1
  O  O620  1  0.57207452  0.85276358  0.07311293  1
  O  O621  1  0.57347460  0.85268923  0.32630835  1
  O  O622  1  0.57325146  0.85457111  0.57489576  1
  O  O623  1  0.57288311  0.85210743  0.82413273  1
  O  O624  1  0.32356956  0.18787537  0.05023414  1
  O  O625  1  0.32211240  0.18565570  0.30074119  1
  O  O626  1  0.32340852  0.18624932  0.54947062  1
  O  O627  1  0.32265440  0.18549236  0.80160987  1
  O  O628  1  0.32349161  0.52171496  0.04961262  1
  O  O629  1  0.32363659  0.51989943  0.29841984  1
  O  O630  1  0.32228874  0.51844770  0.55039068  1
  O  O631  1  0.32300608  0.51928038  0.80045426  1
  O  O632  1  0.32188948  0.85358854  0.05075909  1
  O  O633  1  0.32273704  0.85118345  0.30011553  1
  O  O634  1  0.32310053  0.85195738  0.55150855  1
  O  O635  1  0.32167249  0.85292099  0.80219200  1
  O  O636  1  0.82277965  0.18485730  0.05061390  1
  O  O637  1  0.82437929  0.18642890  0.30075366  1
  O  O638  1  0.82263487  0.18673688  0.55204687  1
  O  O639  1  0.82366184  0.18777977  0.79958804  1
  O  O640  1  0.82370367  0.51877261  0.04978873  1
  O  O641  1  0.82354592  0.51832460  0.30207066  1
  O  O642  1  0.82274701  0.52044691  0.55180206  1
  O  O643  1  0.82310366  0.51824696  0.79997357  1
  O  O644  1  0.82418241  0.85315808  0.05001297  1
  O  O645  1  0.82242323  0.85326089  0.30279784  1
  O  O646  1  0.82275704  0.85457965  0.54998855  1
  O  O647  1  0.82315824  0.85444616  0.79934387  1
  O  O648  1  0.17705949  0.14558135  0.19974608  1
  O  O649  1  0.17673968  0.14742149  0.44840852  1
  O  O650  1  0.17607777  0.14673391  0.70095198  1
  O  O651  1  0.17879214  0.14769834  0.94916023  1
  O  O652  1  0.17639395  0.47840386  0.19993199  1
  O  O653  1  0.17688626  0.47915053  0.44876521  1
  O  O654  1  0.17681452  0.48167353  0.69812247  1
  O  O655  1  0.17753047  0.48257297  0.94922485  1
  O  O656  1  0.17716283  0.81348929  0.19805760  1
  O  O657  1  0.17685087  0.81458928  0.44830078  1
  O  O658  1  0.17621360  0.81529417  0.69882803  1
  O  O659  1  0.17638925  0.81523046  0.94994800  1
  O  O660  1  0.67722754  0.14781342  0.19956106  1
  O  O661  1  0.67730528  0.14644609  0.45072980  1
  O  O662  1  0.67857633  0.14738825  0.69844063  1
  O  O663  1  0.67652820  0.14547468  0.94862794  1
  O  O664  1  0.67651917  0.47989443  0.20013440  1
  O  O665  1  0.67784030  0.48152003  0.45028552  1
  O  O666  1  0.67731212  0.47972256  0.69865798  1
  O  O667  1  0.67773854  0.47935849  0.94769531  1
  O  O668  1  0.67638876  0.81340068  0.20068720  1
  O  O669  1  0.67697791  0.81479895  0.45034858  1
  O  O670  1  0.67616764  0.81238174  0.70006801  1
  O  O671  1  0.67626897  0.81322409  0.94993603  1
