# generated using pymatgen
data_Na2MnFe(PO4)2
_symmetry_space_group_name_H-M   'P 1'
_cell_length_a   22.34366825
_cell_length_b   20.09210925
_cell_length_c   19.44973290
_cell_angle_alpha   89.94363931
_cell_angle_beta   89.97125554
_cell_angle_gamma   89.99995695
_symmetry_Int_Tables_number   1
_chemical_formula_structural   Na2MnFe(PO4)2
_chemical_formula_sum   'Na96 Mn48 Fe48 P96 O384'
_cell_volume   8731.59095549
_cell_formula_units_Z   48
loop_
 _symmetry_equiv_pos_site_id
 _symmetry_equiv_pos_as_xyz
  1  'x, y, z'
loop_
 _atom_site_type_symbol
 _atom_site_label
 _atom_site_symmetry_multiplicity
 _atom_site_fract_x
 _atom_site_fract_y
 _atom_site_fract_z
 _atom_site_occupancy
  Na  Na0  1  0.13970869  0.25038898  0.24403505  1
  Na  Na1  1  0.14060036  0.24891501  0.49317153  1
  Na  Na2  1  0.14037605  0.24848619  0.74427393  1
  Na  Na3  1  0.14024546  0.25020723  0.99437959  1
  Na  Na4  1  0.14069469  0.58491561  0.24526999  1
  Na  Na5  1  0.13989623  0.58300421  0.49342603  1
  Na  Na6  1  0.14073030  0.58219989  0.74278398  1
  Na  Na7  1  0.14093189  0.58368090  0.99361331  1
  Na  Na8  1  0.14019019  0.91900243  0.24417167  1
  Na  Na9  1  0.14018353  0.91647977  0.49386135  1
  Na  Na10  1  0.13991946  0.91518029  0.74289701  1
  Na  Na11  1  0.14039618  0.91723628  0.99384857  1
  Na  Na12  1  0.63998670  0.25013166  0.24252763  1
  Na  Na13  1  0.64045742  0.24975362  0.49289701  1
  Na  Na14  1  0.64084496  0.25100745  0.74341090  1
  Na  Na15  1  0.64051862  0.25052367  0.99418820  1
  Na  Na16  1  0.64088552  0.58261909  0.24316961  1
  Na  Na17  1  0.64003303  0.58338686  0.49360836  1
  Na  Na18  1  0.64052839  0.58331474  0.74396370  1
  Na  Na19  1  0.64087892  0.58415210  0.99302892  1
  Na  Na20  1  0.64094931  0.91751812  0.24339660  1
  Na  Na21  1  0.64024468  0.91682133  0.49503444  1
  Na  Na22  1  0.64020764  0.91768602  0.74323754  1
  Na  Na23  1  0.64080901  0.91643419  0.99364448  1
  Na  Na24  1  0.35944231  0.08301453  0.00622252  1
  Na  Na25  1  0.35983601  0.08484165  0.25729470  1
  Na  Na26  1  0.35962073  0.08324280  0.50521015  1
  Na  Na27  1  0.35958618  0.08167997  0.75662116  1
  Na  Na28  1  0.35983509  0.41598506  0.00663053  1
  Na  Na29  1  0.36015612  0.41695327  0.25765968  1
  Na  Na30  1  0.35980381  0.41626937  0.50598473  1
  Na  Na31  1  0.35949145  0.41552371  0.75620232  1
  Na  Na32  1  0.35970604  0.75003294  0.00528497  1
  Na  Na33  1  0.35940487  0.75157483  0.25600265  1
  Na  Na34  1  0.35959412  0.74929199  0.50649443  1
  Na  Na35  1  0.35936424  0.74872138  0.75575757  1
  Na  Na36  1  0.85906826  0.08291416  0.00618821  1
  Na  Na37  1  0.85989687  0.08374502  0.25722370  1
  Na  Na38  1  0.85987798  0.08223173  0.50751512  1
  Na  Na39  1  0.85959393  0.08343640  0.75624879  1
  Na  Na40  1  0.85946362  0.41585940  0.00640807  1
  Na  Na41  1  0.85990340  0.41595418  0.25597854  1
  Na  Na42  1  0.85948790  0.41663472  0.50593023  1
  Na  Na43  1  0.85936095  0.41697384  0.75584584  1
  Na  Na44  1  0.85929005  0.75068067  0.00555512  1
  Na  Na45  1  0.85918064  0.75017261  0.25620574  1
  Na  Na46  1  0.85920492  0.74992434  0.50751289  1
  Na  Na47  1  0.85955353  0.75139607  0.75631484  1
  Na  Na48  1  0.10985438  0.08493413  0.11999482  1
  Na  Na49  1  0.10959611  0.08441986  0.36844901  1
  Na  Na50  1  0.10938401  0.08301231  0.61922855  1
  Na  Na51  1  0.10944100  0.08267911  0.86866689  1
  Na  Na52  1  0.10989807  0.41614895  0.11960401  1
  Na  Na53  1  0.10942505  0.41610272  0.36930360  1
  Na  Na54  1  0.10958238  0.41566653  0.61798947  1
  Na  Na55  1  0.10973417  0.41507313  0.86880888  1
  Na  Na56  1  0.10994434  0.75119069  0.11908976  1
  Na  Na57  1  0.10954165  0.75018879  0.36967407  1
  Na  Na58  1  0.10972886  0.75016812  0.61753503  1
  Na  Na59  1  0.10979231  0.75096555  0.86756982  1
  Na  Na60  1  0.60964240  0.08456701  0.11912213  1
  Na  Na61  1  0.60990482  0.08393918  0.36790691  1
  Na  Na62  1  0.61020202  0.08380209  0.61839529  1
  Na  Na63  1  0.60967731  0.08245045  0.86810311  1
  Na  Na64  1  0.60966747  0.41682722  0.11859028  1
  Na  Na65  1  0.60968147  0.41597190  0.36807931  1
  Na  Na66  1  0.60988321  0.41850323  0.61888402  1
  Na  Na67  1  0.61045777  0.41656039  0.86882789  1
  Na  Na68  1  0.61038206  0.74979505  0.11832012  1
  Na  Na69  1  0.60954504  0.74926357  0.36847787  1
  Na  Na70  1  0.60975625  0.75112887  0.61939932  1
  Na  Na71  1  0.60961511  0.75009300  0.86832250  1
  Na  Na72  1  0.39051474  0.25007771  0.13265237  1
  Na  Na73  1  0.39005503  0.25023310  0.38102004  1
  Na  Na74  1  0.39049128  0.25126532  0.63110355  1
  Na  Na75  1  0.39049191  0.24939974  0.88117104  1
  Na  Na76  1  0.39076843  0.58318196  0.13086794  1
  Na  Na77  1  0.39079694  0.58264109  0.38124821  1
  Na  Na78  1  0.39019821  0.58471671  0.63103269  1
  Na  Na79  1  0.39025212  0.58147968  0.88090312  1
  Na  Na80  1  0.39025754  0.91693825  0.13125301  1
  Na  Na81  1  0.39049034  0.91705052  0.38076799  1
  Na  Na82  1  0.39017387  0.91622294  0.63148065  1
  Na  Na83  1  0.39010542  0.91482623  0.88047399  1
  Na  Na84  1  0.89016904  0.24960179  0.13200544  1
  Na  Na85  1  0.89031562  0.24944093  0.38097508  1
  Na  Na86  1  0.89029414  0.24846836  0.63107823  1
  Na  Na87  1  0.88982512  0.24945570  0.88127307  1
  Na  Na88  1  0.89053632  0.58282739  0.13125438  1
  Na  Na89  1  0.89019635  0.58287450  0.38179871  1
  Na  Na90  1  0.89013493  0.58328492  0.63073392  1
  Na  Na91  1  0.89060519  0.58242936  0.88109554  1
  Na  Na92  1  0.89006463  0.91712119  0.13192948  1
  Na  Na93  1  0.89006215  0.91769504  0.38236954  1
  Na  Na94  1  0.89003097  0.91773313  0.63282258  1
  Na  Na95  1  0.88947439  0.91681339  0.88038055  1
  Mn  Mn96  1  0.50008109  0.00040119  0.49977207  1
  Mn  Mn97  1  0.74960569  0.33401217  0.62435330  1
  Mn  Mn98  1  0.49941582  0.16724866  -0.00011729  1
  Mn  Mn99  1  0.50000498  -0.00010288  -0.00020945  1
  Mn  Mn100  1  0.24994495  0.16640128  0.62480065  1
  Mn  Mn101  1  0.25023995  0.50087400  0.12610400  1
  Mn  Mn102  1  0.25046976  0.66851103  0.12385522  1
  Mn  Mn103  1  0.00002139  0.33245834  0.49999101  1
  Mn  Mn104  1  0.74963177  0.83390746  0.37565496  1
  Mn  Mn105  1  0.24982790  0.83368388  0.37487488  1
  Mn  Mn106  1  -0.00046260  0.33175380  0.74873814  1
  Mn  Mn107  1  0.00057529  0.66699462  0.74980352  1
  Mn  Mn108  1  0.24998400  0.49882722  0.62445757  1
  Mn  Mn109  1  0.00084057  0.49936074  0.25049902  1
  Mn  Mn110  1  0.75048577  0.49985048  0.12431304  1
  Mn  Mn111  1  0.25008643  0.00115944  0.12447917  1
  Mn  Mn112  1  -0.00021136  0.00043119  -0.00006148  1
  Mn  Mn113  1  0.75034355  0.16579267  0.37467778  1
  Mn  Mn114  1  0.50036351  0.66642218  0.75008316  1
  Mn  Mn115  1  0.50029422  0.49919132  0.00049850  1
  Mn  Mn116  1  0.24979943  0.66640694  0.87467921  1
  Mn  Mn117  1  0.50073516  0.16653220  0.75000918  1
  Mn  Mn118  1  0.00016725  0.66668550  0.25041907  1
  Mn  Mn119  1  0.74981992  0.66660652  0.62565635  1
  Mn  Mn120  1  0.25043134  0.33238438  0.87573378  1
  Mn  Mn121  1  0.50050274  0.83319999  0.49985112  1
  Mn  Mn122  1  0.49996837  0.83345287  0.24956526  1
  Mn  Mn123  1  0.00083968  0.49838643  0.00083552  1
  Mn  Mn124  1  0.75030449  0.66741188  0.87459590  1
  Mn  Mn125  1  0.00020882  0.66659447  -0.00028392  1
  Mn  Mn126  1  0.49989268  0.66572937  0.24951896  1
  Mn  Mn127  1  0.50062793  0.33423358  0.75013914  1
  Mn  Mn128  1  0.24985724  0.33305709  0.12547824  1
  Mn  Mn129  1  -0.00053360  0.83443698  0.49993581  1
  Mn  Mn130  1  0.75037515  0.33338552  0.37477862  1
  Mn  Mn131  1  0.49948952  0.16772460  0.49929166  1
  Mn  Mn132  1  0.50075833  0.83252150  0.00018937  1
  Mn  Mn133  1  0.24957980  -0.00130263  0.62532031  1
  Mn  Mn134  1  0.50003059  0.50006504  0.49963992  1
  Mn  Mn135  1  -0.00093232  0.16709395  0.00014477  1
  Mn  Mn136  1  0.74959603  0.66604867  0.37574668  1
  Mn  Mn137  1  0.74958061  0.16700049  0.87476410  1
  Mn  Mn138  1  -0.00002303  0.49936717  0.74998132  1
  Mn  Mn139  1  -0.00046483  0.83428330  0.25070295  1
  Mn  Mn140  1  0.24995967  -0.00096707  0.87545088  1
  Mn  Mn141  1  0.00007018  0.83406656  0.00007700  1
  Mn  Mn142  1  0.75029974  0.00010745  0.12481161  1
  Mn  Mn143  1  0.24996227  0.50047422  0.37568959  1
  Fe  Fe144  1  0.74938810  0.83413674  0.87538983  1
  Fe  Fe145  1  -0.00005761  0.33244631  0.00008048  1
  Fe  Fe146  1  0.75037763  0.66691368  0.12444512  1
  Fe  Fe147  1  -0.00070054  0.66726326  0.50044882  1
  Fe  Fe148  1  -0.00051923  0.49990290  0.49948159  1
  Fe  Fe149  1  0.24943631  0.83259000  0.87408294  1
  Fe  Fe150  1  0.25033681  0.00022490  0.37467937  1
  Fe  Fe151  1  0.50015407  0.66579787  -0.00046237  1
  Fe  Fe152  1  0.24984380  0.83463805  0.12540606  1
  Fe  Fe153  1  0.24959959  0.33333553  0.37542514  1
  Fe  Fe154  1  -0.00047676  0.33299459  0.25059049  1
  Fe  Fe155  1  -0.00037260  0.00021523  0.74972858  1
  Fe  Fe156  1  0.50011348  0.66673560  0.50019648  1
  Fe  Fe157  1  0.75028679  0.83348409  0.12491875  1
  Fe  Fe158  1  0.75001331  0.33346286  0.12445805  1
  Fe  Fe159  1  0.24984837  0.66577787  0.62498790  1
  Fe  Fe160  1  0.50036761  0.33368053  0.49931949  1
  Fe  Fe161  1  0.74985013  0.50011857  0.62516726  1
  Fe  Fe162  1  0.24987940  0.49914679  0.87444179  1
  Fe  Fe163  1  0.50002413  0.33356048  0.00051727  1
  Fe  Fe164  1  0.00004294  0.16601183  0.49994695  1
  Fe  Fe165  1  0.75015449  0.16677408  0.62508529  1
  Fe  Fe166  1  0.74961304  0.83405911  0.62585116  1
  Fe  Fe167  1  0.75012927  -0.00034684  0.37595143  1
  Fe  Fe168  1  0.74981596  0.16657690  0.12480737  1
  Fe  Fe169  1  0.49968970  0.83289026  0.74996374  1
  Fe  Fe170  1  0.24995820  0.16612150  0.87490360  1
  Fe  Fe171  1  0.00012086  0.00091090  0.25107860  1
  Fe  Fe172  1  0.49929479  -0.00022861  0.74943052  1
  Fe  Fe173  1  0.25036273  0.16713301  0.12601063  1
  Fe  Fe174  1  0.49982068  0.33352105  0.24988716  1
  Fe  Fe175  1  0.25007355  0.16719295  0.37551385  1
  Fe  Fe176  1  0.00021848  0.00088774  0.50094426  1
  Fe  Fe177  1  0.75047568  0.33369090  0.87457275  1
  Fe  Fe178  1  0.74933653  0.00039864  0.87489835  1
  Fe  Fe179  1  0.25036323  0.83213129  0.62405896  1
  Fe  Fe180  1  0.50014339  0.16725340  0.24973742  1
  Fe  Fe181  1  0.25009746  0.66743915  0.37505018  1
  Fe  Fe182  1  -0.00031729  0.16669785  0.25047506  1
  Fe  Fe183  1  0.74965384  0.00018884  0.62557306  1
  Fe  Fe184  1  0.50048370  0.00041646  0.25003786  1
  Fe  Fe185  1  0.24994346  0.33228064  0.62534587  1
  Fe  Fe186  1  -0.00042458  0.83378103  0.74912832  1
  Fe  Fe187  1  0.75058467  0.50042324  0.87511620  1
  Fe  Fe188  1  0.50066730  0.49951661  0.24994833  1
  Fe  Fe189  1  0.00000142  0.16593335  0.75020431  1
  Fe  Fe190  1  0.75005507  0.49974564  0.37420701  1
  Fe  Fe191  1  0.49981409  0.50021138  0.74996957  1
  P  P192  1  0.04181925  0.25101281  0.10347731  1
  P  P193  1  0.04088831  0.24958223  0.35216901  1
  P  P194  1  0.04240942  0.24746317  0.60243352  1
  P  P195  1  0.04191195  0.24855588  0.85252568  1
  P  P196  1  0.04360798  0.58297726  0.10328943  1
  P  P197  1  0.04252644  0.58330945  0.35463453  1
  P  P198  1  0.04106563  0.58316092  0.60124046  1
  P  P199  1  0.04331848  0.58279939  0.85296787  1
  P  P200  1  0.04272898  0.91799691  0.10394468  1
  P  P201  1  0.04198469  0.91883327  0.35351506  1
  P  P202  1  0.04163809  0.91831476  0.60328115  1
  P  P203  1  0.04126922  0.91693509  0.85097822  1
  P  P204  1  0.54165782  0.25154357  0.10335507  1
  P  P205  1  0.54147266  0.25071944  0.35143384  1
  P  P206  1  0.54252883  0.25192526  0.60193586  1
  P  P207  1  0.54344561  0.25032742  0.85350139  1
  P  P208  1  0.54286467  0.58382697  0.10238169  1
  P  P209  1  0.54263803  0.58172331  0.35238583  1
  P  P210  1  0.54224495  0.58461885  0.60263733  1
  P  P211  1  0.54241556  0.58174582  0.85272430  1
  P  P212  1  0.54288897  0.91715645  0.10350536  1
  P  P213  1  0.54267114  0.91768729  0.35211813  1
  P  P214  1  0.54220839  0.91698147  0.60406244  1
  P  P215  1  0.54110401  0.91627891  0.85109734  1
  P  P216  1  0.45852395  0.08350427  0.14865172  1
  P  P217  1  0.45773935  0.08374559  0.39550016  1
  P  P218  1  0.45761475  0.08295381  0.64740788  1
  P  P219  1  0.45715501  0.08279297  0.89627080  1
  P  P220  1  0.45838432  0.41665293  0.14843393  1
  P  P221  1  0.45794392  0.41523767  0.39660660  1
  P  P222  1  0.45778951  0.41844102  0.64715263  1
  P  P223  1  0.45783325  0.41546876  0.89764282  1
  P  P224  1  0.45732963  0.74934616  0.14620300  1
  P  P225  1  0.45784189  0.74858458  0.39749263  1
  P  P226  1  0.45795448  0.75082361  0.64734127  1
  P  P227  1  0.45821408  0.74832322  0.89707035  1
  P  P228  1  0.95828654  0.08351630  0.14915017  1
  P  P229  1  0.95842689  0.08328411  0.39830912  1
  P  P230  1  0.95844224  0.08335881  0.64796310  1
  P  P231  1  0.95692912  0.08328794  0.89611421  1
  P  P232  1  0.95805533  0.41469867  0.14766236  1
  P  P233  1  0.95764464  0.41690909  0.39737104  1
  P  P234  1  0.95713596  0.41649132  0.64589989  1
  P  P235  1  0.95773411  0.41451861  0.89761076  1
  P  P236  1  0.95717978  0.75031363  0.14716795  1
  P  P237  1  0.95715932  0.74950002  0.39806558  1
  P  P238  1  0.95786904  0.75105065  0.64692428  1
  P  P239  1  0.95743860  0.75073390  0.89606614  1
  P  P240  1  0.20826247  0.08518405  0.22857071  1
  P  P241  1  0.20873625  0.08284542  0.47638135  1
  P  P242  1  0.20738032  0.08280015  0.72858676  1
  P  P243  1  0.20767243  0.08470040  0.97780707  1
  P  P244  1  0.20755336  0.41664382  0.22930571  1
  P  P245  1  0.20769581  0.41499224  0.47805457  1
  P  P246  1  0.20755043  0.41453226  0.72759728  1
  P  P247  1  0.20794400  0.41743724  0.97764657  1
  P  P248  1  0.20774761  0.75206084  0.22770047  1
  P  P249  1  0.20801096  0.74872968  0.47818259  1
  P  P250  1  0.20838869  0.74938250  0.72613848  1
  P  P251  1  0.20738691  0.75179431  0.97726000  1
  P  P252  1  0.70791654  0.08421712  0.22745239  1
  P  P253  1  0.70801099  0.08184806  0.47833403  1
  P  P254  1  0.70858914  0.08388259  0.72698562  1
  P  P255  1  0.70752081  0.08256819  0.97755485  1
  P  P256  1  0.70811101  0.41566190  0.22700905  1
  P  P257  1  0.70777915  0.41819349  0.47725603  1
  P  P258  1  0.70796239  0.41816430  0.72809906  1
  P  P259  1  0.70922230  0.41663539  0.97658536  1
  P  P260  1  0.70876251  0.74989900  0.22655421  1
  P  P261  1  0.70702624  0.75048808  0.47907118  1
  P  P262  1  0.70784390  0.75189573  0.72822904  1
  P  P263  1  0.70784156  0.75140623  0.97790103  1
  P  P264  1  0.29246998  0.24830197  0.02284316  1
  P  P265  1  0.29091441  0.25036786  0.27364837  1
  P  P266  1  0.29210457  0.25101304  0.52180926  1
  P  P267  1  0.29252518  0.24832003  0.77241224  1
  P  P268  1  0.29289659  0.58329530  0.02126254  1
  P  P269  1  0.29259076  0.58550738  0.27290756  1
  P  P270  1  0.29195728  0.58426876  0.52220373  1
  P  P271  1  0.29194852  0.58149675  0.77194748  1
  P  P272  1  0.29227411  0.91556737  0.02208995  1
  P  P273  1  0.29230018  0.91853804  0.27203282  1
  P  P274  1  0.29223893  0.91535821  0.52203555  1
  P  P275  1  0.29177595  0.91427170  0.77182598  1
  P  P276  1  0.79128701  0.24988726  0.02298598  1
  P  P277  1  0.79231989  0.24984659  0.27084825  1
  P  P278  1  0.79220940  0.24872174  0.52252220  1
  P  P279  1  0.79208279  0.25131606  0.77201708  1
  P  P280  1  0.79258217  0.58463700  0.02196147  1
  P  P281  1  0.79232551  0.58246166  0.27206269  1
  P  P282  1  0.79167909  0.58184967  0.52242367  1
  P  P283  1  0.79236069  0.58236526  0.77225213  1
  P  P284  1  0.79215078  0.91545239  0.02199716  1
  P  P285  1  0.79226071  0.91798541  0.27290006  1
  P  P286  1  0.79135606  0.91687533  0.52411524  1
  P  P287  1  0.79049725  0.91733861  0.77291937  1
  O  O288  1  0.03644312  0.25085941  0.18334120  1
  O  O289  1  0.03608320  0.24875721  0.43211110  1
  O  O290  1  0.03711600  0.24721988  0.68235819  1
  O  O291  1  0.03658419  0.24962914  0.93245782  1
  O  O292  1  0.03859850  0.58285906  0.18331676  1
  O  O293  1  0.03668291  0.58346361  0.43452519  1
  O  O294  1  0.03640616  0.58324557  0.68129428  1
  O  O295  1  0.03841697  0.58276769  0.93293825  1
  O  O296  1  0.03763118  0.91848604  0.18392031  1
  O  O297  1  0.03665808  0.91884292  0.43346794  1
  O  O298  1  0.03608345  0.91784412  0.68315405  1
  O  O299  1  0.03662493  0.91675938  0.93102738  1
  O  O300  1  0.53618101  0.25140837  0.18324971  1
  O  O301  1  0.53681463  0.25085798  0.43144250  1
  O  O302  1  0.53770700  0.25148813  0.68191286  1
  O  O303  1  0.53813616  0.25043024  0.93345024  1
  O  O304  1  0.53770992  0.58303416  0.18228210  1
  O  O305  1  0.53738891  0.58236148  0.43228599  1
  O  O306  1  0.53709289  0.58378901  0.68256206  1
  O  O307  1  0.53742685  0.58228329  0.93266116  1
  O  O308  1  0.53759409  0.91777442  0.18342885  1
  O  O309  1  0.53762656  0.91735160  0.43212329  1
  O  O310  1  0.53656609  0.91685519  0.68394408  1
  O  O311  1  0.53641259  0.91613760  0.93112448  1
  O  O312  1  0.46287860  0.08394546  0.06859780  1
  O  O313  1  0.46326474  0.08363173  0.31562853  1
  O  O314  1  0.46235208  0.08346672  0.56736493  1
  O  O315  1  0.46245232  0.08226613  0.81632446  1
  O  O316  1  0.46344240  0.41632075  0.06845681  1
  O  O317  1  0.46316268  0.41534553  0.31672819  1
  O  O318  1  0.46302197  0.41787599  0.56724671  1
  O  O319  1  0.46280372  0.41642806  0.81772162  1
  O  O320  1  0.46262017  0.74884935  0.06625843  1
  O  O321  1  0.46284307  0.74882214  0.31753529  1
  O  O322  1  0.46319810  0.75023671  0.56742407  1
  O  O323  1  0.46362474  0.74923554  0.81712494  1
  O  O324  1  0.96264233  0.08392605  0.06914667  1
  O  O325  1  0.96361344  0.08315288  0.31842506  1
  O  O326  1  0.96380571  0.08333374  0.56806696  1
  O  O327  1  0.96214494  0.08331119  0.81622788  1
  O  O328  1  0.96333030  0.41442422  0.06770406  1
  O  O329  1  0.96300411  0.41638822  0.31742974  1
  O  O330  1  0.96245643  0.41704881  0.56597276  1
  O  O331  1  0.96279048  0.41489763  0.81761245  1
  O  O332  1  0.96235987  0.75041911  0.06717860  1
  O  O333  1  0.96230337  0.74986918  0.31810429  1
  O  O334  1  0.96286219  0.75056148  0.56693581  1
  O  O335  1  0.96278955  0.75128899  0.81605603  1
  O  O336  1  0.21320973  0.08480983  0.05774717  1
  O  O337  1  0.21360255  0.08459842  0.30840995  1
  O  O338  1  0.21337696  0.08286454  0.55635881  1
  O  O339  1  0.21264285  0.08314269  0.80848735  1
  O  O340  1  0.21307326  0.41736552  0.05762155  1
  O  O341  1  0.21273018  0.41616872  0.30926003  1
  O  O342  1  0.21288616  0.41453833  0.55800213  1
  O  O343  1  0.21300358  0.41528334  0.80752739  1
  O  O344  1  0.21260657  0.75226407  0.05719620  1
  O  O345  1  0.21304665  0.75127077  0.30764733  1
  O  O346  1  0.21361089  0.74873745  0.55804589  1
  O  O347  1  0.21312399  0.74966457  0.80614696  1
  O  O348  1  0.71296109  0.08310021  0.05743710  1
  O  O349  1  0.71285674  0.08351272  0.30734521  1
  O  O350  1  0.71326292  0.08255612  0.55822576  1
  O  O351  1  0.71331243  0.08336295  0.80695969  1
  O  O352  1  0.71447781  0.41600817  0.05653428  1
  O  O353  1  0.71315426  0.41613522  0.30692251  1
  O  O354  1  0.71297502  0.41833876  0.55722379  1
  O  O355  1  0.71371891  0.41793088  0.80792456  1
  O  O356  1  0.71338176  0.75101877  0.05777223  1
  O  O357  1  0.71371970  0.74965102  0.30658758  1
  O  O358  1  0.71218998  0.75076114  0.55900669  1
  O  O359  1  0.71323870  0.75198597  0.80813477  1
  O  O360  1  0.28648436  0.24975184  0.19364914  1
  O  O361  1  0.28646572  0.25123343  0.44193408  1
  O  O362  1  0.28715151  0.24927348  0.69248859  1
  O  O363  1  0.28735444  0.24818616  0.94288621  1
  O  O364  1  0.28739481  0.58543385  0.19294600  1
  O  O365  1  0.28675895  0.58473834  0.44229610  1
  O  O366  1  0.28656208  0.58202051  0.69200572  1
  O  O367  1  0.28746680  0.58233265  0.94132098  1
  O  O368  1  0.28707742  0.91818674  0.19210998  1
  O  O369  1  0.28705580  0.91619214  0.44211341  1
  O  O370  1  0.28647944  0.91416227  0.69188011  1
  O  O371  1  0.28696560  0.91539089  0.94214646  1
  O  O372  1  0.78687801  0.24977964  0.19097302  1
  O  O373  1  0.78712851  0.24874826  0.44257956  1
  O  O374  1  0.78678027  0.25073208  0.69211724  1
  O  O375  1  0.78619460  0.25060646  0.94300021  1
  O  O376  1  0.78714615  0.58334414  0.19210104  1
  O  O377  1  0.78627148  0.58175284  0.44248179  1
  O  O378  1  0.78675328  0.58210678  0.69233836  1
  O  O379  1  0.78737145  0.58412583  0.94201793  1
  O  O380  1  0.78737798  0.91752246  0.19298381  1
  O  O381  1  0.78674958  0.91747974  0.44413668  1
  O  O382  1  0.78531449  0.91728532  0.69302999  1
  O  O383  1  0.78652184  0.91568866  0.94217735  1
  O  O384  1  0.22813715  0.24824863  0.05852657  1
  O  O385  1  0.22669811  0.25087736  0.30930753  1
  O  O386  1  0.22795514  0.25126825  0.55807099  1
  O  O387  1  0.22831687  0.24816074  0.80840712  1
  O  O388  1  0.22864188  0.58380553  0.05683719  1
  O  O389  1  0.22828546  0.58541451  0.30854831  1
  O  O390  1  0.22774631  0.58392956  0.55808563  1
  O  O391  1  0.22778156  0.58146333  0.80791868  1
  O  O392  1  0.22804130  0.91594565  0.05799887  1
  O  O393  1  0.22805777  0.91867768  0.30786874  1
  O  O394  1  0.22793743  0.91477568  0.55771425  1
  O  O395  1  0.22753934  0.91467371  0.80767441  1
  O  O396  1  0.72720048  0.24935259  0.05922654  1
  O  O397  1  0.72817713  0.24981755  0.30676765  1
  O  O398  1  0.72790403  0.24865105  0.55808826  1
  O  O399  1  0.72791646  0.25176952  0.80800603  1
  O  O400  1  0.72835262  0.58465548  0.05780013  1
  O  O401  1  0.72802160  0.58180412  0.30786984  1
  O  O402  1  0.72751539  0.58212064  0.55845718  1
  O  O403  1  0.72823589  0.58234093  0.80835719  1
  O  O404  1  0.72808602  0.91540734  0.05836252  1
  O  O405  1  0.72790176  0.91839222  0.30849579  1
  O  O406  1  0.72710078  0.91624214  0.55979310  1
  O  O407  1  0.72654298  0.91761656  0.80958001  1
  O  O408  1  0.27240998  0.08531302  0.19232857  1
  O  O409  1  0.27292967  0.08264825  0.44065117  1
  O  O410  1  0.27162873  0.08254572  0.69303317  1
  O  O411  1  0.27185340  0.08441700  0.94176103  1
  O  O412  1  0.27188353  0.41658012  0.19391777  1
  O  O413  1  0.27192674  0.41525133  0.44225796  1
  O  O414  1  0.27181601  0.41422469  0.69170979  1
  O  O415  1  0.27225759  0.41741309  0.94206622  1
  O  O416  1  0.27200373  0.75261325  0.19179616  1
  O  O417  1  0.27208982  0.74891834  0.44184431  1
  O  O418  1  0.27265446  0.74905586  0.69038287  1
  O  O419  1  0.27168183  0.75151764  0.94149812  1
  O  O420  1  0.77220857  0.08482921  0.19174470  1
  O  O421  1  0.77225544  0.08147231  0.44233896  1
  O  O422  1  0.77273295  0.08455982  0.69107773  1
  O  O423  1  0.77166557  0.08216414  0.94149315  1
  O  O424  1  0.77237681  0.41541404  0.19131150  1
  O  O425  1  0.77206605  0.41833646  0.44148102  1
  O  O426  1  0.77197960  0.41814315  0.69156724  1
  O  O427  1  0.77328486  0.41706205  0.94036788  1
  O  O428  1  0.77287965  0.74987135  0.19051413  1
  O  O429  1  0.77135554  0.75012442  0.44369616  1
  O  O430  1  0.77195179  0.75172401  0.69208216  1
  O  O431  1  0.77191088  0.75190537  0.94157426  1
  O  O432  1  0.02258422  0.08308332  0.18458187  1
  O  O433  1  0.02260200  0.08340948  0.43452801  1
  O  O434  1  0.02243258  0.08321168  0.68447388  1
  O  O435  1  0.02118431  0.08381842  0.93173354  1
  O  O436  1  0.02227580  0.41448765  0.18349735  1
  O  O437  1  0.02182508  0.41718345  0.43317739  1
  O  O438  1  0.02146413  0.41593169  0.68121238  1
  O  O439  1  0.02212393  0.41388791  0.93302652  1
  O  O440  1  0.02158567  0.75073268  0.18225516  1
  O  O441  1  0.02147789  0.74964003  0.43342798  1
  O  O442  1  0.02217519  0.75151300  0.68239088  1
  O  O443  1  0.02175494  0.75056427  0.93146189  1
  O  O444  1  0.52284040  0.08319560  0.18399128  1
  O  O445  1  0.52188087  0.08408507  0.43138036  1
  O  O446  1  0.52206268  0.08239772  0.68250098  1
  O  O447  1  0.52147967  0.08350915  0.93159213  1
  O  O448  1  0.52261859  0.41657712  0.18429050  1
  O  O449  1  0.52214763  0.41543149  0.43254324  1
  O  O450  1  0.52210223  0.41897723  0.68281249  1
  O  O451  1  0.52218295  0.41485198  0.93319282  1
  O  O452  1  0.52168536  0.74959825  0.18145058  1
  O  O453  1  0.52222950  0.74844612  0.43284463  1
  O  O454  1  0.52215557  0.75123061  0.68312398  1
  O  O455  1  0.52241679  0.74771077  0.93300868  1
  O  O456  1  0.47754440  0.25187917  0.06714289  1
  O  O457  1  0.47726770  0.25093022  0.31573132  1
  O  O458  1  0.47807391  0.25231897  0.56674747  1
  O  O459  1  0.47911605  0.25012849  0.81817596  1
  O  O460  1  0.47855078  0.58416722  0.06673776  1
  O  O461  1  0.47833717  0.58114424  0.31676657  1
  O  O462  1  0.47800927  0.58488420  0.56683736  1
  O  O463  1  0.47809864  0.58178064  0.81716536  1
  O  O464  1  0.47857195  0.91640179  0.06818101  1
  O  O465  1  0.47828364  0.91789977  0.31686479  1
  O  O466  1  0.47812933  0.91665387  0.56805864  1
  O  O467  1  0.47687156  0.91629924  0.81544249  1
  O  O468  1  0.97759220  0.25159521  0.06738808  1
  O  O469  1  0.97679822  0.25015657  0.31620210  1
  O  O470  1  0.97812309  0.24765598  0.56679905  1
  O  O471  1  0.97767070  0.24784118  0.81672738  1
  O  O472  1  0.97912221  0.58265093  0.06838834  1
  O  O473  1  0.97844577  0.58290814  0.31859716  1
  O  O474  1  0.97681816  0.58306710  0.56569521  1
  O  O475  1  0.97880013  0.58321367  0.81815243  1
  O  O476  1  0.97828616  0.91747508  0.06884156  1
  O  O477  1  0.97775096  0.91894933  0.31773631  1
  O  O478  1  0.97752454  0.91875292  0.56716311  1
  O  O479  1  0.97700912  0.91716660  0.81535730  1
  O  O480  1  0.07317872  0.31405962  0.07444494  1
  O  O481  1  0.07197619  0.31333423  0.32455238  1
  O  O482  1  0.07338042  0.31132676  0.57478792  1
  O  O483  1  0.07301096  0.31189340  0.82383726  1
  O  O484  1  0.07435967  0.64663526  0.07515197  1
  O  O485  1  0.07361113  0.64682634  0.32619997  1
  O  O486  1  0.07151265  0.64721310  0.57324428  1
  O  O487  1  0.07449982  0.64618332  0.82464358  1
  O  O488  1  0.07359742  0.98137805  0.07504171  1
  O  O489  1  0.07303450  0.98206982  0.32475771  1
  O  O490  1  0.07288258  0.98167971  0.57480681  1
  O  O491  1  0.07226152  0.98062989  0.82313064  1
  O  O492  1  0.57267771  0.31492579  0.07457454  1
  O  O493  1  0.57289851  0.31391616  0.32301597  1
  O  O494  1  0.57329737  0.31550619  0.57355300  1
  O  O495  1  0.57459643  0.31363842  0.82504639  1
  O  O496  1  0.57344137  0.64748812  0.07384867  1
  O  O497  1  0.57375649  0.64523385  0.32417671  1
  O  O498  1  0.57274504  0.64853613  0.57448004  1
  O  O499  1  0.57389820  0.64506146  0.82456832  1
  O  O500  1  0.57377589  0.98052820  0.07468525  1
  O  O501  1  0.57340773  0.98126310  0.32370220  1
  O  O502  1  0.57328147  0.98053361  0.57576370  1
  O  O503  1  0.57176057  0.98012057  0.82297005  1
  O  O504  1  0.42754950  0.01986172  0.17661790  1
  O  O505  1  0.42659413  0.02037027  0.42405830  1
  O  O506  1  0.42678303  0.01930517  0.67566953  1
  O  O507  1  0.42619313  0.01937741  0.92488225  1
  O  O508  1  0.42701325  0.35340857  0.17682966  1
  O  O509  1  0.42743461  0.35171287  0.42577860  1
  O  O510  1  0.42684603  0.35485750  0.67543099  1
  O  O511  1  0.42708831  0.35178970  0.92598958  1
  O  O512  1  0.42604678  0.68616090  0.17476605  1
  O  O513  1  0.42737660  0.68491927  0.42614851  1
  O  O514  1  0.42683741  0.68731635  0.67552973  1
  O  O515  1  0.42741808  0.68451390  0.92496537  1
  O  O516  1  0.92714644  0.02005375  0.17728608  1
  O  O517  1  0.92754329  0.01983895  0.42725628  1
  O  O518  1  0.92733209  0.01980938  0.67639092  1
  O  O519  1  0.92619597  0.01964794  0.92467958  1
  O  O520  1  0.92685615  0.35161939  0.17663700  1
  O  O521  1  0.92641131  0.35337379  0.42534582  1
  O  O522  1  0.92602138  0.35272570  0.67355386  1
  O  O523  1  0.92669715  0.35109315  0.92589345  1
  O  O524  1  0.92645157  0.68656624  0.17514073  1
  O  O525  1  0.92657723  0.68582444  0.42651278  1
  O  O526  1  0.92672093  0.68757139  0.67510190  1
  O  O527  1  0.92652260  0.68688253  0.92378945  1
  O  O528  1  0.17695548  0.02192248  0.20004231  1
  O  O529  1  0.17774510  0.01932422  0.44832725  1
  O  O530  1  0.17627142  0.01922246  0.70070701  1
  O  O531  1  0.17655180  0.02083599  0.95041696  1
  O  O532  1  0.17619332  0.35358601  0.20060014  1
  O  O533  1  0.17666842  0.35186044  0.44910521  1
  O  O534  1  0.17681938  0.35078342  0.69965519  1
  O  O535  1  0.17691306  0.35362685  0.95019266  1
  O  O536  1  0.17666268  0.68864877  0.19942617  1
  O  O537  1  0.17724950  0.68530913  0.44937214  1
  O  O538  1  0.17758173  0.68549406  0.69830042  1
  O  O539  1  0.17642856  0.68793704  0.94971083  1
  O  O540  1  0.67691903  0.02079941  0.19911210  1
  O  O541  1  0.67726221  0.01828309  0.44979518  1
  O  O542  1  0.67816873  0.02011862  0.69835582  1
  O  O543  1  0.67670431  0.01895479  0.94925340  1
  O  O544  1  0.67741563  0.35208550  0.19848390  1
  O  O545  1  0.67715159  0.35405525  0.44987344  1
  O  O546  1  0.67661106  0.35470365  0.69998583  1
  O  O547  1  0.67842800  0.35308525  0.94809692  1
  O  O548  1  0.67788781  0.68627402  0.19837634  1
  O  O549  1  0.67587022  0.68704780  0.45091585  1
  O  O550  1  0.67674308  0.68800836  0.70097363  1
  O  O551  1  0.67687724  0.68781494  0.94959928  1
  O  O552  1  0.32317439  0.31228889  0.05052812  1
  O  O553  1  0.32202872  0.31398279  0.30148237  1
  O  O554  1  0.32327448  0.31407848  0.55081766  1
  O  O555  1  0.32395393  0.31157594  0.80068225  1
  O  O556  1  0.32387391  0.64719161  0.04854910  1
  O  O557  1  0.32322696  0.64910941  0.30118349  1
  O  O558  1  0.32281153  0.64741993  0.55137589  1
  O  O559  1  0.32336630  0.64489969  0.79981572  1
  O  O560  1  0.32343590  0.97939423  0.04952072  1
  O  O561  1  0.32294000  0.98211858  0.30053373  1
  O  O562  1  0.32333759  0.97877266  0.55037710  1
  O  O563  1  0.32304478  0.97783902  0.79952291  1
  O  O564  1  0.82194192  0.31347244  0.05160005  1
  O  O565  1  0.82358951  0.31313864  0.29931236  1
  O  O566  1  0.82319854  0.31251972  0.54987975  1
  O  O567  1  0.82294400  0.31488662  0.80028700  1
  O  O568  1  0.82306778  0.64835804  0.05034537  1
  O  O569  1  0.82329865  0.64582227  0.30070520  1
  O  O570  1  0.82276988  0.64563890  0.54999999  1
  O  O571  1  0.82334460  0.64638023  0.79929239  1
  O  O572  1  0.82348246  0.97903966  0.04983596  1
  O  O573  1  0.82282827  0.98155932  0.30160967  1
  O  O574  1  0.82169221  0.98056395  0.55312525  1
  O  O575  1  0.82150034  0.98098175  0.80116374  1
  O  O576  1  0.42835173  0.14750053  0.17722307  1
  O  O577  1  0.42636908  0.14711137  0.42375134  1
  O  O578  1  0.42684339  0.14666348  0.67539558  1
  O  O579  1  0.42589079  0.14622281  0.92432079  1
  O  O580  1  0.42810254  0.48076277  0.17645786  1
  O  O581  1  0.42649072  0.47862658  0.42465422  1
  O  O582  1  0.42699884  0.48204545  0.67549809  1
  O  O583  1  0.42679317  0.47882084  0.92617909  1
  O  O584  1  0.42636026  0.81299238  0.17425469  1
  O  O585  1  0.42680417  0.81230677  0.42509879  1
  O  O586  1  0.42711685  0.81435324  0.67576059  1
  O  O587  1  0.42716443  0.81182147  0.92522152  1
  O  O588  1  0.92813093  0.14750445  0.17770767  1
  O  O589  1  0.92748059  0.14698292  0.42649007  1
  O  O590  1  0.92754709  0.14696031  0.67627435  1
  O  O591  1  0.92538391  0.14633515  0.92483721  1
  O  O592  1  0.92727359  0.47871877  0.17510894  1
  O  O593  1  0.92683682  0.48052163  0.42562579  1
  O  O594  1  0.92610525  0.47968317  0.67471334  1
  O  O595  1  0.92719758  0.47837576  0.92564795  1
  O  O596  1  0.92591259  0.81359356  0.17547485  1
  O  O597  1  0.92584715  0.81305824  0.42571766  1
  O  O598  1  0.92714411  0.81477704  0.67516225  1
  O  O599  1  0.92615209  0.81390726  0.92458568  1
  O  O600  1  0.07247083  0.18715379  0.07532395  1
  O  O601  1  0.07132951  0.18592691  0.32322146  1
  O  O602  1  0.07337269  0.18429894  0.57345224  1
  O  O603  1  0.07280624  0.18485937  0.82466916  1
  O  O604  1  0.07474583  0.51948841  0.07526494  1
  O  O605  1  0.07416980  0.52006337  0.32662220  1
  O  O606  1  0.07199702  0.51948905  0.57328424  1
  O  O607  1  0.07390596  0.51911428  0.82469548  1
  O  O608  1  0.07386832  0.85453727  0.07579323  1
  O  O609  1  0.07287085  0.85488581  0.32606938  1
  O  O610  1  0.07273255  0.85480511  0.57499960  1
  O  O611  1  0.07176832  0.85316585  0.82252861  1
  O  O612  1  0.57267230  0.18784137  0.07548173  1
  O  O613  1  0.57169635  0.18662475  0.32303289  1
  O  O614  1  0.57321754  0.18818770  0.57380913  1
  O  O615  1  0.57452637  0.18680682  0.82528292  1
  O  O616  1  0.57406162  0.52034503  0.07429643  1
  O  O617  1  0.57333722  0.51811154  0.32393996  1
  O  O618  1  0.57353391  0.52137506  0.57428086  1
  O  O619  1  0.57266330  0.51795598  0.82409492  1
  O  O620  1  0.57420546  0.85365900  0.07567756  1
  O  O621  1  0.57361388  0.85390508  0.32445733  1
  O  O622  1  0.57373908  0.85381372  0.57564364  1
  O  O623  1  0.57183199  0.85245840  0.82320525  1
  O  O624  1  0.32353106  0.18516962  0.05185530  1
  O  O625  1  0.32136543  0.18663784  0.30256937  1
  O  O626  1  0.32303264  0.18703126  0.54936955  1
  O  O627  1  0.32304976  0.18444425  0.80042619  1
  O  O628  1  0.32416909  0.52028613  0.05039069  1
  O  O629  1  0.32360350  0.52175840  0.30060220  1
  O  O630  1  0.32311930  0.52034486  0.54938411  1
  O  O631  1  0.32248022  0.51768991  0.80024450  1
  O  O632  1  0.32306207  0.85228029  0.05105680  1
  O  O633  1  0.32356665  0.85507424  0.30008054  1
  O  O634  1  0.32302303  0.85161450  0.55017317  1
  O  O635  1  0.32241908  0.85075223  0.80053027  1
  O  O636  1  0.82221975  0.18595873  0.05056770  1
  O  O637  1  0.82361697  0.18653529  0.29941407  1
  O  O638  1  0.82296806  0.18522890  0.55108577  1
  O  O639  1  0.82310784  0.18779218  0.80026139  1
  O  O640  1  0.82401340  0.52122101  0.04995502  1
  O  O641  1  0.82308135  0.51863169  0.30000966  1
  O  O642  1  0.82264535  0.51854975  0.55108024  1
  O  O643  1  0.82352327  0.51923713  0.80115658  1
  O  O644  1  0.82307560  0.85214247  0.05100321  1
  O  O645  1  0.82323581  0.85440388  0.30117182  1
  O  O646  1  0.82245788  0.85323312  0.55210907  1
  O  O647  1  0.82138938  0.85366373  0.80120073  1
  O  O648  1  0.17749500  0.14881217  0.20002883  1
  O  O649  1  0.17839338  0.14693375  0.44823190  1
  O  O650  1  0.17624367  0.14605113  0.69991742  1
  O  O651  1  0.17675336  0.14800290  0.94910511  1
  O  O652  1  0.17675953  0.48053175  0.20160554  1
  O  O653  1  0.17675146  0.47899141  0.45079171  1
  O  O654  1  0.17627613  0.47787247  0.69915258  1
  O  O655  1  0.17725520  0.48086699  0.94886995  1
  O  O656  1  0.17709813  0.81594546  0.19972678  1
  O  O657  1  0.17653556  0.81226230  0.45035566  1
  O  O658  1  0.17761057  0.81290666  0.69745268  1
  O  O659  1  0.17646809  0.81499380  0.94808401  1
  O  O660  1  0.67709181  0.14784232  0.19905447  1
  O  O661  1  0.67684139  0.14529593  0.44978735  1
  O  O662  1  0.67745501  0.14752607  0.69902203  1
  O  O663  1  0.67629451  0.14603213  0.94946682  1
  O  O664  1  0.67694868  0.47911998  0.19878290  1
  O  O665  1  0.67673232  0.48128128  0.44820774  1
  O  O666  1  0.67699618  0.48159223  0.69943475  1
  O  O667  1  0.67826590  0.48060366  0.94913675  1
  O  O668  1  0.67815638  0.81395814  0.19896085  1
  O  O669  1  0.67604293  0.81387633  0.45047962  1
  O  O670  1  0.67691787  0.81523427  0.69961389  1
  O  O671  1  0.67656467  0.81470819  0.94932062  1
