# generated using pymatgen
data_ZrScNbPdRh
_symmetry_space_group_name_H-M   'P 1'
_cell_length_a   16.55419829
_cell_length_b   16.55320717
_cell_length_c   16.55208740
_cell_angle_alpha   89.99299449
_cell_angle_beta   90.00175199
_cell_angle_gamma   89.97453614
_symmetry_Int_Tables_number   1
_chemical_formula_structural   ZrScNbPdRh
_chemical_formula_sum   'Zr50 Sc50 Nb50 Pd50 Rh50'
_cell_volume   4535.68648840
_cell_formula_units_Z   50
loop_
 _symmetry_equiv_pos_site_id
 _symmetry_equiv_pos_as_xyz
  1  'x, y, z'
loop_
 _atom_site_type_symbol
 _atom_site_label
 _atom_site_symmetry_multiplicity
 _atom_site_fract_x
 _atom_site_fract_y
 _atom_site_fract_z
 _atom_site_occupancy
  Zr  Zr0  1  0.89852019  0.69012007  0.70064654  1
  Zr  Zr1  1  0.70395556  0.10134005  0.89523661  1
  Zr  Zr2  1  0.49978709  0.70072737  0.29645343  1
  Zr  Zr3  1  0.10179195  0.70959367  0.70431387  1
  Zr  Zr4  1  0.29133989  0.89178072  0.09413440  1
  Zr  Zr5  1  0.09264393  0.10439677  0.10609984  1
  Zr  Zr6  1  0.29707343  0.29899137  0.89935319  1
  Zr  Zr7  1  0.49010897  0.30153529  0.50087980  1
  Zr  Zr8  1  0.30156339  0.70555311  0.69928466  1
  Zr  Zr9  1  0.10482560  0.49939236  0.89849192  1
  Zr  Zr10  1  0.29874507  0.48986144  0.49940395  1
  Zr  Zr11  1  0.90409331  0.70695832  0.49096815  1
  Zr  Zr12  1  0.70369985  0.50049358  0.29952273  1
  Zr  Zr13  1  0.88955037  0.90514162  0.09870821  1
  Zr  Zr14  1  0.50377160  0.89794050  0.31484648  1
  Zr  Zr15  1  0.09691833  0.09688897  0.90640765  1
  Zr  Zr16  1  0.50062388  0.49428562  0.50832980  1
  Zr  Zr17  1  0.29586655  0.09912161  0.90711610  1
  Zr  Zr18  1  0.90985329  0.69921441  0.89237482  1
  Zr  Zr19  1  0.30426856  0.11035322  0.50703053  1
  Zr  Zr20  1  0.70358693  0.10289444  0.10135510  1
  Zr  Zr21  1  0.11701913  0.70441508  0.10773833  1
  Zr  Zr22  1  0.49851199  0.10640705  0.90781176  1
  Zr  Zr23  1  0.89726668  0.28684702  0.30901031  1
  Zr  Zr24  1  0.10067420  0.70047858  0.49997809  1
  Zr  Zr25  1  0.29918480  0.70071285  0.50217845  1
  Zr  Zr26  1  0.70888006  0.89991655  0.89879397  1
  Zr  Zr27  1  0.30410485  0.89418127  0.69752558  1
  Zr  Zr28  1  0.30405964  0.49682596  0.90568363  1
  Zr  Zr29  1  0.10757875  0.30333336  0.49203184  1
  Zr  Zr30  1  0.10301959  0.28781468  0.29158559  1
  Zr  Zr31  1  0.70457473  0.70045422  0.51073560  1
  Zr  Zr32  1  0.10352310  0.50268646  0.49462199  1
  Zr  Zr33  1  0.90533806  0.48988207  0.70249950  1
  Zr  Zr34  1  0.68623777  0.51029458  0.69728206  1
  Zr  Zr35  1  0.89616734  0.10556574  0.68927799  1
  Zr  Zr36  1  0.70026835  0.09294636  0.50199171  1
  Zr  Zr37  1  0.09321274  0.89724665  0.51296123  1
  Zr  Zr38  1  0.50277153  0.09568080  0.49635636  1
  Zr  Zr39  1  0.89975483  0.30356104  0.89089445  1
  Zr  Zr40  1  0.89847456  0.10630283  0.49492192  1
  Zr  Zr41  1  0.31014071  0.90691242  0.30073127  1
  Zr  Zr42  1  0.69936636  0.89684658  0.29789580  1
  Zr  Zr43  1  0.90596013  0.30130247  0.50973781  1
  Zr  Zr44  1  0.49415760  0.09334527  0.30063319  1
  Zr  Zr45  1  0.69355022  0.90043459  0.50127488  1
  Zr  Zr46  1  0.89560094  0.90671477  0.49841675  1
  Zr  Zr47  1  0.90098584  0.51248997  0.28879038  1
  Zr  Zr48  1  0.50369733  0.10696596  0.10053180  1
  Zr  Zr49  1  0.89712485  0.89007150  0.29945813  1
  Sc  Sc50  1  0.70388828  0.70102876  0.30521856  1
  Sc  Sc51  1  0.90048101  0.29913347  0.10878205  1
  Sc  Sc52  1  0.09462959  0.89941372  0.09006184  1
  Sc  Sc53  1  0.49110177  0.90261030  0.10524116  1
  Sc  Sc54  1  0.31238167  0.89673806  0.50717101  1
  Sc  Sc55  1  0.29968637  0.31114314  0.10287935  1
  Sc  Sc56  1  0.09990724  0.70747684  0.89325133  1
  Sc  Sc57  1  0.09445458  0.88753721  0.28652409  1
  Sc  Sc58  1  0.30094311  0.50119761  0.29214446  1
  Sc  Sc59  1  0.49638104  0.50165314  0.30523706  1
  Sc  Sc60  1  0.30331901  0.70603588  0.90421667  1
  Sc  Sc61  1  0.10267189  0.49977251  0.70454535  1
  Sc  Sc62  1  0.30451251  0.09343064  0.09807748  1
  Sc  Sc63  1  0.90094173  0.09966788  0.29329117  1
  Sc  Sc64  1  0.29502902  0.29870686  0.30477847  1
  Sc  Sc65  1  0.29172420  0.29812851  0.69777787  1
  Sc  Sc66  1  0.69492204  0.49910734  0.90556172  1
  Sc  Sc67  1  0.68947123  0.50446086  0.50040170  1
  Sc  Sc68  1  0.50629726  0.70350708  0.70934953  1
  Sc  Sc69  1  0.09861236  0.29688632  0.89315137  1
  Sc  Sc70  1  0.10015921  0.10636379  0.50419067  1
  Sc  Sc71  1  0.49948169  0.30160522  0.29762928  1
  Sc  Sc72  1  0.49556107  0.69690868  0.09529890  1
  Sc  Sc73  1  0.90100920  0.49895230  0.50211764  1
  Sc  Sc74  1  0.49542405  0.69675959  0.90124327  1
  Sc  Sc75  1  0.90790133  0.90074632  0.90426152  1
  Sc  Sc76  1  0.70238537  0.30459503  0.70376655  1
  Sc  Sc77  1  0.70046094  0.09703253  0.69566554  1
  Sc  Sc78  1  0.69280210  0.30600205  0.90094226  1
  Sc  Sc79  1  0.50361955  0.29589062  0.09065838  1
  Sc  Sc80  1  0.50522464  0.30845581  0.70011107  1
  Sc  Sc81  1  0.69959150  0.69911118  0.09618836  1
  Sc  Sc82  1  0.89381531  0.69774555  0.10310616  1
  Sc  Sc83  1  0.30374859  0.69265081  0.09838645  1
  Sc  Sc84  1  0.90192695  0.09533128  0.89443292  1
  Sc  Sc85  1  0.09416735  0.30584851  0.70344805  1
  Sc  Sc86  1  0.70828656  0.10695214  0.29675141  1
  Sc  Sc87  1  0.29980809  0.49409002  0.70829702  1
  Sc  Sc88  1  0.69163229  0.69211227  0.89584788  1
  Sc  Sc89  1  0.90776673  0.90921485  0.69602307  1
  Sc  Sc90  1  0.49796185  0.70364707  0.49228745  1
  Sc  Sc91  1  0.89632259  0.50033776  0.89813148  1
  Sc  Sc92  1  0.09228066  0.69266299  0.30282968  1
  Sc  Sc93  1  0.29850290  0.69628340  0.29484494  1
  Sc  Sc94  1  0.50085793  0.30603022  0.90409037  1
  Sc  Sc95  1  0.50557291  0.10228272  0.68949263  1
  Sc  Sc96  1  0.10200572  0.09874141  0.70064165  1
  Sc  Sc97  1  0.48613931  0.49964552  0.09244774  1
  Sc  Sc98  1  0.69650431  0.30603549  0.50175547  1
  Sc  Sc99  1  0.30085378  0.10636542  0.30677255  1
  Nb  Nb100  1  0.30025580  0.09768883  0.70566182  1
  Nb  Nb101  1  0.49734027  0.50112985  0.69971404  1
  Nb  Nb102  1  0.09628950  0.49720164  0.29734070  1
  Nb  Nb103  1  0.70224380  0.90338257  0.09697728  1
  Nb  Nb104  1  0.10026398  0.29804525  0.10407666  1
  Nb  Nb105  1  0.90199131  0.30920495  0.69709269  1
  Nb  Nb106  1  0.90059340  0.70236999  0.30698275  1
  Nb  Nb107  1  0.68996543  0.89034742  0.69826780  1
  Nb  Nb108  1  0.71539019  0.49935962  0.10258548  1
  Nb  Nb109  1  0.69804792  0.29690170  0.10370018  1
  Nb  Nb110  1  0.50024863  0.89444093  0.70116300  1
  Nb  Nb111  1  0.10530402  0.89831546  0.89683344  1
  Nb  Nb112  1  0.49603056  0.89396025  0.89632164  1
  Nb  Nb113  1  0.90020170  0.50216596  0.09861496  1
  Nb  Nb114  1  0.10426763  0.10054526  0.30001123  1
  Nb  Nb115  1  0.50210725  0.90132765  0.49946270  1
  Nb  Nb116  1  0.69989811  0.70295447  0.70082738  1
  Nb  Nb117  1  0.10544990  0.89695898  0.70667452  1
  Nb  Nb118  1  0.29974254  0.90071149  0.90481573  1
  Nb  Nb119  1  0.29853036  0.30052501  0.49621054  1
  Nb  Nb120  1  0.10136749  0.49825244  0.10590383  1
  Nb  Nb121  1  0.70256211  0.29428908  0.29248548  1
  Nb  Nb122  1  0.89991776  0.09754869  0.09434343  1
  Nb  Nb123  1  0.29355018  0.50566339  0.09738945  1
  Nb  Nb124  1  0.49842772  0.49843052  0.88970583  1
  Nb  Nb125  1  0.19930272  0.80603799  0.40056549  1
  Nb  Nb126  1  0.60189155  -0.00496674  -0.00109934  1
  Nb  Nb127  1  0.39710478  0.19284854  0.79873609  1
  Nb  Nb128  1  0.60873329  0.40189499  0.19324873  1
  Nb  Nb129  1  0.40038161  0.80073381  0.20301463  1
  Nb  Nb130  1  0.80136359  0.20230224  0.00170490  1
  Nb  Nb131  1  0.80301853  0.39754618  0.39485635  1
  Nb  Nb132  1  0.00024104  0.40116225  0.39112181  1
  Nb  Nb133  1  0.19465140  -0.00429414  0.40017633  1
  Nb  Nb134  1  0.60401537  -0.00208514  0.19641163  1
  Nb  Nb135  1  0.00762705  -0.00028847  0.39557436  1
  Nb  Nb136  1  0.60025558  0.20042250  0.39880355  1
  Nb  Nb137  1  0.40225252  0.59531492  0.60344504  1
  Nb  Nb138  1  0.79714413  0.79737969  0.79206882  1
  Nb  Nb139  1  0.40085557  0.19943643  0.19787265  1
  Nb  Nb140  1  0.19745209  0.00140662  0.20471025  1
  Nb  Nb141  1  0.19401259  0.20268302  0.00714267  1
  Nb  Nb142  1  0.59913646  0.81099183  -0.00180908  1
  Nb  Nb143  1  0.59351046  -0.00933634  0.80139940  1
  Nb  Nb144  1  0.00320494  0.60173041  0.60025507  1
  Nb  Nb145  1  0.20480477  -0.00596496  0.80216763  1
  Nb  Nb146  1  0.00346953  0.40412834  0.01057542  1
  Nb  Nb147  1  0.00552495  0.59380527  0.00831541  1
  Nb  Nb148  1  0.40062710  -0.00140594  0.80038920  1
  Nb  Nb149  1  0.60472193  0.58959945  0.19510754  1
  Pd  Pd150  1  0.20216248  0.59605141  0.60856089  1
  Pd  Pd151  1  0.19688271  0.60628072  -0.00444448  1
  Pd  Pd152  1  0.80332467  0.00193391  0.39095208  1
  Pd  Pd153  1  0.59986911  0.60537881  0.39755491  1
  Pd  Pd154  1  0.20333785  0.60297475  0.39093057  1
  Pd  Pd155  1  0.39953602  0.60417587  0.79804328  1
  Pd  Pd156  1  0.58946666  0.79332883  0.59507944  1
  Pd  Pd157  1  0.79564550  0.78873437  -0.00972577  1
  Pd  Pd158  1  0.80722904  0.39129557  0.00157094  1
  Pd  Pd159  1  0.20203111  0.40281626  0.20420399  1
  Pd  Pd160  1  0.79179753  0.20723534  0.60029940  1
  Pd  Pd161  1  0.59572621  0.59647809  0.00546034  1
  Pd  Pd162  1  0.00342038  0.61013912  0.19275514  1
  Pd  Pd163  1  -0.00390322  0.39483259  0.20332702  1
  Pd  Pd164  1  0.80543550  0.60494254  -0.00671966  1
  Pd  Pd165  1  0.60524368  0.39204698  0.39098753  1
  Pd  Pd166  1  0.80365182  0.39519648  0.20405738  1
  Pd  Pd167  1  -0.00617361  0.79141046  0.19091276  1
  Pd  Pd168  1  0.19345363  0.39277574  0.00097605  1
  Pd  Pd169  1  -0.00786964  0.79587879  0.60793739  1
  Pd  Pd170  1  0.79152650  0.40785632  0.59485319  1
  Pd  Pd171  1  0.40638983  0.39634003  0.19710048  1
  Pd  Pd172  1  0.19773814  0.39947205  0.60463489  1
  Pd  Pd173  1  0.80564872  0.59179372  0.59770190  1
  Pd  Pd174  1  0.00236553  0.79114768  0.00596958  1
  Pd  Pd175  1  -0.00459579  0.21015266  0.00088777  1
  Pd  Pd176  1  0.40547083  -0.00580537  -0.00024143  1
  Pd  Pd177  1  0.80784740  0.80772098  0.60691617  1
  Pd  Pd178  1  0.59795847  0.40949334  0.00773667  1
  Pd  Pd179  1  0.39690307  0.59673061  0.40497649  1
  Pd  Pd180  1  0.60401568  0.20729886  0.59524210  1
  Pd  Pd181  1  0.78928355  0.40798876  0.79903808  1
  Pd  Pd182  1  0.59402255  0.79898703  0.18826848  1
  Pd  Pd183  1  0.20458329  0.60451725  0.80308433  1
  Pd  Pd184  1  0.59262028  0.19811784  0.79809745  1
  Pd  Pd185  1  0.79701579  -0.00759804  0.78812736  1
  Pd  Pd186  1  0.20074841  -0.00195047  0.60057533  1
  Pd  Pd187  1  0.40670977  -0.00049254  0.60315864  1
  Pd  Pd188  1  0.40049558  0.38871429  0.79713276  1
  Pd  Pd189  1  0.79448450  0.59689829  0.80370734  1
  Pd  Pd190  1  0.00067071  -0.00119760  0.20226431  1
  Pd  Pd191  1  0.79726490  0.79222745  0.19925619  1
  Pd  Pd192  1  0.00883575  0.20248891  0.60558622  1
  Pd  Pd193  1  0.80154726  0.20434323  0.79930160  1
  Pd  Pd194  1  0.80253028  0.59489638  0.40637267  1
  Pd  Pd195  1  -0.00272093  0.19650972  0.79174093  1
  Pd  Pd196  1  0.40018104  0.20885440  0.61050507  1
  Pd  Pd197  1  0.19509537  0.20480420  0.60522784  1
  Pd  Pd198  1  0.39595225  0.39895387  0.39421103  1
  Pd  Pd199  1  0.00644972  -0.00038890  0.79781435  1
  Rh  Rh200  1  0.80198499  0.01022916  -0.00250999  1
  Rh  Rh201  1  0.39330116  0.79682895  0.39533473  1
  Rh  Rh202  1  0.79449281  -0.00456326  0.60448625  1
  Rh  Rh203  1  0.20227655  0.19222526  0.80561311  1
  Rh  Rh204  1  0.19957265  0.39875206  0.80004193  1
  Rh  Rh205  1  0.59629137  -0.00763285  0.60765787  1
  Rh  Rh206  1  0.00586071  0.59366830  0.79952189  1
  Rh  Rh207  1  0.60130557  0.39954277  0.60450459  1
  Rh  Rh208  1  0.19900316  0.59361938  0.20329580  1
  Rh  Rh209  1  0.19050842  0.00305195  0.00413366  1
  Rh  Rh210  1  0.79904027  0.00031881  0.20228776  1
  Rh  Rh211  1  0.19623389  0.40152494  0.38895878  1
  Rh  Rh212  1  0.60996306  0.00859237  0.38962365  1
  Rh  Rh213  1  0.79539301  0.61041190  0.20021039  1
  Rh  Rh214  1  0.39563364  0.80117070  0.80289858  1
  Rh  Rh215  1  0.61351119  0.19804943  -0.00734462  1
  Rh  Rh216  1  0.38996269  0.00441583  0.41614172  1
  Rh  Rh217  1  0.00176273  0.40253905  0.80826203  1
  Rh  Rh218  1  -0.00865929  0.80971932  0.79595934  1
  Rh  Rh219  1  0.00728257  0.80901823  0.39703169  1
  Rh  Rh220  1  0.59140436  0.20114065  0.20917448  1
  Rh  Rh221  1  0.59979209  0.40644791  0.79990832  1
  Rh  Rh222  1  0.60639326  0.80126196  0.80900373  1
  Rh  Rh223  1  0.00725078  0.19658750  0.39963124  1
  Rh  Rh224  1  0.00876582  0.40625856  0.59348731  1
  Rh  Rh225  1  0.20169410  0.80425563  0.59498408  1
  Rh  Rh226  1  0.38656201  0.21248045  0.00471821  1
  Rh  Rh227  1  0.59486411  0.59816787  0.80163528  1
  Rh  Rh228  1  0.40432673  0.60256777  0.19565543  1
  Rh  Rh229  1  -0.00112583  -0.00414061  -0.00022552  1
  Rh  Rh230  1  0.40536000  0.20539197  0.39398183  1
  Rh  Rh231  1  0.58858697  0.60916101  0.60077657  1
  Rh  Rh232  1  0.20815827  0.80532563  0.80631318  1
  Rh  Rh233  1  0.00136799  0.01010698  0.59494476  1
  Rh  Rh234  1  -0.00608599  0.19671255  0.20080962  1
  Rh  Rh235  1  0.78759143  0.20786653  0.41172515  1
  Rh  Rh236  1  -0.00552810  0.59188072  0.40439810  1
  Rh  Rh237  1  0.60705079  0.79400726  0.40802715  1
  Rh  Rh238  1  0.39868476  0.00186510  0.19675326  1
  Rh  Rh239  1  0.39284115  0.40083337  0.60589255  1
  Rh  Rh240  1  0.20168268  0.19393234  0.40577321  1
  Rh  Rh241  1  0.19814256  0.79460106  -0.00626599  1
  Rh  Rh242  1  0.79361229  0.79989688  0.40265755  1
  Rh  Rh243  1  0.40397726  0.80125386  0.00661167  1
  Rh  Rh244  1  0.39943540  0.40184966  -0.00141426  1
  Rh  Rh245  1  0.41069401  0.79052749  0.60003566  1
  Rh  Rh246  1  0.21200466  0.19125075  0.19019365  1
  Rh  Rh247  1  0.39824509  0.59530589  -0.00606959  1
  Rh  Rh248  1  0.21177600  0.80643544  0.20948587  1
  Rh  Rh249  1  0.80823248  0.19644196  0.18977348  1
