# generated using pymatgen
data_ZrScNbPdRh
_symmetry_space_group_name_H-M   'P 1'
_cell_length_a   16.56444842
_cell_length_b   16.56191301
_cell_length_c   16.56163867
_cell_angle_alpha   90.00603931
_cell_angle_beta   89.97620985
_cell_angle_gamma   89.98515479
_symmetry_Int_Tables_number   1
_chemical_formula_structural   ZrScNbPdRh
_chemical_formula_sum   'Zr50 Sc50 Nb50 Pd50 Rh50'
_cell_volume   4543.50205535
_cell_formula_units_Z   50
loop_
 _symmetry_equiv_pos_site_id
 _symmetry_equiv_pos_as_xyz
  1  'x, y, z'
loop_
 _atom_site_type_symbol
 _atom_site_label
 _atom_site_symmetry_multiplicity
 _atom_site_fract_x
 _atom_site_fract_y
 _atom_site_fract_z
 _atom_site_occupancy
  Zr  Zr0  1  0.50574424  0.90158661  0.69495678  1
  Zr  Zr1  1  0.48262321  0.89782732  0.09935348  1
  Zr  Zr2  1  0.09927442  0.10529447  0.30093386  1
  Zr  Zr3  1  0.50188889  0.49917519  0.90596423  1
  Zr  Zr4  1  0.10291451  0.50032142  0.89438889  1
  Zr  Zr5  1  0.29111541  0.90143581  0.10165452  1
  Zr  Zr6  1  0.91064464  0.49035506  0.89579090  1
  Zr  Zr7  1  0.29789442  0.49728085  0.29810272  1
  Zr  Zr8  1  0.90000497  0.69107266  0.70846747  1
  Zr  Zr9  1  0.69853782  0.09281645  0.29833928  1
  Zr  Zr10  1  0.70659272  0.69859995  0.90021474  1
  Zr  Zr11  1  0.29761352  0.09160600  0.29834783  1
  Zr  Zr12  1  0.29465854  0.29770952  0.50962871  1
  Zr  Zr13  1  0.89485317  0.89856039  0.49969607  1
  Zr  Zr14  1  0.29688348  0.10181643  0.69384272  1
  Zr  Zr15  1  0.70901623  0.50487600  0.50174655  1
  Zr  Zr16  1  0.29844296  0.70642530  0.10059608  1
  Zr  Zr17  1  0.10383347  0.69955929  0.71083986  1
  Zr  Zr18  1  0.70499936  0.70666654  0.29723401  1
  Zr  Zr19  1  0.50106688  0.70261956  0.89830924  1
  Zr  Zr20  1  0.49919400  0.29573509  0.69769484  1
  Zr  Zr21  1  0.69130327  0.50526469  0.10000136  1
  Zr  Zr22  1  0.30136778  0.70271204  0.70087942  1
  Zr  Zr23  1  0.09776740  0.50834815  0.29673859  1
  Zr  Zr24  1  0.70400810  0.69839174  0.70131634  1
  Zr  Zr25  1  0.90292526  0.09862263  0.70488923  1
  Zr  Zr26  1  0.89952483  0.49344616  0.69681293  1
  Zr  Zr27  1  0.50556960  0.10409708  0.89428636  1
  Zr  Zr28  1  0.69879774  0.29522048  0.90343737  1
  Zr  Zr29  1  0.29732820  0.09151610  0.09546902  1
  Zr  Zr30  1  0.69650755  0.30337522  0.10222448  1
  Zr  Zr31  1  0.10457535  0.49983353  0.10041904  1
  Zr  Zr32  1  0.89203122  0.89458829  0.30439665  1
  Zr  Zr33  1  0.49291215  0.50552967  0.30211242  1
  Zr  Zr34  1  0.69938844  0.69716866  0.10151940  1
  Zr  Zr35  1  0.70469909  0.90020986  0.89547286  1
  Zr  Zr36  1  0.29713836  0.49900826  0.10325978  1
  Zr  Zr37  1  0.29680604  0.69655975  0.49899105  1
  Zr  Zr38  1  0.10338883  0.08913981  0.09836022  1
  Zr  Zr39  1  0.09324859  0.89166877  0.89888802  1
  Zr  Zr40  1  0.09925243  0.29913261  0.10829469  1
  Zr  Zr41  1  0.10048659  0.10755078  0.49998466  1
  Zr  Zr42  1  0.90665026  0.29756051  0.70402616  1
  Zr  Zr43  1  0.29721462  0.30691249  0.10022730  1
  Zr  Zr44  1  0.49451298  0.09220879  0.10228444  1
  Zr  Zr45  1  0.09135959  0.89508182  0.29417726  1
  Zr  Zr46  1  0.29575459  0.29935608  0.69983225  1
  Zr  Zr47  1  0.30322446  0.90178557  0.49875158  1
  Zr  Zr48  1  0.29835485  0.29680073  0.89829858  1
  Zr  Zr49  1  0.90783581  0.30441042  0.09836273  1
  Sc  Sc50  1  0.29529940  0.48859647  0.90169562  1
  Sc  Sc51  1  0.50744264  0.90141909  0.49237171  1
  Sc  Sc52  1  0.49081027  0.50039977  0.49714093  1
  Sc  Sc53  1  0.89979311  0.69876496  0.49207230  1
  Sc  Sc54  1  0.28946571  0.71218471  0.89864516  1
  Sc  Sc55  1  0.50687485  0.29567476  0.49614438  1
  Sc  Sc56  1  0.29296898  0.49674850  0.69689431  1
  Sc  Sc57  1  0.50292836  0.49868325  0.70739435  1
  Sc  Sc58  1  0.70806668  0.29412237  0.70145149  1
  Sc  Sc59  1  0.89826291  0.29416469  0.89256837  1
  Sc  Sc60  1  0.89820557  0.09919364  0.51168425  1
  Sc  Sc61  1  0.50397968  0.09785850  0.49676380  1
  Sc  Sc62  1  0.50942320  0.10458614  0.69212892  1
  Sc  Sc63  1  0.90096412  0.89817825  0.90807113  1
  Sc  Sc64  1  0.48926914  0.89779170  0.89776580  1
  Sc  Sc65  1  0.70672168  0.10477148  0.89568040  1
  Sc  Sc66  1  0.29524436  0.09191941  0.50104109  1
  Sc  Sc67  1  0.50298008  0.69922612  0.10519793  1
  Sc  Sc68  1  0.30280805  0.89514211  0.90617374  1
  Sc  Sc69  1  0.70118419  0.09481737  0.69850466  1
  Sc  Sc70  1  0.91742664  0.49925929  0.10716089  1
  Sc  Sc71  1  0.30747330  0.89720255  0.30207184  1
  Sc  Sc72  1  0.90760695  0.90098142  0.09957846  1
  Sc  Sc73  1  0.09788289  0.09402101  0.89303116  1
  Sc  Sc74  1  0.50740144  0.09076532  0.30304020  1
  Sc  Sc75  1  0.50215854  0.30503429  0.89772570  1
  Sc  Sc76  1  0.29006274  0.10348734  0.89846924  1
  Sc  Sc77  1  0.09661295  0.69929777  0.30594787  1
  Sc  Sc78  1  0.29081188  0.89979458  0.69892726  1
  Sc  Sc79  1  0.90947642  0.29324160  0.51256875  1
  Sc  Sc80  1  0.69924904  0.10202458  0.10098919  1
  Sc  Sc81  1  0.90309514  0.50747081  0.50441612  1
  Sc  Sc82  1  0.68331014  0.30417892  0.30167317  1
  Sc  Sc83  1  0.10372485  0.70584239  0.10719403  1
  Sc  Sc84  1  0.49841272  0.31251687  0.29944301  1
  Sc  Sc85  1  0.09885281  0.50722000  0.50460027  1
  Sc  Sc86  1  0.50434024  0.31035123  0.09929852  1
  Sc  Sc87  1  0.09761561  0.09145700  0.70265989  1
  Sc  Sc88  1  0.68841124  0.50257387  0.89466089  1
  Sc  Sc89  1  0.71498139  0.90140916  0.10692358  1
  Sc  Sc90  1  0.10724380  0.89749215  0.49972897  1
  Sc  Sc91  1  0.89415004  0.09003658  0.09803869  1
  Sc  Sc92  1  0.50090095  0.49938901  0.10311080  1
  Sc  Sc93  1  0.29910825  0.69368857  0.30337023  1
  Sc  Sc94  1  0.90135135  0.70841259  0.10394580  1
  Sc  Sc95  1  0.49744451  0.71092703  0.29683484  1
  Sc  Sc96  1  0.69872031  0.50975164  0.29669940  1
  Sc  Sc97  1  0.90079208  0.09863785  0.30426809  1
  Sc  Sc98  1  0.10098191  0.29898519  0.89368762  1
  Sc  Sc99  1  0.30033478  0.50695989  0.49558229  1
  Nb  Nb100  1  0.50186124  0.70387247  0.70090587  1
  Nb  Nb101  1  0.90847917  0.10142977  0.89839493  1
  Nb  Nb102  1  0.09785184  0.30577194  0.68528260  1
  Nb  Nb103  1  0.90578676  0.50345316  0.30361294  1
  Nb  Nb104  1  0.09704416  0.29719411  0.49951733  1
  Nb  Nb105  1  0.69754513  0.29914897  0.49510546  1
  Nb  Nb106  1  0.89539828  0.90806253  0.69013451  1
  Nb  Nb107  1  0.50285596  0.90479179  0.29841950  1
  Nb  Nb108  1  0.09577390  0.89882745  0.09924205  1
  Nb  Nb109  1  0.70781516  0.89672110  0.68873917  1
  Nb  Nb110  1  0.90770622  0.29896047  0.29874340  1
  Nb  Nb111  1  0.29469559  0.30058826  0.29602101  1
  Nb  Nb112  1  0.90269801  0.69984843  0.90408452  1
  Nb  Nb113  1  0.69552606  0.70815280  0.50324643  1
  Nb  Nb114  1  0.69238374  0.10984458  0.49482297  1
  Nb  Nb115  1  0.70232183  0.50362820  0.69337418  1
  Nb  Nb116  1  0.70695556  0.89435559  0.50018231  1
  Nb  Nb117  1  0.90890318  0.69535630  0.30137264  1
  Nb  Nb118  1  0.09144365  0.49627963  0.70571968  1
  Nb  Nb119  1  0.09085216  0.70267122  0.89743981  1
  Nb  Nb120  1  0.09851821  0.70379444  0.49961782  1
  Nb  Nb121  1  0.50036399  0.70050529  0.50638502  1
  Nb  Nb122  1  0.09223959  0.89932284  0.70252547  1
  Nb  Nb123  1  0.69973244  0.90220791  0.31091057  1
  Nb  Nb124  1  0.09448601  0.29240937  0.30441732  1
  Nb  Nb125  1  0.00058163  -0.00194708  0.40214613  1
  Nb  Nb126  1  0.39381808  0.20132750  0.39186627  1
  Nb  Nb127  1  0.39563216  0.60103108  -0.00456977  1
  Nb  Nb128  1  0.19144490  0.39055691  0.39797599  1
  Nb  Nb129  1  0.80070528  0.40529027  0.00469319  1
  Nb  Nb130  1  0.39747085  0.20108328  0.00537001  1
  Nb  Nb131  1  0.00210376  0.80087736  0.60526708  1
  Nb  Nb132  1  0.39944117  0.60416078  0.80387076  1
  Nb  Nb133  1  0.60868030  0.40422408  0.59907457  1
  Nb  Nb134  1  0.59942729  0.61172487  0.40846762  1
  Nb  Nb135  1  0.80786723  0.39481022  0.39484677  1
  Nb  Nb136  1  0.00129276  0.39523694  0.39857174  1
  Nb  Nb137  1  0.60136857  0.60224954  0.59934445  1
  Nb  Nb138  1  0.60543553  0.80227422  0.79574492  1
  Nb  Nb139  1  0.00117140  0.19451788  -0.00083271  1
  Nb  Nb140  1  0.39940764  0.00359651  0.79459053  1
  Nb  Nb141  1  0.00233340  0.60669148  -0.00573882  1
  Nb  Nb142  1  0.60323788  0.80611027  -0.00247241  1
  Nb  Nb143  1  0.81010482  0.59502751  -0.00086401  1
  Nb  Nb144  1  0.39671114  0.20173578  0.20144130  1
  Nb  Nb145  1  0.79671761  0.20846754  0.39897860  1
  Nb  Nb146  1  0.80127628  0.20937602  0.20704599  1
  Nb  Nb147  1  0.80634963  0.39996841  0.20539530  1
  Nb  Nb148  1  0.40435564  0.79679760  0.59777291  1
  Nb  Nb149  1  0.59883062  -0.00660029  -0.00152363  1
  Pd  Pd150  1  0.80116107  0.01100871  0.40858189  1
  Pd  Pd151  1  0.81250094  0.59476216  0.19324396  1
  Pd  Pd152  1  0.40332580  0.79702739  0.40396134  1
  Pd  Pd153  1  0.40435490  0.19465256  0.58758604  1
  Pd  Pd154  1  0.79145685  0.40354438  0.80678627  1
  Pd  Pd155  1  0.19238434  -0.00617232  0.39538833  1
  Pd  Pd156  1  0.60316785  -0.01158226  0.19120977  1
  Pd  Pd157  1  0.19469006  -0.00815088  -0.01198580  1
  Pd  Pd158  1  0.38897324  0.39123514  0.40491813  1
  Pd  Pd159  1  0.80634309  -0.00094154  0.80190998  1
  Pd  Pd160  1  -0.01414815  0.80800505  0.79308729  1
  Pd  Pd161  1  0.80118546  0.39249108  0.59237733  1
  Pd  Pd162  1  0.20183938  0.80044438  0.20927882  1
  Pd  Pd163  1  0.20008674  0.79976346  0.39375408  1
  Pd  Pd164  1  0.40190117  -0.00440329  0.60189550  1
  Pd  Pd165  1  0.00715971  -0.00513491  0.59234227  1
  Pd  Pd166  1  0.39984680  0.19402903  0.80363238  1
  Pd  Pd167  1  0.79737352  0.60359582  0.39896774  1
  Pd  Pd168  1  0.59334819  0.20050217  0.20516243  1
  Pd  Pd169  1  0.19450337  0.59759729  0.60371846  1
  Pd  Pd170  1  0.79594450  0.00275933  -0.00298324  1
  Pd  Pd171  1  0.19899555  0.60803318  -0.00469102  1
  Pd  Pd172  1  0.39704366  0.40627433  0.79713792  1
  Pd  Pd173  1  0.60489746  0.41452960  0.40478344  1
  Pd  Pd174  1  0.80908341  0.20303707  0.00575497  1
  Pd  Pd175  1  0.20840555  0.59772216  0.80433376  1
  Pd  Pd176  1  0.80491771  0.80127276  0.20119652  1
  Pd  Pd177  1  0.18879676  0.20272021  0.79076074  1
  Pd  Pd178  1  0.19897181  0.80118044  0.60132258  1
  Pd  Pd179  1  0.20539094  -0.00788488  0.80380686  1
  Pd  Pd180  1  0.39946355  0.60346292  0.19411270  1
  Pd  Pd181  1  0.59781048  -0.00562409  0.80260191  1
  Pd  Pd182  1  0.80601697  0.80728991  0.79705161  1
  Pd  Pd183  1  0.59318134  0.19398492  0.00462963  1
  Pd  Pd184  1  -0.00763405  0.18608579  0.19104437  1
  Pd  Pd185  1  0.19221485  0.39359881  -0.00268606  1
  Pd  Pd186  1  0.60688527  0.39419384  0.79127781  1
  Pd  Pd187  1  0.40538692  0.59861981  0.60916085  1
  Pd  Pd188  1  0.59811645  0.80048208  0.39818492  1
  Pd  Pd189  1  0.60091600  0.81152267  0.19416133  1
  Pd  Pd190  1  0.19468274  0.40866324  0.59369396  1
  Pd  Pd191  1  -0.00714781  0.00183915  0.20546367  1
  Pd  Pd192  1  0.20381800  0.19643938  0.19549060  1
  Pd  Pd193  1  0.80256386  0.58730331  0.80796614  1
  Pd  Pd194  1  0.79571676  0.19809437  0.59806166  1
  Pd  Pd195  1  0.40723918  0.40252698  0.59966335  1
  Pd  Pd196  1  0.60931955  -0.00006470  0.58950553  1
  Pd  Pd197  1  0.00256632  0.60879054  0.60052825  1
  Pd  Pd198  1  0.20861098  0.20224683  0.40219954  1
  Pd  Pd199  1  0.81167525  0.78984025  0.59951972  1
  Rh  Rh200  1  0.40162275  0.40112290  0.00285669  1
  Rh  Rh201  1  0.59536088  0.60502472  0.79060196  1
  Rh  Rh202  1  0.40520555  0.00477404  0.39851069  1
  Rh  Rh203  1  0.40350034  0.01395882  -0.01803314  1
  Rh  Rh204  1  0.39598050  0.80217279  0.20354660  1
  Rh  Rh205  1  0.00436596  0.79472069  0.00671727  1
  Rh  Rh206  1  0.79991570  0.60827483  0.59844309  1
  Rh  Rh207  1  0.00312498  0.59798900  0.40381120  1
  Rh  Rh208  1  0.60171245  0.41118748  0.20490836  1
  Rh  Rh209  1  0.60354420  0.20727018  0.60065122  1
  Rh  Rh210  1  0.60616077  0.20492003  0.79457095  1
  Rh  Rh211  1  0.40605048  0.60911878  0.39795838  1
  Rh  Rh212  1  0.19600814  -0.00889400  0.20545156  1
  Rh  Rh213  1  0.00710775  0.39096765  0.79719777  1
  Rh  Rh214  1  0.19746088  0.80630041  0.80177774  1
  Rh  Rh215  1  0.60717767  -0.00653130  0.40590023  1
  Rh  Rh216  1  0.00325040  0.00360351  -0.00375632  1
  Rh  Rh217  1  -0.00021356  0.59678050  0.80257093  1
  Rh  Rh218  1  0.19524918  0.59719074  0.40311131  1
  Rh  Rh219  1  0.00103037  0.60917651  0.19443637  1
  Rh  Rh220  1  0.39948347  -0.00126622  0.20944957  1
  Rh  Rh221  1  0.00013098  0.40469131  0.59441228  1
  Rh  Rh222  1  0.40371411  0.78793626  0.00628483  1
  Rh  Rh223  1  0.00572701  0.20121236  0.80027086  1
  Rh  Rh224  1  0.60012646  0.80012289  0.60349696  1
  Rh  Rh225  1  -0.00341829  0.79699507  0.20085929  1
  Rh  Rh226  1  0.19327480  0.19563326  0.60498278  1
  Rh  Rh227  1  0.59164909  0.60200777  0.21413114  1
  Rh  Rh228  1  0.59488967  0.19888373  0.39265069  1
  Rh  Rh229  1  0.40238362  0.80548298  0.78666625  1
  Rh  Rh230  1  0.19573378  0.39624775  0.79132725  1
  Rh  Rh231  1  0.79992928  0.79170523  0.39858630  1
  Rh  Rh232  1  -0.00097666  0.80311472  0.40776364  1
  Rh  Rh233  1  0.19052986  0.80249916  0.00070661  1
  Rh  Rh234  1  -0.00851275  -0.00756433  0.80193485  1
  Rh  Rh235  1  0.60541473  0.40032484  -0.00211343  1
  Rh  Rh236  1  0.19394475  -0.00144631  0.60098950  1
  Rh  Rh237  1  0.00651190  0.19426591  0.60980238  1
  Rh  Rh238  1  0.79766665  0.79352722  0.00453127  1
  Rh  Rh239  1  0.00330750  0.39388179  -0.00713577  1
  Rh  Rh240  1  -0.01002694  0.19545254  0.40668795  1
  Rh  Rh241  1  0.19592486  0.20126339  0.00477357  1
  Rh  Rh242  1  0.00517432  0.40333240  0.21081053  1
  Rh  Rh243  1  0.80192132  0.19387607  0.79774675  1
  Rh  Rh244  1  0.59641047  0.60910373  0.00179937  1
  Rh  Rh245  1  0.78894928  0.00548856  0.59353051  1
  Rh  Rh246  1  0.80101406  0.00201356  0.20472261  1
  Rh  Rh247  1  0.19954838  0.60502509  0.20236431  1
  Rh  Rh248  1  0.18967011  0.39884202  0.21030327  1
  Rh  Rh249  1  0.40162240  0.39772357  0.19802645  1
