# generated using pymatgen
data_ZrScNbPdRh
_symmetry_space_group_name_H-M   'P 1'
_cell_length_a   16.56107734
_cell_length_b   16.56403241
_cell_length_c   16.56330035
_cell_angle_alpha   89.97972384
_cell_angle_beta   90.05406976
_cell_angle_gamma   89.98822112
_symmetry_Int_Tables_number   1
_chemical_formula_structural   ZrScNbPdRh
_chemical_formula_sum   'Zr50 Sc50 Nb50 Pd50 Rh50'
_cell_volume   4543.61269593
_cell_formula_units_Z   50
loop_
 _symmetry_equiv_pos_site_id
 _symmetry_equiv_pos_as_xyz
  1  'x, y, z'
loop_
 _atom_site_type_symbol
 _atom_site_label
 _atom_site_symmetry_multiplicity
 _atom_site_fract_x
 _atom_site_fract_y
 _atom_site_fract_z
 _atom_site_occupancy
  Zr  Zr0  1  0.10191364  0.90016737  0.89281799  1
  Zr  Zr1  1  0.69839960  0.29430992  0.29913785  1
  Zr  Zr2  1  0.70115980  0.89482795  0.70531628  1
  Zr  Zr3  1  0.10622581  0.10101295  0.09005434  1
  Zr  Zr4  1  0.90124451  0.90035079  0.70661469  1
  Zr  Zr5  1  0.70008931  0.69115135  0.90129845  1
  Zr  Zr6  1  0.09494334  0.10980239  0.50453743  1
  Zr  Zr7  1  0.09522900  0.50158863  0.30334381  1
  Zr  Zr8  1  0.09651266  0.09674187  0.70179485  1
  Zr  Zr9  1  0.49687797  0.50648414  0.09262199  1
  Zr  Zr10  1  0.90012870  0.49518928  0.10724595  1
  Zr  Zr11  1  0.90252454  0.69447837  0.29264880  1
  Zr  Zr12  1  0.69152002  0.30265829  0.89249463  1
  Zr  Zr13  1  0.09982371  0.69346165  0.89260364  1
  Zr  Zr14  1  0.90865898  0.70064129  0.90570404  1
  Zr  Zr15  1  0.09945135  0.89743972  0.49802231  1
  Zr  Zr16  1  0.29614339  0.50087156  0.30888535  1
  Zr  Zr17  1  0.30126091  0.09003051  0.30449146  1
  Zr  Zr18  1  0.70669250  0.69499763  0.30355234  1
  Zr  Zr19  1  0.90880039  0.29873344  0.49501475  1
  Zr  Zr20  1  0.90241286  0.90120992  0.29637848  1
  Zr  Zr21  1  0.90440965  0.09192411  0.09569014  1
  Zr  Zr22  1  0.70208957  0.48772535  0.69913508  1
  Zr  Zr23  1  0.29973409  0.69426373  0.30064301  1
  Zr  Zr24  1  0.49833675  0.10513906  0.49904707  1
  Zr  Zr25  1  0.30178444  0.70107126  0.10353159  1
  Zr  Zr26  1  0.09275562  0.69577878  0.09132086  1
  Zr  Zr27  1  0.89358545  0.50255756  0.69628753  1
  Zr  Zr28  1  0.90171329  0.89109762  0.09557362  1
  Zr  Zr29  1  0.49792544  0.69231256  0.90121048  1
  Zr  Zr30  1  0.49289333  0.11309438  0.89119083  1
  Zr  Zr31  1  0.50310379  0.09979306  0.30341411  1
  Zr  Zr32  1  0.30543974  0.50424836  0.11126503  1
  Zr  Zr33  1  0.70136633  0.50176041  0.09567022  1
  Zr  Zr34  1  0.71118740  0.69575938  0.09718889  1
  Zr  Zr35  1  0.30718879  0.10464934  0.49917378  1
  Zr  Zr36  1  0.69595429  0.10681058  0.49773281  1
  Zr  Zr37  1  0.29905896  0.89450939  0.49859976  1
  Zr  Zr38  1  0.90313245  0.09867409  0.70269003  1
  Zr  Zr39  1  0.49644483  0.90368060  0.10532195  1
  Zr  Zr40  1  0.70082708  0.10108577  0.30558306  1
  Zr  Zr41  1  0.11101316  0.31283540  0.90050398  1
  Zr  Zr42  1  0.70395397  0.90571439  0.09744948  1
  Zr  Zr43  1  0.10139601  0.29677067  0.69975141  1
  Zr  Zr44  1  0.70684159  0.69977560  0.50265813  1
  Zr  Zr45  1  0.70362071  0.49811995  0.50285832  1
  Zr  Zr46  1  0.49857071  0.09838311  0.10112261  1
  Zr  Zr47  1  0.49010801  0.49667565  0.29342952  1
  Zr  Zr48  1  0.69759078  0.90397020  0.30234978  1
  Zr  Zr49  1  0.49874838  0.90617263  0.30123217  1
  Sc  Sc50  1  0.08985268  0.30549641  0.31307492  1
  Sc  Sc51  1  0.90133013  0.49830462  0.30458040  1
  Sc  Sc52  1  0.30185102  0.30507073  0.69704122  1
  Sc  Sc53  1  0.09820226  0.69902378  0.50676861  1
  Sc  Sc54  1  0.29567352  0.69901404  0.50381884  1
  Sc  Sc55  1  0.90287304  0.70034794  0.69739426  1
  Sc  Sc56  1  0.09591248  0.89461958  0.70262190  1
  Sc  Sc57  1  0.49017549  0.70409109  0.30420476  1
  Sc  Sc58  1  0.69540447  0.30079011  0.50627257  1
  Sc  Sc59  1  0.89727551  0.11160468  0.50023553  1
  Sc  Sc60  1  0.69573452  0.10165425  0.10544643  1
  Sc  Sc61  1  0.29218367  0.69793901  0.69005131  1
  Sc  Sc62  1  0.49738003  0.29267241  0.50417270  1
  Sc  Sc63  1  0.10133478  0.30578365  0.50545023  1
  Sc  Sc64  1  0.69497806  0.09848087  0.90746478  1
  Sc  Sc65  1  0.70317113  0.90060226  0.89655439  1
  Sc  Sc66  1  0.49678535  0.30116505  0.10063363  1
  Sc  Sc67  1  0.10074737  0.90267325  0.10193056  1
  Sc  Sc68  1  0.50275188  0.29832522  0.29825408  1
  Sc  Sc69  1  0.48643667  0.49805980  0.89271066  1
  Sc  Sc70  1  0.49612715  0.89553832  0.49330394  1
  Sc  Sc71  1  0.90084777  0.69554097  0.50189131  1
  Sc  Sc72  1  0.89610020  0.30228399  0.30133767  1
  Sc  Sc73  1  0.10295839  0.50087643  0.70118984  1
  Sc  Sc74  1  0.09577188  0.69856521  0.30356366  1
  Sc  Sc75  1  0.29680433  0.49188646  0.89105508  1
  Sc  Sc76  1  0.30591697  0.31042332  0.30292427  1
  Sc  Sc77  1  0.29785672  0.89863872  0.29411366  1
  Sc  Sc78  1  0.30748169  0.10498254  0.70937511  1
  Sc  Sc79  1  0.09541071  0.30274160  0.08743210  1
  Sc  Sc80  1  0.71251656  0.69816490  0.70383427  1
  Sc  Sc81  1  0.69442026  0.11567498  0.70019678  1
  Sc  Sc82  1  0.70929184  0.49727815  0.89280201  1
  Sc  Sc83  1  0.50767935  0.91146892  0.89117743  1
  Sc  Sc84  1  0.89858582  0.30867380  0.69501059  1
  Sc  Sc85  1  0.90109310  0.90579160  0.89856768  1
  Sc  Sc86  1  0.48278414  0.69811939  0.69791976  1
  Sc  Sc87  1  0.50502294  0.29643623  0.70701907  1
  Sc  Sc88  1  0.70184472  0.30260738  0.10755905  1
  Sc  Sc89  1  0.90918735  0.31470576  0.90771131  1
  Sc  Sc90  1  0.70806209  0.49237148  0.29790756  1
  Sc  Sc91  1  0.48783671  0.70631895  0.49767791  1
  Sc  Sc92  1  0.10616623  0.09155241  0.29898122  1
  Sc  Sc93  1  0.09927617  0.50228548  0.50203425  1
  Sc  Sc94  1  0.89934941  0.88905608  0.50370305  1
  Sc  Sc95  1  0.30230787  0.30650307  0.09015145  1
  Sc  Sc96  1  0.10698474  0.89798134  0.30236853  1
  Sc  Sc97  1  0.29429110  0.68880898  0.88700345  1
  Sc  Sc98  1  0.69995278  0.89700896  0.49313981  1
  Sc  Sc99  1  0.49677759  0.48889973  0.50487354  1
  Nb  Nb100  1  0.49992721  0.49942610  0.69862857  1
  Nb  Nb101  1  0.90148285  0.29622010  0.10042269  1
  Nb  Nb102  1  0.90459439  0.50246755  0.88900101  1
  Nb  Nb103  1  0.89496398  0.50100288  0.50683926  1
  Nb  Nb104  1  0.30029155  0.90464524  0.09236104  1
  Nb  Nb105  1  0.30959119  0.50361022  0.69728556  1
  Nb  Nb106  1  0.29791152  0.09027045  0.09891616  1
  Nb  Nb107  1  0.49373170  0.30442156  0.90175554  1
  Nb  Nb108  1  0.10575240  0.69399055  0.69565979  1
  Nb  Nb109  1  0.10476017  0.50043796  0.10090782  1
  Nb  Nb110  1  0.49734548  0.10052334  0.69860342  1
  Nb  Nb111  1  0.29562153  0.09702758  0.90629704  1
  Nb  Nb112  1  0.50222694  0.69768286  0.09462841  1
  Nb  Nb113  1  0.10003611  0.10517184  0.90289874  1
  Nb  Nb114  1  0.29904657  0.29980126  0.49846056  1
  Nb  Nb115  1  0.10080164  0.50198134  0.89853400  1
  Nb  Nb116  1  0.90122075  0.10406453  0.30401559  1
  Nb  Nb117  1  0.29925253  0.90751727  0.89663120  1
  Nb  Nb118  1  0.29465608  0.48560928  0.50273878  1
  Nb  Nb119  1  0.90303076  0.10277649  0.90179367  1
  Nb  Nb120  1  0.31031085  0.30092696  0.89498875  1
  Nb  Nb121  1  0.30137498  0.89994237  0.69973457  1
  Nb  Nb122  1  0.49957851  0.90333447  0.70210791  1
  Nb  Nb123  1  0.90167893  0.70010896  0.10177028  1
  Nb  Nb124  1  0.69882234  0.30602803  0.70509013  1
  Nb  Nb125  1  0.00204175  0.20066098  0.81033471  1
  Nb  Nb126  1  -0.00389100  0.00187876  0.39999249  1
  Nb  Nb127  1  0.59855061  0.60515560  0.20119248  1
  Nb  Nb128  1  0.59754581  0.60174883  0.60092866  1
  Nb  Nb129  1  0.20117526  0.20490807  0.20044848  1
  Nb  Nb130  1  0.59658140  0.79943131  0.60585594  1
  Nb  Nb131  1  0.79375601  0.00082100  0.60328645  1
  Nb  Nb132  1  0.39722499  0.80451157  -0.00632953  1
  Nb  Nb133  1  0.20651632  -0.00114269  0.60293123  1
  Nb  Nb134  1  0.38911475  0.19294574  0.19812821  1
  Nb  Nb135  1  0.59895112  0.59646877  0.40065103  1
  Nb  Nb136  1  0.59511066  0.40189176  -0.00669255  1
  Nb  Nb137  1  0.80588974  0.20547328  0.80802060  1
  Nb  Nb138  1  0.20549469  0.20408260  0.39934261  1
  Nb  Nb139  1  0.59602191  0.59498105  0.79100147  1
  Nb  Nb140  1  0.19411886  0.40064679  0.19950342  1
  Nb  Nb141  1  0.40245082  -0.00252827  0.60670767  1
  Nb  Nb142  1  0.80679765  0.20266186  -0.00214414  1
  Nb  Nb143  1  0.60141328  0.79441618  0.19493576  1
  Nb  Nb144  1  0.59685588  -0.00262873  0.60395938  1
  Nb  Nb145  1  0.20112929  0.19988082  0.81182066  1
  Nb  Nb146  1  0.00103632  0.19773920  0.19752747  1
  Nb  Nb147  1  0.39420085  0.80940692  0.80114714  1
  Nb  Nb148  1  0.59549454  0.79616896  0.00354935  1
  Nb  Nb149  1  0.20782577  0.80258810  -0.00484253  1
  Pd  Pd150  1  0.19735588  0.60237853  0.41056944  1
  Pd  Pd151  1  0.20167588  0.00755771  0.79484751  1
  Pd  Pd152  1  0.19984370  0.79042771  0.40001968  1
  Pd  Pd153  1  0.79900447  0.00567539  0.19910747  1
  Pd  Pd154  1  0.20866379  0.19590324  0.60305180  1
  Pd  Pd155  1  0.79649872  0.80171104  0.20264834  1
  Pd  Pd156  1  0.00304604  0.40635294  0.59855758  1
  Pd  Pd157  1  0.19928898  0.40357589  0.60589535  1
  Pd  Pd158  1  0.59688559  -0.00223206  -0.00153541  1
  Pd  Pd159  1  0.00220172  0.79523712  0.60509903  1
  Pd  Pd160  1  0.40215501  0.59302638  0.41174645  1
  Pd  Pd161  1  0.00007321  0.60084183  0.79033739  1
  Pd  Pd162  1  0.80126871  0.39441984  0.40358610  1
  Pd  Pd163  1  0.00064890  0.39916541  0.79491726  1
  Pd  Pd164  1  0.40242813  0.79943024  0.19762667  1
  Pd  Pd165  1  0.20553244  0.59788124  -0.00347590  1
  Pd  Pd166  1  0.79621983  0.39580302  -0.00241388  1
  Pd  Pd167  1  0.39368523  0.19839189  0.00561754  1
  Pd  Pd168  1  0.80679935  0.19561296  0.19502742  1
  Pd  Pd169  1  0.40732286  -0.00095473  -0.00965820  1
  Pd  Pd170  1  0.40530354  0.39044825  0.60431004  1
  Pd  Pd171  1  0.19463055  0.79964033  0.19286642  1
  Pd  Pd172  1  0.19077783  0.59925722  0.20258829  1
  Pd  Pd173  1  0.80833755  0.79443343  0.80782286  1
  Pd  Pd174  1  0.20481991  0.79729471  0.79795825  1
  Pd  Pd175  1  0.00888375  0.79800169  0.20083353  1
  Pd  Pd176  1  0.80935637  0.79788364  0.39712768  1
  Pd  Pd177  1  0.80166219  0.20343672  0.60646292  1
  Pd  Pd178  1  0.59054884  0.78784835  0.79830220  1
  Pd  Pd179  1  0.59663960  0.79143068  0.40089947  1
  Pd  Pd180  1  -0.00617659  -0.00251771  0.59036488  1
  Pd  Pd181  1  0.60448083  0.20969298  0.00570033  1
  Pd  Pd182  1  0.79122377  0.01252983  0.79779423  1
  Pd  Pd183  1  0.59781490  0.40621786  0.19236616  1
  Pd  Pd184  1  0.39911112  0.59598552  0.59035662  1
  Pd  Pd185  1  0.21084856  0.20528144  -0.00002122  1
  Pd  Pd186  1  0.38601757  0.60073728  -0.00673579  1
  Pd  Pd187  1  0.00495156  0.00380933  0.20508813  1
  Pd  Pd188  1  0.40609510  0.39430970  0.40418442  1
  Pd  Pd189  1  -0.00461577  0.59833692  0.40767226  1
  Pd  Pd190  1  0.79701389  0.80175160  -0.00895011  1
  Pd  Pd191  1  0.20853985  0.41072229  0.00365099  1
  Pd  Pd192  1  0.59592484  0.40129326  0.40112769  1
  Pd  Pd193  1  -0.00484642  0.58807622  0.00274590  1
  Pd  Pd194  1  0.00483681  0.39185495  0.19970469  1
  Pd  Pd195  1  0.00104066  0.41202662  0.00137104  1
  Pd  Pd196  1  0.60724544  0.01143708  0.79515225  1
  Pd  Pd197  1  0.81380787  0.59255253  -0.00379430  1
  Pd  Pd198  1  0.80935198  0.00040702  0.41145444  1
  Pd  Pd199  1  0.00472773  -0.00725989  -0.00558643  1
  Rh  Rh200  1  0.40225656  0.40387294  -0.00123262  1
  Rh  Rh201  1  0.60195413  0.59303522  -0.00611890  1
  Rh  Rh202  1  0.60522132  -0.00160076  0.20295480  1
  Rh  Rh203  1  0.80099182  0.60108948  0.80077642  1
  Rh  Rh204  1  0.20593395  0.40019889  0.79439325  1
  Rh  Rh205  1  0.00157663  0.79211688  0.79703638  1
  Rh  Rh206  1  0.59668985  0.20202243  0.60456009  1
  Rh  Rh207  1  0.79527844  0.80729288  0.60182538  1
  Rh  Rh208  1  0.19477877  -0.00733831  -0.00162334  1
  Rh  Rh209  1  0.00766955  0.80413938  -0.00303557  1
  Rh  Rh210  1  -0.00580083  0.20608900  0.61074697  1
  Rh  Rh211  1  0.01018164  0.18996121  0.38857332  1
  Rh  Rh212  1  0.00051039  0.59875731  0.60269018  1
  Rh  Rh213  1  0.00244110  0.00439733  0.80694393  1
  Rh  Rh214  1  0.79881436  0.00565301  -0.00064257  1
  Rh  Rh215  1  0.39669246  0.60176797  0.79411287  1
  Rh  Rh216  1  0.39397414  0.00275788  0.20046245  1
  Rh  Rh217  1  0.60049497  0.20672000  0.40048777  1
  Rh  Rh218  1  0.40339939  0.80756990  0.60649447  1
  Rh  Rh219  1  0.59700429  0.39814623  0.60415702  1
  Rh  Rh220  1  0.39709427  0.00087813  0.80063065  1
  Rh  Rh221  1  0.19281390  0.80547013  0.60352041  1
  Rh  Rh222  1  0.59001054  0.40656618  0.80449798  1
  Rh  Rh223  1  0.59050334  0.19828850  0.19875459  1
  Rh  Rh224  1  0.19721021  0.39551487  0.39868547  1
  Rh  Rh225  1  0.80130830  0.59358271  0.20105527  1
  Rh  Rh226  1  0.40780480  0.60734337  0.20330600  1
  Rh  Rh227  1  0.39513543  0.20639220  0.38949916  1
  Rh  Rh228  1  0.79740189  0.20711692  0.40074840  1
  Rh  Rh229  1  0.39449770  0.20477829  0.79874421  1
  Rh  Rh230  1  0.59685793  0.00105271  0.40832993  1
  Rh  Rh231  1  0.40208513  -0.00709083  0.40557913  1
  Rh  Rh232  1  0.79740536  0.60039520  0.60226121  1
  Rh  Rh233  1  0.81034288  0.39353939  0.80269253  1
  Rh  Rh234  1  0.39978701  0.20087989  0.60702044  1
  Rh  Rh235  1  -0.00159388  0.80442582  0.39569630  1
  Rh  Rh236  1  0.80242882  0.59596442  0.40212477  1
  Rh  Rh237  1  0.39399112  0.39184806  0.19545975  1
  Rh  Rh238  1  0.18822358  0.00963767  0.41605067  1
  Rh  Rh239  1  0.20186152  0.58979566  0.79002540  1
  Rh  Rh240  1  0.60051302  0.20024206  0.80057500  1
  Rh  Rh241  1  0.38817952  0.80232118  0.39182396  1
  Rh  Rh242  1  0.20379565  0.59141915  0.59847374  1
  Rh  Rh243  1  0.20134808  -0.00106612  0.19374630  1
  Rh  Rh244  1  -0.00614422  0.20180482  0.00016522  1
  Rh  Rh245  1  -0.00495170  0.41016689  0.40955430  1
  Rh  Rh246  1  0.00019184  0.59941588  0.19508444  1
  Rh  Rh247  1  0.80220702  0.39830782  0.20125177  1
  Rh  Rh248  1  0.40076817  0.39760372  0.79145606  1
  Rh  Rh249  1  0.80094114  0.39106755  0.59319636  1
