# generated using pymatgen
data_ZrScNbPdRh
_symmetry_space_group_name_H-M   'P 1'
_cell_length_a   16.55890545
_cell_length_b   16.56109491
_cell_length_c   16.55649343
_cell_angle_alpha   90.02399566
_cell_angle_beta   90.01671642
_cell_angle_gamma   90.03165656
_symmetry_Int_Tables_number   1
_chemical_formula_structural   ZrScNbPdRh
_chemical_formula_sum   'Zr50 Sc50 Nb50 Pd50 Rh50'
_cell_volume   4540.34559029
_cell_formula_units_Z   50
loop_
 _symmetry_equiv_pos_site_id
 _symmetry_equiv_pos_as_xyz
  1  'x, y, z'
loop_
 _atom_site_type_symbol
 _atom_site_label
 _atom_site_symmetry_multiplicity
 _atom_site_fract_x
 _atom_site_fract_y
 _atom_site_fract_z
 _atom_site_occupancy
  Zr  Zr0  1  0.89435538  0.89061149  0.89744029  1
  Zr  Zr1  1  0.10328022  0.89606091  0.89553849  1
  Zr  Zr2  1  0.70447019  0.69317910  0.50060556  1
  Zr  Zr3  1  0.29921055  0.49466845  0.10806688  1
  Zr  Zr4  1  0.69697460  0.29553049  0.69271078  1
  Zr  Zr5  1  0.49738340  0.70004740  0.29604610  1
  Zr  Zr6  1  0.69680349  0.90463245  0.71933158  1
  Zr  Zr7  1  0.90882620  0.49923739  0.30683387  1
  Zr  Zr8  1  0.49724378  0.91034967  0.50377167  1
  Zr  Zr9  1  0.10409980  0.49701975  0.29263397  1
  Zr  Zr10  1  0.49618248  0.49602286  0.51192092  1
  Zr  Zr11  1  0.90566915  0.30318543  0.89900255  1
  Zr  Zr12  1  0.69760013  0.69615026  0.10120081  1
  Zr  Zr13  1  0.70322623  0.69769618  0.30185001  1
  Zr  Zr14  1  0.49622776  0.90018335  0.69636985  1
  Zr  Zr15  1  0.10115565  0.09745326  0.50358469  1
  Zr  Zr16  1  0.91359902  0.50474657  0.10204097  1
  Zr  Zr17  1  0.90116046  0.69327803  0.50277290  1
  Zr  Zr18  1  0.50153803  0.48915371  0.90060150  1
  Zr  Zr19  1  0.49341311  0.30397518  0.89713261  1
  Zr  Zr20  1  0.29878302  0.90265456  0.90428449  1
  Zr  Zr21  1  0.10225732  0.10307868  0.30981068  1
  Zr  Zr22  1  0.89680183  0.10853732  0.30230318  1
  Zr  Zr23  1  0.10641715  0.30275846  0.88989640  1
  Zr  Zr24  1  0.10319855  0.09754326  0.89285380  1
  Zr  Zr25  1  0.90131470  0.70395309  0.09462265  1
  Zr  Zr26  1  0.29614774  0.29525828  0.70226255  1
  Zr  Zr27  1  0.69953545  0.30140745  0.31575238  1
  Zr  Zr28  1  0.09929460  0.70719623  0.50395787  1
  Zr  Zr29  1  0.50670153  0.90627680  0.30516827  1
  Zr  Zr30  1  0.49708964  0.30428000  0.69736415  1
  Zr  Zr31  1  0.90828178  0.69414618  0.90117637  1
  Zr  Zr32  1  0.10203789  0.90140458  0.09043605  1
  Zr  Zr33  1  0.69009773  0.49307567  0.90255057  1
  Zr  Zr34  1  0.89720613  0.28383309  0.69657062  1
  Zr  Zr35  1  0.89174681  0.90364905  0.09486364  1
  Zr  Zr36  1  0.48599815  0.89921175  0.10704189  1
  Zr  Zr37  1  0.70464951  0.10667893  0.70532834  1
  Zr  Zr38  1  0.89195622  0.10535483  0.10075552  1
  Zr  Zr39  1  0.31047973  0.09775704  0.09728495  1
  Zr  Zr40  1  0.10656628  0.90135846  0.50181007  1
  Zr  Zr41  1  0.70084074  0.90800541  0.09833647  1
  Zr  Zr42  1  0.49767726  0.69640757  0.50808137  1
  Zr  Zr43  1  0.09308462  0.49308936  0.49963959  1
  Zr  Zr44  1  0.70389502  0.49443478  0.49996140  1
  Zr  Zr45  1  0.29001278  0.70188166  0.50476265  1
  Zr  Zr46  1  0.89652489  0.10997320  0.89456890  1
  Zr  Zr47  1  0.69862718  0.09308943  0.09527341  1
  Zr  Zr48  1  0.50408834  0.50349094  0.09883823  1
  Zr  Zr49  1  0.90212333  0.09969728  0.50213238  1
  Sc  Sc50  1  0.30379858  0.10133374  0.89239754  1
  Sc  Sc51  1  0.49781320  0.29597822  0.49795204  1
  Sc  Sc52  1  0.69423695  0.10602197  0.49997867  1
  Sc  Sc53  1  0.49935659  0.10558596  0.90447329  1
  Sc  Sc54  1  0.30196020  0.49285174  0.69263827  1
  Sc  Sc55  1  0.49525235  0.29431635  0.10332819  1
  Sc  Sc56  1  0.90763804  0.69786561  0.69534080  1
  Sc  Sc57  1  0.49947449  0.90362378  0.89060737  1
  Sc  Sc58  1  0.09725963  0.30728074  0.10656606  1
  Sc  Sc59  1  0.10552345  0.50075993  0.10852365  1
  Sc  Sc60  1  0.90981175  0.50168438  0.68980526  1
  Sc  Sc61  1  0.30145896  0.71895439  0.89397750  1
  Sc  Sc62  1  0.70218433  0.70910539  0.89813141  1
  Sc  Sc63  1  0.70105470  0.69483801  0.69728014  1
  Sc  Sc64  1  0.91096697  0.89843272  0.49815409  1
  Sc  Sc65  1  0.88599358  0.90684610  0.30206655  1
  Sc  Sc66  1  0.30644406  0.30354220  0.30234804  1
  Sc  Sc67  1  0.50120026  0.09850625  0.69275489  1
  Sc  Sc68  1  0.50438443  0.10078570  0.10387040  1
  Sc  Sc69  1  0.30477341  0.29272846  0.89636885  1
  Sc  Sc70  1  0.30607206  0.30403425  0.10238572  1
  Sc  Sc71  1  0.09989836  0.90111154  0.30970725  1
  Sc  Sc72  1  0.89612588  0.30338925  0.49939200  1
  Sc  Sc73  1  0.09323685  0.30593838  0.30896126  1
  Sc  Sc74  1  0.30032053  0.70932771  0.69694870  1
  Sc  Sc75  1  0.09191557  0.90729281  0.69879886  1
  Sc  Sc76  1  0.10309271  0.69817204  0.69681459  1
  Sc  Sc77  1  0.69679741  0.90768983  0.48396994  1
  Sc  Sc78  1  0.29933417  0.09678400  0.49844095  1
  Sc  Sc79  1  0.31270685  0.90404591  0.29487148  1
  Sc  Sc80  1  0.30506785  0.90087626  0.70451682  1
  Sc  Sc81  1  0.10459336  0.69627445  0.30008981  1
  Sc  Sc82  1  0.70215632  0.28633526  0.10778008  1
  Sc  Sc83  1  0.31312686  0.71167535  0.09989088  1
  Sc  Sc84  1  0.90197060  0.29240097  0.10319288  1
  Sc  Sc85  1  0.09524264  0.69052171  0.09727382  1
  Sc  Sc86  1  0.69418602  0.49560204  0.68680915  1
  Sc  Sc87  1  0.49046123  0.29596930  0.30569576  1
  Sc  Sc88  1  0.09377945  0.49303888  0.89974420  1
  Sc  Sc89  1  0.89668962  0.69618747  0.30210080  1
  Sc  Sc90  1  0.69270281  0.50683228  0.10255333  1
  Sc  Sc91  1  0.29732555  0.68971074  0.30040560  1
  Sc  Sc92  1  0.30292916  0.47608591  0.89828657  1
  Sc  Sc93  1  0.68987388  0.29194542  0.89221316  1
  Sc  Sc94  1  0.69866500  0.09496084  0.30092135  1
  Sc  Sc95  1  0.48475485  0.49816298  0.30160602  1
  Sc  Sc96  1  0.29810023  0.50121512  0.49556472  1
  Sc  Sc97  1  0.09743377  0.70315786  0.89874767  1
  Sc  Sc98  1  0.49263567  0.10107317  0.30177597  1
  Sc  Sc99  1  0.10414119  0.49195518  0.69446649  1
  Nb  Nb100  1  0.09620958  0.10731641  0.69353608  1
  Nb  Nb101  1  0.89887312  0.49726788  0.89899334  1
  Nb  Nb102  1  0.10094370  0.30205912  0.50902835  1
  Nb  Nb103  1  0.50448898  0.70071020  0.09590752  1
  Nb  Nb104  1  0.69583913  0.90191632  0.29646937  1
  Nb  Nb105  1  0.89742566  0.90200225  0.69637723  1
  Nb  Nb106  1  0.90446306  0.09682027  0.69433079  1
  Nb  Nb107  1  0.49806508  0.09560819  0.50131507  1
  Nb  Nb108  1  0.09853541  0.10048519  0.10114331  1
  Nb  Nb109  1  0.69768906  0.90740048  0.90681919  1
  Nb  Nb110  1  0.30631338  0.89519520  0.50746111  1
  Nb  Nb111  1  0.29760506  0.10636881  0.29744524  1
  Nb  Nb112  1  0.49968250  0.50253583  0.70055402  1
  Nb  Nb113  1  0.69809260  0.50238593  0.30067268  1
  Nb  Nb114  1  0.50035282  0.69944742  0.70242737  1
  Nb  Nb115  1  0.29400895  0.49676985  0.29347123  1
  Nb  Nb116  1  0.89536288  0.30170909  0.29634421  1
  Nb  Nb117  1  0.69547018  0.30331099  0.50686362  1
  Nb  Nb118  1  0.49868751  0.69947414  0.90215926  1
  Nb  Nb119  1  0.30623311  0.30187268  0.49857555  1
  Nb  Nb120  1  0.90325091  0.50582251  0.50273744  1
  Nb  Nb121  1  0.10178524  0.29560454  0.69078848  1
  Nb  Nb122  1  0.29429511  0.10628754  0.70081131  1
  Nb  Nb123  1  0.69449843  0.08731023  0.90132003  1
  Nb  Nb124  1  0.30042854  0.90040611  0.10008523  1
  Nb  Nb125  1  0.80104740  0.40271652  0.00151058  1
  Nb  Nb126  1  0.60399738  0.40157552  0.20964298  1
  Nb  Nb127  1  0.21246545  0.59734462  -0.00747277  1
  Nb  Nb128  1  0.60071626  0.80108914  0.19845922  1
  Nb  Nb129  1  0.59895344  0.59423031  0.40064065  1
  Nb  Nb130  1  0.00286155  0.00222372  0.19598003  1
  Nb  Nb131  1  0.20033125  0.00245576  0.19743049  1
  Nb  Nb132  1  0.39912533  0.80102568  0.40846920  1
  Nb  Nb133  1  0.60331622  0.80257742  0.60122919  1
  Nb  Nb134  1  0.40016284  0.60023830  -0.00789151  1
  Nb  Nb135  1  0.00137249  0.80831154  0.19778747  1
  Nb  Nb136  1  0.79894749  0.58974568  0.80353355  1
  Nb  Nb137  1  0.19743909  0.19687994  0.00624097  1
  Nb  Nb138  1  0.20920530  0.59628904  0.80540599  1
  Nb  Nb139  1  0.80359471  -0.00198257  0.60544942  1
  Nb  Nb140  1  0.80206144  0.59348521  -0.00616202  1
  Nb  Nb141  1  0.40198801  0.60012307  0.80229431  1
  Nb  Nb142  1  0.79662040  0.81001305  0.60202576  1
  Nb  Nb143  1  0.79840840  0.40249443  0.20334301  1
  Nb  Nb144  1  0.20034359  0.19465721  0.20054276  1
  Nb  Nb145  1  -0.00156128  0.00520127  -0.00167935  1
  Nb  Nb146  1  0.59429820  0.59880473  0.79888861  1
  Nb  Nb147  1  0.59609954  0.80298938  0.00274602  1
  Nb  Nb148  1  0.80215746  0.40219121  0.80088187  1
  Nb  Nb149  1  0.19996296  0.80837942  0.19523035  1
  Pd  Pd150  1  0.39978257  0.19641334  0.59691234  1
  Pd  Pd151  1  0.59440752  0.79282114  0.40255560  1
  Pd  Pd152  1  0.21214764  -0.00867230  0.39564504  1
  Pd  Pd153  1  -0.00102011  0.20996501  0.40848087  1
  Pd  Pd154  1  0.20154917  0.00003256  0.78875153  1
  Pd  Pd155  1  0.00635056  0.20045790  0.20467738  1
  Pd  Pd156  1  0.80680351  0.40441013  0.40006347  1
  Pd  Pd157  1  0.79911216  0.80220342  0.20155335  1
  Pd  Pd158  1  0.19958621  0.78764590  0.00542181  1
  Pd  Pd159  1  0.80435411  0.80498786  0.40658437  1
  Pd  Pd160  1  0.20381082  0.39593732  0.39869798  1
  Pd  Pd161  1  0.79740603  0.19918268  0.40687356  1
  Pd  Pd162  1  0.00988035  0.20029399  -0.00113351  1
  Pd  Pd163  1  0.39347882  0.00058461  0.40074453  1
  Pd  Pd164  1  0.20417236  0.19938681  0.59209410  1
  Pd  Pd165  1  0.59841912  0.20234705  -0.00058145  1
  Pd  Pd166  1  0.39643966  0.60202771  0.19147016  1
  Pd  Pd167  1  0.19326461  0.59386778  0.40386197  1
  Pd  Pd168  1  0.80632013  0.59310229  0.19576797  1
  Pd  Pd169  1  0.59687387  0.79551352  0.80193193  1
  Pd  Pd170  1  0.80409400  0.78740425  0.79299738  1
  Pd  Pd171  1  -0.00356900  0.39933557  0.78623145  1
  Pd  Pd172  1  0.58813052  0.40570385  0.39911275  1
  Pd  Pd173  1  0.59146433  0.19382161  0.79877029  1
  Pd  Pd174  1  0.20551026  -0.00188391  0.60807484  1
  Pd  Pd175  1  0.00957305  0.60360912  0.39845458  1
  Pd  Pd176  1  0.60003583  0.20358803  0.21046836  1
  Pd  Pd177  1  0.20607596  0.40014403  0.59596358  1
  Pd  Pd178  1  0.59273741  0.19530764  0.40181750  1
  Pd  Pd179  1  0.20064607  0.00852116  0.00065624  1
  Pd  Pd180  1  0.00263533  0.79778151  0.79095639  1
  Pd  Pd181  1  0.20531997  0.21048588  0.40118644  1
  Pd  Pd182  1  0.61303490  -0.00351398  0.60080656  1
  Pd  Pd183  1  0.60683371  0.38400414  0.01710957  1
  Pd  Pd184  1  0.00735253  0.20208082  0.79495659  1
  Pd  Pd185  1  0.80689054  0.00489663  0.80120481  1
  Pd  Pd186  1  0.79059366  0.20725083  -0.00850455  1
  Pd  Pd187  1  0.38863102  0.60165245  0.60779963  1
  Pd  Pd188  1  0.00111423  0.39844064  0.00604267  1
  Pd  Pd189  1  0.00802184  0.59338261  0.79628510  1
  Pd  Pd190  1  0.19802369  0.39621619  0.00291915  1
  Pd  Pd191  1  0.40712327  0.00029638  -0.00538755  1
  Pd  Pd192  1  0.80910123  0.40046875  0.60570027  1
  Pd  Pd193  1  0.40040398  0.60104704  0.40345080  1
  Pd  Pd194  1  -0.00507439  0.79858273  0.39085084  1
  Pd  Pd195  1  -0.00604930  -0.00035439  0.80396441  1
  Pd  Pd196  1  0.19630206  0.81012330  0.61246544  1
  Pd  Pd197  1  0.40316627  0.00848293  0.79548907  1
  Pd  Pd198  1  -0.00356650  -0.00323346  0.39513296  1
  Pd  Pd199  1  0.21260857  0.80760591  0.38866239  1
  Rh  Rh200  1  0.59906575  0.01043900  0.39845194  1
  Rh  Rh201  1  0.40293282  0.39937612  0.00656484  1
  Rh  Rh202  1  0.40320128  0.19636339  0.79350822  1
  Rh  Rh203  1  0.60126884  0.60358289  0.59979874  1
  Rh  Rh204  1  0.79919018  0.00401582  0.40541485  1
  Rh  Rh205  1  0.00727185  0.59357150  -0.00444017  1
  Rh  Rh206  1  0.59303594  0.00734776  0.80337867  1
  Rh  Rh207  1  0.79350307  0.20279265  0.20863908  1
  Rh  Rh208  1  0.39970451  0.79775157  0.20965731  1
  Rh  Rh209  1  -0.00098276  0.00015216  0.59859811  1
  Rh  Rh210  1  0.19451663  0.79887023  0.79521120  1
  Rh  Rh211  1  0.39417522  0.40355394  0.40349268  1
  Rh  Rh212  1  0.80787309  0.00483119  -0.01295771  1
  Rh  Rh213  1  0.20016852  0.38736745  0.20898976  1
  Rh  Rh214  1  0.39582351  0.20282389  -0.00029504  1
  Rh  Rh215  1  0.59810179  -0.00140615  0.20108439  1
  Rh  Rh216  1  0.39781070  0.39980890  0.79075414  1
  Rh  Rh217  1  0.79691301  0.19288631  0.59245710  1
  Rh  Rh218  1  0.40720262  0.39976974  0.20079468  1
  Rh  Rh219  1  0.19974028  0.39970421  0.79371941  1
  Rh  Rh220  1  0.59070830  -0.00578593  -0.00084951  1
  Rh  Rh221  1  -0.00251517  0.80142056  0.60078859  1
  Rh  Rh222  1  0.40564902  0.79952638  0.59820627  1
  Rh  Rh223  1  -0.00442072  0.39090309  0.59928699  1
  Rh  Rh224  1  0.19944656  0.59665678  0.60533967  1
  Rh  Rh225  1  -0.00498253  0.39610767  0.40594479  1
  Rh  Rh226  1  0.40717951  0.80360637  -0.00724872  1
  Rh  Rh227  1  0.38970357  0.01030804  0.60560972  1
  Rh  Rh228  1  0.59327553  0.59823383  0.21251552  1
  Rh  Rh229  1  0.39521947  0.19888239  0.20172068  1
  Rh  Rh230  1  0.59436422  0.39461357  0.59866384  1
  Rh  Rh231  1  0.79843738  0.59119351  0.40235823  1
  Rh  Rh232  1  0.80109953  0.00805386  0.20571659  1
  Rh  Rh233  1  0.79538551  0.20345509  0.80495089  1
  Rh  Rh234  1  0.80497103  0.60180807  0.60656711  1
  Rh  Rh235  1  0.59461620  0.20091005  0.59428242  1
  Rh  Rh236  1  0.39819696  0.00715836  0.20285997  1
  Rh  Rh237  1  0.60553101  0.40219766  0.78642028  1
  Rh  Rh238  1  0.19761339  0.19829086  0.80010718  1
  Rh  Rh239  1  0.01058597  0.59977805  0.59737565  1
  Rh  Rh240  1  0.40324117  0.79968331  0.79943456  1
  Rh  Rh241  1  0.79107011  0.79423041  -0.00197388  1
  Rh  Rh242  1  -0.00041266  0.80609203  0.00253672  1
  Rh  Rh243  1  0.60222398  0.61088806  -0.01189004  1
  Rh  Rh244  1  0.39650004  0.39578063  0.59911948  1
  Rh  Rh245  1  0.20820158  0.61139313  0.18723579  1
  Rh  Rh246  1  -0.00703711  0.39488189  0.20105056  1
  Rh  Rh247  1  0.00308945  0.20196834  0.59389696  1
  Rh  Rh248  1  0.00067920  0.61059518  0.20769350  1
  Rh  Rh249  1  0.39726566  0.19518862  0.40764956  1
