# generated using pymatgen
data_ZrScNbPdRh
_symmetry_space_group_name_H-M   'P 1'
_cell_length_a   16.55942691
_cell_length_b   16.56447704
_cell_length_c   16.56431071
_cell_angle_alpha   89.99734062
_cell_angle_beta   89.98438759
_cell_angle_gamma   90.03083850
_symmetry_Int_Tables_number   1
_chemical_formula_structural   ZrScNbPdRh
_chemical_formula_sum   'Zr50 Sc50 Nb50 Pd50 Rh50'
_cell_volume   4543.56055857
_cell_formula_units_Z   50
loop_
 _symmetry_equiv_pos_site_id
 _symmetry_equiv_pos_as_xyz
  1  'x, y, z'
loop_
 _atom_site_type_symbol
 _atom_site_label
 _atom_site_symmetry_multiplicity
 _atom_site_fract_x
 _atom_site_fract_y
 _atom_site_fract_z
 _atom_site_occupancy
  Zr  Zr0  1  0.09826599  0.10143596  0.09659720  1
  Zr  Zr1  1  0.10183642  0.29496841  0.29841646  1
  Zr  Zr2  1  0.29628617  0.70242624  0.70765714  1
  Zr  Zr3  1  0.30147134  0.50043215  0.09636627  1
  Zr  Zr4  1  0.29522050  0.49367277  0.89651548  1
  Zr  Zr5  1  0.90398866  0.89311910  0.90385927  1
  Zr  Zr6  1  0.29904726  0.09672906  0.70176452  1
  Zr  Zr7  1  0.69427678  0.29755400  0.10290251  1
  Zr  Zr8  1  0.10194128  0.69716504  0.30149704  1
  Zr  Zr9  1  0.49572455  0.89484522  0.69816566  1
  Zr  Zr10  1  0.70485222  0.68747098  0.70324071  1
  Zr  Zr11  1  0.69513999  0.49814354  0.69704675  1
  Zr  Zr12  1  0.69393474  0.09412316  0.90251839  1
  Zr  Zr13  1  0.30252046  0.49803868  0.50122756  1
  Zr  Zr14  1  0.09420545  0.10855020  0.49531448  1
  Zr  Zr15  1  0.50163943  0.90705437  0.29529521  1
  Zr  Zr16  1  0.69533841  0.30113256  0.49948262  1
  Zr  Zr17  1  0.10762219  0.49264974  0.71069071  1
  Zr  Zr18  1  0.70300514  0.70292144  0.90229602  1
  Zr  Zr19  1  0.09973905  0.49263492  0.49831270  1
  Zr  Zr20  1  0.10186979  0.29841228  0.10868862  1
  Zr  Zr21  1  0.49306544  0.50701683  0.09961499  1
  Zr  Zr22  1  0.29898951  0.90069380  0.49498179  1
  Zr  Zr23  1  0.49607369  0.70505282  0.90832041  1
  Zr  Zr24  1  0.70265146  0.89371735  0.90336112  1
  Zr  Zr25  1  0.30333160  0.49656670  0.69982812  1
  Zr  Zr26  1  0.50807891  0.10589767  0.10149382  1
  Zr  Zr27  1  0.90820336  0.10510549  0.89188520  1
  Zr  Zr28  1  0.49699479  0.69903591  0.69733888  1
  Zr  Zr29  1  0.09836683  0.90320892  0.70822784  1
  Zr  Zr30  1  0.10127592  0.90306175  0.89847210  1
  Zr  Zr31  1  0.70744865  0.50489165  0.30460921  1
  Zr  Zr32  1  0.89843936  0.70281270  0.70381020  1
  Zr  Zr33  1  0.30133856  0.09673233  0.49781568  1
  Zr  Zr34  1  0.49957850  0.90102232  0.50283040  1
  Zr  Zr35  1  0.50160518  0.70138903  0.49403091  1
  Zr  Zr36  1  0.49336588  0.10427633  0.49860035  1
  Zr  Zr37  1  0.50360675  0.90055821  0.89470434  1
  Zr  Zr38  1  0.10323709  0.09275548  0.89881476  1
  Zr  Zr39  1  0.69653878  0.90224080  0.70421726  1
  Zr  Zr40  1  0.89989127  0.50261120  0.49399989  1
  Zr  Zr41  1  0.69480855  0.70447713  0.10159742  1
  Zr  Zr42  1  0.50035623  0.09202729  0.69961751  1
  Zr  Zr43  1  0.09752468  0.29502563  0.89924182  1
  Zr  Zr44  1  0.70752186  0.50131799  0.89548174  1
  Zr  Zr45  1  0.90032504  0.90546732  0.50342170  1
  Zr  Zr46  1  0.89255496  0.49669417  0.70600080  1
  Zr  Zr47  1  0.69906640  0.50158413  0.50285309  1
  Zr  Zr48  1  0.09896876  0.90854541  0.09027255  1
  Zr  Zr49  1  0.29567282  0.69905356  0.30513506  1
  Sc  Sc50  1  0.70094350  0.29683197  0.69651890  1
  Sc  Sc51  1  0.09458362  0.09637432  0.70277333  1
  Sc  Sc52  1  0.09722505  0.30183109  0.69683688  1
  Sc  Sc53  1  0.29823764  0.29532505  0.50438617  1
  Sc  Sc54  1  0.70718519  0.90630068  0.10344931  1
  Sc  Sc55  1  0.50056124  0.90221915  0.10047251  1
  Sc  Sc56  1  0.09580854  0.69341354  0.09208246  1
  Sc  Sc57  1  0.89685462  0.70109822  0.50026668  1
  Sc  Sc58  1  0.48823959  0.50168724  0.90612837  1
  Sc  Sc59  1  0.90829003  0.50212315  0.30206166  1
  Sc  Sc60  1  0.49631229  0.10193846  0.90926082  1
  Sc  Sc61  1  0.48946553  0.10247929  0.29824827  1
  Sc  Sc62  1  0.89956456  0.70267579  0.90495022  1
  Sc  Sc63  1  0.90241050  0.89852024  0.69486557  1
  Sc  Sc64  1  0.29184247  0.89573376  0.70043978  1
  Sc  Sc65  1  0.70260200  0.10132389  0.69620175  1
  Sc  Sc66  1  0.91931403  0.09306742  0.30435364  1
  Sc  Sc67  1  0.09903601  0.50048420  0.10400861  1
  Sc  Sc68  1  0.10363438  0.50090721  0.90706266  1
  Sc  Sc69  1  0.10104981  0.49993924  0.29932650  1
  Sc  Sc70  1  0.48959796  0.30758833  0.69296215  1
  Sc  Sc71  1  0.10009390  0.90293877  0.50717072  1
  Sc  Sc72  1  0.69229086  0.09522311  0.28967351  1
  Sc  Sc73  1  0.89953978  0.90703270  0.29584810  1
  Sc  Sc74  1  0.30016751  0.30833972  0.70287284  1
  Sc  Sc75  1  0.09550630  0.70175051  0.90125589  1
  Sc  Sc76  1  0.30269965  0.09742477  0.10166644  1
  Sc  Sc77  1  0.70060233  0.69527458  0.49294162  1
  Sc  Sc78  1  0.29474506  0.70757004  0.90611478  1
  Sc  Sc79  1  0.49769146  0.50065414  0.69309191  1
  Sc  Sc80  1  0.69320936  0.70051921  0.29928013  1
  Sc  Sc81  1  0.90701888  0.09991770  0.50506450  1
  Sc  Sc82  1  0.90171485  0.10298654  0.69435881  1
  Sc  Sc83  1  0.89495124  0.69528314  0.30147454  1
  Sc  Sc84  1  0.30649824  0.10432636  0.91039361  1
  Sc  Sc85  1  0.71018008  0.30072873  0.89956495  1
  Sc  Sc86  1  0.70071838  0.50635841  0.09818650  1
  Sc  Sc87  1  0.10520936  0.69872788  0.49151354  1
  Sc  Sc88  1  0.29430742  0.50165478  0.29563090  1
  Sc  Sc89  1  0.69871440  0.10841713  0.50856946  1
  Sc  Sc90  1  0.70080969  0.89140306  0.50258313  1
  Sc  Sc91  1  0.10416770  0.29762229  0.50007574  1
  Sc  Sc92  1  0.69603045  0.89151798  0.29345346  1
  Sc  Sc93  1  0.49769559  0.50440991  0.51030094  1
  Sc  Sc94  1  0.29797829  0.69543668  0.49634035  1
  Sc  Sc95  1  0.91380859  0.29683580  0.49689257  1
  Sc  Sc96  1  0.90095840  0.69773968  0.09487834  1
  Sc  Sc97  1  0.49777665  0.50947296  0.28648304  1
  Sc  Sc98  1  0.10220265  0.70956831  0.71079560  1
  Sc  Sc99  1  0.69587433  0.30310264  0.29809858  1
  Nb  Nb100  1  0.30013813  0.90802916  0.29598769  1
  Nb  Nb101  1  0.90210759  0.29932162  0.29391879  1
  Nb  Nb102  1  0.48948264  0.29973505  0.90246498  1
  Nb  Nb103  1  0.90414409  0.29674749  0.10299395  1
  Nb  Nb104  1  0.49562302  0.30411360  0.29289698  1
  Nb  Nb105  1  0.30062257  0.89624991  0.09659433  1
  Nb  Nb106  1  0.90011558  0.30342134  0.89291734  1
  Nb  Nb107  1  0.10141371  0.90461039  0.29797183  1
  Nb  Nb108  1  0.90255190  0.30101803  0.71390274  1
  Nb  Nb109  1  0.30322668  0.29914134  0.28491560  1
  Nb  Nb110  1  0.90018171  0.09415748  0.10037313  1
  Nb  Nb111  1  0.30377387  0.30462033  0.10205606  1
  Nb  Nb112  1  0.90400447  0.49508258  0.09548918  1
  Nb  Nb113  1  0.10667687  0.09220459  0.30106054  1
  Nb  Nb114  1  0.89781318  0.48934617  0.89920380  1
  Nb  Nb115  1  0.30219374  0.90078628  0.90618657  1
  Nb  Nb116  1  0.70576859  0.10368343  0.09743651  1
  Nb  Nb117  1  0.50083397  0.29898216  0.48964764  1
  Nb  Nb118  1  0.90544101  0.90463976  0.09960720  1
  Nb  Nb119  1  0.30714147  0.70422870  0.09978138  1
  Nb  Nb120  1  0.29899319  0.08699039  0.30391380  1
  Nb  Nb121  1  0.50071999  0.70652371  0.29139810  1
  Nb  Nb122  1  0.49355431  0.69471482  0.10630154  1
  Nb  Nb123  1  0.49525768  0.30599772  0.10653370  1
  Nb  Nb124  1  0.30810726  0.30284216  0.90245620  1
  Nb  Nb125  1  0.00421195  0.80614484  0.39219342  1
  Nb  Nb126  1  0.80973841  0.39637181  0.19630872  1
  Nb  Nb127  1  0.80454161  0.19785564  0.39049493  1
  Nb  Nb128  1  0.59389617  0.39497271  0.80799128  1
  Nb  Nb129  1  0.59191869  0.20635609  0.80422958  1
  Nb  Nb130  1  0.80696034  0.19772316  0.19860643  1
  Nb  Nb131  1  0.58973220  0.39900554  0.39707276  1
  Nb  Nb132  1  -0.00903273  0.39382019  0.00155296  1
  Nb  Nb133  1  0.39508707  0.60381070  0.80126847  1
  Nb  Nb134  1  0.19520478  0.59583282  0.60511122  1
  Nb  Nb135  1  0.39432032  0.80068591  0.19974080  1
  Nb  Nb136  1  0.20481960  0.20070824  0.80520390  1
  Nb  Nb137  1  0.39913555  -0.00552857  0.80271767  1
  Nb  Nb138  1  0.60087875  0.00140861  0.40296138  1
  Nb  Nb139  1  0.80534487  0.39699546  0.59933988  1
  Nb  Nb140  1  0.80691867  0.19789528  0.00616096  1
  Nb  Nb141  1  0.00597496  0.80576062  0.20056535  1
  Nb  Nb142  1  0.20152381  0.80642235  0.19758604  1
  Nb  Nb143  1  0.40550581  0.39316429  0.39252581  1
  Nb  Nb144  1  -0.00403968  0.59290257  0.80016955  1
  Nb  Nb145  1  0.00459268  0.59684122  0.60719030  1
  Nb  Nb146  1  0.79931272  -0.00229785  0.80271909  1
  Nb  Nb147  1  0.59332247  0.39452812  -0.00121004  1
  Nb  Nb148  1  0.79416400  0.00586747  0.40164501  1
  Nb  Nb149  1  0.40004539  0.80283695  0.38971694  1
  Pd  Pd150  1  -0.00359311  0.60492422  0.19825360  1
  Pd  Pd151  1  0.79191834  0.19307992  0.80348821  1
  Pd  Pd152  1  0.40281952  -0.00188826  0.00140300  1
  Pd  Pd153  1  0.60583545  0.41129466  0.19947648  1
  Pd  Pd154  1  0.19347284  0.79779323  0.00244956  1
  Pd  Pd155  1  0.00731557  0.79016956  0.59194827  1
  Pd  Pd156  1  0.60217635  0.20876588  -0.00694356  1
  Pd  Pd157  1  0.39927802  0.19453306  0.79839451  1
  Pd  Pd158  1  0.39954135  0.20360211  0.60256399  1
  Pd  Pd159  1  0.00280124  0.39500108  0.39307922  1
  Pd  Pd160  1  0.60267894  0.79195494  0.79696287  1
  Pd  Pd161  1  0.20063081  0.60533695  0.19239862  1
  Pd  Pd162  1  0.00100204  0.19079029  0.20504365  1
  Pd  Pd163  1  0.60853260  0.79123919  0.60211189  1
  Pd  Pd164  1  0.80657161  0.80690716  0.39426081  1
  Pd  Pd165  1  0.81212547  0.20890622  0.59217673  1
  Pd  Pd166  1  0.20860960  0.20423394  -0.00089681  1
  Pd  Pd167  1  0.20064613  0.00087284  0.19229407  1
  Pd  Pd168  1  0.20309204  0.60343810  0.00035108  1
  Pd  Pd169  1  -0.00421959  0.20215972  -0.00029744  1
  Pd  Pd170  1  0.60093013  -0.00579947  0.00778627  1
  Pd  Pd171  1  0.60085449  0.19916242  0.20626395  1
  Pd  Pd172  1  0.58641322  0.59211304  0.80467678  1
  Pd  Pd173  1  0.19179816  -0.00197057  0.40735200  1
  Pd  Pd174  1  0.39447558  0.19270979  0.19724715  1
  Pd  Pd175  1  -0.00586197  0.40000418  0.60358968  1
  Pd  Pd176  1  0.80382856  0.59511289  0.19714643  1
  Pd  Pd177  1  0.80690798  0.00280493  -0.00598336  1
  Pd  Pd178  1  0.59913329  0.59399921  -0.00171205  1
  Pd  Pd179  1  0.19354876  0.39463700  0.00506250  1
  Pd  Pd180  1  0.58979026  0.20620966  0.60965172  1
  Pd  Pd181  1  0.60653791  0.00031834  0.59236890  1
  Pd  Pd182  1  0.19670511  0.19910576  0.61079789  1
  Pd  Pd183  1  0.19562666  0.79225030  0.59621882  1
  Pd  Pd184  1  0.40588988  0.59719567  0.39352871  1
  Pd  Pd185  1  0.20855358  0.20221883  0.39226130  1
  Pd  Pd186  1  0.79440909  0.79723519  0.60248644  1
  Pd  Pd187  1  0.59145636  0.59198698  0.39645123  1
  Pd  Pd188  1  0.80230635  0.00606192  0.20799569  1
  Pd  Pd189  1  0.80433251  0.60232136  -0.00108714  1
  Pd  Pd190  1  0.38861895  0.20550078  0.39309339  1
  Pd  Pd191  1  0.79880984  0.39074315  0.39832577  1
  Pd  Pd192  1  0.20917667  0.39426868  0.39376022  1
  Pd  Pd193  1  0.59716574  0.80504304  0.00874991  1
  Pd  Pd194  1  0.39151479  0.79550467  0.59103138  1
  Pd  Pd195  1  0.19520174  0.00433454  0.59766511  1
  Pd  Pd196  1  0.81030802  0.79960616  0.19712289  1
  Pd  Pd197  1  0.20684376  0.19055358  0.20367297  1
  Pd  Pd198  1  0.60559537  0.19705122  0.38977371  1
  Pd  Pd199  1  0.79862651  0.39283565  0.00784785  1
  Rh  Rh200  1  0.00008871  0.40463642  0.19748869  1
  Rh  Rh201  1  0.21345254  0.00572547  0.81021622  1
  Rh  Rh202  1  0.60569325  0.60188316  0.19919111  1
  Rh  Rh203  1  0.40685217  -0.00384716  0.40037690  1
  Rh  Rh204  1  0.00665455  0.40357774  0.80946748  1
  Rh  Rh205  1  0.39508259  0.80203022  0.80675257  1
  Rh  Rh206  1  0.39111448  0.60507895  0.20245890  1
  Rh  Rh207  1  -0.00566461  0.58722258  -0.00932076  1
  Rh  Rh208  1  0.39958724  0.20743452  0.01347684  1
  Rh  Rh209  1  -0.00601185  0.00427759  -0.00288355  1
  Rh  Rh210  1  0.20779801  0.00249776  -0.00012439  1
  Rh  Rh211  1  0.00860604  0.20181663  0.79402840  1
  Rh  Rh212  1  -0.00173738  0.79634058  0.80349169  1
  Rh  Rh213  1  0.39062125  0.60505765  -0.00649146  1
  Rh  Rh214  1  0.20189492  0.40197929  0.59750008  1
  Rh  Rh215  1  0.19817563  0.60512428  0.79990987  1
  Rh  Rh216  1  0.79802652  -0.00108013  0.60106905  1
  Rh  Rh217  1  -0.00049954  0.60828751  0.40664415  1
  Rh  Rh218  1  0.80935741  0.60418598  0.81104706  1
  Rh  Rh219  1  0.20015474  0.81078774  0.39359122  1
  Rh  Rh220  1  0.40444483  0.80210409  0.00597799  1
  Rh  Rh221  1  0.59480493  0.79924004  0.19252954  1
  Rh  Rh222  1  0.60044625  0.60722928  0.59687977  1
  Rh  Rh223  1  0.40101511  0.39341325  0.58601493  1
  Rh  Rh224  1  0.40615818  0.40965643  0.80036364  1
  Rh  Rh225  1  0.39972849  0.00055532  0.19291336  1
  Rh  Rh226  1  0.38971787  0.60783281  0.60757291  1
  Rh  Rh227  1  -0.01221898  -0.00506123  0.79547996  1
  Rh  Rh228  1  0.80228219  0.80020132  0.01170974  1
  Rh  Rh229  1  0.80009663  0.80553452  0.79705790  1
  Rh  Rh230  1  0.00179742  -0.00652781  0.40489449  1
  Rh  Rh231  1  0.59886307  0.00384658  0.19828037  1
  Rh  Rh232  1  0.59860717  0.00759632  0.79978515  1
  Rh  Rh233  1  0.80547036  0.59485311  0.59355714  1
  Rh  Rh234  1  0.59285094  0.80769038  0.39690850  1
  Rh  Rh235  1  0.60105776  0.39587618  0.59762893  1
  Rh  Rh236  1  0.80100563  0.60458281  0.39907877  1
  Rh  Rh237  1  0.00151935  0.20115298  0.39294658  1
  Rh  Rh238  1  0.40190767  0.39579691  0.00639359  1
  Rh  Rh239  1  0.39238124  -0.00374632  0.60746811  1
  Rh  Rh240  1  0.20038727  0.80658023  0.81065437  1
  Rh  Rh241  1  0.00070594  0.20414497  0.60627697  1
  Rh  Rh242  1  0.00544762  -0.00012166  0.19638774  1
  Rh  Rh243  1  0.00443871  0.00360252  0.60170665  1
  Rh  Rh244  1  0.00104640  0.80084205  0.00758624  1
  Rh  Rh245  1  0.78878541  0.39408191  0.79098048  1
  Rh  Rh246  1  0.19966568  0.38611926  0.80703615  1
  Rh  Rh247  1  0.39352447  0.40693584  0.20225752  1
  Rh  Rh248  1  0.20015640  0.40140930  0.19849622  1
  Rh  Rh249  1  0.19723455  0.58763612  0.40808427  1
