# generated using pymatgen
data_ZrScNbPdRh
_symmetry_space_group_name_H-M   'P 1'
_cell_length_a   16.56382720
_cell_length_b   16.55755740
_cell_length_c   16.55947544
_cell_angle_alpha   90.01840315
_cell_angle_beta   90.04019116
_cell_angle_gamma   89.97518463
_symmetry_Int_Tables_number   1
_chemical_formula_structural   ZrScNbPdRh
_chemical_formula_sum   'Zr50 Sc50 Nb50 Pd50 Rh50'
_cell_volume   4541.54232312
_cell_formula_units_Z   50
loop_
 _symmetry_equiv_pos_site_id
 _symmetry_equiv_pos_as_xyz
  1  'x, y, z'
loop_
 _atom_site_type_symbol
 _atom_site_label
 _atom_site_symmetry_multiplicity
 _atom_site_fract_x
 _atom_site_fract_y
 _atom_site_fract_z
 _atom_site_occupancy
  Zr  Zr0  1  0.90282364  0.10601603  0.49387468  1
  Zr  Zr1  1  0.89874603  0.29236426  0.30115934  1
  Zr  Zr2  1  0.89365745  0.70509906  0.89917395  1
  Zr  Zr3  1  0.90327204  0.09787990  0.09884418  1
  Zr  Zr4  1  0.89678878  0.69909398  0.49996582  1
  Zr  Zr5  1  0.10191421  0.89759307  0.49171157  1
  Zr  Zr6  1  0.10775592  0.90093264  0.69538987  1
  Zr  Zr7  1  0.89236103  0.90046577  0.89971602  1
  Zr  Zr8  1  0.50696155  0.90108111  0.69221712  1
  Zr  Zr9  1  0.89789105  0.49794731  0.90417474  1
  Zr  Zr10  1  0.29974086  0.51530315  0.09436499  1
  Zr  Zr11  1  0.10478812  0.70483144  0.70623438  1
  Zr  Zr12  1  0.69654466  0.51105243  0.89008519  1
  Zr  Zr13  1  0.10005970  0.50899467  0.29203666  1
  Zr  Zr14  1  0.70481335  0.50352156  0.50553191  1
  Zr  Zr15  1  0.68910044  0.49637674  0.29615342  1
  Zr  Zr16  1  0.09418968  0.08655576  0.29904509  1
  Zr  Zr17  1  0.28745030  0.10058385  0.29666695  1
  Zr  Zr18  1  0.29548558  0.09767886  0.69453199  1
  Zr  Zr19  1  0.49931131  0.49512743  0.90293856  1
  Zr  Zr20  1  0.10393656  0.09704524  0.10950132  1
  Zr  Zr21  1  0.69945064  0.29166330  0.30411603  1
  Zr  Zr22  1  0.89253030  0.88869626  0.50042789  1
  Zr  Zr23  1  0.50558551  0.89479434  0.89735657  1
  Zr  Zr24  1  0.89429530  0.10103065  0.29516442  1
  Zr  Zr25  1  0.29154884  0.49622287  0.69428199  1
  Zr  Zr26  1  0.10855764  0.69429894  0.10776715  1
  Zr  Zr27  1  0.30438826  0.69858496  0.28695706  1
  Zr  Zr28  1  0.29912068  0.90420679  0.50308503  1
  Zr  Zr29  1  0.50160868  0.89621586  0.09521039  1
  Zr  Zr30  1  0.29950633  0.30448597  0.50079359  1
  Zr  Zr31  1  0.10917069  0.28662526  0.29580469  1
  Zr  Zr32  1  0.50199867  0.09387652  0.31793707  1
  Zr  Zr33  1  0.50396412  0.29626928  0.08591630  1
  Zr  Zr34  1  0.70147274  0.89820769  0.70228629  1
  Zr  Zr35  1  0.70075684  0.30663169  0.50156576  1
  Zr  Zr36  1  0.89262841  0.71022669  0.69498861  1
  Zr  Zr37  1  0.29524590  0.08923355  0.09038610  1
  Zr  Zr38  1  0.49071117  0.29334209  0.49767989  1
  Zr  Zr39  1  0.10509149  0.30535697  0.69842379  1
  Zr  Zr40  1  0.29838712  0.90348463  0.91334056  1
  Zr  Zr41  1  0.68731817  0.10387701  0.49127724  1
  Zr  Zr42  1  0.30666881  0.10502163  0.49481154  1
  Zr  Zr43  1  0.29258656  0.69500457  0.90832791  1
  Zr  Zr44  1  0.49149010  0.29919957  0.89545352  1
  Zr  Zr45  1  0.49799669  0.08589026  0.50461367  1
  Zr  Zr46  1  0.49927137  0.89374573  0.30325070  1
  Zr  Zr47  1  0.10356323  0.10091332  0.69615735  1
  Zr  Zr48  1  0.89894273  0.50207452  0.29028725  1
  Zr  Zr49  1  0.30725305  0.30599567  0.69652996  1
  Sc  Sc50  1  0.09321224  0.29400970  0.09418995  1
  Sc  Sc51  1  0.70690238  0.89142750  0.29601187  1
  Sc  Sc52  1  0.89050539  0.10164884  0.71027976  1
  Sc  Sc53  1  0.70457845  0.89494301  0.90196603  1
  Sc  Sc54  1  0.09344787  0.50107413  0.10036460  1
  Sc  Sc55  1  0.70691025  0.70470075  0.49987012  1
  Sc  Sc56  1  0.09957805  0.49998165  0.70488215  1
  Sc  Sc57  1  0.09637237  0.30542147  0.90543949  1
  Sc  Sc58  1  0.30008045  0.69685471  0.70476495  1
  Sc  Sc59  1  0.50149897  0.49364265  0.70932648  1
  Sc  Sc60  1  0.89279430  0.49399927  0.70069410  1
  Sc  Sc61  1  0.50755230  0.69483715  0.89291338  1
  Sc  Sc62  1  0.50359479  0.49130021  0.10126046  1
  Sc  Sc63  1  0.90024004  0.30577832  0.09657063  1
  Sc  Sc64  1  0.70205073  0.50101958  0.09937919  1
  Sc  Sc65  1  0.69878172  0.30523323  0.10332976  1
  Sc  Sc66  1  0.70113108  0.70218801  0.09449168  1
  Sc  Sc67  1  0.89981325  0.50912801  0.50626398  1
  Sc  Sc68  1  0.49437559  0.10691713  0.69819763  1
  Sc  Sc69  1  0.09983664  0.69836411  0.89753604  1
  Sc  Sc70  1  0.30327521  0.50369233  0.89439816  1
  Sc  Sc71  1  0.71289920  0.10268240  0.09762915  1
  Sc  Sc72  1  0.90567807  0.29877651  0.50139890  1
  Sc  Sc73  1  0.09800298  0.89855789  0.11038980  1
  Sc  Sc74  1  0.30817314  0.29796250  0.09871703  1
  Sc  Sc75  1  0.68561769  0.89738406  0.50418470  1
  Sc  Sc76  1  0.09934705  0.29305712  0.50377931  1
  Sc  Sc77  1  0.69131509  0.29328506  0.89864304  1
  Sc  Sc78  1  0.31921601  0.50147702  0.29564229  1
  Sc  Sc79  1  0.10078148  0.50214914  0.89470743  1
  Sc  Sc80  1  0.11034771  0.10031533  0.91471776  1
  Sc  Sc81  1  0.29248573  0.89766568  0.30361859  1
  Sc  Sc82  1  0.88615059  0.10256222  0.90409273  1
  Sc  Sc83  1  0.69727858  0.69481836  0.29861615  1
  Sc  Sc84  1  0.89644418  0.89097632  0.10221871  1
  Sc  Sc85  1  0.49556457  0.50591166  0.48700323  1
  Sc  Sc86  1  0.09326646  0.70436203  0.50052609  1
  Sc  Sc87  1  0.30699702  0.29636347  0.30458398  1
  Sc  Sc88  1  0.70380638  0.89276208  0.09619715  1
  Sc  Sc89  1  0.89839719  0.70449781  0.30159283  1
  Sc  Sc90  1  0.49989834  0.31500266  0.30118907  1
  Sc  Sc91  1  0.09620801  0.50500985  0.50814413  1
  Sc  Sc92  1  0.30542021  0.69350146  0.51493634  1
  Sc  Sc93  1  0.90263308  0.30243337  0.90682245  1
  Sc  Sc94  1  0.50031432  0.70808045  0.10309121  1
  Sc  Sc95  1  0.29431175  0.89438781  0.70429528  1
  Sc  Sc96  1  0.10580497  0.10136651  0.49613885  1
  Sc  Sc97  1  0.10461185  0.89279292  0.89624342  1
  Sc  Sc98  1  0.49747198  0.70626277  0.70241019  1
  Sc  Sc99  1  0.90575889  0.89550181  0.29447888  1
  Nb  Nb100  1  0.69566519  0.69450136  0.70436724  1
  Nb  Nb101  1  0.30956057  0.89105296  0.10209165  1
  Nb  Nb102  1  0.50034984  0.89793006  0.49854027  1
  Nb  Nb103  1  0.50071267  0.10082109  0.09739238  1
  Nb  Nb104  1  0.30567290  0.10417415  0.90065101  1
  Nb  Nb105  1  0.70071723  0.10210689  0.30101418  1
  Nb  Nb106  1  0.09884558  0.89324787  0.30412602  1
  Nb  Nb107  1  0.10491714  0.70870197  0.30213691  1
  Nb  Nb108  1  0.30046248  0.30291661  0.89828686  1
  Nb  Nb109  1  0.50569164  0.51092912  0.29970347  1
  Nb  Nb110  1  0.50768082  0.70192070  0.50176852  1
  Nb  Nb111  1  0.29279576  0.49778256  0.49905408  1
  Nb  Nb112  1  0.89749050  0.90491546  0.70131319  1
  Nb  Nb113  1  0.69906407  0.10499035  0.70369856  1
  Nb  Nb114  1  0.89851858  0.30046329  0.69983865  1
  Nb  Nb115  1  0.69975248  0.09761492  0.89630492  1
  Nb  Nb116  1  0.69680940  0.70220715  0.89152362  1
  Nb  Nb117  1  0.69812780  0.31347747  0.69625871  1
  Nb  Nb118  1  0.69832965  0.49384788  0.69502066  1
  Nb  Nb119  1  0.50348797  0.30497607  0.70098101  1
  Nb  Nb120  1  0.90000697  0.50263096  0.09728404  1
  Nb  Nb121  1  0.50269304  0.10976204  0.90677223  1
  Nb  Nb122  1  0.50089764  0.68874152  0.30914723  1
  Nb  Nb123  1  0.90108751  0.70267111  0.09873949  1
  Nb  Nb124  1  0.30041253  0.70721959  0.09787923  1
  Nb  Nb125  1  0.60084828  0.00834400  -0.00224404  1
  Nb  Nb126  1  0.00423108  0.19753271  0.80035218  1
  Nb  Nb127  1  0.00274019  0.40273308  0.39321426  1
  Nb  Nb128  1  -0.00220143  -0.00317517  -0.00222043  1
  Nb  Nb129  1  0.20482505  0.40342975  0.00266115  1
  Nb  Nb130  1  0.59833620  0.00995226  0.80516558  1
  Nb  Nb131  1  0.19755969  0.40825006  0.39556424  1
  Nb  Nb132  1  -0.00015669  0.00272171  0.80130053  1
  Nb  Nb133  1  0.60139037  0.20804544  0.60650157  1
  Nb  Nb134  1  -0.00888926  0.60328815  0.00374539  1
  Nb  Nb135  1  0.20359823  0.40198540  0.19839330  1
  Nb  Nb136  1  0.79245363  0.20266662  0.60711175  1
  Nb  Nb137  1  0.40242056  -0.00131383  0.19664407  1
  Nb  Nb138  1  0.40305245  0.00504684  0.80914685  1
  Nb  Nb139  1  0.20263404  0.59909750  0.39668608  1
  Nb  Nb140  1  0.40839985  0.18859747  0.19843995  1
  Nb  Nb141  1  0.40804107  0.79324530  0.40628550  1
  Nb  Nb142  1  0.20345777  0.20337330  0.80411067  1
  Nb  Nb143  1  0.59828823  0.00536995  0.19719272  1
  Nb  Nb144  1  0.79688249  0.00232656  0.40165502  1
  Nb  Nb145  1  0.60261058  0.59969382  0.60295582  1
  Nb  Nb146  1  0.59624674  0.19202536  0.20178999  1
  Nb  Nb147  1  0.79768470  0.00584636  0.59792581  1
  Nb  Nb148  1  0.80531730  0.40307033  0.39735452  1
  Nb  Nb149  1  -0.00776016  -0.00304579  0.60387239  1
  Pd  Pd150  1  0.41191200  0.59236185  0.60582078  1
  Pd  Pd151  1  0.39359308  0.80457620  0.80620171  1
  Pd  Pd152  1  0.79094526  0.39964599  -0.00485994  1
  Pd  Pd153  1  -0.00832562  -0.00687713  0.40400212  1
  Pd  Pd154  1  0.41224211  0.60256574  0.18862997  1
  Pd  Pd155  1  0.59766023  0.60279084  0.18915778  1
  Pd  Pd156  1  -0.00180174  0.40313772  0.59420357  1
  Pd  Pd157  1  0.60001694  0.40226700  0.40427642  1
  Pd  Pd158  1  0.00621219  0.79931428  0.00373574  1
  Pd  Pd159  1  -0.00844981  0.19287001  0.60989585  1
  Pd  Pd160  1  0.59680980  0.60377214  0.00499576  1
  Pd  Pd161  1  -0.00312472  0.20127296  0.19663209  1
  Pd  Pd162  1  0.20065187  0.00567974  0.80919897  1
  Pd  Pd163  1  0.80462982  0.59900589  0.79291116  1
  Pd  Pd164  1  0.20158729  0.80616957  0.19816740  1
  Pd  Pd165  1  0.79757178  0.20838937  0.00203406  1
  Pd  Pd166  1  0.79696615  0.60557639  0.19722100  1
  Pd  Pd167  1  0.39156174  0.60562006  0.40561180  1
  Pd  Pd168  1  0.80192469  0.21294577  0.80002310  1
  Pd  Pd169  1  0.39939855  0.80241094  0.59863386  1
  Pd  Pd170  1  -0.00188737  0.39439812  0.80142033  1
  Pd  Pd171  1  0.39623855  -0.00696240  0.60972190  1
  Pd  Pd172  1  0.79552457  -0.00515294  0.20164034  1
  Pd  Pd173  1  0.40835775  0.00050416  -0.00182204  1
  Pd  Pd174  1  -0.00584880  0.61122143  0.19830407  1
  Pd  Pd175  1  0.00619520  0.39306217  0.19928151  1
  Pd  Pd176  1  0.40132531  0.39593305  0.19566913  1
  Pd  Pd177  1  0.40016312  0.59728771  0.79513315  1
  Pd  Pd178  1  0.19191558  0.60512720  0.59803301  1
  Pd  Pd179  1  0.79806808  0.39695523  0.20211106  1
  Pd  Pd180  1  0.19165278  0.80229728  0.00630422  1
  Pd  Pd181  1  0.21431772  0.78566855  0.40851222  1
  Pd  Pd182  1  0.58552526  0.40553557  0.59219808  1
  Pd  Pd183  1  0.60264695  0.79614690  0.39755047  1
  Pd  Pd184  1  0.40821729  0.41145116  0.59524279  1
  Pd  Pd185  1  0.40640380  0.78760080  -0.00982906  1
  Pd  Pd186  1  0.79975106  0.60493028  0.00110486  1
  Pd  Pd187  1  -0.00826751  0.60139145  0.80106386  1
  Pd  Pd188  1  0.59846791  0.20215159  0.79369718  1
  Pd  Pd189  1  0.41220696  0.60620955  0.00346510  1
  Pd  Pd190  1  0.00469679  0.60091210  0.39793697  1
  Pd  Pd191  1  0.60878765  0.40258312  -0.00691221  1
  Pd  Pd192  1  0.20497111  0.21022069  0.00057627  1
  Pd  Pd193  1  -0.00035356  0.80723313  0.79818372  1
  Pd  Pd194  1  0.60192892  0.79932000  0.20237364  1
  Pd  Pd195  1  0.79514332  0.39453061  0.80890437  1
  Pd  Pd196  1  0.00336644  0.80469315  0.60216088  1
  Pd  Pd197  1  -0.00028972  0.60175509  0.61311475  1
  Pd  Pd198  1  0.39499845  0.19804716  0.79488540  1
  Pd  Pd199  1  0.79669001  0.59573233  0.39353402  1
  Rh  Rh200  1  0.60423533  0.80353141  0.79881519  1
  Rh  Rh201  1  0.79027412  0.80273560  0.60279689  1
  Rh  Rh202  1  0.79580735  0.20477847  0.19247214  1
  Rh  Rh203  1  0.20041784  0.79365955  0.59736184  1
  Rh  Rh204  1  0.40287582  0.80104736  0.20717181  1
  Rh  Rh205  1  0.60731536  0.60222369  0.40823540  1
  Rh  Rh206  1  0.59064294  0.20780799  0.39985639  1
  Rh  Rh207  1  0.39222550  -0.01156269  0.39563965  1
  Rh  Rh208  1  0.20230508  0.39692278  0.80765897  1
  Rh  Rh209  1  0.39383775  0.20074368  0.00294321  1
  Rh  Rh210  1  -0.00253066  -0.00673668  0.19634501  1
  Rh  Rh211  1  0.19143964  -0.01312708  0.00726692  1
  Rh  Rh212  1  0.79964709  -0.00448515  0.00239090  1
  Rh  Rh213  1  0.19231691  0.40024001  0.59202140  1
  Rh  Rh214  1  0.79721847  0.80403526  0.39758402  1
  Rh  Rh215  1  0.61169215  0.19445684  0.00825078  1
  Rh  Rh216  1  0.00238310  0.79526209  0.20356049  1
  Rh  Rh217  1  0.40141702  0.19969103  0.39301073  1
  Rh  Rh218  1  0.00841976  0.20313001  0.39441597  1
  Rh  Rh219  1  0.60258942  0.39886409  0.80682255  1
  Rh  Rh220  1  0.00554064  0.41263870  -0.00024618  1
  Rh  Rh221  1  0.20599296  -0.01261019  0.19913384  1
  Rh  Rh222  1  0.60223631  0.78878843  0.60376685  1
  Rh  Rh223  1  0.39231195  0.40231949  -0.00290949  1
  Rh  Rh224  1  0.79918021  0.20166100  0.40885061  1
  Rh  Rh225  1  0.79549963  0.79382265  -0.00100575  1
  Rh  Rh226  1  0.59730794  0.59739779  0.79185784  1
  Rh  Rh227  1  0.39629290  0.40311910  0.80038385  1
  Rh  Rh228  1  0.18873961  0.59459421  -0.00250449  1
  Rh  Rh229  1  0.20048873  0.20404922  0.40665403  1
  Rh  Rh230  1  0.20778040  0.20337090  0.60081144  1
  Rh  Rh231  1  -0.00471065  0.18753353  -0.00594322  1
  Rh  Rh232  1  0.19544846  0.00051817  0.58915156  1
  Rh  Rh233  1  0.79623587  -0.00185484  0.79656187  1
  Rh  Rh234  1  0.19951731  0.00117484  0.39972616  1
  Rh  Rh235  1  0.81130585  0.39516384  0.59415853  1
  Rh  Rh236  1  0.39580591  0.40832156  0.40025441  1
  Rh  Rh237  1  0.60410708  0.01102021  0.61112227  1
  Rh  Rh238  1  0.79408822  0.60307659  0.60934265  1
  Rh  Rh239  1  0.40342361  0.20131161  0.60321152  1
  Rh  Rh240  1  0.20583299  0.59725199  0.20338894  1
  Rh  Rh241  1  0.59696474  0.39518793  0.19960017  1
  Rh  Rh242  1  -0.00284428  0.79663986  0.39586209  1
  Rh  Rh243  1  0.80118644  0.79208831  0.19857395  1
  Rh  Rh244  1  0.79502526  0.79799958  0.79738284  1
  Rh  Rh245  1  0.21196901  0.20666883  0.18914830  1
  Rh  Rh246  1  0.20804687  0.79558711  0.80505014  1
  Rh  Rh247  1  0.20247677  0.59829869  0.79854949  1
  Rh  Rh248  1  0.61178949  -0.01627870  0.38888189  1
  Rh  Rh249  1  0.60433664  0.79814258  -0.00664374  1
