# generated using pymatgen
data_ZrScNbPdRh
_symmetry_space_group_name_H-M   'P 1'
_cell_length_a   16.56282333
_cell_length_b   16.56053552
_cell_length_c   16.56356822
_cell_angle_alpha   90.02557622
_cell_angle_beta   89.95083226
_cell_angle_gamma   89.98528924
_symmetry_Int_Tables_number   1
_chemical_formula_structural   ZrScNbPdRh
_chemical_formula_sum   'Zr50 Sc50 Nb50 Pd50 Rh50'
_cell_volume   4543.20600104
_cell_formula_units_Z   50
loop_
 _symmetry_equiv_pos_site_id
 _symmetry_equiv_pos_as_xyz
  1  'x, y, z'
loop_
 _atom_site_type_symbol
 _atom_site_label
 _atom_site_symmetry_multiplicity
 _atom_site_fract_x
 _atom_site_fract_y
 _atom_site_fract_z
 _atom_site_occupancy
  Zr  Zr0  1  0.69445438  0.09911718  0.50686380  1
  Zr  Zr1  1  0.69177887  0.90041924  0.70517695  1
  Zr  Zr2  1  0.50146947  0.69291774  0.50457584  1
  Zr  Zr3  1  0.50665072  0.29561254  0.89159745  1
  Zr  Zr4  1  0.29522869  0.50688347  0.70317034  1
  Zr  Zr5  1  0.89979069  0.89923787  0.29833082  1
  Zr  Zr6  1  0.90703675  0.29766360  0.30319451  1
  Zr  Zr7  1  0.70868664  0.89391551  0.29023921  1
  Zr  Zr8  1  0.71107989  0.69717321  0.49890000  1
  Zr  Zr9  1  0.70234623  0.50950693  0.69701769  1
  Zr  Zr10  1  0.70848138  0.49687026  0.89224510  1
  Zr  Zr11  1  0.89264246  0.49517473  0.70884886  1
  Zr  Zr12  1  0.90055281  0.09672156  0.90245023  1
  Zr  Zr13  1  0.69147251  0.30369498  0.49418003  1
  Zr  Zr14  1  0.89499863  0.90465701  0.69776198  1
  Zr  Zr15  1  0.90549821  0.10355078  0.69730454  1
  Zr  Zr16  1  0.29174212  0.69529052  0.49897876  1
  Zr  Zr17  1  0.10282993  0.09770858  0.29912684  1
  Zr  Zr18  1  0.69474830  0.49885483  0.10090711  1
  Zr  Zr19  1  0.29870455  0.49716906  0.50784781  1
  Zr  Zr20  1  0.49841662  0.50133191  0.10912478  1
  Zr  Zr21  1  0.10073404  0.29513053  0.29523862  1
  Zr  Zr22  1  0.10249066  0.49753942  0.70304723  1
  Zr  Zr23  1  0.50135193  0.30181307  0.50106144  1
  Zr  Zr24  1  0.49867304  0.51378908  0.69518899  1
  Zr  Zr25  1  0.90078083  0.50679662  0.49119410  1
  Zr  Zr26  1  0.28755138  0.30181616  0.10056128  1
  Zr  Zr27  1  0.69549469  0.90788697  0.10051289  1
  Zr  Zr28  1  0.69428923  0.70723337  0.69080593  1
  Zr  Zr29  1  0.11021563  0.90429087  0.70063337  1
  Zr  Zr30  1  0.90519863  0.89607343  0.49912793  1
  Zr  Zr31  1  0.09211969  0.29690020  0.71047720  1
  Zr  Zr32  1  0.10330144  0.89484450  0.10390312  1
  Zr  Zr33  1  0.69222546  0.10120522  0.29125271  1
  Zr  Zr34  1  0.89883415  0.29910897  0.49916876  1
  Zr  Zr35  1  0.70003030  0.69657162  0.30279015  1
  Zr  Zr36  1  0.10746689  0.70339996  0.10410849  1
  Zr  Zr37  1  0.89671087  0.09545942  0.50778002  1
  Zr  Zr38  1  0.09056253  0.09221997  0.50093371  1
  Zr  Zr39  1  0.29549090  0.09744469  0.29790610  1
  Zr  Zr40  1  0.70103796  0.10122494  0.09901030  1
  Zr  Zr41  1  0.49719865  0.10247558  0.29811035  1
  Zr  Zr42  1  0.09966994  0.90423980  0.29372599  1
  Zr  Zr43  1  0.29921723  0.30710799  0.69469105  1
  Zr  Zr44  1  0.90868805  0.09815431  0.30301929  1
  Zr  Zr45  1  0.30416646  0.89529693  0.89604997  1
  Zr  Zr46  1  0.10316023  0.51218968  0.49820762  1
  Zr  Zr47  1  0.49858872  0.70893187  0.89984601  1
  Zr  Zr48  1  0.49610615  0.69342477  0.29861479  1
  Zr  Zr49  1  0.49780053  0.89696671  0.09362680  1
  Sc  Sc50  1  0.50297893  0.10427891  0.89794278  1
  Sc  Sc51  1  0.69462336  0.09468748  0.90210675  1
  Sc  Sc52  1  0.11137838  0.50138211  0.09484634  1
  Sc  Sc53  1  0.90696756  0.50922303  0.09157225  1
  Sc  Sc54  1  0.10159439  0.29713074  0.90649044  1
  Sc  Sc55  1  0.50320432  0.89912266  0.90377191  1
  Sc  Sc56  1  0.51164735  0.29602795  0.30020962  1
  Sc  Sc57  1  0.89401485  0.70101580  0.69042653  1
  Sc  Sc58  1  0.70383642  0.70717011  0.89837445  1
  Sc  Sc59  1  0.70019894  0.89608260  0.51486826  1
  Sc  Sc60  1  0.09820332  0.49983570  0.30225189  1
  Sc  Sc61  1  0.50600002  0.50277857  0.29878989  1
  Sc  Sc62  1  0.29977726  0.89349597  0.09685348  1
  Sc  Sc63  1  0.29903378  0.70085926  0.29527214  1
  Sc  Sc64  1  0.91377034  0.30230097  0.90053710  1
  Sc  Sc65  1  0.69749188  0.50148067  0.49563758  1
  Sc  Sc66  1  0.28985310  0.29412068  0.28964446  1
  Sc  Sc67  1  0.10020586  0.30630968  0.48410591  1
  Sc  Sc68  1  0.49578727  0.70593485  0.10646325  1
  Sc  Sc69  1  0.89495398  0.70500546  0.30881670  1
  Sc  Sc70  1  0.10471312  0.70610632  0.91005988  1
  Sc  Sc71  1  0.28839914  0.09268803  0.70542119  1
  Sc  Sc72  1  0.29390235  0.90228768  0.30079607  1
  Sc  Sc73  1  0.88792009  0.90000112  0.90343946  1
  Sc  Sc74  1  0.30292973  0.08367683  0.49516475  1
  Sc  Sc75  1  0.29637315  0.29127165  0.90481577  1
  Sc  Sc76  1  0.09890969  0.69949047  0.68917111  1
  Sc  Sc77  1  0.49431258  0.89904863  0.29050510  1
  Sc  Sc78  1  0.69927801  0.70782475  0.10216127  1
  Sc  Sc79  1  0.10115906  0.89117251  0.50307712  1
  Sc  Sc80  1  0.30040218  0.70341609  0.89745255  1
  Sc  Sc81  1  0.11302674  0.90067230  0.90852412  1
  Sc  Sc82  1  0.10217111  0.09463918  0.09266400  1
  Sc  Sc83  1  0.90709419  0.70134299  0.09229977  1
  Sc  Sc84  1  0.49697183  0.09261216  0.49963811  1
  Sc  Sc85  1  0.29514813  0.10110208  0.90809557  1
  Sc  Sc86  1  0.89352519  0.90003250  0.10423336  1
  Sc  Sc87  1  0.30173194  0.50122884  0.29125434  1
  Sc  Sc88  1  0.30877965  0.70401824  0.70015703  1
  Sc  Sc89  1  0.10745687  0.70038018  0.30275146  1
  Sc  Sc90  1  0.50429636  0.50184346  0.49733691  1
  Sc  Sc91  1  0.89541810  0.10116139  0.09622437  1
  Sc  Sc92  1  0.70102908  0.31224140  0.70407475  1
  Sc  Sc93  1  0.50826117  0.50046663  0.89360961  1
  Sc  Sc94  1  0.69547911  0.90317205  0.89963945  1
  Sc  Sc95  1  0.70042235  0.08992019  0.70664779  1
  Sc  Sc96  1  0.50130570  0.29913296  0.10326584  1
  Sc  Sc97  1  0.90050350  0.29997075  0.70236496  1
  Sc  Sc98  1  0.50526143  0.10281213  0.09849321  1
  Sc  Sc99  1  0.49458091  0.90841813  0.51429021  1
  Nb  Nb100  1  0.10262376  0.49795250  0.89390126  1
  Nb  Nb101  1  0.29469736  0.49824277  0.90077427  1
  Nb  Nb102  1  0.09952965  0.30533657  0.09991617  1
  Nb  Nb103  1  0.70057401  0.29789863  0.30079967  1
  Nb  Nb104  1  0.50244047  0.70757703  0.70026040  1
  Nb  Nb105  1  0.31064035  0.89510081  0.50741523  1
  Nb  Nb106  1  0.49979600  0.09922621  0.70398727  1
  Nb  Nb107  1  0.09177293  0.69570368  0.50026546  1
  Nb  Nb108  1  0.90480834  0.69679432  0.90102507  1
  Nb  Nb109  1  0.30264650  0.49565202  0.09510035  1
  Nb  Nb110  1  0.89656258  0.49590943  0.29637830  1
  Nb  Nb111  1  0.49457194  0.29281619  0.70533212  1
  Nb  Nb112  1  0.90090853  0.30209513  0.09955212  1
  Nb  Nb113  1  0.90112902  0.50694578  0.89969496  1
  Nb  Nb114  1  0.30032742  0.30023833  0.50122028  1
  Nb  Nb115  1  0.49710004  0.89960150  0.69918991  1
  Nb  Nb116  1  0.30313867  0.69429485  0.10265648  1
  Nb  Nb117  1  0.69882443  0.30122260  0.89981123  1
  Nb  Nb118  1  0.09769581  0.09984772  0.70313622  1
  Nb  Nb119  1  0.90720899  0.70428245  0.50126946  1
  Nb  Nb120  1  0.70679510  0.29903808  0.09855297  1
  Nb  Nb121  1  0.30789093  0.89829273  0.69425526  1
  Nb  Nb122  1  0.30385445  0.11073505  0.10534319  1
  Nb  Nb123  1  0.10331792  0.09774269  0.89055373  1
  Nb  Nb124  1  0.70257413  0.49995068  0.30076772  1
  Nb  Nb125  1  0.79461466  0.19619942  0.39868348  1
  Nb  Nb126  1  0.39649695  0.39241332  0.40106604  1
  Nb  Nb127  1  0.39818114  0.59325814  0.00114924  1
  Nb  Nb128  1  0.59166499  0.20094367  0.61002487  1
  Nb  Nb129  1  -0.00463993  0.39875314  0.19469661  1
  Nb  Nb130  1  -0.00212072  0.80011138  0.80223692  1
  Nb  Nb131  1  0.79814956  0.20225204  0.80613908  1
  Nb  Nb132  1  0.00693340  -0.00126054  0.80184539  1
  Nb  Nb133  1  0.39751708  0.40471498  -0.00439340  1
  Nb  Nb134  1  0.40096513  0.80212857  0.40609708  1
  Nb  Nb135  1  0.59523294  0.80283981  0.40314339  1
  Nb  Nb136  1  0.40016642  -0.00387281  0.79487387  1
  Nb  Nb137  1  0.79493137  0.00163491  0.39984842  1
  Nb  Nb138  1  -0.00169118  0.60304047  0.80746107  1
  Nb  Nb139  1  0.60372315  -0.00833499  0.39598611  1
  Nb  Nb140  1  0.39537209  0.20494869  0.40466019  1
  Nb  Nb141  1  0.80098563  0.59206630  0.20345515  1
  Nb  Nb142  1  0.39858442  0.40179543  0.80135065  1
  Nb  Nb143  1  0.80181937  0.39680790  0.00168804  1
  Nb  Nb144  1  0.19923837  0.19977031  0.59677579  1
  Nb  Nb145  1  0.59629337  0.60069103  0.00046952  1
  Nb  Nb146  1  0.39705262  0.19847292  0.60105799  1
  Nb  Nb147  1  0.39465045  0.00533388  0.19329680  1
  Nb  Nb148  1  0.80184101  0.39794093  0.19786773  1
  Nb  Nb149  1  -0.00018431  0.40559319  0.59730053  1
  Pd  Pd150  1  0.00514803  0.19879226  0.18748419  1
  Pd  Pd151  1  0.59621196  0.79842017  0.20385034  1
  Pd  Pd152  1  -0.00380462  0.79163854  0.20431593  1
  Pd  Pd153  1  0.38749903  0.19383301  0.79724261  1
  Pd  Pd154  1  0.00791429  0.79835865  0.39506567  1
  Pd  Pd155  1  0.20173747  0.00270506  0.59471598  1
  Pd  Pd156  1  0.79705586  0.80190837  0.00305699  1
  Pd  Pd157  1  0.59860707  0.40246449  -0.00143120  1
  Pd  Pd158  1  0.01077566  0.21142194  0.59200228  1
  Pd  Pd159  1  0.80164429  0.61440219  0.79691716  1
  Pd  Pd160  1  0.00117432  0.40766168  0.00206339  1
  Pd  Pd161  1  0.80218978  0.20164593  0.20568919  1
  Pd  Pd162  1  0.39973613  0.59823813  0.80764403  1
  Pd  Pd163  1  0.20378111  0.20272586  0.79628915  1
  Pd  Pd164  1  0.18519450  0.39188158  0.59716786  1
  Pd  Pd165  1  0.80398686  0.79662824  0.79885870  1
  Pd  Pd166  1  0.20887431  0.00166833  0.00462168  1
  Pd  Pd167  1  0.60589728  0.39381419  0.20514438  1
  Pd  Pd168  1  -0.00364135  0.00246363  0.18923877  1
  Pd  Pd169  1  0.19586962  0.79407927  0.79473503  1
  Pd  Pd170  1  0.20447862  0.39073004  0.80853124  1
  Pd  Pd171  1  -0.00387271  0.59954375  0.20425672  1
  Pd  Pd172  1  0.80126903  0.20552063  -0.00972748  1
  Pd  Pd173  1  0.01432583  0.59765431  -0.00408363  1
  Pd  Pd174  1  0.79719883  0.39587787  0.39690425  1
  Pd  Pd175  1  -0.00151634  0.60482654  0.38843723  1
  Pd  Pd176  1  -0.00170026  0.81079199  -0.00611659  1
  Pd  Pd177  1  0.40794501  0.40185437  0.60225799  1
  Pd  Pd178  1  0.19172345  0.61292458  0.80137295  1
  Pd  Pd179  1  0.39837069  0.39088066  0.20417949  1
  Pd  Pd180  1  0.60472003  0.61013186  0.80533728  1
  Pd  Pd181  1  0.20087981  0.79536633  0.60033080  1
  Pd  Pd182  1  0.78610796  0.20528748  0.60727073  1
  Pd  Pd183  1  0.80377401  0.40376343  0.59487348  1
  Pd  Pd184  1  0.59963685  0.20148938  0.00241807  1
  Pd  Pd185  1  0.20832678  0.40630583  0.39106546  1
  Pd  Pd186  1  0.59429064  0.40308169  0.78959284  1
  Pd  Pd187  1  0.20482188  0.19370610  0.40883208  1
  Pd  Pd188  1  0.20499023  0.60340446  -0.00264320  1
  Pd  Pd189  1  0.19707835  -0.01096664  0.40848147  1
  Pd  Pd190  1  0.79226600  0.59941142  0.00610609  1
  Pd  Pd191  1  0.20341742  0.80303276  0.40170735  1
  Pd  Pd192  1  0.39955483  0.00604378  -0.00139244  1
  Pd  Pd193  1  0.39317085  0.59437301  0.39820681  1
  Pd  Pd194  1  0.40348791  0.20727353  0.00305789  1
  Pd  Pd195  1  0.19980088  0.59494821  0.20281797  1
  Pd  Pd196  1  0.59484979  0.40039039  0.60860420  1
  Pd  Pd197  1  -0.00048510  -0.00868643  -0.00402080  1
  Pd  Pd198  1  -0.00750984  0.59430607  0.60987942  1
  Pd  Pd199  1  0.00675178  0.19645066  0.00159137  1
  Rh  Rh200  1  0.58813607  -0.00140138  0.19896561  1
  Rh  Rh201  1  0.39498062  0.00962455  0.61293423  1
  Rh  Rh202  1  0.79742591  -0.00399753  0.59996626  1
  Rh  Rh203  1  0.58808323  -0.00357661  0.80183747  1
  Rh  Rh204  1  0.20343091  -0.00491142  0.80402439  1
  Rh  Rh205  1  -0.00096264  0.40875921  0.80073886  1
  Rh  Rh206  1  0.80613719  0.00773765  0.20353413  1
  Rh  Rh207  1  0.59681185  0.80224588  0.79985858  1
  Rh  Rh208  1  0.60295945  0.79642058  0.00041891  1
  Rh  Rh209  1  0.39045784  0.80650314  0.20556195  1
  Rh  Rh210  1  0.40097753  0.19921059  0.20498567  1
  Rh  Rh211  1  -0.00510612  0.19127858  0.80781510  1
  Rh  Rh212  1  0.80829775  0.38802034  0.81354186  1
  Rh  Rh213  1  0.39654920  0.59906579  0.19624851  1
  Rh  Rh214  1  0.00215136  0.40569437  0.39773693  1
  Rh  Rh215  1  0.60393352  0.60212496  0.40024480  1
  Rh  Rh216  1  0.20748886  0.00179597  0.18940445  1
  Rh  Rh217  1  0.80514441  0.80148043  0.59768675  1
  Rh  Rh218  1  0.20092741  0.39813684  -0.00542422  1
  Rh  Rh219  1  0.39542064  0.78896965  0.00326553  1
  Rh  Rh220  1  0.59510856  0.40699763  0.39216769  1
  Rh  Rh221  1  0.19007421  0.40539518  0.20028495  1
  Rh  Rh222  1  -0.00286562  0.19435002  0.40748958  1
  Rh  Rh223  1  0.20216885  0.59924403  0.39756019  1
  Rh  Rh224  1  0.79384506  0.80914721  0.40921728  1
  Rh  Rh225  1  0.80379887  0.60099619  0.39730748  1
  Rh  Rh226  1  0.80329998  0.59811611  0.59478599  1
  Rh  Rh227  1  0.00510437  -0.00867309  0.60838790  1
  Rh  Rh228  1  -0.00099041  -0.00578774  0.39976500  1
  Rh  Rh229  1  0.59090451  0.80137015  0.59557943  1
  Rh  Rh230  1  0.61423781  0.19923677  0.79399350  1
  Rh  Rh231  1  0.40503567  0.80668185  0.79686314  1
  Rh  Rh232  1  0.18873681  0.19333882  0.19122669  1
  Rh  Rh233  1  0.80736744  0.00889956  0.80091187  1
  Rh  Rh234  1  0.59838763  0.18939155  0.40776846  1
  Rh  Rh235  1  0.59741624  0.00132514  -0.00037385  1
  Rh  Rh236  1  0.20192200  0.60623883  0.60326291  1
  Rh  Rh237  1  0.40594320  -0.00615748  0.38801819  1
  Rh  Rh238  1  0.20465076  0.79908954  0.19918567  1
  Rh  Rh239  1  0.60243881  0.20615276  0.19108900  1
  Rh  Rh240  1  0.59740533  0.00346174  0.60308652  1
  Rh  Rh241  1  0.79430274  -0.00161165  0.00294195  1
  Rh  Rh242  1  0.60760836  0.60546943  0.19633570  1
  Rh  Rh243  1  0.19152617  0.19621075  0.00460131  1
  Rh  Rh244  1  0.40465850  0.79139252  0.59658720  1
  Rh  Rh245  1  0.39702017  0.60469813  0.60087814  1
  Rh  Rh246  1  0.00030729  0.80132407  0.60554029  1
  Rh  Rh247  1  0.20810252  0.79542401  0.00555164  1
  Rh  Rh248  1  0.60405825  0.60121195  0.59805807  1
  Rh  Rh249  1  0.80991894  0.78527197  0.19279380  1
