# generated using pymatgen
data_ZrScNbPdRh
_symmetry_space_group_name_H-M   'P 1'
_cell_length_a   16.55262629
_cell_length_b   16.55254062
_cell_length_c   16.55462150
_cell_angle_alpha   89.97485109
_cell_angle_beta   89.99588959
_cell_angle_gamma   90.00933231
_symmetry_Int_Tables_number   1
_chemical_formula_structural   ZrScNbPdRh
_chemical_formula_sum   'Zr50 Sc50 Nb50 Pd50 Rh50'
_cell_volume   4535.76744462
_cell_formula_units_Z   50
loop_
 _symmetry_equiv_pos_site_id
 _symmetry_equiv_pos_as_xyz
  1  'x, y, z'
loop_
 _atom_site_type_symbol
 _atom_site_label
 _atom_site_symmetry_multiplicity
 _atom_site_fract_x
 _atom_site_fract_y
 _atom_site_fract_z
 _atom_site_occupancy
  Zr  Zr0  1  0.89536185  0.89625202  0.30081293  1
  Zr  Zr1  1  0.89839729  0.09830511  0.29718576  1
  Zr  Zr2  1  0.70192755  0.70035783  0.69602349  1
  Zr  Zr3  1  0.90629826  0.50257546  0.68395659  1
  Zr  Zr4  1  0.69921347  0.29752677  0.71277760  1
  Zr  Zr5  1  0.89530337  0.69905278  0.70075219  1
  Zr  Zr6  1  0.90624117  0.70686568  0.89178377  1
  Zr  Zr7  1  0.71756258  0.30095314  0.50023849  1
  Zr  Zr8  1  0.49265087  0.90549156  0.70633486  1
  Zr  Zr9  1  0.29447593  0.29964867  0.30251286  1
  Zr  Zr10  1  0.70444039  0.89753989  0.29940393  1
  Zr  Zr11  1  0.29564805  0.09522303  0.70329052  1
  Zr  Zr12  1  0.10740383  0.89925447  0.69449124  1
  Zr  Zr13  1  0.28477654  0.89801422  0.10648564  1
  Zr  Zr14  1  0.09938403  0.29818800  0.10302866  1
  Zr  Zr15  1  0.70148113  0.69462772  0.88824810  1
  Zr  Zr16  1  0.49602898  0.49805081  0.29835170  1
  Zr  Zr17  1  0.49359977  0.70443773  0.91437087  1
  Zr  Zr18  1  0.69200122  0.91002030  0.90751353  1
  Zr  Zr19  1  0.50208804  0.51117239  0.10216001  1
  Zr  Zr20  1  0.89260656  0.90554617  0.10565636  1
  Zr  Zr21  1  0.49362902  0.10522373  0.10687202  1
  Zr  Zr22  1  0.30795348  0.89691159  0.89083788  1
  Zr  Zr23  1  0.71266496  0.50061603  0.50417688  1
  Zr  Zr24  1  0.50459151  0.09661000  0.50046590  1
  Zr  Zr25  1  0.10101235  0.29934404  0.49657564  1
  Zr  Zr26  1  0.30706301  0.49779970  0.10135342  1
  Zr  Zr27  1  0.49729500  0.29855409  0.29922268  1
  Zr  Zr28  1  0.10202119  0.29604723  0.30276243  1
  Zr  Zr29  1  0.89638558  0.69712177  0.49660169  1
  Zr  Zr30  1  0.50130720  0.90148788  0.30365824  1
  Zr  Zr31  1  0.49998453  0.09745156  0.29846924  1
  Zr  Zr32  1  0.50392670  0.89355205  0.09433149  1
  Zr  Zr33  1  0.29679627  0.30140323  0.50081676  1
  Zr  Zr34  1  0.50971100  0.29783371  0.89976948  1
  Zr  Zr35  1  0.30637413  0.70134476  0.09623994  1
  Zr  Zr36  1  0.49858699  0.90505860  0.49998504  1
  Zr  Zr37  1  0.10146239  0.49938285  0.29827683  1
  Zr  Zr38  1  0.89847192  0.30187573  0.30152706  1
  Zr  Zr39  1  0.09172699  0.69278086  0.69951750  1
  Zr  Zr40  1  0.70344771  0.29695181  0.30119407  1
  Zr  Zr41  1  0.70646236  0.10518682  0.69491620  1
  Zr  Zr42  1  0.49712994  0.29660458  0.69880854  1
  Zr  Zr43  1  0.29298750  0.09861649  0.89788876  1
  Zr  Zr44  1  0.89224933  0.29407352  0.69643841  1
  Zr  Zr45  1  0.29386977  0.89639425  0.49455013  1
  Zr  Zr46  1  0.70718160  0.70490844  0.30251663  1
  Zr  Zr47  1  0.50601033  0.70245935  0.29078608  1
  Zr  Zr48  1  0.89548556  0.70484757  0.30036037  1
  Zr  Zr49  1  0.69833580  0.50905502  0.70691642  1
  Sc  Sc50  1  0.49120251  0.29748803  0.50605624  1
  Sc  Sc51  1  0.50590630  0.09684033  0.90331419  1
  Sc  Sc52  1  0.29546384  0.71699569  0.30157461  1
  Sc  Sc53  1  0.50365595  0.50005901  0.90065067  1
  Sc  Sc54  1  0.69747532  0.09971290  0.10712771  1
  Sc  Sc55  1  0.90219143  0.29895838  0.09288992  1
  Sc  Sc56  1  0.29735684  0.49636192  0.89811977  1
  Sc  Sc57  1  0.70209424  0.90086735  0.69775632  1
  Sc  Sc58  1  0.10263676  0.49950307  0.89961205  1
  Sc  Sc59  1  0.50432205  0.10231226  0.69018452  1
  Sc  Sc60  1  0.90973667  0.69521945  0.09833677  1
  Sc  Sc61  1  0.29566655  0.30194648  0.69710023  1
  Sc  Sc62  1  0.30420981  0.49290066  0.30506118  1
  Sc  Sc63  1  0.09885451  0.69935331  0.30366026  1
  Sc  Sc64  1  0.10594498  0.30389864  0.90113755  1
  Sc  Sc65  1  0.88581115  0.29508226  0.90539151  1
  Sc  Sc66  1  0.30784657  0.49624695  0.70056240  1
  Sc  Sc67  1  0.10359432  0.90779773  0.49359072  1
  Sc  Sc68  1  0.10395976  0.10660913  0.30434092  1
  Sc  Sc69  1  0.10827430  0.90384505  0.29964168  1
  Sc  Sc70  1  0.69283764  0.89547238  0.50603278  1
  Sc  Sc71  1  0.09949356  0.89511349  0.89685426  1
  Sc  Sc72  1  0.29907101  0.09405993  0.49770410  1
  Sc  Sc73  1  0.89289246  0.10577145  0.09990817  1
  Sc  Sc74  1  0.49807069  0.30168618  0.09678886  1
  Sc  Sc75  1  0.69414431  0.10794208  0.30096610  1
  Sc  Sc76  1  0.10177313  0.49576853  0.69758445  1
  Sc  Sc77  1  0.48976944  0.49959373  0.50842013  1
  Sc  Sc78  1  0.90316500  0.09520907  0.69498304  1
  Sc  Sc79  1  0.30207647  0.69120617  0.90173672  1
  Sc  Sc80  1  0.10556154  0.70516455  0.49264304  1
  Sc  Sc81  1  0.08664522  0.50171755  0.08867925  1
  Sc  Sc82  1  0.70927649  0.50864250  0.30116507  1
  Sc  Sc83  1  0.90730244  0.49323095  0.91054403  1
  Sc  Sc84  1  0.69822062  0.10909090  0.90303622  1
  Sc  Sc85  1  0.29985089  0.30344051  0.89903058  1
  Sc  Sc86  1  0.70257539  0.29407134  0.09235316  1
  Sc  Sc87  1  0.30902188  0.29506696  0.09888192  1
  Sc  Sc88  1  0.69204354  0.49247192  0.89787525  1
  Sc  Sc89  1  0.69170830  0.50519329  0.09358713  1
  Sc  Sc90  1  0.29959122  0.49360679  0.50035407  1
  Sc  Sc91  1  0.10345061  0.09490199  0.70218611  1
  Sc  Sc92  1  0.69969364  0.90654464  0.10574658  1
  Sc  Sc93  1  0.49867769  0.68533215  0.70073569  1
  Sc  Sc94  1  0.09977575  0.09676723  0.10529462  1
  Sc  Sc95  1  0.50456494  0.70708226  0.50640467  1
  Sc  Sc96  1  0.09332407  0.49661194  0.50286738  1
  Sc  Sc97  1  0.90455158  0.51049272  0.30101720  1
  Sc  Sc98  1  0.89943099  0.89915746  0.70315241  1
  Sc  Sc99  1  0.11052189  0.29741537  0.69511543  1
  Nb  Nb100  1  0.49988751  0.90030804  0.90300975  1
  Nb  Nb101  1  0.90470086  0.09734509  0.89928702  1
  Nb  Nb102  1  0.90031988  0.90510921  0.50046666  1
  Nb  Nb103  1  0.30070440  0.10113185  0.10055710  1
  Nb  Nb104  1  0.90154213  0.31194344  0.50484475  1
  Nb  Nb105  1  0.69401528  0.69770883  0.09958785  1
  Nb  Nb106  1  0.30157747  0.10008804  0.29053328  1
  Nb  Nb107  1  0.09876806  0.09773742  0.89429190  1
  Nb  Nb108  1  0.29506265  0.89622437  0.69794699  1
  Nb  Nb109  1  0.90245919  0.09825196  0.50687798  1
  Nb  Nb110  1  0.50324460  0.49508339  0.69897615  1
  Nb  Nb111  1  0.89753342  0.48966791  0.50393923  1
  Nb  Nb112  1  0.69705885  0.29865936  0.89571128  1
  Nb  Nb113  1  0.09900335  0.89401947  0.09720134  1
  Nb  Nb114  1  0.30039812  0.91068431  0.30615086  1
  Nb  Nb115  1  0.29819845  0.69707666  0.69581243  1
  Nb  Nb116  1  0.89949445  0.49975515  0.09700111  1
  Nb  Nb117  1  0.29918406  0.70109787  0.50163442  1
  Nb  Nb118  1  0.89702390  0.90181831  0.89957312  1
  Nb  Nb119  1  0.70524630  0.09565546  0.50583304  1
  Nb  Nb120  1  0.10823826  0.70828270  0.09356782  1
  Nb  Nb121  1  0.09307669  0.10444569  0.49392754  1
  Nb  Nb122  1  0.09744875  0.69683375  0.90226169  1
  Nb  Nb123  1  0.69846296  0.70097347  0.49708702  1
  Nb  Nb124  1  0.50326994  0.69405712  0.10042511  1
  Nb  Nb125  1  0.60367654  0.40089593  0.60205310  1
  Nb  Nb126  1  0.80089337  0.60446067  -0.00054843  1
  Nb  Nb127  1  0.40195558  0.60871666  0.40264212  1
  Nb  Nb128  1  0.80391848  0.00243438  0.80701959  1
  Nb  Nb129  1  0.20023163  0.19261324  0.00132349  1
  Nb  Nb130  1  -0.00363071  0.38985290  0.79657439  1
  Nb  Nb131  1  0.39571615  -0.00246126  0.00300609  1
  Nb  Nb132  1  0.39670257  0.19467961  0.39575953  1
  Nb  Nb133  1  0.59878455  0.59928630  0.40349662  1
  Nb  Nb134  1  0.00595094  0.80326649  0.19387019  1
  Nb  Nb135  1  -0.00029857  -0.00228902  -0.00324770  1
  Nb  Nb136  1  0.59258532  0.80319466  0.80523851  1
  Nb  Nb137  1  0.38971275  0.79989319  0.60483025  1
  Nb  Nb138  1  -0.00216211  0.80219529  0.59454103  1
  Nb  Nb139  1  0.60549476  0.40052462  0.20453067  1
  Nb  Nb140  1  0.79877639  0.79637009  -0.00183883  1
  Nb  Nb141  1  0.80163647  0.40503620  0.19465766  1
  Nb  Nb142  1  0.60282493  0.40377166  0.40359595  1
  Nb  Nb143  1  0.19866169  0.59986600  0.19462080  1
  Nb  Nb144  1  0.80246698  0.00318696  0.41058112  1
  Nb  Nb145  1  0.19758292  0.40334921  0.19739263  1
  Nb  Nb146  1  0.20479342  0.60524636  0.59864832  1
  Nb  Nb147  1  0.00013906  0.19888638  0.80366192  1
  Nb  Nb148  1  0.39960621  0.19786907  0.79975673  1
  Nb  Nb149  1  0.20202014  0.78983868  0.79387866  1
  Pd  Pd150  1  -0.00218581  0.00045058  0.39561818  1
  Pd  Pd151  1  0.39787902  0.80676302  0.19747629  1
  Pd  Pd152  1  0.40164003  0.78922715  0.79377581  1
  Pd  Pd153  1  0.60933114  0.79563066  -0.00236218  1
  Pd  Pd154  1  0.40066339  -0.01114039  0.19376138  1
  Pd  Pd155  1  0.80944315  0.19175111  0.40695615  1
  Pd  Pd156  1  0.79121856  0.40548790  0.00478899  1
  Pd  Pd157  1  -0.00337607  0.40147303  0.19756381  1
  Pd  Pd158  1  -0.00145165  0.40342101  0.39865115  1
  Pd  Pd159  1  0.60739106  0.20875312  0.59121374  1
  Pd  Pd160  1  0.60497087  0.80245669  0.19661587  1
  Pd  Pd161  1  0.80855213  0.40757235  0.79905542  1
  Pd  Pd162  1  0.00687746  0.80644688  0.79257634  1
  Pd  Pd163  1  0.38748669  0.60711072  0.21200723  1
  Pd  Pd164  1  -0.00709402  0.80563525  0.00393350  1
  Pd  Pd165  1  0.79805217  0.59864040  0.18892619  1
  Pd  Pd166  1  0.61222953  -0.00126144  0.39941542  1
  Pd  Pd167  1  0.00603104  0.80661571  0.39857236  1
  Pd  Pd168  1  0.00422899  -0.00489440  0.60159936  1
  Pd  Pd169  1  0.19949928  0.19066760  0.59460142  1
  Pd  Pd170  1  0.40416982  0.01121245  0.80459405  1
  Pd  Pd171  1  0.19362183  0.00426997  0.20377025  1
  Pd  Pd172  1  0.19602318  0.00753742  0.59193050  1
  Pd  Pd173  1  0.81351997  0.58532149  0.81016316  1
  Pd  Pd174  1  0.58928760  0.80261678  0.61294426  1
  Pd  Pd175  1  0.80208199  0.00457579  -0.00140857  1
  Pd  Pd176  1  0.19585217  0.00097855  -0.00331841  1
  Pd  Pd177  1  -0.00997306  0.20251767  0.40450771  1
  Pd  Pd178  1  -0.00361898  0.58572653  0.80525226  1
  Pd  Pd179  1  0.00313551  0.20185653  0.60554207  1
  Pd  Pd180  1  0.60164366  0.19677525  0.00572582  1
  Pd  Pd181  1  0.40237513  0.39412734  0.80202793  1
  Pd  Pd182  1  0.19955454  0.59797408  0.79399404  1
  Pd  Pd183  1  0.39454398  -0.00399825  0.59871055  1
  Pd  Pd184  1  0.60000721  0.59402463  0.59271121  1
  Pd  Pd185  1  0.00690547  0.19670093  -0.00592337  1
  Pd  Pd186  1  -0.00100319  0.59680621  0.40639764  1
  Pd  Pd187  1  0.00603423  -0.00295332  0.19717376  1
  Pd  Pd188  1  0.60626724  0.00256561  0.79363158  1
  Pd  Pd189  1  -0.00314650  0.19636713  0.19965249  1
  Pd  Pd190  1  0.59537043  0.20752113  0.41084008  1
  Pd  Pd191  1  0.80482338  0.80358601  0.59480186  1
  Pd  Pd192  1  0.40334273  0.59721148  0.80420452  1
  Pd  Pd193  1  0.20521077  0.79835820  -0.01513032  1
  Pd  Pd194  1  0.20086952  0.39486709  0.00668715  1
  Pd  Pd195  1  0.40525602  0.79631085  0.40538340  1
  Pd  Pd196  1  0.20918571  0.59647630  0.39963384  1
  Pd  Pd197  1  0.19812889  0.59634174  0.00480136  1
  Pd  Pd198  1  0.40745818  0.40325978  -0.00322985  1
  Pd  Pd199  1  0.00932612  0.60852080  0.19479421  1
  Rh  Rh200  1  0.40034554  0.59277102  -0.00366213  1
  Rh  Rh201  1  0.80014190  0.59843596  0.40626507  1
  Rh  Rh202  1  0.20774852  0.19096740  0.40434429  1
  Rh  Rh203  1  0.38827781  0.19517738  0.60118524  1
  Rh  Rh204  1  0.60172392  0.39575675  0.00525082  1
  Rh  Rh205  1  0.60284111  -0.00211522  0.60406934  1
  Rh  Rh206  1  0.79098829  0.01009447  0.21254671  1
  Rh  Rh207  1  -0.00264314  0.00202540  0.80294333  1
  Rh  Rh208  1  0.79601640  0.19511043  -0.00220866  1
  Rh  Rh209  1  0.19237271  0.79593632  0.20589939  1
  Rh  Rh210  1  0.00448854  0.38965684  0.60553457  1
  Rh  Rh211  1  -0.00037879  0.39161141  -0.00715670  1
  Rh  Rh212  1  0.19318660  0.40376466  0.39791291  1
  Rh  Rh213  1  -0.00078407  0.60526775  -0.00454591  1
  Rh  Rh214  1  0.39370346  0.80766426  0.00753842  1
  Rh  Rh215  1  0.39481894  0.00764791  0.39656196  1
  Rh  Rh216  1  0.78482992  0.81580830  0.80985001  1
  Rh  Rh217  1  0.60076701  0.79617806  0.40012783  1
  Rh  Rh218  1  0.59787886  0.20891688  0.19414457  1
  Rh  Rh219  1  0.19974024  0.20488424  0.80802440  1
  Rh  Rh220  1  0.59683349  0.40016453  0.79517131  1
  Rh  Rh221  1  0.80494847  0.40689955  0.38790341  1
  Rh  Rh222  1  0.19984217  0.41033111  0.59859829  1
  Rh  Rh223  1  0.19727203  0.80441025  0.39566157  1
  Rh  Rh224  1  0.20037028  0.00859257  0.39640153  1
  Rh  Rh225  1  0.80016377  -0.00324317  0.60108185  1
  Rh  Rh226  1  0.80615655  0.19018477  0.80637626  1
  Rh  Rh227  1  0.80111092  0.60498027  0.59685377  1
  Rh  Rh228  1  0.79473443  0.81039005  0.41168259  1
  Rh  Rh229  1  0.80617903  0.78860765  0.18517271  1
  Rh  Rh230  1  0.79223522  0.40015203  0.61449595  1
  Rh  Rh231  1  0.58949479  0.60501782  0.80545330  1
  Rh  Rh232  1  0.59401648  0.19345979  0.80034170  1
  Rh  Rh233  1  0.60378767  0.60370051  -0.00668788  1
  Rh  Rh234  1  0.80504395  0.19814848  0.59408576  1
  Rh  Rh235  1  0.39385339  0.60251674  0.59355635  1
  Rh  Rh236  1  0.39637605  0.20469057  0.20625666  1
  Rh  Rh237  1  0.40047939  0.39469635  0.19493245  1
  Rh  Rh238  1  0.59903656  -0.00134598  0.20161059  1
  Rh  Rh239  1  0.58984759  0.00752388  0.01152261  1
  Rh  Rh240  1  0.19556930  -0.01303704  0.80312055  1
  Rh  Rh241  1  0.20429011  0.20484710  0.19178893  1
  Rh  Rh242  1  0.39241042  0.18904795  -0.00997892  1
  Rh  Rh243  1  0.80080839  0.20760329  0.19625849  1
  Rh  Rh244  1  0.40601626  0.39517586  0.40730991  1
  Rh  Rh245  1  0.19529746  0.79171502  0.60258518  1
  Rh  Rh246  1  0.60757854  0.59761924  0.20765623  1
  Rh  Rh247  1  0.00554600  0.60810966  0.58751473  1
  Rh  Rh248  1  0.19445791  0.40277676  0.79749885  1
  Rh  Rh249  1  0.40227887  0.39937232  0.60401588  1
