# generated using pymatgen
data_ZrScNbPdRh
_symmetry_space_group_name_H-M   'P 1'
_cell_length_a   16.56399927
_cell_length_b   16.56144221
_cell_length_c   16.55985099
_cell_angle_alpha   90.00033126
_cell_angle_beta   90.02042170
_cell_angle_gamma   89.99701575
_symmetry_Int_Tables_number   1
_chemical_formula_structural   ZrScNbPdRh
_chemical_formula_sum   'Zr50 Sc50 Nb50 Pd50 Rh50'
_cell_volume   4542.75957640
_cell_formula_units_Z   50
loop_
 _symmetry_equiv_pos_site_id
 _symmetry_equiv_pos_as_xyz
  1  'x, y, z'
loop_
 _atom_site_type_symbol
 _atom_site_label
 _atom_site_symmetry_multiplicity
 _atom_site_fract_x
 _atom_site_fract_y
 _atom_site_fract_z
 _atom_site_occupancy
  Zr  Zr0  1  0.89729224  0.89710766  0.09202051  1
  Zr  Zr1  1  0.89012439  0.49986067  0.30382145  1
  Zr  Zr2  1  0.90887586  0.89725771  0.50127363  1
  Zr  Zr3  1  0.69115132  0.49989509  0.49712510  1
  Zr  Zr4  1  0.69998829  0.30701072  0.30981848  1
  Zr  Zr5  1  0.10288758  0.09898769  0.31037869  1
  Zr  Zr6  1  0.50086548  0.90177687  0.70693308  1
  Zr  Zr7  1  0.70550431  0.69956656  0.29822834  1
  Zr  Zr8  1  0.50843416  0.49677555  0.30350682  1
  Zr  Zr9  1  0.50629874  0.10730946  0.09698415  1
  Zr  Zr10  1  0.89295932  0.70218394  0.09737804  1
  Zr  Zr11  1  0.30215461  0.90480834  0.70392523  1
  Zr  Zr12  1  0.30505682  0.71162024  0.90130799  1
  Zr  Zr13  1  0.49118061  0.30708884  0.69979464  1
  Zr  Zr14  1  0.49613360  0.29813427  0.28875443  1
  Zr  Zr15  1  0.10218319  0.29685501  0.30020799  1
  Zr  Zr16  1  0.30296401  0.71237969  0.29845901  1
  Zr  Zr17  1  0.70044344  0.49881400  0.30380590  1
  Zr  Zr18  1  0.10457052  0.09344650  0.70363754  1
  Zr  Zr19  1  0.30439884  0.70399302  0.10080778  1
  Zr  Zr20  1  0.69940166  0.30187175  0.88704262  1
  Zr  Zr21  1  0.31310903  0.29231772  0.10133105  1
  Zr  Zr22  1  0.50200607  0.69337445  0.50026881  1
  Zr  Zr23  1  0.11043311  0.70669478  0.09731319  1
  Zr  Zr24  1  0.90261708  0.10425240  0.30327144  1
  Zr  Zr25  1  0.69076122  0.90297636  0.29837863  1
  Zr  Zr26  1  0.49673090  0.90093333  0.29732278  1
  Zr  Zr27  1  0.10523651  0.29444648  0.49833967  1
  Zr  Zr28  1  0.69826174  0.70630834  0.09331876  1
  Zr  Zr29  1  0.10450045  0.70350847  0.50226454  1
  Zr  Zr30  1  0.90182986  0.09739285  0.89599205  1
  Zr  Zr31  1  0.69585218  0.10596886  0.90227436  1
  Zr  Zr32  1  0.30210630  0.10088261  0.49435294  1
  Zr  Zr33  1  0.89417607  0.50484394  0.70160107  1
  Zr  Zr34  1  0.89459753  0.29936772  0.30219337  1
  Zr  Zr35  1  0.69028299  0.10460251  0.70514996  1
  Zr  Zr36  1  0.50807056  0.49386993  0.89547008  1
  Zr  Zr37  1  0.10777011  0.70236149  0.30403621  1
  Zr  Zr38  1  0.89776330  0.69555668  0.69583855  1
  Zr  Zr39  1  0.10924882  0.90291848  0.30585328  1
  Zr  Zr40  1  0.29708943  0.69351916  0.49555013  1
  Zr  Zr41  1  0.29256665  0.29687983  0.88745958  1
  Zr  Zr42  1  0.10065600  0.69904797  0.69432374  1
  Zr  Zr43  1  0.10626300  0.30100737  0.09713832  1
  Zr  Zr44  1  0.50206753  0.09457112  0.89788046  1
  Zr  Zr45  1  0.89247308  0.30512546  0.69745866  1
  Zr  Zr46  1  0.90512938  0.70521856  0.50318030  1
  Zr  Zr47  1  0.89664436  0.49856539  0.51045301  1
  Zr  Zr48  1  0.89412518  0.30054258  0.90585344  1
  Zr  Zr49  1  0.69670346  0.30472796  0.50804700  1
  Sc  Sc50  1  0.50480138  0.89889440  0.09820751  1
  Sc  Sc51  1  0.30324406  0.29302637  0.30439160  1
  Sc  Sc52  1  0.49841121  0.49936871  0.50501481  1
  Sc  Sc53  1  0.31185385  0.29681824  0.49508091  1
  Sc  Sc54  1  0.89607080  0.29874006  0.10177685  1
  Sc  Sc55  1  0.50414447  0.90147246  0.49683460  1
  Sc  Sc56  1  0.90367572  0.89274992  0.30912975  1
  Sc  Sc57  1  0.90788792  0.10454730  0.69430722  1
  Sc  Sc58  1  0.69252305  0.69828026  0.89915231  1
  Sc  Sc59  1  0.69663238  0.29035231  0.09909106  1
  Sc  Sc60  1  0.09708835  0.50386652  0.68900239  1
  Sc  Sc61  1  0.69525668  0.49850234  0.70056510  1
  Sc  Sc62  1  0.50080432  0.48458920  0.09719192  1
  Sc  Sc63  1  0.69210230  0.89722634  0.49786031  1
  Sc  Sc64  1  0.30153498  0.50004520  0.10266973  1
  Sc  Sc65  1  0.30343838  0.10057071  0.89991604  1
  Sc  Sc66  1  0.90358843  0.89833916  0.89846671  1
  Sc  Sc67  1  0.29910707  0.70805478  0.69013566  1
  Sc  Sc68  1  0.68967663  0.10526145  0.49991211  1
  Sc  Sc69  1  0.88592840  0.49814118  0.90366233  1
  Sc  Sc70  1  0.49754447  0.30037650  0.50164957  1
  Sc  Sc71  1  0.30265007  0.10568257  0.70816378  1
  Sc  Sc72  1  0.69734422  0.50084084  0.89781432  1
  Sc  Sc73  1  0.68951076  0.89328910  0.69876788  1
  Sc  Sc74  1  0.49652740  0.09400025  0.30034508  1
  Sc  Sc75  1  0.88898033  0.49748831  0.09613222  1
  Sc  Sc76  1  0.49711357  0.10305371  0.49577068  1
  Sc  Sc77  1  0.88289396  0.70036229  0.90297891  1
  Sc  Sc78  1  0.49233243  0.70252313  0.29732631  1
  Sc  Sc79  1  0.30580429  0.09463665  0.09686773  1
  Sc  Sc80  1  0.69610430  0.69706969  0.50414946  1
  Sc  Sc81  1  0.10493745  0.30057645  0.70227211  1
  Sc  Sc82  1  0.30215745  0.49047511  0.89722864  1
  Sc  Sc83  1  0.68987971  0.89425195  0.10090426  1
  Sc  Sc84  1  0.70105952  0.69700415  0.69998153  1
  Sc  Sc85  1  0.89787195  0.29418224  0.50912782  1
  Sc  Sc86  1  0.10598809  0.90398186  0.70095521  1
  Sc  Sc87  1  0.50602850  0.70142711  0.69214965  1
  Sc  Sc88  1  0.10996908  0.48915888  0.90736703  1
  Sc  Sc89  1  0.49763000  0.10673627  0.70454972  1
  Sc  Sc90  1  0.11131836  0.49999141  0.10235912  1
  Sc  Sc91  1  0.11308857  0.70520581  0.90702516  1
  Sc  Sc92  1  0.69234531  0.10454933  0.30238368  1
  Sc  Sc93  1  0.90149903  0.89306481  0.70084312  1
  Sc  Sc94  1  0.29720246  0.50466545  0.30581218  1
  Sc  Sc95  1  0.68411199  0.89547327  0.89713510  1
  Sc  Sc96  1  0.29636742  0.90001590  0.49753708  1
  Sc  Sc97  1  0.10101335  0.90805501  0.90404228  1
  Sc  Sc98  1  0.29768155  0.90256111  0.09963742  1
  Sc  Sc99  1  0.89635579  0.10959153  0.09891116  1
  Nb  Nb100  1  0.30534795  0.48936574  0.70317932  1
  Nb  Nb101  1  0.09595041  0.09461391  0.50577195  1
  Nb  Nb102  1  0.30067781  0.30288646  0.69832684  1
  Nb  Nb103  1  0.09753791  0.90937265  0.49843968  1
  Nb  Nb104  1  0.90889258  0.09316022  0.50261116  1
  Nb  Nb105  1  0.49261641  0.29378515  0.09988605  1
  Nb  Nb106  1  0.49485554  0.70719582  0.90068120  1
  Nb  Nb107  1  0.30386085  0.91241079  0.30101118  1
  Nb  Nb108  1  0.29526337  0.50206893  0.50534840  1
  Nb  Nb109  1  0.32046708  0.89481527  0.89665934  1
  Nb  Nb110  1  0.69681746  0.08990281  0.09637100  1
  Nb  Nb111  1  0.10089187  0.10438791  0.89876001  1
  Nb  Nb112  1  0.10205859  0.29937797  0.89900070  1
  Nb  Nb113  1  0.09784917  0.90434100  0.09937839  1
  Nb  Nb114  1  0.30011133  0.09060186  0.29970879  1
  Nb  Nb115  1  0.69537792  0.30069787  0.69893228  1
  Nb  Nb116  1  0.49331010  0.49826996  0.69989057  1
  Nb  Nb117  1  0.10593900  0.09136583  0.09840694  1
  Nb  Nb118  1  0.49941177  0.70254216  0.10043113  1
  Nb  Nb119  1  0.49649153  0.29875607  0.90466114  1
  Nb  Nb120  1  0.10703859  0.50519270  0.49571410  1
  Nb  Nb121  1  0.09833883  0.49840050  0.30246292  1
  Nb  Nb122  1  0.69578215  0.50866934  0.09916187  1
  Nb  Nb123  1  0.49146989  0.89254868  0.89497657  1
  Nb  Nb124  1  0.90641182  0.69923663  0.30115537  1
  Nb  Nb125  1  0.20318257  0.19951892  0.59894524  1
  Nb  Nb126  1  0.79246193  0.00124579  -0.00085573  1
  Nb  Nb127  1  0.40747908  0.60387220  -0.00509633  1
  Nb  Nb128  1  0.20098577  0.18961361  0.19983573  1
  Nb  Nb129  1  0.00115996  0.60089220  0.00143230  1
  Nb  Nb130  1  0.00315476  0.78858643  0.80097776  1
  Nb  Nb131  1  0.79934939  0.00238700  0.59825801  1
  Nb  Nb132  1  0.00158215  0.40592930  0.20651618  1
  Nb  Nb133  1  -0.00067116  0.60201486  0.20103725  1
  Nb  Nb134  1  0.40012650  0.59924120  0.79888291  1
  Nb  Nb135  1  0.00455505  0.59928378  0.81046226  1
  Nb  Nb136  1  0.00417274  0.80014050  0.19736468  1
  Nb  Nb137  1  0.20790727  0.39976356  0.59707410  1
  Nb  Nb138  1  0.00305974  0.40505493  0.40068044  1
  Nb  Nb139  1  0.20527481  0.59744863  0.79624053  1
  Nb  Nb140  1  0.00143446  -0.00283884  0.19641399  1
  Nb  Nb141  1  0.39832209  0.00155240  0.60233239  1
  Nb  Nb142  1  0.60109831  0.60006677  0.19371157  1
  Nb  Nb143  1  0.01129591  0.19924612  -0.00426514  1
  Nb  Nb144  1  0.00513145  0.20526408  0.80602599  1
  Nb  Nb145  1  -0.00106739  0.39980988  0.80463001  1
  Nb  Nb146  1  0.80129744  0.00076548  0.20044250  1
  Nb  Nb147  1  0.80331405  0.00369110  0.40434270  1
  Nb  Nb148  1  0.00241483  0.59679286  0.39803414  1
  Nb  Nb149  1  0.79501764  0.00125926  0.79686451  1
  Pd  Pd150  1  0.00810415  0.19869954  0.18972637  1
  Pd  Pd151  1  0.39636803  0.59914203  0.60663752  1
  Pd  Pd152  1  -0.00004132  0.40382010  0.00430898  1
  Pd  Pd153  1  0.40096937  0.59530543  0.39843117  1
  Pd  Pd154  1  0.79580369  0.80407749  0.40329326  1
  Pd  Pd155  1  0.59912800  0.20731609  -0.00334111  1
  Pd  Pd156  1  0.78927968  0.19400186  0.19996231  1
  Pd  Pd157  1  0.60600661  0.39059285  0.00309689  1
  Pd  Pd158  1  0.21293137  0.39603023  0.00434920  1
  Pd  Pd159  1  0.20870431  0.59550315  -0.00810624  1
  Pd  Pd160  1  0.39974245  0.80571090  0.40601207  1
  Pd  Pd161  1  0.80503587  0.80942876  0.20418221  1
  Pd  Pd162  1  0.20152635  0.59995911  0.20464807  1
  Pd  Pd163  1  0.58972429  0.20303711  0.60279228  1
  Pd  Pd164  1  0.78581747  0.39664004  0.00605051  1
  Pd  Pd165  1  0.80594483  0.19512486  0.79352569  1
  Pd  Pd166  1  0.40234635  0.40470310  0.40120591  1
  Pd  Pd167  1  0.20323787  0.19563225  0.00469806  1
  Pd  Pd168  1  0.40902103  0.59146830  0.19297879  1
  Pd  Pd169  1  0.40601283  -0.00204508  0.00314959  1
  Pd  Pd170  1  0.79870505  0.60117097  0.19573342  1
  Pd  Pd171  1  0.19649545  0.80184720  0.80269353  1
  Pd  Pd172  1  0.80036063  0.80604277  0.80289032  1
  Pd  Pd173  1  0.40478800  0.80845799  0.59480797  1
  Pd  Pd174  1  0.59661550  0.79221034  0.39598533  1
  Pd  Pd175  1  0.79173505  0.80655570  0.59770384  1
  Pd  Pd176  1  0.79655231  0.19039148  0.59829952  1
  Pd  Pd177  1  0.20842983  -0.00431722  -0.00935817  1
  Pd  Pd178  1  0.00951928  0.39618569  0.59971322  1
  Pd  Pd179  1  0.20821231  -0.00293847  0.81197637  1
  Pd  Pd180  1  0.59559041  0.00273549  0.59809753  1
  Pd  Pd181  1  0.79619864  0.39784580  0.19187140  1
  Pd  Pd182  1  0.60319559  0.19875889  0.20295855  1
  Pd  Pd183  1  -0.00311684  -0.00746120  0.61055295  1
  Pd  Pd184  1  0.00269989  0.79226935  -0.00551431  1
  Pd  Pd185  1  0.59241803  0.60154031  0.00324187  1
  Pd  Pd186  1  0.59084832  0.20609207  0.39708612  1
  Pd  Pd187  1  0.79932987  0.19469062  0.41283855  1
  Pd  Pd188  1  0.59387326  0.60354424  0.79454416  1
  Pd  Pd189  1  0.20626444  0.39266735  0.20366772  1
  Pd  Pd190  1  -0.00664468  0.00805453  0.00430992  1
  Pd  Pd191  1  0.20208667  0.81071330  0.19895819  1
  Pd  Pd192  1  -0.00400249  0.20523309  0.40809761  1
  Pd  Pd193  1  0.20340111  0.39808457  0.40359204  1
  Pd  Pd194  1  0.39257500  0.40555115  0.20630770  1
  Pd  Pd195  1  0.60702472  0.39928111  0.19202291  1
  Pd  Pd196  1  0.39579258  0.39999545  -0.00522697  1
  Pd  Pd197  1  0.19771104  0.81067509  0.59510930  1
  Pd  Pd198  1  0.80409327  0.60580813  0.41065629  1
  Pd  Pd199  1  0.40748134  0.00061768  0.19005438  1
  Rh  Rh200  1  0.00943358  0.79607152  0.39945509  1
  Rh  Rh201  1  0.80493767  0.39392453  0.41318673  1
  Rh  Rh202  1  0.59491883  0.78935616  0.20432225  1
  Rh  Rh203  1  0.39523040  0.40156350  0.59230674  1
  Rh  Rh204  1  0.20792859  0.81654992  -0.00419364  1
  Rh  Rh205  1  0.20134623  -0.00042171  0.40822134  1
  Rh  Rh206  1  0.18839966  0.40920277  0.78802565  1
  Rh  Rh207  1  0.59698429  0.39540987  0.79428709  1
  Rh  Rh208  1  0.59493820  0.79236330  0.79938777  1
  Rh  Rh209  1  -0.00431261  -0.00244951  0.79746562  1
  Rh  Rh210  1  0.01087676  0.19975194  0.60633105  1
  Rh  Rh211  1  0.60023551  -0.00102112  0.80225862  1
  Rh  Rh212  1  0.58949071  0.21046329  0.80075663  1
  Rh  Rh213  1  0.40150835  -0.00375272  0.40639944  1
  Rh  Rh214  1  0.20485216  0.80743045  0.40376116  1
  Rh  Rh215  1  0.40431606  0.79018764  0.78594755  1
  Rh  Rh216  1  0.20453516  0.19305204  0.40104876  1
  Rh  Rh217  1  0.19595273  0.19844273  0.79290220  1
  Rh  Rh218  1  0.59298523  0.80008470  -0.00430430  1
  Rh  Rh219  1  0.40399785  0.80097053  0.01095724  1
  Rh  Rh220  1  0.59866758  0.79713442  0.59861793  1
  Rh  Rh221  1  0.40479438  0.39843885  0.80741468  1
  Rh  Rh222  1  0.59952462  0.59427786  0.60346847  1
  Rh  Rh223  1  0.59721749  0.60751055  0.38969945  1
  Rh  Rh224  1  0.78670702  0.81106346  -0.00773255  1
  Rh  Rh225  1  0.40535242  0.19796730  0.38977723  1
  Rh  Rh226  1  0.60349450  0.00262752  0.39967763  1
  Rh  Rh227  1  0.20184853  0.60185230  0.39565971  1
  Rh  Rh228  1  0.40185692  0.00474966  0.79568490  1
  Rh  Rh229  1  0.79763352  0.59940647  -0.00181459  1
  Rh  Rh230  1  0.20939422  0.59186004  0.60894324  1
  Rh  Rh231  1  0.59749646  -0.00621922  -0.00503716  1
  Rh  Rh232  1  0.59218735  0.39337254  0.40422770  1
  Rh  Rh233  1  0.39833864  0.81067040  0.19720783  1
  Rh  Rh234  1  -0.00398389  -0.00140553  0.39393707  1
  Rh  Rh235  1  0.00922100  0.80694150  0.60669780  1
  Rh  Rh236  1  0.79953671  0.19546100  0.00088628  1
  Rh  Rh237  1  0.60030267  0.00372953  0.20015105  1
  Rh  Rh238  1  0.39432937  0.19416865  0.60198502  1
  Rh  Rh239  1  0.00051896  0.60069518  0.59315068  1
  Rh  Rh240  1  0.79106358  0.59946197  0.59777373  1
  Rh  Rh241  1  0.19701275  0.00253809  0.20093880  1
  Rh  Rh242  1  0.20730832  0.00771895  0.59348837  1
  Rh  Rh243  1  0.59572910  0.40225003  0.60511914  1
  Rh  Rh244  1  0.40309103  0.20554281  0.80541715  1
  Rh  Rh245  1  0.79890560  0.40324339  0.79404044  1
  Rh  Rh246  1  0.40069069  0.19855092  -0.00744974  1
  Rh  Rh247  1  0.78918618  0.40308328  0.60276269  1
  Rh  Rh248  1  0.39435780  0.18852566  0.20318415  1
  Rh  Rh249  1  0.79793231  0.59891873  0.80142830  1
