# generated using pymatgen
data_ZrScNbPdRh
_symmetry_space_group_name_H-M   'P 1'
_cell_length_a   16.56172479
_cell_length_b   16.56181990
_cell_length_c   16.56125011
_cell_angle_alpha   89.99614096
_cell_angle_beta   89.97678211
_cell_angle_gamma   89.99577118
_symmetry_Int_Tables_number   1
_chemical_formula_structural   ZrScNbPdRh
_chemical_formula_sum   'Zr50 Sc50 Nb50 Pd50 Rh50'
_cell_volume   4542.62304306
_cell_formula_units_Z   50
loop_
 _symmetry_equiv_pos_site_id
 _symmetry_equiv_pos_as_xyz
  1  'x, y, z'
loop_
 _atom_site_type_symbol
 _atom_site_label
 _atom_site_symmetry_multiplicity
 _atom_site_fract_x
 _atom_site_fract_y
 _atom_site_fract_z
 _atom_site_occupancy
  Zr  Zr0  1  0.50595509  0.29818505  0.88833554  1
  Zr  Zr1  1  0.29901129  0.30815188  0.09979613  1
  Zr  Zr2  1  0.69173630  0.49670679  0.89872456  1
  Zr  Zr3  1  0.09746330  0.70414855  0.50772494  1
  Zr  Zr4  1  0.10844670  0.30863720  0.69545522  1
  Zr  Zr5  1  0.50190375  0.50967542  0.09242564  1
  Zr  Zr6  1  0.49890603  0.29994032  0.69546440  1
  Zr  Zr7  1  0.50042647  0.10540133  0.10600992  1
  Zr  Zr8  1  0.89783461  0.29841012  0.50372310  1
  Zr  Zr9  1  0.50404686  0.10432264  0.50615550  1
  Zr  Zr10  1  0.88813330  0.89869315  0.90388822  1
  Zr  Zr11  1  0.49921199  0.70203682  0.48735874  1
  Zr  Zr12  1  0.70074552  0.49682792  0.29697667  1
  Zr  Zr13  1  0.70280018  0.29843014  0.70663230  1
  Zr  Zr14  1  0.50474240  0.10937251  0.29989813  1
  Zr  Zr15  1  0.50535164  0.89040133  0.10168927  1
  Zr  Zr16  1  0.90595130  0.70150173  0.10174815  1
  Zr  Zr17  1  0.89794493  0.09892833  0.50196875  1
  Zr  Zr18  1  0.90789782  0.89677284  0.28915656  1
  Zr  Zr19  1  0.29939771  0.10312768  0.10166262  1
  Zr  Zr20  1  0.10059851  0.49590540  0.30263542  1
  Zr  Zr21  1  0.49866750  0.88420573  0.30600677  1
  Zr  Zr22  1  0.49982017  0.10309917  0.70498972  1
  Zr  Zr23  1  0.30619331  0.69328481  0.09838935  1
  Zr  Zr24  1  0.29780018  0.68802522  0.50119321  1
  Zr  Zr25  1  0.71152458  0.89661288  0.09310335  1
  Zr  Zr26  1  0.29422649  0.49724964  0.91069001  1
  Zr  Zr27  1  0.69851009  0.89865794  0.29258358  1
  Zr  Zr28  1  0.10018725  0.69028019  0.89308806  1
  Zr  Zr29  1  0.09571130  0.10298232  0.10357063  1
  Zr  Zr30  1  0.10023766  0.50000365  0.50608197  1
  Zr  Zr31  1  0.09706788  0.49699452  0.70609456  1
  Zr  Zr32  1  0.90085847  0.10110716  0.30096469  1
  Zr  Zr33  1  0.09145253  0.50312998  0.09335215  1
  Zr  Zr34  1  0.89665855  0.09986301  0.69590381  1
  Zr  Zr35  1  0.09250032  0.09947386  0.30320915  1
  Zr  Zr36  1  0.89528835  0.89700085  0.70109601  1
  Zr  Zr37  1  0.09127454  0.30218222  0.10519639  1
  Zr  Zr38  1  0.30589075  0.69966147  0.29741931  1
  Zr  Zr39  1  0.90207600  0.49786216  0.29917378  1
  Zr  Zr40  1  0.69812553  0.49411191  0.09767945  1
  Zr  Zr41  1  0.29741240  0.50495298  0.10443770  1
  Zr  Zr42  1  0.89944082  0.69969951  0.89607531  1
  Zr  Zr43  1  0.10003853  0.90238628  0.30638356  1
  Zr  Zr44  1  0.29522444  0.31534471  0.30548086  1
  Zr  Zr45  1  0.49350507  0.29987304  0.50380211  1
  Zr  Zr46  1  0.69190730  0.69780685  0.09144795  1
  Zr  Zr47  1  0.69317427  0.69551946  0.30569870  1
  Zr  Zr48  1  0.50215342  0.49871600  0.29448254  1
  Zr  Zr49  1  0.70209054  0.09177224  0.68685532  1
  Sc  Sc50  1  0.49337015  0.89739791  0.88799260  1
  Sc  Sc51  1  0.29700702  0.88682505  0.09465311  1
  Sc  Sc52  1  0.71187559  0.09662696  0.89750440  1
  Sc  Sc53  1  0.70219907  0.69637817  0.89411329  1
  Sc  Sc54  1  0.70131099  0.30312207  0.29959115  1
  Sc  Sc55  1  0.10006553  0.89823039  0.10522764  1
  Sc  Sc56  1  0.70589319  0.89572821  0.89968437  1
  Sc  Sc57  1  0.49341028  0.68534656  0.70668101  1
  Sc  Sc58  1  0.50167611  0.30675861  0.10980085  1
  Sc  Sc59  1  0.09785692  0.30737316  0.89058829  1
  Sc  Sc60  1  0.89963674  0.69677844  0.70454297  1
  Sc  Sc61  1  0.70830948  0.30331005  0.10204989  1
  Sc  Sc62  1  0.70261974  0.10110252  0.10813700  1
  Sc  Sc63  1  0.10745329  0.69359169  0.10182995  1
  Sc  Sc64  1  0.70882691  0.30197399  0.89872043  1
  Sc  Sc65  1  0.89839874  0.11071745  0.10017458  1
  Sc  Sc66  1  0.29452012  0.69913589  0.70366682  1
  Sc  Sc67  1  0.70263749  0.11396028  0.29466530  1
  Sc  Sc68  1  0.09658879  0.70220176  0.29985481  1
  Sc  Sc69  1  0.09552529  0.89799282  0.49579670  1
  Sc  Sc70  1  0.69945574  0.29233618  0.49669645  1
  Sc  Sc71  1  0.29357321  0.09252186  0.89175907  1
  Sc  Sc72  1  0.91258360  0.90274806  0.50811990  1
  Sc  Sc73  1  0.90396801  0.69460131  0.50070087  1
  Sc  Sc74  1  0.49561038  0.49746805  0.50664810  1
  Sc  Sc75  1  0.90703450  0.70087235  0.30228524  1
  Sc  Sc76  1  0.29419997  0.89442844  0.49298668  1
  Sc  Sc77  1  0.30376493  0.11242376  0.50428716  1
  Sc  Sc78  1  0.11313598  0.90109941  0.90118534  1
  Sc  Sc79  1  0.49861003  0.90094453  0.50000426  1
  Sc  Sc80  1  0.90437446  0.29802211  0.71403470  1
  Sc  Sc81  1  0.30382468  0.90262606  0.70724524  1
  Sc  Sc82  1  0.49669721  0.91462235  0.69890798  1
  Sc  Sc83  1  0.69660778  0.50856776  0.70086573  1
  Sc  Sc84  1  0.69275106  0.90537546  0.50608277  1
  Sc  Sc85  1  0.49707897  0.69422600  0.29534261  1
  Sc  Sc86  1  0.10630459  0.10587041  0.70324284  1
  Sc  Sc87  1  0.49607005  0.69291262  0.90070136  1
  Sc  Sc88  1  0.50423546  0.49717499  0.69956731  1
  Sc  Sc89  1  0.09126849  0.89229293  0.68969063  1
  Sc  Sc90  1  0.89586388  0.30245450  0.30009396  1
  Sc  Sc91  1  0.10175727  0.10457370  0.90335729  1
  Sc  Sc92  1  0.70314884  0.50581473  0.50405138  1
  Sc  Sc93  1  0.69729321  0.68811065  0.50133285  1
  Sc  Sc94  1  0.90568085  0.50353708  0.49974003  1
  Sc  Sc95  1  0.29863410  0.11235000  0.30159274  1
  Sc  Sc96  1  0.30282429  0.10412319  0.69876655  1
  Sc  Sc97  1  0.30047596  0.70605435  0.89667433  1
  Sc  Sc98  1  0.50732847  0.30186302  0.30521775  1
  Sc  Sc99  1  0.29872161  0.50193275  0.69079577  1
  Nb  Nb100  1  0.69839829  0.89856454  0.69820954  1
  Nb  Nb101  1  0.90129406  0.29164227  0.90774238  1
  Nb  Nb102  1  0.09966776  0.30105227  0.30401261  1
  Nb  Nb103  1  0.49877722  0.09887598  0.90023352  1
  Nb  Nb104  1  0.90450984  0.10479474  0.90128652  1
  Nb  Nb105  1  0.89871635  0.31277715  0.08992263  1
  Nb  Nb106  1  0.90045301  0.89841690  0.09700032  1
  Nb  Nb107  1  0.70025329  0.69439251  0.69650695  1
  Nb  Nb108  1  0.29455113  0.30751540  0.51156154  1
  Nb  Nb109  1  0.70607352  0.09925825  0.49647587  1
  Nb  Nb110  1  0.49741900  0.69430596  0.09799468  1
  Nb  Nb111  1  0.09514983  0.50224984  0.90074707  1
  Nb  Nb112  1  0.50025930  0.49784975  0.89555761  1
  Nb  Nb113  1  0.10229239  0.30323813  0.50562441  1
  Nb  Nb114  1  0.90160354  0.49313178  0.09630096  1
  Nb  Nb115  1  0.10258290  0.69819107  0.69752896  1
  Nb  Nb116  1  0.29747557  0.49652962  0.49120411  1
  Nb  Nb117  1  0.29648543  0.30299545  0.69884166  1
  Nb  Nb118  1  0.89966551  0.49333966  0.69688990  1
  Nb  Nb119  1  0.30026554  0.30410549  0.89985220  1
  Nb  Nb120  1  0.30142185  0.89918003  0.29864205  1
  Nb  Nb121  1  0.09590997  0.09750125  0.49859723  1
  Nb  Nb122  1  0.30525687  0.90075148  0.89769313  1
  Nb  Nb123  1  0.91020057  0.49334451  0.90510576  1
  Nb  Nb124  1  0.29754972  0.50749505  0.30761962  1
  Nb  Nb125  1  0.59748560  0.79484727  0.60680187  1
  Nb  Nb126  1  0.19090053  0.21066612  0.40692121  1
  Nb  Nb127  1  0.80362614  0.40092541  0.60635987  1
  Nb  Nb128  1  -0.00105833  0.80319662  -0.00233932  1
  Nb  Nb129  1  0.20600080  -0.00128943  0.20649351  1
  Nb  Nb130  1  0.80739583  0.59066876  0.00202152  1
  Nb  Nb131  1  0.80133519  0.59600932  0.19336433  1
  Nb  Nb132  1  0.39452729  0.39680441  0.80163384  1
  Nb  Nb133  1  -0.00483613  0.00132318  0.80671588  1
  Nb  Nb134  1  0.19638108  0.00402823  0.59391203  1
  Nb  Nb135  1  0.59494657  0.00285884  -0.00112070  1
  Nb  Nb136  1  0.40311305  0.79570827  0.60051781  1
  Nb  Nb137  1  0.60143385  0.00561737  0.39733433  1
  Nb  Nb138  1  0.59497020  0.19468205  -0.00273094  1
  Nb  Nb139  1  0.00766643  0.20182921  0.59662274  1
  Nb  Nb140  1  -0.00757433  -0.00231032  -0.00225735  1
  Nb  Nb141  1  0.39968215  0.20060981  -0.00719651  1
  Nb  Nb142  1  0.20535602  0.20824771  0.00040573  1
  Nb  Nb143  1  0.79857315  0.80527105  0.40495139  1
  Nb  Nb144  1  0.79707988  -0.00306528  0.39854358  1
  Nb  Nb145  1  0.79257418  0.79695726  0.60144500  1
  Nb  Nb146  1  0.40206125  0.00134460  0.00139545  1
  Nb  Nb147  1  0.40283783  0.00163925  0.39238903  1
  Nb  Nb148  1  0.60293221  0.79782468  0.78721326  1
  Nb  Nb149  1  0.39750938  -0.00626185  0.20271607  1
  Pd  Pd150  1  0.19805783  0.20084508  0.20448467  1
  Pd  Pd151  1  0.38847585  -0.00647019  0.58941845  1
  Pd  Pd152  1  0.39116346  0.58857566  0.80462057  1
  Pd  Pd153  1  0.20596751  0.59330061  0.79918168  1
  Pd  Pd154  1  0.41132264  0.39558178  -0.00484616  1
  Pd  Pd155  1  0.20244265  0.20388283  0.80566641  1
  Pd  Pd156  1  0.19531241  0.40837110  0.19870882  1
  Pd  Pd157  1  0.39822882  0.21017004  0.20325166  1
  Pd  Pd158  1  0.39139017  0.20177467  0.80040702  1
  Pd  Pd159  1  0.59298889  0.58729511  0.40439045  1
  Pd  Pd160  1  0.59452269  0.80383686  -0.01651118  1
  Pd  Pd161  1  0.80469205  0.00469584  0.20021326  1
  Pd  Pd162  1  0.40443913  0.80165899  -0.00541579  1
  Pd  Pd163  1  0.80211345  0.00276724  0.79849718  1
  Pd  Pd164  1  0.79826164  0.78749097  0.20495579  1
  Pd  Pd165  1  0.79728860  0.40146686  0.41059917  1
  Pd  Pd166  1  0.59625757  -0.00091805  0.20079591  1
  Pd  Pd167  1  0.40373978  0.40290094  0.40214567  1
  Pd  Pd168  1  0.00098001  0.20667788  0.40500508  1
  Pd  Pd169  1  0.59953495  0.78911430  0.19907818  1
  Pd  Pd170  1  0.19171899  -0.00695240  0.78776722  1
  Pd  Pd171  1  0.00788082  0.80784633  0.80576484  1
  Pd  Pd172  1  0.19739141  0.80552380  0.79476454  1
  Pd  Pd173  1  0.61308547  0.19032837  0.80387511  1
  Pd  Pd174  1  0.60474821  -0.00478596  0.80725214  1
  Pd  Pd175  1  0.00016492  0.39844706  0.40244550  1
  Pd  Pd176  1  0.20095158  0.79121004  0.39886856  1
  Pd  Pd177  1  0.18745047  0.39645612  0.00007581  1
  Pd  Pd178  1  -0.00181874  0.60258681  0.60744060  1
  Pd  Pd179  1  0.20833381  0.80724017  0.60487846  1
  Pd  Pd180  1  0.19838738  0.80094279  0.20236072  1
  Pd  Pd181  1  0.61235011  0.40058064  0.59911718  1
  Pd  Pd182  1  0.79224847  0.19794281  0.00333794  1
  Pd  Pd183  1  -0.00095787  0.59764745  0.20198858  1
  Pd  Pd184  1  0.80652315  0.60566980  0.39556612  1
  Pd  Pd185  1  0.21036518  0.01166298  0.40260633  1
  Pd  Pd186  1  -0.00488650  0.59473101  0.79387587  1
  Pd  Pd187  1  -0.01138359  0.20939757  0.20055173  1
  Pd  Pd188  1  0.40022239  0.40604282  0.20292658  1
  Pd  Pd189  1  0.60308067  0.40244932  0.40860307  1
  Pd  Pd190  1  0.20035714  0.00386231  0.00736381  1
  Pd  Pd191  1  0.80570733  0.40553932  0.80162990  1
  Pd  Pd192  1  0.80283726  0.59015927  0.80444923  1
  Pd  Pd193  1  0.40136314  0.60076580  0.59838720  1
  Pd  Pd194  1  0.60583898  0.20159349  0.59977813  1
  Pd  Pd195  1  0.00526390  0.19734683  0.79644187  1
  Pd  Pd196  1  0.19131406  0.60671160  0.39745169  1
  Pd  Pd197  1  0.59628073  0.38763693  0.00045959  1
  Pd  Pd198  1  0.19504589  0.79242493  -0.00330524  1
  Pd  Pd199  1  0.39321625  0.20535553  0.40119817  1
  Rh  Rh200  1  0.39837572  0.59981156  -0.00582408  1
  Rh  Rh201  1  0.60731953  0.21244910  0.19388887  1
  Rh  Rh202  1  -0.00815481  0.39189992  0.60354693  1
  Rh  Rh203  1  0.80103467  0.00932927  0.00751475  1
  Rh  Rh204  1  0.00676856  0.20232394  -0.00121593  1
  Rh  Rh205  1  0.61163656  0.80665210  0.40783577  1
  Rh  Rh206  1  0.79983769  0.19555882  0.79988129  1
  Rh  Rh207  1  -0.00625895  0.80121371  0.40324662  1
  Rh  Rh208  1  0.19859325  0.60335112  -0.00303079  1
  Rh  Rh209  1  -0.01031258  -0.00408056  0.39772365  1
  Rh  Rh210  1  0.40317714  0.59283496  0.39738184  1
  Rh  Rh211  1  -0.00296055  0.39752247  0.20378572  1
  Rh  Rh212  1  0.79939282  0.19508620  0.39637650  1
  Rh  Rh213  1  0.19629012  0.39875541  0.40630118  1
  Rh  Rh214  1  0.39079334  0.79933200  0.40709950  1
  Rh  Rh215  1  -0.00392455  0.39974899  0.80464501  1
  Rh  Rh216  1  0.60112334  0.39963642  0.19901975  1
  Rh  Rh217  1  0.00818009  0.79975034  0.19290697  1
  Rh  Rh218  1  0.80581374  0.21064785  0.19727751  1
  Rh  Rh219  1  0.80006303  -0.01094246  0.59129448  1
  Rh  Rh220  1  0.39690912  0.20544423  0.60569826  1
  Rh  Rh221  1  0.59103728  0.60418898  0.59735149  1
  Rh  Rh222  1  0.01158575  0.01145016  0.61236802  1
  Rh  Rh223  1  0.60058712  0.60105035  -0.00822662  1
  Rh  Rh224  1  0.19574798  0.59675687  0.60186212  1
  Rh  Rh225  1  0.60375622  0.19842693  0.40271778  1
  Rh  Rh226  1  0.59708340  0.00036160  0.59562792  1
  Rh  Rh227  1  0.19633259  0.19436336  0.59394652  1
  Rh  Rh228  1  0.59548431  0.40382731  0.79526069  1
  Rh  Rh229  1  0.60311304  0.60191004  0.19732995  1
  Rh  Rh230  1  0.80552188  0.40302451  0.19992873  1
  Rh  Rh231  1  0.40617478  0.79986889  0.79159285  1
  Rh  Rh232  1  0.39304663  0.40015861  0.60510942  1
  Rh  Rh233  1  0.80755124  0.59590430  0.60279093  1
  Rh  Rh234  1  0.00473063  0.39260228  -0.00801650  1
  Rh  Rh235  1  0.59832425  0.60405176  0.80253470  1
  Rh  Rh236  1  0.00365423  -0.00153141  0.19224505  1
  Rh  Rh237  1  0.80410457  0.21002489  0.60644355  1
  Rh  Rh238  1  -0.00300080  0.60704023  -0.00277983  1
  Rh  Rh239  1  0.40077490  0.59542016  0.20198229  1
  Rh  Rh240  1  0.19885947  0.59573331  0.20580416  1
  Rh  Rh241  1  0.40026366  0.79805231  0.19423996  1
  Rh  Rh242  1  0.80187725  0.40340770  -0.00928287  1
  Rh  Rh243  1  0.80516492  0.78631463  0.00145955  1
  Rh  Rh244  1  0.39653542  0.00391248  0.80444812  1
  Rh  Rh245  1  0.20384277  0.41111951  0.59907093  1
  Rh  Rh246  1  -0.00911640  0.78869316  0.60265494  1
  Rh  Rh247  1  0.78905334  0.79570406  0.79088679  1
  Rh  Rh248  1  0.20628201  0.40820418  0.79973425  1
  Rh  Rh249  1  0.00693395  0.60068235  0.40059654  1
