# generated using pymatgen
data_ZrScNbPdRh
_symmetry_space_group_name_H-M   'P 1'
_cell_length_a   16.55936784
_cell_length_b   16.56449179
_cell_length_c   16.55896306
_cell_angle_alpha   90.02364983
_cell_angle_beta   90.01060845
_cell_angle_gamma   90.01473461
_symmetry_Int_Tables_number   1
_chemical_formula_structural   ZrScNbPdRh
_chemical_formula_sum   'Zr50 Sc50 Nb50 Pd50 Rh50'
_cell_volume   4542.08176365
_cell_formula_units_Z   50
loop_
 _symmetry_equiv_pos_site_id
 _symmetry_equiv_pos_as_xyz
  1  'x, y, z'
loop_
 _atom_site_type_symbol
 _atom_site_label
 _atom_site_symmetry_multiplicity
 _atom_site_fract_x
 _atom_site_fract_y
 _atom_site_fract_z
 _atom_site_occupancy
  Zr  Zr0  1  0.10252416  0.09583025  0.30646251  1
  Zr  Zr1  1  0.09342550  0.70708334  0.09313326  1
  Zr  Zr2  1  0.90073541  0.90968922  0.69896478  1
  Zr  Zr3  1  0.30514951  0.28624066  0.50250046  1
  Zr  Zr4  1  0.49635193  0.29507441  0.10614543  1
  Zr  Zr5  1  0.69987003  0.89824235  0.89924115  1
  Zr  Zr6  1  0.50071914  0.09942514  0.09421002  1
  Zr  Zr7  1  0.49839044  0.70602526  0.89458907  1
  Zr  Zr8  1  0.89853723  0.29450009  0.70363762  1
  Zr  Zr9  1  0.10373529  0.09713924  0.09581196  1
  Zr  Zr10  1  0.50030814  0.71266176  0.09269478  1
  Zr  Zr11  1  0.69019662  0.09851500  0.89530385  1
  Zr  Zr12  1  0.90632295  0.10104676  0.50123573  1
  Zr  Zr13  1  0.89853893  0.50340049  0.49882760  1
  Zr  Zr14  1  0.50640576  0.90599402  0.29571340  1
  Zr  Zr15  1  0.10548392  0.70238263  0.29338086  1
  Zr  Zr16  1  0.10928061  0.90910255  0.49906628  1
  Zr  Zr17  1  0.49843580  0.50626745  0.69188005  1
  Zr  Zr18  1  0.29969817  0.69527534  0.30178496  1
  Zr  Zr19  1  0.70663405  0.10790164  0.09609023  1
  Zr  Zr20  1  0.28966368  0.50193214  0.10626433  1
  Zr  Zr21  1  0.30276004  0.10186044  0.09770530  1
  Zr  Zr22  1  0.30221588  0.30404510  0.89481350  1
  Zr  Zr23  1  0.09684093  0.49995251  0.89456658  1
  Zr  Zr24  1  0.70243435  0.70111929  0.50327740  1
  Zr  Zr25  1  0.89934512  0.69836815  0.49689726  1
  Zr  Zr26  1  0.29509672  0.50465524  0.30409402  1
  Zr  Zr27  1  0.69921681  0.09248319  0.29827569  1
  Zr  Zr28  1  0.90203974  0.70266660  0.69472495  1
  Zr  Zr29  1  0.68768703  0.90306683  0.69365274  1
  Zr  Zr30  1  0.69927258  0.90581417  0.10653956  1
  Zr  Zr31  1  0.30248580  0.90215948  0.88956001  1
  Zr  Zr32  1  0.70342800  0.49519174  0.70132654  1
  Zr  Zr33  1  0.89454691  0.09757518  0.90000056  1
  Zr  Zr34  1  0.69878579  0.50307637  0.90445037  1
  Zr  Zr35  1  0.29625795  0.70309601  0.88725299  1
  Zr  Zr36  1  0.49670762  0.50318262  0.31109400  1
  Zr  Zr37  1  0.89704414  0.10090030  0.10395463  1
  Zr  Zr38  1  0.89345449  0.29402681  0.10193179  1
  Zr  Zr39  1  0.69830036  0.70281286  0.91035492  1
  Zr  Zr40  1  0.69031944  0.30650680  0.10267585  1
  Zr  Zr41  1  0.90338676  0.29207978  0.50250116  1
  Zr  Zr42  1  0.49937424  0.90293520  0.90440646  1
  Zr  Zr43  1  0.30959914  0.09958977  0.89674503  1
  Zr  Zr44  1  0.70894731  0.29759258  0.70132127  1
  Zr  Zr45  1  0.90427043  0.70480212  0.29936851  1
  Zr  Zr46  1  0.09460941  0.30295657  0.89115451  1
  Zr  Zr47  1  0.89271994  0.69357808  0.10329408  1
  Zr  Zr48  1  0.89885631  0.70288538  0.90599328  1
  Zr  Zr49  1  0.50022661  0.49489941  0.50306472  1
  Sc  Sc50  1  0.10901449  0.70169837  0.69434939  1
  Sc  Sc51  1  0.08996609  0.50216010  0.10653329  1
  Sc  Sc52  1  0.70577236  0.29808086  0.50238854  1
  Sc  Sc53  1  0.10483220  0.89924859  0.90269757  1
  Sc  Sc54  1  0.49500849  0.10413724  0.49772289  1
  Sc  Sc55  1  0.29275118  0.71193426  0.10202180  1
  Sc  Sc56  1  0.89198880  0.90604221  0.29985144  1
  Sc  Sc57  1  0.69847170  0.50165255  0.50546938  1
  Sc  Sc58  1  0.11312852  0.89832570  0.09875958  1
  Sc  Sc59  1  0.49208468  0.30548538  0.69947317  1
  Sc  Sc60  1  0.70415807  0.10050273  0.49586662  1
  Sc  Sc61  1  0.50543563  0.29800020  0.30749545  1
  Sc  Sc62  1  0.51383973  0.48628681  0.09197068  1
  Sc  Sc63  1  0.70459941  0.29024327  0.89501686  1
  Sc  Sc64  1  0.49604037  0.29687765  0.89982372  1
  Sc  Sc65  1  0.10933595  0.90460291  0.69411613  1
  Sc  Sc66  1  0.29937563  0.29179379  0.70276281  1
  Sc  Sc67  1  0.10497692  0.90408077  0.30062730  1
  Sc  Sc68  1  0.69709599  0.10080129  0.70489516  1
  Sc  Sc69  1  0.89488662  0.89955769  0.09650773  1
  Sc  Sc70  1  0.90777238  0.51261182  0.30145945  1
  Sc  Sc71  1  0.90105276  0.91225686  0.49999242  1
  Sc  Sc72  1  0.10412926  0.70244949  0.50730835  1
  Sc  Sc73  1  0.89195740  0.90306150  0.90093180  1
  Sc  Sc74  1  0.30026831  0.09872100  0.30687731  1
  Sc  Sc75  1  0.30715206  0.29228774  0.30053127  1
  Sc  Sc76  1  0.10489704  0.09762143  0.89504459  1
  Sc  Sc77  1  0.10382097  0.50305544  0.29531370  1
  Sc  Sc78  1  0.29303841  0.69569486  0.50234381  1
  Sc  Sc79  1  0.09222405  0.30484970  0.10698639  1
  Sc  Sc80  1  0.69014332  0.69780697  0.70888266  1
  Sc  Sc81  1  0.68931458  0.49803588  0.30549719  1
  Sc  Sc82  1  0.50043935  0.68736192  0.50976088  1
  Sc  Sc83  1  0.10141795  0.09989934  0.69888746  1
  Sc  Sc84  1  0.49426876  0.48990599  0.89930636  1
  Sc  Sc85  1  0.89837975  0.09916295  0.30521752  1
  Sc  Sc86  1  0.29539278  0.10133122  0.50426253  1
  Sc  Sc87  1  0.89505510  0.49428087  0.70068833  1
  Sc  Sc88  1  0.28874038  0.89674616  0.29653931  1
  Sc  Sc89  1  0.71348252  0.70220184  0.30651626  1
  Sc  Sc90  1  0.90645340  0.28766532  0.29642495  1
  Sc  Sc91  1  0.30410715  0.29412605  0.09615335  1
  Sc  Sc92  1  0.50308634  0.10713758  0.30131543  1
  Sc  Sc93  1  0.90467118  0.49967629  0.89381563  1
  Sc  Sc94  1  0.10014455  0.50721075  0.49676355  1
  Sc  Sc95  1  0.09975761  0.49596785  0.70549897  1
  Sc  Sc96  1  0.09533767  0.29632962  0.30330844  1
  Sc  Sc97  1  0.50217082  0.09249781  0.70852689  1
  Sc  Sc98  1  0.30834077  0.50653893  0.50021180  1
  Sc  Sc99  1  0.09817520  0.28956552  0.70388080  1
  Nb  Nb100  1  0.30057217  0.08121974  0.70232576  1
  Nb  Nb101  1  0.90273617  0.10503065  0.69738913  1
  Nb  Nb102  1  0.10487291  0.10913481  0.49661671  1
  Nb  Nb103  1  0.69901490  0.30051356  0.29949659  1
  Nb  Nb104  1  0.69659172  0.90573848  0.30396635  1
  Nb  Nb105  1  0.30478443  0.90501076  0.09663421  1
  Nb  Nb106  1  0.29524786  0.49868176  0.89760074  1
  Nb  Nb107  1  0.09723701  0.70321614  0.89907602  1
  Nb  Nb108  1  0.49489031  0.90025273  0.10023302  1
  Nb  Nb109  1  0.90037261  0.30013042  0.89707962  1
  Nb  Nb110  1  0.30982274  0.70083898  0.70218828  1
  Nb  Nb111  1  0.50240533  0.89590820  0.50840116  1
  Nb  Nb112  1  0.70021729  0.69314711  0.09763979  1
  Nb  Nb113  1  0.50053321  0.70256661  0.29919248  1
  Nb  Nb114  1  0.30578742  0.90197796  0.69022840  1
  Nb  Nb115  1  0.30526610  0.90334666  0.50871110  1
  Nb  Nb116  1  0.69478749  0.89923689  0.49935308  1
  Nb  Nb117  1  0.10533774  0.29023755  0.50290312  1
  Nb  Nb118  1  0.49789080  0.29562708  0.50300614  1
  Nb  Nb119  1  0.49277711  0.89564972  0.68695847  1
  Nb  Nb120  1  0.70146303  0.50241447  0.09853441  1
  Nb  Nb121  1  0.29936314  0.49763914  0.71021305  1
  Nb  Nb122  1  0.49369372  0.70291066  0.69972146  1
  Nb  Nb123  1  0.50226235  0.09650724  0.89642510  1
  Nb  Nb124  1  0.89111808  0.49887627  0.10169615  1
  Nb  Nb125  1  -0.00404859  0.20165776  -0.00395265  1
  Nb  Nb126  1  0.80159038  0.40185828  0.00489172  1
  Nb  Nb127  1  0.59941736  0.60678665  0.19606137  1
  Nb  Nb128  1  0.19752876  0.60029092  -0.00881624  1
  Nb  Nb129  1  0.60366171  0.79842651  0.20357863  1
  Nb  Nb130  1  0.40558777  0.80374581  0.40438456  1
  Nb  Nb131  1  0.00133726  0.80286536  0.40175899  1
  Nb  Nb132  1  0.40203822  0.40772702  0.20282159  1
  Nb  Nb133  1  0.00162821  0.79912624  0.80009955  1
  Nb  Nb134  1  0.79621187  0.80626091  0.59968839  1
  Nb  Nb135  1  0.60368617  0.39951385  0.79585661  1
  Nb  Nb136  1  0.80350675  0.39712233  0.39335881  1
  Nb  Nb137  1  0.40835425  0.60012484  0.19344507  1
  Nb  Nb138  1  0.39112600  0.59835306  0.00037893  1
  Nb  Nb139  1  0.40001431  -0.00371625  0.19803931  1
  Nb  Nb140  1  0.20000955  0.39356930  0.40937671  1
  Nb  Nb141  1  0.19883678  0.19464802  0.19926039  1
  Nb  Nb142  1  0.40066730  -0.01235776  0.40335863  1
  Nb  Nb143  1  0.59585134  0.20498070  0.59971901  1
  Nb  Nb144  1  0.00588262  0.39275224  0.59380281  1
  Nb  Nb145  1  0.19793908  0.40551142  -0.00476870  1
  Nb  Nb146  1  0.59792430  0.80545818  0.40076929  1
  Nb  Nb147  1  0.19899689  0.39517308  0.59662557  1
  Nb  Nb148  1  0.79629010  0.40228639  0.20184523  1
  Nb  Nb149  1  0.00290314  0.00261250  0.19749089  1
  Pd  Pd150  1  -0.00027521  0.81392897  0.20542784  1
  Pd  Pd151  1  0.20580155  0.38485429  0.20528153  1
  Pd  Pd152  1  0.59369685  0.00208635  0.40969497  1
  Pd  Pd153  1  0.00565582  -0.00514662  0.80153595  1
  Pd  Pd154  1  0.40371028  0.19642890  0.79558121  1
  Pd  Pd155  1  0.20544331  0.59058580  0.60685805  1
  Pd  Pd156  1  -0.00061919  0.59537790  0.00303286  1
  Pd  Pd157  1  0.58691633  0.60007739  0.00048180  1
  Pd  Pd158  1  0.59172834  0.59337921  0.80303194  1
  Pd  Pd159  1  0.59239360  0.80536840  0.79467817  1
  Pd  Pd160  1  0.79149205  0.59237121  0.21149819  1
  Pd  Pd161  1  0.01127533  0.61072190  0.39926276  1
  Pd  Pd162  1  0.60237302  0.19596095  0.20341399  1
  Pd  Pd163  1  0.79539698  0.60554741  0.60616231  1
  Pd  Pd164  1  0.59577747  0.01403517  0.59374734  1
  Pd  Pd165  1  0.79419762  0.80168119  0.19827174  1
  Pd  Pd166  1  -0.01070090  0.40350782  0.20919971  1
  Pd  Pd167  1  0.39871720  0.80309128  0.20723786  1
  Pd  Pd168  1  0.00979065  0.00692061  0.59852508  1
  Pd  Pd169  1  0.80249547  0.60371087  0.80256182  1
  Pd  Pd170  1  0.19474153  0.80551522  0.79052225  1
  Pd  Pd171  1  0.80350142  0.81139368  0.40748066  1
  Pd  Pd172  1  -0.00339584  0.81170028  -0.00566943  1
  Pd  Pd173  1  -0.00282111  0.39659495  0.00195755  1
  Pd  Pd174  1  0.40479367  0.59331839  0.80453258  1
  Pd  Pd175  1  0.39551439  0.78776103  0.59145209  1
  Pd  Pd176  1  0.80413443  0.80062284  0.79147107  1
  Pd  Pd177  1  0.00428127  0.58972039  0.60577990  1
  Pd  Pd178  1  0.00003050  0.00008612  0.00315142  1
  Pd  Pd179  1  0.20722318  -0.00232415  -0.00748568  1
  Pd  Pd180  1  0.38889985  0.79741916  -0.00567559  1
  Pd  Pd181  1  0.60596680  0.39231475  0.40938597  1
  Pd  Pd182  1  0.59584710  0.20622748  -0.00581669  1
  Pd  Pd183  1  0.39116868  0.40490768  0.00901868  1
  Pd  Pd184  1  -0.00327816  0.80805760  0.59765880  1
  Pd  Pd185  1  0.19579841  0.60218091  0.79650877  1
  Pd  Pd186  1  0.00260522  0.39712508  0.40125271  1
  Pd  Pd187  1  0.20156884  0.80024752  0.40684014  1
  Pd  Pd188  1  0.38742562  0.40095562  0.60288239  1
  Pd  Pd189  1  0.18973098  0.21325969  0.00323506  1
  Pd  Pd190  1  0.60506391  0.60996509  0.39797942  1
  Pd  Pd191  1  0.20390922  0.19330615  0.79693562  1
  Pd  Pd192  1  0.60263034  0.39141278  0.60348145  1
  Pd  Pd193  1  0.39324070  0.39363132  0.39905173  1
  Pd  Pd194  1  0.60255915  -0.00185186  0.00327145  1
  Pd  Pd195  1  0.79576690  0.00352067  0.79595197  1
  Pd  Pd196  1  0.79397155  0.00270034  0.59824560  1
  Pd  Pd197  1  0.00035693  0.60824097  0.79182782  1
  Pd  Pd198  1  0.40488516  0.18791793  0.61124084  1
  Pd  Pd199  1  0.79870440  0.20312611  0.39497825  1
  Rh  Rh200  1  0.19984073  0.00787986  0.59741303  1
  Rh  Rh201  1  -0.00542691  0.19118247  0.80605472  1
  Rh  Rh202  1  0.79586745  0.80041484  0.00675185  1
  Rh  Rh203  1  0.40231180  0.40292745  0.79539909  1
  Rh  Rh204  1  0.00006264  0.60287989  0.19504737  1
  Rh  Rh205  1  0.80421377  0.20437647  -0.00783968  1
  Rh  Rh206  1  0.20610001  0.79834242  -0.00512750  1
  Rh  Rh207  1  0.00383149  0.19849709  0.60283669  1
  Rh  Rh208  1  0.80677171  0.59465286  -0.00509740  1
  Rh  Rh209  1  0.40665756  0.19657241  -0.00878099  1
  Rh  Rh210  1  0.79787599  -0.00048682  0.40312789  1
  Rh  Rh211  1  0.19558997  0.61142625  0.18918874  1
  Rh  Rh212  1  0.40496963  0.80833627  0.79310367  1
  Rh  Rh213  1  0.40288534  0.19251933  0.39892846  1
  Rh  Rh214  1  0.40773156  -0.00848605  0.79524529  1
  Rh  Rh215  1  -0.00406084  0.39770231  0.78728983  1
  Rh  Rh216  1  0.20084337  -0.00203738  0.79898345  1
  Rh  Rh217  1  0.60321355  0.60262386  0.60563361  1
  Rh  Rh218  1  0.80436446  0.19034500  0.79935074  1
  Rh  Rh219  1  0.21079519  0.00059281  0.40738594  1
  Rh  Rh220  1  0.80495891  0.00312570  0.20263831  1
  Rh  Rh221  1  0.79195645  -0.00017285  -0.00093572  1
  Rh  Rh222  1  0.00184840  -0.00361579  0.39456000  1
  Rh  Rh223  1  0.59274426  -0.00992388  0.79791698  1
  Rh  Rh224  1  0.79026012  0.20195206  0.20877714  1
  Rh  Rh225  1  0.40316754  0.00552681  0.59701590  1
  Rh  Rh226  1  0.60288979  0.79150213  0.59867577  1
  Rh  Rh227  1  0.01112657  0.18760553  0.19439220  1
  Rh  Rh228  1  0.79416476  0.18940480  0.60386692  1
  Rh  Rh229  1  0.59720663  0.40722944  0.20670943  1
  Rh  Rh230  1  0.20203701  0.39466332  0.79585196  1
  Rh  Rh231  1  0.00247576  0.19599039  0.40114303  1
  Rh  Rh232  1  0.81089222  0.39871024  0.58769443  1
  Rh  Rh233  1  0.39994252  0.00260198  0.00105005  1
  Rh  Rh234  1  0.79443089  0.58663017  0.39722077  1
  Rh  Rh235  1  0.20411002  0.00509963  0.19683206  1
  Rh  Rh236  1  0.60890895  0.80832063  0.00812147  1
  Rh  Rh237  1  0.20038314  0.80207748  0.19674847  1
  Rh  Rh238  1  0.21068793  0.79987361  0.60358849  1
  Rh  Rh239  1  0.39272341  0.60023144  0.60402947  1
  Rh  Rh240  1  0.20044478  0.20471771  0.39171635  1
  Rh  Rh241  1  0.20306639  0.19610815  0.60926224  1
  Rh  Rh242  1  0.19585062  0.59468635  0.40232512  1
  Rh  Rh243  1  0.40147866  0.61056770  0.40173653  1
  Rh  Rh244  1  0.61070550  0.39113951  -0.01518003  1
  Rh  Rh245  1  0.39577083  0.19617589  0.20320190  1
  Rh  Rh246  1  0.59597221  0.00293966  0.19234407  1
  Rh  Rh247  1  0.79588723  0.40269148  0.81400264  1
  Rh  Rh248  1  0.60254071  0.20492673  0.40876217  1
  Rh  Rh249  1  0.59225875  0.20963947  0.79090746  1
