# generated using pymatgen
data_ZrScNbPdRh
_symmetry_space_group_name_H-M   'P 1'
_cell_length_a   16.55825143
_cell_length_b   16.56540645
_cell_length_c   16.56012083
_cell_angle_alpha   89.99562566
_cell_angle_beta   90.01984145
_cell_angle_gamma   89.99279535
_symmetry_Int_Tables_number   1
_chemical_formula_structural   ZrScNbPdRh
_chemical_formula_sum   'Zr50 Sc50 Nb50 Pd50 Rh50'
_cell_volume   4542.34419113
_cell_formula_units_Z   50
loop_
 _symmetry_equiv_pos_site_id
 _symmetry_equiv_pos_as_xyz
  1  'x, y, z'
loop_
 _atom_site_type_symbol
 _atom_site_label
 _atom_site_symmetry_multiplicity
 _atom_site_fract_x
 _atom_site_fract_y
 _atom_site_fract_z
 _atom_site_occupancy
  Zr  Zr0  1  0.50045293  0.31153411  0.69242330  1
  Zr  Zr1  1  0.70422682  0.10475406  0.30482207  1
  Zr  Zr2  1  0.10550765  0.49820547  0.49611026  1
  Zr  Zr3  1  0.70269894  0.90078304  0.50046250  1
  Zr  Zr4  1  0.70607454  0.09934673  0.50261523  1
  Zr  Zr5  1  0.89753140  0.50136617  0.30631853  1
  Zr  Zr6  1  0.49867091  0.70296829  0.70492992  1
  Zr  Zr7  1  0.48371244  0.49943847  0.29263769  1
  Zr  Zr8  1  0.49975503  0.88981774  0.10647156  1
  Zr  Zr9  1  0.30274887  0.70708775  0.70859552  1
  Zr  Zr10  1  0.89420236  0.50089710  0.70062342  1
  Zr  Zr11  1  0.50541772  0.69928523  0.30628385  1
  Zr  Zr12  1  0.69677236  0.49567214  0.70564039  1
  Zr  Zr13  1  0.68990238  0.69940097  0.49353777  1
  Zr  Zr14  1  0.11127682  0.29956615  0.69846357  1
  Zr  Zr15  1  0.89623920  0.10553596  0.69733709  1
  Zr  Zr16  1  0.10383656  0.30537375  0.89854124  1
  Zr  Zr17  1  0.71061491  0.09740844  0.09412743  1
  Zr  Zr18  1  0.10023716  0.09622290  0.10290429  1
  Zr  Zr19  1  0.90614402  0.69668127  0.29883714  1
  Zr  Zr20  1  0.09532477  0.09980477  0.69997866  1
  Zr  Zr21  1  0.91661018  0.70664899  0.10026164  1
  Zr  Zr22  1  0.29503286  0.30289174  0.51476302  1
  Zr  Zr23  1  0.09967698  0.90122599  0.51003408  1
  Zr  Zr24  1  0.90358864  0.90367934  0.29886909  1
  Zr  Zr25  1  0.70107205  0.70197793  0.90663074  1
  Zr  Zr26  1  0.29420551  0.90538020  0.89986119  1
  Zr  Zr27  1  0.48642974  0.10340740  0.30164560  1
  Zr  Zr28  1  0.29863504  0.88802501  0.49666279  1
  Zr  Zr29  1  0.89720096  0.90441020  0.10550335  1
  Zr  Zr30  1  0.50176867  0.88070803  0.49393955  1
  Zr  Zr31  1  0.29620362  0.30462923  0.88875852  1
  Zr  Zr32  1  0.49890749  0.10131437  0.89595788  1
  Zr  Zr33  1  0.70193908  0.08931972  0.89685229  1
  Zr  Zr34  1  0.09802909  0.89909773  0.70436701  1
  Zr  Zr35  1  0.49702923  0.49713681  0.48932367  1
  Zr  Zr36  1  0.89996034  0.90678336  0.50263316  1
  Zr  Zr37  1  0.91004143  0.69646028  0.70719999  1
  Zr  Zr38  1  0.29709471  0.09784157  0.10762364  1
  Zr  Zr39  1  0.90328421  0.30745240  0.90842163  1
  Zr  Zr40  1  0.69618743  0.10148371  0.69646997  1
  Zr  Zr41  1  0.69857136  0.90054545  0.08992842  1
  Zr  Zr42  1  0.89996339  0.50746933  0.89517204  1
  Zr  Zr43  1  0.90447754  0.69381702  0.50113292  1
  Zr  Zr44  1  0.89721451  0.10363165  0.90217080  1
  Zr  Zr45  1  0.50146414  0.29579750  0.30294185  1
  Zr  Zr46  1  0.09574489  0.29717324  0.51271030  1
  Zr  Zr47  1  0.09882386  0.09423998  0.28975523  1
  Zr  Zr48  1  0.09996576  0.68924796  0.30170188  1
  Zr  Zr49  1  0.30161954  0.10858973  0.89991449  1
  Sc  Sc50  1  0.70747734  0.49357039  0.48785569  1
  Sc  Sc51  1  0.70747838  0.89678864  0.28904323  1
  Sc  Sc52  1  0.90136115  0.49426260  0.49986963  1
  Sc  Sc53  1  0.90852641  0.89955627  0.69685974  1
  Sc  Sc54  1  0.30513038  0.48867826  0.70667505  1
  Sc  Sc55  1  0.10614346  0.89535159  0.29729652  1
  Sc  Sc56  1  0.70091519  0.30313675  0.29850770  1
  Sc  Sc57  1  0.48833278  0.29466696  0.90246597  1
  Sc  Sc58  1  0.89222861  0.30131686  0.50662230  1
  Sc  Sc59  1  0.69972565  0.90957922  0.68953073  1
  Sc  Sc60  1  0.29650584  0.69879806  0.30354118  1
  Sc  Sc61  1  0.10567399  0.50497391  0.09464205  1
  Sc  Sc62  1  0.51022967  0.50473618  0.89468797  1
  Sc  Sc63  1  0.50050311  0.90375960  0.69827647  1
  Sc  Sc64  1  0.30159477  0.30468185  0.29205871  1
  Sc  Sc65  1  0.70795266  0.30250720  0.10615188  1
  Sc  Sc66  1  0.30332504  0.10271938  0.70720474  1
  Sc  Sc67  1  0.30230969  0.70950195  0.89942949  1
  Sc  Sc68  1  0.09984780  0.91319119  0.89837114  1
  Sc  Sc69  1  0.90547473  0.30186052  0.69567666  1
  Sc  Sc70  1  0.49136772  0.11095445  0.10431938  1
  Sc  Sc71  1  0.30844898  0.89549208  0.30026285  1
  Sc  Sc72  1  0.70400442  0.29921076  0.68798216  1
  Sc  Sc73  1  0.50532599  0.90397664  0.90273010  1
  Sc  Sc74  1  0.90495136  0.49343198  0.09542827  1
  Sc  Sc75  1  0.70189206  0.50091045  0.89846633  1
  Sc  Sc76  1  0.88989926  0.29415095  0.29023169  1
  Sc  Sc77  1  0.49859563  0.09875201  0.69564061  1
  Sc  Sc78  1  0.68845598  0.71222422  0.10372056  1
  Sc  Sc79  1  0.90556177  0.90392225  0.90076480  1
  Sc  Sc80  1  0.50282674  0.11271747  0.49745011  1
  Sc  Sc81  1  0.49751520  0.70067307  0.10888346  1
  Sc  Sc82  1  0.10352650  0.29156898  0.29364992  1
  Sc  Sc83  1  0.29835758  0.49859940  0.48696976  1
  Sc  Sc84  1  0.69985144  0.49629515  0.29920971  1
  Sc  Sc85  1  0.09312404  0.49578128  0.69517487  1
  Sc  Sc86  1  0.90625601  0.69903777  0.89819260  1
  Sc  Sc87  1  0.68756914  0.49496222  0.09876169  1
  Sc  Sc88  1  0.09721675  0.49692894  0.90617159  1
  Sc  Sc89  1  0.70198575  0.70431059  0.69543750  1
  Sc  Sc90  1  0.49603632  0.30209472  0.10858549  1
  Sc  Sc91  1  0.29865715  0.90325495  0.70355763  1
  Sc  Sc92  1  0.10308183  0.90069863  0.09983948  1
  Sc  Sc93  1  0.70703786  0.30364684  0.90639687  1
  Sc  Sc94  1  0.69562627  0.29595983  0.49542198  1
  Sc  Sc95  1  0.49743905  0.70164384  0.90034586  1
  Sc  Sc96  1  0.29538443  0.88977706  0.10170583  1
  Sc  Sc97  1  0.29176327  0.50061673  0.11169070  1
  Sc  Sc98  1  0.09016706  0.69796490  0.90287065  1
  Sc  Sc99  1  0.31102037  0.09805701  0.50720122  1
  Nb  Nb100  1  0.29905023  0.29893320  0.09127159  1
  Nb  Nb101  1  0.70427048  0.69093403  0.30064926  1
  Nb  Nb102  1  0.90009835  0.29608482  0.10099595  1
  Nb  Nb103  1  0.49918257  0.89963247  0.29811782  1
  Nb  Nb104  1  0.49620783  0.69359275  0.49864299  1
  Nb  Nb105  1  0.30146297  0.69952160  0.49887760  1
  Nb  Nb106  1  0.90194696  0.09436119  0.49133534  1
  Nb  Nb107  1  0.50034092  0.30010014  0.49777028  1
  Nb  Nb108  1  0.09606263  0.29901045  0.09695958  1
  Nb  Nb109  1  0.90115659  0.10495029  0.11056753  1
  Nb  Nb110  1  0.29796654  0.30034691  0.70814325  1
  Nb  Nb111  1  0.10531901  0.69917053  0.10362838  1
  Nb  Nb112  1  0.09807453  0.69933823  0.69936470  1
  Nb  Nb113  1  0.09589224  0.09874172  0.50012128  1
  Nb  Nb114  1  0.29659709  0.09709383  0.30391278  1
  Nb  Nb115  1  0.50435427  0.50642625  0.69422678  1
  Nb  Nb116  1  0.10709164  0.70198954  0.50130576  1
  Nb  Nb117  1  0.10127501  0.10127060  0.90114681  1
  Nb  Nb118  1  0.10459379  0.49669115  0.30173994  1
  Nb  Nb119  1  0.28673833  0.50156630  0.30052375  1
  Nb  Nb120  1  0.29303765  0.49848237  0.90409902  1
  Nb  Nb121  1  0.29379605  0.69977047  0.09861515  1
  Nb  Nb122  1  0.49023064  0.50035514  0.09764633  1
  Nb  Nb123  1  0.90071175  0.09493840  0.29691554  1
  Nb  Nb124  1  0.69965965  0.90196643  0.90254381  1
  Nb  Nb125  1  0.00446101  0.39701223  0.20137272  1
  Nb  Nb126  1  0.20556607  0.60723783  0.60344722  1
  Nb  Nb127  1  0.79979553  0.60224680  0.19424296  1
  Nb  Nb128  1  0.80506806  0.79469528  0.39859710  1
  Nb  Nb129  1  0.59559613  0.59675469  0.59661386  1
  Nb  Nb130  1  -0.00114240  0.19421789  0.39913359  1
  Nb  Nb131  1  0.80102068  0.60525892  0.00888603  1
  Nb  Nb132  1  0.00255134  0.79675133  0.40549431  1
  Nb  Nb133  1  0.60149179  0.20030145  0.80222462  1
  Nb  Nb134  1  0.39373446  0.40876098  0.00217576  1
  Nb  Nb135  1  0.39324497  0.59538538  0.00382346  1
  Nb  Nb136  1  0.19894327  0.60070910  0.79618065  1
  Nb  Nb137  1  0.00411428  0.39218489  0.39252713  1
  Nb  Nb138  1  0.19538400  0.20192426  0.00142951  1
  Nb  Nb139  1  0.79571845  0.59908993  0.60050583  1
  Nb  Nb140  1  0.19731893  0.19107556  0.40397892  1
  Nb  Nb141  1  0.00149316  0.19965177  0.00547817  1
  Nb  Nb142  1  0.39651853  0.00093788  0.00309260  1
  Nb  Nb143  1  0.20200855  0.00531342  0.40214619  1
  Nb  Nb144  1  0.59550181  0.00138460  0.20381650  1
  Nb  Nb145  1  0.60956719  0.80690663  0.80340008  1
  Nb  Nb146  1  0.79632111  0.80418325  0.80262145  1
  Nb  Nb147  1  0.59589786  -0.00258352  0.39212533  1
  Nb  Nb148  1  0.39993424  0.60113740  0.59828983  1
  Nb  Nb149  1  0.60301684  0.19767885  -0.00278604  1
  Pd  Pd150  1  0.39259354  0.39202048  0.39703315  1
  Pd  Pd151  1  0.20380851  0.60665804  -0.00775244  1
  Pd  Pd152  1  0.20548112  0.20410656  0.19863753  1
  Pd  Pd153  1  0.01058224  -0.00444080  0.39571410  1
  Pd  Pd154  1  0.20143138  0.79706577  0.60647947  1
  Pd  Pd155  1  0.80013680  0.79120095  0.20123651  1
  Pd  Pd156  1  0.79769173  0.41068194  0.00604445  1
  Pd  Pd157  1  0.40642702  -0.00691237  0.59059569  1
  Pd  Pd158  1  0.80531660  -0.00976199  0.79321391  1
  Pd  Pd159  1  0.20618244  0.18747500  0.60122283  1
  Pd  Pd160  1  -0.00014499  0.58724068  0.19316000  1
  Pd  Pd161  1  0.58828748  0.00131730  0.58649947  1
  Pd  Pd162  1  0.39880391  -0.00532725  0.19469026  1
  Pd  Pd163  1  0.20639813  0.00436376  0.59951648  1
  Pd  Pd164  1  0.59980450  0.40053593  0.39420839  1
  Pd  Pd165  1  0.18947212  0.79842518  -0.00613395  1
  Pd  Pd166  1  0.80923392  0.79785501  -0.00456778  1
  Pd  Pd167  1  0.00144863  0.20374856  0.80531017  1
  Pd  Pd168  1  0.60617981  0.19522951  0.19356628  1
  Pd  Pd169  1  0.60638535  0.40636739  0.58874178  1
  Pd  Pd170  1  0.60799875  0.61004831  0.79517324  1
  Pd  Pd171  1  0.39547395  0.40810936  0.59692398  1
  Pd  Pd172  1  0.80013415  0.39061182  0.79702644  1
  Pd  Pd173  1  0.59718407  0.38899021  0.80749794  1
  Pd  Pd174  1  0.40130696  -0.00469918  0.40912957  1
  Pd  Pd175  1  0.00274217  0.59386985  0.59633963  1
  Pd  Pd176  1  0.18820207  0.79563480  0.80926872  1
  Pd  Pd177  1  0.19383295  0.39751264  0.19402000  1
  Pd  Pd178  1  0.61105536  0.80608928  0.38773835  1
  Pd  Pd179  1  0.80697591  0.20513585  0.40215757  1
  Pd  Pd180  1  0.60317077  0.59507195  0.20114090  1
  Pd  Pd181  1  0.39320216  0.59243458  0.80472405  1
  Pd  Pd182  1  0.41010983  0.40752822  0.80796054  1
  Pd  Pd183  1  0.20090714  0.79619923  0.20433216  1
  Pd  Pd184  1  0.38758513  0.21093622  0.40340136  1
  Pd  Pd185  1  0.58956768  0.38964419  -0.00192331  1
  Pd  Pd186  1  0.40064194  0.79882584  0.60421348  1
  Pd  Pd187  1  0.40272930  0.20394707  0.60601828  1
  Pd  Pd188  1  0.19547494  0.38387252  0.39835546  1
  Pd  Pd189  1  0.40153997  -0.00411634  0.80462765  1
  Pd  Pd190  1  0.59500790  0.40196025  0.20256512  1
  Pd  Pd191  1  0.00224231  0.40112706  0.79586533  1
  Pd  Pd192  1  0.80521147  0.79344588  0.60175954  1
  Pd  Pd193  1  0.38973197  0.60613007  0.19883943  1
  Pd  Pd194  1  0.79457575  0.21041175  0.79946963  1
  Pd  Pd195  1  0.58667272  0.00751217  0.01216584  1
  Pd  Pd196  1  0.40208528  0.80001702  -0.00079725  1
  Pd  Pd197  1  0.59610799  0.60523339  0.00716873  1
  Pd  Pd198  1  -0.00407492  0.00524353  0.00495279  1
  Pd  Pd199  1  0.00771078  0.80833055  -0.00251656  1
  Rh  Rh200  1  0.19469869  0.80349333  0.40029149  1
  Rh  Rh201  1  0.39660537  0.20244265  0.00450629  1
  Rh  Rh202  1  0.79757112  0.60314383  0.40093505  1
  Rh  Rh203  1  0.80712432  0.00536879  0.60286508  1
  Rh  Rh204  1  0.59536300  0.79399530  0.60834774  1
  Rh  Rh205  1  0.20847361  -0.01107217  0.20754691  1
  Rh  Rh206  1  0.00156421  0.79751280  0.59666599  1
  Rh  Rh207  1  0.41103833  0.81212268  0.80443135  1
  Rh  Rh208  1  -0.00272204  0.40058589  0.59588744  1
  Rh  Rh209  1  0.59582973  0.20498887  0.60379272  1
  Rh  Rh210  1  0.20763310  0.00706884  0.00008030  1
  Rh  Rh211  1  0.80252431  0.19989759  0.00114844  1
  Rh  Rh212  1  0.80650322  0.40953978  0.19728403  1
  Rh  Rh213  1  0.39737669  0.79059502  0.20511576  1
  Rh  Rh214  1  -0.00933514  0.19386514  0.59230607  1
  Rh  Rh215  1  0.39261189  0.60153459  0.39768309  1
  Rh  Rh216  1  0.79216555  -0.00704659  0.39461657  1
  Rh  Rh217  1  0.19507271  0.19536170  0.80190589  1
  Rh  Rh218  1  0.39379505  0.39910116  0.19549432  1
  Rh  Rh219  1  0.79511435  0.00488331  0.20068657  1
  Rh  Rh220  1  -0.00408550  0.00647679  0.60585874  1
  Rh  Rh221  1  0.79535398  0.61124833  0.80222118  1
  Rh  Rh222  1  0.80342300  0.19705698  0.59414990  1
  Rh  Rh223  1  -0.00535184  0.20506440  0.20099387  1
  Rh  Rh224  1  0.79656758  0.40694373  0.60050200  1
  Rh  Rh225  1  0.01163792  0.59321107  0.80156126  1
  Rh  Rh226  1  -0.00121837  0.80437116  0.80255454  1
  Rh  Rh227  1  0.60119252  0.80357301  0.20842780  1
  Rh  Rh228  1  0.79589273  0.19603455  0.20025648  1
  Rh  Rh229  1  0.80697734  0.39209438  0.39542792  1
  Rh  Rh230  1  0.00895215  0.59604267  0.40674320  1
  Rh  Rh231  1  0.39921377  0.79158761  0.39322032  1
  Rh  Rh232  1  0.00107470  0.39803779  0.00600252  1
  Rh  Rh233  1  0.81118295  -0.00208581  0.00084736  1
  Rh  Rh234  1  0.60350307  0.00022889  0.79398272  1
  Rh  Rh235  1  0.60005076  0.19836486  0.39908162  1
  Rh  Rh236  1  0.20193340  0.60248581  0.40443179  1
  Rh  Rh237  1  0.39198663  0.20616573  0.20380552  1
  Rh  Rh238  1  0.20008987  0.60266173  0.20094782  1
  Rh  Rh239  1  0.19257443  0.41176088  0.79428350  1
  Rh  Rh240  1  0.00086747  -0.00687612  0.19604924  1
  Rh  Rh241  1  0.59133368  0.79792429  -0.00704484  1
  Rh  Rh242  1  0.01120640  0.80371159  0.20366199  1
  Rh  Rh243  1  0.20635424  0.41085050  0.60644895  1
  Rh  Rh244  1  0.20413863  0.39557697  0.00409698  1
  Rh  Rh245  1  0.41092765  0.20810185  0.78531939  1
  Rh  Rh246  1  -0.00266960  0.59894156  0.00465879  1
  Rh  Rh247  1  0.59714706  0.59104815  0.39690435  1
  Rh  Rh248  1  -0.00198004  0.00516667  0.79837189  1
  Rh  Rh249  1  0.19807250  0.00766520  0.79698958  1
