# generated using pymatgen
data_ZrScNbPdRh
_symmetry_space_group_name_H-M   'P 1'
_cell_length_a   16.55276271
_cell_length_b   16.55490562
_cell_length_c   16.55239296
_cell_angle_alpha   89.96643897
_cell_angle_beta   89.99637708
_cell_angle_gamma   90.02959245
_symmetry_Int_Tables_number   1
_chemical_formula_structural   ZrScNbPdRh
_chemical_formula_sum   'Zr50 Sc50 Nb50 Pd50 Rh50'
_cell_volume   4535.84132360
_cell_formula_units_Z   50
loop_
 _symmetry_equiv_pos_site_id
 _symmetry_equiv_pos_as_xyz
  1  'x, y, z'
loop_
 _atom_site_type_symbol
 _atom_site_label
 _atom_site_symmetry_multiplicity
 _atom_site_fract_x
 _atom_site_fract_y
 _atom_site_fract_z
 _atom_site_occupancy
  Zr  Zr0  1  0.69728003  0.69529777  0.70568316  1
  Zr  Zr1  1  0.69808774  0.70325077  0.90582538  1
  Zr  Zr2  1  0.90198963  0.90016755  0.29790598  1
  Zr  Zr3  1  0.50156079  0.90340276  0.30213846  1
  Zr  Zr4  1  0.30327006  0.70727165  0.08479157  1
  Zr  Zr5  1  0.49566270  0.30378425  0.50142908  1
  Zr  Zr6  1  0.50594071  0.10345744  0.10601977  1
  Zr  Zr7  1  0.29532939  0.68892721  0.89745949  1
  Zr  Zr8  1  0.90950027  0.89517057  0.09897058  1
  Zr  Zr9  1  0.30479664  0.89919964  0.30705620  1
  Zr  Zr10  1  0.29590128  0.11132344  0.70428376  1
  Zr  Zr11  1  0.29949652  0.10247697  0.49379452  1
  Zr  Zr12  1  0.10274969  0.69679601  0.49871510  1
  Zr  Zr13  1  0.90089283  0.10414173  0.89563212  1
  Zr  Zr14  1  0.30016300  0.68955223  0.30443151  1
  Zr  Zr15  1  0.10299506  0.30107428  0.50311261  1
  Zr  Zr16  1  0.89871760  0.30194755  0.09759263  1
  Zr  Zr17  1  0.69890364  0.11051869  0.29112728  1
  Zr  Zr18  1  0.89721912  0.49432205  0.50100085  1
  Zr  Zr19  1  0.50258226  0.11501505  0.90261760  1
  Zr  Zr20  1  0.30153711  0.09826488  0.29707957  1
  Zr  Zr21  1  0.09451083  0.09712807  0.10110085  1
  Zr  Zr22  1  0.70117750  0.29754776  0.90178209  1
  Zr  Zr23  1  0.69498371  0.10543609  0.09810266  1
  Zr  Zr24  1  0.69734359  0.50160852  0.10130900  1
  Zr  Zr25  1  0.29230432  0.49485083  0.70237329  1
  Zr  Zr26  1  0.29927658  0.89558164  0.69669983  1
  Zr  Zr27  1  0.29849232  0.71096604  0.50164622  1
  Zr  Zr28  1  0.30340896  0.11468978  0.89938215  1
  Zr  Zr29  1  0.90300220  0.29762088  0.90105012  1
  Zr  Zr30  1  0.90421099  0.09503783  0.49906235  1
  Zr  Zr31  1  0.90085389  0.90004551  0.49396680  1
  Zr  Zr32  1  0.69585437  0.50249881  0.29763746  1
  Zr  Zr33  1  0.70196032  0.69288012  0.10577181  1
  Zr  Zr34  1  0.69319370  0.10298640  0.89635418  1
  Zr  Zr35  1  0.89420105  0.50028038  0.10454142  1
  Zr  Zr36  1  0.48813257  0.50630808  0.29148257  1
  Zr  Zr37  1  0.29799640  0.30862382  0.30509380  1
  Zr  Zr38  1  0.09488317  0.09519885  0.29265797  1
  Zr  Zr39  1  0.50459872  0.50343188  0.69394939  1
  Zr  Zr40  1  0.49933736  0.70080420  0.90404682  1
  Zr  Zr41  1  0.70777072  0.31071961  0.49574142  1
  Zr  Zr42  1  0.89454102  0.49061612  0.90219094  1
  Zr  Zr43  1  0.51289143  0.90036509  0.90644815  1
  Zr  Zr44  1  0.29573358  0.30064942  0.50111433  1
  Zr  Zr45  1  0.91085803  0.89907247  0.89726049  1
  Zr  Zr46  1  0.09835248  0.89201990  0.49862911  1
  Zr  Zr47  1  0.90038299  0.70369388  0.90191582  1
  Zr  Zr48  1  0.50278640  0.90591694  0.10434851  1
  Zr  Zr49  1  0.50500111  0.90608422  0.49191216  1
  Sc  Sc50  1  0.30265081  0.30445348  0.89387095  1
  Sc  Sc51  1  0.09487804  0.70028416  0.10315316  1
  Sc  Sc52  1  0.69996928  0.30039020  0.70207237  1
  Sc  Sc53  1  0.29812221  0.30153742  0.09002580  1
  Sc  Sc54  1  0.08857964  0.10391244  0.89530182  1
  Sc  Sc55  1  0.50242030  0.30513501  0.09279096  1
  Sc  Sc56  1  0.89733953  0.70193981  0.10606537  1
  Sc  Sc57  1  0.70786708  0.89396471  0.31282368  1
  Sc  Sc58  1  0.70569547  0.30438098  0.29831040  1
  Sc  Sc59  1  0.10871964  0.29982334  0.69977384  1
  Sc  Sc60  1  0.90752074  0.09843928  0.70143898  1
  Sc  Sc61  1  0.90019164  0.30411030  0.49009432  1
  Sc  Sc62  1  0.30588303  0.70078340  0.69589133  1
  Sc  Sc63  1  0.50377490  0.50344533  0.50503777  1
  Sc  Sc64  1  0.09040050  0.10174733  0.50229364  1
  Sc  Sc65  1  0.10420242  0.70100072  0.90694017  1
  Sc  Sc66  1  0.49960014  0.89326931  0.70812482  1
  Sc  Sc67  1  0.11609422  0.49597496  0.89538638  1
  Sc  Sc68  1  0.10010341  0.49604600  0.69820049  1
  Sc  Sc69  1  0.89775147  0.70406888  0.29385307  1
  Sc  Sc70  1  0.09660650  0.69801029  0.70051632  1
  Sc  Sc71  1  0.10092308  0.29640754  0.09717341  1
  Sc  Sc72  1  0.90539369  0.89657397  0.69606086  1
  Sc  Sc73  1  0.69471958  0.70796054  0.49147625  1
  Sc  Sc74  1  0.29667141  0.10667512  0.09938947  1
  Sc  Sc75  1  0.90308094  0.10362990  0.10372872  1
  Sc  Sc76  1  0.90107784  0.70051643  0.70046598  1
  Sc  Sc77  1  0.89979652  0.49574376  0.69747626  1
  Sc  Sc78  1  0.50008512  0.09041379  0.30219261  1
  Sc  Sc79  1  0.50122627  0.30768055  0.29928619  1
  Sc  Sc80  1  0.09815223  0.68963592  0.30220921  1
  Sc  Sc81  1  0.50057982  0.30480183  0.70577562  1
  Sc  Sc82  1  0.91156236  0.69817491  0.49993084  1
  Sc  Sc83  1  0.69850413  0.89582300  0.09801588  1
  Sc  Sc84  1  0.51175602  0.10842089  0.70278840  1
  Sc  Sc85  1  0.69274391  0.08948927  0.50665572  1
  Sc  Sc86  1  0.50426662  0.68883890  0.09800123  1
  Sc  Sc87  1  0.10399088  0.30005598  0.30032145  1
  Sc  Sc88  1  0.89702291  0.30089346  0.70829856  1
  Sc  Sc89  1  0.49998088  0.49866694  0.09629150  1
  Sc  Sc90  1  0.29979969  0.49990672  0.10106798  1
  Sc  Sc91  1  0.30340174  0.90172202  0.10047825  1
  Sc  Sc92  1  0.08584740  0.50352936  0.49649587  1
  Sc  Sc93  1  0.30335409  0.49185127  0.50398945  1
  Sc  Sc94  1  0.30788385  0.88235449  0.91072583  1
  Sc  Sc95  1  0.70431445  0.90101484  0.50080640  1
  Sc  Sc96  1  0.90432398  0.50385940  0.30153936  1
  Sc  Sc97  1  0.90059660  0.10209167  0.29789453  1
  Sc  Sc98  1  0.50083386  0.69140539  0.31628537  1
  Sc  Sc99  1  0.09539157  0.10691957  0.69998476  1
  Nb  Nb100  1  0.09823712  0.90300594  0.70584018  1
  Nb  Nb101  1  0.69818248  0.50387609  0.69220114  1
  Nb  Nb102  1  0.29095896  0.49856925  0.29176391  1
  Nb  Nb103  1  0.09467022  0.90026325  0.90342223  1
  Nb  Nb104  1  0.09830921  0.29973410  0.89909933  1
  Nb  Nb105  1  0.70069528  0.89968436  0.70114033  1
  Nb  Nb106  1  0.70017318  0.90056446  0.89905202  1
  Nb  Nb107  1  0.49657895  0.30406633  0.90183010  1
  Nb  Nb108  1  0.29592483  0.29933733  0.69143570  1
  Nb  Nb109  1  0.30232261  0.50179386  0.89468649  1
  Nb  Nb110  1  0.10689837  0.50312238  0.28778958  1
  Nb  Nb111  1  0.49786637  0.69626449  0.51322166  1
  Nb  Nb112  1  0.49960385  0.48690601  0.89978453  1
  Nb  Nb113  1  0.09880511  0.90019342  0.09739134  1
  Nb  Nb114  1  0.29449488  0.89894336  0.50137935  1
  Nb  Nb115  1  0.49854622  0.69212343  0.69332369  1
  Nb  Nb116  1  0.70023611  0.29532758  0.10995932  1
  Nb  Nb117  1  0.70293426  0.10152205  0.70060903  1
  Nb  Nb118  1  0.70518911  0.49655887  0.50296883  1
  Nb  Nb119  1  0.09799770  0.49900319  0.10975952  1
  Nb  Nb120  1  0.69590669  0.50531068  0.89561326  1
  Nb  Nb121  1  0.89640522  0.30110492  0.29436536  1
  Nb  Nb122  1  0.09930059  0.90062521  0.29223240  1
  Nb  Nb123  1  0.50089023  0.10018260  0.50010790  1
  Nb  Nb124  1  0.70032651  0.70116360  0.30124763  1
  Nb  Nb125  1  0.79617759  0.59848900  0.40357171  1
  Nb  Nb126  1  0.40417409  0.59249702  0.80174150  1
  Nb  Nb127  1  -0.00037705  0.59046868  -0.00084189  1
  Nb  Nb128  1  0.39697340  0.00268506  0.80385588  1
  Nb  Nb129  1  0.19522805  0.80623637  0.80139658  1
  Nb  Nb130  1  0.40228478  0.79408952  0.20362435  1
  Nb  Nb131  1  0.19743247  -0.00286698  -0.00717262  1
  Nb  Nb132  1  0.79819465  -0.00161353  -0.00787592  1
  Nb  Nb133  1  0.59883360  0.20022002  0.40549553  1
  Nb  Nb134  1  0.40098931  0.00643963  -0.00533870  1
  Nb  Nb135  1  0.59745605  0.79634261  0.60423483  1
  Nb  Nb136  1  -0.00157748  0.59595980  0.80980632  1
  Nb  Nb137  1  0.79336489  0.59710393  0.59523665  1
  Nb  Nb138  1  0.00264503  0.40225838  0.20017737  1
  Nb  Nb139  1  0.19623267  -0.00641612  0.40165765  1
  Nb  Nb140  1  0.20125728  -0.00394626  0.60047117  1
  Nb  Nb141  1  0.40071707  0.19910334  0.59713042  1
  Nb  Nb142  1  0.20184626  -0.00594091  0.80475040  1
  Nb  Nb143  1  0.39884178  0.00493283  0.60096872  1
  Nb  Nb144  1  0.39990303  0.20236698  0.20283911  1
  Nb  Nb145  1  0.79325615  -0.00396842  0.79973101  1
  Nb  Nb146  1  0.19995089  0.60212211  0.59721466  1
  Nb  Nb147  1  0.20218143  0.80259111  0.20167793  1
  Nb  Nb148  1  0.59849382  0.79328836  0.20865002  1
  Nb  Nb149  1  0.79789331  0.19594895  0.59928556  1
  Pd  Pd150  1  0.00277036  0.79960066  0.60365998  1
  Pd  Pd151  1  0.59762901  0.00092299  0.79395923  1
  Pd  Pd152  1  -0.01056312  0.21012878  0.60285336  1
  Pd  Pd153  1  0.40112499  0.41065661  0.39993343  1
  Pd  Pd154  1  0.40992387  0.20060325  0.39446293  1
  Pd  Pd155  1  0.19218400  0.41135856  0.40406644  1
  Pd  Pd156  1  0.01016277  0.40440166  0.00403780  1
  Pd  Pd157  1  0.39510764  0.39413476  0.19110713  1
  Pd  Pd158  1  0.20680425  0.61129974  0.18812866  1
  Pd  Pd159  1  0.78757870  0.39820170  0.00347358  1
  Pd  Pd160  1  0.80692049  0.59527670  0.79442056  1
  Pd  Pd161  1  0.39667899  0.40072643  0.79435033  1
  Pd  Pd162  1  0.60372553  0.20783327  0.59467307  1
  Pd  Pd163  1  0.00060019  0.20381317  0.39377008  1
  Pd  Pd164  1  0.18973411  0.19582243  -0.00649137  1
  Pd  Pd165  1  0.20361125  0.58895507  0.40845174  1
  Pd  Pd166  1  0.20515482  -0.00663180  0.19580120  1
  Pd  Pd167  1  0.00507515  0.40029820  0.38788656  1
  Pd  Pd168  1  -0.00208089  0.39218734  0.60476381  1
  Pd  Pd169  1  0.41067321  0.81032468  0.59548001  1
  Pd  Pd170  1  0.60328028  0.59670164  0.40744986  1
  Pd  Pd171  1  0.80255692  0.80536121  0.79692690  1
  Pd  Pd172  1  0.80099018  0.19472787  0.00374806  1
  Pd  Pd173  1  0.79903019  -0.00337857  0.19151295  1
  Pd  Pd174  1  0.79456067  0.79171762  0.59663751  1
  Pd  Pd175  1  0.60728998  0.39950673  0.79936949  1
  Pd  Pd176  1  0.00081253  0.79379072  0.39035072  1
  Pd  Pd177  1  0.59823856  0.39949280  0.19885341  1
  Pd  Pd178  1  0.19255284  0.59214936  0.00806902  1
  Pd  Pd179  1  0.60749482  0.39891902  0.00057742  1
  Pd  Pd180  1  0.00682063  0.40225620  0.79884052  1
  Pd  Pd181  1  0.79363222  0.19267932  0.40719369  1
  Pd  Pd182  1  0.59594751  0.40197823  0.39801929  1
  Pd  Pd183  1  0.59228455  0.59748955  0.80700956  1
  Pd  Pd184  1  0.40446523  0.58881955  -0.00487712  1
  Pd  Pd185  1  0.39365239  0.59191501  0.41088002  1
  Pd  Pd186  1  0.80607338  0.00355185  0.60769995  1
  Pd  Pd187  1  0.20126123  0.40328136  0.00012562  1
  Pd  Pd188  1  0.40610893  0.79672212  0.40123178  1
  Pd  Pd189  1  0.39773081  0.79407451  0.80217013  1
  Pd  Pd190  1  0.80278213  0.60033554  -0.00105231  1
  Pd  Pd191  1  0.60178556  0.39527695  0.60191015  1
  Pd  Pd192  1  0.79091491  0.40488516  0.79556683  1
  Pd  Pd193  1  0.20475026  0.20863407  0.20018308  1
  Pd  Pd194  1  0.18968376  0.19119490  0.39866299  1
  Pd  Pd195  1  0.79626325  0.00879233  0.39752762  1
  Pd  Pd196  1  0.79886499  0.80525725  0.00409593  1
  Pd  Pd197  1  0.59963606  0.79584097  0.79595268  1
  Pd  Pd198  1  0.61627363  -0.01166772  0.20909744  1
  Pd  Pd199  1  0.59223514  -0.00916470  0.60976221  1
  Rh  Rh200  1  0.61083457  0.00912750  0.39392785  1
  Rh  Rh201  1  0.59945890  0.59303655  -0.00677768  1
  Rh  Rh202  1  0.61038723  0.60749874  0.59209331  1
  Rh  Rh203  1  0.80070576  0.39661185  0.60769823  1
  Rh  Rh204  1  -0.00247018  0.21143789  0.20305931  1
  Rh  Rh205  1  0.60205690  0.79509693  0.00982290  1
  Rh  Rh206  1  0.00506929  -0.00202477  0.39696673  1
  Rh  Rh207  1  0.19288368  0.20462417  0.80473186  1
  Rh  Rh208  1  0.00594375  -0.00370813  0.60075767  1
  Rh  Rh209  1  0.00726324  0.79091371  0.80156618  1
  Rh  Rh210  1  0.40583602  0.20573126  0.79095343  1
  Rh  Rh211  1  0.00893472  0.79948840  0.20125731  1
  Rh  Rh212  1  0.19720098  0.39521582  0.19642671  1
  Rh  Rh213  1  0.80037421  0.60018463  0.21089405  1
  Rh  Rh214  1  0.38911182  0.59429240  0.60380430  1
  Rh  Rh215  1  0.80561430  0.20197455  0.19637837  1
  Rh  Rh216  1  0.59029190  0.20981925  0.20926758  1
  Rh  Rh217  1  0.00425567  0.21001097  0.79680255  1
  Rh  Rh218  1  0.39380130  0.00690208  0.18812625  1
  Rh  Rh219  1  -0.00090389  0.00037838  0.79635613  1
  Rh  Rh220  1  0.80342508  0.40006029  0.20300434  1
  Rh  Rh221  1  0.00355711  0.78946920  0.00345620  1
  Rh  Rh222  1  0.20073843  0.39038351  0.80210048  1
  Rh  Rh223  1  -0.00450672  0.59608493  0.19624175  1
  Rh  Rh224  1  -0.00194816  0.59797183  0.61076945  1
  Rh  Rh225  1  0.19305920  0.40781091  0.59375829  1
  Rh  Rh226  1  0.80170051  0.19304474  0.79116235  1
  Rh  Rh227  1  0.39349536  -0.00074974  0.40885969  1
  Rh  Rh228  1  0.40675584  0.20144447  0.01136603  1
  Rh  Rh229  1  0.60049304  0.21010574  0.80053433  1
  Rh  Rh230  1  0.20102434  0.60794774  0.78881215  1
  Rh  Rh231  1  0.41590355  0.80584166  0.00922110  1
  Rh  Rh232  1  0.39514736  0.60434175  0.19659091  1
  Rh  Rh233  1  -0.00623640  0.60054535  0.39317686  1
  Rh  Rh234  1  -0.00823788  -0.00192793  0.19768887  1
  Rh  Rh235  1  0.59357328  0.79797076  0.40311083  1
  Rh  Rh236  1  0.59400002  0.60485042  0.20423647  1
  Rh  Rh237  1  0.60068940  0.21230191  0.00161101  1
  Rh  Rh238  1  0.80203341  0.40974766  0.38846849  1
  Rh  Rh239  1  0.20106493  0.19541993  0.59557898  1
  Rh  Rh240  1  -0.00141110  0.00444472  0.00292168  1
  Rh  Rh241  1  0.60279436  0.00319262  0.00104101  1
  Rh  Rh242  1  0.19141670  0.80738213  0.00189637  1
  Rh  Rh243  1  0.19179708  0.79554615  0.60868180  1
  Rh  Rh244  1  0.79051870  0.80302993  0.20172169  1
  Rh  Rh245  1  0.19257537  0.80425314  0.38749887  1
  Rh  Rh246  1  0.39493484  0.40251540  -0.00325192  1
  Rh  Rh247  1  0.00141876  0.20060735  0.00029418  1
  Rh  Rh248  1  0.40083562  0.39396840  0.60523558  1
  Rh  Rh249  1  0.80985310  0.79128917  0.40429159  1
