# generated using pymatgen
data_ZrScNbPdRh
_symmetry_space_group_name_H-M   'P 1'
_cell_length_a   16.55288055
_cell_length_b   16.55371853
_cell_length_c   16.55253544
_cell_angle_alpha   89.99206758
_cell_angle_beta   90.02868930
_cell_angle_gamma   90.03171201
_symmetry_Int_Tables_number   1
_chemical_formula_structural   ZrScNbPdRh
_chemical_formula_sum   'Zr50 Sc50 Nb50 Pd50 Rh50'
_cell_volume   4535.58749073
_cell_formula_units_Z   50
loop_
 _symmetry_equiv_pos_site_id
 _symmetry_equiv_pos_as_xyz
  1  'x, y, z'
loop_
 _atom_site_type_symbol
 _atom_site_label
 _atom_site_symmetry_multiplicity
 _atom_site_fract_x
 _atom_site_fract_y
 _atom_site_fract_z
 _atom_site_occupancy
  Zr  Zr0  1  0.50731953  0.29120376  0.49901778  1
  Zr  Zr1  1  0.89373575  0.30371020  0.10622323  1
  Zr  Zr2  1  0.09549950  0.50752482  0.69816169  1
  Zr  Zr3  1  0.10094297  0.91422659  0.29865523  1
  Zr  Zr4  1  0.30442994  0.89610911  0.70284401  1
  Zr  Zr5  1  0.30102348  0.49549776  0.30113282  1
  Zr  Zr6  1  0.10928230  0.09261003  0.11004467  1
  Zr  Zr7  1  0.89676125  0.69400630  0.70669023  1
  Zr  Zr8  1  0.10047107  0.90113350  0.69736006  1
  Zr  Zr9  1  0.50353934  0.10030706  0.68716519  1
  Zr  Zr10  1  0.49141509  0.29299011  0.30880434  1
  Zr  Zr11  1  0.29674727  0.10391944  0.29323478  1
  Zr  Zr12  1  0.28849582  0.89128452  0.30103561  1
  Zr  Zr13  1  0.69828177  0.68675005  0.50044586  1
  Zr  Zr14  1  0.50383941  0.09450145  0.09598892  1
  Zr  Zr15  1  0.89738870  0.50982046  0.89795749  1
  Zr  Zr16  1  0.10759233  0.89543058  0.90557229  1
  Zr  Zr17  1  0.10810602  0.30215317  0.29376593  1
  Zr  Zr18  1  0.69786238  0.29785953  0.09458805  1
  Zr  Zr19  1  0.69849909  0.49122743  0.11072426  1
  Zr  Zr20  1  0.68675268  0.49523158  0.90342985  1
  Zr  Zr21  1  0.70023762  0.70664097  0.70914309  1
  Zr  Zr22  1  0.49268985  0.49463015  0.88725761  1
  Zr  Zr23  1  0.89981393  0.90412021  0.50009913  1
  Zr  Zr24  1  0.50338381  0.30445418  0.89749110  1
  Zr  Zr25  1  0.90410180  0.11010858  0.49272145  1
  Zr  Zr26  1  0.69541956  0.51026429  0.68732687  1
  Zr  Zr27  1  0.09783297  0.49381000  0.30102047  1
  Zr  Zr28  1  0.90058893  0.90263024  0.70253840  1
  Zr  Zr29  1  0.89809714  0.50664082  0.70130499  1
  Zr  Zr30  1  0.10189166  0.69861395  0.90760944  1
  Zr  Zr31  1  0.49700214  0.69852237  0.30095187  1
  Zr  Zr32  1  0.89918110  0.50101629  0.10918578  1
  Zr  Zr33  1  0.52516581  0.50374467  0.50336316  1
  Zr  Zr34  1  0.90432139  0.29638176  0.70013834  1
  Zr  Zr35  1  0.70335225  0.09240667  0.29866647  1
  Zr  Zr36  1  0.70122336  0.30989954  0.49761995  1
  Zr  Zr37  1  0.89926659  0.70090300  0.10050617  1
  Zr  Zr38  1  0.89575181  0.10260217  0.70376428  1
  Zr  Zr39  1  0.88872924  0.50516218  0.49694133  1
  Zr  Zr40  1  0.30649827  0.30170292  0.90182465  1
  Zr  Zr41  1  0.30358545  0.09860975  0.90198751  1
  Zr  Zr42  1  0.30348361  0.09005196  0.69980557  1
  Zr  Zr43  1  0.30356449  0.30387472  0.48795504  1
  Zr  Zr44  1  0.51628278  0.89540559  0.29996910  1
  Zr  Zr45  1  0.70318767  0.10434061  0.89465669  1
  Zr  Zr46  1  0.09735416  0.70075577  0.09978226  1
  Zr  Zr47  1  0.50530629  0.69920065  0.90465746  1
  Zr  Zr48  1  0.68797146  0.11034672  0.50361421  1
  Zr  Zr49  1  0.50513523  0.70061295  0.10070971  1
  Sc  Sc50  1  0.49155463  0.89559564  0.89924076  1
  Sc  Sc51  1  0.49592417  0.90485992  0.70221495  1
  Sc  Sc52  1  0.70249510  0.90049681  0.88943057  1
  Sc  Sc53  1  0.30471719  0.69543917  0.09795203  1
  Sc  Sc54  1  0.49989087  0.09962512  0.90390524  1
  Sc  Sc55  1  0.69760830  0.28806593  0.70166736  1
  Sc  Sc56  1  0.29733660  0.70059442  0.70178339  1
  Sc  Sc57  1  0.70080954  0.90074221  0.48442600  1
  Sc  Sc58  1  0.90115386  0.70319499  0.29873270  1
  Sc  Sc59  1  0.49987252  0.50008538  0.29571765  1
  Sc  Sc60  1  0.30147818  0.90137546  0.50628285  1
  Sc  Sc61  1  0.10350570  0.71993477  0.30120561  1
  Sc  Sc62  1  0.09222388  0.49924002  0.91116664  1
  Sc  Sc63  1  0.30438552  0.70308352  0.49661657  1
  Sc  Sc64  1  0.90317632  0.70188284  0.49420814  1
  Sc  Sc65  1  0.30298084  0.50281044  0.70273259  1
  Sc  Sc66  1  0.89990617  0.89840299  0.09217773  1
  Sc  Sc67  1  0.10558382  0.10761223  0.69594590  1
  Sc  Sc68  1  0.89471113  0.70351525  0.90070791  1
  Sc  Sc69  1  0.49484253  0.29833964  0.09483618  1
  Sc  Sc70  1  0.89595298  0.29570903  0.89818109  1
  Sc  Sc71  1  0.30524862  0.09890807  0.09586151  1
  Sc  Sc72  1  0.29795304  0.90501580  0.09069623  1
  Sc  Sc73  1  0.29509513  0.50152543  0.50129559  1
  Sc  Sc74  1  0.10190692  0.09818722  0.89850978  1
  Sc  Sc75  1  0.70030135  0.89973696  0.10196481  1
  Sc  Sc76  1  0.30365763  0.70781830  0.90324091  1
  Sc  Sc77  1  0.70213838  0.09509411  0.09222565  1
  Sc  Sc78  1  0.30406499  0.50119789  0.09443558  1
  Sc  Sc79  1  0.29891675  0.28303824  0.70481820  1
  Sc  Sc80  1  0.50651650  0.89929533  0.09224626  1
  Sc  Sc81  1  0.09047807  0.49870612  0.09765657  1
  Sc  Sc82  1  0.69455119  0.29743564  0.90209748  1
  Sc  Sc83  1  0.50169098  0.70322016  0.71168436  1
  Sc  Sc84  1  0.30316662  0.30526613  0.29215995  1
  Sc  Sc85  1  0.89881039  0.90402456  0.90292667  1
  Sc  Sc86  1  0.30214657  0.09847462  0.51170369  1
  Sc  Sc87  1  0.89136074  0.09644811  0.09567649  1
  Sc  Sc88  1  0.09778778  0.29284112  0.49900984  1
  Sc  Sc89  1  0.89455326  0.09633255  0.90052082  1
  Sc  Sc90  1  0.69519704  0.70307768  0.89542651  1
  Sc  Sc91  1  0.70175954  0.30237408  0.29661063  1
  Sc  Sc92  1  0.10157560  0.89729190  0.10192876  1
  Sc  Sc93  1  0.89491122  0.90359927  0.30847252  1
  Sc  Sc94  1  0.09641668  0.69330685  0.69728301  1
  Sc  Sc95  1  0.70495101  0.89932845  0.29818726  1
  Sc  Sc96  1  0.09953986  0.90387095  0.49574467  1
  Sc  Sc97  1  0.30115822  0.69912804  0.30229155  1
  Sc  Sc98  1  0.69899275  0.70918216  0.29545839  1
  Sc  Sc99  1  0.50403732  0.50649249  0.09877705  1
  Nb  Nb100  1  0.49694117  0.30952016  0.70671502  1
  Nb  Nb101  1  0.90480850  0.29160097  0.30436098  1
  Nb  Nb102  1  0.10095453  0.09705411  0.49100397  1
  Nb  Nb103  1  0.10113496  0.29910769  0.89927573  1
  Nb  Nb104  1  0.10278792  0.68885603  0.50539100  1
  Nb  Nb105  1  0.29505411  0.50009611  0.89928584  1
  Nb  Nb106  1  0.09756222  0.09863660  0.30349930  1
  Nb  Nb107  1  0.49948463  0.89536813  0.49743486  1
  Nb  Nb108  1  0.49895299  0.49821127  0.70166868  1
  Nb  Nb109  1  0.30175763  0.90126416  0.89540622  1
  Nb  Nb110  1  0.69933343  0.90282561  0.69764864  1
  Nb  Nb111  1  0.70347168  0.49353391  0.30964140  1
  Nb  Nb112  1  0.89995524  0.49425405  0.29554462  1
  Nb  Nb113  1  0.09699546  0.30067251  0.09979739  1
  Nb  Nb114  1  0.69716915  0.69491497  0.09722511  1
  Nb  Nb115  1  0.70314402  0.49865624  0.49397533  1
  Nb  Nb116  1  0.49931945  0.10235017  0.49050992  1
  Nb  Nb117  1  0.50159190  0.10088849  0.30153294  1
  Nb  Nb118  1  0.90213401  0.30088035  0.49891290  1
  Nb  Nb119  1  0.90534280  0.10449809  0.30259655  1
  Nb  Nb120  1  0.09756361  0.50241420  0.50404518  1
  Nb  Nb121  1  0.69832168  0.09161417  0.70055853  1
  Nb  Nb122  1  0.29372754  0.29496210  0.09990774  1
  Nb  Nb123  1  0.10081452  0.30328185  0.70895681  1
  Nb  Nb124  1  0.50281079  0.70448365  0.49720881  1
  Nb  Nb125  1  0.41166688  0.59717144  0.59896495  1
  Nb  Nb126  1  0.40573361  -0.00541626  0.20790904  1
  Nb  Nb127  1  0.19944884  0.59433160  0.80836445  1
  Nb  Nb128  1  0.19742931  0.19482275  0.39697066  1
  Nb  Nb129  1  0.19226421  0.59808876  0.39966058  1
  Nb  Nb130  1  0.79096226  0.59946965  0.00841168  1
  Nb  Nb131  1  0.00043625  0.19645243  0.20174870  1
  Nb  Nb132  1  0.19759521  0.59838897  0.20485302  1
  Nb  Nb133  1  0.20648186  -0.00579741  0.80101007  1
  Nb  Nb134  1  0.60008905  0.80277648  0.59555872  1
  Nb  Nb135  1  0.19574628  0.39747773  0.60623875  1
  Nb  Nb136  1  0.00635682  0.20393001  0.00760492  1
  Nb  Nb137  1  0.59694590  0.19372686  0.20185040  1
  Nb  Nb138  1  0.40397237  0.40085211  0.60376263  1
  Nb  Nb139  1  0.79461832  0.80494042  0.60161980  1
  Nb  Nb140  1  -0.00053206  0.39907569  0.59715319  1
  Nb  Nb141  1  0.79336255  0.00297748  0.60075199  1
  Nb  Nb142  1  0.79676765  0.40396004  0.79554857  1
  Nb  Nb143  1  0.19611102  0.20816590  0.00270967  1
  Nb  Nb144  1  0.40373685  0.80476417  0.19991187  1
  Nb  Nb145  1  0.00360718  0.80098428  0.80147456  1
  Nb  Nb146  1  0.19648883  0.40026095  0.80204226  1
  Nb  Nb147  1  0.19544984  0.79662739  0.59893362  1
  Nb  Nb148  1  -0.00627799  0.39895942  0.40336837  1
  Nb  Nb149  1  0.40760882  0.00010456  0.39759744  1
  Pd  Pd150  1  -0.01099256  0.00103209  0.19740670  1
  Pd  Pd151  1  0.00873168  -0.00084044  0.80396419  1
  Pd  Pd152  1  0.79194510  0.20086115  0.39966155  1
  Pd  Pd153  1  0.00769136  0.60662792  0.20918908  1
  Pd  Pd154  1  0.60531162  -0.00662407  -0.00988032  1
  Pd  Pd155  1  0.40264092  0.79194932  0.60405675  1
  Pd  Pd156  1  0.59219097  -0.00187058  0.80475376  1
  Pd  Pd157  1  0.80672834  0.39393602  0.39307262  1
  Pd  Pd158  1  0.00357600  0.59888106  0.39420973  1
  Pd  Pd159  1  0.60726866  0.80603039  -0.00405647  1
  Pd  Pd160  1  0.40562421  0.19457403  0.19221145  1
  Pd  Pd161  1  0.20323402  0.41055576  0.18596337  1
  Pd  Pd162  1  0.59059310  0.39033525  0.20484232  1
  Pd  Pd163  1  -0.00319190  0.40276600  0.80070528  1
  Pd  Pd164  1  0.40317115  0.59789299  -0.00477188  1
  Pd  Pd165  1  0.79682748  0.19796897  0.59950047  1
  Pd  Pd166  1  0.60043762  -0.00883656  0.59047886  1
  Pd  Pd167  1  0.60442856  0.60158258  0.38653802  1
  Pd  Pd168  1  0.80240393  0.40481970  -0.00867681  1
  Pd  Pd169  1  0.80641715  -0.00524751  0.19756438  1
  Pd  Pd170  1  0.79340127  0.60088693  0.20428270  1
  Pd  Pd171  1  0.80259860  0.39636731  0.60734540  1
  Pd  Pd172  1  -0.01078320  0.39444023  -0.00339844  1
  Pd  Pd173  1  0.59961278  0.00066560  0.40221509  1
  Pd  Pd174  1  0.00707315  0.20032463  0.60038966  1
  Pd  Pd175  1  0.39928470  0.80665021  0.39444555  1
  Pd  Pd176  1  0.39766368  0.59278971  0.40830456  1
  Pd  Pd177  1  0.21232337  0.00594180  0.40605598  1
  Pd  Pd178  1  0.00077725  0.19321818  0.80898325  1
  Pd  Pd179  1  0.40234381  0.20630342  0.59802716  1
  Pd  Pd180  1  0.39356029  0.60733405  0.79907691  1
  Pd  Pd181  1  -0.00102764  0.01156808  0.59744625  1
  Pd  Pd182  1  0.60137165  0.39181147  0.60773932  1
  Pd  Pd183  1  0.19897615  0.39968745  0.00094768  1
  Pd  Pd184  1  0.19859650  0.20446192  0.59339442  1
  Pd  Pd185  1  0.20797206  0.79679461  0.00678110  1
  Pd  Pd186  1  0.40984841  0.19316501  0.79943203  1
  Pd  Pd187  1  0.00311692  0.00596199  0.00171292  1
  Pd  Pd188  1  0.60634034  0.59865089  0.20825555  1
  Pd  Pd189  1  -0.00032959  0.79180937  0.60246310  1
  Pd  Pd190  1  0.40265492  0.40271646  0.00513186  1
  Pd  Pd191  1  0.41306252  0.41343776  0.41219463  1
  Pd  Pd192  1  0.79923678  0.60596067  0.38681052  1
  Pd  Pd193  1  0.59331911  0.19701364  0.79730023  1
  Pd  Pd194  1  0.79336069  0.79683409  -0.00282860  1
  Pd  Pd195  1  0.40413207  0.40091484  0.19119748  1
  Pd  Pd196  1  -0.00569288  0.81119070  0.20166465  1
  Pd  Pd197  1  0.00505741  0.80422693  0.40162974  1
  Pd  Pd198  1  0.79749193  0.19694829  0.19890418  1
  Pd  Pd199  1  0.80212375  0.80473562  0.19800835  1
  Rh  Rh200  1  0.60161313  0.59672231  0.00038405  1
  Rh  Rh201  1  0.79811828  0.00043008  0.79656206  1
  Rh  Rh202  1  0.79776725  0.20351492  0.80122259  1
  Rh  Rh203  1  0.59952539  0.79920362  0.19401173  1
  Rh  Rh204  1  0.59741642  0.20561765  0.60606594  1
  Rh  Rh205  1  0.18862108  0.39784794  0.41236680  1
  Rh  Rh206  1  0.20024795  0.00586803  -0.00687683  1
  Rh  Rh207  1  0.59226825  0.61521523  0.60911097  1
  Rh  Rh208  1  0.78420294  0.59178686  0.81247502  1
  Rh  Rh209  1  0.79439472  -0.00408564  -0.00444515  1
  Rh  Rh210  1  0.19445439  0.79272628  0.41556916  1
  Rh  Rh211  1  0.59901440  0.59685005  0.79886704  1
  Rh  Rh212  1  0.19890874  0.19767540  0.80994405  1
  Rh  Rh213  1  0.39638898  0.20180589  0.00202863  1
  Rh  Rh214  1  0.80822583  0.80648524  0.79793128  1
  Rh  Rh215  1  0.79930599  0.79410180  0.40510127  1
  Rh  Rh216  1  0.59064350  0.39972344  0.00414188  1
  Rh  Rh217  1  0.60653749  0.79316103  0.40423324  1
  Rh  Rh218  1  0.39945979  0.80235948  0.00534336  1
  Rh  Rh219  1  0.59952524  0.19936863  0.00527224  1
  Rh  Rh220  1  0.80257326  0.60874402  0.59769259  1
  Rh  Rh221  1  0.19979447  0.59904804  0.00354985  1
  Rh  Rh222  1  0.39303929  0.60493853  0.20141650  1
  Rh  Rh223  1  0.59824024  0.39795578  0.39326750  1
  Rh  Rh224  1  0.00954866  0.20555042  0.39402835  1
  Rh  Rh225  1  0.19542273  -0.00460087  0.60365291  1
  Rh  Rh226  1  -0.01316922  0.59903778  0.59315181  1
  Rh  Rh227  1  0.61095664  0.40115878  0.79030477  1
  Rh  Rh228  1  -0.00608004  0.39106470  0.20682143  1
  Rh  Rh229  1  0.38689068  0.39753077  0.79224865  1
  Rh  Rh230  1  0.60826418  0.20359215  0.38975573  1
  Rh  Rh231  1  0.00937158  0.60933556  0.80981321  1
  Rh  Rh232  1  0.19491547  0.79910061  0.79234975  1
  Rh  Rh233  1  0.20994290  -0.00504021  0.19829625  1
  Rh  Rh234  1  0.20909033  0.79315469  0.19014995  1
  Rh  Rh235  1  0.19698596  0.19991282  0.19887607  1
  Rh  Rh236  1  0.80216443  0.01165743  0.40672880  1
  Rh  Rh237  1  0.59436806  0.80954834  0.79555750  1
  Rh  Rh238  1  0.38758201  0.18902924  0.40250459  1
  Rh  Rh239  1  0.80094304  0.39668342  0.20934933  1
  Rh  Rh240  1  0.21271185  0.60293882  0.59804141  1
  Rh  Rh241  1  0.80446123  0.19950439  -0.00285454  1
  Rh  Rh242  1  0.40073136  0.00339686  0.80267411  1
  Rh  Rh243  1  -0.01249263  0.60333379  0.00260939  1
  Rh  Rh244  1  0.40208374  -0.00471043  0.00319939  1
  Rh  Rh245  1  -0.00117329  0.80017995  -0.00469733  1
  Rh  Rh246  1  0.60005898  0.00457968  0.19837384  1
  Rh  Rh247  1  -0.00480582  -0.00067880  0.39958612  1
  Rh  Rh248  1  0.41162349  -0.00107396  0.58957681  1
  Rh  Rh249  1  0.40220855  0.79672744  0.80439933  1
