# generated using pymatgen
data_ZrScNbPdRh
_symmetry_space_group_name_H-M   'P 1'
_cell_length_a   16.55201632
_cell_length_b   16.55220420
_cell_length_c   16.55231478
_cell_angle_alpha   89.99794476
_cell_angle_beta   90.00139734
_cell_angle_gamma   89.99786050
_symmetry_Int_Tables_number   1
_chemical_formula_structural   ZrScNbPdRh
_chemical_formula_sum   'Zr50 Sc50 Nb50 Pd50 Rh50'
_cell_volume   4534.87663781
_cell_formula_units_Z   50
loop_
 _symmetry_equiv_pos_site_id
 _symmetry_equiv_pos_as_xyz
  1  'x, y, z'
loop_
 _atom_site_type_symbol
 _atom_site_label
 _atom_site_symmetry_multiplicity
 _atom_site_fract_x
 _atom_site_fract_y
 _atom_site_fract_z
 _atom_site_occupancy
  Zr  Zr0  1  0.29700741  0.89479859  0.89875111  1
  Zr  Zr1  1  0.50366564  0.68903372  0.30280094  1
  Zr  Zr2  1  0.50740305  0.09387760  0.50320230  1
  Zr  Zr3  1  0.70116540  0.50179139  0.70591382  1
  Zr  Zr4  1  0.30768532  0.29741221  0.70227802  1
  Zr  Zr5  1  0.70086526  0.10001614  0.68935597  1
  Zr  Zr6  1  0.29469975  0.29651703  0.49203747  1
  Zr  Zr7  1  0.89957890  0.49823958  0.49166704  1
  Zr  Zr8  1  0.28673256  0.90255576  0.49651370  1
  Zr  Zr9  1  0.49868356  0.09668279  0.90797812  1
  Zr  Zr10  1  0.50721029  0.70550503  0.49869556  1
  Zr  Zr11  1  0.49356711  0.29568473  0.29595383  1
  Zr  Zr12  1  0.29903994  0.10167455  0.49649422  1
  Zr  Zr13  1  0.70420904  0.29999980  0.10156909  1
  Zr  Zr14  1  0.70310893  0.29715436  0.70179327  1
  Zr  Zr15  1  0.49438143  0.09227700  0.10182611  1
  Zr  Zr16  1  0.90217918  0.89371049  0.09325390  1
  Zr  Zr17  1  0.30737885  0.91177223  0.09933202  1
  Zr  Zr18  1  0.89086195  0.89802336  0.50350061  1
  Zr  Zr19  1  0.90303419  0.30522982  0.30110222  1
  Zr  Zr20  1  0.49829574  0.70915387  0.70185522  1
  Zr  Zr21  1  0.70249963  0.29732331  0.50505921  1
  Zr  Zr22  1  0.89789043  0.30404801  0.89733980  1
  Zr  Zr23  1  0.90457805  0.69889502  0.10542970  1
  Zr  Zr24  1  0.29005390  0.10181984  0.69506928  1
  Zr  Zr25  1  0.10042354  0.90508983  0.10347332  1
  Zr  Zr26  1  0.50038759  0.89884300  0.91125319  1
  Zr  Zr27  1  0.89958369  0.50492055  0.09963066  1
  Zr  Zr28  1  0.30251413  0.30493362  0.89442370  1
  Zr  Zr29  1  0.89505083  0.69873848  0.29946389  1
  Zr  Zr30  1  0.69862456  0.09501352  0.30116670  1
  Zr  Zr31  1  0.30891050  0.49937848  0.29371919  1
  Zr  Zr32  1  0.10538251  0.90739467  0.30466267  1
  Zr  Zr33  1  0.50192624  0.49434358  0.90749829  1
  Zr  Zr34  1  0.90785048  0.49723942  0.90321733  1
  Zr  Zr35  1  0.30340626  0.89327491  0.70128390  1
  Zr  Zr36  1  0.29871286  0.70383920  0.71202729  1
  Zr  Zr37  1  0.50048374  0.50676723  0.49414835  1
  Zr  Zr38  1  0.28669215  0.69068256  0.09982815  1
  Zr  Zr39  1  0.11014065  0.09694448  0.50754916  1
  Zr  Zr40  1  0.49849029  0.49385403  0.10416521  1
  Zr  Zr41  1  0.90837210  0.70122957  0.70062873  1
  Zr  Zr42  1  0.49816549  0.10289647  0.69274379  1
  Zr  Zr43  1  0.89621462  0.09705316  0.70014973  1
  Zr  Zr44  1  0.49467917  0.30283762  0.50858726  1
  Zr  Zr45  1  0.70102762  0.09399423  0.90213128  1
  Zr  Zr46  1  0.90619516  0.30019015  0.50213492  1
  Zr  Zr47  1  0.30151885  0.49592350  0.70083760  1
  Zr  Zr48  1  0.29442873  0.90435714  0.29767787  1
  Zr  Zr49  1  0.90192609  0.50189366  0.29941491  1
  Sc  Sc50  1  0.30323885  0.70457490  0.90294305  1
  Sc  Sc51  1  0.10011458  0.11082792  0.10475893  1
  Sc  Sc52  1  0.89273109  0.90849433  0.29883839  1
  Sc  Sc53  1  0.50284618  0.69692196  0.89730677  1
  Sc  Sc54  1  0.30226460  0.48713289  0.49805733  1
  Sc  Sc55  1  0.89596608  0.09300550  0.50412741  1
  Sc  Sc56  1  0.50283603  0.50382023  0.69918786  1
  Sc  Sc57  1  0.69415065  0.49712880  0.09678419  1
  Sc  Sc58  1  0.28999431  0.11193968  0.88569858  1
  Sc  Sc59  1  0.90908445  0.10445241  0.89258948  1
  Sc  Sc60  1  0.89329457  0.69841703  0.50242426  1
  Sc  Sc61  1  0.89674161  0.10243925  0.10832376  1
  Sc  Sc62  1  0.70599503  0.89175099  0.89670788  1
  Sc  Sc63  1  0.50030483  0.10062100  0.29390082  1
  Sc  Sc64  1  0.89848182  0.70920076  0.90696125  1
  Sc  Sc65  1  0.69984887  0.89863185  0.30251709  1
  Sc  Sc66  1  0.70180365  0.70595417  0.49861634  1
  Sc  Sc67  1  0.10155631  0.70403710  0.29444135  1
  Sc  Sc68  1  0.69290606  0.89408541  0.09976503  1
  Sc  Sc69  1  0.29384326  0.70405387  0.49202440  1
  Sc  Sc70  1  0.71083052  0.89830765  0.70165661  1
  Sc  Sc71  1  0.69605324  0.90210777  0.49511372  1
  Sc  Sc72  1  0.70627197  0.49283120  0.90532653  1
  Sc  Sc73  1  0.69968013  0.50722725  0.50252182  1
  Sc  Sc74  1  0.69736186  0.70249481  0.89730988  1
  Sc  Sc75  1  0.30863745  0.10621312  0.29030314  1
  Sc  Sc76  1  0.09711927  0.10227150  0.70256748  1
  Sc  Sc77  1  0.09924685  0.90929395  0.49932194  1
  Sc  Sc78  1  0.69416881  0.10491503  0.10260328  1
  Sc  Sc79  1  0.91407319  0.49640548  0.70720780  1
  Sc  Sc80  1  0.30981553  0.50323446  0.90825914  1
  Sc  Sc81  1  0.10448418  0.70911289  0.90190033  1
  Sc  Sc82  1  0.70694537  0.30126287  0.90862941  1
  Sc  Sc83  1  0.70835033  0.70270537  0.09904344  1
  Sc  Sc84  1  0.29251374  0.69877364  0.29842070  1
  Sc  Sc85  1  0.90851205  0.30111564  0.09786472  1
  Sc  Sc86  1  0.89872701  0.89990983  0.70214802  1
  Sc  Sc87  1  0.09255774  0.50707388  0.09708204  1
  Sc  Sc88  1  0.51209534  0.70331608  0.09714336  1
  Sc  Sc89  1  0.69729224  0.70241769  0.29980568  1
  Sc  Sc90  1  0.50756836  0.30088804  0.10014058  1
  Sc  Sc91  1  0.09681266  0.48087310  0.50385317  1
  Sc  Sc92  1  0.70355162  0.29120417  0.29539906  1
  Sc  Sc93  1  0.09306224  0.90163136  0.70804528  1
  Sc  Sc94  1  0.50450592  0.90279118  0.09901042  1
  Sc  Sc95  1  0.70057163  0.70182169  0.70308746  1
  Sc  Sc96  1  0.09123838  0.70095353  0.49976795  1
  Sc  Sc97  1  0.89223824  0.09961497  0.29975032  1
  Sc  Sc98  1  0.09204271  0.28781784  0.90232033  1
  Sc  Sc99  1  0.51536813  0.90248806  0.29463097  1
  Nb  Nb100  1  0.09585195  0.49546156  0.89600583  1
  Nb  Nb101  1  0.69785454  0.10022749  0.50211605  1
  Nb  Nb102  1  0.49929653  0.90015981  0.50149809  1
  Nb  Nb103  1  0.09854659  0.09621110  0.89191287  1
  Nb  Nb104  1  0.09222424  0.91338529  0.90357941  1
  Nb  Nb105  1  0.29702421  0.49348974  0.09757733  1
  Nb  Nb106  1  0.10261578  0.29505063  0.49631917  1
  Nb  Nb107  1  0.90085552  0.90651589  0.89877825  1
  Nb  Nb108  1  0.10238423  0.30381682  0.10503271  1
  Nb  Nb109  1  0.49856779  0.90319161  0.69224337  1
  Nb  Nb110  1  0.49820498  0.30037012  0.70466905  1
  Nb  Nb111  1  0.09748445  0.69436220  0.70097798  1
  Nb  Nb112  1  0.89780545  0.29599547  0.69989297  1
  Nb  Nb113  1  0.49048184  0.29984373  0.89593814  1
  Nb  Nb114  1  0.50856767  0.49751651  0.29623697  1
  Nb  Nb115  1  0.09870960  0.50169784  0.70386524  1
  Nb  Nb116  1  0.29337528  0.29367381  0.09939560  1
  Nb  Nb117  1  0.09832315  0.70470399  0.10285754  1
  Nb  Nb118  1  0.09097097  0.30342665  0.68515230  1
  Nb  Nb119  1  0.30162520  0.10121507  0.09809447  1
  Nb  Nb120  1  0.69605772  0.50039777  0.29540957  1
  Nb  Nb121  1  0.09617222  0.09704480  0.30197985  1
  Nb  Nb122  1  0.09800038  0.48779397  0.30398949  1
  Nb  Nb123  1  0.10020234  0.30303305  0.29890385  1
  Nb  Nb124  1  0.30029833  0.29937082  0.29880087  1
  Nb  Nb125  1  0.19155190  0.40205431  0.80163750  1
  Nb  Nb126  1  0.59540288  0.20137047  0.80096563  1
  Nb  Nb127  1  0.59569146  0.39146056  0.80195279  1
  Nb  Nb128  1  0.80831444  0.59843069  0.80245304  1
  Nb  Nb129  1  0.19229163  0.59396194  0.79902648  1
  Nb  Nb130  1  0.19825536  0.59925230  0.60212634  1
  Nb  Nb131  1  0.80669136  -0.00418463  -0.00291496  1
  Nb  Nb132  1  0.80580955  0.39828726  0.60475941  1
  Nb  Nb133  1  -0.00476326  0.80468725  0.39763913  1
  Nb  Nb134  1  0.19463639  0.79331083  0.60720203  1
  Nb  Nb135  1  0.59975721  0.20171453  0.40618695  1
  Nb  Nb136  1  0.40408016  -0.00207535  0.79618888  1
  Nb  Nb137  1  0.19432001  0.58875219  0.40076382  1
  Nb  Nb138  1  0.20061174  0.39581619  0.19864999  1
  Nb  Nb139  1  0.01036031  0.19995301  0.39942889  1
  Nb  Nb140  1  0.39368660  0.20321090  0.00114244  1
  Nb  Nb141  1  0.80231355  0.40538502  0.20309622  1
  Nb  Nb142  1  0.59452579  0.00031758  0.79511003  1
  Nb  Nb143  1  0.39428044  0.60645388  0.59870483  1
  Nb  Nb144  1  0.19389362  0.00758094  -0.00566223  1
  Nb  Nb145  1  0.59871155  0.39932520  0.39392006  1
  Nb  Nb146  1  0.39982313  0.79858482  0.20353561  1
  Nb  Nb147  1  0.40528691  0.80648476  0.39621757  1
  Nb  Nb148  1  0.40439911  -0.00657622  0.40219258  1
  Nb  Nb149  1  0.19780594  0.39817971  0.00286103  1
  Pd  Pd150  1  0.19635243  0.80919859  0.00409142  1
  Pd  Pd151  1  0.78796447  0.40276951  0.39925825  1
  Pd  Pd152  1  -0.00139050  0.01446920  0.00498370  1
  Pd  Pd153  1  0.20196313  0.39694742  0.60499423  1
  Pd  Pd154  1  0.00694979  0.61031755  -0.00596191  1
  Pd  Pd155  1  -0.00655239  0.00288689  0.40300383  1
  Pd  Pd156  1  0.80836050  0.19165384  0.00146464  1
  Pd  Pd157  1  0.19948411  0.19929559  -0.00483698  1
  Pd  Pd158  1  0.59675276  0.80992294  0.79945997  1
  Pd  Pd159  1  0.39209938  -0.00087360  0.59777764  1
  Pd  Pd160  1  0.00303473  0.59147533  0.59184132  1
  Pd  Pd161  1  0.79698292  0.80365550  0.20096380  1
  Pd  Pd162  1  0.60991515  0.80576647  0.60319285  1
  Pd  Pd163  1  -0.00263354  0.00172132  0.19927798  1
  Pd  Pd164  1  0.00118272  0.80176499  0.80756588  1
  Pd  Pd165  1  0.40552479  0.40022553  0.39671431  1
  Pd  Pd166  1  0.20286316  -0.00504936  0.79933310  1
  Pd  Pd167  1  0.80815939  0.59420256  0.60997502  1
  Pd  Pd168  1  0.19952347  0.19890803  0.20816066  1
  Pd  Pd169  1  -0.00189186  0.19561552  0.00223751  1
  Pd  Pd170  1  0.40408421  0.60564778  0.01024831  1
  Pd  Pd171  1  0.60541303  0.60088210  -0.00073834  1
  Pd  Pd172  1  0.59336653  0.20655679  -0.00379506  1
  Pd  Pd173  1  0.80279394  0.19346874  0.40442467  1
  Pd  Pd174  1  0.79138156  0.60310060  0.39732332  1
  Pd  Pd175  1  0.79733851  0.60268342  -0.00542134  1
  Pd  Pd176  1  0.59722926  0.60651784  0.60316768  1
  Pd  Pd177  1  0.40032288  0.78956147  0.01088342  1
  Pd  Pd178  1  0.00853407  0.59916742  0.20503505  1
  Pd  Pd179  1  0.39010416  0.60530039  0.40414772  1
  Pd  Pd180  1  -0.00075503  0.19046042  0.59524034  1
  Pd  Pd181  1  0.60654800  0.60353170  0.19262179  1
  Pd  Pd182  1  0.00791532  0.60447438  0.39904118  1
  Pd  Pd183  1  -0.00106741  0.80755835  0.20946330  1
  Pd  Pd184  1  0.39570925  0.39165762  0.19329439  1
  Pd  Pd185  1  0.18963953  0.58835114  0.20596758  1
  Pd  Pd186  1  0.00503597  0.38786027  0.79895745  1
  Pd  Pd187  1  -0.00296784  0.19940975  0.20764280  1
  Pd  Pd188  1  0.00580928  0.79862810  -0.00254843  1
  Pd  Pd189  1  0.79286137  -0.00529803  0.18899984  1
  Pd  Pd190  1  0.19387260  0.59344236  -0.00846717  1
  Pd  Pd191  1  0.39627139  0.19947141  0.59524928  1
  Pd  Pd192  1  0.39130590  0.79473375  0.58960708  1
  Pd  Pd193  1  0.20451038  0.80325512  0.19431272  1
  Pd  Pd194  1  0.00407156  0.80782315  0.59344549  1
  Pd  Pd195  1  0.79598698  0.19631023  0.80501414  1
  Pd  Pd196  1  0.40280168  0.60710992  0.19057278  1
  Pd  Pd197  1  0.19752139  0.19524397  0.38798172  1
  Pd  Pd198  1  0.39978231  0.59621912  0.79922445  1
  Pd  Pd199  1  0.60355509  0.40333056  0.60197989  1
  Rh  Rh200  1  0.79462304  0.00216679  0.40297527  1
  Rh  Rh201  1  0.59826503  0.00474609  0.40062046  1
  Rh  Rh202  1  0.79838930  0.40494044  0.79453768  1
  Rh  Rh203  1  0.00118335  0.20283680  0.79259423  1
  Rh  Rh204  1  0.00518636  0.39140250  0.40222158  1
  Rh  Rh205  1  0.79899816  0.80537251  0.00030354  1
  Rh  Rh206  1  0.60820076  0.59432700  0.39958591  1
  Rh  Rh207  1  0.79559593  -0.00401406  0.59753665  1
  Rh  Rh208  1  0.18679472  0.79077778  0.40760340  1
  Rh  Rh209  1  -0.00710415  0.40300022  0.59990687  1
  Rh  Rh210  1  0.40316691  0.40607108  0.60248880  1
  Rh  Rh211  1  -0.00586680  0.00209871  0.79560686  1
  Rh  Rh212  1  0.59663700  0.79460190  0.20266074  1
  Rh  Rh213  1  -0.00019897  0.00033135  0.60449243  1
  Rh  Rh214  1  0.80971204  0.79093875  0.79834840  1
  Rh  Rh215  1  0.00052254  0.40460579  0.19493739  1
  Rh  Rh216  1  0.19752014  0.01239139  0.19390337  1
  Rh  Rh217  1  0.40819781  0.19193174  0.40457512  1
  Rh  Rh218  1  0.60906976  -0.01074110  0.60468206  1
  Rh  Rh219  1  -0.00023048  0.60873946  0.81052130  1
  Rh  Rh220  1  0.40128440  0.20439465  0.18761456  1
  Rh  Rh221  1  0.79856946  0.00035951  0.80617572  1
  Rh  Rh222  1  0.79768404  0.79809741  0.60177213  1
  Rh  Rh223  1  0.20068676  0.20975403  0.60477513  1
  Rh  Rh224  1  0.59665028  0.80149661  0.39797881  1
  Rh  Rh225  1  0.80768540  0.20201856  0.59471023  1
  Rh  Rh226  1  0.60440982  0.00258107  0.19565433  1
  Rh  Rh227  1  0.61497143  -0.00791509  -0.00302435  1
  Rh  Rh228  1  0.60950483  0.39487261  0.20579662  1
  Rh  Rh229  1  0.19530036  -0.01137613  0.61290415  1
  Rh  Rh230  1  0.39552567  0.39106682  0.01028002  1
  Rh  Rh231  1  0.18469711  0.21495235  0.78886901  1
  Rh  Rh232  1  0.79351428  0.59384867  0.20015419  1
  Rh  Rh233  1  0.20979714  0.01527790  0.38794835  1
  Rh  Rh234  1  0.59835177  0.39316120  -0.00611185  1
  Rh  Rh235  1  0.20381824  0.40003811  0.39055414  1
  Rh  Rh236  1  0.80564155  0.80037573  0.39810766  1
  Rh  Rh237  1  0.59748683  0.19787301  0.20401806  1
  Rh  Rh238  1  0.60329659  0.79755807  -0.00324504  1
  Rh  Rh239  1  0.40575139  0.41071177  0.79668445  1
  Rh  Rh240  1  0.18822344  0.79960358  0.79859310  1
  Rh  Rh241  1  0.00565198  0.39681795  0.00399214  1
  Rh  Rh242  1  0.80696166  0.39992761  0.01237438  1
  Rh  Rh243  1  0.80565319  0.20930433  0.19709061  1
  Rh  Rh244  1  0.59725411  0.20477771  0.59949085  1
  Rh  Rh245  1  0.60949336  0.58846273  0.80949116  1
  Rh  Rh246  1  0.37826406  0.01472820  -0.01672529  1
  Rh  Rh247  1  0.41239901  0.80712177  0.80835442  1
  Rh  Rh248  1  0.40511911  -0.00883451  0.21011877  1
  Rh  Rh249  1  0.40824808  0.18799775  0.80391883  1
