# generated using pymatgen
data_ZrScNbPdRh
_symmetry_space_group_name_H-M   'P 1'
_cell_length_a   16.56095595
_cell_length_b   16.55875938
_cell_length_c   16.55946455
_cell_angle_alpha   89.98069346
_cell_angle_beta   89.99556321
_cell_angle_gamma   90.01380388
_symmetry_Int_Tables_number   1
_chemical_formula_structural   ZrScNbPdRh
_chemical_formula_sum   'Zr50 Sc50 Nb50 Pd50 Rh50'
_cell_volume   4541.08309093
_cell_formula_units_Z   50
loop_
 _symmetry_equiv_pos_site_id
 _symmetry_equiv_pos_as_xyz
  1  'x, y, z'
loop_
 _atom_site_type_symbol
 _atom_site_label
 _atom_site_symmetry_multiplicity
 _atom_site_fract_x
 _atom_site_fract_y
 _atom_site_fract_z
 _atom_site_occupancy
  Zr  Zr0  1  0.88826844  0.09645133  0.10956397  1
  Zr  Zr1  1  0.29774949  0.70537252  0.30095272  1
  Zr  Zr2  1  0.29454518  0.90054146  0.69867260  1
  Zr  Zr3  1  0.89542473  0.50161774  0.89241442  1
  Zr  Zr4  1  0.89637282  0.49425084  0.09133118  1
  Zr  Zr5  1  0.90437135  0.89558299  0.89656074  1
  Zr  Zr6  1  0.90126429  0.50281285  0.30807590  1
  Zr  Zr7  1  0.90325955  0.69744486  0.30572902  1
  Zr  Zr8  1  0.09917324  0.90361666  0.51054588  1
  Zr  Zr9  1  0.31229097  0.50161495  0.70294127  1
  Zr  Zr10  1  0.09400902  0.90168366  0.70161009  1
  Zr  Zr11  1  0.50829105  0.10913649  0.09422672  1
  Zr  Zr12  1  0.90395275  0.70143491  0.49966594  1
  Zr  Zr13  1  0.29896097  0.30987793  0.49896488  1
  Zr  Zr14  1  0.30711908  0.10022008  0.90640769  1
  Zr  Zr15  1  0.10491883  0.10138603  0.09807476  1
  Zr  Zr16  1  0.29507839  0.30276665  0.28568436  1
  Zr  Zr17  1  0.30371078  0.70153380  0.50021368  1
  Zr  Zr18  1  0.09154711  0.88836213  0.89404264  1
  Zr  Zr19  1  0.09011594  0.50657149  0.91264696  1
  Zr  Zr20  1  0.30337157  0.30223459  0.90641571  1
  Zr  Zr21  1  0.30548298  0.50274033  0.49931156  1
  Zr  Zr22  1  0.10614709  0.50080058  0.49056914  1
  Zr  Zr23  1  0.10090348  0.69316224  0.29757298  1
  Zr  Zr24  1  0.09894990  0.30058867  0.91026119  1
  Zr  Zr25  1  0.30314727  0.09707962  0.70162316  1
  Zr  Zr26  1  0.10416033  0.50012981  0.29783833  1
  Zr  Zr27  1  0.50290985  0.69643826  0.71195556  1
  Zr  Zr28  1  0.90219862  0.89672146  0.70329760  1
  Zr  Zr29  1  0.69269438  0.89943143  0.29747468  1
  Zr  Zr30  1  0.50689436  0.30102533  0.49547415  1
  Zr  Zr31  1  0.49686706  0.30734259  0.10273636  1
  Zr  Zr32  1  0.69605051  0.29821564  0.51496279  1
  Zr  Zr33  1  0.30624185  0.90020920  0.09938897  1
  Zr  Zr34  1  0.50358384  0.69130136  0.10165662  1
  Zr  Zr35  1  0.10807056  0.68869639  0.09468052  1
  Zr  Zr36  1  0.49708182  0.30363646  0.30005556  1
  Zr  Zr37  1  0.30745579  0.89595383  0.49982116  1
  Zr  Zr38  1  0.68667131  0.50480138  0.09728321  1
  Zr  Zr39  1  0.10313643  0.30133527  0.49726484  1
  Zr  Zr40  1  0.50421612  0.09563820  0.29889411  1
  Zr  Zr41  1  0.70267745  0.09484923  0.28432053  1
  Zr  Zr42  1  0.30370266  0.90734705  0.30263584  1
  Zr  Zr43  1  0.89354737  0.30185328  0.29602158  1
  Zr  Zr44  1  0.49257148  0.69986605  0.50187608  1
  Zr  Zr45  1  0.11243314  0.30090989  0.10034153  1
  Zr  Zr46  1  0.69969722  0.90238958  0.89204920  1
  Zr  Zr47  1  0.89519304  0.29581192  0.09628325  1
  Zr  Zr48  1  0.10681114  0.09166619  0.29832652  1
  Zr  Zr49  1  0.89831767  0.89480426  0.09208865  1
  Sc  Sc50  1  0.50361203  0.09795984  0.90096869  1
  Sc  Sc51  1  0.09449311  0.90091110  0.09536543  1
  Sc  Sc52  1  0.69502750  0.30815416  0.29762806  1
  Sc  Sc53  1  0.49971263  0.49477816  0.49668087  1
  Sc  Sc54  1  0.70750604  0.89931751  0.10308254  1
  Sc  Sc55  1  0.30485865  0.30620138  0.70013107  1
  Sc  Sc56  1  0.29367567  0.08251089  0.49881931  1
  Sc  Sc57  1  0.30993305  0.70718188  0.70299624  1
  Sc  Sc58  1  0.30078842  0.49805236  0.10366341  1
  Sc  Sc59  1  0.71135352  0.50545585  0.70545011  1
  Sc  Sc60  1  0.49654083  0.90223386  0.29766024  1
  Sc  Sc61  1  0.09856319  0.71178880  0.69985464  1
  Sc  Sc62  1  0.49200251  0.69908461  0.89920442  1
  Sc  Sc63  1  0.49323380  0.30020907  0.90536609  1
  Sc  Sc64  1  0.89924819  0.10494767  0.51471765  1
  Sc  Sc65  1  0.89438662  0.09771161  0.90143265  1
  Sc  Sc66  1  0.70628700  0.29616633  0.90019278  1
  Sc  Sc67  1  0.09511446  0.09633451  0.68558672  1
  Sc  Sc68  1  0.09836843  0.71050762  0.49772037  1
  Sc  Sc69  1  0.89363989  0.70661662  0.10536022  1
  Sc  Sc70  1  0.71262962  0.69657727  0.49611736  1
  Sc  Sc71  1  0.49740523  0.90192468  0.90178078  1
  Sc  Sc72  1  0.50174890  0.50496634  0.90412193  1
  Sc  Sc73  1  0.88044484  0.29883266  0.69716539  1
  Sc  Sc74  1  0.90125874  0.89216169  0.28881019  1
  Sc  Sc75  1  0.31367422  0.49633209  0.89952501  1
  Sc  Sc76  1  0.10142139  0.89269037  0.30008937  1
  Sc  Sc77  1  0.90016767  0.09881960  0.70290165  1
  Sc  Sc78  1  0.69800486  0.10773533  0.71138496  1
  Sc  Sc79  1  0.29599598  0.50353367  0.30520437  1
  Sc  Sc80  1  0.49420598  0.90123801  0.71284660  1
  Sc  Sc81  1  0.09483893  0.51428471  0.70257796  1
  Sc  Sc82  1  0.30525277  0.70066817  0.10020262  1
  Sc  Sc83  1  0.89391952  0.30684825  0.90698715  1
  Sc  Sc84  1  0.49607083  0.88855394  0.10427558  1
  Sc  Sc85  1  0.50447598  0.09410160  0.49183986  1
  Sc  Sc86  1  0.69248081  0.10122964  0.49707789  1
  Sc  Sc87  1  0.49926226  0.09623096  0.71155379  1
  Sc  Sc88  1  0.69646935  0.49514406  0.49712978  1
  Sc  Sc89  1  0.30485775  0.89403456  0.90372815  1
  Sc  Sc90  1  0.89154057  0.30431371  0.50332738  1
  Sc  Sc91  1  0.69995625  0.29910901  0.09624321  1
  Sc  Sc92  1  0.70008331  0.50265307  0.30044148  1
  Sc  Sc93  1  0.50091092  0.70224241  0.29373100  1
  Sc  Sc94  1  0.09655358  0.09585247  0.90710781  1
  Sc  Sc95  1  0.50553031  0.30134206  0.69583127  1
  Sc  Sc96  1  0.70339224  0.69605434  0.29211298  1
  Sc  Sc97  1  0.68878719  0.69970304  0.88441562  1
  Sc  Sc98  1  0.50729507  0.49726420  0.29908540  1
  Sc  Sc99  1  0.10670079  0.29795139  0.68861521  1
  Nb  Nb100  1  0.89946994  0.89510883  0.49778571  1
  Nb  Nb101  1  0.50473902  0.90020034  0.49617672  1
  Nb  Nb102  1  0.50059572  0.50321942  0.70648855  1
  Nb  Nb103  1  0.29646633  0.10620122  0.10493251  1
  Nb  Nb104  1  0.70351929  0.89690564  0.49962445  1
  Nb  Nb105  1  0.09973195  0.30017460  0.29920402  1
  Nb  Nb106  1  0.10112341  0.70062730  0.89921724  1
  Nb  Nb107  1  0.89859148  0.10050722  0.30103211  1
  Nb  Nb108  1  0.09523072  0.10107043  0.49795326  1
  Nb  Nb109  1  0.29120994  0.70520608  0.89996618  1
  Nb  Nb110  1  0.90469336  0.50706454  0.70109843  1
  Nb  Nb111  1  0.09687616  0.49759218  0.10319313  1
  Nb  Nb112  1  0.70128863  0.10202971  0.09020757  1
  Nb  Nb113  1  0.50387979  0.50342991  0.09586871  1
  Nb  Nb114  1  0.69540507  0.70074994  0.09831596  1
  Nb  Nb115  1  0.70165108  0.49912645  0.90109467  1
  Nb  Nb116  1  0.69636595  0.70372149  0.69708458  1
  Nb  Nb117  1  0.29962680  0.09655921  0.30047334  1
  Nb  Nb118  1  0.69010007  0.09849744  0.91205455  1
  Nb  Nb119  1  0.69969776  0.89159143  0.70273032  1
  Nb  Nb120  1  0.69545090  0.30553053  0.69973156  1
  Nb  Nb121  1  0.89790014  0.68618991  0.70012493  1
  Nb  Nb122  1  0.91073269  0.70083759  0.90036522  1
  Nb  Nb123  1  0.30118349  0.29450183  0.09736777  1
  Nb  Nb124  1  0.90335295  0.50618298  0.50151778  1
  Nb  Nb125  1  0.39049986  0.19665415  0.39741124  1
  Nb  Nb126  1  0.79252527  -0.00974162  0.59932636  1
  Nb  Nb127  1  0.19832783  0.00202468  0.80169556  1
  Nb  Nb128  1  0.20089178  0.60388834  0.80512184  1
  Nb  Nb129  1  0.19948413  0.19641077  0.39591770  1
  Nb  Nb130  1  0.80164692  0.19435546  0.39632120  1
  Nb  Nb131  1  0.40101303  0.19822156  0.58989534  1
  Nb  Nb132  1  0.19177936  0.40367518  0.80379127  1
  Nb  Nb133  1  0.60031223  0.80225149  0.40746500  1
  Nb  Nb134  1  0.60628720  0.40298262  0.79818977  1
  Nb  Nb135  1  0.20624638  0.60393263  0.60331054  1
  Nb  Nb136  1  -0.00696216  0.00266903  0.40385265  1
  Nb  Nb137  1  0.00217820  0.20122081  0.20486833  1
  Nb  Nb138  1  -0.00025142  0.39863693  0.79291704  1
  Nb  Nb139  1  0.60421481  0.80097198  0.60004176  1
  Nb  Nb140  1  0.60584468  -0.01216526  0.60272111  1
  Nb  Nb141  1  0.00390373  0.20837806  0.79983550  1
  Nb  Nb142  1  0.80471317  -0.00071703  0.40315631  1
  Nb  Nb143  1  -0.00590266  0.41015965  0.60221080  1
  Nb  Nb144  1  0.00007436  0.19622929  0.39739363  1
  Nb  Nb145  1  0.19707325  0.20029452  0.80258920  1
  Nb  Nb146  1  0.60384802  0.79449967  0.00177424  1
  Nb  Nb147  1  0.00356467  0.39763251  0.19832157  1
  Nb  Nb148  1  0.79282833  0.60594134  -0.00528275  1
  Nb  Nb149  1  0.59988839  0.60430980  0.60642335  1
  Pd  Pd150  1  0.59643627  0.20891867  0.80840684  1
  Pd  Pd151  1  0.79074802  0.79018807  -0.01259946  1
  Pd  Pd152  1  0.40539835  0.00723953  0.19198659  1
  Pd  Pd153  1  0.40929989  0.80497172  0.60775456  1
  Pd  Pd154  1  0.19941693  0.80253080  0.19329000  1
  Pd  Pd155  1  0.40072364  0.41100707  0.19884186  1
  Pd  Pd156  1  -0.00755138  0.21353318  0.60276580  1
  Pd  Pd157  1  0.60098254  0.60810270  0.40482333  1
  Pd  Pd158  1  0.80028661  0.59711057  0.19329639  1
  Pd  Pd159  1  0.79430777  0.00608719  0.79606835  1
  Pd  Pd160  1  -0.01141779  0.60796763  0.00915751  1
  Pd  Pd161  1  0.20043204  -0.00915711  0.19441199  1
  Pd  Pd162  1  0.80163450  0.41271316  0.60237906  1
  Pd  Pd163  1  -0.00167074  0.00062746  0.20326894  1
  Pd  Pd164  1  0.80256074  0.19905251  0.80613096  1
  Pd  Pd165  1  0.59555456  -0.00541276  0.18463556  1
  Pd  Pd166  1  0.41327082  0.00407734  0.59916035  1
  Pd  Pd167  1  0.40584764  0.59831832  0.39038110  1
  Pd  Pd168  1  0.60621427  0.20679853  0.19834290  1
  Pd  Pd169  1  0.19774609  0.80393613  0.40309891  1
  Pd  Pd170  1  0.79647845  0.40574120  0.19534133  1
  Pd  Pd171  1  0.39928498  0.59478654  0.20615863  1
  Pd  Pd172  1  0.19753553  0.80525696  0.00505688  1
  Pd  Pd173  1  0.80651155  0.78855715  0.80301356  1
  Pd  Pd174  1  -0.00642288  0.00393613  -0.00118969  1
  Pd  Pd175  1  0.79332379  0.39634921  0.40515849  1
  Pd  Pd176  1  -0.00808870  0.19382284  0.00195373  1
  Pd  Pd177  1  0.21092309  0.59211366  -0.00345240  1
  Pd  Pd178  1  0.19267033  0.41591092  0.61215165  1
  Pd  Pd179  1  0.20806767  0.41037039  -0.00254800  1
  Pd  Pd180  1  0.01132502  0.60317447  0.59261702  1
  Pd  Pd181  1  0.40709264  0.00319232  0.00671236  1
  Pd  Pd182  1  0.40142376  0.19351423  0.20167977  1
  Pd  Pd183  1  0.79323739  0.59447616  0.59460498  1
  Pd  Pd184  1  0.20083934  -0.00752785  -0.00654674  1
  Pd  Pd185  1  0.00572371  0.79304228  0.19270077  1
  Pd  Pd186  1  0.59745431  -0.01388325  0.00613348  1
  Pd  Pd187  1  0.79986465  -0.00128756  -0.00431049  1
  Pd  Pd188  1  0.79710397  0.80236917  0.38923055  1
  Pd  Pd189  1  0.80332698  0.79825221  0.60443124  1
  Pd  Pd190  1  -0.00372544  0.39577000  0.40221680  1
  Pd  Pd191  1  0.21069063  0.19247719  0.59640440  1
  Pd  Pd192  1  0.39954684  0.20647715  0.79331724  1
  Pd  Pd193  1  -0.00635063  0.59529089  0.19418500  1
  Pd  Pd194  1  0.60623194  0.20102315  0.39154460  1
  Pd  Pd195  1  0.59272565  0.18575832  0.60643329  1
  Pd  Pd196  1  0.41121916  0.39675208  0.59951051  1
  Pd  Pd197  1  0.39472568  0.60252328  -0.00179149  1
  Pd  Pd198  1  0.60067568  0.39407432  -0.00978400  1
  Pd  Pd199  1  0.79772360  0.60869827  0.80550504  1
  Rh  Rh200  1  0.40558751  0.79263515  0.00057074  1
  Rh  Rh201  1  0.20380758  0.79544055  0.59960530  1
  Rh  Rh202  1  0.19330960  -0.00401693  0.40396141  1
  Rh  Rh203  1  0.20116293  0.80198420  0.80000310  1
  Rh  Rh204  1  0.00158688  0.80576163  0.39736517  1
  Rh  Rh205  1  0.78997343  0.40610425  0.00068448  1
  Rh  Rh206  1  0.00786156  0.01369597  0.79926404  1
  Rh  Rh207  1  0.40261530  0.00291012  0.39983587  1
  Rh  Rh208  1  0.79796177  0.79876176  0.20224337  1
  Rh  Rh209  1  0.40786355  0.80320165  0.39302344  1
  Rh  Rh210  1  0.60416714  0.39826470  0.39990676  1
  Rh  Rh211  1  0.59804524  0.40284681  0.19664349  1
  Rh  Rh212  1  0.39748440  0.80137659  0.80543822  1
  Rh  Rh213  1  0.39129027  -0.00276550  0.80744684  1
  Rh  Rh214  1  0.79791596  0.19385312  -0.00402904  1
  Rh  Rh215  1  0.40463488  0.59725945  0.60189660  1
  Rh  Rh216  1  0.20651173  0.39560089  0.39253385  1
  Rh  Rh217  1  -0.00915315  0.79566710  0.60550878  1
  Rh  Rh218  1  -0.00781327  0.78764002  0.79242040  1
  Rh  Rh219  1  -0.00245808  0.39725927  0.00462146  1
  Rh  Rh220  1  0.19854601  -0.00053271  0.60262042  1
  Rh  Rh221  1  0.19846293  0.19606398  0.20226412  1
  Rh  Rh222  1  0.39744994  0.39719191  0.39334385  1
  Rh  Rh223  1  0.39594857  0.79741134  0.20280655  1
  Rh  Rh224  1  0.59302415  0.80683865  0.80310752  1
  Rh  Rh225  1  0.60126708  0.79796674  0.19955251  1
  Rh  Rh226  1  0.80173477  -0.00916293  0.20253802  1
  Rh  Rh227  1  0.78863193  0.19008987  0.59853554  1
  Rh  Rh228  1  0.19966378  0.60878673  0.40688032  1
  Rh  Rh229  1  0.60352334  0.60762574  -0.00695367  1
  Rh  Rh230  1  0.20556630  0.59795016  0.19720236  1
  Rh  Rh231  1  0.79950323  0.39826976  0.79750009  1
  Rh  Rh232  1  0.00531568  0.60402617  0.40505459  1
  Rh  Rh233  1  0.20818376  0.19673676  -0.00360253  1
  Rh  Rh234  1  -0.01279779  -0.00451032  0.59457614  1
  Rh  Rh235  1  0.79465548  0.20275476  0.20076843  1
  Rh  Rh236  1  0.59889110  0.59832761  0.20445758  1
  Rh  Rh237  1  0.79984214  0.59660534  0.40190481  1
  Rh  Rh238  1  0.60000371  0.20713776  -0.00352926  1
  Rh  Rh239  1  0.00452741  0.79135919  0.00605057  1
  Rh  Rh240  1  0.60343000  0.58927866  0.79694332  1
  Rh  Rh241  1  0.60661079  -0.00644304  0.40304988  1
  Rh  Rh242  1  0.40266584  0.40385287  0.00902554  1
  Rh  Rh243  1  0.41121357  0.39641657  0.79968957  1
  Rh  Rh244  1  0.60134596  0.41563689  0.61188477  1
  Rh  Rh245  1  0.39227241  0.60459343  0.80710805  1
  Rh  Rh246  1  0.60387720  0.00026343  0.79821274  1
  Rh  Rh247  1  0.40022634  0.19809183  0.00721979  1
  Rh  Rh248  1  0.19825996  0.40646212  0.19636143  1
  Rh  Rh249  1  0.00623609  0.60448792  0.80264471  1
