# generated using pymatgen
data_ZrScNbPdRh
_symmetry_space_group_name_H-M   'P 1'
_cell_length_a   16.56273183
_cell_length_b   16.56045784
_cell_length_c   16.55767338
_cell_angle_alpha   90.00226202
_cell_angle_beta   90.00724710
_cell_angle_gamma   89.99091187
_symmetry_Int_Tables_number   1
_chemical_formula_structural   ZrScNbPdRh
_chemical_formula_sum   'Zr50 Sc50 Nb50 Pd50 Rh50'
_cell_volume   4541.54489338
_cell_formula_units_Z   50
loop_
 _symmetry_equiv_pos_site_id
 _symmetry_equiv_pos_as_xyz
  1  'x, y, z'
loop_
 _atom_site_type_symbol
 _atom_site_label
 _atom_site_symmetry_multiplicity
 _atom_site_fract_x
 _atom_site_fract_y
 _atom_site_fract_z
 _atom_site_occupancy
  Zr  Zr0  1  0.70290940  0.29112552  0.49754303  1
  Zr  Zr1  1  0.49677362  0.69239429  0.10122930  1
  Zr  Zr2  1  0.90033645  0.29863742  0.69412910  1
  Zr  Zr3  1  0.89401178  0.30429902  0.90618034  1
  Zr  Zr4  1  0.69850276  0.30883899  0.69312016  1
  Zr  Zr5  1  0.09604689  0.49331800  0.50053567  1
  Zr  Zr6  1  0.70001034  0.09716477  0.10444589  1
  Zr  Zr7  1  0.08715224  0.50009638  0.30447980  1
  Zr  Zr8  1  0.08753276  0.30104380  0.49999855  1
  Zr  Zr9  1  0.30560101  0.09450683  0.50285473  1
  Zr  Zr10  1  0.30911276  0.29967798  0.49815994  1
  Zr  Zr11  1  0.70574273  0.29914839  0.89825318  1
  Zr  Zr12  1  0.10075547  0.70032002  0.90430393  1
  Zr  Zr13  1  0.10593720  0.29605818  0.30223772  1
  Zr  Zr14  1  0.11076792  0.69628072  0.09941166  1
  Zr  Zr15  1  0.89645894  0.89963479  0.89078814  1
  Zr  Zr16  1  0.50208331  0.30655505  0.10065925  1
  Zr  Zr17  1  0.70548288  0.09620983  0.50132849  1
  Zr  Zr18  1  0.70487642  0.09721638  0.70472567  1
  Zr  Zr19  1  0.30635882  0.69756374  0.29497390  1
  Zr  Zr20  1  0.09666284  0.90938421  0.69950189  1
  Zr  Zr21  1  0.29858139  0.09039843  0.69902918  1
  Zr  Zr22  1  0.10276254  0.30165920  0.90055777  1
  Zr  Zr23  1  0.10180416  0.30624561  0.09727106  1
  Zr  Zr24  1  0.49688832  0.30999457  0.90008569  1
  Zr  Zr25  1  0.88520382  0.90726017  0.49047463  1
  Zr  Zr26  1  0.90349204  0.49807887  0.48592898  1
  Zr  Zr27  1  0.10323052  0.49663726  0.69790115  1
  Zr  Zr28  1  0.30534293  0.70452312  0.49596229  1
  Zr  Zr29  1  0.70895557  0.30011342  0.10202775  1
  Zr  Zr30  1  0.09590744  0.50541205  0.09671623  1
  Zr  Zr31  1  0.69827521  0.49720827  0.89583109  1
  Zr  Zr32  1  0.10219708  0.70235720  0.70016099  1
  Zr  Zr33  1  0.09763461  0.10186714  0.89318308  1
  Zr  Zr34  1  0.69318722  0.10296148  0.30624802  1
  Zr  Zr35  1  0.10293581  0.90849848  0.49469894  1
  Zr  Zr36  1  0.50323761  0.69674087  0.30331524  1
  Zr  Zr37  1  0.71214757  0.89536357  0.30283169  1
  Zr  Zr38  1  0.70303113  0.49618557  0.30229376  1
  Zr  Zr39  1  0.30797605  0.29507929  0.30088045  1
  Zr  Zr40  1  0.89947654  0.50616819  0.90479014  1
  Zr  Zr41  1  0.30323629  0.70002172  0.69912074  1
  Zr  Zr42  1  0.50874309  0.69965953  0.69854525  1
  Zr  Zr43  1  0.29768146  0.10065727  0.89640010  1
  Zr  Zr44  1  0.09743732  0.09999458  0.31299883  1
  Zr  Zr45  1  0.69891016  0.70686631  0.09826878  1
  Zr  Zr46  1  0.31054490  0.29975689  0.70076507  1
  Zr  Zr47  1  0.69697609  0.89519111  0.71081255  1
  Zr  Zr48  1  0.69531157  0.29745939  0.29855480  1
  Zr  Zr49  1  0.29232835  0.29355701  0.10941909  1
  Sc  Sc50  1  0.29960714  0.30178199  0.89557050  1
  Sc  Sc51  1  0.09798282  0.10340884  0.50206653  1
  Sc  Sc52  1  0.50569660  0.70554206  0.49709180  1
  Sc  Sc53  1  0.49598560  0.09337199  0.10419047  1
  Sc  Sc54  1  0.50459819  0.09331307  0.49442547  1
  Sc  Sc55  1  0.30033285  0.49954891  0.09860923  1
  Sc  Sc56  1  0.87880008  0.90197511  0.10739221  1
  Sc  Sc57  1  0.30301549  0.49187375  0.50389798  1
  Sc  Sc58  1  0.49300920  0.09305938  0.89766127  1
  Sc  Sc59  1  0.30475693  0.89969004  0.50355413  1
  Sc  Sc60  1  0.11073219  0.89197886  0.10199116  1
  Sc  Sc61  1  0.29834465  0.49691534  0.70788036  1
  Sc  Sc62  1  0.70688414  0.70353082  0.89517125  1
  Sc  Sc63  1  0.50780878  0.49957209  0.70787991  1
  Sc  Sc64  1  0.89843139  0.49775528  0.09379500  1
  Sc  Sc65  1  0.10906313  0.70280851  0.50033774  1
  Sc  Sc66  1  0.11116854  0.50034866  0.90617580  1
  Sc  Sc67  1  0.89845519  0.10654226  0.49917698  1
  Sc  Sc68  1  0.11189274  0.11184227  0.09941650  1
  Sc  Sc69  1  0.89692834  0.69540102  0.09384349  1
  Sc  Sc70  1  0.49787747  0.89657857  0.89484401  1
  Sc  Sc71  1  0.89780056  0.90520138  0.70466033  1
  Sc  Sc72  1  0.09408371  0.90229610  0.88979847  1
  Sc  Sc73  1  0.49836696  0.90643617  0.30370018  1
  Sc  Sc74  1  0.10602120  0.69877656  0.29018083  1
  Sc  Sc75  1  0.50171272  0.49658032  0.50243874  1
  Sc  Sc76  1  0.68934707  0.49704332  0.09884587  1
  Sc  Sc77  1  0.10048520  0.29917362  0.69455599  1
  Sc  Sc78  1  0.30389710  0.89613863  0.30535977  1
  Sc  Sc79  1  0.09699323  0.10067339  0.69582736  1
  Sc  Sc80  1  0.49796370  0.89571473  0.70387111  1
  Sc  Sc81  1  0.30465212  0.89163903  0.10377290  1
  Sc  Sc82  1  0.30675433  0.10321383  0.10026384  1
  Sc  Sc83  1  0.50051463  0.50244090  0.28930866  1
  Sc  Sc84  1  0.89000200  0.70450533  0.70967028  1
  Sc  Sc85  1  0.69976009  0.50122327  0.50882767  1
  Sc  Sc86  1  0.88572980  0.50413422  0.69323005  1
  Sc  Sc87  1  0.49380468  0.69169714  0.90477790  1
  Sc  Sc88  1  0.88574784  0.30368718  0.30852879  1
  Sc  Sc89  1  0.50072551  0.89614005  0.49487345  1
  Sc  Sc90  1  0.89146887  0.69976697  0.30474883  1
  Sc  Sc91  1  0.69133390  0.70286293  0.49245435  1
  Sc  Sc92  1  0.50356689  0.29641419  0.51027990  1
  Sc  Sc93  1  0.49608235  0.09221778  0.69861216  1
  Sc  Sc94  1  0.49762280  0.09705420  0.30166410  1
  Sc  Sc95  1  0.49692746  0.89995677  0.09960263  1
  Sc  Sc96  1  0.88648265  0.10083197  0.10103628  1
  Sc  Sc97  1  0.30238440  0.69300291  0.90603343  1
  Sc  Sc98  1  0.89975272  0.10104734  0.69917683  1
  Sc  Sc99  1  0.31153282  0.48654675  0.30290098  1
  Nb  Nb100  1  0.69866695  0.89885220  0.09969022  1
  Nb  Nb101  1  0.69335554  0.69645415  0.29602785  1
  Nb  Nb102  1  0.31770385  0.50182062  0.89460607  1
  Nb  Nb103  1  0.49894418  0.30448136  0.30332679  1
  Nb  Nb104  1  0.29256055  0.70233135  0.10354944  1
  Nb  Nb105  1  0.49144385  0.49865825  0.91255720  1
  Nb  Nb106  1  0.70219026  0.10188659  0.89776657  1
  Nb  Nb107  1  0.29882397  0.90590081  0.89297643  1
  Nb  Nb108  1  0.69880142  0.90772385  0.89861085  1
  Nb  Nb109  1  0.89268258  0.10537676  0.89928000  1
  Nb  Nb110  1  0.90194483  0.70601689  0.50037420  1
  Nb  Nb111  1  0.90028921  0.30224546  0.10137331  1
  Nb  Nb112  1  0.89572166  0.49951820  0.29885365  1
  Nb  Nb113  1  0.90145765  0.90097142  0.29937075  1
  Nb  Nb114  1  0.50009115  0.49898597  0.08356985  1
  Nb  Nb115  1  0.09645331  0.90393538  0.29901674  1
  Nb  Nb116  1  0.50705951  0.29860347  0.70157507  1
  Nb  Nb117  1  0.69616662  0.51516682  0.69879155  1
  Nb  Nb118  1  0.30141410  0.90364677  0.70247536  1
  Nb  Nb119  1  0.90262926  0.09330898  0.30346341  1
  Nb  Nb120  1  0.30128999  0.09959546  0.29751166  1
  Nb  Nb121  1  0.90542005  0.70184349  0.89783632  1
  Nb  Nb122  1  0.89979189  0.30088812  0.50143295  1
  Nb  Nb123  1  0.69781627  0.69123562  0.69490904  1
  Nb  Nb124  1  0.69759027  0.89937208  0.49960546  1
  Nb  Nb125  1  -0.00684610  0.19857960  0.00309072  1
  Nb  Nb126  1  0.19983263  -0.00135324  -0.00160156  1
  Nb  Nb127  1  0.60504386  0.79931362  0.19952111  1
  Nb  Nb128  1  0.00188798  0.00078555  0.19774207  1
  Nb  Nb129  1  -0.00351024  0.80589747  0.00327874  1
  Nb  Nb130  1  -0.00668912  0.80067315  0.59402079  1
  Nb  Nb131  1  0.60108569  0.39388409  0.39808538  1
  Nb  Nb132  1  -0.00395314  0.80626170  0.20036231  1
  Nb  Nb133  1  0.20338386  0.59572531  0.39871858  1
  Nb  Nb134  1  -0.00102790  0.80550427  0.39705295  1
  Nb  Nb135  1  -0.00111090  0.00174564  0.00473721  1
  Nb  Nb136  1  0.19849286  0.00139380  0.20388249  1
  Nb  Nb137  1  -0.00567275  0.39623041  0.20154378  1
  Nb  Nb138  1  0.79428287  0.59794093  0.20405626  1
  Nb  Nb139  1  -0.00317506  0.60631866  0.59983051  1
  Nb  Nb140  1  0.20726884  0.80570551  0.79711026  1
  Nb  Nb141  1  0.40158759  0.60374990  0.60372605  1
  Nb  Nb142  1  -0.00063942  0.59804203  0.79822527  1
  Nb  Nb143  1  0.60280289  0.19488278  -0.00458778  1
  Nb  Nb144  1  0.79442784  0.79939098  0.59825091  1
  Nb  Nb145  1  -0.00173476  0.40615536  0.80037607  1
  Nb  Nb146  1  0.60800288  -0.00798473  0.60029429  1
  Nb  Nb147  1  0.60871682  -0.00084639  -0.00418261  1
  Nb  Nb148  1  0.59988504  0.20188745  0.80141266  1
  Nb  Nb149  1  -0.00472144  0.20150839  0.19990013  1
  Pd  Pd150  1  0.40800066  0.19754486  0.79762528  1
  Pd  Pd151  1  0.20985384  0.00128109  0.39758119  1
  Pd  Pd152  1  0.19648042  0.79427132  0.39152552  1
  Pd  Pd153  1  0.40683510  0.80039576  0.59862045  1
  Pd  Pd154  1  0.40948291  0.19939119  0.20090539  1
  Pd  Pd155  1  0.20018605  0.60274248  0.80691668  1
  Pd  Pd156  1  -0.01319431  0.60325857  0.19819626  1
  Pd  Pd157  1  0.20270304  0.40259335  0.40026475  1
  Pd  Pd158  1  0.39828637  -0.00529422  0.00005631  1
  Pd  Pd159  1  0.20047476  0.20390531  0.79017080  1
  Pd  Pd160  1  0.39746949  0.59248152  0.19382301  1
  Pd  Pd161  1  0.40500809  0.20293124  -0.00001470  1
  Pd  Pd162  1  0.38644342  0.39211830  0.00650646  1
  Pd  Pd163  1  0.60675720  0.60318872  -0.00692693  1
  Pd  Pd164  1  0.20886456  0.58695723  0.20951766  1
  Pd  Pd165  1  0.40844180  0.19617636  0.40207512  1
  Pd  Pd166  1  0.20054390  0.20259247  0.59736976  1
  Pd  Pd167  1  0.40961365  0.80139279  0.20284455  1
  Pd  Pd168  1  0.20610946  0.19898054  0.40955670  1
  Pd  Pd169  1  0.80618523  0.19600897  0.20985039  1
  Pd  Pd170  1  0.79414887  0.60461124  0.40158666  1
  Pd  Pd171  1  0.20465903  0.39092250  0.60036968  1
  Pd  Pd172  1  0.19659643  0.81040465  0.60491544  1
  Pd  Pd173  1  0.40762674  0.19257213  0.60081421  1
  Pd  Pd174  1  0.21167403  0.40489901  -0.00443745  1
  Pd  Pd175  1  0.80541091  0.80312370  -0.00645457  1
  Pd  Pd176  1  0.59940610  0.58900090  0.40455978  1
  Pd  Pd177  1  0.80327522  0.40660060  0.79433623  1
  Pd  Pd178  1  0.80342175  0.60983551  0.59117394  1
  Pd  Pd179  1  0.19428221  0.40855895  0.20572199  1
  Pd  Pd180  1  0.59545697  0.60261138  0.81154389  1
  Pd  Pd181  1  0.59718693  0.18728280  0.60639888  1
  Pd  Pd182  1  0.60047332  0.79142075  0.80786540  1
  Pd  Pd183  1  0.60000325  -0.00966911  0.19908059  1
  Pd  Pd184  1  0.39543187  0.79527340  0.80574032  1
  Pd  Pd185  1  0.59076114  0.19796285  0.19486217  1
  Pd  Pd186  1  0.19979429  0.80905769  -0.01084318  1
  Pd  Pd187  1  0.59901027  0.40106200  0.80023733  1
  Pd  Pd188  1  0.79219889  0.59821044  0.00403141  1
  Pd  Pd189  1  0.20522227  0.59607823  0.59092989  1
  Pd  Pd190  1  -0.00855254  -0.00102543  0.59330022  1
  Pd  Pd191  1  0.40889177  0.40806477  0.60882556  1
  Pd  Pd192  1  0.59618325  0.40382246  0.20199175  1
  Pd  Pd193  1  -0.00459452  0.20720612  0.80223681  1
  Pd  Pd194  1  0.39632829  0.79926796  -0.00255193  1
  Pd  Pd195  1  0.80001554  -0.00078012  -0.00504701  1
  Pd  Pd196  1  0.00807764  0.61514974  0.40316687  1
  Pd  Pd197  1  0.39869783  0.59222836  0.40805542  1
  Pd  Pd198  1  0.80003314  0.40288970  0.59329873  1
  Pd  Pd199  1  0.59523918  0.80655780  -0.00056740  1
  Rh  Rh200  1  0.40983516  -0.00781274  0.59821909  1
  Rh  Rh201  1  -0.00849709  0.01195095  0.80440722  1
  Rh  Rh202  1  0.19830333  0.19119447  0.20927878  1
  Rh  Rh203  1  0.39718358  0.00053824  0.40052082  1
  Rh  Rh204  1  0.19712989  -0.00262726  0.80019404  1
  Rh  Rh205  1  0.19936414  0.39811211  0.80295143  1
  Rh  Rh206  1  -0.00990371  0.40930846  0.60706598  1
  Rh  Rh207  1  -0.00444371  -0.00190969  0.40309194  1
  Rh  Rh208  1  0.79563430  0.00802524  0.39376179  1
  Rh  Rh209  1  0.79814502  0.79237231  0.40310120  1
  Rh  Rh210  1  0.39200435  0.60217409  0.00935339  1
  Rh  Rh211  1  0.60276666  0.60276302  0.19238910  1
  Rh  Rh212  1  0.79705439  0.20271247  0.79316940  1
  Rh  Rh213  1  0.79408466  0.40695158  0.00507510  1
  Rh  Rh214  1  0.40613087  0.59737177  0.79362790  1
  Rh  Rh215  1  0.20204765  -0.00072386  0.59853723  1
  Rh  Rh216  1  0.59995337  0.80598084  0.38818656  1
  Rh  Rh217  1  0.60724771  0.80448438  0.60222996  1
  Rh  Rh218  1  0.80561803  0.40984718  0.19404948  1
  Rh  Rh219  1  -0.00593762  0.38953917  0.39043878  1
  Rh  Rh220  1  0.41255740  0.39703726  0.40379824  1
  Rh  Rh221  1  0.79772405  0.00597283  0.20921337  1
  Rh  Rh222  1  0.80474005  0.00377992  0.80140490  1
  Rh  Rh223  1  0.79360435  0.79734428  0.79861155  1
  Rh  Rh224  1  -0.00213970  0.19759892  0.59681722  1
  Rh  Rh225  1  -0.00895542  0.20601524  0.39773185  1
  Rh  Rh226  1  0.00595035  0.79166804  0.79934689  1
  Rh  Rh227  1  0.40516882  0.40264226  0.79566862  1
  Rh  Rh228  1  0.59317856  0.60038023  0.59528247  1
  Rh  Rh229  1  0.79404129  -0.00847638  0.60825962  1
  Rh  Rh230  1  0.60507806  0.39372259  -0.00302409  1
  Rh  Rh231  1  0.20069794  0.80550579  0.20758452  1
  Rh  Rh232  1  0.38887107  -0.00095976  0.20285202  1
  Rh  Rh233  1  0.80473997  0.19517140  0.39834606  1
  Rh  Rh234  1  0.60187801  0.40478874  0.59883148  1
  Rh  Rh235  1  0.80194926  0.60099319  0.80268654  1
  Rh  Rh236  1  0.79887241  0.19894082  0.00289427  1
  Rh  Rh237  1  0.20053664  0.19536287  -0.00723528  1
  Rh  Rh238  1  0.79869073  0.78920620  0.20316457  1
  Rh  Rh239  1  0.00070234  0.60770695  -0.00316668  1
  Rh  Rh240  1  0.60371226  -0.00403947  0.40397604  1
  Rh  Rh241  1  0.40445741  0.80044575  0.39733750  1
  Rh  Rh242  1  0.40510135  0.40147863  0.19178410  1
  Rh  Rh243  1  0.21058785  0.59441698  -0.00204505  1
  Rh  Rh244  1  0.59168234  0.20724238  0.39958987  1
  Rh  Rh245  1  0.59637075  0.00638488  0.80154251  1
  Rh  Rh246  1  0.00030105  0.39542553  -0.00100864  1
  Rh  Rh247  1  0.40295759  -0.00238251  0.79749301  1
  Rh  Rh248  1  0.79269529  0.39942997  0.40793057  1
  Rh  Rh249  1  0.80224935  0.20196593  0.60177194  1
