# generated using pymatgen
data_ZrScNbPdRh
_symmetry_space_group_name_H-M   'P 1'
_cell_length_a   16.55376271
_cell_length_b   16.55691781
_cell_length_c   16.55603701
_cell_angle_alpha   90.00609708
_cell_angle_beta   89.97677403
_cell_angle_gamma   89.96680238
_symmetry_Int_Tables_number   1
_chemical_formula_structural   ZrScNbPdRh
_chemical_formula_sum   'Zr50 Sc50 Nb50 Pd50 Rh50'
_cell_volume   4537.66568581
_cell_formula_units_Z   50
loop_
 _symmetry_equiv_pos_site_id
 _symmetry_equiv_pos_as_xyz
  1  'x, y, z'
loop_
 _atom_site_type_symbol
 _atom_site_label
 _atom_site_symmetry_multiplicity
 _atom_site_fract_x
 _atom_site_fract_y
 _atom_site_fract_z
 _atom_site_occupancy
  Zr  Zr0  1  0.09121820  0.10116826  0.49745063  1
  Zr  Zr1  1  0.69999395  0.89906550  0.90000130  1
  Zr  Zr2  1  0.10270214  0.49732905  0.09808092  1
  Zr  Zr3  1  0.10068320  0.49764172  0.29766304  1
  Zr  Zr4  1  0.70085420  0.90839539  0.10187553  1
  Zr  Zr5  1  0.30225219  0.50331291  0.89557933  1
  Zr  Zr6  1  0.89390090  0.70488592  0.49667783  1
  Zr  Zr7  1  0.30053329  0.30495649  0.49976393  1
  Zr  Zr8  1  0.09829797  0.90376594  0.90128610  1
  Zr  Zr9  1  0.49889425  0.30757032  0.89687848  1
  Zr  Zr10  1  0.70305411  0.29936223  0.30298301  1
  Zr  Zr11  1  0.71181186  0.69988559  0.90056158  1
  Zr  Zr12  1  0.10142396  0.89321854  0.70550705  1
  Zr  Zr13  1  0.70768880  0.10185186  0.49799445  1
  Zr  Zr14  1  0.50567024  0.70059185  0.50055589  1
  Zr  Zr15  1  0.49767818  0.31308023  0.49490667  1
  Zr  Zr16  1  0.29560380  0.09113291  0.70357009  1
  Zr  Zr17  1  0.70013830  0.31298933  0.70926625  1
  Zr  Zr18  1  0.09790630  0.89529719  0.51095946  1
  Zr  Zr19  1  0.10412618  0.30398464  0.09870469  1
  Zr  Zr20  1  0.30650160  0.10694676  0.09901023  1
  Zr  Zr21  1  0.90173570  0.10567858  0.09733812  1
  Zr  Zr22  1  0.30079302  0.70481609  0.29439850  1
  Zr  Zr23  1  0.29777099  0.90590906  0.30354187  1
  Zr  Zr24  1  0.89847119  0.49967893  0.50179773  1
  Zr  Zr25  1  0.70098962  0.10243681  0.69611612  1
  Zr  Zr26  1  0.49217337  0.70571298  0.10470569  1
  Zr  Zr27  1  0.89760944  0.10252958  0.69530118  1
  Zr  Zr28  1  0.29983395  0.89400301  0.50637786  1
  Zr  Zr29  1  0.70122905  0.49921466  0.30045756  1
  Zr  Zr30  1  0.49942246  0.90013972  0.29331565  1
  Zr  Zr31  1  0.10532758  0.69724240  0.50227460  1
  Zr  Zr32  1  0.30702018  0.09865768  0.30219644  1
  Zr  Zr33  1  0.50050981  0.50446983  0.50187380  1
  Zr  Zr34  1  0.30041975  0.49865460  0.29422619  1
  Zr  Zr35  1  0.49731789  0.10101590  0.90650559  1
  Zr  Zr36  1  0.90324340  0.51112265  0.89702705  1
  Zr  Zr37  1  0.90172376  0.88972325  0.28829932  1
  Zr  Zr38  1  0.91174808  0.29741604  0.89992496  1
  Zr  Zr39  1  0.90129746  0.09941383  0.49876281  1
  Zr  Zr40  1  0.49716426  0.49300863  0.30528969  1
  Zr  Zr41  1  0.70464416  0.69945241  0.30569415  1
  Zr  Zr42  1  0.50063668  0.90209796  0.09871914  1
  Zr  Zr43  1  0.28960271  0.09612335  0.48958962  1
  Zr  Zr44  1  0.89789162  0.70036837  0.29799860  1
  Zr  Zr45  1  0.10764651  0.09719483  0.30659205  1
  Zr  Zr46  1  0.29606615  0.30849545  0.69789221  1
  Zr  Zr47  1  0.89903419  0.69731224  0.09795596  1
  Zr  Zr48  1  0.49164123  0.90004883  0.69577902  1
  Zr  Zr49  1  0.89928328  0.29438659  0.29733280  1
  Sc  Sc50  1  0.91040509  0.10355768  0.30774182  1
  Sc  Sc51  1  0.90054930  0.49601724  0.30299197  1
  Sc  Sc52  1  0.09222342  0.08832657  0.70116803  1
  Sc  Sc53  1  0.29183786  0.69389099  0.70203761  1
  Sc  Sc54  1  0.50082486  0.69705119  0.30084832  1
  Sc  Sc55  1  0.90470712  0.29758497  0.50412996  1
  Sc  Sc56  1  0.71502843  0.09900925  0.29689774  1
  Sc  Sc57  1  0.90353156  0.69995728  0.70563021  1
  Sc  Sc58  1  0.11033873  0.69981286  0.09497020  1
  Sc  Sc59  1  0.70273517  0.89465395  0.29683198  1
  Sc  Sc60  1  0.48384619  0.29069234  0.09703098  1
  Sc  Sc61  1  0.70855289  0.69489192  0.10754484  1
  Sc  Sc62  1  0.49703173  0.89280760  0.50067491  1
  Sc  Sc63  1  0.50006171  0.09213091  0.70399872  1
  Sc  Sc64  1  0.70067686  0.50532481  0.50616941  1
  Sc  Sc65  1  0.29276270  0.50155799  0.10174499  1
  Sc  Sc66  1  0.50299340  0.90570506  0.90019931  1
  Sc  Sc67  1  0.89716162  0.89481683  0.89124927  1
  Sc  Sc68  1  0.70745122  0.49554308  0.88891599  1
  Sc  Sc69  1  0.49190374  0.50190643  0.10741687  1
  Sc  Sc70  1  0.49471255  0.09046362  0.10105826  1
  Sc  Sc71  1  0.90176645  0.89728639  0.49870436  1
  Sc  Sc72  1  0.49108780  0.09063764  0.50012815  1
  Sc  Sc73  1  0.90915493  0.29318829  0.10435490  1
  Sc  Sc74  1  0.28790560  0.89898903  0.89995878  1
  Sc  Sc75  1  0.10005033  0.69417879  0.89588231  1
  Sc  Sc76  1  0.70131283  0.70320705  0.69185806  1
  Sc  Sc77  1  0.08978029  0.30169433  0.29524317  1
  Sc  Sc78  1  0.09637686  0.09398461  0.09745583  1
  Sc  Sc79  1  0.49884223  0.50285279  0.69945036  1
  Sc  Sc80  1  0.50072638  0.69954773  0.69341681  1
  Sc  Sc81  1  0.70206137  0.90330577  0.70122267  1
  Sc  Sc82  1  0.90617451  0.89407308  0.69388047  1
  Sc  Sc83  1  0.29936658  0.50449712  0.50850882  1
  Sc  Sc84  1  0.10301340  0.70316590  0.30208937  1
  Sc  Sc85  1  0.50198025  0.30926623  0.70137969  1
  Sc  Sc86  1  0.70281315  0.30805269  0.50071609  1
  Sc  Sc87  1  0.70692189  0.50531689  0.10294395  1
  Sc  Sc88  1  0.30170656  0.50665791  0.70030186  1
  Sc  Sc89  1  0.28905996  0.70087370  0.89756380  1
  Sc  Sc90  1  0.28887692  0.09650478  0.90831216  1
  Sc  Sc91  1  0.90119773  0.50373698  0.09467748  1
  Sc  Sc92  1  0.70246721  0.89286431  0.49869961  1
  Sc  Sc93  1  0.71870861  0.28880877  0.10574556  1
  Sc  Sc94  1  0.10115022  0.70090958  0.70202553  1
  Sc  Sc95  1  0.10520409  0.50006875  0.69503243  1
  Sc  Sc96  1  0.10188094  0.89743461  0.28909336  1
  Sc  Sc97  1  0.29517458  0.30390760  0.09198019  1
  Sc  Sc98  1  0.29474857  0.89129391  0.10103300  1
  Sc  Sc99  1  0.69946104  0.09847278  0.89460958  1
  Nb  Nb100  1  0.90536707  0.10442391  0.90571240  1
  Nb  Nb101  1  0.90373025  0.69655293  0.90477758  1
  Nb  Nb102  1  0.10420540  0.30048986  0.90382175  1
  Nb  Nb103  1  0.90241582  0.30733250  0.70348280  1
  Nb  Nb104  1  0.90732338  0.90055322  0.09904140  1
  Nb  Nb105  1  0.30533533  0.29833408  0.30330314  1
  Nb  Nb106  1  0.30051497  0.70551001  0.50112570  1
  Nb  Nb107  1  0.29643952  0.29727674  0.90305449  1
  Nb  Nb108  1  0.70833789  0.50346851  0.70421606  1
  Nb  Nb109  1  0.69828020  0.29968129  0.89899083  1
  Nb  Nb110  1  0.50045803  0.50519604  0.89978410  1
  Nb  Nb111  1  0.88712189  0.49531679  0.70208277  1
  Nb  Nb112  1  0.30100739  0.70192551  0.09442600  1
  Nb  Nb113  1  0.10337199  0.30820326  0.51040543  1
  Nb  Nb114  1  0.09151599  0.10283377  0.90307299  1
  Nb  Nb115  1  0.09794728  0.30203285  0.70235173  1
  Nb  Nb116  1  0.69939483  0.70320797  0.49646183  1
  Nb  Nb117  1  0.70288602  0.10188012  0.09493051  1
  Nb  Nb118  1  0.10001285  0.50015474  0.90705092  1
  Nb  Nb119  1  0.50057894  0.70092811  0.89716449  1
  Nb  Nb120  1  0.08947693  0.89576543  0.09904818  1
  Nb  Nb121  1  0.49632873  0.29884597  0.30135843  1
  Nb  Nb122  1  0.09889337  0.49821864  0.49804549  1
  Nb  Nb123  1  0.49384728  0.10015668  0.29808013  1
  Nb  Nb124  1  0.29586677  0.89586811  0.70450680  1
  Nb  Nb125  1  0.39034833  0.20210189  0.80043154  1
  Nb  Nb126  1  -0.00273953  0.59430523  0.59512873  1
  Nb  Nb127  1  0.59448539  0.19620648  0.39722549  1
  Nb  Nb128  1  0.59806588  0.38893608  0.19708192  1
  Nb  Nb129  1  0.80639205  0.00367132  0.00071214  1
  Nb  Nb130  1  0.39629348  0.20011996  0.60375434  1
  Nb  Nb131  1  0.60404614  0.39797662  0.00370903  1
  Nb  Nb132  1  0.59846442  0.00514306  0.39388467  1
  Nb  Nb133  1  0.40217043  0.60638974  -0.00368558  1
  Nb  Nb134  1  0.59528119  0.20075778  0.59518295  1
  Nb  Nb135  1  0.60143519  0.60130873  0.80268297  1
  Nb  Nb136  1  0.20519020  0.20091493  0.20504991  1
  Nb  Nb137  1  0.80645517  0.20567685  0.80091604  1
  Nb  Nb138  1  0.59532091  0.19826486  0.20238376  1
  Nb  Nb139  1  0.79881890  0.39238157  -0.00737497  1
  Nb  Nb140  1  0.60481020  0.20337140  0.00419292  1
  Nb  Nb141  1  0.00377176  0.60082816  0.19919557  1
  Nb  Nb142  1  0.19387447  0.39539056  0.80771191  1
  Nb  Nb143  1  0.39786563  0.80094246  0.79768162  1
  Nb  Nb144  1  0.60107902  0.79346581  -0.00053318  1
  Nb  Nb145  1  0.59602764  0.59929559  -0.00500745  1
  Nb  Nb146  1  0.19636808  0.20269362  0.60429961  1
  Nb  Nb147  1  0.19231843  0.20402277  0.80201034  1
  Nb  Nb148  1  0.19756333  0.40015921  0.40220950  1
  Nb  Nb149  1  -0.00290580  0.79994222  -0.00027419  1
  Pd  Pd150  1  0.39432390  -0.00247636  0.81062419  1
  Pd  Pd151  1  0.19603322  0.80450819  0.39871791  1
  Pd  Pd152  1  0.59556378  0.19744708  0.79674262  1
  Pd  Pd153  1  0.81066892  0.00511116  0.19818843  1
  Pd  Pd154  1  0.60376426  0.80425911  0.59975317  1
  Pd  Pd155  1  0.39539412  0.40059756  0.79728236  1
  Pd  Pd156  1  0.39390084  0.60176779  0.40177403  1
  Pd  Pd157  1  -0.00715852  0.39958472  0.00442963  1
  Pd  Pd158  1  0.80239808  -0.01049830  0.59727616  1
  Pd  Pd159  1  0.40085610  0.80185332  -0.01133102  1
  Pd  Pd160  1  -0.00179045  0.60186430  0.39851349  1
  Pd  Pd161  1  0.60644901  0.79515265  0.19544612  1
  Pd  Pd162  1  -0.00384320  0.40804460  0.60651254  1
  Pd  Pd163  1  0.60414851  0.59822451  0.40148770  1
  Pd  Pd164  1  0.60279119  0.40412207  0.60334062  1
  Pd  Pd165  1  0.19805407  -0.00074209  0.00876725  1
  Pd  Pd166  1  0.79415123  0.21391856  0.60577551  1
  Pd  Pd167  1  0.00308669  -0.01404105  0.39519528  1
  Pd  Pd168  1  0.19022198  0.21381618  0.39864479  1
  Pd  Pd169  1  0.80213261  0.40003136  0.40603771  1
  Pd  Pd170  1  0.80396257  0.60734566  0.60274675  1
  Pd  Pd171  1  0.40603372  0.19887987  0.40914066  1
  Pd  Pd172  1  -0.00155530  0.00644906  0.20496105  1
  Pd  Pd173  1  0.39726835  0.60677036  0.60171431  1
  Pd  Pd174  1  0.19728451  0.60673450  0.19893439  1
  Pd  Pd175  1  0.59888939  -0.00085690  0.79893009  1
  Pd  Pd176  1  0.59649915  0.59303734  0.19591764  1
  Pd  Pd177  1  0.00636914  0.41152722  0.79942411  1
  Pd  Pd178  1  0.00469609  0.59489808  0.78949097  1
  Pd  Pd179  1  0.80787761  0.00683613  0.80377508  1
  Pd  Pd180  1  0.20747950  0.59459278  0.40190729  1
  Pd  Pd181  1  0.80356980  0.40304461  0.19063605  1
  Pd  Pd182  1  0.60269289  0.01084998  0.20692644  1
  Pd  Pd183  1  0.80309234  0.79692047  0.79169221  1
  Pd  Pd184  1  0.40395199  0.79922014  0.39725485  1
  Pd  Pd185  1  -0.00790700  -0.00238362  0.80057557  1
  Pd  Pd186  1  0.38988070  -0.01000914  -0.00232656  1
  Pd  Pd187  1  0.00526279  0.80215059  0.39928480  1
  Pd  Pd188  1  0.39357738  0.00179639  0.59709026  1
  Pd  Pd189  1  0.60147984  0.00107316  0.58997654  1
  Pd  Pd190  1  0.00240336  0.39325991  0.40184911  1
  Pd  Pd191  1  0.00160874  0.19710213  0.79533221  1
  Pd  Pd192  1  0.19553084  0.00233517  0.59930760  1
  Pd  Pd193  1  0.40123130  0.40891436  0.00409073  1
  Pd  Pd194  1  0.80189959  0.80738278  0.00690946  1
  Pd  Pd195  1  0.00477895  0.20237502  0.60275578  1
  Pd  Pd196  1  0.20353052  0.00334914  0.19076490  1
  Pd  Pd197  1  0.79885964  -0.00903749  0.39577807  1
  Pd  Pd198  1  0.39884903  0.39439031  0.19385200  1
  Pd  Pd199  1  0.59566369  0.79690014  0.79883591  1
  Rh  Rh200  1  0.00521613  0.78783327  0.19060932  1
  Rh  Rh201  1  0.60643307  0.59845571  0.60605367  1
  Rh  Rh202  1  0.40561583  0.61036915  0.80179051  1
  Rh  Rh203  1  0.81202585  0.59400788  0.20716698  1
  Rh  Rh204  1  0.20601084  0.38687771  0.21083477  1
  Rh  Rh205  1  0.00765127  0.60807149  0.00638749  1
  Rh  Rh206  1  0.20443499  0.40809549  -0.00776005  1
  Rh  Rh207  1  0.38919665  0.41021058  0.40190540  1
  Rh  Rh208  1  0.79871351  0.80388142  0.39905660  1
  Rh  Rh209  1  0.19380264  0.19554641  0.00323929  1
  Rh  Rh210  1  0.20195218  0.79962588  0.79977555  1
  Rh  Rh211  1  0.39490566  0.80341618  0.20328567  1
  Rh  Rh212  1  0.18934002  0.80175562  -0.00021102  1
  Rh  Rh213  1  0.39548069  0.20340789  0.20043339  1
  Rh  Rh214  1  0.00095880  0.79676935  0.80918763  1
  Rh  Rh215  1  0.59906329  0.80442248  0.39872920  1
  Rh  Rh216  1  0.79551364  0.59737351  0.40088372  1
  Rh  Rh217  1  0.80061664  0.79945053  0.60021477  1
  Rh  Rh218  1  0.19999627  0.79944046  0.19624871  1
  Rh  Rh219  1  0.00336408  0.20881135  0.40482064  1
  Rh  Rh220  1  0.39359298  -0.00580004  0.19613861  1
  Rh  Rh221  1  0.19319320  0.00432131  0.80372282  1
  Rh  Rh222  1  0.19643276  0.60112167  0.59693915  1
  Rh  Rh223  1  -0.00625561  0.40963741  0.19497943  1
  Rh  Rh224  1  0.79314897  0.58892540  -0.00632758  1
  Rh  Rh225  1  0.20447002  0.79426337  0.60576209  1
  Rh  Rh226  1  -0.00476530  -0.00294208  0.60055024  1
  Rh  Rh227  1  0.39454816  0.60404543  0.19461272  1
  Rh  Rh228  1  0.79478592  0.19762949  -0.01268775  1
  Rh  Rh229  1  -0.00142449  0.78698523  0.59951900  1
  Rh  Rh230  1  0.40715337  -0.01033783  0.40111882  1
  Rh  Rh231  1  0.60956607  0.00262661  -0.00293930  1
  Rh  Rh232  1  0.80992722  0.39445745  0.80753324  1
  Rh  Rh233  1  0.01059901  0.20106956  0.00603926  1
  Rh  Rh234  1  0.20713744  0.59872351  -0.00235021  1
  Rh  Rh235  1  0.79632187  0.80048755  0.19426265  1
  Rh  Rh236  1  0.40223816  0.20002878  -0.00871712  1
  Rh  Rh237  1  -0.00730735  -0.00705960  -0.00664135  1
  Rh  Rh238  1  0.19096092  -0.01323432  0.40657032  1
  Rh  Rh239  1  0.80069369  0.39827266  0.60069125  1
  Rh  Rh240  1  0.80123361  0.20317673  0.40267913  1
  Rh  Rh241  1  0.01149888  0.19314566  0.19944519  1
  Rh  Rh242  1  0.40406853  0.40389920  0.60201405  1
  Rh  Rh243  1  0.59822437  0.41390201  0.80266022  1
  Rh  Rh244  1  0.39225768  0.79223521  0.60830069  1
  Rh  Rh245  1  0.80515945  0.19266580  0.20499586  1
  Rh  Rh246  1  0.79830079  0.60846353  0.79487705  1
  Rh  Rh247  1  0.19237531  0.58849809  0.80220449  1
  Rh  Rh248  1  0.60363103  0.39889907  0.39282298  1
  Rh  Rh249  1  0.19908625  0.40401580  0.60091897  1
