# generated using pymatgen
data_ZrScNbPdRh
_symmetry_space_group_name_H-M   'P 1'
_cell_length_a   16.55895991
_cell_length_b   16.56056478
_cell_length_c   16.56431935
_cell_angle_alpha   90.00371038
_cell_angle_beta   89.97376689
_cell_angle_gamma   89.97709729
_symmetry_Int_Tables_number   1
_chemical_formula_structural   ZrScNbPdRh
_chemical_formula_sum   'Zr50 Sc50 Nb50 Pd50 Rh50'
_cell_volume   4542.36169093
_cell_formula_units_Z   50
loop_
 _symmetry_equiv_pos_site_id
 _symmetry_equiv_pos_as_xyz
  1  'x, y, z'
loop_
 _atom_site_type_symbol
 _atom_site_label
 _atom_site_symmetry_multiplicity
 _atom_site_fract_x
 _atom_site_fract_y
 _atom_site_fract_z
 _atom_site_occupancy
  Zr  Zr0  1  0.68563831  0.49727350  0.70186449  1
  Zr  Zr1  1  0.30348082  0.10941174  0.70147208  1
  Zr  Zr2  1  0.30671527  0.70380417  0.29613699  1
  Zr  Zr3  1  0.89158308  0.30280407  0.29660546  1
  Zr  Zr4  1  0.90637788  0.49860939  0.70792442  1
  Zr  Zr5  1  0.50031309  0.69786935  0.10849010  1
  Zr  Zr6  1  0.08753769  0.30275780  0.69987925  1
  Zr  Zr7  1  0.29808499  0.89625631  0.29194580  1
  Zr  Zr8  1  0.70373878  0.70152197  0.90427529  1
  Zr  Zr9  1  0.69482660  0.69393985  0.50024241  1
  Zr  Zr10  1  0.89116985  0.50570845  0.49706166  1
  Zr  Zr11  1  0.10126431  0.90288690  0.09149729  1
  Zr  Zr12  1  0.29237685  0.90425375  0.90508005  1
  Zr  Zr13  1  0.49941505  0.89315552  0.69327030  1
  Zr  Zr14  1  0.09926048  0.10247761  0.29438185  1
  Zr  Zr15  1  0.50549387  0.08643864  0.70542213  1
  Zr  Zr16  1  0.10151631  0.90371164  0.29400810  1
  Zr  Zr17  1  0.50096213  0.29372907  0.49099042  1
  Zr  Zr18  1  0.89766195  0.89902430  0.89959771  1
  Zr  Zr19  1  0.49837733  0.10395390  0.29900134  1
  Zr  Zr20  1  0.71072406  0.09601520  0.89867812  1
  Zr  Zr21  1  0.50797453  0.69654352  0.90276715  1
  Zr  Zr22  1  0.50205786  0.69609088  0.69282185  1
  Zr  Zr23  1  0.30628585  0.49401640  0.50319392  1
  Zr  Zr24  1  0.90851017  0.28680863  0.50782467  1
  Zr  Zr25  1  0.90184450  0.90576912  0.10442339  1
  Zr  Zr26  1  0.89255848  0.90239118  0.49882389  1
  Zr  Zr27  1  0.89432530  0.70143096  0.49482149  1
  Zr  Zr28  1  0.50016739  0.10131256  0.10996567  1
  Zr  Zr29  1  0.69739473  0.70652679  0.29580662  1
  Zr  Zr30  1  0.70314244  0.09799451  0.09634565  1
  Zr  Zr31  1  0.29525859  0.10727927  0.89879761  1
  Zr  Zr32  1  0.29551054  0.49384375  0.30480596  1
  Zr  Zr33  1  0.30492598  0.30018095  0.70351874  1
  Zr  Zr34  1  0.10448326  0.50051777  0.49418180  1
  Zr  Zr35  1  0.89764606  0.50904814  0.29817859  1
  Zr  Zr36  1  0.89696639  0.11101901  0.69807585  1
  Zr  Zr37  1  0.30675968  0.70216399  0.69492551  1
  Zr  Zr38  1  0.49437188  0.90765616  0.89391833  1
  Zr  Zr39  1  0.30685178  0.29145537  0.50606522  1
  Zr  Zr40  1  0.51212281  0.30103151  0.70405531  1
  Zr  Zr41  1  0.09869093  0.49936418  0.70002082  1
  Zr  Zr42  1  0.90161471  0.69975439  0.90064680  1
  Zr  Zr43  1  0.29811455  0.49795613  0.09871220  1
  Zr  Zr44  1  0.09738250  0.09808954  0.09414339  1
  Zr  Zr45  1  0.10341135  0.29819202  0.30114700  1
  Zr  Zr46  1  0.88672232  0.90081154  0.29999387  1
  Zr  Zr47  1  0.50384320  0.71196921  0.50289561  1
  Zr  Zr48  1  0.49321982  0.30221248  0.90670446  1
  Zr  Zr49  1  0.89971196  0.30415186  0.09478549  1
  Sc  Sc50  1  0.50388160  0.70293573  0.30364483  1
  Sc  Sc51  1  0.69349390  0.69605342  0.69373008  1
  Sc  Sc52  1  0.69613503  0.70355347  0.09874220  1
  Sc  Sc53  1  0.09278002  0.50896870  0.90827872  1
  Sc  Sc54  1  0.69801787  0.91328690  0.69825779  1
  Sc  Sc55  1  0.90143967  0.49743669  0.90844047  1
  Sc  Sc56  1  0.50125380  0.10418558  0.49291506  1
  Sc  Sc57  1  0.89999730  0.50451837  0.09516455  1
  Sc  Sc58  1  0.30645214  0.89647646  0.71067560  1
  Sc  Sc59  1  0.70711126  0.30341113  0.10862556  1
  Sc  Sc60  1  0.29110560  0.70168756  0.10043944  1
  Sc  Sc61  1  0.69946180  0.10213633  0.29431284  1
  Sc  Sc62  1  0.10202809  0.29836018  0.50422172  1
  Sc  Sc63  1  0.50007766  0.50207508  0.50217137  1
  Sc  Sc64  1  0.11113257  0.29487631  0.10013892  1
  Sc  Sc65  1  0.29896840  0.10477033  0.10225012  1
  Sc  Sc66  1  0.69662253  0.49823992  0.90304711  1
  Sc  Sc67  1  0.70113882  0.50030383  0.10569312  1
  Sc  Sc68  1  0.49116682  0.90170051  0.29617302  1
  Sc  Sc69  1  0.09678766  0.70315549  0.49755538  1
  Sc  Sc70  1  0.09667648  0.69620992  0.30841184  1
  Sc  Sc71  1  0.09625659  0.69711067  0.08929074  1
  Sc  Sc72  1  0.09468407  0.28863390  0.90682522  1
  Sc  Sc73  1  0.69508555  0.29142938  0.50819128  1
  Sc  Sc74  1  0.89213210  0.09989716  0.09378996  1
  Sc  Sc75  1  0.89521955  0.69896433  0.09410367  1
  Sc  Sc76  1  0.28881255  0.70454931  0.90491077  1
  Sc  Sc77  1  0.50846661  0.49143463  0.89940473  1
  Sc  Sc78  1  0.09540478  0.70700226  0.90401142  1
  Sc  Sc79  1  0.89234173  0.09443499  0.29131491  1
  Sc  Sc80  1  0.29726949  0.29304781  0.29826263  1
  Sc  Sc81  1  0.50858551  0.49356414  0.09982410  1
  Sc  Sc82  1  0.50101911  0.91038211  0.10380874  1
  Sc  Sc83  1  0.69936951  0.89563049  0.50287578  1
  Sc  Sc84  1  0.31092462  0.70099727  0.49398656  1
  Sc  Sc85  1  0.70068651  0.10463880  0.70495541  1
  Sc  Sc86  1  0.90396238  0.70183254  0.69567518  1
  Sc  Sc87  1  0.30057677  0.89987197  0.47832786  1
  Sc  Sc88  1  0.09214280  0.70152873  0.70319538  1
  Sc  Sc89  1  0.10177603  0.89587774  0.48941948  1
  Sc  Sc90  1  0.09714554  0.10129540  0.71805140  1
  Sc  Sc91  1  0.70242059  0.09281263  0.50772845  1
  Sc  Sc92  1  0.89252744  0.29984470  0.89887434  1
  Sc  Sc93  1  0.50504010  0.50367360  0.29316101  1
  Sc  Sc94  1  0.69984024  0.90212355  0.10088827  1
  Sc  Sc95  1  0.49497239  0.09647957  0.89896445  1
  Sc  Sc96  1  0.09811263  0.11385214  0.49460262  1
  Sc  Sc97  1  0.30303488  0.09448449  0.30280261  1
  Sc  Sc98  1  0.70718304  0.49942153  0.29754241  1
  Sc  Sc99  1  0.90047198  0.89954679  0.70492604  1
  Nb  Nb100  1  0.29983027  0.89216577  0.10213811  1
  Nb  Nb101  1  0.50234136  0.90083259  0.49756589  1
  Nb  Nb102  1  0.10196864  0.90542242  0.69836740  1
  Nb  Nb103  1  0.90329514  0.09485673  0.89814360  1
  Nb  Nb104  1  0.69598091  0.29547007  0.89537591  1
  Nb  Nb105  1  0.30378406  0.49979009  0.69882458  1
  Nb  Nb106  1  0.09809691  0.08784925  0.90631372  1
  Nb  Nb107  1  0.09720924  0.91436268  0.89644727  1
  Nb  Nb108  1  0.30462002  0.30270474  0.90523994  1
  Nb  Nb109  1  0.30370091  0.49744909  0.90072729  1
  Nb  Nb110  1  0.70221942  0.89959253  0.89559834  1
  Nb  Nb111  1  0.30387169  0.09920091  0.50417458  1
  Nb  Nb112  1  0.89760632  0.70331704  0.29589476  1
  Nb  Nb113  1  0.89546692  0.30156284  0.69888612  1
  Nb  Nb114  1  0.49707358  0.29743413  0.10524078  1
  Nb  Nb115  1  0.70055577  0.30157294  0.30182700  1
  Nb  Nb116  1  0.70788532  0.29747619  0.70801969  1
  Nb  Nb117  1  0.50844914  0.29191315  0.29715643  1
  Nb  Nb118  1  0.30515559  0.29807651  0.09572024  1
  Nb  Nb119  1  0.69892154  0.90448105  0.30026347  1
  Nb  Nb120  1  0.70436187  0.49823009  0.49961841  1
  Nb  Nb121  1  0.90174283  0.10079831  0.49857900  1
  Nb  Nb122  1  0.49947777  0.50454129  0.70298759  1
  Nb  Nb123  1  0.10160256  0.49573612  0.09979243  1
  Nb  Nb124  1  0.10197225  0.49499075  0.29833744  1
  Nb  Nb125  1  0.00463637  0.00195422  0.59688592  1
  Nb  Nb126  1  -0.00523157  0.79834174  0.20293273  1
  Nb  Nb127  1  0.20501481  0.60109530  0.60326651  1
  Nb  Nb128  1  0.40248342  0.39020272  0.19740012  1
  Nb  Nb129  1  0.60603204  0.39491667  0.39708288  1
  Nb  Nb130  1  0.60243193  0.80347025  0.80356769  1
  Nb  Nb131  1  -0.00237047  0.40134177  0.39537216  1
  Nb  Nb132  1  0.60101816  -0.00362023  0.39667797  1
  Nb  Nb133  1  0.20119442  0.80421911  0.60140370  1
  Nb  Nb134  1  0.00653337  0.40268059  0.20141099  1
  Nb  Nb135  1  0.39432196  -0.00014096  0.59289626  1
  Nb  Nb136  1  -0.00230768  0.20416701  0.19816231  1
  Nb  Nb137  1  0.80050067  0.19834523  0.40237397  1
  Nb  Nb138  1  0.60067335  0.20326875  0.00158401  1
  Nb  Nb139  1  0.20496518  0.40173473  0.80603389  1
  Nb  Nb140  1  0.20619183  0.59319264  0.79673999  1
  Nb  Nb141  1  0.79905634  0.59942874  0.80013972  1
  Nb  Nb142  1  0.20633430  0.39836673  -0.00468793  1
  Nb  Nb143  1  -0.00688082  0.00425834  0.40180392  1
  Nb  Nb144  1  0.79872465  0.39561856  0.60718877  1
  Nb  Nb145  1  0.19390321  0.59143532  0.20323631  1
  Nb  Nb146  1  0.40064146  0.79959558  0.00336873  1
  Nb  Nb147  1  0.20036334  -0.00132895  0.59909313  1
  Nb  Nb148  1  0.39934340  0.60032454  -0.00364701  1
  Nb  Nb149  1  0.39805647  0.59442429  0.80193687  1
  Pd  Pd150  1  0.79855397  0.59276574  0.61090135  1
  Pd  Pd151  1  0.40482159  0.78936012  0.81192937  1
  Pd  Pd152  1  -0.00150371  0.59753627  0.40133064  1
  Pd  Pd153  1  0.19097520  0.79609320  0.79705400  1
  Pd  Pd154  1  0.60854979  0.39020192  0.00580044  1
  Pd  Pd155  1  0.40797522  0.60025040  0.39965967  1
  Pd  Pd156  1  0.79083537  0.79666182  0.40074024  1
  Pd  Pd157  1  0.20532439  0.60620456  0.40180177  1
  Pd  Pd158  1  0.80043100  0.80491465  0.00717230  1
  Pd  Pd159  1  0.19931618  0.38951543  0.40800478  1
  Pd  Pd160  1  0.59448381  0.80883448  0.20151060  1
  Pd  Pd161  1  0.19148759  0.00864242  0.40645315  1
  Pd  Pd162  1  0.79104400  0.79293407  0.78860697  1
  Pd  Pd163  1  0.39268365  -0.00036895  0.00871052  1
  Pd  Pd164  1  0.79629281  0.40711236  0.80040021  1
  Pd  Pd165  1  0.60006108  0.19192835  0.60347427  1
  Pd  Pd166  1  0.59645843  0.19595771  0.80912943  1
  Pd  Pd167  1  0.20651112  0.00404801  0.19222343  1
  Pd  Pd168  1  -0.00613554  0.20068968  0.80764241  1
  Pd  Pd169  1  0.20605243  0.00190620  0.79405004  1
  Pd  Pd170  1  0.18524365  0.78713649  0.19832355  1
  Pd  Pd171  1  0.41091053  0.39501166  0.38812520  1
  Pd  Pd172  1  0.41642631  0.19390168  0.60567541  1
  Pd  Pd173  1  0.60248590  0.58994472  0.39872746  1
  Pd  Pd174  1  0.60135039  0.40073002  0.59228611  1
  Pd  Pd175  1  0.19086829  0.19417915  0.60644248  1
  Pd  Pd176  1  0.61029619  0.20172650  0.19324006  1
  Pd  Pd177  1  0.00632338  0.60338248  0.19408058  1
  Pd  Pd178  1  -0.00573475  0.19724667  0.00335269  1
  Pd  Pd179  1  0.19463615  0.20902214  0.80559736  1
  Pd  Pd180  1  -0.00760193  0.40605251  0.58950523  1
  Pd  Pd181  1  0.79822009  0.38961345  0.41192402  1
  Pd  Pd182  1  0.00515189  0.80853678  0.59623748  1
  Pd  Pd183  1  0.79585180  0.60538239  0.19532506  1
  Pd  Pd184  1  0.40356710  0.40261591  0.79753085  1
  Pd  Pd185  1  0.20189648  0.40009223  0.60455098  1
  Pd  Pd186  1  0.39507878  0.59154735  0.19534701  1
  Pd  Pd187  1  0.00517625  0.60275338  0.59509353  1
  Pd  Pd188  1  0.79478786  0.80034347  0.60718476  1
  Pd  Pd189  1  0.00617271  0.39810796  0.81541922  1
  Pd  Pd190  1  0.40504045  0.19163868  0.00175733  1
  Pd  Pd191  1  0.80627969  0.00186318  0.60628141  1
  Pd  Pd192  1  0.41200061  0.39683865  0.60311873  1
  Pd  Pd193  1  0.20817397  0.19753090  0.40058179  1
  Pd  Pd194  1  0.60121586  0.00473657  -0.00476445  1
  Pd  Pd195  1  0.79182348  0.40122287  0.00072263  1
  Pd  Pd196  1  -0.00395247  0.80668867  0.39245607  1
  Pd  Pd197  1  0.00548513  0.80528968  0.80207169  1
  Pd  Pd198  1  0.59370941  0.81260462  -0.00209190  1
  Pd  Pd199  1  0.59952164  0.59464288  0.00587496  1
  Rh  Rh200  1  -0.00381796  0.60300784  0.80517916  1
  Rh  Rh201  1  0.40027812  0.40565709  0.00910790  1
  Rh  Rh202  1  0.80745713  0.40715975  0.19466629  1
  Rh  Rh203  1  0.39356044  0.19931244  0.39532266  1
  Rh  Rh204  1  -0.00198794  0.00022281  0.20528923  1
  Rh  Rh205  1  0.80242943  0.19914209  0.20269814  1
  Rh  Rh206  1  0.38872995  0.81651625  0.58467798  1
  Rh  Rh207  1  0.59653072  0.39760995  0.20861010  1
  Rh  Rh208  1  0.61196736  0.19730055  0.39771624  1
  Rh  Rh209  1  0.79206380  0.61019326  0.39368450  1
  Rh  Rh210  1  0.59604654  0.59388431  0.59165360  1
  Rh  Rh211  1  0.79405763  0.00793988  0.40006106  1
  Rh  Rh212  1  0.79226943  0.00004180  0.19528268  1
  Rh  Rh213  1  0.39103469  0.00433111  0.79361439  1
  Rh  Rh214  1  0.79480638  0.20345592  0.59767617  1
  Rh  Rh215  1  -0.00861399  -0.00064997  -0.00318398  1
  Rh  Rh216  1  0.19894944  0.19548980  0.19718992  1
  Rh  Rh217  1  0.60171443  -0.00214531  0.20852820  1
  Rh  Rh218  1  0.20249491  0.20133329  -0.00379783  1
  Rh  Rh219  1  0.20431618  0.79076863  0.40123973  1
  Rh  Rh220  1  -0.01163888  0.19820580  0.38466230  1
  Rh  Rh221  1  0.80519552  0.00257496  0.79728960  1
  Rh  Rh222  1  0.19761742  0.80735159  -0.00300920  1
  Rh  Rh223  1  0.40101584  0.59597689  0.60080700  1
  Rh  Rh224  1  0.00853880  0.19045857  0.60900479  1
  Rh  Rh225  1  0.39344868  0.00025262  0.19787212  1
  Rh  Rh226  1  0.20415814  0.40023376  0.19138507  1
  Rh  Rh227  1  0.60756810  0.80579209  0.60581467  1
  Rh  Rh228  1  0.79444412  0.20318630  -0.00705663  1
  Rh  Rh229  1  -0.00702609  0.00038587  0.79586341  1
  Rh  Rh230  1  0.80256932  0.79811086  0.19532263  1
  Rh  Rh231  1  0.00953607  0.39620469  0.00635712  1
  Rh  Rh232  1  0.40790954  0.20224657  0.80043560  1
  Rh  Rh233  1  0.79667062  0.59770786  -0.00576137  1
  Rh  Rh234  1  0.58966056  0.00222829  0.58911567  1
  Rh  Rh235  1  -0.00327619  0.60110597  0.00288249  1
  Rh  Rh236  1  0.60033800  0.81081324  0.39556883  1
  Rh  Rh237  1  0.59915519  0.39628985  0.80321652  1
  Rh  Rh238  1  0.41003195  0.00307871  0.40363754  1
  Rh  Rh239  1  0.39481376  0.20377192  0.20506462  1
  Rh  Rh240  1  0.20188098  0.59251414  -0.00063037  1
  Rh  Rh241  1  0.60114133  0.60576607  0.80034674  1
  Rh  Rh242  1  0.40577989  0.80039616  0.39444415  1
  Rh  Rh243  1  0.80479826  0.19979823  0.80534723  1
  Rh  Rh244  1  0.60573911  -0.00521181  0.80643913  1
  Rh  Rh245  1  0.40456800  0.80173652  0.19271885  1
  Rh  Rh246  1  0.20623325  0.00273116  0.00437727  1
  Rh  Rh247  1  0.80249998  -0.00600574  -0.00316930  1
  Rh  Rh248  1  0.60538931  0.60128935  0.20144128  1
  Rh  Rh249  1  -0.00007301  0.80785651  0.00216232  1
