# generated using pymatgen
data_ZrScNbPdRh
_symmetry_space_group_name_H-M   'P 1'
_cell_length_a   16.55468212
_cell_length_b   16.55054120
_cell_length_c   16.55206612
_cell_angle_alpha   89.97405213
_cell_angle_beta   90.00378196
_cell_angle_gamma   89.98492257
_symmetry_Int_Tables_number   1
_chemical_formula_structural   ZrScNbPdRh
_chemical_formula_sum   'Zr50 Sc50 Nb50 Pd50 Rh50'
_cell_volume   4535.08255834
_cell_formula_units_Z   50
loop_
 _symmetry_equiv_pos_site_id
 _symmetry_equiv_pos_as_xyz
  1  'x, y, z'
loop_
 _atom_site_type_symbol
 _atom_site_label
 _atom_site_symmetry_multiplicity
 _atom_site_fract_x
 _atom_site_fract_y
 _atom_site_fract_z
 _atom_site_occupancy
  Zr  Zr0  1  0.69316893  0.48383046  0.08686441  1
  Zr  Zr1  1  0.09654710  0.70355195  0.89593226  1
  Zr  Zr2  1  0.90175421  0.09292481  0.31186949  1
  Zr  Zr3  1  0.89477383  0.31310152  0.50346492  1
  Zr  Zr4  1  0.10395242  0.29797026  0.89478659  1
  Zr  Zr5  1  0.49710041  0.50150335  0.70282239  1
  Zr  Zr6  1  0.09984465  0.29758213  0.30028085  1
  Zr  Zr7  1  0.50114557  0.68875550  0.69989157  1
  Zr  Zr8  1  0.30013368  0.90635733  0.70488021  1
  Zr  Zr9  1  0.29694803  0.29979360  0.90279067  1
  Zr  Zr10  1  0.30241104  0.49899427  0.29726669  1
  Zr  Zr11  1  0.69179133  0.09935488  0.10398447  1
  Zr  Zr12  1  0.90359196  0.29779180  0.29986393  1
  Zr  Zr13  1  0.30659658  0.90117608  0.50568882  1
  Zr  Zr14  1  0.30624553  0.70464397  0.09831510  1
  Zr  Zr15  1  0.09846810  0.89618141  0.71174612  1
  Zr  Zr16  1  0.69232809  0.10426917  0.29951086  1
  Zr  Zr17  1  0.90349310  0.90554329  0.89892581  1
  Zr  Zr18  1  0.90233306  0.10405851  0.90254773  1
  Zr  Zr19  1  0.89353642  0.91325879  0.49387751  1
  Zr  Zr20  1  0.90402477  0.89360465  0.11118918  1
  Zr  Zr21  1  0.09076056  0.69621035  0.09757036  1
  Zr  Zr22  1  0.49451051  0.49799306  0.29792736  1
  Zr  Zr23  1  0.10142290  0.90529180  0.90247320  1
  Zr  Zr24  1  0.50633860  0.29345098  0.29890089  1
  Zr  Zr25  1  0.49542603  0.90803235  0.69781356  1
  Zr  Zr26  1  0.70205939  0.69772480  0.29520757  1
  Zr  Zr27  1  0.90107313  0.70130565  0.29160836  1
  Zr  Zr28  1  0.50140616  0.30147773  0.69782162  1
  Zr  Zr29  1  0.30262357  0.90003785  0.90227096  1
  Zr  Zr30  1  0.50878795  0.30634288  0.09553851  1
  Zr  Zr31  1  0.89559304  0.90121044  0.70160144  1
  Zr  Zr32  1  0.49576686  0.70291305  0.49825100  1
  Zr  Zr33  1  0.69017246  0.89645016  0.10074324  1
  Zr  Zr34  1  0.10315260  0.29765075  0.10288486  1
  Zr  Zr35  1  0.50549104  0.09744642  0.29881260  1
  Zr  Zr36  1  0.30089722  0.30386989  0.09698674  1
  Zr  Zr37  1  0.29155398  0.28779136  0.50399933  1
  Zr  Zr38  1  0.29741600  0.70236743  0.49323015  1
  Zr  Zr39  1  0.50210165  0.89810045  0.50087407  1
  Zr  Zr40  1  0.30133274  0.29317311  0.70150724  1
  Zr  Zr41  1  0.89927413  0.30291136  0.88963905  1
  Zr  Zr42  1  0.30633451  0.49811637  0.10161224  1
  Zr  Zr43  1  0.69351942  0.70729572  0.50279487  1
  Zr  Zr44  1  0.70052487  0.09619173  0.49629040  1
  Zr  Zr45  1  0.69333686  0.10044506  0.90093135  1
  Zr  Zr46  1  0.49979661  0.10544633  0.70789222  1
  Zr  Zr47  1  0.10790403  0.70324884  0.30027207  1
  Zr  Zr48  1  0.90070309  0.69958988  0.10209913  1
  Zr  Zr49  1  0.10087217  0.11020766  0.49591015  1
  Sc  Sc50  1  0.10379094  0.10091816  0.70459646  1
  Sc  Sc51  1  0.70037440  0.90379185  0.69407589  1
  Sc  Sc52  1  0.89193336  0.50317693  0.30789063  1
  Sc  Sc53  1  0.88632379  0.10980810  0.71053092  1
  Sc  Sc54  1  0.29817161  0.89412784  0.29285160  1
  Sc  Sc55  1  0.49768656  0.29961599  0.49868693  1
  Sc  Sc56  1  0.31079224  0.09817380  0.29490169  1
  Sc  Sc57  1  0.50335326  0.09293089  0.49453603  1
  Sc  Sc58  1  0.10221626  0.49783860  0.29498534  1
  Sc  Sc59  1  0.49712120  0.69937145  0.90467657  1
  Sc  Sc60  1  0.49877826  0.89656185  0.09632831  1
  Sc  Sc61  1  0.68802878  0.50657869  0.69384670  1
  Sc  Sc62  1  0.50172934  0.50492684  0.10244993  1
  Sc  Sc63  1  0.89686924  0.69744272  0.70571036  1
  Sc  Sc64  1  0.49944170  0.50040235  0.51127354  1
  Sc  Sc65  1  0.70165212  0.50219995  0.29346903  1
  Sc  Sc66  1  0.31029208  0.70401676  0.89896083  1
  Sc  Sc67  1  0.90761543  0.29504355  0.10340735  1
  Sc  Sc68  1  0.30300776  0.09102456  0.09363198  1
  Sc  Sc69  1  0.90311956  0.50425857  0.49953179  1
  Sc  Sc70  1  0.49872610  0.51355458  0.90292817  1
  Sc  Sc71  1  0.49794505  0.09169129  0.09599492  1
  Sc  Sc72  1  0.69376694  0.90442965  0.50535119  1
  Sc  Sc73  1  0.09601521  0.49506605  0.51110969  1
  Sc  Sc74  1  0.50122854  0.10209091  0.90288038  1
  Sc  Sc75  1  0.11129019  0.89842339  0.09689308  1
  Sc  Sc76  1  0.90876659  0.49926378  0.70128916  1
  Sc  Sc77  1  0.09934792  0.10075531  0.90497090  1
  Sc  Sc78  1  0.69513265  0.89842128  0.90012572  1
  Sc  Sc79  1  0.89330491  0.50143077  0.89620983  1
  Sc  Sc80  1  0.49934247  0.90025907  0.29755038  1
  Sc  Sc81  1  0.10074008  0.68875338  0.50052488  1
  Sc  Sc82  1  0.89843147  0.50375084  0.08889532  1
  Sc  Sc83  1  0.10409238  0.09497368  0.09363563  1
  Sc  Sc84  1  0.50290713  0.70138381  0.10072686  1
  Sc  Sc85  1  0.10443350  0.90012090  0.49939939  1
  Sc  Sc86  1  0.09968142  0.31098719  0.70338980  1
  Sc  Sc87  1  0.30473761  0.69415301  0.30195789  1
  Sc  Sc88  1  0.90982731  0.09923301  0.10653232  1
  Sc  Sc89  1  0.29618863  0.49558485  0.69656480  1
  Sc  Sc90  1  0.69279497  0.69954233  0.10591762  1
  Sc  Sc91  1  0.70051089  0.69304387  0.89583986  1
  Sc  Sc92  1  0.31406326  0.29845319  0.30069968  1
  Sc  Sc93  1  0.30013198  0.49982480  0.49945298  1
  Sc  Sc94  1  0.10330547  0.49575310  0.10515412  1
  Sc  Sc95  1  0.69990731  0.90528394  0.29281058  1
  Sc  Sc96  1  0.09760384  0.50049046  0.69743992  1
  Sc  Sc97  1  0.69921531  0.30986917  0.91307760  1
  Sc  Sc98  1  0.90115686  0.68896326  0.90283733  1
  Sc  Sc99  1  0.09798588  0.10686129  0.30748541  1
  Nb  Nb100  1  0.70410415  0.30975474  0.50158080  1
  Nb  Nb101  1  0.30519021  0.90420166  0.09745408  1
  Nb  Nb102  1  0.50534128  0.69195627  0.29975264  1
  Nb  Nb103  1  0.49804191  0.29654493  0.89570694  1
  Nb  Nb104  1  0.69754773  0.49561073  0.89858307  1
  Nb  Nb105  1  0.09855757  0.69899624  0.69970950  1
  Nb  Nb106  1  0.70527862  0.50006042  0.49389991  1
  Nb  Nb107  1  0.10475858  0.89951230  0.30546128  1
  Nb  Nb108  1  0.69199587  0.10521394  0.69939120  1
  Nb  Nb109  1  0.90432679  0.89762353  0.30237891  1
  Nb  Nb110  1  0.50297127  0.89719423  0.90368104  1
  Nb  Nb111  1  0.69640896  0.29469381  0.29676641  1
  Nb  Nb112  1  0.09813467  0.29792617  0.49729192  1
  Nb  Nb113  1  0.89870974  0.30043494  0.70055124  1
  Nb  Nb114  1  0.30042771  0.10468694  0.89902317  1
  Nb  Nb115  1  0.89948803  0.69936790  0.49587252  1
  Nb  Nb116  1  0.09966504  0.49886265  0.89306663  1
  Nb  Nb117  1  0.69865265  0.29738235  0.10362337  1
  Nb  Nb118  1  0.30624829  0.09796358  0.69268596  1
  Nb  Nb119  1  0.29804728  0.50145178  0.89894160  1
  Nb  Nb120  1  0.70576629  0.30292037  0.69192816  1
  Nb  Nb121  1  0.29623118  0.70262032  0.70514210  1
  Nb  Nb122  1  0.90208319  0.10263796  0.49592284  1
  Nb  Nb123  1  0.29277007  0.09719333  0.50788802  1
  Nb  Nb124  1  0.69345757  0.70325488  0.69689091  1
  Nb  Nb125  1  -0.00206051  0.80088107  0.40039271  1
  Nb  Nb126  1  0.79532936  0.60640945  0.59532847  1
  Nb  Nb127  1  -0.00087911  0.80034280  0.59705562  1
  Nb  Nb128  1  0.60978739  0.20362281  0.60101371  1
  Nb  Nb129  1  0.79655850  0.20535448  0.40341151  1
  Nb  Nb130  1  -0.00403461  0.00505291  0.59899739  1
  Nb  Nb131  1  0.20041359  0.59699501  -0.00694053  1
  Nb  Nb132  1  0.19874386  0.39084420  0.40300152  1
  Nb  Nb133  1  0.19733101  0.79637720  0.60823951  1
  Nb  Nb134  1  0.20608038  0.00364404  0.40403331  1
  Nb  Nb135  1  0.59782623  0.39976439  0.80186721  1
  Nb  Nb136  1  0.79471095  0.39143201  0.19619187  1
  Nb  Nb137  1  0.80087748  0.00013682  0.00433189  1
  Nb  Nb138  1  0.59706259  0.79707134  0.79480126  1
  Nb  Nb139  1  0.00485033  0.39916642  -0.00821453  1
  Nb  Nb140  1  0.59972147  0.59696503  0.40071952  1
  Nb  Nb141  1  0.19970931  0.60258790  0.80176518  1
  Nb  Nb142  1  0.60695957  0.40128377  0.40145785  1
  Nb  Nb143  1  0.00676288  -0.00865547  0.21098477  1
  Nb  Nb144  1  0.80566838  0.80112555  0.39760447  1
  Nb  Nb145  1  0.80071495  0.80329378  0.00344880  1
  Nb  Nb146  1  0.40209506  0.39755739  0.80586863  1
  Nb  Nb147  1  0.20366230  0.20120912  0.19791209  1
  Nb  Nb148  1  0.79722112  0.19791972  0.00495212  1
  Nb  Nb149  1  -0.00756317  0.20325684  0.59950208  1
  Pd  Pd150  1  -0.00218783  0.20626962  -0.00141897  1
  Pd  Pd151  1  0.40898492  0.40663878  -0.00696889  1
  Pd  Pd152  1  -0.00276099  0.01229647  0.79247748  1
  Pd  Pd153  1  0.79981509  0.19592522  0.59440760  1
  Pd  Pd154  1  0.79526727  0.58692937  0.18760823  1
  Pd  Pd155  1  0.20118238  0.19364758  0.79703575  1
  Pd  Pd156  1  0.20403862  0.79434514  -0.00161680  1
  Pd  Pd157  1  0.20097351  0.79754894  0.19457743  1
  Pd  Pd158  1  0.80665956  0.00142714  0.19875972  1
  Pd  Pd159  1  0.00665018  0.59999331  0.39632591  1
  Pd  Pd160  1  0.18791186  0.20347543  0.61213444  1
  Pd  Pd161  1  0.79487727  0.59272967  0.78849580  1
  Pd  Pd162  1  0.00621304  0.40595395  0.40003836  1
  Pd  Pd163  1  0.19265270  0.40667150  -0.00095796  1
  Pd  Pd164  1  -0.01252656  0.41005489  0.19413980  1
  Pd  Pd165  1  0.40136193  0.19761154  0.18781209  1
  Pd  Pd166  1  0.60102141  -0.00766905  0.80039848  1
  Pd  Pd167  1  0.40580043  0.79831223  0.20266676  1
  Pd  Pd168  1  -0.00248286  0.58950224  0.20357388  1
  Pd  Pd169  1  -0.01025489  0.79386135  0.79945209  1
  Pd  Pd170  1  0.79112717  0.00029398  0.80411466  1
  Pd  Pd171  1  0.39883028  0.80169916  0.38867125  1
  Pd  Pd172  1  0.20363585  0.60214207  0.60548299  1
  Pd  Pd173  1  -0.00551034  0.80383971  -0.00236475  1
  Pd  Pd174  1  0.19711638  0.00845472  0.20917612  1
  Pd  Pd175  1  0.79055239  0.40814437  0.79009433  1
  Pd  Pd176  1  0.19347723  0.58540227  0.40252328  1
  Pd  Pd177  1  0.20313528  0.60358190  0.19135532  1
  Pd  Pd178  1  0.60653860  0.80218643  0.39066756  1
  Pd  Pd179  1  0.41113024  0.19236381  0.59206226  1
  Pd  Pd180  1  0.40010581  0.40018762  0.40758861  1
  Pd  Pd181  1  0.40939563  0.79946421  0.79944360  1
  Pd  Pd182  1  0.19032140  -0.00457943  0.59976041  1
  Pd  Pd183  1  0.39324391  0.39729401  0.60075269  1
  Pd  Pd184  1  0.80144484  0.41800413  0.60927577  1
  Pd  Pd185  1  0.60382752  0.60495350  -0.00008065  1
  Pd  Pd186  1  0.40229462  0.19652347  0.00221544  1
  Pd  Pd187  1  0.39639204  0.79542295  0.60736877  1
  Pd  Pd188  1  0.80614773  0.79659403  0.59511680  1
  Pd  Pd189  1  0.39497048  -0.00057427  0.39839632  1
  Pd  Pd190  1  0.80256611  0.01071944  0.60657325  1
  Pd  Pd191  1  0.79384611  0.79831764  0.80845926  1
  Pd  Pd192  1  0.40037079  0.00739044  0.80910585  1
  Pd  Pd193  1  0.80485129  0.19977693  0.20105043  1
  Pd  Pd194  1  0.20342507  0.00951926  0.80522435  1
  Pd  Pd195  1  0.78624757  0.20758491  0.80922149  1
  Pd  Pd196  1  0.38921792  0.60192115  0.59967924  1
  Pd  Pd197  1  0.78993047  0.60622300  0.00440348  1
  Pd  Pd198  1  0.60960280  0.21342834  0.79934784  1
  Pd  Pd199  1  0.39853590  0.18965276  0.40687295  1
  Rh  Rh200  1  0.79085063  0.61094454  0.40735474  1
  Rh  Rh201  1  0.78891518  0.00003527  0.39328648  1
  Rh  Rh202  1  0.00945837  0.58819814  -0.00341398  1
  Rh  Rh203  1  0.01587060  0.80506814  0.20534323  1
  Rh  Rh204  1  -0.01062696  0.60760692  0.60248999  1
  Rh  Rh205  1  0.59057713  -0.00271075  0.19851309  1
  Rh  Rh206  1  0.79301017  0.80248171  0.20026734  1
  Rh  Rh207  1  0.01269152  0.18615214  0.19811087  1
  Rh  Rh208  1  0.40592578  0.00915290  0.59755590  1
  Rh  Rh209  1  0.20494622  0.19425538  0.00540685  1
  Rh  Rh210  1  0.60314567  0.60023719  0.80515270  1
  Rh  Rh211  1  0.40562942  0.39674121  0.19747180  1
  Rh  Rh212  1  0.59811138  0.59493186  0.20281917  1
  Rh  Rh213  1  0.00527215  0.59863078  0.79888729  1
  Rh  Rh214  1  0.60378925  0.79592523  -0.01027821  1
  Rh  Rh215  1  0.00421282  0.20190804  0.78948327  1
  Rh  Rh216  1  0.60125675  -0.00986507  0.39679282  1
  Rh  Rh217  1  0.01350965  -0.00634644  0.40259202  1
  Rh  Rh218  1  0.40178248  0.60503906  0.19824049  1
  Rh  Rh219  1  0.19874803  0.39429615  0.59426887  1
  Rh  Rh220  1  0.59011697  0.80395517  0.61101659  1
  Rh  Rh221  1  0.20847898  0.40630192  0.79715385  1
  Rh  Rh222  1  0.79379200  0.39345141  0.38556407  1
  Rh  Rh223  1  0.58770770  0.40312411  -0.01325841  1
  Rh  Rh224  1  0.59399611  0.79944531  0.20406557  1
  Rh  Rh225  1  0.58905456  0.19707077  0.19064661  1
  Rh  Rh226  1  0.60693472  0.21089549  0.41353465  1
  Rh  Rh227  1  0.40263987  0.80441444  0.00194416  1
  Rh  Rh228  1  0.39412058  0.60106083  0.00438933  1
  Rh  Rh229  1  0.59965478  -0.00293786  -0.00125306  1
  Rh  Rh230  1  0.21026409  0.38980982  0.21255891  1
  Rh  Rh231  1  0.60116684  0.20098100  0.00264797  1
  Rh  Rh232  1  0.19878297  0.80540075  0.40933196  1
  Rh  Rh233  1  0.60387245  0.40232467  0.20763418  1
  Rh  Rh234  1  0.59655234  0.00937112  0.60274792  1
  Rh  Rh235  1  -0.00185052  0.39384789  0.60330502  1
  Rh  Rh236  1  0.20188887  0.79571034  0.79989071  1
  Rh  Rh237  1  -0.00308812  -0.00719009  0.01148861  1
  Rh  Rh238  1  0.40778289  0.59790840  0.40367088  1
  Rh  Rh239  1  0.39347818  0.19954440  0.80340689  1
  Rh  Rh240  1  0.38926401  0.59335459  0.79732725  1
  Rh  Rh241  1  -0.01291909  0.21115047  0.40973287  1
  Rh  Rh242  1  0.60278662  0.39688081  0.59839920  1
  Rh  Rh243  1  0.81419733  0.38745806  0.00835173  1
  Rh  Rh244  1  0.40108652  -0.00682232  0.19595601  1
  Rh  Rh245  1  0.21500247  0.19836927  0.38735830  1
  Rh  Rh246  1  0.20693471  0.00091596  -0.00734966  1
  Rh  Rh247  1  0.60443709  0.59955692  0.58846502  1
  Rh  Rh248  1  -0.00106393  0.40146192  0.80196210  1
  Rh  Rh249  1  0.40090899  -0.00382313  -0.00640621  1
