# generated using pymatgen
data_ZrScNbPdRh
_symmetry_space_group_name_H-M   'P 1'
_cell_length_a   16.55826230
_cell_length_b   16.56171219
_cell_length_c   16.56051544
_cell_angle_alpha   89.99551999
_cell_angle_beta   90.00366267
_cell_angle_gamma   89.95760393
_symmetry_Int_Tables_number   1
_chemical_formula_structural   ZrScNbPdRh
_chemical_formula_sum   'Zr50 Sc50 Nb50 Pd50 Rh50'
_cell_volume   4541.44145368
_cell_formula_units_Z   50
loop_
 _symmetry_equiv_pos_site_id
 _symmetry_equiv_pos_as_xyz
  1  'x, y, z'
loop_
 _atom_site_type_symbol
 _atom_site_label
 _atom_site_symmetry_multiplicity
 _atom_site_fract_x
 _atom_site_fract_y
 _atom_site_fract_z
 _atom_site_occupancy
  Zr  Zr0  1  0.70351244  0.50040305  0.49991954  1
  Zr  Zr1  1  0.50312403  0.10233498  0.90773081  1
  Zr  Zr2  1  0.29818218  0.49823630  0.09058355  1
  Zr  Zr3  1  0.50484140  0.90493004  0.29774577  1
  Zr  Zr4  1  0.90191289  0.71284345  0.50012419  1
  Zr  Zr5  1  0.09674518  0.09561680  0.09575496  1
  Zr  Zr6  1  0.30668671  0.30372341  0.49784131  1
  Zr  Zr7  1  0.09027987  0.29736244  0.50351990  1
  Zr  Zr8  1  0.29372985  0.10100920  0.49876719  1
  Zr  Zr9  1  0.90110197  0.90561000  0.50993754  1
  Zr  Zr10  1  0.49887309  0.90195256  0.69866382  1
  Zr  Zr11  1  0.29443805  0.49949454  0.89977615  1
  Zr  Zr12  1  0.50009680  0.09330321  0.09849054  1
  Zr  Zr13  1  0.09805550  0.70246542  0.30709003  1
  Zr  Zr14  1  0.30076683  0.10255304  0.29901624  1
  Zr  Zr15  1  0.49997387  0.29827390  0.89082498  1
  Zr  Zr16  1  0.30447755  0.29783119  0.30507195  1
  Zr  Zr17  1  0.70394218  0.69926234  0.50621993  1
  Zr  Zr18  1  0.29392358  0.68992994  0.89680080  1
  Zr  Zr19  1  0.29849143  0.09722821  0.09974183  1
  Zr  Zr20  1  0.50081997  0.89874176  0.09191862  1
  Zr  Zr21  1  0.89873059  0.30251202  0.89713882  1
  Zr  Zr22  1  0.89205633  0.50176896  0.29120140  1
  Zr  Zr23  1  0.89594003  0.29189876  0.50306302  1
  Zr  Zr24  1  0.69903319  0.70651641  0.09644649  1
  Zr  Zr25  1  0.09684339  0.70014287  0.89533016  1
  Zr  Zr26  1  0.70243713  0.09447025  0.10139270  1
  Zr  Zr27  1  0.70822753  0.90149538  0.30044997  1
  Zr  Zr28  1  0.49760582  0.30184894  0.49606047  1
  Zr  Zr29  1  0.50565943  0.10142666  0.30080813  1
  Zr  Zr30  1  0.70240953  0.69495287  0.69473688  1
  Zr  Zr31  1  0.90070848  0.10382460  0.10029434  1
  Zr  Zr32  1  0.69918668  0.49816819  0.69222203  1
  Zr  Zr33  1  0.28086690  0.89583075  0.09879907  1
  Zr  Zr34  1  0.50553983  0.10118820  0.49765788  1
  Zr  Zr35  1  0.50657824  0.90411667  0.50408994  1
  Zr  Zr36  1  0.09328756  0.90234751  0.50389403  1
  Zr  Zr37  1  0.69923993  0.30073428  0.49892122  1
  Zr  Zr38  1  0.29863979  0.49924468  0.49675582  1
  Zr  Zr39  1  0.09892047  0.49736607  0.89575847  1
  Zr  Zr40  1  0.10753773  0.72061739  0.09873708  1
  Zr  Zr41  1  0.09940695  0.89507234  0.29028469  1
  Zr  Zr42  1  0.70663792  0.10023573  0.49947808  1
  Zr  Zr43  1  0.69471563  0.10314539  0.89958457  1
  Zr  Zr44  1  0.30044601  0.68927332  0.50363163  1
  Zr  Zr45  1  0.09095423  0.49832246  0.69836290  1
  Zr  Zr46  1  0.70488209  0.70049241  0.90097538  1
  Zr  Zr47  1  0.89819962  0.70539428  0.89806576  1
  Zr  Zr48  1  0.70831216  0.49348365  0.89231119  1
  Zr  Zr49  1  0.09281187  0.29279570  0.09202928  1
  Sc  Sc50  1  0.29686306  0.89514426  0.89733975  1
  Sc  Sc51  1  0.70767132  0.90726203  0.50101702  1
  Sc  Sc52  1  0.49490784  0.29656965  0.09550759  1
  Sc  Sc53  1  0.09512600  0.10499061  0.90138296  1
  Sc  Sc54  1  0.48608314  0.70315907  0.90619009  1
  Sc  Sc55  1  0.70466169  0.49906429  0.11051136  1
  Sc  Sc56  1  0.30763743  0.49623159  0.29814230  1
  Sc  Sc57  1  0.29856081  0.91251058  0.70470608  1
  Sc  Sc58  1  0.70113503  0.89294994  0.91047538  1
  Sc  Sc59  1  0.29412319  0.30150401  0.10056223  1
  Sc  Sc60  1  0.69983164  0.30881592  0.71110100  1
  Sc  Sc61  1  0.89774692  0.29429104  0.29043353  1
  Sc  Sc62  1  0.09623168  0.48313978  0.09394605  1
  Sc  Sc63  1  0.49513101  0.49358695  0.50952654  1
  Sc  Sc64  1  0.69985425  0.09650291  0.70136815  1
  Sc  Sc65  1  0.09539118  0.29901774  0.28539089  1
  Sc  Sc66  1  0.89702444  0.10004005  0.29779912  1
  Sc  Sc67  1  0.10219105  0.09923249  0.30583870  1
  Sc  Sc68  1  0.70108352  0.30557127  0.30192398  1
  Sc  Sc69  1  0.90235278  0.30174856  0.10269520  1
  Sc  Sc70  1  0.89888836  0.49139499  0.09410702  1
  Sc  Sc71  1  0.89208946  0.69681757  0.09966913  1
  Sc  Sc72  1  0.89683957  0.70868972  0.30018448  1
  Sc  Sc73  1  0.09831520  0.69293459  0.50779122  1
  Sc  Sc74  1  0.71021395  0.30322355  0.10276547  1
  Sc  Sc75  1  0.30195907  0.68550849  0.30766341  1
  Sc  Sc76  1  0.71394860  0.69653219  0.29332429  1
  Sc  Sc77  1  0.10184119  0.29922023  0.89322841  1
  Sc  Sc78  1  0.90032808  0.89669422  0.30637245  1
  Sc  Sc79  1  0.50151957  0.09167503  0.70870416  1
  Sc  Sc80  1  0.30496085  0.50364046  0.70572752  1
  Sc  Sc81  1  0.90521765  0.50100871  0.90261542  1
  Sc  Sc82  1  0.70388877  0.09288433  0.30127714  1
  Sc  Sc83  1  0.90227401  0.70954272  0.69747209  1
  Sc  Sc84  1  0.10096136  0.10027508  0.71055352  1
  Sc  Sc85  1  0.50049601  0.30384706  0.30564168  1
  Sc  Sc86  1  0.90594583  0.30018379  0.70024378  1
  Sc  Sc87  1  0.09479556  0.90768973  0.70558649  1
  Sc  Sc88  1  0.29849967  0.10950346  0.88971811  1
  Sc  Sc89  1  0.90573604  0.10141636  0.70118261  1
  Sc  Sc90  1  0.48493142  0.49983327  0.89728369  1
  Sc  Sc91  1  0.70382394  0.90331154  0.10095799  1
  Sc  Sc92  1  0.30008963  0.91057438  0.51477252  1
  Sc  Sc93  1  0.29964751  0.30159490  0.71305566  1
  Sc  Sc94  1  0.70194280  0.90237723  0.69038879  1
  Sc  Sc95  1  0.29432319  0.90494817  0.29570151  1
  Sc  Sc96  1  0.89575571  0.49445405  0.70104220  1
  Sc  Sc97  1  0.49825136  0.90331655  0.90054091  1
  Sc  Sc98  1  0.49937375  0.50233717  0.10823935  1
  Sc  Sc99  1  0.89345362  0.49558888  0.51058950  1
  Nb  Nb100  1  0.50431351  0.49391364  0.70211932  1
  Nb  Nb101  1  0.90896349  0.90164548  0.89530496  1
  Nb  Nb102  1  0.09822642  0.90585891  0.09383924  1
  Nb  Nb103  1  0.90156030  0.10124191  0.89826029  1
  Nb  Nb104  1  0.69481068  0.50261594  0.29840522  1
  Nb  Nb105  1  0.09905327  0.49883389  0.49858797  1
  Nb  Nb106  1  0.49999387  0.31425738  0.69398009  1
  Nb  Nb107  1  0.30151074  0.69573865  0.09307019  1
  Nb  Nb108  1  0.10107242  0.30314169  0.70220206  1
  Nb  Nb109  1  0.09872902  0.50133782  0.29866879  1
  Nb  Nb110  1  0.29990910  0.30795301  0.89574065  1
  Nb  Nb111  1  0.90656704  0.09968851  0.50071073  1
  Nb  Nb112  1  0.51264161  0.50825472  0.29332854  1
  Nb  Nb113  1  0.09085222  0.89749954  0.91551701  1
  Nb  Nb114  1  0.90863629  0.91117272  0.10061094  1
  Nb  Nb115  1  0.90267214  0.90584846  0.70166311  1
  Nb  Nb116  1  0.50186062  0.69233176  0.69709165  1
  Nb  Nb117  1  0.29615968  0.10080034  0.69193886  1
  Nb  Nb118  1  0.09575849  0.09781327  0.50449001  1
  Nb  Nb119  1  0.50100574  0.69723728  0.10110640  1
  Nb  Nb120  1  0.29921641  0.70214913  0.70664157  1
  Nb  Nb121  1  0.50066582  0.69670422  0.29623579  1
  Nb  Nb122  1  0.69953300  0.30128270  0.90012076  1
  Nb  Nb123  1  0.10573162  0.69792106  0.70159467  1
  Nb  Nb124  1  0.50222706  0.69915911  0.50125647  1
  Nb  Nb125  1  0.60003097  0.59729434  -0.00386266  1
  Nb  Nb126  1  -0.00136892  0.59276604  0.39898559  1
  Nb  Nb127  1  0.00027406  0.40479267  0.39830154  1
  Nb  Nb128  1  0.60346156  0.40251212  -0.00548275  1
  Nb  Nb129  1  0.39983868  0.19994866  0.60544594  1
  Nb  Nb130  1  0.18995553  0.40227123  0.40157845  1
  Nb  Nb131  1  0.40101215  -0.00098389  0.40090457  1
  Nb  Nb132  1  0.59508983  0.79548820  0.20231639  1
  Nb  Nb133  1  0.79937390  0.19833669  -0.00787372  1
  Nb  Nb134  1  0.59530129  0.60064971  0.79980370  1
  Nb  Nb135  1  0.19495593  0.39721512  0.59890981  1
  Nb  Nb136  1  0.19491190  0.59847339  0.19492740  1
  Nb  Nb137  1  0.39929570  0.79094308  0.60256463  1
  Nb  Nb138  1  0.59449118  0.20665921  0.60263030  1
  Nb  Nb139  1  0.40155078  0.79190762  0.19879326  1
  Nb  Nb140  1  0.40238554  0.79961907  0.40278440  1
  Nb  Nb141  1  0.59733410  0.79087499  0.79598448  1
  Nb  Nb142  1  0.20609835  0.79947546  0.41134814  1
  Nb  Nb143  1  0.19996457  0.20207752  0.60261494  1
  Nb  Nb144  1  0.60155451  0.19623454  0.19913295  1
  Nb  Nb145  1  0.59781209  0.79154995  0.39743832  1
  Nb  Nb146  1  0.20285311  0.79457856  0.60730493  1
  Nb  Nb147  1  0.00719695  0.60008936  0.20028039  1
  Nb  Nb148  1  0.59917223  0.60237883  0.39703509  1
  Nb  Nb149  1  0.80916234  -0.00453841  0.80585771  1
  Pd  Pd150  1  0.19409300  -0.00021491  0.80817860  1
  Pd  Pd151  1  0.79229838  0.20136165  0.61173103  1
  Pd  Pd152  1  -0.01133655  0.79732997  0.19220391  1
  Pd  Pd153  1  0.61144689  -0.01484820  0.80556740  1
  Pd  Pd154  1  0.80132352  0.19480124  0.79805372  1
  Pd  Pd155  1  0.80506000  0.00155120  -0.00652026  1
  Pd  Pd156  1  0.20044121  0.59489215  0.60980885  1
  Pd  Pd157  1  0.80312910  0.60193261  0.40108322  1
  Pd  Pd158  1  0.20199359  -0.00875701  0.40234623  1
  Pd  Pd159  1  0.40489174  0.39832097  0.20128280  1
  Pd  Pd160  1  0.40213077  0.59732978  0.60607542  1
  Pd  Pd161  1  0.81281998  0.81152289  0.00746312  1
  Pd  Pd162  1  -0.00891953  0.60162805  0.79452387  1
  Pd  Pd163  1  0.00515502  0.60328076  0.01000427  1
  Pd  Pd164  1  0.00083828  0.00356331  0.20844993  1
  Pd  Pd165  1  0.60786451  0.21045226  0.01040559  1
  Pd  Pd166  1  -0.00270679  -0.00016416  0.39454811  1
  Pd  Pd167  1  0.79357875  0.81048038  0.79377404  1
  Pd  Pd168  1  0.00573010  0.80150905  0.79420375  1
  Pd  Pd169  1  0.19245172  0.80793668  0.79928153  1
  Pd  Pd170  1  0.19682061  0.19689444  0.19886971  1
  Pd  Pd171  1  0.40420603  0.79917130  0.79432827  1
  Pd  Pd172  1  -0.00001264  0.20382340  0.39162893  1
  Pd  Pd173  1  0.80477071  0.59868911  0.79445974  1
  Pd  Pd174  1  0.20567726  0.20357871  -0.00642927  1
  Pd  Pd175  1  0.59553432  0.40948897  0.40172121  1
  Pd  Pd176  1  -0.01047155  0.79716566  0.00687253  1
  Pd  Pd177  1  0.38720423  -0.00108429  -0.00685183  1
  Pd  Pd178  1  0.79958063  0.19736425  0.39330210  1
  Pd  Pd179  1  0.59856889  0.39033937  0.19185016  1
  Pd  Pd180  1  0.41267071  0.59416016  0.40058237  1
  Pd  Pd181  1  0.00604914  0.19416833  0.60988531  1
  Pd  Pd182  1  0.39660299  0.00513419  0.80595001  1
  Pd  Pd183  1  -0.00806575  0.60053931  0.59806125  1
  Pd  Pd184  1  0.21410905  0.78782438  0.21329020  1
  Pd  Pd185  1  0.39237256  0.80069730  0.00363623  1
  Pd  Pd186  1  0.40426213  0.39793559  0.00042054  1
  Pd  Pd187  1  0.40435410  0.19835228  0.79268568  1
  Pd  Pd188  1  0.59977648  0.80109346  0.60087350  1
  Pd  Pd189  1  0.79554483  0.59131839  0.00435106  1
  Pd  Pd190  1  0.20121323  0.40315758  0.20386783  1
  Pd  Pd191  1  0.39548435  -0.00821633  0.20012602  1
  Pd  Pd192  1  0.18554992  0.60044632  0.00687178  1
  Pd  Pd193  1  0.19079434  0.20833019  0.40259434  1
  Pd  Pd194  1  0.38988792  0.20517626  -0.00240235  1
  Pd  Pd195  1  0.40626157  0.20450017  0.19962573  1
  Pd  Pd196  1  0.20256403  0.00461158  -0.01309130  1
  Pd  Pd197  1  0.59599910  0.20300433  0.78926849  1
  Pd  Pd198  1  0.80767252  0.39864720  0.39554063  1
  Pd  Pd199  1  0.39095088  0.60054869  0.19472183  1
  Rh  Rh200  1  0.39765095  0.40175197  0.79873865  1
  Rh  Rh201  1  0.19870567  0.40493880  0.79522133  1
  Rh  Rh202  1  -0.00582766  0.40383544  0.20158677  1
  Rh  Rh203  1  0.60476785  0.01108233  0.59929753  1
  Rh  Rh204  1  0.19622112  0.59452527  0.79562169  1
  Rh  Rh205  1  0.40598092  0.41078597  0.39032317  1
  Rh  Rh206  1  0.38846489  0.39771638  0.60963720  1
  Rh  Rh207  1  0.80356578  0.59932690  0.19498750  1
  Rh  Rh208  1  0.19294828  0.59705963  0.39297408  1
  Rh  Rh209  1  0.80622281  0.39980968  0.79785180  1
  Rh  Rh210  1  0.79661522  0.39519139  -0.00240538  1
  Rh  Rh211  1  0.40128030  0.19068117  0.40267992  1
  Rh  Rh212  1  0.79363478  0.80365549  0.40600377  1
  Rh  Rh213  1  0.19836720  0.39141522  -0.00646500  1
  Rh  Rh214  1  0.81018410  0.60396414  0.60205439  1
  Rh  Rh215  1  0.20295081  0.79811739  -0.01302068  1
  Rh  Rh216  1  0.61018650  0.20046113  0.39610353  1
  Rh  Rh217  1  0.61119688  0.60728283  0.19723495  1
  Rh  Rh218  1  0.80227601  0.80604388  0.60258063  1
  Rh  Rh219  1  0.80877501  0.00751960  0.60723385  1
  Rh  Rh220  1  0.00148829  0.20259192  0.80005004  1
  Rh  Rh221  1  0.19209368  0.00698887  0.19789360  1
  Rh  Rh222  1  0.79255014  0.19721684  0.19457134  1
  Rh  Rh223  1  0.00305468  0.19235100  0.19959118  1
  Rh  Rh224  1  0.19877889  0.20202727  0.79658619  1
  Rh  Rh225  1  0.79940198  0.39929275  0.20370494  1
  Rh  Rh226  1  0.80930024  -0.00473750  0.20233544  1
  Rh  Rh227  1  -0.00195765  0.39965839  0.59713269  1
  Rh  Rh228  1  -0.00087443  0.00185302  0.80723569  1
  Rh  Rh229  1  0.59519810  0.40685861  0.80782256  1
  Rh  Rh230  1  0.60336746  -0.00450454  0.40304714  1
  Rh  Rh231  1  0.00897192  0.80163099  0.60797800  1
  Rh  Rh232  1  0.80024122  0.38919690  0.60366708  1
  Rh  Rh233  1  0.60117507  -0.00557727  -0.00382327  1
  Rh  Rh234  1  -0.00875155  0.20218918  -0.00438198  1
  Rh  Rh235  1  0.00731225  0.79817183  0.40738020  1
  Rh  Rh236  1  0.40455302  0.60012894  0.79634732  1
  Rh  Rh237  1  0.80079120  0.80905552  0.19327467  1
  Rh  Rh238  1  0.00020324  0.39295877  -0.00662911  1
  Rh  Rh239  1  -0.00314388  0.00318835  -0.00417484  1
  Rh  Rh240  1  -0.00212135  0.39874843  0.80145941  1
  Rh  Rh241  1  0.59532777  0.58902469  0.59785765  1
  Rh  Rh242  1  0.40627164  0.59580568  0.00540760  1
  Rh  Rh243  1  0.60434495  -0.00063795  0.19553191  1
  Rh  Rh244  1  0.18747238  0.00409596  0.60454981  1
  Rh  Rh245  1  0.40548354  0.00460619  0.59821623  1
  Rh  Rh246  1  0.59389979  0.79322638  -0.00206462  1
  Rh  Rh247  1  0.81072307  0.00382903  0.40542786  1
  Rh  Rh248  1  0.60480470  0.39712438  0.59596382  1
  Rh  Rh249  1  0.00056692  0.00854491  0.60423731  1
