# generated using pymatgen
data_ZrScNbPdRh
_symmetry_space_group_name_H-M   'P 1'
_cell_length_a   16.56401477
_cell_length_b   16.56181325
_cell_length_c   16.56195187
_cell_angle_alpha   89.99061573
_cell_angle_beta   89.98753931
_cell_angle_gamma   89.95197679
_symmetry_Int_Tables_number   1
_chemical_formula_structural   ZrScNbPdRh
_chemical_formula_sum   'Zr50 Sc50 Nb50 Pd50 Rh50'
_cell_volume   4543.44046865
_cell_formula_units_Z   50
loop_
 _symmetry_equiv_pos_site_id
 _symmetry_equiv_pos_as_xyz
  1  'x, y, z'
loop_
 _atom_site_type_symbol
 _atom_site_label
 _atom_site_symmetry_multiplicity
 _atom_site_fract_x
 _atom_site_fract_y
 _atom_site_fract_z
 _atom_site_occupancy
  Zr  Zr0  1  0.89787977  0.30287350  0.10052881  1
  Zr  Zr1  1  0.49373670  0.30145114  0.49339391  1
  Zr  Zr2  1  0.31138340  0.49967115  0.50328473  1
  Zr  Zr3  1  0.90030943  0.09872910  0.29272992  1
  Zr  Zr4  1  0.69772821  0.09905233  0.29938071  1
  Zr  Zr5  1  0.70732367  0.50623085  0.09377003  1
  Zr  Zr6  1  0.89854970  0.90621188  0.09938597  1
  Zr  Zr7  1  0.29594975  0.70407708  0.70312563  1
  Zr  Zr8  1  0.10425686  0.50279789  0.89418906  1
  Zr  Zr9  1  0.30030073  0.70101726  0.11189469  1
  Zr  Zr10  1  0.90482610  0.11198209  0.50087864  1
  Zr  Zr11  1  0.50616283  0.29315864  0.29319441  1
  Zr  Zr12  1  0.49896383  0.10173364  0.30121804  1
  Zr  Zr13  1  0.69725702  0.70130623  0.29014100  1
  Zr  Zr14  1  0.09864070  0.49553483  0.69890603  1
  Zr  Zr15  1  0.29512864  0.89899276  0.30538017  1
  Zr  Zr16  1  0.89975440  0.89910387  0.70450667  1
  Zr  Zr17  1  0.50314212  0.10556699  0.11292590  1
  Zr  Zr18  1  0.29713781  0.70143204  0.29924250  1
  Zr  Zr19  1  0.49724383  0.29827038  0.89969581  1
  Zr  Zr20  1  0.30466530  0.31248182  0.89326423  1
  Zr  Zr21  1  0.89294213  0.30582297  0.89527176  1
  Zr  Zr22  1  0.49775880  0.70328765  0.11210902  1
  Zr  Zr23  1  0.49231864  0.49607009  0.89727628  1
  Zr  Zr24  1  0.70346655  0.49801862  0.89582836  1
  Zr  Zr25  1  0.89928610  0.69855796  0.10961495  1
  Zr  Zr26  1  0.49535735  0.89499533  0.50408173  1
  Zr  Zr27  1  0.08475828  0.90233242  0.90284573  1
  Zr  Zr28  1  0.90392596  0.70427480  0.30230091  1
  Zr  Zr29  1  0.49575766  0.89944428  0.70037473  1
  Zr  Zr30  1  0.29871103  0.50662055  0.30129813  1
  Zr  Zr31  1  0.49911133  0.69163025  0.49825436  1
  Zr  Zr32  1  0.10004432  0.70575970  0.89454090  1
  Zr  Zr33  1  0.29393917  0.10991801  0.69700098  1
  Zr  Zr34  1  0.09219361  0.90127348  0.69915351  1
  Zr  Zr35  1  0.69772324  0.69108430  0.89907293  1
  Zr  Zr36  1  0.50112208  0.09588021  0.69977864  1
  Zr  Zr37  1  0.69116999  0.90570979  0.49965992  1
  Zr  Zr38  1  0.49582541  0.49922419  0.69101087  1
  Zr  Zr39  1  0.90071515  0.89537965  0.29501419  1
  Zr  Zr40  1  0.29299004  0.48680481  0.70019720  1
  Zr  Zr41  1  0.89612149  0.90396536  0.89708901  1
  Zr  Zr42  1  0.70647736  0.50118097  0.69579668  1
  Zr  Zr43  1  0.89974457  0.70348778  0.69424746  1
  Zr  Zr44  1  0.09789034  0.30386966  0.09668079  1
  Zr  Zr45  1  0.50394253  0.89963025  0.30533359  1
  Zr  Zr46  1  0.09112106  0.10475957  0.09585627  1
  Zr  Zr47  1  0.09919053  0.10375277  0.50153563  1
  Zr  Zr48  1  0.50241231  0.90794254  0.10049345  1
  Zr  Zr49  1  0.69963016  0.10060775  0.89609530  1
  Sc  Sc50  1  0.90085307  0.29796643  0.30524424  1
  Sc  Sc51  1  0.90174812  0.49862962  0.89409833  1
  Sc  Sc52  1  0.09244355  0.89393280  0.09652010  1
  Sc  Sc53  1  0.89894405  0.09818557  0.10351475  1
  Sc  Sc54  1  0.90567734  0.70442509  0.89313246  1
  Sc  Sc55  1  0.29647115  0.70548044  0.89837095  1
  Sc  Sc56  1  0.48812246  0.28987031  0.69713562  1
  Sc  Sc57  1  0.69729673  0.89724692  0.29583712  1
  Sc  Sc58  1  0.30377530  0.89623129  0.89954085  1
  Sc  Sc59  1  0.49753158  0.09656660  0.90593288  1
  Sc  Sc60  1  0.30370287  0.09941534  0.30686020  1
  Sc  Sc61  1  0.70369958  0.89786011  0.69919070  1
  Sc  Sc62  1  0.70166587  0.50293229  0.49935393  1
  Sc  Sc63  1  0.30709976  0.89899328  0.69855250  1
  Sc  Sc64  1  0.90238935  0.49761640  0.70062185  1
  Sc  Sc65  1  0.10993721  0.29591518  0.91088882  1
  Sc  Sc66  1  0.10046342  0.71543288  0.49848290  1
  Sc  Sc67  1  0.10097013  0.10476023  0.30853242  1
  Sc  Sc68  1  0.30110626  0.29984990  0.08528023  1
  Sc  Sc69  1  0.90228870  0.09188499  0.69849316  1
  Sc  Sc70  1  0.09902577  0.10163001  0.68822960  1
  Sc  Sc71  1  0.89691623  0.49054375  0.50641593  1
  Sc  Sc72  1  0.89997403  0.71022827  0.50266538  1
  Sc  Sc73  1  0.10579312  0.90548735  0.50172294  1
  Sc  Sc74  1  0.89937775  0.09222386  0.89596279  1
  Sc  Sc75  1  0.70288909  0.30467285  0.29282867  1
  Sc  Sc76  1  0.29539925  0.11801627  0.90243693  1
  Sc  Sc77  1  0.70320896  0.70043507  0.50735954  1
  Sc  Sc78  1  0.50514473  0.50354636  0.31324526  1
  Sc  Sc79  1  0.70180412  0.10200917  0.50899923  1
  Sc  Sc80  1  0.30688294  0.10191071  0.10317162  1
  Sc  Sc81  1  0.69956609  0.08529740  0.10092588  1
  Sc  Sc82  1  0.10023142  0.50034855  0.30086326  1
  Sc  Sc83  1  0.90004839  0.30846439  0.69407749  1
  Sc  Sc84  1  0.69625651  0.50082121  0.30214559  1
  Sc  Sc85  1  0.70039246  0.10379103  0.69842875  1
  Sc  Sc86  1  0.30580057  0.50334362  0.09694672  1
  Sc  Sc87  1  0.90682241  0.49619909  0.29757361  1
  Sc  Sc88  1  0.29653780  0.29611508  0.50374003  1
  Sc  Sc89  1  0.50375397  0.08915408  0.50364575  1
  Sc  Sc90  1  0.90517193  0.49551060  0.10231956  1
  Sc  Sc91  1  0.90491445  0.89159449  0.50827281  1
  Sc  Sc92  1  0.50205228  0.69695868  0.89375745  1
  Sc  Sc93  1  0.10395324  0.48335165  0.49368453  1
  Sc  Sc94  1  0.31058029  0.28752491  0.31362532  1
  Sc  Sc95  1  0.49413475  0.89759458  0.89997792  1
  Sc  Sc96  1  0.49469425  0.50707200  0.09793815  1
  Sc  Sc97  1  0.50357772  0.70298026  0.70041773  1
  Sc  Sc98  1  0.30373787  0.89130318  0.10264420  1
  Sc  Sc99  1  0.70150433  0.69542814  0.70184396  1
  Nb  Nb100  1  0.10202560  0.69667499  0.10058541  1
  Nb  Nb101  1  0.09742340  0.90159184  0.29946685  1
  Nb  Nb102  1  0.69472366  0.29729204  0.70504200  1
  Nb  Nb103  1  0.69860778  0.29834555  0.89421555  1
  Nb  Nb104  1  0.70025940  0.70207747  0.10007980  1
  Nb  Nb105  1  0.29211155  0.29815797  0.69796291  1
  Nb  Nb106  1  0.28848106  0.09160404  0.49231595  1
  Nb  Nb107  1  0.29905030  0.49825475  0.89807532  1
  Nb  Nb108  1  0.10058264  0.69315054  0.70425890  1
  Nb  Nb109  1  0.29776509  0.70519885  0.50158157  1
  Nb  Nb110  1  0.10801175  0.29656594  0.68376570  1
  Nb  Nb111  1  0.10225882  0.49781590  0.09807005  1
  Nb  Nb112  1  0.69969837  0.89947878  0.09667190  1
  Nb  Nb113  1  0.71062389  0.29927332  0.50597490  1
  Nb  Nb114  1  0.69968180  0.90858563  0.91041487  1
  Nb  Nb115  1  0.29926080  0.89239524  0.49771552  1
  Nb  Nb116  1  0.50266219  0.69969578  0.29838021  1
  Nb  Nb117  1  0.10488222  0.30242542  0.31104875  1
  Nb  Nb118  1  0.50401688  0.30212037  0.10424279  1
  Nb  Nb119  1  0.90424466  0.30226175  0.49893244  1
  Nb  Nb120  1  0.50362412  0.49639702  0.50311717  1
  Nb  Nb121  1  0.10001566  0.10212216  0.89739779  1
  Nb  Nb122  1  0.69830352  0.30731648  0.09668080  1
  Nb  Nb123  1  0.09901448  0.70117193  0.29254495  1
  Nb  Nb124  1  0.08749974  0.29429445  0.49707810  1
  Nb  Nb125  1  0.60195425  0.39286936  0.59877357  1
  Nb  Nb126  1  0.60455030  0.20341712  0.40289007  1
  Nb  Nb127  1  0.19433269  0.00227694  0.19858392  1
  Nb  Nb128  1  0.20438462  0.39324163  0.20263404  1
  Nb  Nb129  1  0.79342428  0.80015244  0.00271660  1
  Nb  Nb130  1  0.00954768  0.60157747  0.00539297  1
  Nb  Nb131  1  0.39973667  0.39640055  0.20200129  1
  Nb  Nb132  1  0.00048850  0.60518118  0.40300945  1
  Nb  Nb133  1  -0.00394920  -0.00235620  0.39775387  1
  Nb  Nb134  1  0.19842244  0.60322675  0.59734114  1
  Nb  Nb135  1  0.19539782  0.00252453  -0.00095112  1
  Nb  Nb136  1  0.60051359  0.39430485  0.79572222  1
  Nb  Nb137  1  0.19786976  0.20480660  0.20230404  1
  Nb  Nb138  1  0.60243089  0.39640661  -0.00266616  1
  Nb  Nb139  1  0.60511559  0.20696185  0.00504681  1
  Nb  Nb140  1  0.60098538  -0.00234544  0.80327910  1
  Nb  Nb141  1  0.00812986  0.20228839  0.79734774  1
  Nb  Nb142  1  0.19698591  0.60055262  0.00069678  1
  Nb  Nb143  1  0.60639458  0.79933011  0.00475814  1
  Nb  Nb144  1  0.79196146  0.20532479  -0.00138000  1
  Nb  Nb145  1  0.39189622  0.59277307  0.79746584  1
  Nb  Nb146  1  0.19571070  0.00534813  0.80515811  1
  Nb  Nb147  1  0.80568736  0.00021470  0.40085609  1
  Nb  Nb148  1  0.00887135  0.60092620  0.59606425  1
  Nb  Nb149  1  0.80704049  0.60423295  0.39819981  1
  Pd  Pd150  1  -0.00193295  0.40712437  -0.00689009  1
  Pd  Pd151  1  0.40670362  0.19945109  0.00486943  1
  Pd  Pd152  1  0.18971261  0.60481297  0.41078132  1
  Pd  Pd153  1  0.80738587  0.20370900  0.60992839  1
  Pd  Pd154  1  0.00505756  0.80122991  0.19535559  1
  Pd  Pd155  1  0.60436132  0.79153550  0.40285342  1
  Pd  Pd156  1  0.59411968  0.60026177  0.00208526  1
  Pd  Pd157  1  0.19621222  0.59150613  0.19555043  1
  Pd  Pd158  1  0.19843237  0.80103826  0.60386915  1
  Pd  Pd159  1  0.39875873  0.19593562  0.80031333  1
  Pd  Pd160  1  -0.01470059  0.19799945  -0.01153984  1
  Pd  Pd161  1  0.60506318  0.80858000  0.80809504  1
  Pd  Pd162  1  0.19742290  0.81499370  0.80000026  1
  Pd  Pd163  1  0.39928268  0.00021739  0.40634856  1
  Pd  Pd164  1  0.59773722  0.20512302  0.59296458  1
  Pd  Pd165  1  0.39055605  -0.00462735  0.20376240  1
  Pd  Pd166  1  0.20054957  0.80331831  0.00343927  1
  Pd  Pd167  1  0.38967161  0.00305619  -0.00267545  1
  Pd  Pd168  1  0.39397691  0.19233820  0.59041257  1
  Pd  Pd169  1  0.60073202  0.79761654  0.60166663  1
  Pd  Pd170  1  0.80104506  0.40587697  0.20317381  1
  Pd  Pd171  1  0.80972318  0.59998980  0.79811918  1
  Pd  Pd172  1  0.79331490  0.19971426  0.18970383  1
  Pd  Pd173  1  0.38892432  0.00208419  0.59397121  1
  Pd  Pd174  1  0.00577220  0.20793720  0.20840627  1
  Pd  Pd175  1  0.21010212  0.39504665  0.39949225  1
  Pd  Pd176  1  0.80407222  -0.00218733  0.59449824  1
  Pd  Pd177  1  0.00751907  0.39565644  0.20716270  1
  Pd  Pd178  1  0.81152924  0.19690638  0.79566840  1
  Pd  Pd179  1  0.00969417  0.38708019  0.80027061  1
  Pd  Pd180  1  0.40820300  0.79236766  -0.00148273  1
  Pd  Pd181  1  0.59409143  0.41311371  0.19306765  1
  Pd  Pd182  1  0.19381768  0.79924380  0.39593793  1
  Pd  Pd183  1  0.60399237  0.59678169  0.59894595  1
  Pd  Pd184  1  0.80095326  0.40654932  0.39816005  1
  Pd  Pd185  1  0.60962023  0.39268019  0.40785420  1
  Pd  Pd186  1  0.79235206  0.80255997  0.40374067  1
  Pd  Pd187  1  0.79175235  0.80077101  0.80631224  1
  Pd  Pd188  1  0.81613148  0.60534524  -0.00388521  1
  Pd  Pd189  1  0.80233282  0.59177296  0.20795675  1
  Pd  Pd190  1  0.39903116  0.40233821  0.39292228  1
  Pd  Pd191  1  0.79501039  0.19757036  0.39929931  1
  Pd  Pd192  1  0.40106947  0.60449710  0.39735485  1
  Pd  Pd193  1  0.18897430  0.38822649  0.80027975  1
  Pd  Pd194  1  0.39339702  0.00813159  0.80702823  1
  Pd  Pd195  1  0.40115816  0.79341485  0.39820841  1
  Pd  Pd196  1  0.20662827  -0.00430166  0.60651427  1
  Pd  Pd197  1  0.39218986  0.60916638  -0.00798917  1
  Pd  Pd198  1  0.39255815  0.60725768  0.60611951  1
  Pd  Pd199  1  0.59638701  0.59202005  0.20020716  1
  Rh  Rh200  1  -0.00182642  0.00606964  0.00031633  1
  Rh  Rh201  1  -0.00555655  0.40197085  0.40076860  1
  Rh  Rh202  1  0.79405004  0.80295052  0.60196216  1
  Rh  Rh203  1  0.59193047  0.19560780  0.80480822  1
  Rh  Rh204  1  0.40253269  0.40044999  0.78818027  1
  Rh  Rh205  1  -0.00420480  -0.00174233  0.59079905  1
  Rh  Rh206  1  0.40428868  0.80495792  0.21082883  1
  Rh  Rh207  1  0.00243715  0.40117032  0.59584208  1
  Rh  Rh208  1  0.60736642  0.00830420  0.40094153  1
  Rh  Rh209  1  0.40262719  0.39091790  0.60111964  1
  Rh  Rh210  1  0.59082419  0.58946350  0.79289839  1
  Rh  Rh211  1  0.79522210  0.39509636  0.60249954  1
  Rh  Rh212  1  0.59282763  0.00071531  -0.00331671  1
  Rh  Rh213  1  0.60114581  -0.00584013  0.20348957  1
  Rh  Rh214  1  0.19468839  0.80750025  0.20084679  1
  Rh  Rh215  1  0.40009845  0.79553521  0.59679268  1
  Rh  Rh216  1  0.60145674  -0.00383124  0.61231590  1
  Rh  Rh217  1  0.20619351  0.41014790  0.00500767  1
  Rh  Rh218  1  0.20111605  0.19183157  0.00998726  1
  Rh  Rh219  1  0.59715774  0.80526776  0.19550760  1
  Rh  Rh220  1  0.81262891  0.60257285  0.59260894  1
  Rh  Rh221  1  -0.01324553  0.78915742  0.00545652  1
  Rh  Rh222  1  0.40167230  0.78935380  0.79925630  1
  Rh  Rh223  1  0.19341253  -0.00317051  0.39583644  1
  Rh  Rh224  1  0.00877569  0.00175269  0.20575361  1
  Rh  Rh225  1  0.79500109  -0.00497323  0.20568499  1
  Rh  Rh226  1  0.61133542  0.19833250  0.19842064  1
  Rh  Rh227  1  0.38821054  0.21070024  0.19482695  1
  Rh  Rh228  1  0.79578532  0.80506222  0.19251002  1
  Rh  Rh229  1  0.00818720  0.80315740  0.39648192  1
  Rh  Rh230  1  0.79041761  -0.00016431  0.79568230  1
  Rh  Rh231  1  0.00648093  0.59811643  0.20165318  1
  Rh  Rh232  1  0.60776730  0.60626596  0.40333025  1
  Rh  Rh233  1  0.40747273  0.59291871  0.21180534  1
  Rh  Rh234  1  -0.00588548  0.20671376  0.60810034  1
  Rh  Rh235  1  0.00741896  0.79612782  0.60618969  1
  Rh  Rh236  1  0.20207418  0.20137361  0.58809503  1
  Rh  Rh237  1  -0.00386237  0.60282682  0.79641655  1
  Rh  Rh238  1  0.80598314  0.00356717  0.00193442  1
  Rh  Rh239  1  -0.00031599  0.79754951  0.79357850  1
  Rh  Rh240  1  0.00828145  0.01145198  0.79377843  1
  Rh  Rh241  1  0.20850716  0.59861253  0.79944076  1
  Rh  Rh242  1  0.79872362  0.39901599  -0.00197554  1
  Rh  Rh243  1  0.19967481  0.39795891  0.59092510  1
  Rh  Rh244  1  0.40367195  0.40159407  0.00930669  1
  Rh  Rh245  1  -0.00176216  0.19938545  0.39547071  1
  Rh  Rh246  1  0.40750648  0.18616521  0.41092075  1
  Rh  Rh247  1  0.19988339  0.20115777  0.40213470  1
  Rh  Rh248  1  0.19211401  0.20292936  0.79473935  1
  Rh  Rh249  1  0.79422605  0.40149416  0.79291341  1
