# generated using pymatgen
data_ZrScNbPdRh
_symmetry_space_group_name_H-M   'P 1'
_cell_length_a   16.55246530
_cell_length_b   16.55278744
_cell_length_c   16.55370016
_cell_angle_alpha   89.98296757
_cell_angle_beta   90.00855398
_cell_angle_gamma   90.01987254
_symmetry_Int_Tables_number   1
_chemical_formula_structural   ZrScNbPdRh
_chemical_formula_sum   'Zr50 Sc50 Nb50 Pd50 Rh50'
_cell_volume   4535.53850947
_cell_formula_units_Z   50
loop_
 _symmetry_equiv_pos_site_id
 _symmetry_equiv_pos_as_xyz
  1  'x, y, z'
loop_
 _atom_site_type_symbol
 _atom_site_label
 _atom_site_symmetry_multiplicity
 _atom_site_fract_x
 _atom_site_fract_y
 _atom_site_fract_z
 _atom_site_occupancy
  Zr  Zr0  1  0.30105510  0.09902463  0.50299209  1
  Zr  Zr1  1  0.29921799  0.30480422  0.10482439  1
  Zr  Zr2  1  0.69611209  0.10876884  0.49880193  1
  Zr  Zr3  1  0.70098079  0.50721565  0.09463158  1
  Zr  Zr4  1  0.89567851  0.09902246  0.49851819  1
  Zr  Zr5  1  0.90249386  0.89890136  0.30576658  1
  Zr  Zr6  1  0.89067873  0.10144368  0.10244204  1
  Zr  Zr7  1  0.30499892  0.50348616  0.70274449  1
  Zr  Zr8  1  0.49924854  0.30106432  0.71450428  1
  Zr  Zr9  1  0.10574167  0.29566213  0.09940783  1
  Zr  Zr10  1  0.50786556  0.49945841  0.89592480  1
  Zr  Zr11  1  0.30540109  0.30236257  0.89496807  1
  Zr  Zr12  1  0.90502396  0.49896322  0.29639082  1
  Zr  Zr13  1  0.70454001  0.70338009  0.09921006  1
  Zr  Zr14  1  0.30061081  0.90089699  0.29359156  1
  Zr  Zr15  1  0.30073253  0.90820355  0.50319013  1
  Zr  Zr16  1  0.50251313  0.89033844  0.70121870  1
  Zr  Zr17  1  0.49484880  0.09499029  0.49160344  1
  Zr  Zr18  1  0.89968208  0.69519544  0.09936521  1
  Zr  Zr19  1  0.69400325  0.69019546  0.90556043  1
  Zr  Zr20  1  0.89752638  0.29734777  0.49900102  1
  Zr  Zr21  1  0.69701849  0.49773723  0.49693479  1
  Zr  Zr22  1  0.69796399  0.29624851  0.69951639  1
  Zr  Zr23  1  0.49828979  0.70236132  0.90514142  1
  Zr  Zr24  1  0.09782089  0.09467843  0.51264878  1
  Zr  Zr25  1  0.09375487  0.29492455  0.50760966  1
  Zr  Zr26  1  0.09934857  0.91125852  0.69640536  1
  Zr  Zr27  1  0.30286055  0.29286808  0.50106601  1
  Zr  Zr28  1  0.50986484  0.49738546  0.50077547  1
  Zr  Zr29  1  0.69796401  0.70279585  0.30508017  1
  Zr  Zr30  1  0.69683570  0.89461247  0.90176174  1
  Zr  Zr31  1  0.70359449  0.49368589  0.90593910  1
  Zr  Zr32  1  0.09586901  0.50646432  0.48951131  1
  Zr  Zr33  1  0.50299312  0.49742440  0.09689734  1
  Zr  Zr34  1  0.10446025  0.09801167  0.29383159  1
  Zr  Zr35  1  0.89721428  0.29586692  0.29816224  1
  Zr  Zr36  1  0.10146219  0.89481764  0.50635797  1
  Zr  Zr37  1  0.09527761  0.30280789  0.29372030  1
  Zr  Zr38  1  0.10228744  0.49342593  0.08347480  1
  Zr  Zr39  1  0.90293072  0.90306461  0.89610595  1
  Zr  Zr40  1  0.30545213  0.69915729  0.29316441  1
  Zr  Zr41  1  0.09846128  0.69080925  0.90330058  1
  Zr  Zr42  1  0.69207511  0.10217914  0.10356695  1
  Zr  Zr43  1  0.30022807  0.29425116  0.70073589  1
  Zr  Zr44  1  0.09438511  0.69282566  0.31104907  1
  Zr  Zr45  1  0.90275510  0.10095973  0.70415168  1
  Zr  Zr46  1  0.88978202  0.49914397  0.50903182  1
  Zr  Zr47  1  0.51163085  0.29389737  0.50238815  1
  Zr  Zr48  1  0.69906226  0.71193213  0.69306541  1
  Zr  Zr49  1  0.49963326  0.49872165  0.29808388  1
  Sc  Sc50  1  0.89723591  0.30021463  0.10693254  1
  Sc  Sc51  1  0.30367067  0.90436956  0.89866114  1
  Sc  Sc52  1  0.88922813  0.30408920  0.89051445  1
  Sc  Sc53  1  0.69976161  0.29179667  0.09142319  1
  Sc  Sc54  1  0.49012885  0.70678292  0.10460942  1
  Sc  Sc55  1  0.90619300  0.49733940  0.89894732  1
  Sc  Sc56  1  0.30245376  0.70790579  0.10052816  1
  Sc  Sc57  1  0.70052064  0.90271241  0.30009479  1
  Sc  Sc58  1  0.70648544  0.49476385  0.68714448  1
  Sc  Sc59  1  0.30013985  0.09609623  0.70388152  1
  Sc  Sc60  1  0.89841336  0.70689527  0.49958963  1
  Sc  Sc61  1  0.89263908  0.50446846  0.09901362  1
  Sc  Sc62  1  0.29896671  0.09131047  0.89780613  1
  Sc  Sc63  1  0.90606024  0.90581325  0.50088946  1
  Sc  Sc64  1  0.70201405  0.11088606  0.89807273  1
  Sc  Sc65  1  0.89932572  0.48969164  0.70316888  1
  Sc  Sc66  1  0.49785306  0.10552250  0.70336064  1
  Sc  Sc67  1  0.89546135  0.70904794  0.70132830  1
  Sc  Sc68  1  0.49281361  0.89953348  0.90307644  1
  Sc  Sc69  1  0.89248548  0.10133540  0.30421525  1
  Sc  Sc70  1  0.09737000  0.31338666  0.90920761  1
  Sc  Sc71  1  0.70378146  0.49974643  0.30695374  1
  Sc  Sc72  1  0.10079356  0.89479600  0.30019502  1
  Sc  Sc73  1  0.49809668  0.09841613  0.89679194  1
  Sc  Sc74  1  0.30764322  0.09838360  0.30722970  1
  Sc  Sc75  1  0.30711104  0.49931616  0.10628394  1
  Sc  Sc76  1  0.09737946  0.90484846  0.90481258  1
  Sc  Sc77  1  0.29681440  0.89887730  0.09359726  1
  Sc  Sc78  1  0.10901325  0.09621862  0.09252242  1
  Sc  Sc79  1  0.30051766  0.70757417  0.70535117  1
  Sc  Sc80  1  0.10265871  0.71154490  0.70448582  1
  Sc  Sc81  1  0.50982589  0.89892330  0.30219302  1
  Sc  Sc82  1  0.90122229  0.70320791  0.29244526  1
  Sc  Sc83  1  0.29397201  0.09396215  0.09369691  1
  Sc  Sc84  1  0.69981014  0.89362806  0.49563686  1
  Sc  Sc85  1  0.90967735  0.70147756  0.90244476  1
  Sc  Sc86  1  0.51725193  0.69520308  0.50533584  1
  Sc  Sc87  1  0.49291318  0.29020701  0.29524294  1
  Sc  Sc88  1  0.29679510  0.90208458  0.70658603  1
  Sc  Sc89  1  0.50121870  0.69228387  0.70545856  1
  Sc  Sc90  1  0.70395488  0.09642427  0.29865060  1
  Sc  Sc91  1  0.50533069  0.90171576  0.08994506  1
  Sc  Sc92  1  0.89858091  0.09801375  0.89052978  1
  Sc  Sc93  1  0.09444626  0.70627178  0.09834651  1
  Sc  Sc94  1  0.29974881  0.70781989  0.90156884  1
  Sc  Sc95  1  0.29725111  0.50583443  0.90440396  1
  Sc  Sc96  1  0.29763006  0.69532596  0.50367613  1
  Sc  Sc97  1  0.90462341  0.88592658  0.09676783  1
  Sc  Sc98  1  0.70982292  0.10187369  0.70002900  1
  Sc  Sc99  1  0.50723943  0.09993865  0.29823523  1
  Nb  Nb100  1  0.50128396  0.10630089  0.09984923  1
  Nb  Nb101  1  0.68867284  0.30058353  0.89439975  1
  Nb  Nb102  1  0.70050784  0.90074488  0.09297711  1
  Nb  Nb103  1  0.10083398  0.90601718  0.10473259  1
  Nb  Nb104  1  0.49444031  0.49605287  0.69805179  1
  Nb  Nb105  1  0.50659775  0.29930112  0.89938074  1
  Nb  Nb106  1  0.90495768  0.30399193  0.69818118  1
  Nb  Nb107  1  0.49946312  0.90338883  0.50012634  1
  Nb  Nb108  1  0.69615932  0.30623085  0.50009235  1
  Nb  Nb109  1  0.09562244  0.09861262  0.89550606  1
  Nb  Nb110  1  0.30042491  0.49988025  0.30302982  1
  Nb  Nb111  1  0.10149507  0.50330440  0.30221607  1
  Nb  Nb112  1  0.10149096  0.70289821  0.50507543  1
  Nb  Nb113  1  0.70265158  0.90068017  0.70209234  1
  Nb  Nb114  1  0.09899714  0.50189057  0.89276999  1
  Nb  Nb115  1  0.09486854  0.49757377  0.69926403  1
  Nb  Nb116  1  0.70532555  0.68893752  0.50452807  1
  Nb  Nb117  1  0.29962696  0.49943889  0.49949940  1
  Nb  Nb118  1  0.50192234  0.29435632  0.10210085  1
  Nb  Nb119  1  0.09262604  0.30163220  0.69559021  1
  Nb  Nb120  1  0.09630826  0.10695863  0.70409375  1
  Nb  Nb121  1  0.88587790  0.90908762  0.70723819  1
  Nb  Nb122  1  0.69935586  0.30021563  0.30257657  1
  Nb  Nb123  1  0.49737121  0.69897707  0.29879287  1
  Nb  Nb124  1  0.29823966  0.30491325  0.30060046  1
  Nb  Nb125  1  0.19240276  0.40182648  0.79324937  1
  Nb  Nb126  1  0.79527924  -0.00356302  0.00330547  1
  Nb  Nb127  1  0.39610792  0.40072244  0.40191365  1
  Nb  Nb128  1  0.60536733  -0.00532037  0.79397105  1
  Nb  Nb129  1  0.40985339  0.39307879  -0.00143995  1
  Nb  Nb130  1  0.40329248  0.79705827  0.40372493  1
  Nb  Nb131  1  0.20143728  0.39999582  0.39874594  1
  Nb  Nb132  1  0.79695262  0.60029199  0.79988196  1
  Nb  Nb133  1  0.20436860  0.79581108  0.40460239  1
  Nb  Nb134  1  0.00090974  -0.00246834  0.19559848  1
  Nb  Nb135  1  0.00493161  0.60158949  0.60161787  1
  Nb  Nb136  1  0.19849903  0.20523699  0.40017425  1
  Nb  Nb137  1  0.59837868  0.60078030  0.20229165  1
  Nb  Nb138  1  0.40587874  0.00171910  0.19323048  1
  Nb  Nb139  1  0.60061718  0.39728444  0.19758862  1
  Nb  Nb140  1  0.40509333  0.20414499  0.00265243  1
  Nb  Nb141  1  0.00043021  0.19722466  -0.00283856  1
  Nb  Nb142  1  0.18749480  0.20332457  0.79826815  1
  Nb  Nb143  1  0.19394679  0.59584596  0.60057654  1
  Nb  Nb144  1  0.19630433  0.59476348  0.20606606  1
  Nb  Nb145  1  0.19923126  0.40394889  0.59964537  1
  Nb  Nb146  1  0.40093580  0.40273472  0.59858872  1
  Nb  Nb147  1  0.60027031  -0.00497855  0.60276481  1
  Nb  Nb148  1  0.40128164  0.59888859  0.40056020  1
  Nb  Nb149  1  0.40505540  0.80260008  0.59255300  1
  Pd  Pd150  1  0.19595089  0.80507789  -0.00391911  1
  Pd  Pd151  1  0.80092991  0.80036497  0.40309983  1
  Pd  Pd152  1  0.00842969  0.59378199  0.19039710  1
  Pd  Pd153  1  -0.00848033  0.80181639  0.60749759  1
  Pd  Pd154  1  0.59873859  0.79883690  0.19406043  1
  Pd  Pd155  1  0.60418676  0.59714201  0.60952854  1
  Pd  Pd156  1  0.59571203  -0.00456187  0.19820473  1
  Pd  Pd157  1  0.79337124  -0.00372471  0.59260421  1
  Pd  Pd158  1  0.40593886  -0.00332238  0.61125754  1
  Pd  Pd159  1  0.00382354  0.80721537  0.79684942  1
  Pd  Pd160  1  0.00539675  0.00242807  0.39345651  1
  Pd  Pd161  1  0.80221591  0.39335094  0.00088372  1
  Pd  Pd162  1  0.19590739  -0.00084188  0.39975777  1
  Pd  Pd163  1  0.80681668  0.60403119  0.39603046  1
  Pd  Pd164  1  -0.00007655  0.18936516  0.19111490  1
  Pd  Pd165  1  0.00464577  0.19240629  0.39862047  1
  Pd  Pd166  1  0.59858310  0.79597504  0.40659481  1
  Pd  Pd167  1  -0.00684176  0.00683977  0.00680643  1
  Pd  Pd168  1  0.60796068  0.40953675  0.79225853  1
  Pd  Pd169  1  -0.00138089  0.39858890  0.40126753  1
  Pd  Pd170  1  0.79935977  0.79173968  0.81017179  1
  Pd  Pd171  1  0.20098155  0.19824920  -0.01297872  1
  Pd  Pd172  1  0.39887123  0.59709596  0.00124298  1
  Pd  Pd173  1  0.59722511  0.79997207  0.80617365  1
  Pd  Pd174  1  0.20630467  0.60261714  0.00966547  1
  Pd  Pd175  1  0.39766504  0.60406288  0.80760284  1
  Pd  Pd176  1  0.39872329  0.60397176  0.59535176  1
  Pd  Pd177  1  0.19674029  0.40926706  0.20196778  1
  Pd  Pd178  1  0.80454384  0.79918887  -0.00741328  1
  Pd  Pd179  1  0.80109956  0.39750575  0.39910105  1
  Pd  Pd180  1  0.00231456  0.21253799  0.80995657  1
  Pd  Pd181  1  0.79847071  0.80627199  0.20169111  1
  Pd  Pd182  1  0.21096396  0.19254697  0.20510483  1
  Pd  Pd183  1  -0.01243154  0.39326516  0.00259495  1
  Pd  Pd184  1  0.39090660  0.19024356  0.19568874  1
  Pd  Pd185  1  0.19984150  0.59991483  0.79453504  1
  Pd  Pd186  1  0.80620136  -0.01114456  0.19465567  1
  Pd  Pd187  1  0.80225628  0.20468016  0.60249162  1
  Pd  Pd188  1  0.60331659  0.00803004  -0.01024478  1
  Pd  Pd189  1  0.60222446  0.19996816  0.39092336  1
  Pd  Pd190  1  0.40798292  0.20114363  0.60359700  1
  Pd  Pd191  1  0.80585064  0.19929217  -0.00734949  1
  Pd  Pd192  1  0.19154495  0.79114090  0.20413303  1
  Pd  Pd193  1  0.78986647  0.39768068  0.19666824  1
  Pd  Pd194  1  -0.01547789  0.60485444  0.40758994  1
  Pd  Pd195  1  -0.00874029  0.60102411  0.79000046  1
  Pd  Pd196  1  0.19464170  0.80728636  0.80818304  1
  Pd  Pd197  1  0.61094765  0.59099189  0.78893349  1
  Pd  Pd198  1  0.80350210  0.80783338  0.59130120  1
  Pd  Pd199  1  0.00091419  0.40709716  0.19085753  1
  Rh  Rh200  1  0.39834666  0.40674728  0.80458279  1
  Rh  Rh201  1  0.79244581  0.60007193  0.20834913  1
  Rh  Rh202  1  0.39350256  0.19167153  0.80995961  1
  Rh  Rh203  1  0.60235250  0.19099580  0.79912668  1
  Rh  Rh204  1  0.79323271  0.20440680  0.39903672  1
  Rh  Rh205  1  0.20167165  0.00704235  0.60854870  1
  Rh  Rh206  1  0.20725383  0.60408163  0.39911613  1
  Rh  Rh207  1  0.39712427  0.20211641  0.39693298  1
  Rh  Rh208  1  0.21064338  0.40524039  -0.00764345  1
  Rh  Rh209  1  0.21207812  0.79593329  0.59620914  1
  Rh  Rh210  1  0.59445078  0.19800772  -0.00595255  1
  Rh  Rh211  1  0.59901258  0.60657184  0.39471237  1
  Rh  Rh212  1  0.79394683  0.40181339  0.79709042  1
  Rh  Rh213  1  0.40890740  0.81670075  0.20202559  1
  Rh  Rh214  1  0.79906096  0.38866457  0.59998322  1
  Rh  Rh215  1  0.79278253  0.20403258  0.20520158  1
  Rh  Rh216  1  -0.00011449  0.59633356  0.00106660  1
  Rh  Rh217  1  0.19330203  0.00564653  0.80047828  1
  Rh  Rh218  1  0.59027442  0.61205322  0.01374116  1
  Rh  Rh219  1  0.39660201  0.80402689  0.00006756  1
  Rh  Rh220  1  -0.01041950  0.19546208  0.60157974  1
  Rh  Rh221  1  -0.00167278  0.40656843  0.59633664  1
  Rh  Rh222  1  0.60499372  0.00269065  0.40667846  1
  Rh  Rh223  1  0.00106858  -0.00461334  0.79480611  1
  Rh  Rh224  1  0.79580898  -0.00070015  0.40436112  1
  Rh  Rh225  1  0.40747746  -0.00789621  0.38487552  1
  Rh  Rh226  1  0.81023711  0.60149067  -0.01300666  1
  Rh  Rh227  1  0.59436144  0.39628440  0.60744270  1
  Rh  Rh228  1  0.40044095  0.79843608  0.79561400  1
  Rh  Rh229  1  0.40951012  -0.00223836  0.79836759  1
  Rh  Rh230  1  0.19691160  0.19607954  0.60430100  1
  Rh  Rh231  1  0.39960466  0.59833859  0.20134099  1
  Rh  Rh232  1  0.40664430  0.39699358  0.20030991  1
  Rh  Rh233  1  0.19820894  -0.00482241  -0.00649146  1
  Rh  Rh234  1  -0.00806712  0.00112266  0.60816932  1
  Rh  Rh235  1  0.79937857  0.20761719  0.79597619  1
  Rh  Rh236  1  0.00344783  0.39586344  0.80148275  1
  Rh  Rh237  1  0.20252891  0.00062141  0.19899064  1
  Rh  Rh238  1  0.59403919  0.38902680  0.38845773  1
  Rh  Rh239  1  0.60745267  0.20572132  0.20425912  1
  Rh  Rh240  1  0.59828603  0.38847777  0.00578254  1
  Rh  Rh241  1  0.60023668  0.80323234  0.59434384  1
  Rh  Rh242  1  0.80678745  0.60611255  0.60821138  1
  Rh  Rh243  1  0.59876048  0.19347170  0.60537261  1
  Rh  Rh244  1  0.00297690  0.80514146  0.20166247  1
  Rh  Rh245  1  0.00516951  0.80009969  0.40235837  1
  Rh  Rh246  1  0.59645331  0.79499629  0.00375579  1
  Rh  Rh247  1  0.00692547  0.80037437  -0.00003333  1
  Rh  Rh248  1  0.79142435  0.00052966  0.81031716  1
  Rh  Rh249  1  0.40169163  0.00736457  0.00710055  1
