# generated using pymatgen
data_ZrScNbPdRh
_symmetry_space_group_name_H-M   'P 1'
_cell_length_a   16.56916512
_cell_length_b   16.56106063
_cell_length_c   16.55937909
_cell_angle_alpha   90.01331828
_cell_angle_beta   89.99864876
_cell_angle_gamma   90.00578625
_symmetry_Int_Tables_number   1
_chemical_formula_structural   ZrScNbPdRh
_chemical_formula_sum   'Zr50 Sc50 Nb50 Pd50 Rh50'
_cell_volume   4543.94229507
_cell_formula_units_Z   50
loop_
 _symmetry_equiv_pos_site_id
 _symmetry_equiv_pos_as_xyz
  1  'x, y, z'
loop_
 _atom_site_type_symbol
 _atom_site_label
 _atom_site_symmetry_multiplicity
 _atom_site_fract_x
 _atom_site_fract_y
 _atom_site_fract_z
 _atom_site_occupancy
  Zr  Zr0  1  0.50742987  0.89993318  0.10884222  1
  Zr  Zr1  1  0.30043556  0.10125340  0.69922364  1
  Zr  Zr2  1  0.10403913  0.29601844  0.89887887  1
  Zr  Zr3  1  0.90261947  0.89589836  0.90480213  1
  Zr  Zr4  1  0.90013491  0.70207756  0.49812924  1
  Zr  Zr5  1  0.49625064  0.70356536  0.69886385  1
  Zr  Zr6  1  0.30365340  0.69397690  0.29727265  1
  Zr  Zr7  1  0.71235468  0.09545578  0.89515649  1
  Zr  Zr8  1  0.09671786  0.50193105  0.29926322  1
  Zr  Zr9  1  0.90162397  0.89606395  0.69632580  1
  Zr  Zr10  1  0.10044014  0.30250317  0.30779966  1
  Zr  Zr11  1  0.29513642  0.70129464  0.89940445  1
  Zr  Zr12  1  0.89065523  0.49825959  0.09088629  1
  Zr  Zr13  1  0.70463947  0.30425739  0.70057492  1
  Zr  Zr14  1  0.09950411  0.69726294  0.29804964  1
  Zr  Zr15  1  0.50658304  0.50154886  0.10048354  1
  Zr  Zr16  1  0.50871861  0.49711584  0.49386444  1
  Zr  Zr17  1  0.29424364  0.10578526  0.10834025  1
  Zr  Zr18  1  0.09901284  0.90302689  0.69839763  1
  Zr  Zr19  1  0.50341451  0.89377484  0.49424776  1
  Zr  Zr20  1  0.89781002  0.70370215  0.09007202  1
  Zr  Zr21  1  0.30164412  0.89229523  0.29874657  1
  Zr  Zr22  1  0.09922161  0.09886058  0.90495800  1
  Zr  Zr23  1  0.70159056  0.10763103  0.09258985  1
  Zr  Zr24  1  0.68948987  0.30696659  0.49951904  1
  Zr  Zr25  1  0.50618495  0.29729993  0.09975822  1
  Zr  Zr26  1  0.88546167  0.29882007  0.10284185  1
  Zr  Zr27  1  0.49600186  0.29710366  0.50142527  1
  Zr  Zr28  1  0.68335173  0.90276241  0.29846966  1
  Zr  Zr29  1  0.69573836  0.69480852  0.49978163  1
  Zr  Zr30  1  0.29506420  0.09431623  0.88916119  1
  Zr  Zr31  1  0.89977879  0.10303017  0.29699212  1
  Zr  Zr32  1  0.70766632  0.30237180  0.30005501  1
  Zr  Zr33  1  0.91365130  0.90238469  0.29708253  1
  Zr  Zr34  1  0.29643765  0.29623729  0.90086503  1
  Zr  Zr35  1  0.29823279  0.10262570  0.29700856  1
  Zr  Zr36  1  0.30398054  0.90872407  0.70383998  1
  Zr  Zr37  1  0.10180313  0.70388587  0.90181694  1
  Zr  Zr38  1  0.70354664  0.69656533  0.29358002  1
  Zr  Zr39  1  0.89343516  0.70452822  0.70609892  1
  Zr  Zr40  1  0.09878884  0.69271449  0.49673478  1
  Zr  Zr41  1  0.69481066  0.10222042  0.50318253  1
  Zr  Zr42  1  0.69369785  0.90552720  0.50202744  1
  Zr  Zr43  1  0.70535904  0.90874931  0.70689327  1
  Zr  Zr44  1  0.49340752  0.50877692  0.29452351  1
  Zr  Zr45  1  0.09872167  0.09643542  0.09760900  1
  Zr  Zr46  1  0.50028033  0.71398714  0.30154282  1
  Zr  Zr47  1  0.49997809  0.10299332  0.10268700  1
  Zr  Zr48  1  0.10212644  0.08779710  0.50018881  1
  Zr  Zr49  1  0.30498356  0.50259877  0.11627047  1
  Sc  Sc50  1  0.10400817  0.70065758  0.70357997  1
  Sc  Sc51  1  0.89144924  0.30730348  0.70044530  1
  Sc  Sc52  1  0.29697059  0.69090971  0.69773914  1
  Sc  Sc53  1  0.49736184  0.50029657  0.70821735  1
  Sc  Sc54  1  0.89651472  0.50178234  0.30316700  1
  Sc  Sc55  1  0.09394858  0.89884105  0.10096442  1
  Sc  Sc56  1  0.69724021  0.50307881  0.30284949  1
  Sc  Sc57  1  0.50013730  0.70345887  0.50284962  1
  Sc  Sc58  1  0.30335049  0.49923438  0.88940534  1
  Sc  Sc59  1  0.50144918  0.90495572  0.69288937  1
  Sc  Sc60  1  0.29632965  0.70324841  0.10478064  1
  Sc  Sc61  1  0.30654485  0.70246303  0.50657205  1
  Sc  Sc62  1  0.49538594  0.10144477  0.69304860  1
  Sc  Sc63  1  0.69875781  0.69949510  0.09520982  1
  Sc  Sc64  1  0.70052646  0.69997367  0.70367760  1
  Sc  Sc65  1  0.69818215  0.10320269  0.30123195  1
  Sc  Sc66  1  0.09608115  0.48207925  0.50496613  1
  Sc  Sc67  1  0.28497096  0.89982337  0.10160573  1
  Sc  Sc68  1  0.09931253  0.89942868  0.49838817  1
  Sc  Sc69  1  0.70007984  0.30637318  0.09472246  1
  Sc  Sc70  1  0.90834089  0.69121553  0.29970948  1
  Sc  Sc71  1  0.50468648  0.09597882  0.29046752  1
  Sc  Sc72  1  0.10430748  0.08956068  0.29931353  1
  Sc  Sc73  1  0.11283970  0.29420791  0.09138944  1
  Sc  Sc74  1  0.89706723  0.08815767  0.70737301  1
  Sc  Sc75  1  0.09738384  0.70560897  0.10352067  1
  Sc  Sc76  1  0.10795932  0.49984238  0.69866619  1
  Sc  Sc77  1  0.50123984  0.10523609  0.50345762  1
  Sc  Sc78  1  0.69752374  0.89445458  0.08762123  1
  Sc  Sc79  1  0.29995074  0.29819444  0.70913524  1
  Sc  Sc80  1  0.50611910  0.10083741  0.89934023  1
  Sc  Sc81  1  0.50506756  0.30139184  0.30015576  1
  Sc  Sc82  1  0.50429909  0.30661577  0.89632111  1
  Sc  Sc83  1  0.50685225  0.69696094  0.09736279  1
  Sc  Sc84  1  0.10509252  0.89877156  0.29945086  1
  Sc  Sc85  1  0.49894326  0.50170264  0.89851983  1
  Sc  Sc86  1  0.89109245  0.30393239  0.30276042  1
  Sc  Sc87  1  0.10100818  0.09358777  0.70384757  1
  Sc  Sc88  1  0.30289434  0.10117298  0.49595643  1
  Sc  Sc89  1  0.88481718  0.30441873  0.90686262  1
  Sc  Sc90  1  0.49618038  0.29660755  0.69768196  1
  Sc  Sc91  1  0.70342841  0.71143320  0.90014128  1
  Sc  Sc92  1  0.50705960  0.69438771  0.90075822  1
  Sc  Sc93  1  0.51120278  0.90536275  0.89576539  1
  Sc  Sc94  1  0.09883561  0.30966199  0.69638675  1
  Sc  Sc95  1  0.10314303  0.49744457  0.90476411  1
  Sc  Sc96  1  0.69905748  0.49382681  0.89381246  1
  Sc  Sc97  1  0.90030836  0.31414569  0.49703398  1
  Sc  Sc98  1  0.29622344  0.89859229  0.50457041  1
  Sc  Sc99  1  0.10084807  0.49919443  0.09997456  1
  Nb  Nb100  1  0.09584980  0.29818488  0.50331402  1
  Nb  Nb101  1  0.29673706  0.29839555  0.29557647  1
  Nb  Nb102  1  0.70063556  0.29214690  0.89848647  1
  Nb  Nb103  1  0.90466810  0.09415164  0.09485139  1
  Nb  Nb104  1  0.90437804  0.09477618  0.49900645  1
  Nb  Nb105  1  0.30021250  0.49711087  0.69325172  1
  Nb  Nb106  1  0.70175808  0.50588687  0.10835787  1
  Nb  Nb107  1  0.70477687  0.10217192  0.69965136  1
  Nb  Nb108  1  0.69994202  0.49934356  0.50956454  1
  Nb  Nb109  1  0.29771669  0.49974587  0.29983553  1
  Nb  Nb110  1  0.11330522  0.89993412  0.90582213  1
  Nb  Nb111  1  0.90501387  0.90025287  0.10263618  1
  Nb  Nb112  1  0.30297861  0.29543130  0.10501530  1
  Nb  Nb113  1  0.90155760  0.50248675  0.50654847  1
  Nb  Nb114  1  0.90022126  0.50220167  0.90158456  1
  Nb  Nb115  1  0.29818904  0.90103195  0.90269501  1
  Nb  Nb116  1  0.90250212  0.10222591  0.90710001  1
  Nb  Nb117  1  0.89010629  0.49837087  0.70247868  1
  Nb  Nb118  1  0.50184106  0.90020216  0.30155894  1
  Nb  Nb119  1  0.90037198  0.90297695  0.50001087  1
  Nb  Nb120  1  0.90087915  0.69852290  0.90215526  1
  Nb  Nb121  1  0.29465249  0.29884481  0.49427392  1
  Nb  Nb122  1  0.71139147  0.49536830  0.69115511  1
  Nb  Nb123  1  0.70117993  0.90041144  0.89769598  1
  Nb  Nb124  1  0.29888245  0.49713750  0.50286041  1
  Nb  Nb125  1  0.39718279  0.80387588  0.80524899  1
  Nb  Nb126  1  -0.00832611  0.59506353  0.60687566  1
  Nb  Nb127  1  0.39724144  0.19973028  0.00188496  1
  Nb  Nb128  1  0.39151148  0.40111670  0.59371087  1
  Nb  Nb129  1  -0.00140249  0.20227213  0.19997980  1
  Nb  Nb130  1  0.39917820  0.80839510  -0.00553502  1
  Nb  Nb131  1  0.38773812  0.40041104  0.39791972  1
  Nb  Nb132  1  0.20409178  0.60151395  0.00137796  1
  Nb  Nb133  1  0.39577932  -0.00048535  0.00074416  1
  Nb  Nb134  1  -0.00337449  0.39334027  0.19577169  1
  Nb  Nb135  1  0.80066025  0.80758129  0.39745112  1
  Nb  Nb136  1  -0.00373908  0.19822865  0.59880035  1
  Nb  Nb137  1  0.19401922  0.20460021  0.59402266  1
  Nb  Nb138  1  -0.00665059  0.20394522  0.80184270  1
  Nb  Nb139  1  0.80326470  -0.00430400  0.19610087  1
  Nb  Nb140  1  -0.00860941  0.40535491  0.80410904  1
  Nb  Nb141  1  0.61182510  0.19983214  0.79703875  1
  Nb  Nb142  1  -0.00877976  0.59659712  0.80244845  1
  Nb  Nb143  1  0.39718019  0.39467195  0.00883779  1
  Nb  Nb144  1  0.80437973  -0.00357385  0.39945889  1
  Nb  Nb145  1  0.00071170  0.19883022  0.40535705  1
  Nb  Nb146  1  0.80490220  0.80695048  0.20154841  1
  Nb  Nb147  1  0.20581133  0.59061367  0.40141018  1
  Nb  Nb148  1  0.80323861  0.19668420  0.59743256  1
  Nb  Nb149  1  0.40510322  -0.00595799  0.39250515  1
  Pd  Pd150  1  0.59679774  0.00958087  0.79202525  1
  Pd  Pd151  1  0.60656233  0.40242902  0.20486027  1
  Pd  Pd152  1  0.40511416  0.19832807  0.39127668  1
  Pd  Pd153  1  0.60084793  0.40426388  -0.00201965  1
  Pd  Pd154  1  0.58998821  0.40486138  0.61017061  1
  Pd  Pd155  1  0.79144746  0.80032782  0.59503795  1
  Pd  Pd156  1  0.79568243  0.60018678  0.80775126  1
  Pd  Pd157  1  0.59670635  0.59487802  0.61031505  1
  Pd  Pd158  1  0.40325135  0.39181889  0.20383968  1
  Pd  Pd159  1  -0.00038262  0.80254701  0.40067305  1
  Pd  Pd160  1  0.20048009  0.80008607  0.60390298  1
  Pd  Pd161  1  0.59779656  0.00156427  0.00095481  1
  Pd  Pd162  1  0.60881008  0.59743324  0.79555368  1
  Pd  Pd163  1  0.21224088  0.41120296  0.00522582  1
  Pd  Pd164  1  0.60123582  0.39746171  0.79435786  1
  Pd  Pd165  1  0.19292482  0.39473235  0.19705778  1
  Pd  Pd166  1  0.40043435  0.79945554  0.18926246  1
  Pd  Pd167  1  0.39518529  -0.00522034  0.19863450  1
  Pd  Pd168  1  0.60968044  0.59692143  -0.00612172  1
  Pd  Pd169  1  0.78824898  0.59868401  -0.00678823  1
  Pd  Pd170  1  0.80563656  0.19697040  0.41074967  1
  Pd  Pd171  1  0.39810725  0.60538489  0.79921461  1
  Pd  Pd172  1  0.80227588  0.60338960  0.59974080  1
  Pd  Pd173  1  0.60679017  0.80177141  0.60695424  1
  Pd  Pd174  1  0.40115803  0.00059155  0.58620704  1
  Pd  Pd175  1  -0.00708051  0.59246981  0.18857273  1
  Pd  Pd176  1  0.39413992  0.59876876  0.00417746  1
  Pd  Pd177  1  0.39637621  0.59859511  0.40752021  1
  Pd  Pd178  1  0.59537002  0.80148201  0.79843240  1
  Pd  Pd179  1  -0.00168177  0.39146921  0.00093820  1
  Pd  Pd180  1  0.19637988  0.40275005  0.79857396  1
  Pd  Pd181  1  0.80235800  0.00463728  0.59634409  1
  Pd  Pd182  1  0.59846355  0.60349537  0.39574318  1
  Pd  Pd183  1  0.60914746  0.20312299  0.20302569  1
  Pd  Pd184  1  0.80206814  -0.00615567  0.00270074  1
  Pd  Pd185  1  0.40679369  0.59288252  0.59790215  1
  Pd  Pd186  1  -0.00757818  0.21080563  0.00112113  1
  Pd  Pd187  1  0.41209813  0.19950140  0.80597692  1
  Pd  Pd188  1  0.19295106  0.19423908  0.40226596  1
  Pd  Pd189  1  0.20074126  0.40404267  0.40104245  1
  Pd  Pd190  1  0.00918684  0.60067137  -0.00098027  1
  Pd  Pd191  1  0.20650083  0.80382473  0.79189204  1
  Pd  Pd192  1  0.20314061  0.79146000  0.40240581  1
  Pd  Pd193  1  0.79953488  0.59956404  0.40272162  1
  Pd  Pd194  1  -0.00038261  0.00055719  0.80798231  1
  Pd  Pd195  1  0.00267724  0.79795512  0.80469390  1
  Pd  Pd196  1  0.00535261  0.79406543  0.59839838  1
  Pd  Pd197  1  0.59518476  0.19763727  0.39374400  1
  Pd  Pd198  1  0.19216856  0.59556705  0.59298564  1
  Pd  Pd199  1  0.79595308  0.41246771  0.40559976  1
  Rh  Rh200  1  0.79937743  0.41094610  0.20095034  1
  Rh  Rh201  1  0.39770226  0.39975987  0.79771246  1
  Rh  Rh202  1  0.78714967  0.40681484  -0.00264242  1
  Rh  Rh203  1  -0.00008747  -0.00019389  0.40118741  1
  Rh  Rh204  1  -0.00573843  0.39923388  0.39350727  1
  Rh  Rh205  1  0.00752019  0.58674725  0.41269604  1
  Rh  Rh206  1  0.19630028  -0.00452234  0.20020662  1
  Rh  Rh207  1  0.19385586  0.79906160  0.20240581  1
  Rh  Rh208  1  0.39621503  0.80498398  0.40469531  1
  Rh  Rh209  1  0.59624074  0.00392085  0.60342068  1
  Rh  Rh210  1  0.19743824  0.60246671  0.20053116  1
  Rh  Rh211  1  0.80157666  0.80463648  0.00130248  1
  Rh  Rh212  1  0.80356858  0.19730325  0.79494701  1
  Rh  Rh213  1  0.80367410  0.60489241  0.19512111  1
  Rh  Rh214  1  0.40683926  0.61052453  0.19565807  1
  Rh  Rh215  1  0.39692974  0.80120120  0.60935330  1
  Rh  Rh216  1  0.60635235  0.79286161  0.40082864  1
  Rh  Rh217  1  0.59386210  0.80069970  -0.00573969  1
  Rh  Rh218  1  0.00137196  0.00744874  0.19731365  1
  Rh  Rh219  1  0.80049704  0.40372304  0.80823287  1
  Rh  Rh220  1  0.59275863  0.00908688  0.40321562  1
  Rh  Rh221  1  0.80007198  0.80560342  0.80514768  1
  Rh  Rh222  1  -0.00064338  -0.00104390  0.60288800  1
  Rh  Rh223  1  0.80023083  0.39600825  0.59131361  1
  Rh  Rh224  1  0.19031191  0.20435320  0.20507861  1
  Rh  Rh225  1  0.20082542  0.79476372  0.00515709  1
  Rh  Rh226  1  0.80120578  0.19101808  0.19386700  1
  Rh  Rh227  1  0.20931700  0.39022100  0.60354495  1
  Rh  Rh228  1  0.38540111  0.20744394  0.60047676  1
  Rh  Rh229  1  0.00466689  -0.00883811  -0.00554957  1
  Rh  Rh230  1  0.18458587  0.20112883  0.78783114  1
  Rh  Rh231  1  0.61092133  0.00454189  0.19047477  1
  Rh  Rh232  1  0.20305481  0.00401314  0.60117639  1
  Rh  Rh233  1  0.59823279  0.40299520  0.39354375  1
  Rh  Rh234  1  0.59805663  0.20105539  -0.01235494  1
  Rh  Rh235  1  0.60885665  0.20039472  0.60933829  1
  Rh  Rh236  1  0.20174744  0.00302304  0.00371878  1
  Rh  Rh237  1  0.60638910  0.79446848  0.19602020  1
  Rh  Rh238  1  0.80146152  0.19766302  -0.00019914  1
  Rh  Rh239  1  0.40323088  0.20547898  0.20253681  1
  Rh  Rh240  1  0.21368681  -0.00605893  0.39741317  1
  Rh  Rh241  1  -0.00387263  0.79401046  0.20041492  1
  Rh  Rh242  1  0.00380292  0.80402480  -0.00259984  1
  Rh  Rh243  1  0.20973998  0.19123177  -0.00220493  1
  Rh  Rh244  1  -0.00856706  0.40282319  0.61175345  1
  Rh  Rh245  1  0.80890653  -0.00625705  0.80613550  1
  Rh  Rh246  1  0.40707704  -0.00494995  0.80697844  1
  Rh  Rh247  1  0.19353091  -0.00372928  0.79881859  1
  Rh  Rh248  1  0.19425497  0.59266895  0.80555503  1
  Rh  Rh249  1  0.59831612  0.60393893  0.20081596  1
