# generated using pymatgen
data_ZrScNbPdRh
_symmetry_space_group_name_H-M   'P 1'
_cell_length_a   16.55321848
_cell_length_b   16.55352347
_cell_length_c   16.55403063
_cell_angle_alpha   89.95756579
_cell_angle_beta   89.99374437
_cell_angle_gamma   90.01120399
_symmetry_Int_Tables_number   1
_chemical_formula_structural   ZrScNbPdRh
_chemical_formula_sum   'Zr50 Sc50 Nb50 Pd50 Rh50'
_cell_volume   4536.03628875
_cell_formula_units_Z   50
loop_
 _symmetry_equiv_pos_site_id
 _symmetry_equiv_pos_as_xyz
  1  'x, y, z'
loop_
 _atom_site_type_symbol
 _atom_site_label
 _atom_site_symmetry_multiplicity
 _atom_site_fract_x
 _atom_site_fract_y
 _atom_site_fract_z
 _atom_site_occupancy
  Zr  Zr0  1  0.90026394  0.68714779  0.70355363  1
  Zr  Zr1  1  0.49908790  0.69391325  0.89597919  1
  Zr  Zr2  1  0.49730040  0.29469899  0.29541335  1
  Zr  Zr3  1  0.30065981  0.09247045  0.71321625  1
  Zr  Zr4  1  0.69638548  0.50327505  0.50124787  1
  Zr  Zr5  1  0.49307109  0.09890062  0.30097487  1
  Zr  Zr6  1  0.90219820  0.09278216  0.70846662  1
  Zr  Zr7  1  0.71073863  0.50269927  0.69951131  1
  Zr  Zr8  1  0.49570051  0.90263578  0.30269548  1
  Zr  Zr9  1  0.89879448  0.10079560  0.90027246  1
  Zr  Zr10  1  0.49313544  0.89896941  0.09841228  1
  Zr  Zr11  1  0.11083946  0.89913810  0.50085770  1
  Zr  Zr12  1  0.90221789  0.30288364  0.49637990  1
  Zr  Zr13  1  0.49319134  0.50378644  0.09167769  1
  Zr  Zr14  1  0.50579913  0.49696985  0.90424784  1
  Zr  Zr15  1  0.30264497  0.11046311  0.30069811  1
  Zr  Zr16  1  0.28722836  0.89547825  0.69936888  1
  Zr  Zr17  1  0.09281500  0.68781100  0.28868314  1
  Zr  Zr18  1  0.10599436  0.10472514  0.49537275  1
  Zr  Zr19  1  0.89703651  0.50349189  0.51441034  1
  Zr  Zr20  1  0.49227449  0.30633888  0.09027214  1
  Zr  Zr21  1  0.29279998  0.30422027  0.29942046  1
  Zr  Zr22  1  0.69773110  0.10052439  0.50409100  1
  Zr  Zr23  1  0.90410330  0.89910706  0.49895774  1
  Zr  Zr24  1  0.10451535  0.30283957  0.90419986  1
  Zr  Zr25  1  0.49067486  0.69772385  0.09568764  1
  Zr  Zr26  1  0.70480308  0.29835513  0.50244665  1
  Zr  Zr27  1  0.90573208  0.89765090  0.89670905  1
  Zr  Zr28  1  0.70032390  0.30170674  0.29954018  1
  Zr  Zr29  1  0.29996507  0.70449594  0.50012273  1
  Zr  Zr30  1  0.50003288  0.50232874  0.49927894  1
  Zr  Zr31  1  0.29994350  0.88738995  0.50047955  1
  Zr  Zr32  1  0.69440696  0.50101184  0.29566139  1
  Zr  Zr33  1  0.69713337  0.50250785  0.09669247  1
  Zr  Zr34  1  0.69544031  0.69864993  0.70126117  1
  Zr  Zr35  1  0.89741684  0.70449093  0.29590905  1
  Zr  Zr36  1  0.10589194  0.49854805  0.89893604  1
  Zr  Zr37  1  0.48404402  0.09658972  0.89510670  1
  Zr  Zr38  1  0.70596944  0.09700796  0.89638559  1
  Zr  Zr39  1  0.29470051  0.49964132  0.70614366  1
  Zr  Zr40  1  0.90148418  0.70158419  0.89949036  1
  Zr  Zr41  1  0.30273569  0.49991885  0.09943929  1
  Zr  Zr42  1  0.10444498  0.89978543  0.29437333  1
  Zr  Zr43  1  0.89562674  0.30166642  0.29111176  1
  Zr  Zr44  1  0.10263759  0.10545143  0.90423447  1
  Zr  Zr45  1  0.10463093  0.10085675  0.28976890  1
  Zr  Zr46  1  0.90103537  0.89870563  0.29514865  1
  Zr  Zr47  1  0.49717892  0.70068746  0.50658570  1
  Zr  Zr48  1  0.50198611  0.89433035  0.90127263  1
  Zr  Zr49  1  0.70137312  0.09581881  0.70299763  1
  Sc  Sc50  1  0.69894566  0.69883540  0.89650097  1
  Sc  Sc51  1  0.50566213  0.50207213  0.28916438  1
  Sc  Sc52  1  0.30192361  0.49212221  0.51012745  1
  Sc  Sc53  1  0.30345549  0.89799006  0.89605237  1
  Sc  Sc54  1  0.29962263  0.70144194  0.89253889  1
  Sc  Sc55  1  0.30117234  0.10346961  0.10414461  1
  Sc  Sc56  1  0.90968817  0.50858378  0.30115085  1
  Sc  Sc57  1  0.29536663  0.29697312  0.50024089  1
  Sc  Sc58  1  0.09731671  0.69955186  0.49361170  1
  Sc  Sc59  1  0.90225302  0.10347028  0.28512150  1
  Sc  Sc60  1  0.70038699  0.29298662  0.70650924  1
  Sc  Sc61  1  0.69575300  0.10643218  0.29750586  1
  Sc  Sc62  1  0.49612568  0.50916172  0.70211296  1
  Sc  Sc63  1  0.49893525  0.09761817  0.70020816  1
  Sc  Sc64  1  0.70496839  0.10022398  0.10212751  1
  Sc  Sc65  1  0.29990048  0.70742431  0.29646098  1
  Sc  Sc66  1  0.89943202  0.30044142  0.68720982  1
  Sc  Sc67  1  0.71082304  0.69554034  0.09536432  1
  Sc  Sc68  1  0.29813381  0.89754822  0.30301437  1
  Sc  Sc69  1  0.29918716  0.30511418  0.09979381  1
  Sc  Sc70  1  0.49757853  0.09778678  0.49988634  1
  Sc  Sc71  1  0.69771918  0.50720821  0.90251399  1
  Sc  Sc72  1  0.30246915  0.50060260  0.90138557  1
  Sc  Sc73  1  0.30147605  0.70347517  0.10362576  1
  Sc  Sc74  1  0.89036851  0.49700996  0.09283669  1
  Sc  Sc75  1  0.29486898  0.30367247  0.69290685  1
  Sc  Sc76  1  0.10124240  0.29611778  0.08682544  1
  Sc  Sc77  1  0.10076538  0.88706903  0.89394671  1
  Sc  Sc78  1  0.10687342  0.30487111  0.50331982  1
  Sc  Sc79  1  0.30629003  0.69807945  0.70237129  1
  Sc  Sc80  1  0.49522223  0.29230790  0.50528398  1
  Sc  Sc81  1  0.49960041  0.90277849  0.70150135  1
  Sc  Sc82  1  0.71034689  0.30525520  0.10730073  1
  Sc  Sc83  1  0.90186546  0.10632121  0.51207008  1
  Sc  Sc84  1  0.90168404  0.10918753  0.09870191  1
  Sc  Sc85  1  0.29398183  0.49370370  0.28475727  1
  Sc  Sc86  1  0.09949431  0.69355654  0.71592663  1
  Sc  Sc87  1  0.49591547  0.90219374  0.50266652  1
  Sc  Sc88  1  0.30227267  0.10608509  0.50354017  1
  Sc  Sc89  1  0.69038824  0.90255628  0.70279680  1
  Sc  Sc90  1  0.90670680  0.69641834  0.49371724  1
  Sc  Sc91  1  0.69727881  0.29876223  0.89003713  1
  Sc  Sc92  1  0.29547347  0.29329803  0.90703455  1
  Sc  Sc93  1  0.90522279  0.30032781  0.91728058  1
  Sc  Sc94  1  0.49181767  0.09956423  0.11032877  1
  Sc  Sc95  1  0.70614492  0.90254283  0.29469122  1
  Sc  Sc96  1  0.69532799  0.90363307  0.50400823  1
  Sc  Sc97  1  0.69963252  0.89327952  0.89883811  1
  Sc  Sc98  1  0.08989189  0.49586582  0.49446183  1
  Sc  Sc99  1  0.10307990  0.09204408  0.70350889  1
  Nb  Nb100  1  0.90436382  0.50415845  0.70189507  1
  Nb  Nb101  1  0.29738267  0.89428184  0.10128503  1
  Nb  Nb102  1  0.10409077  0.31060897  0.30579505  1
  Nb  Nb103  1  0.10375163  0.31077353  0.70562039  1
  Nb  Nb104  1  0.69686010  0.69831072  0.30026922  1
  Nb  Nb105  1  0.10599567  0.49802761  0.29431329  1
  Nb  Nb106  1  0.09935885  0.70234053  0.09805022  1
  Nb  Nb107  1  0.09706283  0.09121663  0.09953102  1
  Nb  Nb108  1  0.50739373  0.30386593  0.71165169  1
  Nb  Nb109  1  0.90765092  0.70030774  0.09932771  1
  Nb  Nb110  1  0.69715845  0.69953022  0.50017675  1
  Nb  Nb111  1  0.50064041  0.69662664  0.30065614  1
  Nb  Nb112  1  0.91123832  0.89902254  0.70167836  1
  Nb  Nb113  1  0.10314271  0.89754182  0.09886393  1
  Nb  Nb114  1  0.29283223  0.09303279  0.89910328  1
  Nb  Nb115  1  0.10417051  0.50727785  0.10730187  1
  Nb  Nb116  1  0.90426829  0.30624938  0.10279437  1
  Nb  Nb117  1  0.89910081  0.89640956  0.09856407  1
  Nb  Nb118  1  0.69625694  0.90170252  0.09773055  1
  Nb  Nb119  1  0.09355825  0.90065376  0.70332246  1
  Nb  Nb120  1  0.10118814  0.50049255  0.70257521  1
  Nb  Nb121  1  0.90391290  0.50202793  0.89987917  1
  Nb  Nb122  1  0.49704967  0.69953560  0.70132395  1
  Nb  Nb123  1  0.09765808  0.69916526  0.90601444  1
  Nb  Nb124  1  0.50265494  0.30065467  0.89521402  1
  Nb  Nb125  1  0.80712672  0.00336494  0.40107904  1
  Nb  Nb126  1  0.79073499  0.60308922  0.39913537  1
  Nb  Nb127  1  0.79834165  0.40821008  0.39995432  1
  Nb  Nb128  1  0.19328749  0.60600214  0.00363871  1
  Nb  Nb129  1  0.00567500  0.20191392  0.39314469  1
  Nb  Nb130  1  0.60149584  0.79341019  0.39478282  1
  Nb  Nb131  1  0.80501249  0.79907516  0.60234434  1
  Nb  Nb132  1  0.00318904  0.60255506  0.00360047  1
  Nb  Nb133  1  0.40086618  0.40327504  0.39660476  1
  Nb  Nb134  1  0.59939642  0.39800000  0.60645967  1
  Nb  Nb135  1  -0.00000109  0.80160228  0.60758295  1
  Nb  Nb136  1  0.60034910  0.79614149  0.20174715  1
  Nb  Nb137  1  0.81281803  0.40586831  0.80036244  1
  Nb  Nb138  1  0.59397676  0.19572661  -0.00464362  1
  Nb  Nb139  1  0.19837364  -0.00488726  0.00503586  1
  Nb  Nb140  1  0.00406451  -0.00721747  0.00652811  1
  Nb  Nb141  1  0.00369683  0.20998248  0.79842546  1
  Nb  Nb142  1  0.20281394  0.59358841  0.39783275  1
  Nb  Nb143  1  0.00608813  0.40203548  0.19536269  1
  Nb  Nb144  1  0.19456007  0.59620325  0.59993432  1
  Nb  Nb145  1  0.40619631  0.39407252  0.80264834  1
  Nb  Nb146  1  0.00028951  0.00566174  0.39681685  1
  Nb  Nb147  1  0.39702959  0.59681457  0.39662940  1
  Nb  Nb148  1  -0.00105369  0.40274509  0.79813807  1
  Nb  Nb149  1  0.59856061  0.00290699  0.00073787  1
  Pd  Pd150  1  0.39310092  -0.00106839  0.00433375  1
  Pd  Pd151  1  0.80519918  0.59634140  0.20250417  1
  Pd  Pd152  1  0.59550567  0.39116964  0.40781504  1
  Pd  Pd153  1  0.80101383  -0.00514161  0.00401143  1
  Pd  Pd154  1  0.18781360  0.78482283  0.61093826  1
  Pd  Pd155  1  0.80161226  0.00434531  0.19925060  1
  Pd  Pd156  1  0.21109991  -0.00150406  0.19568161  1
  Pd  Pd157  1  0.79131407  0.80245416  0.40712158  1
  Pd  Pd158  1  0.20379292  0.00503134  0.59983804  1
  Pd  Pd159  1  0.01040216  0.20148726  0.60394332  1
  Pd  Pd160  1  0.59489459  0.19997875  0.40367159  1
  Pd  Pd161  1  0.20032575  0.20484879  0.79543421  1
  Pd  Pd162  1  0.40723900  0.39482238  0.60508730  1
  Pd  Pd163  1  0.59651235  0.18745964  0.80514057  1
  Pd  Pd164  1  0.20771377  0.79862069  -0.00341166  1
  Pd  Pd165  1  -0.00597377  0.40012525  0.39311122  1
  Pd  Pd166  1  0.19697179  0.19575262  0.61003882  1
  Pd  Pd167  1  0.79265130  0.20842161  0.00215723  1
  Pd  Pd168  1  0.60842423  -0.00419788  0.39774782  1
  Pd  Pd169  1  0.00772013  0.80410261  0.40039318  1
  Pd  Pd170  1  0.40030354  0.20146968  0.61083926  1
  Pd  Pd171  1  0.79960781  -0.00756735  0.59975752  1
  Pd  Pd172  1  0.79972916  0.79864704  0.00051827  1
  Pd  Pd173  1  0.59453936  0.39686463  0.19023009  1
  Pd  Pd174  1  0.00612853  -0.00160691  0.59315091  1
  Pd  Pd175  1  0.40182889  0.80346865  0.79574998  1
  Pd  Pd176  1  0.39142359  0.20875281  0.79462683  1
  Pd  Pd177  1  0.20539817  0.00284391  0.39945249  1
  Pd  Pd178  1  0.59957102  0.80468317  0.59786964  1
  Pd  Pd179  1  0.59886842  0.60774671  0.18852790  1
  Pd  Pd180  1  0.59791424  0.59555362  0.60714557  1
  Pd  Pd181  1  0.59919154  -0.00339572  0.19569000  1
  Pd  Pd182  1  0.61062926  0.38931553  -0.00005460  1
  Pd  Pd183  1  0.38837919  0.00099222  0.40480300  1
  Pd  Pd184  1  0.80965008  0.19324415  0.39498251  1
  Pd  Pd185  1  0.60256875  0.79714657  0.00616977  1
  Pd  Pd186  1  0.01009103  0.21239948  0.19854245  1
  Pd  Pd187  1  0.60048538  0.20351700  0.18729137  1
  Pd  Pd188  1  0.59580808  0.20061257  0.60511498  1
  Pd  Pd189  1  0.39462858  -0.00359430  0.60074987  1
  Pd  Pd190  1  0.79878463  0.80381097  0.79175738  1
  Pd  Pd191  1  0.19430645  0.20813879  0.19190597  1
  Pd  Pd192  1  0.39767304  0.19823488  -0.00045525  1
  Pd  Pd193  1  0.79306404  0.79959132  0.19105553  1
  Pd  Pd194  1  0.00296357  0.80375784  0.19503629  1
  Pd  Pd195  1  0.40171528  0.80230523  0.20356210  1
  Pd  Pd196  1  0.79817859  -0.01394316  0.79857733  1
  Pd  Pd197  1  0.79214700  0.39685212  -0.00984036  1
  Pd  Pd198  1  0.79966555  0.19740681  0.60801926  1
  Pd  Pd199  1  0.00577136  0.40081709  0.60481756  1
  Rh  Rh200  1  0.20607791  0.39627773  0.80342496  1
  Rh  Rh201  1  0.20748144  0.60781888  0.19898289  1
  Rh  Rh202  1  0.19588965  0.20428893  0.39782042  1
  Rh  Rh203  1  0.39071493  0.60475388  0.59776001  1
  Rh  Rh204  1  0.19756845  0.79689957  0.79863734  1
  Rh  Rh205  1  0.80273791  0.61400848  0.59224025  1
  Rh  Rh206  1  0.18991538  0.39143274  0.18856221  1
  Rh  Rh207  1  0.39379177  0.39706975  -0.01153767  1
  Rh  Rh208  1  0.59520769  0.79557524  0.79714725  1
  Rh  Rh209  1  0.21031819  0.40866597  0.40428430  1
  Rh  Rh210  1  0.80799728  0.41083572  0.20651017  1
  Rh  Rh211  1  0.19299350  0.40825954  0.59664639  1
  Rh  Rh212  1  0.20251871  0.40957149  0.00409884  1
  Rh  Rh213  1  0.59602216  0.60822057  0.40112385  1
  Rh  Rh214  1  0.19471094  -0.00904385  0.81007877  1
  Rh  Rh215  1  -0.00854689  0.59250497  0.18991684  1
  Rh  Rh216  1  0.19693063  0.79715201  0.20066788  1
  Rh  Rh217  1  0.00672832  0.00576148  0.81114416  1
  Rh  Rh218  1  0.59679944  0.00522595  0.60100582  1
  Rh  Rh219  1  0.39674346  -0.00951512  0.79748598  1
  Rh  Rh220  1  0.39883443  0.20761138  0.40110646  1
  Rh  Rh221  1  0.00100116  0.79495083  0.79521680  1
  Rh  Rh222  1  0.40575015  0.40020133  0.20435042  1
  Rh  Rh223  1  0.40186581  0.59299125  0.80318266  1
  Rh  Rh224  1  0.39663047  0.59856776  0.20668730  1
  Rh  Rh225  1  0.38770472  0.60621510  -0.00489633  1
  Rh  Rh226  1  0.00298332  0.59483516  0.80933513  1
  Rh  Rh227  1  0.79883597  0.59488413  0.80866602  1
  Rh  Rh228  1  0.81805098  0.21309428  0.79927541  1
  Rh  Rh229  1  0.40295475  0.80341798  0.60833183  1
  Rh  Rh230  1  0.60122272  0.60842050  0.00235470  1
  Rh  Rh231  1  0.80750693  0.60369564  -0.00471433  1
  Rh  Rh232  1  0.20216718  0.60271918  0.80291741  1
  Rh  Rh233  1  0.39645794  0.20667241  0.19796282  1
  Rh  Rh234  1  0.19042866  0.78767412  0.38773556  1
  Rh  Rh235  1  0.00478527  0.41091424  0.00549443  1
  Rh  Rh236  1  0.20682246  0.18738404  0.00620078  1
  Rh  Rh237  1  -0.00305582  0.80100065  0.00547498  1
  Rh  Rh238  1  0.59910583  0.59976534  0.79809656  1
  Rh  Rh239  1  -0.00558525  -0.00688988  0.19448199  1
  Rh  Rh240  1  0.39209634  -0.00427005  0.20376178  1
  Rh  Rh241  1  0.79302475  0.39606080  0.60425584  1
  Rh  Rh242  1  0.40912444  0.79458217  0.39899391  1
  Rh  Rh243  1  -0.00087628  0.19294270  -0.00013497  1
  Rh  Rh244  1  0.60334784  0.41042067  0.79364478  1
  Rh  Rh245  1  0.59789437  0.00133743  0.80906600  1
  Rh  Rh246  1  0.00139624  0.59664197  0.39870622  1
  Rh  Rh247  1  0.01031968  0.60598008  0.60102732  1
  Rh  Rh248  1  0.79727680  0.19975421  0.19469070  1
  Rh  Rh249  1  0.39315821  0.79722179  -0.00469013  1
