# generated using pymatgen
data_ZrScNbPdRh
_symmetry_space_group_name_H-M   'P 1'
_cell_length_a   16.55378961
_cell_length_b   16.55483319
_cell_length_c   16.55459721
_cell_angle_alpha   90.00089412
_cell_angle_beta   89.96845009
_cell_angle_gamma   89.98121012
_symmetry_Int_Tables_number   1
_chemical_formula_structural   ZrScNbPdRh
_chemical_formula_sum   'Zr50 Sc50 Nb50 Pd50 Rh50'
_cell_volume   4536.70739653
_cell_formula_units_Z   50
loop_
 _symmetry_equiv_pos_site_id
 _symmetry_equiv_pos_as_xyz
  1  'x, y, z'
loop_
 _atom_site_type_symbol
 _atom_site_label
 _atom_site_symmetry_multiplicity
 _atom_site_fract_x
 _atom_site_fract_y
 _atom_site_fract_z
 _atom_site_occupancy
  Zr  Zr0  1  0.29451157  0.90416473  0.70270901  1
  Zr  Zr1  1  0.69603013  0.29535311  0.89724954  1
  Zr  Zr2  1  0.10409170  0.29485401  0.89257105  1
  Zr  Zr3  1  0.50631866  0.10534199  0.89319975  1
  Zr  Zr4  1  0.48795961  0.89237775  0.49595614  1
  Zr  Zr5  1  0.69302066  0.29808284  0.09475370  1
  Zr  Zr6  1  0.89127169  0.49881783  0.69767481  1
  Zr  Zr7  1  0.90369992  0.29608347  0.30124933  1
  Zr  Zr8  1  0.49534118  0.50296156  0.70463012  1
  Zr  Zr9  1  0.70205941  0.09734616  0.50130417  1
  Zr  Zr10  1  0.30427254  0.69237142  0.29381986  1
  Zr  Zr11  1  0.90186118  0.29254342  0.69678341  1
  Zr  Zr12  1  0.49848560  0.70200139  0.69938475  1
  Zr  Zr13  1  0.89418325  0.29596059  0.89653041  1
  Zr  Zr14  1  0.11111828  0.49942290  0.69237955  1
  Zr  Zr15  1  0.70582871  0.09465477  0.70470656  1
  Zr  Zr16  1  0.89855548  0.49972046  0.10645156  1
  Zr  Zr17  1  0.50088429  0.50608630  0.08974760  1
  Zr  Zr18  1  0.69871450  0.50581676  0.29540128  1
  Zr  Zr19  1  0.30175945  0.50159894  0.10492645  1
  Zr  Zr20  1  0.09693609  0.50039215  0.09893450  1
  Zr  Zr21  1  0.69953662  0.50476564  0.69020237  1
  Zr  Zr22  1  0.50400493  0.10359451  0.10038385  1
  Zr  Zr23  1  0.70088220  0.70477086  0.28840587  1
  Zr  Zr24  1  0.89335481  0.70247629  0.29751452  1
  Zr  Zr25  1  0.50380273  0.30652332  0.90043143  1
  Zr  Zr26  1  0.89462080  0.70600788  0.90145648  1
  Zr  Zr27  1  0.31168702  0.70156213  0.49587037  1
  Zr  Zr28  1  0.10680832  0.29238344  0.10244105  1
  Zr  Zr29  1  0.90221439  0.70048947  0.50706421  1
  Zr  Zr30  1  0.89684304  0.09557254  0.89093723  1
  Zr  Zr31  1  0.09359901  0.69476961  0.90042849  1
  Zr  Zr32  1  0.10294380  0.49642644  0.50069140  1
  Zr  Zr33  1  0.10498120  0.50415262  0.89972083  1
  Zr  Zr34  1  0.50247856  0.30305998  0.09488329  1
  Zr  Zr35  1  0.09849896  0.90159382  0.10142292  1
  Zr  Zr36  1  0.31053554  0.50507677  0.89413876  1
  Zr  Zr37  1  0.90627243  0.30021625  0.10422418  1
  Zr  Zr38  1  0.70131175  0.08476247  0.29905984  1
  Zr  Zr39  1  0.10399202  0.90262212  0.50155241  1
  Zr  Zr40  1  0.89999823  0.30091919  0.50171606  1
  Zr  Zr41  1  0.30508718  0.30478872  0.90287013  1
  Zr  Zr42  1  0.29690287  0.49536724  0.30281205  1
  Zr  Zr43  1  0.29836806  0.09226069  0.50615597  1
  Zr  Zr44  1  0.09955172  0.70013378  0.10400834  1
  Zr  Zr45  1  0.70145744  0.69385631  0.49974207  1
  Zr  Zr46  1  0.30677865  0.89888450  0.30547119  1
  Zr  Zr47  1  0.09634307  0.89188959  0.69718586  1
  Zr  Zr48  1  0.09550673  0.69813208  0.50837697  1
  Zr  Zr49  1  0.49319418  0.29523317  0.29951467  1
  Sc  Sc50  1  0.49486340  0.10265899  0.50242182  1
  Sc  Sc51  1  0.49816723  0.90192285  0.70809990  1
  Sc  Sc52  1  0.50710100  0.70331460  0.09853561  1
  Sc  Sc53  1  0.49875691  0.50312423  0.29966129  1
  Sc  Sc54  1  0.68946978  0.50552388  0.10528039  1
  Sc  Sc55  1  0.10083052  0.29781814  0.29526443  1
  Sc  Sc56  1  0.90944250  0.49978206  0.50647331  1
  Sc  Sc57  1  0.30519150  0.90019167  0.09036211  1
  Sc  Sc58  1  0.29465327  0.29560747  0.69908355  1
  Sc  Sc59  1  0.50902478  0.90217856  0.29323790  1
  Sc  Sc60  1  0.50694358  0.50020551  0.49633617  1
  Sc  Sc61  1  0.49355676  0.69452758  0.49883514  1
  Sc  Sc62  1  0.09573754  0.70091997  0.69859847  1
  Sc  Sc63  1  0.69080838  0.30180591  0.29878331  1
  Sc  Sc64  1  0.89809546  0.90211601  0.70970370  1
  Sc  Sc65  1  0.09792436  0.09911062  0.10644244  1
  Sc  Sc66  1  0.70814908  0.89593326  0.89736169  1
  Sc  Sc67  1  0.09686048  0.30498906  0.50585164  1
  Sc  Sc68  1  0.29845518  0.30068075  0.10969955  1
  Sc  Sc69  1  0.30281013  0.69185567  0.69173816  1
  Sc  Sc70  1  0.50289598  0.29631953  0.70166556  1
  Sc  Sc71  1  0.10190890  0.90683176  0.89089960  1
  Sc  Sc72  1  0.49362727  0.89880085  0.90565981  1
  Sc  Sc73  1  0.09335706  0.90636613  0.29891232  1
  Sc  Sc74  1  0.90498541  0.50844061  0.90060032  1
  Sc  Sc75  1  0.89539752  0.89958108  0.09749822  1
  Sc  Sc76  1  0.90241317  0.69882321  0.70492832  1
  Sc  Sc77  1  0.49727532  0.50074525  0.90179088  1
  Sc  Sc78  1  0.69427442  0.30364994  0.50763220  1
  Sc  Sc79  1  0.89752431  0.11055787  0.49684022  1
  Sc  Sc80  1  0.29476130  0.30450381  0.29962872  1
  Sc  Sc81  1  0.50254634  0.10075088  0.30692263  1
  Sc  Sc82  1  0.29902501  0.90460367  0.50429347  1
  Sc  Sc83  1  0.09942783  0.11750065  0.71075283  1
  Sc  Sc84  1  0.71156523  0.90460077  0.48543648  1
  Sc  Sc85  1  0.69632347  0.70501016  0.89654266  1
  Sc  Sc86  1  0.49884579  0.10296343  0.70075772  1
  Sc  Sc87  1  0.89962013  0.89941081  0.90150779  1
  Sc  Sc88  1  0.50388561  0.29658818  0.50350013  1
  Sc  Sc89  1  0.30488223  0.69595083  0.10588505  1
  Sc  Sc90  1  0.29567765  0.30119858  0.49984737  1
  Sc  Sc91  1  0.30661882  0.10173266  0.30684679  1
  Sc  Sc92  1  0.70603187  0.09225343  0.09917957  1
  Sc  Sc93  1  0.91117614  0.09905358  0.29959600  1
  Sc  Sc94  1  0.89881181  0.90352241  0.50307245  1
  Sc  Sc95  1  0.90032793  0.08877821  0.09951260  1
  Sc  Sc96  1  0.29384143  0.09011294  0.89779897  1
  Sc  Sc97  1  0.28699638  0.10453859  0.09005574  1
  Sc  Sc98  1  0.70573121  0.10156762  0.90110509  1
  Sc  Sc99  1  0.69617381  0.50396542  0.89334682  1
  Nb  Nb100  1  0.29405690  0.89648708  0.89929418  1
  Nb  Nb101  1  0.70270105  0.30912861  0.70159498  1
  Nb  Nb102  1  0.09949056  0.50369658  0.30386497  1
  Nb  Nb103  1  0.49697936  0.69879610  0.30290695  1
  Nb  Nb104  1  0.88644429  0.89554203  0.30069877  1
  Nb  Nb105  1  0.30091127  0.69891086  0.90253138  1
  Nb  Nb106  1  0.09683090  0.30395196  0.70181884  1
  Nb  Nb107  1  0.70268789  0.70315883  0.09929304  1
  Nb  Nb108  1  0.30289199  0.49995097  0.69318531  1
  Nb  Nb109  1  0.49306498  0.69334995  0.90077702  1
  Nb  Nb110  1  0.70585413  0.89587505  0.29300641  1
  Nb  Nb111  1  0.69171287  0.89532668  0.11114535  1
  Nb  Nb112  1  0.89841152  0.49881620  0.30013521  1
  Nb  Nb113  1  0.29419367  0.50129867  0.50476759  1
  Nb  Nb114  1  0.09976796  0.09807594  0.30192093  1
  Nb  Nb115  1  0.70520126  0.49902748  0.50120279  1
  Nb  Nb116  1  0.50516813  0.90354788  0.09957312  1
  Nb  Nb117  1  0.10194956  0.70101332  0.29884013  1
  Nb  Nb118  1  0.30759398  0.10317400  0.69164413  1
  Nb  Nb119  1  0.09952692  0.09145793  0.48905032  1
  Nb  Nb120  1  0.89792353  0.09788054  0.69577418  1
  Nb  Nb121  1  0.89891221  0.70127649  0.09848127  1
  Nb  Nb122  1  0.10142830  0.10462213  0.90929317  1
  Nb  Nb123  1  0.70196227  0.70266727  0.70114475  1
  Nb  Nb124  1  0.70052209  0.89796323  0.69914135  1
  Nb  Nb125  1  0.40111044  0.00124010  0.19306137  1
  Nb  Nb126  1  0.79761890  0.60363383  0.00654846  1
  Nb  Nb127  1  0.60563915  0.80363020  0.59743639  1
  Nb  Nb128  1  0.60042196  -0.00652182  0.00423715  1
  Nb  Nb129  1  0.40351175  0.20143578  -0.00249353  1
  Nb  Nb130  1  0.00003012  0.00933994  0.60330224  1
  Nb  Nb131  1  0.20281063  0.79781776  -0.00730917  1
  Nb  Nb132  1  0.39070863  0.79663521  0.80915161  1
  Nb  Nb133  1  0.19522686  0.79396458  0.39617398  1
  Nb  Nb134  1  0.79854044  0.40384159  0.00247909  1
  Nb  Nb135  1  0.00404233  0.39753033  0.79493672  1
  Nb  Nb136  1  0.19990674  0.40360407  -0.00169727  1
  Nb  Nb137  1  0.19281188  0.19138304  0.40337425  1
  Nb  Nb138  1  0.80010925  0.40694831  0.39900165  1
  Nb  Nb139  1  0.80083594  0.19932913  0.20176438  1
  Nb  Nb140  1  0.19718426  0.60177382  0.40005345  1
  Nb  Nb141  1  0.00156835  0.19668080  -0.00536940  1
  Nb  Nb142  1  0.60365666  0.79794152  0.39764674  1
  Nb  Nb143  1  -0.00009670  0.79897559  0.39732531  1
  Nb  Nb144  1  0.79207353  0.80094259  0.60504231  1
  Nb  Nb145  1  0.20530332  -0.00016480  0.20390882  1
  Nb  Nb146  1  0.80205687  0.59363846  0.39858576  1
  Nb  Nb147  1  0.60623317  -0.00931582  0.59980499  1
  Nb  Nb148  1  -0.00152556  0.60158070  0.20706780  1
  Nb  Nb149  1  0.39657067  0.40526783  0.60131281  1
  Pd  Pd150  1  0.59890641  0.40373230  0.79663705  1
  Pd  Pd151  1  0.00264436  0.00245469  -0.00201298  1
  Pd  Pd152  1  0.00644176  0.80553771  -0.00523129  1
  Pd  Pd153  1  0.20523462  0.80909681  0.19834163  1
  Pd  Pd154  1  0.21207202  0.19371716  0.80121166  1
  Pd  Pd155  1  -0.00071774  0.59308859  0.79214941  1
  Pd  Pd156  1  0.60374934  0.19254216  0.60636338  1
  Pd  Pd157  1  0.20541586  0.60656341  0.79366504  1
  Pd  Pd158  1  0.80712854  0.20017770  0.00964622  1
  Pd  Pd159  1  -0.00884783  -0.00665132  0.40213921  1
  Pd  Pd160  1  0.60194246  0.80264257  -0.00566285  1
  Pd  Pd161  1  0.40334650  0.00918848  0.00024622  1
  Pd  Pd162  1  0.20105684  0.78824943  0.80130921  1
  Pd  Pd163  1  0.59137618  0.40279409  0.20121582  1
  Pd  Pd164  1  0.60362268  0.60464976  0.39581637  1
  Pd  Pd165  1  -0.00670166  0.80223225  0.20525302  1
  Pd  Pd166  1  0.00002294  0.39485668  0.39767450  1
  Pd  Pd167  1  0.79133811  0.20392527  0.60314413  1
  Pd  Pd168  1  0.39454014  0.20070970  0.80304789  1
  Pd  Pd169  1  0.00585453  0.00474163  0.79420717  1
  Pd  Pd170  1  0.20729006  0.60194285  0.00404087  1
  Pd  Pd171  1  0.60225094  0.39863923  0.40119020  1
  Pd  Pd172  1  0.39271830  0.19234850  0.19403113  1
  Pd  Pd173  1  0.79011877  0.20691599  0.39274861  1
  Pd  Pd174  1  0.40642499  0.80518268  0.19747243  1
  Pd  Pd175  1  0.60802747  0.19230128  0.20446924  1
  Pd  Pd176  1  0.20899999  0.79361448  0.59466608  1
  Pd  Pd177  1  0.00060060  0.39276258  -0.01052067  1
  Pd  Pd178  1  0.39751959  -0.00234542  0.80215739  1
  Pd  Pd179  1  0.19274217  0.19863874  0.59381048  1
  Pd  Pd180  1  0.40721652  0.40321247  0.19916411  1
  Pd  Pd181  1  0.81179916  0.00598165  0.39794800  1
  Pd  Pd182  1  0.40162624  0.40001268  0.40950599  1
  Pd  Pd183  1  -0.00163578  0.60521818  0.39634933  1
  Pd  Pd184  1  0.39208197  0.20299276  0.40751467  1
  Pd  Pd185  1  0.20285811  0.40097754  0.80022010  1
  Pd  Pd186  1  0.80341013  0.40479787  0.80666236  1
  Pd  Pd187  1  0.59440828  0.60353754  0.59882670  1
  Pd  Pd188  1  0.00824834  0.40367123  0.20693115  1
  Pd  Pd189  1  0.60422282  0.19974057  0.40083067  1
  Pd  Pd190  1  0.59964111  0.60278490  0.80260455  1
  Pd  Pd191  1  0.39833887  0.79463889  0.00082999  1
  Pd  Pd192  1  0.59151693  0.80213575  0.80121707  1
  Pd  Pd193  1  0.60392445  -0.00562383  0.80473221  1
  Pd  Pd194  1  0.19475572  0.00897408  0.79310945  1
  Pd  Pd195  1  0.79365794  0.39127730  0.20054266  1
  Pd  Pd196  1  0.59424659  -0.00950619  0.40761945  1
  Pd  Pd197  1  0.00879146  0.19275322  0.59245685  1
  Pd  Pd198  1  0.18710302  0.01357565  0.61514607  1
  Pd  Pd199  1  0.41043986  -0.00301432  0.60502527  1
  Rh  Rh200  1  0.39183643  0.39618193  0.00875384  1
  Rh  Rh201  1  -0.01269843  0.81303847  0.60093353  1
  Rh  Rh202  1  0.00020540  0.59328439  0.60971933  1
  Rh  Rh203  1  -0.00052501  -0.00523610  0.20363014  1
  Rh  Rh204  1  -0.00432787  0.19205700  0.19352876  1
  Rh  Rh205  1  0.40493999  0.58954712  0.59259094  1
  Rh  Rh206  1  -0.00063762  0.79989834  0.80399252  1
  Rh  Rh207  1  0.60537267  0.60599899  -0.00489574  1
  Rh  Rh208  1  0.39942610  0.39702760  0.78727346  1
  Rh  Rh209  1  0.01026124  0.20462011  0.40357222  1
  Rh  Rh210  1  0.20676806  0.39331877  0.60112600  1
  Rh  Rh211  1  0.19375552  0.40530053  0.19671151  1
  Rh  Rh212  1  0.80315430  -0.00427801  0.60118661  1
  Rh  Rh213  1  0.59935015  0.18973678  -0.00304074  1
  Rh  Rh214  1  0.60981102  0.40898601  -0.00505288  1
  Rh  Rh215  1  0.80127375  0.79248778  0.40775942  1
  Rh  Rh216  1  0.80312001  0.80562686  0.18882635  1
  Rh  Rh217  1  0.19361805  0.59329955  0.20519481  1
  Rh  Rh218  1  0.20156645  0.60632949  0.59460691  1
  Rh  Rh219  1  0.78953401  -0.01083354  0.00241715  1
  Rh  Rh220  1  0.80417929  0.60277255  0.19704500  1
  Rh  Rh221  1  0.80326752  0.79770023  0.79417294  1
  Rh  Rh222  1  0.19402276  -0.00970304  0.00416324  1
  Rh  Rh223  1  0.79469176  0.79915995  0.00570591  1
  Rh  Rh224  1  0.59590707  0.00324166  0.19594549  1
  Rh  Rh225  1  0.59313837  0.79442046  0.20467543  1
  Rh  Rh226  1  0.59259379  0.60779674  0.19815038  1
  Rh  Rh227  1  0.80539894  -0.00037720  0.20142586  1
  Rh  Rh228  1  0.41025309  0.59838527  0.19851357  1
  Rh  Rh229  1  0.80330663  0.60503882  0.59866553  1
  Rh  Rh230  1  -0.01026405  0.60386910  0.00828298  1
  Rh  Rh231  1  0.19428921  0.39893641  0.39993843  1
  Rh  Rh232  1  0.39416625  0.59093931  0.39986226  1
  Rh  Rh233  1  0.79571557  0.60530893  0.80624805  1
  Rh  Rh234  1  -0.00519158  0.20014502  0.80487964  1
  Rh  Rh235  1  0.39935924  0.60549857  0.00413568  1
  Rh  Rh236  1  0.79879948  0.39663239  0.59266920  1
  Rh  Rh237  1  0.20248417  0.20839099  -0.00523996  1
  Rh  Rh238  1  0.39753119  0.20843079  0.59989772  1
  Rh  Rh239  1  0.20564486  -0.00136305  0.39012553  1
  Rh  Rh240  1  0.80009920  -0.00356954  0.80096253  1
  Rh  Rh241  1  0.79554991  0.20037811  0.79074742  1
  Rh  Rh242  1  0.60840135  0.20216663  0.79233588  1
  Rh  Rh243  1  0.40572006  -0.00030389  0.39513036  1
  Rh  Rh244  1  0.40299444  0.79881853  0.39138513  1
  Rh  Rh245  1  0.39801373  0.60710792  0.79812556  1
  Rh  Rh246  1  -0.00108756  0.40327569  0.60886355  1
  Rh  Rh247  1  0.20469359  0.18860989  0.21508111  1
  Rh  Rh248  1  0.59394801  0.40428842  0.60422132  1
  Rh  Rh249  1  0.40103027  0.80786226  0.61532164  1
