# generated using pymatgen
data_ZrScNbPdRh
_symmetry_space_group_name_H-M   'P 1'
_cell_length_a   16.56323535
_cell_length_b   16.56568311
_cell_length_c   16.56542634
_cell_angle_alpha   90.00537214
_cell_angle_beta   89.99294201
_cell_angle_gamma   89.99140597
_symmetry_Int_Tables_number   1
_chemical_formula_structural   ZrScNbPdRh
_chemical_formula_sum   'Zr50 Sc50 Nb50 Pd50 Rh50'
_cell_volume   4545.24324262
_cell_formula_units_Z   50
loop_
 _symmetry_equiv_pos_site_id
 _symmetry_equiv_pos_as_xyz
  1  'x, y, z'
loop_
 _atom_site_type_symbol
 _atom_site_label
 _atom_site_symmetry_multiplicity
 _atom_site_fract_x
 _atom_site_fract_y
 _atom_site_fract_z
 _atom_site_occupancy
  Zr  Zr0  1  0.90482144  0.50442526  0.09985250  1
  Zr  Zr1  1  0.09254720  0.69187263  0.69840322  1
  Zr  Zr2  1  0.69610181  0.29230701  0.90098256  1
  Zr  Zr3  1  0.09754176  0.30650151  0.90232163  1
  Zr  Zr4  1  0.48942976  0.70648152  0.10149592  1
  Zr  Zr5  1  0.31006007  0.89657585  0.10255149  1
  Zr  Zr6  1  0.49624416  0.68002971  0.90421908  1
  Zr  Zr7  1  0.09730846  0.89631625  0.90075631  1
  Zr  Zr8  1  0.50495556  0.30696346  0.10436977  1
  Zr  Zr9  1  0.30155760  0.30840717  0.49127204  1
  Zr  Zr10  1  0.70150095  0.10307201  0.09590549  1
  Zr  Zr11  1  0.91032198  0.09410234  0.69020789  1
  Zr  Zr12  1  0.09501677  0.09632221  0.90857732  1
  Zr  Zr13  1  0.10319781  0.30503620  0.10049519  1
  Zr  Zr14  1  0.49623560  0.50874534  0.09596943  1
  Zr  Zr15  1  0.30325396  0.49282166  0.30652382  1
  Zr  Zr16  1  0.10211300  0.30196184  0.30108600  1
  Zr  Zr17  1  0.90675009  0.09654098  0.10436903  1
  Zr  Zr18  1  0.71085307  0.71797764  0.10835192  1
  Zr  Zr19  1  0.90344128  0.69933083  0.10135771  1
  Zr  Zr20  1  0.50506724  0.50560755  0.29660158  1
  Zr  Zr21  1  0.90245872  0.30764613  0.89817253  1
  Zr  Zr22  1  0.50234934  0.89354757  0.50577147  1
  Zr  Zr23  1  0.29753425  0.89268192  0.50342793  1
  Zr  Zr24  1  0.10496735  0.49924630  0.10133458  1
  Zr  Zr25  1  0.49821950  0.08389510  0.10406752  1
  Zr  Zr26  1  0.49883398  0.70307438  0.49636379  1
  Zr  Zr27  1  0.70587428  0.30537528  0.30011847  1
  Zr  Zr28  1  0.70529364  0.30657795  0.51110542  1
  Zr  Zr29  1  0.30071249  0.29977549  0.90048762  1
  Zr  Zr30  1  0.29819455  0.70131968  0.90054264  1
  Zr  Zr31  1  0.90599242  0.30254875  0.49582084  1
  Zr  Zr32  1  0.09770681  0.10043284  0.10667674  1
  Zr  Zr33  1  0.10331349  0.29919320  0.49182794  1
  Zr  Zr34  1  0.29849303  0.09691637  0.69647451  1
  Zr  Zr35  1  0.29698669  0.30280821  0.10697403  1
  Zr  Zr36  1  0.69411962  0.10192340  0.69842667  1
  Zr  Zr37  1  0.89872616  0.88821118  0.70194963  1
  Zr  Zr38  1  0.29443369  0.10179467  0.50287906  1
  Zr  Zr39  1  0.90248402  0.90105282  0.30566760  1
  Zr  Zr40  1  0.91250075  0.50365242  0.69416697  1
  Zr  Zr41  1  0.09885062  0.69363426  0.30469818  1
  Zr  Zr42  1  0.89907181  0.10020829  0.48899315  1
  Zr  Zr43  1  0.09038737  0.90297222  0.69355289  1
  Zr  Zr44  1  0.49716521  0.10222807  0.69720487  1
  Zr  Zr45  1  0.89653088  0.10472493  0.90611715  1
  Zr  Zr46  1  0.10270799  0.09583746  0.30288780  1
  Zr  Zr47  1  0.29987240  0.10049679  0.29657654  1
  Zr  Zr48  1  0.70741738  0.09997036  0.30700636  1
  Zr  Zr49  1  0.89331975  0.89146087  0.10196066  1
  Sc  Sc50  1  0.69295184  0.90483536  0.10224932  1
  Sc  Sc51  1  0.49793375  0.29447432  0.89364811  1
  Sc  Sc52  1  0.09384637  0.50258611  0.90140232  1
  Sc  Sc53  1  0.49802854  0.89603774  0.28465513  1
  Sc  Sc54  1  0.68878053  0.49133051  0.10839184  1
  Sc  Sc55  1  0.90370243  0.89115710  0.90188985  1
  Sc  Sc56  1  0.70304967  0.88948849  0.29008048  1
  Sc  Sc57  1  0.30520931  0.50037278  0.69327259  1
  Sc  Sc58  1  0.09897888  0.10094463  0.50637012  1
  Sc  Sc59  1  0.29851589  0.50227706  0.49709289  1
  Sc  Sc60  1  0.08819920  0.30613291  0.68402168  1
  Sc  Sc61  1  0.69496232  0.89205715  0.69592709  1
  Sc  Sc62  1  0.10053426  0.90499527  0.30919381  1
  Sc  Sc63  1  0.10469980  0.69941623  0.90252259  1
  Sc  Sc64  1  0.68926698  0.50888716  0.90498398  1
  Sc  Sc65  1  0.49707009  0.68461346  0.69160569  1
  Sc  Sc66  1  0.50186067  0.90619099  0.69398844  1
  Sc  Sc67  1  0.90235996  0.49613280  0.30905960  1
  Sc  Sc68  1  0.30016810  0.69468111  0.09128071  1
  Sc  Sc69  1  0.30234609  0.89943776  0.69590537  1
  Sc  Sc70  1  0.90930301  0.69107223  0.31173651  1
  Sc  Sc71  1  0.50317393  0.69752227  0.30127295  1
  Sc  Sc72  1  0.29533878  0.69903868  0.69537662  1
  Sc  Sc73  1  0.69892779  0.50242387  0.68147791  1
  Sc  Sc74  1  0.09821823  0.91045666  0.09638672  1
  Sc  Sc75  1  0.31307754  0.30369153  0.69272604  1
  Sc  Sc76  1  0.49400373  0.50492132  0.50635462  1
  Sc  Sc77  1  0.89880156  0.70400513  0.90998574  1
  Sc  Sc78  1  0.10346569  0.70078917  0.49597395  1
  Sc  Sc79  1  0.70044540  0.29874710  0.10231640  1
  Sc  Sc80  1  0.29957979  0.69090290  0.31489397  1
  Sc  Sc81  1  0.10022812  0.68624787  0.09647704  1
  Sc  Sc82  1  0.91128498  0.89642856  0.49925336  1
  Sc  Sc83  1  0.50071428  0.09977381  0.89464753  1
  Sc  Sc84  1  0.90093141  0.29529465  0.10632706  1
  Sc  Sc85  1  0.70621708  0.69986187  0.90299077  1
  Sc  Sc86  1  0.49490097  0.30830553  0.30174152  1
  Sc  Sc87  1  0.69915638  0.89827283  0.89615408  1
  Sc  Sc88  1  0.49511803  0.91077898  0.89971907  1
  Sc  Sc89  1  0.29965891  0.09955285  0.10431192  1
  Sc  Sc90  1  0.29264679  0.90677154  0.30329836  1
  Sc  Sc91  1  0.90577692  0.10058665  0.29933335  1
  Sc  Sc92  1  0.70015328  0.10945229  0.49807510  1
  Sc  Sc93  1  0.89827560  0.30837908  0.68736711  1
  Sc  Sc94  1  0.10222808  0.50456503  0.30126714  1
  Sc  Sc95  1  0.29688633  0.89721942  0.90021156  1
  Sc  Sc96  1  0.90632271  0.50292303  0.90122209  1
  Sc  Sc97  1  0.68815478  0.10251402  0.89929025  1
  Sc  Sc98  1  0.30886902  0.10083542  0.89805234  1
  Sc  Sc99  1  0.30449971  0.50570888  0.88984933  1
  Nb  Nb100  1  0.50279056  0.30163908  0.50011448  1
  Nb  Nb101  1  0.09938510  0.49851881  0.69875293  1
  Nb  Nb102  1  0.50453918  0.30994024  0.69220742  1
  Nb  Nb103  1  0.69795507  0.69176657  0.30818827  1
  Nb  Nb104  1  0.69784402  0.50492860  0.30520236  1
  Nb  Nb105  1  0.70782412  0.50974139  0.48999054  1
  Nb  Nb106  1  0.29649003  0.49807309  0.10076422  1
  Nb  Nb107  1  0.49988404  0.89495289  0.09734227  1
  Nb  Nb108  1  0.70612509  0.70294424  0.69602449  1
  Nb  Nb109  1  0.89142002  0.69870422  0.69505122  1
  Nb  Nb110  1  0.29817228  0.30206601  0.30832341  1
  Nb  Nb111  1  0.90600249  0.29590033  0.30359577  1
  Nb  Nb112  1  0.30904494  0.70054134  0.50226864  1
  Nb  Nb113  1  0.89727814  0.69121141  0.50311067  1
  Nb  Nb114  1  0.69991696  0.30399953  0.69982877  1
  Nb  Nb115  1  0.69728933  0.69777449  0.50219839  1
  Nb  Nb116  1  0.89548346  0.50868600  0.50172410  1
  Nb  Nb117  1  0.10280573  0.90305386  0.49605425  1
  Nb  Nb118  1  0.09862794  0.50050034  0.50975597  1
  Nb  Nb119  1  0.49081604  0.49513964  0.70881902  1
  Nb  Nb120  1  0.10030018  0.10033027  0.69874574  1
  Nb  Nb121  1  0.49527932  0.49836532  0.89286266  1
  Nb  Nb122  1  0.50304927  0.10064334  0.49655957  1
  Nb  Nb123  1  0.68997372  0.89391142  0.50519789  1
  Nb  Nb124  1  0.50068036  0.09923004  0.30347662  1
  Nb  Nb125  1  0.40460910  0.19881926  0.40105004  1
  Nb  Nb126  1  0.80147570  0.60042121  0.79029034  1
  Nb  Nb127  1  0.19524946  0.39791781  0.79320226  1
  Nb  Nb128  1  0.80250756  0.20233710  0.79338798  1
  Nb  Nb129  1  0.59286888  0.78916529  0.80085763  1
  Nb  Nb130  1  0.00102954  0.19950313  0.79617557  1
  Nb  Nb131  1  0.79566200  0.59857565  0.20920182  1
  Nb  Nb132  1  0.00651186  0.79732097  0.20374137  1
  Nb  Nb133  1  0.19242075  0.00578949  0.79596465  1
  Nb  Nb134  1  0.59672991  0.19432533  0.20741081  1
  Nb  Nb135  1  0.59058922  0.80054625  -0.00158291  1
  Nb  Nb136  1  0.59859665  0.40289430  0.79252053  1
  Nb  Nb137  1  0.40051884  0.40526638  0.00006405  1
  Nb  Nb138  1  0.59676746  -0.00186190  0.40100754  1
  Nb  Nb139  1  0.60496048  0.40607784  0.40532282  1
  Nb  Nb140  1  0.79979958  0.00266365  -0.00323863  1
  Nb  Nb141  1  0.79223830  0.40426325  0.79830013  1
  Nb  Nb142  1  0.80225613  0.00371356  0.79600011  1
  Nb  Nb143  1  0.79374241  0.79020475  0.40875143  1
  Nb  Nb144  1  0.40753957  0.00471919  0.40303363  1
  Nb  Nb145  1  0.40719826  0.79438779  0.79988939  1
  Nb  Nb146  1  0.79825794  0.39983578  -0.00425634  1
  Nb  Nb147  1  0.19146774  0.20107412  0.79479217  1
  Nb  Nb148  1  0.19485737  0.79664672  0.20162217  1
  Nb  Nb149  1  0.79832900  -0.00484197  0.59851297  1
  Pd  Pd150  1  0.20355345  0.19378540  -0.00292399  1
  Pd  Pd151  1  0.79256480  0.59144130  0.00691334  1
  Pd  Pd152  1  0.20471422  0.39761143  0.60408892  1
  Pd  Pd153  1  0.40073131  -0.00191921  0.59391473  1
  Pd  Pd154  1  0.39958087  0.80857945  0.39040643  1
  Pd  Pd155  1  0.80105002  0.80596863  0.59039243  1
  Pd  Pd156  1  0.60973891  0.59788138  0.78973899  1
  Pd  Pd157  1  0.20154367  0.79775990  0.39640927  1
  Pd  Pd158  1  0.39026854  0.60560510  0.20357729  1
  Pd  Pd159  1  0.20847620  0.41107736  -0.01114702  1
  Pd  Pd160  1  0.78837718  -0.01680850  0.40993409  1
  Pd  Pd161  1  0.80106843  0.00139385  0.19615687  1
  Pd  Pd162  1  0.19902598  0.21175130  0.60488162  1
  Pd  Pd163  1  0.60682983  0.61010604  0.19180373  1
  Pd  Pd164  1  0.20046830  0.59237152  0.79683546  1
  Pd  Pd165  1  0.20896210  0.60322327  0.20253729  1
  Pd  Pd166  1  -0.00092990  0.20760463  0.00248477  1
  Pd  Pd167  1  0.59660804  0.39910354  -0.01117501  1
  Pd  Pd168  1  0.61016919  0.61144585  0.01390457  1
  Pd  Pd169  1  -0.00776195  0.60894945  0.80709455  1
  Pd  Pd170  1  0.60465010  0.00222457  0.20835899  1
  Pd  Pd171  1  0.80595657  0.19489646  0.60233550  1
  Pd  Pd172  1  0.19437034  0.79812656  0.60283754  1
  Pd  Pd173  1  0.59810792  0.20812193  0.39524954  1
  Pd  Pd174  1  0.79984919  0.19841480  0.20427123  1
  Pd  Pd175  1  0.59673766  0.20091810  0.60122014  1
  Pd  Pd176  1  0.20949974  0.00364991  -0.00330069  1
  Pd  Pd177  1  0.60281081  0.80585527  0.39116273  1
  Pd  Pd178  1  0.40427315  0.20475447  0.59248187  1
  Pd  Pd179  1  0.40011950  0.20342743  0.79256466  1
  Pd  Pd180  1  0.39746352  0.40375128  0.19788260  1
  Pd  Pd181  1  -0.00079500  0.78677065  0.80262820  1
  Pd  Pd182  1  0.20287265  0.80689758  0.79128687  1
  Pd  Pd183  1  0.59625445  0.41044303  0.59505818  1
  Pd  Pd184  1  0.60325258  -0.00918773  0.79816511  1
  Pd  Pd185  1  0.19432211  0.79885556  0.01205240  1
  Pd  Pd186  1  0.80469569  0.40757110  0.19647497  1
  Pd  Pd187  1  0.39586539  0.00029156  -0.00228301  1
  Pd  Pd188  1  0.38542938  0.79212483  0.21187351  1
  Pd  Pd189  1  0.80020971  0.39930606  0.40265349  1
  Pd  Pd190  1  0.40588046  0.20377396  0.00704890  1
  Pd  Pd191  1  0.20302521  0.60154867  0.59516143  1
  Pd  Pd192  1  0.59840449  0.59830115  0.59664782  1
  Pd  Pd193  1  0.58732775  0.19490445  0.00914705  1
  Pd  Pd194  1  0.00519541  0.40940190  0.40340744  1
  Pd  Pd195  1  0.00361821  0.79218033  0.59120312  1
  Pd  Pd196  1  -0.00086414  0.40261470  0.20121457  1
  Pd  Pd197  1  0.19813953  0.20218739  0.20413341  1
  Pd  Pd198  1  -0.00307859  0.00169091  0.80499698  1
  Pd  Pd199  1  0.40581007  0.20237504  0.20555505  1
  Rh  Rh200  1  0.20260629  0.40178099  0.20911795  1
  Rh  Rh201  1  -0.00121389  -0.00208031  0.59005090  1
  Rh  Rh202  1  -0.00247730  0.79840306  0.40185309  1
  Rh  Rh203  1  0.00291794  0.19676355  0.39650093  1
  Rh  Rh204  1  0.40406662  0.59899780  0.40280012  1
  Rh  Rh205  1  0.00721478  0.00393164  0.40421405  1
  Rh  Rh206  1  0.39069867  -0.00641902  0.79828693  1
  Rh  Rh207  1  0.40368973  0.79412791  0.60831563  1
  Rh  Rh208  1  0.00383138  0.39729991  0.79266500  1
  Rh  Rh209  1  0.79413754  0.79560668  0.80218179  1
  Rh  Rh210  1  0.40228225  0.40406644  0.59234200  1
  Rh  Rh211  1  0.39789950  -0.00434991  0.20461554  1
  Rh  Rh212  1  0.00438842  0.60159516  -0.00460909  1
  Rh  Rh213  1  0.39021174  0.58893820  0.00052359  1
  Rh  Rh214  1  -0.01195835  -0.00845236  0.00251510  1
  Rh  Rh215  1  0.80501670  0.20977817  0.39837021  1
  Rh  Rh216  1  0.20293287  0.59349922  -0.00580634  1
  Rh  Rh217  1  -0.00637346  0.40012534  0.01144206  1
  Rh  Rh218  1  0.60778331  0.00767118  0.59145534  1
  Rh  Rh219  1  0.00240965  0.60425862  0.59416208  1
  Rh  Rh220  1  0.60088125  0.39439991  0.21257058  1
  Rh  Rh221  1  -0.00705344  0.60069542  0.20308683  1
  Rh  Rh222  1  0.00033478  -0.00866827  0.20409288  1
  Rh  Rh223  1  0.39978291  0.39410719  0.80474394  1
  Rh  Rh224  1  0.59506856  0.79347982  0.19640748  1
  Rh  Rh225  1  0.20030755  0.59675278  0.40891284  1
  Rh  Rh226  1  -0.00078597  0.19963134  0.59537466  1
  Rh  Rh227  1  -0.00272998  0.40559241  0.58854241  1
  Rh  Rh228  1  0.19505705  -0.00761174  0.60173042  1
  Rh  Rh229  1  0.39425789  0.59919877  0.59814399  1
  Rh  Rh230  1  0.19253190  0.40889096  0.39970092  1
  Rh  Rh231  1  0.60340365  -0.00465856  -0.00372653  1
  Rh  Rh232  1  0.40734288  0.80181425  -0.01376962  1
  Rh  Rh233  1  0.41053600  0.39975080  0.40434618  1
  Rh  Rh234  1  0.59692254  0.20890747  0.78909084  1
  Rh  Rh235  1  0.79955147  0.59886790  0.60154470  1
  Rh  Rh236  1  0.80277227  0.60538574  0.39692380  1
  Rh  Rh237  1  0.59365909  0.59535341  0.40883047  1
  Rh  Rh238  1  0.81624162  0.78530434  0.22191568  1
  Rh  Rh239  1  0.80513329  0.41013760  0.59811829  1
  Rh  Rh240  1  0.78987413  0.81267443  -0.00540494  1
  Rh  Rh241  1  0.00814624  0.79822304  0.00939184  1
  Rh  Rh242  1  0.20377027  0.00277106  0.40976898  1
  Rh  Rh243  1  0.00615001  0.59234099  0.41190761  1
  Rh  Rh244  1  0.20403322  0.19697563  0.39862679  1
  Rh  Rh245  1  0.79900939  0.20198097  -0.00258419  1
  Rh  Rh246  1  0.00430954  0.20305737  0.20582870  1
  Rh  Rh247  1  0.59527580  0.78817198  0.61046056  1
  Rh  Rh248  1  0.20264573  -0.00911003  0.19337539  1
  Rh  Rh249  1  0.39224060  0.60689184  0.79299702  1
