# generated using pymatgen
data_ZrScNbPdRh
_symmetry_space_group_name_H-M   'P 1'
_cell_length_a   16.55253051
_cell_length_b   16.55170768
_cell_length_c   16.55329409
_cell_angle_alpha   90.00964399
_cell_angle_beta   90.01728067
_cell_angle_gamma   90.01720950
_symmetry_Int_Tables_number   1
_chemical_formula_structural   ZrScNbPdRh
_chemical_formula_sum   'Zr50 Sc50 Nb50 Pd50 Rh50'
_cell_volume   4535.14931156
_cell_formula_units_Z   50
loop_
 _symmetry_equiv_pos_site_id
 _symmetry_equiv_pos_as_xyz
  1  'x, y, z'
loop_
 _atom_site_type_symbol
 _atom_site_label
 _atom_site_symmetry_multiplicity
 _atom_site_fract_x
 _atom_site_fract_y
 _atom_site_fract_z
 _atom_site_occupancy
  Zr  Zr0  1  0.30417274  0.28887609  0.30638519  1
  Zr  Zr1  1  0.89430013  0.10238322  0.10169350  1
  Zr  Zr2  1  0.30504765  0.89810763  0.10193079  1
  Zr  Zr3  1  0.70024728  0.70948956  0.51253381  1
  Zr  Zr4  1  0.09432737  0.89840158  0.89608579  1
  Zr  Zr5  1  0.50400592  0.10137926  0.08825798  1
  Zr  Zr6  1  0.30542984  0.09790868  0.69800166  1
  Zr  Zr7  1  0.09348479  0.89937701  0.10153191  1
  Zr  Zr8  1  0.70918100  0.30128957  0.70075046  1
  Zr  Zr9  1  0.70110454  0.50058809  0.90785177  1
  Zr  Zr10  1  0.29629061  0.49873029  0.90212110  1
  Zr  Zr11  1  0.49872245  0.90282890  0.90103336  1
  Zr  Zr12  1  0.50925272  0.30489116  0.29779311  1
  Zr  Zr13  1  0.10655729  0.90365879  0.30078019  1
  Zr  Zr14  1  0.09817405  0.89672437  0.51140280  1
  Zr  Zr15  1  0.29894586  0.89705175  0.69831961  1
  Zr  Zr16  1  0.90497252  0.89108461  0.30238044  1
  Zr  Zr17  1  0.89876426  0.70155709  0.50170820  1
  Zr  Zr18  1  0.30047668  0.50198965  0.09015385  1
  Zr  Zr19  1  0.51615354  0.50566694  0.30138711  1
  Zr  Zr20  1  0.29951087  0.29849275  0.89807738  1
  Zr  Zr21  1  0.29937553  0.29801624  0.50149621  1
  Zr  Zr22  1  0.49941542  0.50067232  0.90053982  1
  Zr  Zr23  1  0.30891582  0.09580323  0.10413258  1
  Zr  Zr24  1  0.10561063  0.09900576  0.69438164  1
  Zr  Zr25  1  0.49794972  0.70179728  0.49928459  1
  Zr  Zr26  1  0.89798873  0.89019061  0.09611391  1
  Zr  Zr27  1  0.09858075  0.69427354  0.09949273  1
  Zr  Zr28  1  0.49410229  0.89596920  0.30051552  1
  Zr  Zr29  1  0.09442266  0.30283064  0.69856521  1
  Zr  Zr30  1  0.90552303  0.90236067  0.90360923  1
  Zr  Zr31  1  0.70039452  0.10787509  0.70481429  1
  Zr  Zr32  1  0.10652714  0.70231593  0.70059562  1
  Zr  Zr33  1  0.49793573  0.51015696  0.49958364  1
  Zr  Zr34  1  0.29669382  0.29379618  0.70412400  1
  Zr  Zr35  1  0.10005833  0.49555820  0.09209599  1
  Zr  Zr36  1  0.69605484  0.90179736  0.10317846  1
  Zr  Zr37  1  0.10788503  0.49984291  0.50962603  1
  Zr  Zr38  1  0.10851712  0.89683050  0.69864727  1
  Zr  Zr39  1  0.08685743  0.29537220  0.30291177  1
  Zr  Zr40  1  0.30169866  0.50878828  0.30649185  1
  Zr  Zr41  1  0.89707130  0.29848080  0.49681073  1
  Zr  Zr42  1  0.30969961  0.69277781  0.90675839  1
  Zr  Zr43  1  0.50035106  0.50841797  0.70358238  1
  Zr  Zr44  1  0.88725052  0.49681825  0.29771340  1
  Zr  Zr45  1  0.88838864  0.69909131  0.91278276  1
  Zr  Zr46  1  0.49521368  0.29831111  0.90850791  1
  Zr  Zr47  1  0.70416641  0.30514088  0.29874646  1
  Zr  Zr48  1  0.10314201  0.30292594  0.89560577  1
  Zr  Zr49  1  0.89343665  0.48973759  0.70496076  1
  Sc  Sc50  1  0.10022492  0.68855918  0.89492803  1
  Sc  Sc51  1  0.90657973  0.89300780  0.50431857  1
  Sc  Sc52  1  0.69535192  0.69691362  0.70611929  1
  Sc  Sc53  1  0.50345220  0.29572247  0.09637843  1
  Sc  Sc54  1  0.08932042  0.49687518  0.29468170  1
  Sc  Sc55  1  0.09382775  0.30345003  0.50040337  1
  Sc  Sc56  1  0.50378081  0.69945196  0.70208880  1
  Sc  Sc57  1  0.10023380  0.70921788  0.30433892  1
  Sc  Sc58  1  0.49517644  0.70960351  0.09765347  1
  Sc  Sc59  1  0.69790933  0.29722969  0.49408355  1
  Sc  Sc60  1  0.29328415  0.50469348  0.69678302  1
  Sc  Sc61  1  0.89737096  0.49896660  0.90131043  1
  Sc  Sc62  1  0.09488842  0.50209677  0.70449845  1
  Sc  Sc63  1  0.69893370  0.69421259  0.90217907  1
  Sc  Sc64  1  0.69354550  0.90046695  0.89721044  1
  Sc  Sc65  1  0.09150370  0.30645041  0.09937432  1
  Sc  Sc66  1  0.49800253  0.10012083  0.29965309  1
  Sc  Sc67  1  0.10351611  0.70664018  0.50279344  1
  Sc  Sc68  1  0.68967398  0.89060213  0.69439140  1
  Sc  Sc69  1  0.31038082  0.29760955  0.09191863  1
  Sc  Sc70  1  0.30717600  0.90642657  0.49047701  1
  Sc  Sc71  1  0.30238554  0.71386380  0.30788697  1
  Sc  Sc72  1  0.90385934  0.11680938  0.29430219  1
  Sc  Sc73  1  0.49887552  0.09918801  0.70067596  1
  Sc  Sc74  1  0.70941736  0.69986658  0.09575022  1
  Sc  Sc75  1  0.69905597  0.29962525  0.90254002  1
  Sc  Sc76  1  0.50508076  0.28908262  0.49484443  1
  Sc  Sc77  1  0.09356949  0.09464928  0.88904120  1
  Sc  Sc78  1  0.89566376  0.30432484  0.10212160  1
  Sc  Sc79  1  0.30231360  0.69858559  0.70652903  1
  Sc  Sc80  1  0.91364382  0.89499438  0.69761816  1
  Sc  Sc81  1  0.89615694  0.68799268  0.70085189  1
  Sc  Sc82  1  0.50906201  0.49437575  0.09427565  1
  Sc  Sc83  1  0.89722900  0.30839047  0.89679647  1
  Sc  Sc84  1  0.49434383  0.90773527  0.10417956  1
  Sc  Sc85  1  0.68489349  0.09946647  0.49630742  1
  Sc  Sc86  1  0.69792194  0.69000529  0.28721484  1
  Sc  Sc87  1  0.69078386  0.90692534  0.29246325  1
  Sc  Sc88  1  0.08775572  0.09445585  0.11033967  1
  Sc  Sc89  1  0.49839825  0.70029340  0.89401864  1
  Sc  Sc90  1  0.69941291  0.50073693  0.48812595  1
  Sc  Sc91  1  0.49981724  0.89866336  0.70501770  1
  Sc  Sc92  1  0.69971272  0.29943861  0.09740984  1
  Sc  Sc93  1  0.90264227  0.49897449  0.09989617  1
  Sc  Sc94  1  0.90266187  0.11629276  0.69779803  1
  Sc  Sc95  1  0.30832676  0.10054558  0.89401485  1
  Sc  Sc96  1  0.89508864  0.49824451  0.50456648  1
  Sc  Sc97  1  0.30978208  0.89952775  0.89490788  1
  Sc  Sc98  1  0.49873649  0.29514801  0.70976793  1
  Sc  Sc99  1  0.30242062  0.69038006  0.49538608  1
  Nb  Nb100  1  0.70381244  0.49687387  0.10602643  1
  Nb  Nb101  1  0.29342821  0.09656565  0.30994622  1
  Nb  Nb102  1  0.51068592  0.90740812  0.49567544  1
  Nb  Nb103  1  0.50068572  0.70276184  0.30158295  1
  Nb  Nb104  1  0.89997582  0.30881152  0.69555733  1
  Nb  Nb105  1  0.49281575  0.08867852  0.49661318  1
  Nb  Nb106  1  0.50800517  0.09607657  0.90084631  1
  Nb  Nb107  1  0.89753973  0.09551194  0.90258852  1
  Nb  Nb108  1  0.69954486  0.09797227  0.90377210  1
  Nb  Nb109  1  0.69777504  0.49399505  0.28947048  1
  Nb  Nb110  1  0.69858551  0.49801123  0.71080415  1
  Nb  Nb111  1  0.10282642  0.10428856  0.30547575  1
  Nb  Nb112  1  0.30292119  0.49802037  0.50049712  1
  Nb  Nb113  1  0.89567846  0.69991478  0.10729353  1
  Nb  Nb114  1  0.69791899  0.90349203  0.49756720  1
  Nb  Nb115  1  0.89818412  0.69730205  0.30095571  1
  Nb  Nb116  1  0.30291469  0.91148554  0.29584259  1
  Nb  Nb117  1  0.70214632  0.09950032  0.09933516  1
  Nb  Nb118  1  0.29987959  0.69655327  0.09478655  1
  Nb  Nb119  1  0.10217382  0.49210101  0.90672711  1
  Nb  Nb120  1  0.30537531  0.10791323  0.48664987  1
  Nb  Nb121  1  0.89915057  0.09643809  0.49785024  1
  Nb  Nb122  1  0.09973366  0.10229362  0.49426655  1
  Nb  Nb123  1  0.70639132  0.09932389  0.29004189  1
  Nb  Nb124  1  0.90003821  0.30379466  0.29951202  1
  Nb  Nb125  1  0.79621341  0.00438658  -0.00220882  1
  Nb  Nb126  1  0.20373524  0.40093586  0.39785869  1
  Nb  Nb127  1  -0.00185484  0.19664725  -0.00456360  1
  Nb  Nb128  1  -0.00733712  0.60374390  0.39956177  1
  Nb  Nb129  1  0.20235545  0.80126743  0.00189913  1
  Nb  Nb130  1  0.19736160  -0.00167924  0.00116859  1
  Nb  Nb131  1  0.79849615  0.00107271  0.59746981  1
  Nb  Nb132  1  0.20077063  0.19326710  0.59287974  1
  Nb  Nb133  1  0.20768543  0.39767090  0.20441574  1
  Nb  Nb134  1  0.80219028  -0.00062745  0.40205145  1
  Nb  Nb135  1  0.59953080  0.80574973  0.00149324  1
  Nb  Nb136  1  0.39971509  0.60189008  0.20077013  1
  Nb  Nb137  1  0.39927339  0.40582611  0.20617532  1
  Nb  Nb138  1  0.80043378  0.00145490  0.79827946  1
  Nb  Nb139  1  0.80199310  0.80535009  0.80352945  1
  Nb  Nb140  1  0.40294587  0.40215999  0.59696373  1
  Nb  Nb141  1  0.59745345  0.40272140  0.60444002  1
  Nb  Nb142  1  0.00121567  0.00669363  0.40189893  1
  Nb  Nb143  1  0.60169427  0.80169982  0.39980016  1
  Nb  Nb144  1  0.19890124  0.19816743  0.20227724  1
  Nb  Nb145  1  0.79273040  0.80278013  0.39934221  1
  Nb  Nb146  1  0.40446123  0.80241044  0.59423455  1
  Nb  Nb147  1  0.20509101  0.59983610  0.19746405  1
  Nb  Nb148  1  0.19394528  0.19147553  0.00396667  1
  Nb  Nb149  1  0.40069005  0.40353308  0.40195159  1
  Pd  Pd150  1  0.40252831  0.20307271  0.59808298  1
  Pd  Pd151  1  0.60193484  0.39523481  0.80067067  1
  Pd  Pd152  1  0.59445173  0.60735221  0.18566029  1
  Pd  Pd153  1  -0.00670896  0.00449434  0.59998473  1
  Pd  Pd154  1  0.60912865  0.59417993  0.60241458  1
  Pd  Pd155  1  0.59106233  0.00634866  0.20035670  1
  Pd  Pd156  1  0.79135093  0.59093065  0.60497386  1
  Pd  Pd157  1  0.61243736  0.61194200  0.40157545  1
  Pd  Pd158  1  -0.00836849  0.78701073  0.79802933  1
  Pd  Pd159  1  0.80897519  -0.00283107  0.20264926  1
  Pd  Pd160  1  -0.00032473  0.41192722  0.40638404  1
  Pd  Pd161  1  -0.00723299  0.20516142  0.80476772  1
  Pd  Pd162  1  0.79611608  0.60686078  0.39814348  1
  Pd  Pd163  1  -0.00677202  0.00498120  0.78598843  1
  Pd  Pd164  1  0.59660615  0.60984401  0.00585811  1
  Pd  Pd165  1  0.80309866  0.20156415  -0.00225176  1
  Pd  Pd166  1  0.21190564  0.00601096  0.58734488  1
  Pd  Pd167  1  0.19526408  -0.00519368  0.40838810  1
  Pd  Pd168  1  0.39987793  -0.00615012  0.59698542  1
  Pd  Pd169  1  0.78831671  0.40402658  0.59228417  1
  Pd  Pd170  1  0.79267206  0.79914590  0.20814210  1
  Pd  Pd171  1  0.20030475  0.00724413  0.19609310  1
  Pd  Pd172  1  0.00227871  0.79361448  0.20168063  1
  Pd  Pd173  1  0.79627895  0.19479390  0.59078973  1
  Pd  Pd174  1  0.20556967  0.80832897  0.40593092  1
  Pd  Pd175  1  0.19814447  0.40719668  0.79323335  1
  Pd  Pd176  1  0.20461998  0.79426594  0.19735160  1
  Pd  Pd177  1  0.20499680  0.60686171  0.60218667  1
  Pd  Pd178  1  0.39691139  0.79494334  0.20092752  1
  Pd  Pd179  1  -0.00629507  0.59830400  -0.00229087  1
  Pd  Pd180  1  0.00676530  0.78769594  -0.00346173  1
  Pd  Pd181  1  0.60602461  0.19796991  0.19691069  1
  Pd  Pd182  1  -0.00459119  0.59482424  0.80535898  1
  Pd  Pd183  1  0.80710689  0.20194090  0.80618065  1
  Pd  Pd184  1  0.80451644  0.80832539  0.60764048  1
  Pd  Pd185  1  0.59771882  0.20338324  0.80713988  1
  Pd  Pd186  1  0.59538964  0.20271941  0.60177282  1
  Pd  Pd187  1  0.60424559  -0.00131697  0.79265737  1
  Pd  Pd188  1  0.60027975  0.19079731  0.39227932  1
  Pd  Pd189  1  0.20502842  0.00124903  0.80758443  1
  Pd  Pd190  1  0.39992057  0.19981192  0.20248435  1
  Pd  Pd191  1  0.39568852  0.40523697  0.79221903  1
  Pd  Pd192  1  0.00127474  0.60047464  0.59657181  1
  Pd  Pd193  1  -0.00824521  0.00163367  0.21149665  1
  Pd  Pd194  1  0.00295091  0.20202490  0.59408323  1
  Pd  Pd195  1  0.60337105  0.00360631  0.60827048  1
  Pd  Pd196  1  0.00101913  0.60203326  0.20628438  1
  Pd  Pd197  1  0.18613180  0.59655716  0.39393595  1
  Pd  Pd198  1  0.20699658  0.79514707  0.81208202  1
  Pd  Pd199  1  0.79686760  0.19289497  0.39784076  1
  Rh  Rh200  1  0.20420213  0.39219133  0.59989697  1
  Rh  Rh201  1  0.60452002  0.39669322  0.00086927  1
  Rh  Rh202  1  0.21554556  0.79641457  0.59433361  1
  Rh  Rh203  1  0.40483566  0.00183511  0.79881477  1
  Rh  Rh204  1  0.59956010  0.39711600  0.19161627  1
  Rh  Rh205  1  0.60305611  0.00141785  0.39085761  1
  Rh  Rh206  1  0.79608038  0.20806183  0.20128554  1
  Rh  Rh207  1  -0.00354261  0.79729042  0.40247857  1
  Rh  Rh208  1  0.80221605  0.59289556  0.00916464  1
  Rh  Rh209  1  0.19914741  0.59477934  0.80603164  1
  Rh  Rh210  1  0.60443993  0.19885496  -0.00256038  1
  Rh  Rh211  1  0.41177471  0.59626906  0.00545913  1
  Rh  Rh212  1  0.00145493  0.20710997  0.19212590  1
  Rh  Rh213  1  -0.00392972  0.39860217  0.20005461  1
  Rh  Rh214  1  0.40260849  0.00621165  0.20739371  1
  Rh  Rh215  1  -0.00437166  0.40269297  0.59921311  1
  Rh  Rh216  1  0.20091282  0.38494356  0.00518291  1
  Rh  Rh217  1  0.58889305  0.80335364  0.59518502  1
  Rh  Rh218  1  0.19946470  0.19280733  0.79826321  1
  Rh  Rh219  1  0.60451942  -0.00324807  0.00279953  1
  Rh  Rh220  1  0.40464976  0.80552579  0.40515519  1
  Rh  Rh221  1  0.60373510  0.79550710  0.81013146  1
  Rh  Rh222  1  0.40854180  0.19382301  0.80600409  1
  Rh  Rh223  1  0.40226282  0.79793979  0.79184452  1
  Rh  Rh224  1  0.80139997  0.59649698  0.19477577  1
  Rh  Rh225  1  0.59845994  0.40072859  0.40760522  1
  Rh  Rh226  1  0.79743681  0.60210987  0.80053443  1
  Rh  Rh227  1  0.39756809  0.59679984  0.79987016  1
  Rh  Rh228  1  0.41190832  0.19807532  0.39841155  1
  Rh  Rh229  1  0.59983974  0.79610284  0.19647307  1
  Rh  Rh230  1  0.00038918  0.40321147  0.80149613  1
  Rh  Rh231  1  0.40239678  0.00138175  0.39338292  1
  Rh  Rh232  1  0.39616429  0.00231652  -0.00507923  1
  Rh  Rh233  1  0.79777148  0.39854558  0.39899985  1
  Rh  Rh234  1  0.40220570  0.80378598  -0.00140336  1
  Rh  Rh235  1  0.19149205  0.20624616  0.40184987  1
  Rh  Rh236  1  0.79597238  0.39794781  0.80520517  1
  Rh  Rh237  1  0.78898933  0.80978992  -0.00623686  1
  Rh  Rh238  1  -0.00626395  0.19633516  0.40501896  1
  Rh  Rh239  1  0.79785079  0.40430551  0.00286503  1
  Rh  Rh240  1  0.19537987  0.60559060  -0.00167580  1
  Rh  Rh241  1  0.00205499  0.78788690  0.60888921  1
  Rh  Rh242  1  -0.00122651  0.00853698  0.00333990  1
  Rh  Rh243  1  0.39335496  0.60431123  0.60654237  1
  Rh  Rh244  1  0.79915719  0.39713759  0.19641978  1
  Rh  Rh245  1  0.39826975  0.19277727  -0.00634348  1
  Rh  Rh246  1  0.60237734  0.59913005  0.80595637  1
  Rh  Rh247  1  0.40548689  0.60174892  0.39247547  1
  Rh  Rh248  1  -0.00308801  0.39412579  -0.00533861  1
  Rh  Rh249  1  0.40311459  0.40115847  0.00381429  1
