# generated using pymatgen
data_ZrScNbPdRh
_symmetry_space_group_name_H-M   'P 1'
_cell_length_a   16.56104734
_cell_length_b   16.56255206
_cell_length_c   16.56041056
_cell_angle_alpha   89.98878680
_cell_angle_beta   89.97689684
_cell_angle_gamma   90.00821335
_symmetry_Int_Tables_number   1
_chemical_formula_structural   ZrScNbPdRh
_chemical_formula_sum   'Zr50 Sc50 Nb50 Pd50 Rh50'
_cell_volume   4542.40764710
_cell_formula_units_Z   50
loop_
 _symmetry_equiv_pos_site_id
 _symmetry_equiv_pos_as_xyz
  1  'x, y, z'
loop_
 _atom_site_type_symbol
 _atom_site_label
 _atom_site_symmetry_multiplicity
 _atom_site_fract_x
 _atom_site_fract_y
 _atom_site_fract_z
 _atom_site_occupancy
  Zr  Zr0  1  0.89413174  0.70143318  0.70047422  1
  Zr  Zr1  1  0.69813266  0.89814711  0.29997992  1
  Zr  Zr2  1  0.29211150  0.68036190  0.49905708  1
  Zr  Zr3  1  0.49213641  0.30310636  0.88985363  1
  Zr  Zr4  1  0.30945732  0.91368132  0.50490388  1
  Zr  Zr5  1  0.69098454  0.30268212  0.69687918  1
  Zr  Zr6  1  0.69846979  0.09656804  0.49766646  1
  Zr  Zr7  1  0.69685614  0.49656745  0.29661393  1
  Zr  Zr8  1  0.88759113  0.69998686  0.29906985  1
  Zr  Zr9  1  0.10824715  0.09556863  0.09534080  1
  Zr  Zr10  1  0.09842436  0.89231990  0.09281546  1
  Zr  Zr11  1  0.70071990  0.69512486  0.90300919  1
  Zr  Zr12  1  0.10119578  0.69715232  0.90813362  1
  Zr  Zr13  1  0.29745191  0.29015104  0.10224233  1
  Zr  Zr14  1  0.30553482  0.49932665  0.89777157  1
  Zr  Zr15  1  0.69959271  0.10323197  0.70172760  1
  Zr  Zr16  1  0.69645379  0.30642872  0.30229975  1
  Zr  Zr17  1  0.49336439  0.11287031  0.70030485  1
  Zr  Zr18  1  0.48981618  0.09254257  0.49554921  1
  Zr  Zr19  1  0.28783576  0.30363201  0.30085615  1
  Zr  Zr20  1  0.70083182  0.69980764  0.70062699  1
  Zr  Zr21  1  0.90678208  0.10072734  0.49108443  1
  Zr  Zr22  1  0.30843672  0.29538892  0.70500297  1
  Zr  Zr23  1  0.29882479  0.69865432  0.29586567  1
  Zr  Zr24  1  0.50161861  0.29823864  0.29079272  1
  Zr  Zr25  1  0.09905657  0.10388058  0.30412545  1
  Zr  Zr26  1  0.30067089  0.50369454  0.30920735  1
  Zr  Zr27  1  0.09873950  0.50210693  0.09866992  1
  Zr  Zr28  1  0.69539214  0.49806506  0.90604861  1
  Zr  Zr29  1  0.69818665  0.90719944  0.70368380  1
  Zr  Zr30  1  0.88736791  0.49314728  0.90977114  1
  Zr  Zr31  1  0.68715590  0.90048364  0.10137982  1
  Zr  Zr32  1  0.90029377  0.90460777  0.10210019  1
  Zr  Zr33  1  0.89319505  0.50221823  0.30411424  1
  Zr  Zr34  1  0.30462716  0.69903257  0.90021499  1
  Zr  Zr35  1  0.30730002  0.10981239  0.30239427  1
  Zr  Zr36  1  0.90778987  0.29834435  0.30515754  1
  Zr  Zr37  1  0.30039455  0.49687079  0.69657872  1
  Zr  Zr38  1  0.50018815  0.71058785  0.09519421  1
  Zr  Zr39  1  0.89865162  0.10189081  0.71156558  1
  Zr  Zr40  1  0.69556007  0.70273732  0.10703393  1
  Zr  Zr41  1  0.10470913  0.09859781  0.50657647  1
  Zr  Zr42  1  0.10523920  0.29658733  0.69758503  1
  Zr  Zr43  1  0.50692642  0.10704011  0.10519290  1
  Zr  Zr44  1  0.89928572  0.09503916  0.30065297  1
  Zr  Zr45  1  0.50149401  0.49740637  0.29571215  1
  Zr  Zr46  1  0.49846213  0.89345325  0.90565629  1
  Zr  Zr47  1  0.49979171  0.50912365  0.09835136  1
  Zr  Zr48  1  0.29033213  0.89493006  0.10248908  1
  Zr  Zr49  1  0.70920979  0.09775702  0.89530128  1
  Sc  Sc50  1  0.50317482  0.10472127  0.90034924  1
  Sc  Sc51  1  0.70124532  0.70255368  0.49793336  1
  Sc  Sc52  1  0.50249955  0.69240680  0.70294155  1
  Sc  Sc53  1  0.49554391  0.69813013  0.28516264  1
  Sc  Sc54  1  0.69664390  0.50019555  0.09230079  1
  Sc  Sc55  1  0.09955942  0.91657486  0.70471494  1
  Sc  Sc56  1  0.09473006  0.90720287  0.50192550  1
  Sc  Sc57  1  0.50281766  0.90302137  0.30221650  1
  Sc  Sc58  1  0.09883593  0.89831837  0.90386595  1
  Sc  Sc59  1  0.90116830  0.89755634  0.29553813  1
  Sc  Sc60  1  0.49477228  0.69745633  0.90182912  1
  Sc  Sc61  1  0.50111199  0.90475688  0.70090947  1
  Sc  Sc62  1  0.29860240  0.89696498  0.29071136  1
  Sc  Sc63  1  0.09843546  0.68765310  0.49887873  1
  Sc  Sc64  1  0.89845147  0.50264893  0.10084163  1
  Sc  Sc65  1  0.49867308  0.30117192  0.09035607  1
  Sc  Sc66  1  0.68784524  0.30200645  0.09800499  1
  Sc  Sc67  1  0.10116515  0.48946976  0.30052274  1
  Sc  Sc68  1  0.90306358  0.69814953  0.10276014  1
  Sc  Sc69  1  0.30137106  0.91362756  0.70444083  1
  Sc  Sc70  1  0.50936194  0.90713114  0.50057089  1
  Sc  Sc71  1  0.90397373  0.50329386  0.69789714  1
  Sc  Sc72  1  0.50184723  0.09952914  0.30128850  1
  Sc  Sc73  1  0.90619769  0.49839671  0.49984149  1
  Sc  Sc74  1  0.09478953  0.69888815  0.30187572  1
  Sc  Sc75  1  0.90222540  0.70346118  0.89924090  1
  Sc  Sc76  1  0.49687371  0.49796926  0.90360637  1
  Sc  Sc77  1  0.69673868  0.50154208  0.70597331  1
  Sc  Sc78  1  0.09382539  0.68302237  0.70348646  1
  Sc  Sc79  1  0.89762251  0.69518982  0.49024460  1
  Sc  Sc80  1  0.69541799  0.09473814  0.09500475  1
  Sc  Sc81  1  0.90436918  0.90444050  0.48927637  1
  Sc  Sc82  1  0.10860810  0.28575910  0.90137416  1
  Sc  Sc83  1  0.30431093  0.68632253  0.70147866  1
  Sc  Sc84  1  0.90235722  0.29910569  0.70247341  1
  Sc  Sc85  1  0.30626909  0.70496598  0.09880121  1
  Sc  Sc86  1  0.50825128  0.69825024  0.50528045  1
  Sc  Sc87  1  0.10251796  0.89966579  0.28807185  1
  Sc  Sc88  1  0.90399738  0.30222254  0.49859507  1
  Sc  Sc89  1  0.90661756  0.90574645  0.90471575  1
  Sc  Sc90  1  0.90183040  0.90291932  0.71298840  1
  Sc  Sc91  1  0.70216118  0.49340835  0.49223690  1
  Sc  Sc92  1  0.30131267  0.89876054  0.89642744  1
  Sc  Sc93  1  0.70049477  0.30200045  0.50039982  1
  Sc  Sc94  1  0.49419758  0.49183993  0.50004362  1
  Sc  Sc95  1  0.69483188  0.90531700  0.89916043  1
  Sc  Sc96  1  0.10169385  0.09694400  0.89839759  1
  Sc  Sc97  1  0.70281455  0.31089257  0.90053907  1
  Sc  Sc98  1  0.29784642  0.10435941  0.89746645  1
  Sc  Sc99  1  0.50146758  0.49259666  0.69762425  1
  Nb  Nb100  1  0.09901504  0.30304481  0.49645324  1
  Nb  Nb101  1  0.50050782  0.90238456  0.09993378  1
  Nb  Nb102  1  0.10625811  0.70114192  0.09462199  1
  Nb  Nb103  1  0.90309547  0.11494909  0.91532975  1
  Nb  Nb104  1  0.30117421  0.09776456  0.10317124  1
  Nb  Nb105  1  0.70016741  0.69931356  0.30030376  1
  Nb  Nb106  1  0.10568163  0.49633056  0.51008475  1
  Nb  Nb107  1  0.90342842  0.29386218  0.09308471  1
  Nb  Nb108  1  0.50223467  0.30335015  0.50919325  1
  Nb  Nb109  1  0.28833853  0.09911419  0.68649883  1
  Nb  Nb110  1  0.29200607  0.49469824  0.49731899  1
  Nb  Nb111  1  0.10431305  0.30201268  0.10733583  1
  Nb  Nb112  1  0.29880867  0.30389786  0.49973035  1
  Nb  Nb113  1  0.10918782  0.10215606  0.69790967  1
  Nb  Nb114  1  0.30446067  0.30557769  0.90420472  1
  Nb  Nb115  1  0.30197686  0.49520492  0.09976344  1
  Nb  Nb116  1  0.90447518  0.29637017  0.90936345  1
  Nb  Nb117  1  0.69463011  0.90312875  0.50606752  1
  Nb  Nb118  1  0.09656498  0.49119285  0.69950621  1
  Nb  Nb119  1  0.10155352  0.49777256  0.90023744  1
  Nb  Nb120  1  0.50093860  0.30557517  0.69239896  1
  Nb  Nb121  1  0.10236474  0.29909208  0.29420355  1
  Nb  Nb122  1  0.69851780  0.10339899  0.29822870  1
  Nb  Nb123  1  0.90191637  0.10534369  0.09290611  1
  Nb  Nb124  1  0.30132623  0.10004295  0.50307289  1
  Nb  Nb125  1  0.20563438  0.80274595  0.40936969  1
  Nb  Nb126  1  0.59724638  0.20157917  0.40225920  1
  Nb  Nb127  1  0.19915036  0.59847416  0.19353483  1
  Nb  Nb128  1  0.40109766  0.00053192  0.00907803  1
  Nb  Nb129  1  0.39495402  0.40081965  0.19836694  1
  Nb  Nb130  1  0.00022593  0.20286576  0.19416066  1
  Nb  Nb131  1  0.20028490  0.39861714  0.59639387  1
  Nb  Nb132  1  0.00436724  0.39972709  0.81058729  1
  Nb  Nb133  1  0.19970391  0.39898196  -0.00060860  1
  Nb  Nb134  1  0.19904363  0.79552036  0.79309405  1
  Nb  Nb135  1  0.39489185  0.79773124  0.40702036  1
  Nb  Nb136  1  0.60221118  0.60029443  0.39126222  1
  Nb  Nb137  1  0.80470411  0.39047821  0.19776755  1
  Nb  Nb138  1  0.79888459  -0.00132998  0.59917025  1
  Nb  Nb139  1  0.39262688  0.79839558  0.59539913  1
  Nb  Nb140  1  0.80118840  0.39888366  0.60267057  1
  Nb  Nb141  1  0.20626619  0.00182701  0.40182336  1
  Nb  Nb142  1  0.00555078  0.39291140  -0.00102684  1
  Nb  Nb143  1  0.79618270  0.80284636  0.00524913  1
  Nb  Nb144  1  0.19947546  0.79839349  0.60243763  1
  Nb  Nb145  1  0.40000717  0.00225629  0.19187014  1
  Nb  Nb146  1  0.80079817  0.80952086  0.59972690  1
  Nb  Nb147  1  0.80488278  0.20071667  0.19607831  1
  Nb  Nb148  1  -0.00144494  0.79893347  0.60322483  1
  Nb  Nb149  1  0.00751119  0.19640554  0.60166410  1
  Pd  Pd150  1  -0.00705791  0.59135007  0.80976307  1
  Pd  Pd151  1  0.79671298  0.59542241  0.59267971  1
  Pd  Pd152  1  0.20954325  0.59666849  0.00490402  1
  Pd  Pd153  1  0.19764120  0.39695604  0.80255832  1
  Pd  Pd154  1  0.79416953  0.00666810  0.19702084  1
  Pd  Pd155  1  0.59381616  0.59546496  0.80535136  1
  Pd  Pd156  1  0.79476847  -0.00732803  0.40137447  1
  Pd  Pd157  1  0.79394060  0.20469884  0.39711144  1
  Pd  Pd158  1  0.00443761  0.40427089  0.40101735  1
  Pd  Pd159  1  0.81055216  0.20071555  0.59685328  1
  Pd  Pd160  1  0.39396897  0.79791831  0.78647436  1
  Pd  Pd161  1  -0.00013044  0.00895012  0.81060772  1
  Pd  Pd162  1  0.79852831  0.21167242  0.80531573  1
  Pd  Pd163  1  0.59672505  0.19501492  0.59142156  1
  Pd  Pd164  1  0.00369429  0.20163781  0.79875466  1
  Pd  Pd165  1  -0.00429278  0.60404739  0.59657368  1
  Pd  Pd166  1  0.59122456  0.79227036  0.39472987  1
  Pd  Pd167  1  0.20741885  -0.00318218  -0.00925808  1
  Pd  Pd168  1  0.40680036  0.59775117  0.59666113  1
  Pd  Pd169  1  0.19894518  0.19829140  0.40678304  1
  Pd  Pd170  1  0.39902725  0.19392146  -0.00408169  1
  Pd  Pd171  1  0.00510074  0.60271789  0.20391449  1
  Pd  Pd172  1  0.79797359  0.80792992  0.80723025  1
  Pd  Pd173  1  0.40588008  0.21255112  0.40609771  1
  Pd  Pd174  1  0.80093929  -0.00510112  -0.00212988  1
  Pd  Pd175  1  0.60515519  0.20327056  -0.01149507  1
  Pd  Pd176  1  0.80687049  0.39750310  0.79281633  1
  Pd  Pd177  1  0.79737116  0.80633503  0.40632169  1
  Pd  Pd178  1  0.01222779  0.80003998  0.79399334  1
  Pd  Pd179  1  0.00575518  0.59096729  0.39705051  1
  Pd  Pd180  1  0.19884544  0.60052293  0.79857585  1
  Pd  Pd181  1  0.78590855  0.20602325  0.00538232  1
  Pd  Pd182  1  0.59835387  0.80003493  0.60567478  1
  Pd  Pd183  1  0.59006852  0.00438416  0.80219284  1
  Pd  Pd184  1  0.39980279  0.00880430  0.80518626  1
  Pd  Pd185  1  -0.00728332  0.39702685  0.19476816  1
  Pd  Pd186  1  0.00306639  0.00574946  0.19675772  1
  Pd  Pd187  1  0.80339606  0.59408899  0.80202552  1
  Pd  Pd188  1  -0.01043197  0.00127718  0.60627016  1
  Pd  Pd189  1  0.60550639  0.59032196  0.59061183  1
  Pd  Pd190  1  0.41376600  0.60701542  0.40394371  1
  Pd  Pd191  1  0.20748508  0.19611098  0.80109327  1
  Pd  Pd192  1  0.39567974  0.20156601  0.59461416  1
  Pd  Pd193  1  0.00933740  0.80265254  0.40479592  1
  Pd  Pd194  1  0.00082132  0.79269367  0.19728460  1
  Pd  Pd195  1  0.60291752  0.20749060  0.80530367  1
  Pd  Pd196  1  0.79343266  0.59239225  0.19361756  1
  Pd  Pd197  1  -0.00722917  0.59714526  -0.00417749  1
  Pd  Pd198  1  0.40341690  0.39199673  0.39592442  1
  Pd  Pd199  1  0.59770419  0.79617810  0.80156029  1
  Rh  Rh200  1  0.59591032  0.00100470  0.20516933  1
  Rh  Rh201  1  0.81052802  0.00313756  0.80834271  1
  Rh  Rh202  1  0.60610719  0.79822227  -0.00691128  1
  Rh  Rh203  1  0.59168242  0.00341262  -0.00685067  1
  Rh  Rh204  1  0.20039149  0.20954832  0.59251506  1
  Rh  Rh205  1  0.40341265  0.40174676  0.79457291  1
  Rh  Rh206  1  0.59622434  0.40339989  0.18764280  1
  Rh  Rh207  1  0.20261551  0.20164523  0.00099596  1
  Rh  Rh208  1  0.01034883  -0.00789686  0.38797998  1
  Rh  Rh209  1  0.79952900  0.80322168  0.19554042  1
  Rh  Rh210  1  0.40797271  0.00216439  0.61076104  1
  Rh  Rh211  1  0.39237897  -0.00742568  0.38448386  1
  Rh  Rh212  1  0.79165891  0.59971730  0.40220335  1
  Rh  Rh213  1  0.19262422  0.19292520  0.19919851  1
  Rh  Rh214  1  0.38983250  0.59329503  0.19301223  1
  Rh  Rh215  1  0.19042934  0.78536861  0.20500099  1
  Rh  Rh216  1  0.19263314  0.40038988  0.40584486  1
  Rh  Rh217  1  0.40592256  0.59150561  0.79867149  1
  Rh  Rh218  1  0.60924858  0.19995438  0.20547606  1
  Rh  Rh219  1  0.80826973  0.39873744  0.40246343  1
  Rh  Rh220  1  0.60549566  0.00632540  0.39441477  1
  Rh  Rh221  1  0.19550977  0.59285328  0.60884000  1
  Rh  Rh222  1  0.40716166  0.81159127  0.20352564  1
  Rh  Rh223  1  0.39581709  0.39797831  0.00614673  1
  Rh  Rh224  1  0.00767762  0.20338395  0.40139051  1
  Rh  Rh225  1  0.39276245  0.39763441  0.59878325  1
  Rh  Rh226  1  0.00069114  0.39185000  0.60726490  1
  Rh  Rh227  1  0.39928337  0.60257681  0.00122889  1
  Rh  Rh228  1  -0.00792539  0.79759101  0.00549090  1
  Rh  Rh229  1  0.59541390  0.80144968  0.20753455  1
  Rh  Rh230  1  0.59563865  0.60414299  -0.00206381  1
  Rh  Rh231  1  0.59173560  0.40023280  -0.00404171  1
  Rh  Rh232  1  0.80030772  0.61136965  0.00490894  1
  Rh  Rh233  1  0.59400181  0.40029852  0.80085943  1
  Rh  Rh234  1  0.39372217  0.19671930  0.80061417  1
  Rh  Rh235  1  0.20349650  0.79915536  -0.01089466  1
  Rh  Rh236  1  0.60832131  0.40561065  0.59840651  1
  Rh  Rh237  1  0.59062373  0.39773055  0.40720230  1
  Rh  Rh238  1  0.80298889  0.39438538  0.01202153  1
  Rh  Rh239  1  0.40180737  0.20208399  0.19781538  1
  Rh  Rh240  1  0.39408789  0.80775191  0.00237290  1
  Rh  Rh241  1  0.59986769  0.00915784  0.60572095  1
  Rh  Rh242  1  0.01477929  0.20023659  0.00554115  1
  Rh  Rh243  1  0.20119152  -0.00139003  0.80202041  1
  Rh  Rh244  1  0.20734310  0.40768359  0.19670070  1
  Rh  Rh245  1  0.60408131  0.60170052  0.20236858  1
  Rh  Rh246  1  0.19842677  -0.00666914  0.59687385  1
  Rh  Rh247  1  0.20898378  0.01068374  0.21171512  1
  Rh  Rh248  1  0.18892448  0.59693811  0.39066943  1
  Rh  Rh249  1  -0.00015176  0.00557166  -0.00212525  1
