# generated using pymatgen
data_ZrScNbPdRh
_symmetry_space_group_name_H-M   'P 1'
_cell_length_a   16.55198649
_cell_length_b   16.54596190
_cell_length_c   16.54847789
_cell_angle_alpha   90.00417592
_cell_angle_beta   89.98738236
_cell_angle_gamma   90.00433433
_symmetry_Int_Tables_number   1
_chemical_formula_structural   ZrScNbPdRh
_chemical_formula_sum   'Zr50 Sc50 Nb50 Pd50 Rh50'
_cell_volume   4532.10731156
_cell_formula_units_Z   50
loop_
 _symmetry_equiv_pos_site_id
 _symmetry_equiv_pos_as_xyz
  1  'x, y, z'
loop_
 _atom_site_type_symbol
 _atom_site_label
 _atom_site_symmetry_multiplicity
 _atom_site_fract_x
 _atom_site_fract_y
 _atom_site_fract_z
 _atom_site_occupancy
  Zr  Zr0  1  0.10158737  0.89893104  0.30962007  1
  Zr  Zr1  1  0.50427108  0.49168037  0.49072895  1
  Zr  Zr2  1  0.69396733  0.70807664  0.89824490  1
  Zr  Zr3  1  0.71147925  0.70110351  0.30152257  1
  Zr  Zr4  1  0.70159823  0.69837373  0.09929129  1
  Zr  Zr5  1  0.69734448  0.50363247  0.90240840  1
  Zr  Zr6  1  0.48939786  0.09702445  0.70167582  1
  Zr  Zr7  1  0.49708964  0.90505764  0.69797938  1
  Zr  Zr8  1  0.50060478  0.70532534  0.70665496  1
  Zr  Zr9  1  0.89625926  0.69564466  0.10823080  1
  Zr  Zr10  1  0.49755350  0.10044301  0.09644767  1
  Zr  Zr11  1  0.49671297  0.89456648  0.89694223  1
  Zr  Zr12  1  0.70173339  0.10140747  0.10661868  1
  Zr  Zr13  1  0.50081778  0.30569494  0.50068677  1
  Zr  Zr14  1  0.10673015  0.30089554  0.70888917  1
  Zr  Zr15  1  0.49806160  0.50766565  0.70902131  1
  Zr  Zr16  1  0.29862729  0.50335709  0.90993683  1
  Zr  Zr17  1  0.49535591  0.31186418  0.30435046  1
  Zr  Zr18  1  0.29582820  0.69182740  0.09749656  1
  Zr  Zr19  1  0.48919467  0.90309654  0.50143956  1
  Zr  Zr20  1  0.91259562  0.30221762  0.91000972  1
  Zr  Zr21  1  0.69995843  0.09698534  0.89793540  1
  Zr  Zr22  1  0.29686291  0.30580950  0.10035291  1
  Zr  Zr23  1  0.09668052  0.68924325  0.30140109  1
  Zr  Zr24  1  0.30405564  0.30774941  0.50717750  1
  Zr  Zr25  1  0.29274948  0.49858300  0.49630952  1
  Zr  Zr26  1  0.09752909  0.50086143  0.70359310  1
  Zr  Zr27  1  0.30521098  0.08870489  0.49924089  1
  Zr  Zr28  1  0.90038312  0.10326994  0.49543974  1
  Zr  Zr29  1  0.69812592  0.89330220  0.50079206  1
  Zr  Zr30  1  0.29832387  0.70389410  0.90429950  1
  Zr  Zr31  1  0.90197915  0.10375750  0.30769033  1
  Zr  Zr32  1  0.89697858  0.49822451  0.10410442  1
  Zr  Zr33  1  0.49542069  0.69844578  0.89373905  1
  Zr  Zr34  1  0.90036341  0.50467852  0.90271185  1
  Zr  Zr35  1  0.29624645  0.10289063  0.29498302  1
  Zr  Zr36  1  0.10128275  0.69796318  0.49767276  1
  Zr  Zr37  1  0.29844213  0.89491405  0.09302215  1
  Zr  Zr38  1  0.49862343  0.09516035  0.89774918  1
  Zr  Zr39  1  0.89281597  0.70013109  0.70005624  1
  Zr  Zr40  1  0.90308674  0.50295425  0.71080347  1
  Zr  Zr41  1  0.09267878  0.10081525  0.90493785  1
  Zr  Zr42  1  0.29963610  0.10096282  0.09753592  1
  Zr  Zr43  1  0.29613868  0.69703431  0.29528465  1
  Zr  Zr44  1  0.70800291  0.50285404  0.70151668  1
  Zr  Zr45  1  0.90345725  0.30114153  0.69160337  1
  Zr  Zr46  1  0.29852277  0.90325331  0.31192669  1
  Zr  Zr47  1  0.70208352  0.89352001  0.10327220  1
  Zr  Zr48  1  0.70487482  0.10069711  0.49701806  1
  Zr  Zr49  1  0.50484390  0.89738776  0.29535385  1
  Sc  Sc50  1  0.50252496  0.50160122  0.90625734  1
  Sc  Sc51  1  0.70199233  0.89324975  0.70363160  1
  Sc  Sc52  1  0.89816281  0.70433820  0.49368870  1
  Sc  Sc53  1  0.90244393  0.90026428  0.30656189  1
  Sc  Sc54  1  0.50168845  0.71274554  0.49894355  1
  Sc  Sc55  1  0.10259301  0.09144894  0.30148950  1
  Sc  Sc56  1  0.10067446  0.49796254  0.30208263  1
  Sc  Sc57  1  0.09238476  0.49617301  0.89931613  1
  Sc  Sc58  1  0.08464281  0.10303947  0.50006777  1
  Sc  Sc59  1  0.90288225  0.89519114  0.69895366  1
  Sc  Sc60  1  0.90115544  0.89456286  0.09297200  1
  Sc  Sc61  1  0.70440017  0.50708607  0.09426698  1
  Sc  Sc62  1  0.10420001  0.49796526  0.49386179  1
  Sc  Sc63  1  0.29906940  0.30443418  0.28997945  1
  Sc  Sc64  1  0.49591161  0.09395361  0.51190244  1
  Sc  Sc65  1  0.70267990  0.50415787  0.31239174  1
  Sc  Sc66  1  0.70391275  0.30669603  0.70025481  1
  Sc  Sc67  1  0.50023827  0.29926246  0.90606862  1
  Sc  Sc68  1  0.09938863  0.70555818  0.90319978  1
  Sc  Sc69  1  0.09698148  0.89604700  0.89797955  1
  Sc  Sc70  1  0.29311173  0.49651912  0.29306872  1
  Sc  Sc71  1  0.89611477  0.30796491  0.29872204  1
  Sc  Sc72  1  0.71164493  0.30658383  0.10288238  1
  Sc  Sc73  1  0.10098338  0.30662585  0.90195720  1
  Sc  Sc74  1  0.10448861  0.49924050  0.10439139  1
  Sc  Sc75  1  0.49069788  0.29579540  0.69938835  1
  Sc  Sc76  1  0.69011410  0.09402083  0.70041283  1
  Sc  Sc77  1  0.90045276  0.30493800  0.10589703  1
  Sc  Sc78  1  0.30395505  0.09441506  0.89564306  1
  Sc  Sc79  1  0.29023417  0.49560714  0.69383921  1
  Sc  Sc80  1  0.90864968  0.09620000  0.68744424  1
  Sc  Sc81  1  0.90968016  0.90090897  0.49520281  1
  Sc  Sc82  1  0.90232156  0.48794066  0.49075133  1
  Sc  Sc83  1  0.29680125  0.70478475  0.70173902  1
  Sc  Sc84  1  0.10179778  0.08948837  0.70195817  1
  Sc  Sc85  1  0.10747232  0.70429982  0.09520335  1
  Sc  Sc86  1  0.90430653  0.70970394  0.89725252  1
  Sc  Sc87  1  0.70036516  0.89802109  0.29605531  1
  Sc  Sc88  1  0.09716137  0.70891816  0.70470754  1
  Sc  Sc89  1  0.70788431  0.31480304  0.50105439  1
  Sc  Sc90  1  0.91159666  0.09652571  0.09437562  1
  Sc  Sc91  1  0.48703256  0.30319614  0.09894115  1
  Sc  Sc92  1  0.50251723  0.69765530  0.29111810  1
  Sc  Sc93  1  0.30183749  0.89836153  0.89943492  1
  Sc  Sc94  1  0.50022506  0.69635253  0.10106667  1
  Sc  Sc95  1  0.50161342  0.09767462  0.29363745  1
  Sc  Sc96  1  0.09278756  0.30390971  0.49778720  1
  Sc  Sc97  1  0.50376631  0.89473265  0.10295921  1
  Sc  Sc98  1  0.69270931  0.30310951  0.90047950  1
  Sc  Sc99  1  0.70926938  0.10092766  0.30064121  1
  Nb  Nb100  1  0.10272333  0.09632732  0.10093560  1
  Nb  Nb101  1  0.90652519  0.51559777  0.29230568  1
  Nb  Nb102  1  0.29258998  0.89318110  0.50321538  1
  Nb  Nb103  1  0.09708249  0.29384405  0.09999520  1
  Nb  Nb104  1  0.10796009  0.29663899  0.29420445  1
  Nb  Nb105  1  0.90034995  0.09629225  0.89808656  1
  Nb  Nb106  1  0.49333412  0.50047282  0.10669630  1
  Nb  Nb107  1  0.28891543  0.30187891  0.89431142  1
  Nb  Nb108  1  0.29437729  0.29509203  0.70629045  1
  Nb  Nb109  1  0.09687082  0.90158595  0.10078083  1
  Nb  Nb110  1  0.70370605  0.69726926  0.50687111  1
  Nb  Nb111  1  0.88659536  0.90625913  0.89619060  1
  Nb  Nb112  1  0.10689797  0.89789286  0.50644895  1
  Nb  Nb113  1  0.49819179  0.50066470  0.30121316  1
  Nb  Nb114  1  0.90825975  0.28675215  0.50165371  1
  Nb  Nb115  1  0.70711064  0.90090395  0.90142935  1
  Nb  Nb116  1  0.28027817  0.90701629  0.69386341  1
  Nb  Nb117  1  0.90666500  0.69549469  0.29735043  1
  Nb  Nb118  1  0.30007504  0.10691923  0.70076773  1
  Nb  Nb119  1  0.30268988  0.69594917  0.49794102  1
  Nb  Nb120  1  0.10821937  0.89535231  0.69002148  1
  Nb  Nb121  1  0.69353045  0.50584318  0.50186890  1
  Nb  Nb122  1  0.70633062  0.70243891  0.68857845  1
  Nb  Nb123  1  0.70122310  0.29914902  0.29110967  1
  Nb  Nb124  1  0.30517939  0.50044319  0.09985690  1
  Nb  Nb125  1  -0.00195787  0.59942015  0.60109129  1
  Nb  Nb126  1  0.80508873  0.00043492  0.19973159  1
  Nb  Nb127  1  0.80530652  0.19514001  -0.00601968  1
  Nb  Nb128  1  0.59778237  0.40489132  0.20337294  1
  Nb  Nb129  1  0.39578909  -0.00234676  0.19726101  1
  Nb  Nb130  1  -0.00426391  0.19719373  0.80264264  1
  Nb  Nb131  1  0.39997370  0.59793100  0.40139625  1
  Nb  Nb132  1  0.20576645  0.19946352  0.60155577  1
  Nb  Nb133  1  0.60059530  0.20935269  0.20396252  1
  Nb  Nb134  1  0.80820504  0.19572173  0.80449109  1
  Nb  Nb135  1  0.19611318  0.19961294  0.00337679  1
  Nb  Nb136  1  0.38919747  0.39725426  0.80434225  1
  Nb  Nb137  1  0.40021009  0.20203072  0.40095921  1
  Nb  Nb138  1  0.00788641  0.19786623  0.19849087  1
  Nb  Nb139  1  0.59821130  0.20191337  0.59451432  1
  Nb  Nb140  1  0.00343593  0.79872895  0.20231649  1
  Nb  Nb141  1  0.60039918  0.00198664  0.40185345  1
  Nb  Nb142  1  0.59941688  0.20232048  0.40014170  1
  Nb  Nb143  1  0.40287170  0.60159890  0.59364321  1
  Nb  Nb144  1  0.19934531  0.60068673  0.80508001  1
  Nb  Nb145  1  0.79999371  -0.00186107  0.59316347  1
  Nb  Nb146  1  -0.00427754  0.60152217  0.00418482  1
  Nb  Nb147  1  0.60544628  -0.00372611  -0.00293390  1
  Nb  Nb148  1  0.20375487  0.20092752  0.40366871  1
  Nb  Nb149  1  0.60357315  0.60223683  0.59700797  1
  Pd  Pd150  1  0.59877779  0.79886112  0.60446400  1
  Pd  Pd151  1  0.80774491  0.40716723  0.59566199  1
  Pd  Pd152  1  0.60778427  0.20248145  0.01021779  1
  Pd  Pd153  1  0.40005956  0.79225520  0.39465812  1
  Pd  Pd154  1  -0.00534788  -0.00302336  0.20253156  1
  Pd  Pd155  1  0.79608740  0.61005207  0.80829360  1
  Pd  Pd156  1  0.39946462  0.20579016  0.80938879  1
  Pd  Pd157  1  0.80821910  0.59065922  0.58908656  1
  Pd  Pd158  1  0.20400292  -0.00861562  0.19822582  1
  Pd  Pd159  1  -0.00024551  -0.00563131  0.79536715  1
  Pd  Pd160  1  0.59936985  0.40172502  0.61130015  1
  Pd  Pd161  1  0.38774777  0.80998143  0.79036485  1
  Pd  Pd162  1  0.19982944  0.00024197  0.80604366  1
  Pd  Pd163  1  0.40132917  0.40853781  0.61156559  1
  Pd  Pd164  1  0.60986546  0.60541804  0.79440599  1
  Pd  Pd165  1  0.60114630  -0.00920674  0.80383554  1
  Pd  Pd166  1  -0.00096036  0.80767350  0.80014460  1
  Pd  Pd167  1  0.80370925  0.00451938  0.78494859  1
  Pd  Pd168  1  0.79878050  0.00410024  0.00901903  1
  Pd  Pd169  1  0.59436640  0.80232969  0.00018218  1
  Pd  Pd170  1  0.59379257  0.61167903  0.40403206  1
  Pd  Pd171  1  0.19450661  0.80344083  0.20032812  1
  Pd  Pd172  1  0.60255907  0.20683253  0.79061234  1
  Pd  Pd173  1  0.00024997  0.39644387  0.39018653  1
  Pd  Pd174  1  -0.00080733  -0.01112796  -0.00305866  1
  Pd  Pd175  1  0.39750179  0.80272291  0.19713860  1
  Pd  Pd176  1  0.19306700  0.39922328  0.00459598  1
  Pd  Pd177  1  -0.00308633  0.79486881  0.59702035  1
  Pd  Pd178  1  0.00471259  0.39562646  0.20345272  1
  Pd  Pd179  1  0.79164531  0.19367139  0.60902289  1
  Pd  Pd180  1  0.40896917  0.00566329  0.39158282  1
  Pd  Pd181  1  0.79689155  0.21410218  0.39990251  1
  Pd  Pd182  1  0.40753879  0.60229694  0.00268978  1
  Pd  Pd183  1  0.38976942  0.80013806  0.60630622  1
  Pd  Pd184  1  0.80171259  0.39984485  0.39627302  1
  Pd  Pd185  1  0.60644645  0.59364786  0.19913194  1
  Pd  Pd186  1  0.59716714  0.40135730  0.01372940  1
  Pd  Pd187  1  0.19745156  -0.00003479  -0.00680377  1
  Pd  Pd188  1  0.60067558  0.79936842  0.39612014  1
  Pd  Pd189  1  0.00324833  0.40541947  0.59851643  1
  Pd  Pd190  1  0.80897252  0.59702760  0.40622674  1
  Pd  Pd191  1  0.58941028  0.39434741  0.79649453  1
  Pd  Pd192  1  0.80508965  0.79511479  -0.00327815  1
  Pd  Pd193  1  0.19680181  0.60672573  0.60747703  1
  Pd  Pd194  1  0.38913912  0.20539754  -0.00926760  1
  Pd  Pd195  1  0.79904293  0.39428831  -0.00529252  1
  Pd  Pd196  1  0.80412936  0.80135636  0.39894988  1
  Pd  Pd197  1  0.19929080  0.79330614  0.40269528  1
  Pd  Pd198  1  0.19407260  0.01126630  0.59235225  1
  Pd  Pd199  1  0.80380397  0.39071076  0.80954475  1
  Rh  Rh200  1  0.40278034  0.79451578  0.00259168  1
  Rh  Rh201  1  -0.00422570  0.59601030  0.40781396  1
  Rh  Rh202  1  0.60526065  0.78861706  0.20088576  1
  Rh  Rh203  1  0.00719528  -0.00318105  0.40506697  1
  Rh  Rh204  1  0.00833337  0.60494042  0.19180934  1
  Rh  Rh205  1  0.59498103  0.59932197  0.00217110  1
  Rh  Rh206  1  0.20006476  0.79839730  0.80250050  1
  Rh  Rh207  1  0.41081070  -0.00805778  0.00546309  1
  Rh  Rh208  1  0.60775182  0.00173687  0.59284958  1
  Rh  Rh209  1  0.19156160  0.19016684  0.80323589  1
  Rh  Rh210  1  0.00956800  0.60755652  0.80238490  1
  Rh  Rh211  1  0.19832803  0.38988830  0.39625068  1
  Rh  Rh212  1  0.19776836  0.40234100  0.19411468  1
  Rh  Rh213  1  0.40825614  0.19511513  0.20660808  1
  Rh  Rh214  1  0.00681650  0.20870698  0.38680249  1
  Rh  Rh215  1  0.20001885  0.59510925  0.19657191  1
  Rh  Rh216  1  0.40037073  0.40769688  0.19959837  1
  Rh  Rh217  1  0.00347199  0.41108301  0.01070077  1
  Rh  Rh218  1  0.39893110  0.39915040  -0.00612876  1
  Rh  Rh219  1  0.38716647  -0.00917251  0.60893680  1
  Rh  Rh220  1  0.18942370  0.59643303  -0.00429631  1
  Rh  Rh221  1  0.38901805  -0.00552032  0.79223263  1
  Rh  Rh222  1  0.80527117  0.60826922  -0.00713437  1
  Rh  Rh223  1  0.39533939  0.59543678  0.20494908  1
  Rh  Rh224  1  0.81128421  0.19185639  0.19240376  1
  Rh  Rh225  1  0.60591102  0.80271020  0.79592393  1
  Rh  Rh226  1  0.60206910  0.00815749  0.19971670  1
  Rh  Rh227  1  0.20271088  0.79217483  0.59640096  1
  Rh  Rh228  1  0.38317651  0.58895448  0.79279477  1
  Rh  Rh229  1  0.79775368  0.79902062  0.80033666  1
  Rh  Rh230  1  0.81120388  0.80630503  0.20721620  1
  Rh  Rh231  1  0.19255910  0.19815293  0.19676987  1
  Rh  Rh232  1  0.20464021  0.41251409  0.80333647  1
  Rh  Rh233  1  -0.00003164  0.79941024  0.00624142  1
  Rh  Rh234  1  -0.00442972  0.39102999  0.79878033  1
  Rh  Rh235  1  0.79344479  0.41415461  0.20830515  1
  Rh  Rh236  1  0.79342372  0.59580085  0.20570099  1
  Rh  Rh237  1  0.79244614  -0.01000332  0.39905313  1
  Rh  Rh238  1  0.39736509  0.19916304  0.59605475  1
  Rh  Rh239  1  0.61396006  0.39485825  0.39116111  1
  Rh  Rh240  1  0.20599881  0.59893527  0.39517482  1
  Rh  Rh241  1  0.38546329  0.40457531  0.39206499  1
  Rh  Rh242  1  0.19168029  0.38949622  0.59874852  1
  Rh  Rh243  1  -0.00026796  -0.00989032  0.59795791  1
  Rh  Rh244  1  0.00485830  0.79711031  0.39571025  1
  Rh  Rh245  1  0.19653992  0.80682837  -0.00225612  1
  Rh  Rh246  1  0.19209580  0.00480394  0.41113197  1
  Rh  Rh247  1  0.00155269  0.19904330  0.00355679  1
  Rh  Rh248  1  0.80579048  0.80839095  0.59547897  1
  Rh  Rh249  1  0.01381028  0.20424600  0.61098681  1
