# generated using pymatgen
data_ZrScNbPdRh
_symmetry_space_group_name_H-M   'P 1'
_cell_length_a   16.55692689
_cell_length_b   16.55178378
_cell_length_c   16.55566187
_cell_angle_alpha   90.00672553
_cell_angle_beta   89.98276783
_cell_angle_gamma   89.99631327
_symmetry_Int_Tables_number   1
_chemical_formula_structural   ZrScNbPdRh
_chemical_formula_sum   'Zr50 Sc50 Nb50 Pd50 Rh50'
_cell_volume   4537.02382477
_cell_formula_units_Z   50
loop_
 _symmetry_equiv_pos_site_id
 _symmetry_equiv_pos_as_xyz
  1  'x, y, z'
loop_
 _atom_site_type_symbol
 _atom_site_label
 _atom_site_symmetry_multiplicity
 _atom_site_fract_x
 _atom_site_fract_y
 _atom_site_fract_z
 _atom_site_occupancy
  Zr  Zr0  1  0.50227545  0.70098185  0.29957430  1
  Zr  Zr1  1  0.09968505  0.70017795  0.10588965  1
  Zr  Zr2  1  0.50242818  0.89766781  0.89191932  1
  Zr  Zr3  1  0.09896918  0.70070522  0.69789185  1
  Zr  Zr4  1  0.30544174  0.29768502  0.10453471  1
  Zr  Zr5  1  0.90368539  0.28914631  0.70250657  1
  Zr  Zr6  1  0.90147378  0.29702506  0.90252358  1
  Zr  Zr7  1  0.09707521  0.50910194  0.30025043  1
  Zr  Zr8  1  0.89191986  0.70355654  0.49867041  1
  Zr  Zr9  1  0.50714162  0.70316026  0.09548618  1
  Zr  Zr10  1  0.29830902  0.49668070  0.70281917  1
  Zr  Zr11  1  0.30107357  0.50192493  0.49841187  1
  Zr  Zr12  1  0.49936771  0.70369543  0.89859077  1
  Zr  Zr13  1  0.90143573  0.10090375  0.09810377  1
  Zr  Zr14  1  0.30081238  0.29110636  0.30812680  1
  Zr  Zr15  1  0.51196290  0.70075564  0.50045482  1
  Zr  Zr16  1  0.29880317  0.91280849  0.48443811  1
  Zr  Zr17  1  0.09890858  0.90617663  0.49436363  1
  Zr  Zr18  1  0.90294750  0.70166845  0.29387160  1
  Zr  Zr19  1  0.50401799  0.30219981  0.70768422  1
  Zr  Zr20  1  0.09073365  0.10843833  0.30007062  1
  Zr  Zr21  1  0.69552266  0.49715719  0.49717781  1
  Zr  Zr22  1  0.69858069  0.29474309  0.90008702  1
  Zr  Zr23  1  0.11310262  0.91508630  0.08849066  1
  Zr  Zr24  1  0.70271046  0.88990422  0.50497965  1
  Zr  Zr25  1  0.90217673  0.89917948  0.70411300  1
  Zr  Zr26  1  0.50397485  0.29703221  0.49924872  1
  Zr  Zr27  1  0.09669636  0.29943725  0.70449218  1
  Zr  Zr28  1  0.89571565  0.30369595  0.50794829  1
  Zr  Zr29  1  0.50037362  0.10185247  0.70850828  1
  Zr  Zr30  1  0.69693353  0.29602804  0.69133763  1
  Zr  Zr31  1  0.69867452  0.09583359  0.50690747  1
  Zr  Zr32  1  0.30831413  0.49719722  0.09479904  1
  Zr  Zr33  1  0.10145595  0.90006897  0.88846088  1
  Zr  Zr34  1  0.10223794  0.29923293  0.29750367  1
  Zr  Zr35  1  0.10326012  0.10370844  0.70096919  1
  Zr  Zr36  1  0.89763057  0.69895659  0.90481660  1
  Zr  Zr37  1  0.09545579  0.09388276  0.90739926  1
  Zr  Zr38  1  0.10072979  0.70113566  0.89830712  1
  Zr  Zr39  1  0.50417324  0.88901721  0.69990498  1
  Zr  Zr40  1  0.88505186  0.49905831  0.10216218  1
  Zr  Zr41  1  0.30205918  0.09452337  0.10229376  1
  Zr  Zr42  1  0.30901726  0.70257226  0.09475598  1
  Zr  Zr43  1  0.09296849  0.70037627  0.29539838  1
  Zr  Zr44  1  0.90478617  0.09570958  0.49775112  1
  Zr  Zr45  1  0.89797832  0.30430198  0.09561321  1
  Zr  Zr46  1  0.49055615  0.89849331  0.30255127  1
  Zr  Zr47  1  0.90451638  0.30469862  0.30106299  1
  Zr  Zr48  1  0.09798409  0.29898130  0.90053417  1
  Zr  Zr49  1  0.91203854  0.49240597  0.69898601  1
  Sc  Sc50  1  0.90249036  0.69627731  0.69136552  1
  Sc  Sc51  1  0.68658661  0.49867022  0.70120620  1
  Sc  Sc52  1  0.31598052  0.10295582  0.89349323  1
  Sc  Sc53  1  0.90367182  0.49396529  0.91044946  1
  Sc  Sc54  1  0.89249277  0.91016763  0.90039731  1
  Sc  Sc55  1  0.09432375  0.50101719  0.10109364  1
  Sc  Sc56  1  0.50800652  0.50406825  0.29923971  1
  Sc  Sc57  1  0.89796210  0.89621914  0.48993780  1
  Sc  Sc58  1  0.89150895  0.90005890  0.10022098  1
  Sc  Sc59  1  0.50186942  0.10522487  0.29074752  1
  Sc  Sc60  1  0.89352981  0.69954165  0.10229937  1
  Sc  Sc61  1  0.69444503  0.70017741  0.28897348  1
  Sc  Sc62  1  0.50324026  0.50397437  0.48979179  1
  Sc  Sc63  1  0.30455852  0.70074718  0.30106565  1
  Sc  Sc64  1  0.89082828  0.10145977  0.89539655  1
  Sc  Sc65  1  0.70823826  0.90205476  0.29208458  1
  Sc  Sc66  1  0.10401476  0.51076168  0.49987006  1
  Sc  Sc67  1  0.29794310  0.90041263  0.70988824  1
  Sc  Sc68  1  0.49568770  0.29547971  0.29436481  1
  Sc  Sc69  1  0.49591150  0.09824376  0.49824251  1
  Sc  Sc70  1  0.89821930  0.90676194  0.29962785  1
  Sc  Sc71  1  0.29948497  0.70659142  0.69798283  1
  Sc  Sc72  1  0.70202734  0.09100356  0.29413510  1
  Sc  Sc73  1  0.10145535  0.10286280  0.10566023  1
  Sc  Sc74  1  0.29562828  0.29691138  0.71864742  1
  Sc  Sc75  1  0.30422602  0.70876642  0.89922827  1
  Sc  Sc76  1  0.09510292  0.29278250  0.10421893  1
  Sc  Sc77  1  0.69992330  0.49594971  0.29037927  1
  Sc  Sc78  1  0.70180231  0.90103607  0.90131138  1
  Sc  Sc79  1  0.29437537  0.90009411  0.90426697  1
  Sc  Sc80  1  0.69734500  0.30733638  0.09841712  1
  Sc  Sc81  1  0.69900033  0.10214119  0.70768941  1
  Sc  Sc82  1  0.09521017  0.90181862  0.30282806  1
  Sc  Sc83  1  0.49915918  0.89507453  0.50106390  1
  Sc  Sc84  1  0.69426642  0.10107235  0.10488382  1
  Sc  Sc85  1  0.09259743  0.70182650  0.49278237  1
  Sc  Sc86  1  0.10259872  0.28700974  0.49915690  1
  Sc  Sc87  1  0.90101930  0.49858547  0.29792788  1
  Sc  Sc88  1  0.50370561  0.49294801  0.90220193  1
  Sc  Sc89  1  0.69375122  0.70735060  0.90874087  1
  Sc  Sc90  1  0.70575464  0.89999731  0.09934411  1
  Sc  Sc91  1  0.50237539  0.29283135  0.10163949  1
  Sc  Sc92  1  0.69360607  0.49327800  0.90480393  1
  Sc  Sc93  1  0.30585840  0.50411763  0.30742404  1
  Sc  Sc94  1  0.29818655  0.69744966  0.49928224  1
  Sc  Sc95  1  0.90254651  0.49817448  0.49866182  1
  Sc  Sc96  1  0.09417369  0.49188726  0.89946404  1
  Sc  Sc97  1  0.50160462  0.29272646  0.90286254  1
  Sc  Sc98  1  0.30438972  0.48431814  0.90138117  1
  Sc  Sc99  1  0.69248531  0.69511099  0.68673828  1
  Nb  Nb100  1  0.30126949  0.29720100  0.49818464  1
  Nb  Nb101  1  0.70181471  0.89726000  0.70256971  1
  Nb  Nb102  1  0.90080707  0.09662538  0.70288908  1
  Nb  Nb103  1  0.10642817  0.50021197  0.69908817  1
  Nb  Nb104  1  0.70110784  0.69424241  0.49957982  1
  Nb  Nb105  1  0.69361719  0.50368325  0.10194982  1
  Nb  Nb106  1  0.50481470  0.50179663  0.09713294  1
  Nb  Nb107  1  0.29729505  0.29948162  0.90514447  1
  Nb  Nb108  1  0.48673209  0.90569580  0.10490316  1
  Nb  Nb109  1  0.10588045  0.09916094  0.50573376  1
  Nb  Nb110  1  0.30363799  0.90225525  0.10857307  1
  Nb  Nb111  1  0.70527227  0.69853747  0.10194860  1
  Nb  Nb112  1  0.70165744  0.29569142  0.29987489  1
  Nb  Nb113  1  0.30474165  0.10163427  0.30994058  1
  Nb  Nb114  1  0.29338791  0.10811699  0.49937283  1
  Nb  Nb115  1  0.89439342  0.09923015  0.30227615  1
  Nb  Nb116  1  0.49700638  0.49923000  0.70662627  1
  Nb  Nb117  1  0.30400629  0.90321460  0.29557522  1
  Nb  Nb118  1  0.30179296  0.10448937  0.69351928  1
  Nb  Nb119  1  0.49775157  0.10458854  0.09272401  1
  Nb  Nb120  1  0.09963523  0.90051645  0.70145340  1
  Nb  Nb121  1  0.69689261  0.09888616  0.90296303  1
  Nb  Nb122  1  0.69968365  0.29752663  0.49945697  1
  Nb  Nb123  1  0.50510797  0.10391347  0.90399995  1
  Nb  Nb124  1  0.49786254  0.69777448  0.70035360  1
  Nb  Nb125  1  0.39744821  0.39820023  0.60083766  1
  Nb  Nb126  1  0.39282694  0.20240633  0.60048498  1
  Nb  Nb127  1  0.40613858  0.59698429  0.60678660  1
  Nb  Nb128  1  0.19489075  0.80968412  0.59773051  1
  Nb  Nb129  1  0.20309387  0.59869743  -0.00410629  1
  Nb  Nb130  1  0.39206079  0.00567068  0.60202049  1
  Nb  Nb131  1  0.79707793  0.79383104  0.79505645  1
  Nb  Nb132  1  0.40114600  0.59867038  0.79790230  1
  Nb  Nb133  1  0.20197128  0.59703020  0.80275400  1
  Nb  Nb134  1  0.00292659  0.80363409  -0.00051604  1
  Nb  Nb135  1  0.79956429  0.59704052  0.79968389  1
  Nb  Nb136  1  0.60123704  -0.00101445  0.39884484  1
  Nb  Nb137  1  0.79656917  0.20226889  0.40023367  1
  Nb  Nb138  1  0.20587386  0.39678102  0.59904622  1
  Nb  Nb139  1  0.80414939  -0.00332643  0.60699956  1
  Nb  Nb140  1  0.40888813  0.60008163  0.19078364  1
  Nb  Nb141  1  0.20711157  0.20143653  -0.00176185  1
  Nb  Nb142  1  0.00294087  0.00113700  0.60451912  1
  Nb  Nb143  1  0.20773870  0.80931318  0.19922003  1
  Nb  Nb144  1  0.20321030  0.40098040  0.20532052  1
  Nb  Nb145  1  0.80099547  0.39900619  0.79782857  1
  Nb  Nb146  1  0.80271727  0.20323368  0.20777690  1
  Nb  Nb147  1  0.79470453  0.60306125  0.40113364  1
  Nb  Nb148  1  0.58891352  0.00371867  0.00170726  1
  Nb  Nb149  1  0.60931031  0.19844395  0.39930030  1
  Pd  Pd150  1  0.59698876  0.39469167  0.19904286  1
  Pd  Pd151  1  0.40175678  0.81189482  -0.00216511  1
  Pd  Pd152  1  -0.00291813  -0.00297223  0.19910488  1
  Pd  Pd153  1  0.39660769  0.79443945  0.40642834  1
  Pd  Pd154  1  0.00307999  0.80632306  0.59305338  1
  Pd  Pd155  1  0.19436631  0.00976242  0.38856335  1
  Pd  Pd156  1  0.60136963  0.60468661  0.80546200  1
  Pd  Pd157  1  0.20092868  0.79537292  0.39563108  1
  Pd  Pd158  1  0.79618200  0.40763389  0.60855046  1
  Pd  Pd159  1  0.60841411  0.80611245  0.39330605  1
  Pd  Pd160  1  0.60037384  0.81449197  0.00900117  1
  Pd  Pd161  1  0.59792004  0.39281504  0.39119287  1
  Pd  Pd162  1  0.59536469  -0.00328284  0.59795642  1
  Pd  Pd163  1  0.41222702  0.39080523  -0.00269016  1
  Pd  Pd164  1  0.60569118  0.00034152  0.80523825  1
  Pd  Pd165  1  0.19779835  0.79612246  0.00565336  1
  Pd  Pd166  1  -0.00793205  -0.00495222  -0.00001518  1
  Pd  Pd167  1  0.40743736  0.40068342  0.39898089  1
  Pd  Pd168  1  0.00362715  0.60306885  0.00600993  1
  Pd  Pd169  1  -0.00099032  0.59469149  0.80210496  1
  Pd  Pd170  1  0.79889437  0.58785065  0.60190077  1
  Pd  Pd171  1  0.59482940  -0.00547780  0.19743916  1
  Pd  Pd172  1  0.38922532  0.80371976  0.59459667  1
  Pd  Pd173  1  0.00620229  0.81541920  0.18962683  1
  Pd  Pd174  1  0.20001884  0.19155584  0.81070750  1
  Pd  Pd175  1  0.79790214  0.40338396  0.39708373  1
  Pd  Pd176  1  0.01567813  0.39899279  0.59063775  1
  Pd  Pd177  1  0.80217115  0.19109406  0.59990474  1
  Pd  Pd178  1  -0.00442981  0.20179123  0.40504096  1
  Pd  Pd179  1  0.00498874  0.40403687  0.19638832  1
  Pd  Pd180  1  0.79380488  0.79373905  0.38747528  1
  Pd  Pd181  1  0.40289465  0.01006074  0.20691052  1
  Pd  Pd182  1  0.19203149  0.39799217  0.01136451  1
  Pd  Pd183  1  0.59171248  0.40621691  0.59783086  1
  Pd  Pd184  1  -0.00955797  0.79929211  0.80623187  1
  Pd  Pd185  1  0.19979398  0.60952879  0.39760036  1
  Pd  Pd186  1  0.78920616  0.59686266  -0.00592380  1
  Pd  Pd187  1  0.00089440  0.59920106  0.59319248  1
  Pd  Pd188  1  0.21369314  0.59875473  0.19443539  1
  Pd  Pd189  1  0.19821053  0.00223621  0.21174763  1
  Pd  Pd190  1  0.20219066  -0.00457190  0.60406516  1
  Pd  Pd191  1  0.19310032  0.40096253  0.40204517  1
  Pd  Pd192  1  0.39950874  -0.00360951  0.79592113  1
  Pd  Pd193  1  0.79301435  0.19565264  0.00881634  1
  Pd  Pd194  1  0.39972963  0.40762628  0.20751100  1
  Pd  Pd195  1  0.00955084  0.40214220  0.40938063  1
  Pd  Pd196  1  0.60258198  0.59884856  -0.00380972  1
  Pd  Pd197  1  0.40048660  -0.00473998  -0.00626019  1
  Pd  Pd198  1  0.20695481  0.00861331  0.80355386  1
  Pd  Pd199  1  0.60011472  0.81009357  0.19372208  1
  Rh  Rh200  1  0.20046754  0.79453056  0.79125516  1
  Rh  Rh201  1  0.60285437  0.19953474  0.80294586  1
  Rh  Rh202  1  0.19585298  0.19384291  0.39753169  1
  Rh  Rh203  1  0.00308095  0.00511247  0.40177054  1
  Rh  Rh204  1  0.39863721  0.79782165  0.80087410  1
  Rh  Rh205  1  0.40640669  0.00846054  0.40092618  1
  Rh  Rh206  1  -0.01120957  0.60100153  0.40205620  1
  Rh  Rh207  1  0.00090297  0.19214632  0.59906084  1
  Rh  Rh208  1  0.79254759  0.00177983  0.40786945  1
  Rh  Rh209  1  0.40221443  0.20452036  0.79998788  1
  Rh  Rh210  1  0.21284965  0.01201215  -0.00772944  1
  Rh  Rh211  1  0.00178543  0.39724151  0.00641124  1
  Rh  Rh212  1  -0.00280258  0.39943352  0.80164140  1
  Rh  Rh213  1  0.60463515  0.19477079  0.00322800  1
  Rh  Rh214  1  0.40524517  0.39664754  0.80456544  1
  Rh  Rh215  1  0.39880946  0.59468127  -0.00539174  1
  Rh  Rh216  1  0.60630749  0.20242816  0.20174568  1
  Rh  Rh217  1  0.00628178  0.19863662  -0.00089358  1
  Rh  Rh218  1  0.20752616  0.20139914  0.19937789  1
  Rh  Rh219  1  0.80499643  0.79989632  -0.00423386  1
  Rh  Rh220  1  0.00062873  0.00573001  0.79691087  1
  Rh  Rh221  1  -0.00396315  0.80120656  0.39654328  1
  Rh  Rh222  1  0.59196139  0.19651257  0.59747501  1
  Rh  Rh223  1  0.79902416  0.79692616  0.19847194  1
  Rh  Rh224  1  0.59760362  0.60050917  0.19398075  1
  Rh  Rh225  1  0.40809670  0.60563483  0.39894634  1
  Rh  Rh226  1  0.79638241  0.59967326  0.20514949  1
  Rh  Rh227  1  0.79823191  0.80293908  0.60782359  1
  Rh  Rh228  1  0.60225966  0.79728329  0.60222178  1
  Rh  Rh229  1  0.79567958  0.20289068  0.79895427  1
  Rh  Rh230  1  0.19312669  0.40295334  0.79871000  1
  Rh  Rh231  1  0.80594063  0.00848286  0.19358272  1
  Rh  Rh232  1  0.79239598  -0.00361909  0.79606513  1
  Rh  Rh233  1  -0.01206526  0.19892180  0.19891921  1
  Rh  Rh234  1  0.79293487  0.40366627  -0.00514149  1
  Rh  Rh235  1  0.20597468  0.21026071  0.60207645  1
  Rh  Rh236  1  0.60993674  0.79180738  0.79309072  1
  Rh  Rh237  1  0.40825503  0.19436733  0.40412032  1
  Rh  Rh238  1  0.59155553  0.59393661  0.59751075  1
  Rh  Rh239  1  0.39604578  0.20205804  0.00007032  1
  Rh  Rh240  1  0.20362624  0.60581692  0.60662167  1
  Rh  Rh241  1  0.60541078  0.39490806  0.80309576  1
  Rh  Rh242  1  0.78841729  0.00668637  0.00175122  1
  Rh  Rh243  1  0.39764551  0.19375138  0.19973574  1
  Rh  Rh244  1  0.79532495  0.39572028  0.19865142  1
  Rh  Rh245  1  0.59683663  0.39667668  0.00549388  1
  Rh  Rh246  1  -0.01118109  0.59391227  0.19465428  1
  Rh  Rh247  1  0.39796915  0.79352914  0.20079015  1
  Rh  Rh248  1  -0.00119227  0.19206805  0.80593769  1
  Rh  Rh249  1  0.61164313  0.60182925  0.39419717  1
