# generated using pymatgen
data_ZrScNbPdRh
_symmetry_space_group_name_H-M   'P 1'
_cell_length_a   16.55368005
_cell_length_b   16.55779998
_cell_length_c   16.55646743
_cell_angle_alpha   89.97918499
_cell_angle_beta   89.99600133
_cell_angle_gamma   90.01842922
_symmetry_Int_Tables_number   1
_chemical_formula_structural   ZrScNbPdRh
_chemical_formula_sum   'Zr50 Sc50 Nb50 Pd50 Rh50'
_cell_volume   4538.00338770
_cell_formula_units_Z   50
loop_
 _symmetry_equiv_pos_site_id
 _symmetry_equiv_pos_as_xyz
  1  'x, y, z'
loop_
 _atom_site_type_symbol
 _atom_site_label
 _atom_site_symmetry_multiplicity
 _atom_site_fract_x
 _atom_site_fract_y
 _atom_site_fract_z
 _atom_site_occupancy
  Zr  Zr0  1  0.90306805  0.89222494  0.09807357  1
  Zr  Zr1  1  0.29644643  0.28787849  0.10715153  1
  Zr  Zr2  1  0.29111176  0.29984879  0.69505430  1
  Zr  Zr3  1  0.70314287  0.09787369  0.29769642  1
  Zr  Zr4  1  0.10333703  0.89656438  0.10709111  1
  Zr  Zr5  1  0.49458598  0.30553660  0.30316096  1
  Zr  Zr6  1  0.70640328  0.70403407  0.70318270  1
  Zr  Zr7  1  0.90020996  0.69465699  0.51352279  1
  Zr  Zr8  1  0.90783592  0.10644922  0.09390521  1
  Zr  Zr9  1  0.09721245  0.90064693  0.89727181  1
  Zr  Zr10  1  0.49087292  0.10038094  0.69225795  1
  Zr  Zr11  1  0.71339702  0.29965700  0.30953436  1
  Zr  Zr12  1  0.09905700  0.90157921  0.48555697  1
  Zr  Zr13  1  0.89263483  0.30424758  0.49180190  1
  Zr  Zr14  1  0.70660207  0.30033824  0.09575946  1
  Zr  Zr15  1  0.49818355  0.89958675  0.69886067  1
  Zr  Zr16  1  0.29570162  0.90826852  0.70263186  1
  Zr  Zr17  1  0.69627667  0.69783068  0.89494854  1
  Zr  Zr18  1  0.50619438  0.69155519  0.69980262  1
  Zr  Zr19  1  0.09467129  0.50585139  0.90017124  1
  Zr  Zr20  1  0.09763892  0.69728773  0.50108254  1
  Zr  Zr21  1  0.70462499  0.09891633  0.10149285  1
  Zr  Zr22  1  0.89511046  0.49778172  0.30285028  1
  Zr  Zr23  1  0.70336743  0.90158522  0.88948344  1
  Zr  Zr24  1  0.09296514  0.48566268  0.69722086  1
  Zr  Zr25  1  0.50200327  0.89489480  0.49469007  1
  Zr  Zr26  1  0.69646110  0.49524498  0.10688744  1
  Zr  Zr27  1  0.09027988  0.10111793  0.90276848  1
  Zr  Zr28  1  0.49938860  0.30194100  0.10732706  1
  Zr  Zr29  1  0.50365263  0.89948587  0.29687937  1
  Zr  Zr30  1  0.90628693  0.50143190  0.10561357  1
  Zr  Zr31  1  0.90869727  0.31250089  0.70026297  1
  Zr  Zr32  1  0.89982381  0.69910089  0.09531960  1
  Zr  Zr33  1  0.30207492  0.90109207  0.10109880  1
  Zr  Zr34  1  0.29697004  0.09784735  0.69406359  1
  Zr  Zr35  1  0.07887363  0.70288535  0.70126730  1
  Zr  Zr36  1  0.70633360  0.09877281  0.89760221  1
  Zr  Zr37  1  0.69653529  0.09210737  0.70302249  1
  Zr  Zr38  1  0.69556791  0.70120619  0.09996439  1
  Zr  Zr39  1  0.30373204  0.70380494  0.09708504  1
  Zr  Zr40  1  0.89886790  0.50532034  0.69870197  1
  Zr  Zr41  1  0.30302372  0.49767797  0.69890767  1
  Zr  Zr42  1  0.30142210  0.69834089  0.49602066  1
  Zr  Zr43  1  0.30212761  0.69779536  0.90092736  1
  Zr  Zr44  1  0.70397904  0.09999770  0.50296990  1
  Zr  Zr45  1  0.70812517  0.89783914  0.50663911  1
  Zr  Zr46  1  0.29794460  0.10504096  0.50419240  1
  Zr  Zr47  1  0.10073758  0.30348014  0.30468118  1
  Zr  Zr48  1  0.91055368  0.89873733  0.30446197  1
  Zr  Zr49  1  0.90971841  0.10093469  0.69099346  1
  Sc  Sc50  1  0.10494658  0.10184336  0.31212198  1
  Sc  Sc51  1  0.09718008  0.90526637  0.70498370  1
  Sc  Sc52  1  0.89613678  0.89260367  0.69706905  1
  Sc  Sc53  1  0.31540723  0.69931259  0.69934897  1
  Sc  Sc54  1  0.10560673  0.70519417  0.30686141  1
  Sc  Sc55  1  0.30766765  0.50395581  0.89538825  1
  Sc  Sc56  1  0.69832593  0.69178624  0.29988099  1
  Sc  Sc57  1  0.69286956  0.89615460  0.29928307  1
  Sc  Sc58  1  0.29308698  0.10790421  0.29940463  1
  Sc  Sc59  1  0.09612077  0.70082811  0.09341882  1
  Sc  Sc60  1  0.09870396  0.28409798  0.09760757  1
  Sc  Sc61  1  0.10308721  0.30564227  0.49953103  1
  Sc  Sc62  1  0.90020927  0.30319356  0.90202677  1
  Sc  Sc63  1  0.10289038  0.29342149  0.89604816  1
  Sc  Sc64  1  0.29887907  0.89900499  0.89465745  1
  Sc  Sc65  1  0.49771162  0.30114587  0.69814722  1
  Sc  Sc66  1  0.29347701  0.50242087  0.49247078  1
  Sc  Sc67  1  0.89199784  0.69615841  0.30492325  1
  Sc  Sc68  1  0.28798233  0.89885988  0.30313689  1
  Sc  Sc69  1  0.50343870  0.09888892  0.29787567  1
  Sc  Sc70  1  0.70769009  0.69396575  0.50100747  1
  Sc  Sc71  1  0.30316254  0.70010276  0.30731318  1
  Sc  Sc72  1  0.49680153  0.69928103  0.90033522  1
  Sc  Sc73  1  0.49472240  0.89876126  0.90197056  1
  Sc  Sc74  1  0.50130040  0.30126964  0.50199917  1
  Sc  Sc75  1  0.09124660  0.70486646  0.90089518  1
  Sc  Sc76  1  0.29736917  0.90286343  0.50027253  1
  Sc  Sc77  1  0.50273608  0.89399942  0.09767246  1
  Sc  Sc78  1  0.09847874  0.50480443  0.30262915  1
  Sc  Sc79  1  0.09799905  0.49755768  0.49580936  1
  Sc  Sc80  1  0.90463990  0.29665867  0.30026247  1
  Sc  Sc81  1  0.50235466  0.30635923  0.88819700  1
  Sc  Sc82  1  0.69682909  0.89282066  0.10038895  1
  Sc  Sc83  1  0.09666131  0.51366037  0.10657410  1
  Sc  Sc84  1  0.50390058  0.70272389  0.30698603  1
  Sc  Sc85  1  0.50276984  0.70671474  0.09828044  1
  Sc  Sc86  1  0.29759208  0.51098095  0.09750392  1
  Sc  Sc87  1  0.29957132  0.09637554  0.89413345  1
  Sc  Sc88  1  0.50258618  0.50051299  0.70268811  1
  Sc  Sc89  1  0.69820777  0.49240785  0.49940678  1
  Sc  Sc90  1  0.89639814  0.49735581  0.88905324  1
  Sc  Sc91  1  0.69796759  0.50428782  0.70407745  1
  Sc  Sc92  1  0.90012422  0.70246322  0.89161418  1
  Sc  Sc93  1  0.30065896  0.29781108  0.30811869  1
  Sc  Sc94  1  0.30030616  0.30062774  0.89332814  1
  Sc  Sc95  1  0.90329899  0.29993752  0.10900075  1
  Sc  Sc96  1  0.49301380  0.69624760  0.50408934  1
  Sc  Sc97  1  0.90471122  0.89913174  0.50584786  1
  Sc  Sc98  1  0.69127193  0.30946035  0.69776045  1
  Sc  Sc99  1  0.49919840  0.09612992  0.88483794  1
  Nb  Nb100  1  0.50514648  0.49434445  0.10674649  1
  Nb  Nb101  1  0.49788551  0.09877003  0.50343800  1
  Nb  Nb102  1  0.50125029  0.49543757  0.49876157  1
  Nb  Nb103  1  0.50055866  0.49830212  0.89996753  1
  Nb  Nb104  1  0.29902024  0.30377139  0.49970621  1
  Nb  Nb105  1  0.29778524  0.10218417  0.10270453  1
  Nb  Nb106  1  0.69959945  0.90063879  0.69764145  1
  Nb  Nb107  1  0.29826532  0.50061664  0.29838895  1
  Nb  Nb108  1  0.50727606  0.49903868  0.29820490  1
  Nb  Nb109  1  0.89794307  0.09557216  0.90021532  1
  Nb  Nb110  1  0.89622531  0.69550370  0.70063716  1
  Nb  Nb111  1  0.69785783  0.49157534  0.89812746  1
  Nb  Nb112  1  0.50086988  0.09939708  0.09943534  1
  Nb  Nb113  1  0.90067422  0.10420081  0.30269216  1
  Nb  Nb114  1  0.89559186  0.50413527  0.50397330  1
  Nb  Nb115  1  0.10061404  0.10887171  0.69848046  1
  Nb  Nb116  1  0.10266928  0.90749823  0.30108084  1
  Nb  Nb117  1  0.11094704  0.10218385  0.10071984  1
  Nb  Nb118  1  0.90479053  0.10036032  0.49635119  1
  Nb  Nb119  1  0.68998903  0.50353869  0.30482847  1
  Nb  Nb120  1  0.70391115  0.30533505  0.89690182  1
  Nb  Nb121  1  0.09198704  0.09981564  0.50126254  1
  Nb  Nb122  1  0.90157372  0.90590113  0.90235819  1
  Nb  Nb123  1  0.09841203  0.29976650  0.69838095  1
  Nb  Nb124  1  0.69746255  0.30071643  0.49981400  1
  Nb  Nb125  1  0.19891218  0.00425022  0.00578103  1
  Nb  Nb126  1  0.39517436  0.40125321  0.59405728  1
  Nb  Nb127  1  0.80687605  0.00300011  0.39800109  1
  Nb  Nb128  1  0.80120095  0.20289862  0.60151257  1
  Nb  Nb129  1  0.60291615  0.20174024  0.20051891  1
  Nb  Nb130  1  0.39751587  0.00268185  0.19867638  1
  Nb  Nb131  1  0.19658679  0.60338418  0.60662112  1
  Nb  Nb132  1  0.20102985  0.40170244  0.19701303  1
  Nb  Nb133  1  0.00536117  0.00325622  0.20280873  1
  Nb  Nb134  1  0.60264590  0.20060018  0.40136494  1
  Nb  Nb135  1  0.00732710  0.40221957  0.00352395  1
  Nb  Nb136  1  0.59830201  0.19966238  -0.00115029  1
  Nb  Nb137  1  0.40169332  0.00304418  0.39796803  1
  Nb  Nb138  1  0.60115651  0.00608018  -0.00266923  1
  Nb  Nb139  1  0.40050938  0.39946164  0.00516357  1
  Nb  Nb140  1  0.40793076  0.59244643  0.20417523  1
  Nb  Nb141  1  0.80247816  0.19996898  0.79581942  1
  Nb  Nb142  1  0.19594227  0.60275727  0.79190115  1
  Nb  Nb143  1  0.60034952  0.58649660  -0.00110053  1
  Nb  Nb144  1  0.40534349  0.19910473  0.00250774  1
  Nb  Nb145  1  0.20041544  0.40040903  0.00553690  1
  Nb  Nb146  1  0.81249081  -0.00014025  0.20316169  1
  Nb  Nb147  1  0.59920567  -0.00323771  0.60032327  1
  Nb  Nb148  1  0.79174460  0.59435361  -0.00252994  1
  Nb  Nb149  1  0.19618501  0.79512298  0.60211961  1
  Pd  Pd150  1  0.19788869  0.40510766  0.80924963  1
  Pd  Pd151  1  0.00707099  -0.00226286  0.00867500  1
  Pd  Pd152  1  0.20155107  0.79112579  0.20384076  1
  Pd  Pd153  1  -0.00383704  0.60114256  0.39815057  1
  Pd  Pd154  1  0.80325834  0.20502108  -0.00714984  1
  Pd  Pd155  1  0.00636447  -0.00621147  0.60054114  1
  Pd  Pd156  1  0.20028671  0.80584385  -0.00396729  1
  Pd  Pd157  1  0.60342391  0.79784577  0.59684661  1
  Pd  Pd158  1  0.60239066  0.19802631  0.59743078  1
  Pd  Pd159  1  0.60991657  0.39033911  0.21150475  1
  Pd  Pd160  1  0.80019204  0.80389650  0.39965255  1
  Pd  Pd161  1  0.79669922  -0.00782247  0.00806031  1
  Pd  Pd162  1  0.79947211  0.40089328  0.20619487  1
  Pd  Pd163  1  0.79510695  0.39971174  0.60287509  1
  Pd  Pd164  1  -0.00694365  0.20372371  0.80448155  1
  Pd  Pd165  1  0.60498244  0.59562938  0.59470620  1
  Pd  Pd166  1  0.19991784  0.19426246  0.80022221  1
  Pd  Pd167  1  0.60075211  0.00522359  0.40681675  1
  Pd  Pd168  1  0.38737604  0.40838658  0.19584540  1
  Pd  Pd169  1  0.00483084  0.79404269  0.20662408  1
  Pd  Pd170  1  0.41185773  0.59488784  0.00856590  1
  Pd  Pd171  1  0.19891133  0.59842783  -0.00768766  1
  Pd  Pd172  1  -0.00110695  0.21153007  0.59026619  1
  Pd  Pd173  1  0.19857680  0.78972664  0.79150377  1
  Pd  Pd174  1  0.40441275  0.59273444  0.39400486  1
  Pd  Pd175  1  0.20534431  0.60386303  0.20471954  1
  Pd  Pd176  1  0.59411315  0.80221635  0.80256566  1
  Pd  Pd177  1  0.79955852  0.79502294  -0.00937229  1
  Pd  Pd178  1  0.39634013  0.20187903  0.80107589  1
  Pd  Pd179  1  0.40560156  0.19386690  0.40379337  1
  Pd  Pd180  1  -0.00480115  -0.00106370  0.79448680  1
  Pd  Pd181  1  -0.00432733  0.78985057  0.40232997  1
  Pd  Pd182  1  0.60659255  0.20574994  0.80249161  1
  Pd  Pd183  1  0.59865439  0.60188143  0.40994809  1
  Pd  Pd184  1  0.18810902  -0.00452440  0.59623605  1
  Pd  Pd185  1  0.00140071  0.61163412  0.21082739  1
  Pd  Pd186  1  0.59346075  0.39498332  -0.00521924  1
  Pd  Pd187  1  0.60818788  0.78829486  0.40580179  1
  Pd  Pd188  1  0.19182405  0.20223819  0.59390951  1
  Pd  Pd189  1  0.81292136  0.00156788  0.79068201  1
  Pd  Pd190  1  -0.00332535  0.40404830  0.40237338  1
  Pd  Pd191  1  0.40293661  0.79962841  0.79959087  1
  Pd  Pd192  1  0.39979020  0.79930659  0.20700880  1
  Pd  Pd193  1  0.00875214  0.19347007  0.20666850  1
  Pd  Pd194  1  0.39754676  0.40691051  0.40517091  1
  Pd  Pd195  1  0.39186002  0.80496950  0.59852307  1
  Pd  Pd196  1  0.79672957  0.80317378  0.20762238  1
  Pd  Pd197  1  0.79753724  0.59909515  0.19752159  1
  Pd  Pd198  1  0.81229277  0.40588258  0.00051747  1
  Pd  Pd199  1  0.39937330  0.00512747  0.00161760  1
  Rh  Rh200  1  -0.00172380  0.39984707  0.58997979  1
  Rh  Rh201  1  0.60073205  0.79407242  0.20292893  1
  Rh  Rh202  1  0.39801873  0.21313233  0.59687861  1
  Rh  Rh203  1  0.39732610  -0.00153743  0.79846375  1
  Rh  Rh204  1  0.00299364  0.20188363  0.40396240  1
  Rh  Rh205  1  -0.00251647  0.00747776  0.39545373  1
  Rh  Rh206  1  0.39838818  0.58750809  0.59299658  1
  Rh  Rh207  1  0.59129753  0.40467020  0.59852619  1
  Rh  Rh208  1  0.19767882  0.59894627  0.40284275  1
  Rh  Rh209  1  0.39727788  0.81101988  0.39575301  1
  Rh  Rh210  1  0.59267928  -0.00752105  0.79774069  1
  Rh  Rh211  1  0.00244202  0.58971799  0.59993254  1
  Rh  Rh212  1  0.19333046  0.00982992  0.80560866  1
  Rh  Rh213  1  -0.00524291  0.20676010  -0.00518585  1
  Rh  Rh214  1  0.20302844  0.40266210  0.39147538  1
  Rh  Rh215  1  0.40649032  0.18923325  0.20008000  1
  Rh  Rh216  1  0.21020205  0.19589601  -0.00952528  1
  Rh  Rh217  1  0.59993575  0.80467704  -0.00714129  1
  Rh  Rh218  1  0.79810910  0.40919346  0.39979270  1
  Rh  Rh219  1  0.80070109  0.19708083  0.19830311  1
  Rh  Rh220  1  -0.00109859  0.59847673  0.80002670  1
  Rh  Rh221  1  0.39762448  0.79958076  -0.00348236  1
  Rh  Rh222  1  0.59203078  0.60384577  0.19629524  1
  Rh  Rh223  1  0.01333958  0.39718863  0.19249837  1
  Rh  Rh224  1  0.40578146  -0.00800859  0.59057757  1
  Rh  Rh225  1  0.79749103  0.59829436  0.80356677  1
  Rh  Rh226  1  0.00609507  0.39348228  0.81065914  1
  Rh  Rh227  1  0.80192597  0.79501831  0.60373244  1
  Rh  Rh228  1  0.59775250  -0.00080130  0.18821646  1
  Rh  Rh229  1  0.20567786  0.00764017  0.40472444  1
  Rh  Rh230  1  0.79965970  0.00455969  0.59789290  1
  Rh  Rh231  1  -0.01474176  0.59684469  -0.00557448  1
  Rh  Rh232  1  0.80520386  0.80409244  0.79926708  1
  Rh  Rh233  1  0.60162441  0.39433542  0.39902014  1
  Rh  Rh234  1  0.40232319  0.60058586  0.80017739  1
  Rh  Rh235  1  0.40273925  0.40088694  0.79591022  1
  Rh  Rh236  1  -0.01110854  0.80820165  0.80298070  1
  Rh  Rh237  1  0.59963640  0.40266098  0.79682217  1
  Rh  Rh238  1  0.19734381  0.20155602  0.40944097  1
  Rh  Rh239  1  0.20096051  0.00416910  0.19833767  1
  Rh  Rh240  1  0.79549095  0.39473763  0.79409931  1
  Rh  Rh241  1  0.79476628  0.59597378  0.60253990  1
  Rh  Rh242  1  0.79783200  0.59188376  0.40325249  1
  Rh  Rh243  1  0.20225489  0.80053644  0.40536103  1
  Rh  Rh244  1  0.00407332  0.80762803  0.59762368  1
  Rh  Rh245  1  0.20361356  0.40337746  0.59562440  1
  Rh  Rh246  1  0.79995949  0.19448102  0.40911082  1
  Rh  Rh247  1  0.19457296  0.20558678  0.21178615  1
  Rh  Rh248  1  -0.00242945  0.80086634  -0.00536732  1
  Rh  Rh249  1  0.59790535  0.59480642  0.80779109  1
