# generated using pymatgen
data_ZrScNbPdRh
_symmetry_space_group_name_H-M   'P 1'
_cell_length_a   16.56074438
_cell_length_b   16.55908471
_cell_length_c   16.56139413
_cell_angle_alpha   89.99122813
_cell_angle_beta   89.98782552
_cell_angle_gamma   89.96481755
_symmetry_Int_Tables_number   1
_chemical_formula_structural   ZrScNbPdRh
_chemical_formula_sum   'Zr50 Sc50 Nb50 Pd50 Rh50'
_cell_volume   4541.64283693
_cell_formula_units_Z   50
loop_
 _symmetry_equiv_pos_site_id
 _symmetry_equiv_pos_as_xyz
  1  'x, y, z'
loop_
 _atom_site_type_symbol
 _atom_site_label
 _atom_site_symmetry_multiplicity
 _atom_site_fract_x
 _atom_site_fract_y
 _atom_site_fract_z
 _atom_site_occupancy
  Zr  Zr0  1  0.69910987  0.30110182  0.90503753  1
  Zr  Zr1  1  0.30203944  0.89856661  0.50429271  1
  Zr  Zr2  1  0.31112884  0.50558407  0.50086830  1
  Zr  Zr3  1  0.50651697  0.70151171  0.71868392  1
  Zr  Zr4  1  0.69198734  0.10102139  0.49256466  1
  Zr  Zr5  1  0.10810007  0.10827822  0.68958863  1
  Zr  Zr6  1  0.48255142  0.50109017  0.30444106  1
  Zr  Zr7  1  0.90775586  0.29196353  0.10369567  1
  Zr  Zr8  1  0.09679671  0.50395693  0.49555802  1
  Zr  Zr9  1  0.30175440  0.90969252  0.11073268  1
  Zr  Zr10  1  0.89930142  0.30028694  0.30301498  1
  Zr  Zr11  1  0.89932026  0.69645256  0.09916336  1
  Zr  Zr12  1  0.90456102  0.89831697  0.69703344  1
  Zr  Zr13  1  0.89758567  0.69372775  0.49776231  1
  Zr  Zr14  1  0.30696385  0.10580299  0.89838961  1
  Zr  Zr15  1  0.09848298  0.70444915  0.89849457  1
  Zr  Zr16  1  0.10078542  0.69563835  0.50340369  1
  Zr  Zr17  1  0.49436087  0.90743483  0.49814916  1
  Zr  Zr18  1  0.10482265  0.49676410  0.10499599  1
  Zr  Zr19  1  0.70266043  0.69367805  0.69910626  1
  Zr  Zr20  1  0.09852483  0.10029472  0.90558312  1
  Zr  Zr21  1  0.89744064  0.90309702  0.90033288  1
  Zr  Zr22  1  0.09991488  0.30189126  0.09352723  1
  Zr  Zr23  1  0.49337989  0.90140734  0.70172401  1
  Zr  Zr24  1  0.90107557  0.30577425  0.50249910  1
  Zr  Zr25  1  0.10167097  0.90842756  0.50307467  1
  Zr  Zr26  1  0.70096682  0.10154885  0.69720727  1
  Zr  Zr27  1  0.10488685  0.09789052  0.49792764  1
  Zr  Zr28  1  0.89507300  0.10218864  0.29083031  1
  Zr  Zr29  1  0.30999667  0.29979684  0.50181394  1
  Zr  Zr30  1  0.90554439  0.08702855  0.49619944  1
  Zr  Zr31  1  0.90527908  0.49661597  0.31377160  1
  Zr  Zr32  1  0.69163465  0.70013224  0.89067495  1
  Zr  Zr33  1  0.50445473  0.29648195  0.09990844  1
  Zr  Zr34  1  0.90455911  0.10162121  0.09062410  1
  Zr  Zr35  1  0.89171676  0.49952165  0.70272875  1
  Zr  Zr36  1  0.71136689  0.49788886  0.50285579  1
  Zr  Zr37  1  0.10416779  0.09418148  0.30430134  1
  Zr  Zr38  1  0.49638852  0.70588169  0.90631142  1
  Zr  Zr39  1  0.30116745  0.09347545  0.29907950  1
  Zr  Zr40  1  0.49409887  0.50333596  0.89636817  1
  Zr  Zr41  1  0.70462046  0.89790112  0.49176450  1
  Zr  Zr42  1  0.70351377  0.50260851  0.70524462  1
  Zr  Zr43  1  0.90614097  0.49989655  0.49756058  1
  Zr  Zr44  1  0.09536292  0.49905335  0.90399144  1
  Zr  Zr45  1  0.50136401  0.70288901  0.28612887  1
  Zr  Zr46  1  0.69774838  0.70936409  0.10798380  1
  Zr  Zr47  1  0.69260586  0.28762571  0.30286338  1
  Zr  Zr48  1  0.29054104  0.70047530  0.50982379  1
  Zr  Zr49  1  0.69816847  0.09957215  0.09744900  1
  Sc  Sc50  1  0.30369082  0.29253243  0.29792031  1
  Sc  Sc51  1  0.70537509  0.69707890  0.29632950  1
  Sc  Sc52  1  0.89504471  0.88942826  0.09230573  1
  Sc  Sc53  1  0.49156975  0.29903506  0.68501118  1
  Sc  Sc54  1  0.49831359  0.89265515  0.09883365  1
  Sc  Sc55  1  0.70064475  0.29736117  0.50140985  1
  Sc  Sc56  1  0.30198980  0.70258175  0.30284395  1
  Sc  Sc57  1  0.49273593  0.10546813  0.50141514  1
  Sc  Sc58  1  0.10097941  0.29698725  0.29120281  1
  Sc  Sc59  1  0.29791489  0.49429344  0.10962143  1
  Sc  Sc60  1  0.89721009  0.09617504  0.69357696  1
  Sc  Sc61  1  0.09424443  0.50474061  0.70537804  1
  Sc  Sc62  1  0.30465818  0.09759409  0.09715279  1
  Sc  Sc63  1  0.70023753  0.90464194  0.90593526  1
  Sc  Sc64  1  0.30411777  0.69778853  0.89485108  1
  Sc  Sc65  1  0.30460483  0.30105884  0.10248898  1
  Sc  Sc66  1  0.49037307  0.29583750  0.90856672  1
  Sc  Sc67  1  0.10370104  0.70819846  0.70555596  1
  Sc  Sc68  1  0.69844585  0.49472812  0.10657419  1
  Sc  Sc69  1  0.71109736  0.49739901  0.29902911  1
  Sc  Sc70  1  0.71048307  0.30506595  0.68930066  1
  Sc  Sc71  1  0.48145819  0.69656514  0.49359905  1
  Sc  Sc72  1  0.90262051  0.30801572  0.90428938  1
  Sc  Sc73  1  0.89886861  0.49432389  0.10393632  1
  Sc  Sc74  1  0.49868700  0.09739312  0.69472446  1
  Sc  Sc75  1  0.89587179  0.69765468  0.30054576  1
  Sc  Sc76  1  0.29862021  0.09757866  0.49860958  1
  Sc  Sc77  1  0.70499382  0.49920402  0.89503759  1
  Sc  Sc78  1  0.50077673  0.10266368  0.30823327  1
  Sc  Sc79  1  0.69285957  0.29884762  0.10004989  1
  Sc  Sc80  1  0.08971015  0.70604505  0.10024518  1
  Sc  Sc81  1  0.10687126  0.70291817  0.30071624  1
  Sc  Sc82  1  0.70376780  0.89624211  0.29700320  1
  Sc  Sc83  1  0.90050735  0.50267211  0.89621807  1
  Sc  Sc84  1  0.90806028  0.70606867  0.90881072  1
  Sc  Sc85  1  0.49820831  0.09775195  0.90422475  1
  Sc  Sc86  1  0.69653400  0.90821199  0.70441129  1
  Sc  Sc87  1  0.30948100  0.90484615  0.90249761  1
  Sc  Sc88  1  0.30385656  0.50885935  0.70014708  1
  Sc  Sc89  1  0.30336188  0.49615684  0.89632890  1
  Sc  Sc90  1  0.31081844  0.70291407  0.09976553  1
  Sc  Sc91  1  0.49685730  0.29414691  0.29849021  1
  Sc  Sc92  1  0.89508274  0.90289412  0.30703208  1
  Sc  Sc93  1  0.09961007  0.10106621  0.09865705  1
  Sc  Sc94  1  0.30327581  0.10637913  0.69387155  1
  Sc  Sc95  1  0.49434004  0.49815419  0.69646185  1
  Sc  Sc96  1  0.49270870  0.49463782  0.10553279  1
  Sc  Sc97  1  0.70159304  0.09088503  0.90574186  1
  Sc  Sc98  1  0.09381308  0.29525543  0.50937768  1
  Sc  Sc99  1  0.49818533  0.09888916  0.09238499  1
  Nb  Nb100  1  0.50402661  0.90167464  0.89827778  1
  Nb  Nb101  1  0.89571280  0.70084598  0.70136780  1
  Nb  Nb102  1  0.10601258  0.30536727  0.88839323  1
  Nb  Nb103  1  0.29239779  0.89411608  0.69603407  1
  Nb  Nb104  1  0.10226766  0.29760051  0.70338799  1
  Nb  Nb105  1  0.29129503  0.49524793  0.29965898  1
  Nb  Nb106  1  0.30263194  0.90412634  0.29762273  1
  Nb  Nb107  1  0.50565955  0.69822434  0.10172443  1
  Nb  Nb108  1  0.49531217  0.30939465  0.49608434  1
  Nb  Nb109  1  0.10772050  0.90089478  0.29466110  1
  Nb  Nb110  1  0.49269348  0.90085745  0.29677687  1
  Nb  Nb111  1  0.29325867  0.70801399  0.69984270  1
  Nb  Nb112  1  0.10382783  0.89825917  0.70744622  1
  Nb  Nb113  1  0.29196527  0.29710019  0.88798820  1
  Nb  Nb114  1  0.10111987  0.89720647  0.89754759  1
  Nb  Nb115  1  0.10413721  0.89988134  0.10201373  1
  Nb  Nb116  1  0.10504774  0.50029024  0.30118745  1
  Nb  Nb117  1  0.28698016  0.29653846  0.70354527  1
  Nb  Nb118  1  0.90340691  0.89577240  0.49753385  1
  Nb  Nb119  1  0.69765215  0.69866631  0.49638446  1
  Nb  Nb120  1  0.69849110  0.90313210  0.09810775  1
  Nb  Nb121  1  0.90238433  0.10086775  0.89764453  1
  Nb  Nb122  1  0.90884240  0.29947762  0.70068497  1
  Nb  Nb123  1  0.49360490  0.49592206  0.50018954  1
  Nb  Nb124  1  0.69382943  0.10116413  0.29611500  1
  Nb  Nb125  1  -0.00021639  0.20081211  0.79902414  1
  Nb  Nb126  1  0.59609037  0.59719541  0.40424032  1
  Nb  Nb127  1  0.00464532  -0.00932894  0.19828941  1
  Nb  Nb128  1  0.60570879  0.20523847  0.79809886  1
  Nb  Nb129  1  0.59752080  0.60165759  0.59160498  1
  Nb  Nb130  1  0.59561432  0.79549266  0.40053668  1
  Nb  Nb131  1  0.59332454  0.40495837  0.40542613  1
  Nb  Nb132  1  -0.00145196  0.19456499  0.39961847  1
  Nb  Nb133  1  0.59712528  0.60391960  0.00575302  1
  Nb  Nb134  1  0.60264877  -0.00135032  0.20109075  1
  Nb  Nb135  1  0.80417581  0.19961238  0.80129495  1
  Nb  Nb136  1  0.19831500  0.80469921  0.00023159  1
  Nb  Nb137  1  0.19788762  -0.00356525  0.79773499  1
  Nb  Nb138  1  0.20115825  0.40328063  0.40250628  1
  Nb  Nb139  1  0.00427182  0.59363575  0.20608179  1
  Nb  Nb140  1  0.20078427  0.39921518  0.60192901  1
  Nb  Nb141  1  0.79219282  0.60576301  0.00370493  1
  Nb  Nb142  1  0.00248031  0.80684897  0.40314657  1
  Nb  Nb143  1  0.59793179  0.39208138  0.79831963  1
  Nb  Nb144  1  0.00695338  0.00268666  0.80069476  1
  Nb  Nb145  1  0.19710344  0.60347158  0.00091162  1
  Nb  Nb146  1  0.60064058  0.79470075  0.59371127  1
  Nb  Nb147  1  0.20126149  0.20882200  -0.00990050  1
  Nb  Nb148  1  0.80196767  0.79923810  0.79562035  1
  Nb  Nb149  1  0.79890019  0.79745031  0.59899122  1
  Pd  Pd150  1  0.40536303  0.19229266  0.19778899  1
  Pd  Pd151  1  0.80493116  0.19636976  0.40566262  1
  Pd  Pd152  1  0.19557298  0.21106368  0.40428427  1
  Pd  Pd153  1  0.20722765  0.79401063  0.19305891  1
  Pd  Pd154  1  0.39199025  0.60023682  0.19879309  1
  Pd  Pd155  1  0.41124912  0.20387229  0.79421224  1
  Pd  Pd156  1  0.39493624  0.80573869  0.00321363  1
  Pd  Pd157  1  0.21013122  0.40117412  -0.00213884  1
  Pd  Pd158  1  0.59647407  0.20300187  0.59941890  1
  Pd  Pd159  1  0.39384801  0.00177660  0.79460857  1
  Pd  Pd160  1  0.39979933  0.79982809  0.39472390  1
  Pd  Pd161  1  0.20506495  0.00065805  -0.00435274  1
  Pd  Pd162  1  0.00110569  0.79623898  0.59686984  1
  Pd  Pd163  1  0.80207279  -0.00486164  0.19270216  1
  Pd  Pd164  1  0.59942824  -0.00404078  0.59682295  1
  Pd  Pd165  1  0.20244570  0.59778287  0.80468687  1
  Pd  Pd166  1  0.80520471  0.80509212  0.20355311  1
  Pd  Pd167  1  0.00595344  0.40463633  0.60699109  1
  Pd  Pd168  1  0.79913553  0.19953172  -0.00421520  1
  Pd  Pd169  1  0.20092908  0.41397662  0.79071138  1
  Pd  Pd170  1  0.00129290  0.60335951  0.61020665  1
  Pd  Pd171  1  0.19808145  0.61134867  0.19262289  1
  Pd  Pd172  1  0.79824614  0.39091032  0.20134148  1
  Pd  Pd173  1  0.59474938  0.40377803  0.21318402  1
  Pd  Pd174  1  0.40682574  0.61164948  0.61154867  1
  Pd  Pd175  1  0.40707390  0.79296511  0.60607379  1
  Pd  Pd176  1  0.60215774  0.80222907  -0.00083490  1
  Pd  Pd177  1  -0.00084034  -0.00857999  0.00316088  1
  Pd  Pd178  1  0.59770387  -0.00717275  0.38937239  1
  Pd  Pd179  1  0.79505508  -0.00597935  0.59595118  1
  Pd  Pd180  1  0.20185023  0.19620093  0.18895365  1
  Pd  Pd181  1  0.80165856  0.40691086  0.00362319  1
  Pd  Pd182  1  0.19670447  0.80631120  0.40206334  1
  Pd  Pd183  1  0.59657490  0.00748703  0.80407597  1
  Pd  Pd184  1  0.39748962  0.59498349  0.00633572  1
  Pd  Pd185  1  -0.00575731  0.80245421  0.21087954  1
  Pd  Pd186  1  -0.00384351  0.40210624  -0.00116820  1
  Pd  Pd187  1  0.39300236  0.39706610  0.00005111  1
  Pd  Pd188  1  -0.00443340  0.60628834  0.79853521  1
  Pd  Pd189  1  0.79403614  0.20461296  0.19291882  1
  Pd  Pd190  1  0.39310263  0.80340838  0.80202541  1
  Pd  Pd191  1  0.60113091  0.58871267  0.20342317  1
  Pd  Pd192  1  0.79603728  0.00455868  0.39575278  1
  Pd  Pd193  1  0.20579293  0.59804013  0.39941831  1
  Pd  Pd194  1  0.60029231  0.40638097  0.60102227  1
  Pd  Pd195  1  0.40376667  0.39134315  0.79311333  1
  Pd  Pd196  1  0.00533745  0.00099977  0.60784025  1
  Pd  Pd197  1  0.59732146  0.41134533  -0.00579602  1
  Pd  Pd198  1  0.80680666  0.19717730  0.59780538  1
  Pd  Pd199  1  0.00147422  0.40365291  0.20576328  1
  Rh  Rh200  1  0.80259853  0.79503568  0.40242909  1
  Rh  Rh201  1  -0.00697572  0.80434321  0.80067892  1
  Rh  Rh202  1  0.21012577  -0.00866476  0.39982715  1
  Rh  Rh203  1  0.41124410  0.00364048  0.20273269  1
  Rh  Rh204  1  0.80003325  0.60141242  0.59649968  1
  Rh  Rh205  1  0.39050646  0.20584602  0.00064137  1
  Rh  Rh206  1  0.20622272  0.20918968  0.59161832  1
  Rh  Rh207  1  0.00878876  0.21243109  -0.01212439  1
  Rh  Rh208  1  0.00836859  0.80844435  0.00093649  1
  Rh  Rh209  1  -0.00125936  0.39666172  0.79732737  1
  Rh  Rh210  1  0.81232788  0.61319886  0.81592431  1
  Rh  Rh211  1  0.81016708  0.59558752  0.19602484  1
  Rh  Rh212  1  0.79478758  0.59971352  0.39664457  1
  Rh  Rh213  1  0.78725101  0.79285896  -0.00845205  1
  Rh  Rh214  1  0.20532695  -0.00258485  0.60652054  1
  Rh  Rh215  1  0.19648078  0.00545486  0.19998246  1
  Rh  Rh216  1  0.80820656  0.00120014  0.80229883  1
  Rh  Rh217  1  0.39836053  0.39444846  0.20335264  1
  Rh  Rh218  1  0.39695406  0.20090481  0.59888909  1
  Rh  Rh219  1  0.39825228  0.80136817  0.19759229  1
  Rh  Rh220  1  0.60007140  0.19526982  -0.00578394  1
  Rh  Rh221  1  0.40155619  0.19878430  0.40137493  1
  Rh  Rh222  1  0.39554585  0.00133588  0.39937669  1
  Rh  Rh223  1  0.80323709  0.00129518  0.00445075  1
  Rh  Rh224  1  0.59887154  0.81103351  0.20719558  1
  Rh  Rh225  1  0.39410107  0.60505004  0.39411689  1
  Rh  Rh226  1  0.78854020  0.39120041  0.39793014  1
  Rh  Rh227  1  0.00008036  0.59130163  0.01214954  1
  Rh  Rh228  1  0.00595396  0.18861918  0.20681532  1
  Rh  Rh229  1  0.21040656  0.80663067  0.80893909  1
  Rh  Rh230  1  0.19694203  0.59622683  0.60902627  1
  Rh  Rh231  1  0.80783980  0.40094866  0.60061226  1
  Rh  Rh232  1  0.40731605  -0.00632652  -0.00024482  1
  Rh  Rh233  1  0.60624526  0.81568607  0.79674826  1
  Rh  Rh234  1  0.59325666  0.58358634  0.80027088  1
  Rh  Rh235  1  0.39558277  0.39442537  0.39165760  1
  Rh  Rh236  1  0.59382993  -0.00645432  0.00668688  1
  Rh  Rh237  1  0.01388436  0.38592135  0.39631904  1
  Rh  Rh238  1  0.00056786  -0.00367325  0.38861651  1
  Rh  Rh239  1  -0.00648893  0.19566428  0.59786083  1
  Rh  Rh240  1  0.39658983  0.60628363  0.79646459  1
  Rh  Rh241  1  0.38743558  0.39792369  0.60865958  1
  Rh  Rh242  1  0.59334827  0.20709255  0.40801414  1
  Rh  Rh243  1  0.19466497  0.18934392  0.80480230  1
  Rh  Rh244  1  0.39337264  0.00254469  0.60333030  1
  Rh  Rh245  1  0.00373884  0.61310165  0.38948870  1
  Rh  Rh246  1  0.20416714  0.39058110  0.20898387  1
  Rh  Rh247  1  0.59422497  0.18897774  0.19589222  1
  Rh  Rh248  1  0.19150435  0.80241087  0.59945197  1
  Rh  Rh249  1  0.79818842  0.38897630  0.79853095  1
