# generated using pymatgen
data_ZrScNbPdRh
_symmetry_space_group_name_H-M   'P 1'
_cell_length_a   16.56381404
_cell_length_b   16.55537115
_cell_length_c   16.56878830
_cell_angle_alpha   90.02212455
_cell_angle_beta   90.04194559
_cell_angle_gamma   90.00560230
_symmetry_Int_Tables_number   1
_chemical_formula_structural   ZrScNbPdRh
_chemical_formula_sum   'Zr50 Sc50 Nb50 Pd50 Rh50'
_cell_volume   4543.49302535
_cell_formula_units_Z   50
loop_
 _symmetry_equiv_pos_site_id
 _symmetry_equiv_pos_as_xyz
  1  'x, y, z'
loop_
 _atom_site_type_symbol
 _atom_site_label
 _atom_site_symmetry_multiplicity
 _atom_site_fract_x
 _atom_site_fract_y
 _atom_site_fract_z
 _atom_site_occupancy
  Zr  Zr0  1  0.69588370  0.70701277  0.71034714  1
  Zr  Zr1  1  0.29490975  0.09689958  0.89680339  1
  Zr  Zr2  1  0.70698022  0.29945583  0.28746236  1
  Zr  Zr3  1  0.89735291  0.90251788  0.09210124  1
  Zr  Zr4  1  0.49818926  0.29607556  0.10442312  1
  Zr  Zr5  1  0.49758341  0.50105328  0.70227051  1
  Zr  Zr6  1  0.50404097  0.50663554  0.51055100  1
  Zr  Zr7  1  0.89923139  0.69889480  0.09552078  1
  Zr  Zr8  1  0.90426321  0.90417425  0.30613838  1
  Zr  Zr9  1  0.29893016  0.10486102  0.49429813  1
  Zr  Zr10  1  0.50096826  0.70554999  0.12007483  1
  Zr  Zr11  1  0.70527511  0.70689947  0.90446059  1
  Zr  Zr12  1  0.69370342  0.09620224  0.69925870  1
  Zr  Zr13  1  0.30991151  0.89935177  0.10156882  1
  Zr  Zr14  1  0.49840961  0.29591647  0.89347534  1
  Zr  Zr15  1  0.50473791  0.90471959  0.70369171  1
  Zr  Zr16  1  0.90116427  0.70255651  0.90916631  1
  Zr  Zr17  1  0.29449604  0.29480587  0.10212075  1
  Zr  Zr18  1  0.49644282  0.69093925  0.69537255  1
  Zr  Zr19  1  0.29114441  0.50116203  0.30541599  1
  Zr  Zr20  1  0.69841528  0.29361445  0.70666954  1
  Zr  Zr21  1  0.50560903  0.09670770  0.90046178  1
  Zr  Zr22  1  0.49930103  0.29517655  0.30001825  1
  Zr  Zr23  1  0.50121728  0.70103136  0.89328971  1
  Zr  Zr24  1  0.71227094  0.48816549  0.90507068  1
  Zr  Zr25  1  0.10020119  0.49699575  0.10451727  1
  Zr  Zr26  1  0.70513771  0.30130012  0.49781212  1
  Zr  Zr27  1  0.89718889  0.90077448  0.90448420  1
  Zr  Zr28  1  0.09649957  0.10926494  0.09996460  1
  Zr  Zr29  1  0.09794458  0.30191454  0.50477991  1
  Zr  Zr30  1  0.10960791  0.29946749  0.90205720  1
  Zr  Zr31  1  0.10658314  0.69603624  0.90051704  1
  Zr  Zr32  1  0.09567596  0.50455496  0.29939035  1
  Zr  Zr33  1  0.10994039  0.49643220  0.69731808  1
  Zr  Zr34  1  0.49560633  0.89440079  0.49467495  1
  Zr  Zr35  1  0.09981280  0.30235907  0.10200441  1
  Zr  Zr36  1  0.68335733  0.70540596  0.29785020  1
  Zr  Zr37  1  0.90823695  0.89407980  0.49949803  1
  Zr  Zr38  1  0.09515777  0.50559968  0.49552583  1
  Zr  Zr39  1  0.28997876  0.49971497  0.50381606  1
  Zr  Zr40  1  0.70025528  0.10450936  0.89975862  1
  Zr  Zr41  1  0.30261860  0.70711751  0.10583848  1
  Zr  Zr42  1  0.29773177  0.89804673  0.70679560  1
  Zr  Zr43  1  0.09797902  0.69387876  0.10810032  1
  Zr  Zr44  1  0.70109400  0.10136963  0.50756750  1
  Zr  Zr45  1  0.09115594  0.30199933  0.29262100  1
  Zr  Zr46  1  0.70229251  0.90148811  0.70410767  1
  Zr  Zr47  1  0.69110084  0.10920589  0.09183606  1
  Zr  Zr48  1  0.89489540  0.09794768  0.09491926  1
  Zr  Zr49  1  0.30597431  0.29410359  0.30031721  1
  Sc  Sc50  1  0.90253766  0.29913411  0.49563527  1
  Sc  Sc51  1  0.10402259  0.89678075  0.30946603  1
  Sc  Sc52  1  0.10923663  0.69703847  0.70289771  1
  Sc  Sc53  1  0.29406176  0.90311868  0.29694051  1
  Sc  Sc54  1  0.09548015  0.90345101  0.49362736  1
  Sc  Sc55  1  0.89503334  0.89746263  0.69703642  1
  Sc  Sc56  1  0.29882728  0.90336657  0.48887379  1
  Sc  Sc57  1  0.69381628  0.69072579  0.49341845  1
  Sc  Sc58  1  0.10318687  0.09926134  0.50532776  1
  Sc  Sc59  1  0.10223322  0.90675111  0.69968140  1
  Sc  Sc60  1  0.09259024  0.09817492  0.89751627  1
  Sc  Sc61  1  0.49674490  0.10432573  0.28952922  1
  Sc  Sc62  1  0.49759876  0.49720444  0.29686911  1
  Sc  Sc63  1  0.90444938  0.29763626  0.69820695  1
  Sc  Sc64  1  0.90449374  0.50036110  0.68895167  1
  Sc  Sc65  1  0.09946409  0.89996016  0.10505965  1
  Sc  Sc66  1  0.50591157  0.89106543  0.29507774  1
  Sc  Sc67  1  0.10283436  0.29892454  0.69923956  1
  Sc  Sc68  1  0.09598234  0.10528335  0.70057084  1
  Sc  Sc69  1  0.30179303  0.49391419  0.11038865  1
  Sc  Sc70  1  0.49581134  0.30223570  0.49310253  1
  Sc  Sc71  1  0.30464885  0.69070559  0.70361140  1
  Sc  Sc72  1  0.49546525  0.90315057  0.89999040  1
  Sc  Sc73  1  0.29868194  0.10038132  0.29852970  1
  Sc  Sc74  1  0.28354006  0.10117891  0.70182354  1
  Sc  Sc75  1  0.70292821  0.49490440  0.30444672  1
  Sc  Sc76  1  0.90819828  0.69302132  0.49840744  1
  Sc  Sc77  1  0.10074411  0.69667758  0.30418514  1
  Sc  Sc78  1  0.90151919  0.29894302  0.10526027  1
  Sc  Sc79  1  0.90036520  0.09872309  0.90212764  1
  Sc  Sc80  1  0.88875537  0.30985274  0.89344259  1
  Sc  Sc81  1  0.89954543  0.10415024  0.70498692  1
  Sc  Sc82  1  0.89931045  0.50433456  0.49547906  1
  Sc  Sc83  1  0.69364206  0.91631079  0.10281740  1
  Sc  Sc84  1  0.10175703  0.10001009  0.30290133  1
  Sc  Sc85  1  0.90393304  0.50055866  0.09048888  1
  Sc  Sc86  1  0.70388376  0.49758818  0.50092591  1
  Sc  Sc87  1  0.69397650  0.49899205  0.69245634  1
  Sc  Sc88  1  0.29561426  0.29786965  0.49593361  1
  Sc  Sc89  1  0.30803436  0.89826922  0.89491097  1
  Sc  Sc90  1  0.10199489  0.49206122  0.90116501  1
  Sc  Sc91  1  0.90221990  0.70267562  0.68983486  1
  Sc  Sc92  1  0.90948899  0.10464557  0.49927792  1
  Sc  Sc93  1  0.70243902  0.10099451  0.28055250  1
  Sc  Sc94  1  0.30470222  0.70353958  0.88892045  1
  Sc  Sc95  1  0.30014378  0.49452937  0.89340927  1
  Sc  Sc96  1  0.50346176  0.10148210  0.49988299  1
  Sc  Sc97  1  0.29083919  0.70652096  0.29556013  1
  Sc  Sc98  1  0.49874339  0.49697971  0.89585983  1
  Sc  Sc99  1  0.70212236  0.90140535  0.51016262  1
  Nb  Nb100  1  0.29822377  0.29800765  0.70900161  1
  Nb  Nb101  1  0.69957738  0.49741051  0.10198788  1
  Nb  Nb102  1  0.30202959  0.29226119  0.89755246  1
  Nb  Nb103  1  0.90104569  0.50862016  0.30489418  1
  Nb  Nb104  1  0.50151143  0.70255881  0.31140331  1
  Nb  Nb105  1  0.69693796  0.29693153  0.90678204  1
  Nb  Nb106  1  0.30303131  0.09601119  0.10232765  1
  Nb  Nb107  1  0.49699643  0.90395377  0.09314205  1
  Nb  Nb108  1  0.49964241  0.50153229  0.09644390  1
  Nb  Nb109  1  0.90213875  0.50450979  0.89655369  1
  Nb  Nb110  1  0.90047966  0.10615810  0.29668709  1
  Nb  Nb111  1  0.10331097  0.89935950  0.90100010  1
  Nb  Nb112  1  0.30407888  0.70173272  0.50153679  1
  Nb  Nb113  1  0.29841854  0.49662950  0.69790552  1
  Nb  Nb114  1  0.89997937  0.29662213  0.30015840  1
  Nb  Nb115  1  0.49723713  0.29615712  0.70331020  1
  Nb  Nb116  1  0.49594540  0.70142128  0.49887315  1
  Nb  Nb117  1  0.69955296  0.89457033  0.89406958  1
  Nb  Nb118  1  0.89385325  0.69706409  0.30079170  1
  Nb  Nb119  1  0.69821416  0.70050313  0.10234202  1
  Nb  Nb120  1  0.10490739  0.70366844  0.49613082  1
  Nb  Nb121  1  0.70014123  0.90166100  0.30283447  1
  Nb  Nb122  1  0.49996929  0.09084690  0.09397529  1
  Nb  Nb123  1  0.70116042  0.30372086  0.09623257  1
  Nb  Nb124  1  0.50882258  0.10138291  0.69726289  1
  Nb  Nb125  1  0.60196859  0.39922960  0.00572259  1
  Nb  Nb126  1  0.59361064  0.79572997  0.59994315  1
  Nb  Nb127  1  0.79648283  0.79888247  0.20165492  1
  Nb  Nb128  1  0.20234260  0.80079056  -0.00012081  1
  Nb  Nb129  1  0.60790050  0.19804700  0.39552839  1
  Nb  Nb130  1  0.79851586  0.80131935  0.39426652  1
  Nb  Nb131  1  -0.00268032  0.60012686  0.80284054  1
  Nb  Nb132  1  0.39704311  0.19504370  0.00016148  1
  Nb  Nb133  1  0.00344410  0.79819622  0.80589000  1
  Nb  Nb134  1  0.79937961  0.00121293  0.39739404  1
  Nb  Nb135  1  0.39589357  0.39448295  0.60980141  1
  Nb  Nb136  1  0.60836636  0.00226304  0.39580938  1
  Nb  Nb137  1  0.20846347  0.60247391  0.00383166  1
  Nb  Nb138  1  0.40047949  0.60810808  0.40328888  1
  Nb  Nb139  1  0.79640346  0.60250114  0.19886798  1
  Nb  Nb140  1  0.20465878  0.79729050  0.59367567  1
  Nb  Nb141  1  0.60009578  0.59839860  0.00841916  1
  Nb  Nb142  1  0.40074072  0.00698702  0.60328759  1
  Nb  Nb143  1  0.40071989  0.20101550  0.61037972  1
  Nb  Nb144  1  0.80663419  0.59895895  0.80257951  1
  Nb  Nb145  1  -0.00980370  0.79985856  0.20491398  1
  Nb  Nb146  1  -0.00476215  0.00137438  0.20153397  1
  Nb  Nb147  1  0.40359325  0.60109071  0.00588960  1
  Nb  Nb148  1  0.59821619  0.79875444  0.00516497  1
  Nb  Nb149  1  0.20136469  -0.00356771  0.00207088  1
  Pd  Pd150  1  -0.00263510  -0.00775684  0.79700315  1
  Pd  Pd151  1  0.80440302  -0.00072566  0.20173803  1
  Pd  Pd152  1  0.39859957  0.40003325  0.20340903  1
  Pd  Pd153  1  0.40604002  -0.00438715  0.20746129  1
  Pd  Pd154  1  0.79150868  0.78826581  0.58882531  1
  Pd  Pd155  1  -0.00558538  0.39474352  -0.00451303  1
  Pd  Pd156  1  0.60065055  0.39600691  0.39821449  1
  Pd  Pd157  1  0.81114198  0.40923844  0.19724568  1
  Pd  Pd158  1  0.80706683  0.20747481  -0.00104014  1
  Pd  Pd159  1  0.19227804  0.00157329  0.19626168  1
  Pd  Pd160  1  0.01489250  0.79699077  0.60779093  1
  Pd  Pd161  1  0.39025360  0.79721714  0.38975624  1
  Pd  Pd162  1  0.80787263  0.40094208  0.39895410  1
  Pd  Pd163  1  0.40965415  0.00647642  0.39660252  1
  Pd  Pd164  1  0.01155314  0.80308615  0.00256709  1
  Pd  Pd165  1  0.40041480  0.39860768  -0.00128477  1
  Pd  Pd166  1  -0.00373202  0.00232588  0.60529490  1
  Pd  Pd167  1  0.59374906  0.21119046  0.59132569  1
  Pd  Pd168  1  0.19131148  0.20366766  0.39523993  1
  Pd  Pd169  1  0.80200436  0.40646819  0.78537769  1
  Pd  Pd170  1  0.60374212  0.40075446  0.80454131  1
  Pd  Pd171  1  0.00209787  0.40329297  0.79827425  1
  Pd  Pd172  1  0.79518336  0.19261899  0.39559168  1
  Pd  Pd173  1  0.40031388  0.41100380  0.40937029  1
  Pd  Pd174  1  0.39545725  0.40197981  0.79748854  1
  Pd  Pd175  1  0.79507765  0.59608005  0.00279670  1
  Pd  Pd176  1  0.39690311  0.60061076  0.20764322  1
  Pd  Pd177  1  0.61194559  0.58883936  0.80987303  1
  Pd  Pd178  1  0.80207326  0.00289109  0.80313779  1
  Pd  Pd179  1  0.39984609  0.00945461  0.79072534  1
  Pd  Pd180  1  -0.01202155  0.40649662  0.20318029  1
  Pd  Pd181  1  0.20347115  0.19177614  -0.00064221  1
  Pd  Pd182  1  0.79409188  0.60490314  0.60455663  1
  Pd  Pd183  1  0.60249106  0.59015747  0.20341166  1
  Pd  Pd184  1  0.19933800  0.60789277  0.59888473  1
  Pd  Pd185  1  0.00607027  0.19931020  0.40120520  1
  Pd  Pd186  1  -0.00248201  0.40161589  0.59603806  1
  Pd  Pd187  1  0.80370138  0.39606622  0.60223732  1
  Pd  Pd188  1  0.81290132  0.00568285  0.59536960  1
  Pd  Pd189  1  0.19245110  0.39309311  0.39562842  1
  Pd  Pd190  1  -0.00877001  0.21003044  -0.00864633  1
  Pd  Pd191  1  0.20611834  -0.00762197  0.59414002  1
  Pd  Pd192  1  0.59772839  0.40163130  0.19845095  1
  Pd  Pd193  1  0.80708954  0.20073605  0.60409242  1
  Pd  Pd194  1  0.39852809  0.18683619  0.79806605  1
  Pd  Pd195  1  0.59536931  0.59004390  0.39831473  1
  Pd  Pd196  1  -0.00127556  0.20755823  0.80585584  1
  Pd  Pd197  1  0.59458309  0.39082881  0.60017279  1
  Pd  Pd198  1  0.39740691  0.80841506  0.60642236  1
  Pd  Pd199  1  0.21005833  0.40639298  0.00042723  1
  Rh  Rh200  1  -0.00318219  0.78954523  0.39615835  1
  Rh  Rh201  1  0.60789133  0.80854173  0.41374165  1
  Rh  Rh202  1  0.80303437  0.20242689  0.19142967  1
  Rh  Rh203  1  0.20390012  0.20519122  0.60087116  1
  Rh  Rh204  1  0.20278843  0.39552509  0.80057972  1
  Rh  Rh205  1  0.39579133  0.59367668  0.80606399  1
  Rh  Rh206  1  0.40246740  0.80594445  0.20917202  1
  Rh  Rh207  1  0.40824296  0.19398216  0.40494976  1
  Rh  Rh208  1  -0.00488239  0.19478535  0.20096929  1
  Rh  Rh209  1  0.19163349  0.20107912  0.79995746  1
  Rh  Rh210  1  0.59188474  0.80626325  0.80100714  1
  Rh  Rh211  1  0.79766329  0.19999819  0.80102137  1
  Rh  Rh212  1  0.18876327  0.80313899  0.19784842  1
  Rh  Rh213  1  0.40544680  0.79707121  0.79242379  1
  Rh  Rh214  1  0.19785523  0.00259348  0.40081893  1
  Rh  Rh215  1  0.00140802  0.60403062  0.40035110  1
  Rh  Rh216  1  0.20557250  0.60816475  0.40161999  1
  Rh  Rh217  1  0.00267254  0.20038896  0.60055077  1
  Rh  Rh218  1  0.39829675  0.19401188  0.19120586  1
  Rh  Rh219  1  0.39310091  0.00666275  -0.00241387  1
  Rh  Rh220  1  0.59135616  -0.00048481  0.20305868  1
  Rh  Rh221  1  -0.00581922  0.40210303  0.39559723  1
  Rh  Rh222  1  0.19897231  0.58967457  0.80549706  1
  Rh  Rh223  1  0.01373935  0.59010114  -0.00596514  1
  Rh  Rh224  1  0.60462130  0.00012818  0.80657940  1
  Rh  Rh225  1  0.01065834  0.60009021  0.60245334  1
  Rh  Rh226  1  0.60628090  0.60839000  0.60018994  1
  Rh  Rh227  1  0.58987822  -0.01140281  0.59054969  1
  Rh  Rh228  1  0.60246544  0.81368257  0.19061055  1
  Rh  Rh229  1  -0.00959791  0.60251817  0.20301572  1
  Rh  Rh230  1  0.60378794  -0.01002158  -0.00911359  1
  Rh  Rh231  1  0.01028263  0.00166807  0.00635895  1
  Rh  Rh232  1  0.20241966  0.59716719  0.19749705  1
  Rh  Rh233  1  0.60247783  0.19956406  0.80095561  1
  Rh  Rh234  1  0.79483601  0.60274690  0.39363087  1
  Rh  Rh235  1  0.20143346  0.79942482  0.40581617  1
  Rh  Rh236  1  0.40473919  0.79206475  -0.00089557  1
  Rh  Rh237  1  0.20709059  0.38979536  0.60383569  1
  Rh  Rh238  1  -0.00174442  0.01140377  0.39513924  1
  Rh  Rh239  1  0.80214390  0.39517903  0.00661017  1
  Rh  Rh240  1  0.78786019  -0.00091798  -0.00896276  1
  Rh  Rh241  1  0.19214461  0.00066730  0.80731971  1
  Rh  Rh242  1  0.78322986  0.81352608  0.01105617  1
  Rh  Rh243  1  0.19541480  0.80527894  0.79611111  1
  Rh  Rh244  1  0.59031867  0.20781455  0.00266056  1
  Rh  Rh245  1  0.81554566  0.79405684  0.79852965  1
  Rh  Rh246  1  0.39253056  0.59138740  0.59438907  1
  Rh  Rh247  1  0.20234064  0.19923642  0.20545481  1
  Rh  Rh248  1  0.59935556  0.19935766  0.19691408  1
  Rh  Rh249  1  0.20041310  0.39512542  0.20707641  1
