# generated using pymatgen
data_ZrScNbPdRh
_symmetry_space_group_name_H-M   'P 1'
_cell_length_a   16.55259436
_cell_length_b   16.55415085
_cell_length_c   16.54914448
_cell_angle_alpha   89.97136421
_cell_angle_beta   89.94528811
_cell_angle_gamma   90.03883037
_symmetry_Int_Tables_number   1
_chemical_formula_structural   ZrScNbPdRh
_chemical_formula_sum   'Zr50 Sc50 Nb50 Pd50 Rh50'
_cell_volume   4534.69598044
_cell_formula_units_Z   50
loop_
 _symmetry_equiv_pos_site_id
 _symmetry_equiv_pos_as_xyz
  1  'x, y, z'
loop_
 _atom_site_type_symbol
 _atom_site_label
 _atom_site_symmetry_multiplicity
 _atom_site_fract_x
 _atom_site_fract_y
 _atom_site_fract_z
 _atom_site_occupancy
  Zr  Zr0  1  0.69836442  0.10160194  0.10369550  1
  Zr  Zr1  1  0.30120083  0.29967890  0.69452068  1
  Zr  Zr2  1  0.90651896  0.10485121  0.50631261  1
  Zr  Zr3  1  0.29751329  0.30648064  0.10226120  1
  Zr  Zr4  1  0.50974016  0.69975397  0.90839580  1
  Zr  Zr5  1  0.90640680  0.30681526  0.89516187  1
  Zr  Zr6  1  0.69780177  0.29534967  0.10189969  1
  Zr  Zr7  1  0.29745283  0.89627966  0.49586700  1
  Zr  Zr8  1  0.30251797  0.09848757  0.89873068  1
  Zr  Zr9  1  0.70084328  0.50500652  0.89341466  1
  Zr  Zr10  1  0.09370800  0.49776992  0.89003338  1
  Zr  Zr11  1  0.49500437  0.49664230  0.90490291  1
  Zr  Zr12  1  0.29430298  0.09462042  0.09758697  1
  Zr  Zr13  1  0.09456838  0.69751367  0.69444804  1
  Zr  Zr14  1  0.69609262  0.09919459  0.69960714  1
  Zr  Zr15  1  0.89861190  0.29732971  0.69896730  1
  Zr  Zr16  1  0.09972529  0.89668927  0.30404162  1
  Zr  Zr17  1  0.89847835  0.09871045  0.69625532  1
  Zr  Zr18  1  0.89325531  0.70132265  0.91337333  1
  Zr  Zr19  1  0.49986202  0.30219886  0.09813410  1
  Zr  Zr20  1  0.10195465  0.10218342  0.09941730  1
  Zr  Zr21  1  0.89423497  0.31223745  0.09715184  1
  Zr  Zr22  1  0.89355171  0.90210393  0.30566643  1
  Zr  Zr23  1  0.09580343  0.09648640  0.29907705  1
  Zr  Zr24  1  0.50164178  0.28611707  0.50154487  1
  Zr  Zr25  1  0.29062628  0.90128772  0.70029559  1
  Zr  Zr26  1  0.10678023  0.89684388  0.10434888  1
  Zr  Zr27  1  0.09618418  0.70252373  0.89328375  1
  Zr  Zr28  1  0.90571135  0.10014383  0.30746817  1
  Zr  Zr29  1  0.29600956  0.49730121  0.69583644  1
  Zr  Zr30  1  0.69991196  0.51148114  0.69351856  1
  Zr  Zr31  1  0.89928759  0.30026602  0.49941604  1
  Zr  Zr32  1  0.29814459  0.11116577  0.70339528  1
  Zr  Zr33  1  0.49560304  0.90514007  0.90886576  1
  Zr  Zr34  1  0.28969785  0.49382061  0.30133860  1
  Zr  Zr35  1  0.09975012  0.89548263  0.89371568  1
  Zr  Zr36  1  0.50292263  0.69971103  0.10647142  1
  Zr  Zr37  1  0.70006447  0.09177011  0.30172043  1
  Zr  Zr38  1  0.50222788  0.09829300  0.09334106  1
  Zr  Zr39  1  0.50076016  0.49962164  0.69779040  1
  Zr  Zr40  1  0.89794644  0.89921982  0.69373914  1
  Zr  Zr41  1  0.10143492  0.89027689  0.70013520  1
  Zr  Zr42  1  0.89759927  0.49846774  0.49273685  1
  Zr  Zr43  1  0.10176935  0.50545441  0.69186136  1
  Zr  Zr44  1  0.30176277  0.09718741  0.30381221  1
  Zr  Zr45  1  0.10481154  0.89298191  0.50075809  1
  Zr  Zr46  1  0.69794117  0.30403789  0.89977541  1
  Zr  Zr47  1  0.49743489  0.89459916  0.10743475  1
  Zr  Zr48  1  0.68994529  0.09926911  0.90379544  1
  Zr  Zr49  1  0.30247804  0.70565504  0.10766517  1
  Sc  Sc50  1  0.10759171  0.70193364  0.29774318  1
  Sc  Sc51  1  0.50004978  0.10480059  0.69667741  1
  Sc  Sc52  1  0.90236447  0.49997232  0.71013133  1
  Sc  Sc53  1  0.49918485  0.09949398  0.49788796  1
  Sc  Sc54  1  0.90955775  0.10939001  0.89437712  1
  Sc  Sc55  1  0.89814888  0.88098974  0.10172591  1
  Sc  Sc56  1  0.69994729  0.49884383  0.50191513  1
  Sc  Sc57  1  0.71187918  0.48961723  0.09948752  1
  Sc  Sc58  1  0.49156824  0.49911752  0.09465878  1
  Sc  Sc59  1  0.90406736  0.70789054  0.50239120  1
  Sc  Sc60  1  0.69803551  0.30427131  0.69564673  1
  Sc  Sc61  1  0.90291976  0.49560698  0.30312519  1
  Sc  Sc62  1  0.10187351  0.29507560  0.50063928  1
  Sc  Sc63  1  0.68840056  0.89604507  0.90955111  1
  Sc  Sc64  1  0.28511047  0.70370669  0.69330491  1
  Sc  Sc65  1  0.89649147  0.49628373  0.90055342  1
  Sc  Sc66  1  0.89260120  0.89728584  0.50329123  1
  Sc  Sc67  1  0.10405791  0.10956785  0.90215627  1
  Sc  Sc68  1  0.30007095  0.29734412  0.50564910  1
  Sc  Sc69  1  0.50087967  0.09967405  0.89236660  1
  Sc  Sc70  1  0.49252455  0.90590665  0.49972170  1
  Sc  Sc71  1  0.70147602  0.49905942  0.30120509  1
  Sc  Sc72  1  0.49313651  0.30049866  0.70088577  1
  Sc  Sc73  1  0.10601666  0.30560577  0.29938282  1
  Sc  Sc74  1  0.69900330  0.90414985  0.68773810  1
  Sc  Sc75  1  0.70384449  0.29300314  0.29535426  1
  Sc  Sc76  1  0.50465318  0.50977198  0.49734720  1
  Sc  Sc77  1  0.09899773  0.09927084  0.69698224  1
  Sc  Sc78  1  0.30303091  0.89598575  0.29869912  1
  Sc  Sc79  1  0.29254901  0.50189695  0.49660591  1
  Sc  Sc80  1  0.10280479  0.29748112  0.08898761  1
  Sc  Sc81  1  0.89998248  0.30389786  0.30075659  1
  Sc  Sc82  1  0.30577900  0.09464570  0.49911550  1
  Sc  Sc83  1  0.90361545  0.89022506  0.90338522  1
  Sc  Sc84  1  0.50221895  0.09428468  0.30933963  1
  Sc  Sc85  1  0.11065450  0.29938393  0.69695861  1
  Sc  Sc86  1  0.70757707  0.69201460  0.51267376  1
  Sc  Sc87  1  0.68829405  0.09418151  0.50539428  1
  Sc  Sc88  1  0.30035276  0.49446694  0.09927502  1
  Sc  Sc89  1  0.49617446  0.90388037  0.69839697  1
  Sc  Sc90  1  0.09862743  0.10088031  0.49875831  1
  Sc  Sc91  1  0.50064664  0.28361950  0.30251548  1
  Sc  Sc92  1  0.90852642  0.10954761  0.10774795  1
  Sc  Sc93  1  0.89484679  0.69522727  0.69168055  1
  Sc  Sc94  1  0.10310370  0.69588374  0.49590332  1
  Sc  Sc95  1  0.70125645  0.70831538  0.09227077  1
  Sc  Sc96  1  0.91035758  0.71420014  0.29916049  1
  Sc  Sc97  1  0.50591406  0.51488140  0.30577751  1
  Sc  Sc98  1  0.50356565  0.70078668  0.30136742  1
  Sc  Sc99  1  0.29191537  0.30230339  0.89328422  1
  Nb  Nb100  1  0.70098015  0.90417818  0.10795797  1
  Nb  Nb101  1  0.09914198  0.70236804  0.10348254  1
  Nb  Nb102  1  0.69549440  0.69535490  0.29902312  1
  Nb  Nb103  1  0.69166544  0.69936185  0.70389962  1
  Nb  Nb104  1  0.30259049  0.30145477  0.29981595  1
  Nb  Nb105  1  0.69649786  0.70312488  0.89632956  1
  Nb  Nb106  1  0.10389180  0.50766551  0.10720510  1
  Nb  Nb107  1  0.30013930  0.50951775  0.90143170  1
  Nb  Nb108  1  0.69692066  0.89689056  0.50029727  1
  Nb  Nb109  1  0.10521857  0.49952905  0.30540014  1
  Nb  Nb110  1  0.69866881  0.89844086  0.30400483  1
  Nb  Nb111  1  0.09596475  0.29839629  0.90083747  1
  Nb  Nb112  1  0.51202545  0.89647757  0.29955649  1
  Nb  Nb113  1  0.90226335  0.50317656  0.10310288  1
  Nb  Nb114  1  0.70087621  0.30019756  0.49581764  1
  Nb  Nb115  1  0.90608979  0.69849577  0.10222392  1
  Nb  Nb116  1  0.30610031  0.90029645  0.09471315  1
  Nb  Nb117  1  0.30050715  0.89716325  0.90118855  1
  Nb  Nb118  1  0.49693767  0.69838668  0.49587012  1
  Nb  Nb119  1  0.30274765  0.69736728  0.90298305  1
  Nb  Nb120  1  0.49742713  0.30100571  0.90552344  1
  Nb  Nb121  1  0.30758360  0.69998610  0.48999686  1
  Nb  Nb122  1  0.10211941  0.49843765  0.48916622  1
  Nb  Nb123  1  0.50011418  0.70012689  0.70009393  1
  Nb  Nb124  1  0.30464997  0.69790990  0.30779502  1
  Nb  Nb125  1  0.59644054  0.39735255  0.20473910  1
  Nb  Nb126  1  0.60584572  0.79866480  0.40407758  1
  Nb  Nb127  1  0.40028785  0.60952627  0.60037531  1
  Nb  Nb128  1  0.40416262  0.39668617  0.39765155  1
  Nb  Nb129  1  0.79944351  0.19911991  -0.00206902  1
  Nb  Nb130  1  0.00190957  0.40363370  0.59514586  1
  Nb  Nb131  1  0.39627970  0.19849551  0.19588020  1
  Nb  Nb132  1  0.80419836  0.00252032  0.00073960  1
  Nb  Nb133  1  0.20420804  0.19854223  0.39455203  1
  Nb  Nb134  1  0.39926051  0.20393072  0.00018525  1
  Nb  Nb135  1  0.80688181  0.60603208  0.20022603  1
  Nb  Nb136  1  0.59766980  0.39252645  0.39845740  1
  Nb  Nb137  1  0.19669693  0.60443755  0.00095228  1
  Nb  Nb138  1  0.78797866  0.79746515  0.79963279  1
  Nb  Nb139  1  0.39817986  0.60569093  0.79896483  1
  Nb  Nb140  1  0.80092129  0.60706767  0.39260518  1
  Nb  Nb141  1  0.00781258  0.41198259  0.19509752  1
  Nb  Nb142  1  0.39688852  0.79418709  0.80382295  1
  Nb  Nb143  1  0.20653173  0.79826394  0.00007239  1
  Nb  Nb144  1  0.79962573  0.19784849  0.40521042  1
  Nb  Nb145  1  0.79897161  -0.00369849  0.80607592  1
  Nb  Nb146  1  0.59413772  0.79301693  0.59619989  1
  Nb  Nb147  1  -0.00042255  -0.00214313  0.00237497  1
  Nb  Nb148  1  0.39424262  0.60196624  0.20604526  1
  Nb  Nb149  1  0.00330068  0.60030712  0.01167426  1
  Pd  Pd150  1  0.60557358  0.58938058  0.19025652  1
  Pd  Pd151  1  0.00619705  0.40892623  0.00569631  1
  Pd  Pd152  1  0.40941338  0.80613099  0.39258015  1
  Pd  Pd153  1  0.19586336  0.00588884  0.80236311  1
  Pd  Pd154  1  0.39814120  0.00465218  0.60442685  1
  Pd  Pd155  1  0.40421861  0.40887302  0.58534561  1
  Pd  Pd156  1  -0.01639058  0.79120023  0.79194361  1
  Pd  Pd157  1  0.00928681  0.20478891  0.79147391  1
  Pd  Pd158  1  0.19372496  -0.00603005  -0.00693631  1
  Pd  Pd159  1  0.60390830  -0.00960887  0.79550155  1
  Pd  Pd160  1  0.79815538  0.59900904  0.00731247  1
  Pd  Pd161  1  0.60336430  0.40762362  0.00628089  1
  Pd  Pd162  1  0.19959901  0.00593889  0.59715198  1
  Pd  Pd163  1  0.60933644  0.59195932  0.01001028  1
  Pd  Pd164  1  0.80485178  0.60732535  0.79994299  1
  Pd  Pd165  1  0.20088313  0.20377993  0.20423703  1
  Pd  Pd166  1  -0.00358763  0.60702713  0.39375511  1
  Pd  Pd167  1  0.59436604  0.39675416  0.59149392  1
  Pd  Pd168  1  0.39882150  -0.00429358  0.79555624  1
  Pd  Pd169  1  0.00621597  0.39404884  0.39839605  1
  Pd  Pd170  1  -0.00400839  -0.00046938  0.80588180  1
  Pd  Pd171  1  0.20314011  0.60406823  0.80070247  1
  Pd  Pd172  1  0.39952403  0.79678107  0.60568586  1
  Pd  Pd173  1  0.79529116  0.19481333  0.80539808  1
  Pd  Pd174  1  0.00383478  0.21685624  0.20097074  1
  Pd  Pd175  1  -0.00856836  -0.01027699  0.19194463  1
  Pd  Pd176  1  -0.00004555  -0.00862680  0.41046225  1
  Pd  Pd177  1  0.81116479  -0.00089256  0.19226391  1
  Pd  Pd178  1  0.80512199  0.40658953  0.60467589  1
  Pd  Pd179  1  0.59145744  0.59689218  0.80301129  1
  Pd  Pd180  1  0.79297632  0.79141039  0.40190122  1
  Pd  Pd181  1  0.80636401  0.19834898  0.20462343  1
  Pd  Pd182  1  0.79749170  0.00697548  0.41258326  1
  Pd  Pd183  1  0.59688762  0.81003202  0.79255180  1
  Pd  Pd184  1  0.19762263  0.39992239  0.79979734  1
  Pd  Pd185  1  -0.00212848  0.59897356  0.20782518  1
  Pd  Pd186  1  0.59549249  0.00224453  0.20049007  1
  Pd  Pd187  1  0.00420559  -0.00638900  0.59587708  1
  Pd  Pd188  1  0.79047460  0.19670879  0.59380862  1
  Pd  Pd189  1  0.59991952  0.39889799  0.79637263  1
  Pd  Pd190  1  0.41183217  0.40386575  0.21287938  1
  Pd  Pd191  1  0.79444970  0.79272129  0.20285452  1
  Pd  Pd192  1  0.20696766  0.60234000  0.20085170  1
  Pd  Pd193  1  0.19781111  0.40829770  -0.00422786  1
  Pd  Pd194  1  -0.00401298  0.59324368  0.59171505  1
  Pd  Pd195  1  0.39444154  0.40332354  0.80475019  1
  Pd  Pd196  1  0.20449376  -0.00740185  0.20584288  1
  Pd  Pd197  1  0.59459986  0.20817799  0.79528375  1
  Pd  Pd198  1  0.40377427  0.00155687  0.20539206  1
  Pd  Pd199  1  0.40031474  0.79641664  -0.00181641  1
  Rh  Rh200  1  0.61255255  0.19933699  0.39897720  1
  Rh  Rh201  1  0.80244561  0.40760400  0.20753138  1
  Rh  Rh202  1  0.19094588  0.40441741  0.59159456  1
  Rh  Rh203  1  0.40336781  0.20608936  0.80736848  1
  Rh  Rh204  1  0.20107310  0.79287021  0.59011843  1
  Rh  Rh205  1  0.59255348  0.19694340  0.20369158  1
  Rh  Rh206  1  0.38991330  0.39317005  -0.01077606  1
  Rh  Rh207  1  0.00523688  0.20852898  0.60576220  1
  Rh  Rh208  1  0.59275988  -0.00669424  0.59699082  1
  Rh  Rh209  1  0.79037142  0.80860664  -0.00326831  1
  Rh  Rh210  1  0.19070649  0.39751824  0.19732832  1
  Rh  Rh211  1  0.19623829  0.20188550  0.80109593  1
  Rh  Rh212  1  0.80798588  0.59451812  0.59565740  1
  Rh  Rh213  1  0.40118296  0.79601700  0.20880095  1
  Rh  Rh214  1  0.20232831  0.19324402  0.59093907  1
  Rh  Rh215  1  0.39247057  0.59094840  0.39879686  1
  Rh  Rh216  1  0.79248339  0.40349176  0.79491162  1
  Rh  Rh217  1  0.20749990  0.20324424  -0.00557110  1
  Rh  Rh218  1  0.20849889  0.79672949  0.80501514  1
  Rh  Rh219  1  0.79104443  0.79750256  0.60770106  1
  Rh  Rh220  1  0.59285245  0.60581677  0.59656880  1
  Rh  Rh221  1  0.39121349  0.20272399  0.39692729  1
  Rh  Rh222  1  -0.01051979  0.60594557  0.80969140  1
  Rh  Rh223  1  0.00342118  0.80447211  0.20334028  1
  Rh  Rh224  1  0.00372611  0.20481606  0.39455805  1
  Rh  Rh225  1  0.20593126  0.38901934  0.40587948  1
  Rh  Rh226  1  0.39939028  0.00605776  -0.00127556  1
  Rh  Rh227  1  0.19990379  0.60474957  0.39990597  1
  Rh  Rh228  1  0.00801382  0.39268882  0.78723843  1
  Rh  Rh229  1  0.59609485  0.20278012  -0.00526344  1
  Rh  Rh230  1  0.60116127  0.20199414  0.60372832  1
  Rh  Rh231  1  0.20275349  0.79434176  0.39843341  1
  Rh  Rh232  1  0.00307908  0.79976601  0.59803721  1
  Rh  Rh233  1  0.39881747  0.19523955  0.60071249  1
  Rh  Rh234  1  0.60347297  -0.00737043  0.01034333  1
  Rh  Rh235  1  0.40357936  -0.00744203  0.39548557  1
  Rh  Rh236  1  0.19884320  0.00493742  0.39938106  1
  Rh  Rh237  1  0.59820600  -0.00957687  0.40403515  1
  Rh  Rh238  1  0.60912043  0.80252627  0.20408258  1
  Rh  Rh239  1  0.01248340  0.79990338  0.00598443  1
  Rh  Rh240  1  0.20526478  0.60273874  0.58770896  1
  Rh  Rh241  1  0.61410913  0.60456695  0.40922710  1
  Rh  Rh242  1  0.59998283  0.80415900  0.00950245  1
  Rh  Rh243  1  0.79956852  0.39714388  -0.00854213  1
  Rh  Rh244  1  0.39448688  0.59929600  0.00553763  1
  Rh  Rh245  1  0.00341024  0.80298403  0.40304619  1
  Rh  Rh246  1  0.79751361  0.00458330  0.59987158  1
  Rh  Rh247  1  0.20658427  0.80274168  0.20077664  1
  Rh  Rh248  1  0.78866094  0.39680043  0.39595547  1
  Rh  Rh249  1  -0.00589443  0.19852137  -0.00002867  1
