# generated using pymatgen
data_ZrScNbPdRh
_symmetry_space_group_name_H-M   'P 1'
_cell_length_a   16.55652704
_cell_length_b   16.55507971
_cell_length_c   16.55221381
_cell_angle_alpha   89.99013873
_cell_angle_beta   90.02434809
_cell_angle_gamma   89.95366406
_symmetry_Int_Tables_number   1
_chemical_formula_structural   ZrScNbPdRh
_chemical_formula_sum   'Zr50 Sc50 Nb50 Pd50 Rh50'
_cell_volume   4536.87087548
_cell_formula_units_Z   50
loop_
 _symmetry_equiv_pos_site_id
 _symmetry_equiv_pos_as_xyz
  1  'x, y, z'
loop_
 _atom_site_type_symbol
 _atom_site_label
 _atom_site_symmetry_multiplicity
 _atom_site_fract_x
 _atom_site_fract_y
 _atom_site_fract_z
 _atom_site_occupancy
  Zr  Zr0  1  0.50203652  0.89269725  0.70232877  1
  Zr  Zr1  1  0.48780813  0.09804555  0.50056488  1
  Zr  Zr2  1  0.29717473  0.09953182  0.29989861  1
  Zr  Zr3  1  0.30180890  0.70015592  0.49724696  1
  Zr  Zr4  1  0.10092751  0.30091990  0.69064827  1
  Zr  Zr5  1  0.90185553  0.49300666  0.90236382  1
  Zr  Zr6  1  0.10878587  0.89969859  0.09582458  1
  Zr  Zr7  1  0.30310434  0.89300062  0.70854987  1
  Zr  Zr8  1  0.70340153  0.31317870  0.49614896  1
  Zr  Zr9  1  0.50627589  0.49252766  0.69994639  1
  Zr  Zr10  1  0.89969465  0.71025205  0.89919381  1
  Zr  Zr11  1  0.49735788  0.09933621  0.71134630  1
  Zr  Zr12  1  0.49697342  0.49598540  0.91174030  1
  Zr  Zr13  1  0.69624853  0.31248307  0.69494867  1
  Zr  Zr14  1  0.90530822  0.09870596  0.90567992  1
  Zr  Zr15  1  0.70480573  0.50432652  0.70215230  1
  Zr  Zr16  1  0.69769790  0.30753823  0.29317026  1
  Zr  Zr17  1  0.29216187  0.70261973  0.89410410  1
  Zr  Zr18  1  0.69864312  0.09592185  0.10555714  1
  Zr  Zr19  1  0.30085367  0.49893853  0.29948799  1
  Zr  Zr20  1  0.09921454  0.09876677  0.89989674  1
  Zr  Zr21  1  0.90682657  0.30356495  0.50171786  1
  Zr  Zr22  1  0.09298882  0.70577481  0.29419687  1
  Zr  Zr23  1  0.90548753  0.10282004  0.10249545  1
  Zr  Zr24  1  0.90296807  0.69965538  0.11091039  1
  Zr  Zr25  1  0.90259852  0.10395898  0.69852451  1
  Zr  Zr26  1  0.09609667  0.50038163  0.09968192  1
  Zr  Zr27  1  0.30213572  0.29705537  0.49886400  1
  Zr  Zr28  1  0.69152970  0.90731769  0.30091410  1
  Zr  Zr29  1  0.30242060  0.49966665  0.90151942  1
  Zr  Zr30  1  0.29741648  0.09277261  0.10299030  1
  Zr  Zr31  1  0.09710688  0.30284915  0.49438525  1
  Zr  Zr32  1  0.69921622  0.89250028  0.70404519  1
  Zr  Zr33  1  0.69886072  0.29456603  0.10291472  1
  Zr  Zr34  1  0.89817558  0.70110204  0.50741137  1
  Zr  Zr35  1  0.90831672  0.30403282  0.30437869  1
  Zr  Zr36  1  0.89942883  0.88158744  0.69977881  1
  Zr  Zr37  1  0.29218263  0.90314099  0.91300628  1
  Zr  Zr38  1  0.10111138  0.49012346  0.49534578  1
  Zr  Zr39  1  0.09651452  0.70211379  0.09946971  1
  Zr  Zr40  1  0.69945809  0.69921537  0.50279599  1
  Zr  Zr41  1  0.90081423  0.51034546  0.70118391  1
  Zr  Zr42  1  0.69546018  0.10263945  0.90661314  1
  Zr  Zr43  1  0.49768498  0.69970374  0.10578765  1
  Zr  Zr44  1  0.50336100  0.89561680  0.50533210  1
  Zr  Zr45  1  0.29581539  0.09174152  0.70398965  1
  Zr  Zr46  1  0.50619634  0.30180531  0.09970810  1
  Zr  Zr47  1  0.70075632  0.50398395  0.89473427  1
  Zr  Zr48  1  0.29941220  0.49597353  0.69653782  1
  Zr  Zr49  1  0.08774831  0.69561132  0.70262346  1
  Sc  Sc50  1  0.09317989  0.49499155  0.70195953  1
  Sc  Sc51  1  0.68583784  0.08900928  0.49740048  1
  Sc  Sc52  1  0.29888580  0.29646098  0.10877812  1
  Sc  Sc53  1  0.69499325  0.10166977  0.70969131  1
  Sc  Sc54  1  0.70332685  0.69801541  0.29658881  1
  Sc  Sc55  1  0.29233778  0.29015352  0.29408308  1
  Sc  Sc56  1  0.90068566  0.29569632  0.90336560  1
  Sc  Sc57  1  0.30053220  0.70577150  0.10052377  1
  Sc  Sc58  1  0.30273481  0.30660615  0.69704830  1
  Sc  Sc59  1  0.70330551  0.29893239  0.90238123  1
  Sc  Sc60  1  0.09542865  0.50509106  0.89648388  1
  Sc  Sc61  1  0.49913710  0.09726631  0.29430623  1
  Sc  Sc62  1  0.69924656  0.89104744  0.90850051  1
  Sc  Sc63  1  0.09957776  0.90013348  0.48867218  1
  Sc  Sc64  1  0.50467975  0.10254876  0.10152976  1
  Sc  Sc65  1  0.09839409  0.70401216  0.49027168  1
  Sc  Sc66  1  0.51295008  0.69895842  0.90765919  1
  Sc  Sc67  1  0.89317198  0.49714055  0.49748992  1
  Sc  Sc68  1  0.30593369  0.50510555  0.09900684  1
  Sc  Sc69  1  0.09899217  0.70111086  0.90482500  1
  Sc  Sc70  1  0.91507956  0.10492053  0.49776756  1
  Sc  Sc71  1  0.68941641  0.89695261  0.50180905  1
  Sc  Sc72  1  0.49749767  0.89294513  0.10195296  1
  Sc  Sc73  1  0.70348610  0.48239909  0.10261459  1
  Sc  Sc74  1  0.09604181  0.10160913  0.10145691  1
  Sc  Sc75  1  0.10577035  0.09060677  0.49497081  1
  Sc  Sc76  1  0.30157472  0.30555727  0.89042713  1
  Sc  Sc77  1  0.50079614  0.50258724  0.49605689  1
  Sc  Sc78  1  0.09598795  0.09903553  0.29535711  1
  Sc  Sc79  1  0.70676622  0.49959026  0.30466400  1
  Sc  Sc80  1  0.09652223  0.29611834  0.11180512  1
  Sc  Sc81  1  0.30233413  0.69289572  0.29632948  1
  Sc  Sc82  1  0.50203671  0.89639427  0.29456542  1
  Sc  Sc83  1  0.70288332  0.50149246  0.49863191  1
  Sc  Sc84  1  0.29919047  0.90294675  0.29242467  1
  Sc  Sc85  1  0.69496682  0.90115973  0.10286041  1
  Sc  Sc86  1  0.50070407  0.50787748  0.30205185  1
  Sc  Sc87  1  0.70086500  0.71426046  0.09602625  1
  Sc  Sc88  1  0.90107632  0.30638543  0.09849024  1
  Sc  Sc89  1  0.29531748  0.91509109  0.50274622  1
  Sc  Sc90  1  0.30011668  0.49591036  0.49453798  1
  Sc  Sc91  1  0.10589526  0.49323849  0.29617873  1
  Sc  Sc92  1  0.10300762  0.10009082  0.70553502  1
  Sc  Sc93  1  0.09672019  0.29825927  0.89030246  1
  Sc  Sc94  1  0.90492861  0.30411555  0.69564912  1
  Sc  Sc95  1  0.10239585  0.90152185  0.29998796  1
  Sc  Sc96  1  0.50203918  0.90028424  0.90231163  1
  Sc  Sc97  1  0.49455771  0.69826707  0.29953469  1
  Sc  Sc98  1  0.89927220  0.89861307  0.09327785  1
  Sc  Sc99  1  0.91406178  0.89829411  0.29783416  1
  Nb  Nb100  1  0.29860294  0.10019284  0.49940125  1
  Nb  Nb101  1  0.88780002  0.69828214  0.69955370  1
  Nb  Nb102  1  0.89890211  0.90005804  0.49936996  1
  Nb  Nb103  1  0.50280522  0.29749988  0.29391284  1
  Nb  Nb104  1  0.49840416  0.29933595  0.50274007  1
  Nb  Nb105  1  0.29977564  0.90104406  0.09758754  1
  Nb  Nb106  1  0.70709982  0.69996029  0.70948144  1
  Nb  Nb107  1  0.89938022  0.69759456  0.29943770  1
  Nb  Nb108  1  0.08938350  0.90191672  0.90494496  1
  Nb  Nb109  1  0.89394335  0.51064655  0.29144829  1
  Nb  Nb110  1  0.10349844  0.90288161  0.69623353  1
  Nb  Nb111  1  0.29863532  0.10349631  0.89959792  1
  Nb  Nb112  1  0.89901253  0.09767738  0.30071606  1
  Nb  Nb113  1  0.10390023  0.30606560  0.29830554  1
  Nb  Nb114  1  0.90372495  0.90308059  0.90052443  1
  Nb  Nb115  1  0.29982921  0.70261482  0.70143134  1
  Nb  Nb116  1  0.70394110  0.69877242  0.89885267  1
  Nb  Nb117  1  0.49871787  0.11004083  0.89852504  1
  Nb  Nb118  1  0.49881338  0.70444636  0.50551048  1
  Nb  Nb119  1  0.50005699  0.30317551  0.69230390  1
  Nb  Nb120  1  0.49889650  0.49837149  0.09732500  1
  Nb  Nb121  1  0.89772267  0.50214041  0.10000078  1
  Nb  Nb122  1  0.69923204  0.09863907  0.30195388  1
  Nb  Nb123  1  0.49588262  0.70879740  0.69715953  1
  Nb  Nb124  1  0.49515715  0.29523259  0.90134793  1
  Nb  Nb125  1  0.80463608  0.80461874  0.39978968  1
  Nb  Nb126  1  0.79113628  0.19650482  0.59188182  1
  Nb  Nb127  1  0.80244940  0.59930792  0.00150290  1
  Nb  Nb128  1  0.59757611  0.20509796  0.40094939  1
  Nb  Nb129  1  0.20563455  0.19483653  0.59456573  1
  Nb  Nb130  1  -0.00658146  0.59904463  0.39110665  1
  Nb  Nb131  1  0.40721646  0.39947783  0.20209715  1
  Nb  Nb132  1  0.59571185  0.60869525  0.60754065  1
  Nb  Nb133  1  -0.00186047  -0.00809335  0.60294564  1
  Nb  Nb134  1  0.39780159  0.19792726  -0.00595630  1
  Nb  Nb135  1  0.59909082  0.59601401  0.19159013  1
  Nb  Nb136  1  0.40117657  0.60703249  0.60513665  1
  Nb  Nb137  1  0.59517509  0.20563148  0.59759768  1
  Nb  Nb138  1  0.20004932  0.39632704  0.00214261  1
  Nb  Nb139  1  0.20218793  0.60496593  0.60208700  1
  Nb  Nb140  1  0.79511950  0.19402661  0.39930980  1
  Nb  Nb141  1  0.40241114  0.60440366  0.79438800  1
  Nb  Nb142  1  0.80323411  0.19512132  0.20923688  1
  Nb  Nb143  1  0.20470966  0.20035127  -0.00513589  1
  Nb  Nb144  1  0.80587934  -0.00378166  0.80250322  1
  Nb  Nb145  1  0.40125566  0.80032381  0.40619134  1
  Nb  Nb146  1  0.80450000  0.00027737  0.59972817  1
  Nb  Nb147  1  0.19989417  0.79811355  0.60606141  1
  Nb  Nb148  1  0.80508162  0.00027477  0.40198679  1
  Nb  Nb149  1  0.40540105  0.38782688  0.39337982  1
  Pd  Pd150  1  0.60608406  -0.00547066  0.80911083  1
  Pd  Pd151  1  0.80344373  0.20075339  0.00871937  1
  Pd  Pd152  1  0.19929367  0.59555367  0.79378501  1
  Pd  Pd153  1  0.79869839  -0.00339869  -0.00359849  1
  Pd  Pd154  1  0.39960713  -0.00442153  0.60548936  1
  Pd  Pd155  1  0.39979480  -0.00521342  0.81055901  1
  Pd  Pd156  1  0.60172668  0.21201996  0.79600738  1
  Pd  Pd157  1  0.40446502  0.20153177  0.39034539  1
  Pd  Pd158  1  0.59191059  0.60755684  0.79526993  1
  Pd  Pd159  1  0.80416123  -0.00426276  0.20564656  1
  Pd  Pd160  1  -0.00765499  0.60285809  -0.00232055  1
  Pd  Pd161  1  0.59249592  -0.00182387  0.00189486  1
  Pd  Pd162  1  0.59995211  0.60521321  0.39849967  1
  Pd  Pd163  1  0.00692446  0.19636969  0.39527479  1
  Pd  Pd164  1  0.00664813  0.79927091  0.80257245  1
  Pd  Pd165  1  0.00989984  0.39154886  -0.00012404  1
  Pd  Pd166  1  0.60036184  0.00707619  0.60934365  1
  Pd  Pd167  1  0.19845400  0.60079102  0.19649510  1
  Pd  Pd168  1  0.00604598  0.59452341  0.58838998  1
  Pd  Pd169  1  0.39406345  0.20517572  0.79709760  1
  Pd  Pd170  1  0.19706570  -0.00693668  0.80766532  1
  Pd  Pd171  1  0.00368395  -0.00608474  0.19540889  1
  Pd  Pd172  1  0.78582871  0.59944072  0.18863007  1
  Pd  Pd173  1  0.80703466  0.39386863  0.79934787  1
  Pd  Pd174  1  0.59868355  0.79252165  0.39129001  1
  Pd  Pd175  1  0.01047201  0.80365388  0.59283931  1
  Pd  Pd176  1  0.19369762  0.40192636  0.80459093  1
  Pd  Pd177  1  0.21162762  0.80738686  0.40086001  1
  Pd  Pd178  1  0.59301807  0.40180611  0.39687652  1
  Pd  Pd179  1  -0.00202443  0.20461909  0.79739416  1
  Pd  Pd180  1  0.20515978  0.80006431  0.20134461  1
  Pd  Pd181  1  0.19168563  0.19805621  0.40079948  1
  Pd  Pd182  1  0.40218939  -0.00911468  0.39426016  1
  Pd  Pd183  1  0.18703563  0.80468681  0.80075743  1
  Pd  Pd184  1  0.40591799  0.40286536  0.80013249  1
  Pd  Pd185  1  0.19101749  0.59919270  0.40100084  1
  Pd  Pd186  1  0.39631023  0.61125909  -0.00592909  1
  Pd  Pd187  1  0.40798025  0.00691261  -0.00145634  1
  Pd  Pd188  1  0.20221156  0.59621170  0.00400263  1
  Pd  Pd189  1  0.79882492  0.19945653  0.79366641  1
  Pd  Pd190  1  0.59608555  0.39272060  0.81145714  1
  Pd  Pd191  1  0.39742521  0.19739425  0.61010083  1
  Pd  Pd192  1  0.40672897  0.79514827  0.81478947  1
  Pd  Pd193  1  0.80069124  0.81082629  0.20756697  1
  Pd  Pd194  1  0.61440072  0.59805263  0.01028785  1
  Pd  Pd195  1  -0.00370329  0.40599790  0.20210232  1
  Pd  Pd196  1  0.40438105  -0.00367327  0.19750466  1
  Pd  Pd197  1  0.60613397  0.39608439  -0.00559711  1
  Pd  Pd198  1  0.40127974  0.79482752  -0.00310834  1
  Pd  Pd199  1  -0.00375268  -0.00498165  0.79273258  1
  Rh  Rh200  1  0.40276488  0.60209603  0.40769230  1
  Rh  Rh201  1  0.79921069  0.40274133  -0.00198779  1
  Rh  Rh202  1  0.38838743  0.80457625  0.59288558  1
  Rh  Rh203  1  -0.00023984  0.80293370  0.00432811  1
  Rh  Rh204  1  0.40701937  0.59308467  0.19637139  1
  Rh  Rh205  1  0.19446125  -0.00003780  0.60032669  1
  Rh  Rh206  1  -0.00344426  0.39882930  0.79945008  1
  Rh  Rh207  1  -0.00832989  0.79310482  0.39964404  1
  Rh  Rh208  1  0.59941446  0.80127088  0.00160883  1
  Rh  Rh209  1  0.40398045  0.20311731  0.19271065  1
  Rh  Rh210  1  0.40354159  0.40742590  0.58876275  1
  Rh  Rh211  1  0.80775283  0.40068291  0.39370879  1
  Rh  Rh212  1  0.79035583  0.80330843  0.59345276  1
  Rh  Rh213  1  0.59968369  0.79146915  0.20183763  1
  Rh  Rh214  1  0.19709864  0.79822894  -0.00076107  1
  Rh  Rh215  1  0.80825627  0.60314644  0.81097014  1
  Rh  Rh216  1  0.01337159  0.19053049  0.59839349  1
  Rh  Rh217  1  0.39217849  0.38682219  0.01072523  1
  Rh  Rh218  1  0.00236952  -0.00086359  0.00609083  1
  Rh  Rh219  1  0.59220097  0.00447044  0.39615600  1
  Rh  Rh220  1  0.80576139  0.60765619  0.40247882  1
  Rh  Rh221  1  0.20403419  0.20297028  0.79452824  1
  Rh  Rh222  1  0.19273403  0.19372356  0.19736100  1
  Rh  Rh223  1  0.79648574  0.80427275  0.80939660  1
  Rh  Rh224  1  0.00846051  0.20408949  0.00051494  1
  Rh  Rh225  1  0.59692529  0.40650671  0.59244306  1
  Rh  Rh226  1  -0.00410285  0.20290606  0.20530017  1
  Rh  Rh227  1  0.00492024  0.59399507  0.20459238  1
  Rh  Rh228  1  0.20769206  0.40181858  0.19479847  1
  Rh  Rh229  1  -0.00478285  0.41420963  0.38901676  1
  Rh  Rh230  1  0.19751417  -0.00002513  0.19888392  1
  Rh  Rh231  1  0.79181154  0.59784596  0.59875525  1
  Rh  Rh232  1  0.60895365  0.79152930  0.60861177  1
  Rh  Rh233  1  0.60040893  0.79475106  0.80414880  1
  Rh  Rh234  1  0.80907714  0.39528737  0.20337771  1
  Rh  Rh235  1  -0.00715113  0.60430468  0.80540003  1
  Rh  Rh236  1  0.00036118  0.80649581  0.19480304  1
  Rh  Rh237  1  -0.00185793  -0.00096024  0.40320239  1
  Rh  Rh238  1  0.59484699  0.20088345  -0.00284825  1
  Rh  Rh239  1  0.60556668  0.19350065  0.20594735  1
  Rh  Rh240  1  0.19516569  0.00645307  -0.00040849  1
  Rh  Rh241  1  0.20184847  0.00142687  0.39156763  1
  Rh  Rh242  1  0.21027162  0.39234675  0.39356166  1
  Rh  Rh243  1  0.80555710  0.40179648  0.60333659  1
  Rh  Rh244  1  0.39350460  0.80192747  0.20694840  1
  Rh  Rh245  1  -0.00451273  0.40914236  0.60143588  1
  Rh  Rh246  1  0.80356318  0.79804726  -0.00048883  1
  Rh  Rh247  1  0.19951352  0.39831291  0.59661413  1
  Rh  Rh248  1  0.59231390  0.41382964  0.20502342  1
  Rh  Rh249  1  0.59474278  -0.00051172  0.19788317  1
