# generated using pymatgen
data_ZrScNbPdRh
_symmetry_space_group_name_H-M   'P 1'
_cell_length_a   16.55401476
_cell_length_b   16.56303231
_cell_length_c   16.56148576
_cell_angle_alpha   90.02281429
_cell_angle_beta   89.99902226
_cell_angle_gamma   89.99659897
_symmetry_Int_Tables_number   1
_chemical_formula_structural   ZrScNbPdRh
_chemical_formula_sum   'Zr50 Sc50 Nb50 Pd50 Rh50'
_cell_volume   4540.90532766
_cell_formula_units_Z   50
loop_
 _symmetry_equiv_pos_site_id
 _symmetry_equiv_pos_as_xyz
  1  'x, y, z'
loop_
 _atom_site_type_symbol
 _atom_site_label
 _atom_site_symmetry_multiplicity
 _atom_site_fract_x
 _atom_site_fract_y
 _atom_site_fract_z
 _atom_site_occupancy
  Zr  Zr0  1  0.69804117  0.89062845  0.89846794  1
  Zr  Zr1  1  0.69548316  0.70084066  0.49698382  1
  Zr  Zr2  1  0.90242676  0.69774915  0.09894019  1
  Zr  Zr3  1  0.89315841  0.30122457  0.29695555  1
  Zr  Zr4  1  0.90573468  0.70455878  0.70487073  1
  Zr  Zr5  1  0.49980132  0.10154052  0.10279101  1
  Zr  Zr6  1  0.50296773  0.90384905  0.30936171  1
  Zr  Zr7  1  0.09491448  0.50048511  0.90416034  1
  Zr  Zr8  1  0.30281087  0.29489585  0.70441329  1
  Zr  Zr9  1  0.50295669  0.69401680  0.30317954  1
  Zr  Zr10  1  0.30926483  0.90150715  0.50445075  1
  Zr  Zr11  1  0.90480482  0.90401613  0.50780276  1
  Zr  Zr12  1  0.10205934  0.90232037  0.50501046  1
  Zr  Zr13  1  0.89794520  0.49615757  0.71667782  1
  Zr  Zr14  1  0.89210738  0.29370346  0.49790548  1
  Zr  Zr15  1  0.50031808  0.09715154  0.30069240  1
  Zr  Zr16  1  0.50430658  0.49920356  0.89469634  1
  Zr  Zr17  1  0.89700137  0.70131200  0.90401991  1
  Zr  Zr18  1  0.90070169  0.69838294  0.29134583  1
  Zr  Zr19  1  0.89450784  0.09623422  0.69847558  1
  Zr  Zr20  1  0.29825552  0.10344239  0.28898913  1
  Zr  Zr21  1  0.09996284  0.69780073  0.29633628  1
  Zr  Zr22  1  0.29801439  0.70148417  0.50146177  1
  Zr  Zr23  1  0.90087877  0.28924903  0.69883225  1
  Zr  Zr24  1  0.69825731  0.49666960  0.49400882  1
  Zr  Zr25  1  0.09838341  0.90510123  0.10236194  1
  Zr  Zr26  1  0.48948458  0.89890277  0.70001547  1
  Zr  Zr27  1  0.10273361  0.50249827  0.71203817  1
  Zr  Zr28  1  0.50460134  0.69467203  0.08625252  1
  Zr  Zr29  1  0.69563585  0.30604005  0.90601878  1
  Zr  Zr30  1  0.09684804  0.69955641  0.09587972  1
  Zr  Zr31  1  0.50271880  0.49921059  0.09342291  1
  Zr  Zr32  1  0.90200486  0.30188291  0.90049780  1
  Zr  Zr33  1  0.29454086  0.49831454  0.89771167  1
  Zr  Zr34  1  0.10063903  0.49012376  0.09749707  1
  Zr  Zr35  1  0.29111387  0.30212934  0.11464607  1
  Zr  Zr36  1  0.10302565  0.91136211  0.30187688  1
  Zr  Zr37  1  0.70384931  0.10131806  0.29987003  1
  Zr  Zr38  1  0.50469103  0.50509018  0.70129671  1
  Zr  Zr39  1  0.90441685  0.90086623  0.70482102  1
  Zr  Zr40  1  0.29674334  0.49925467  0.09393990  1
  Zr  Zr41  1  0.49936705  0.30209284  0.89987231  1
  Zr  Zr42  1  0.10265865  0.30176146  0.49942588  1
  Zr  Zr43  1  0.09312094  0.90599669  0.90060160  1
  Zr  Zr44  1  0.69683840  0.10801099  0.50630894  1
  Zr  Zr45  1  0.90254603  0.90382612  0.29703336  1
  Zr  Zr46  1  0.30346530  0.69315055  0.89963065  1
  Zr  Zr47  1  0.68855942  0.89631550  0.49738501  1
  Zr  Zr48  1  0.30102521  0.49306866  0.29578576  1
  Zr  Zr49  1  0.29662141  0.69589911  0.09680525  1
  Sc  Sc50  1  0.48743631  0.29821213  0.29930752  1
  Sc  Sc51  1  0.09953586  0.89568305  0.70795028  1
  Sc  Sc52  1  0.09848472  0.08939209  0.49953468  1
  Sc  Sc53  1  0.69557828  0.89940778  0.29825245  1
  Sc  Sc54  1  0.30457011  0.10367833  0.71121579  1
  Sc  Sc55  1  0.70186956  0.09900031  0.90041119  1
  Sc  Sc56  1  0.49806658  0.51344141  0.48865956  1
  Sc  Sc57  1  0.69650242  0.91031265  0.09297756  1
  Sc  Sc58  1  0.69741706  0.49876822  0.30653350  1
  Sc  Sc59  1  0.69503497  0.28169897  0.70088228  1
  Sc  Sc60  1  0.29896793  0.91159656  0.10358227  1
  Sc  Sc61  1  0.10351494  0.70852510  0.70257782  1
  Sc  Sc62  1  0.89933337  0.10236975  0.29150556  1
  Sc  Sc63  1  0.90593683  0.49177998  0.48991829  1
  Sc  Sc64  1  0.50289571  0.09017178  0.50475478  1
  Sc  Sc65  1  0.09800061  0.10915055  0.09742062  1
  Sc  Sc66  1  0.70698385  0.30713872  0.10131615  1
  Sc  Sc67  1  0.90102527  0.50008934  0.10028479  1
  Sc  Sc68  1  0.30275871  0.91315891  0.88809154  1
  Sc  Sc69  1  0.90138718  0.09762032  0.50800436  1
  Sc  Sc70  1  0.29952421  0.30380491  0.30066018  1
  Sc  Sc71  1  0.09871446  0.09421902  0.29415131  1
  Sc  Sc72  1  0.09797538  0.29370555  0.90881907  1
  Sc  Sc73  1  0.09356054  0.69796035  0.89855932  1
  Sc  Sc74  1  0.50036767  0.29485020  0.70817310  1
  Sc  Sc75  1  0.50435021  0.91263836  0.09145652  1
  Sc  Sc76  1  0.10451234  0.09976203  0.90299167  1
  Sc  Sc77  1  0.70243624  0.70461269  0.29737120  1
  Sc  Sc78  1  0.70124352  0.49940645  0.09195350  1
  Sc  Sc79  1  0.50824690  0.70007090  0.89195096  1
  Sc  Sc80  1  0.90497306  0.09470364  0.89766961  1
  Sc  Sc81  1  0.49695871  0.70458416  0.49793234  1
  Sc  Sc82  1  0.29482430  0.69444251  0.29988194  1
  Sc  Sc83  1  0.90960265  0.30635821  0.10779425  1
  Sc  Sc84  1  0.70095305  0.89521216  0.69977788  1
  Sc  Sc85  1  0.10452711  0.28479192  0.70508467  1
  Sc  Sc86  1  0.48740420  0.10251042  0.90952015  1
  Sc  Sc87  1  0.30476416  0.50339525  0.71272725  1
  Sc  Sc88  1  0.50103336  0.30058672  0.09699705  1
  Sc  Sc89  1  0.09977182  0.70007406  0.50160906  1
  Sc  Sc90  1  0.30830329  0.09967794  0.50600385  1
  Sc  Sc91  1  0.29934997  0.91323973  0.30155963  1
  Sc  Sc92  1  0.90137323  0.71027859  0.50492067  1
  Sc  Sc93  1  0.29815383  0.50071025  0.48338366  1
  Sc  Sc94  1  0.30210589  0.70531639  0.70372408  1
  Sc  Sc95  1  0.70369291  0.69941291  0.09220408  1
  Sc  Sc96  1  0.10069417  0.30285611  0.28887233  1
  Sc  Sc97  1  0.49903270  0.28812805  0.49754508  1
  Sc  Sc98  1  0.68964044  0.70098034  0.70297630  1
  Sc  Sc99  1  0.90160164  0.90314699  0.09391939  1
  Nb  Nb100  1  0.70141088  0.50018200  0.69425945  1
  Nb  Nb101  1  0.49673786  0.90491383  0.49721525  1
  Nb  Nb102  1  0.30803136  0.28996008  0.89009586  1
  Nb  Nb103  1  0.29774252  0.30022484  0.50543938  1
  Nb  Nb104  1  0.10170315  0.50090942  0.31749565  1
  Nb  Nb105  1  0.49762177  0.50047775  0.29464113  1
  Nb  Nb106  1  0.09371027  0.30209199  0.10228279  1
  Nb  Nb107  1  0.90022029  0.89590009  0.89553520  1
  Nb  Nb108  1  0.29934870  0.10843277  0.90538255  1
  Nb  Nb109  1  0.89372319  0.10785501  0.10549846  1
  Nb  Nb110  1  0.49693120  0.69456420  0.70605873  1
  Nb  Nb111  1  0.89997066  0.50061964  0.89655057  1
  Nb  Nb112  1  0.10127087  0.09305334  0.70510090  1
  Nb  Nb113  1  0.69106502  0.09510040  0.69815424  1
  Nb  Nb114  1  0.30284460  0.10234538  0.09688203  1
  Nb  Nb115  1  0.70412987  0.30295316  0.49152099  1
  Nb  Nb116  1  0.90740095  0.50225814  0.29985048  1
  Nb  Nb117  1  0.70345902  0.10244779  0.10525582  1
  Nb  Nb118  1  0.51381575  0.09869812  0.69339848  1
  Nb  Nb119  1  0.69888833  0.70681329  0.89622757  1
  Nb  Nb120  1  0.10233725  0.49806092  0.49923423  1
  Nb  Nb121  1  0.29762708  0.90026425  0.69936027  1
  Nb  Nb122  1  0.49951668  0.89708753  0.89898120  1
  Nb  Nb123  1  0.70949156  0.49970110  0.88701565  1
  Nb  Nb124  1  0.70202765  0.29783650  0.31106349  1
  Nb  Nb125  1  0.20571252  -0.00340615  0.61053047  1
  Nb  Nb126  1  0.40408574  0.59954550  0.19575042  1
  Nb  Nb127  1  0.19671935  0.80585268  0.39964202  1
  Nb  Nb128  1  0.39881873  0.80542665  -0.00240274  1
  Nb  Nb129  1  0.59401660  -0.00138046  0.79893721  1
  Nb  Nb130  1  0.80378093  0.19822100  0.00640627  1
  Nb  Nb131  1  0.39335066  0.39678951  -0.00658181  1
  Nb  Nb132  1  0.59016500  0.80007221  0.19405110  1
  Nb  Nb133  1  0.79686947  0.39939515  0.60094973  1
  Nb  Nb134  1  0.19654440  0.59145305  0.59946512  1
  Nb  Nb135  1  0.79751530  -0.00066056  0.40381498  1
  Nb  Nb136  1  0.60149623  0.39886823  0.59565256  1
  Nb  Nb137  1  0.00248331  0.40131873  0.60345929  1
  Nb  Nb138  1  0.80696001  0.60091878  0.40102731  1
  Nb  Nb139  1  0.00405466  0.80563826  0.39525978  1
  Nb  Nb140  1  0.00014807  0.59034647  0.60225043  1
  Nb  Nb141  1  0.00280429  0.20048153  0.39818557  1
  Nb  Nb142  1  0.20324030  0.80414093  -0.00078089  1
  Nb  Nb143  1  0.19851812  0.20022324  0.40217878  1
  Nb  Nb144  1  0.20265940  0.40266792  0.60019550  1
  Nb  Nb145  1  0.39941704  0.40010477  0.59867516  1
  Nb  Nb146  1  0.60775218  0.20433610  0.20362998  1
  Nb  Nb147  1  0.59946610  0.39647526  0.20769760  1
  Nb  Nb148  1  0.40576664  0.79708431  0.19351913  1
  Nb  Nb149  1  0.80343904  0.59329995  0.59953888  1
  Pd  Pd150  1  0.39206923  0.79937738  0.39028787  1
  Pd  Pd151  1  -0.00580343  0.00789878  0.00381977  1
  Pd  Pd152  1  0.79323581  0.40758807  0.20624587  1
  Pd  Pd153  1  0.19767462  0.59085951  0.20105313  1
  Pd  Pd154  1  0.39086652  0.59404332  0.59999394  1
  Pd  Pd155  1  0.79063459  0.38585941  0.79158622  1
  Pd  Pd156  1  0.79787251  -0.00716063  0.20251655  1
  Pd  Pd157  1  0.19561473  0.38838908  0.80036266  1
  Pd  Pd158  1  0.58863720  0.80028083  0.60388228  1
  Pd  Pd159  1  -0.00557699  0.61025818  0.40866632  1
  Pd  Pd160  1  0.20928396  0.80721036  0.20105897  1
  Pd  Pd161  1  0.78960378  0.80767246  0.18888918  1
  Pd  Pd162  1  0.00317334  0.19105082  0.80479168  1
  Pd  Pd163  1  0.58500342  0.39581935  0.39887222  1
  Pd  Pd164  1  0.00811604  0.58999248  0.19671524  1
  Pd  Pd165  1  0.19847008  0.19065431  0.59646321  1
  Pd  Pd166  1  0.79831461  0.59663506  -0.00611791  1
  Pd  Pd167  1  0.39261894  0.21005351  0.00978402  1
  Pd  Pd168  1  0.59985009  0.00803568  -0.01033408  1
  Pd  Pd169  1  0.20282806  0.80174824  0.81093810  1
  Pd  Pd170  1  0.79672573  0.79399900  0.60612886  1
  Pd  Pd171  1  0.79300985  0.59174291  0.20544669  1
  Pd  Pd172  1  0.59559346  0.19820617  0.39777196  1
  Pd  Pd173  1  0.20535235  -0.00111996  -0.00068404  1
  Pd  Pd174  1  0.60854002  0.19890130  0.00770359  1
  Pd  Pd175  1  0.80746621  0.80231479  0.39933903  1
  Pd  Pd176  1  0.60438017  0.59813361  0.20204452  1
  Pd  Pd177  1  0.39123398  0.19481740  0.39958379  1
  Pd  Pd178  1  0.00868661  0.38861417  0.79918837  1
  Pd  Pd179  1  0.60050931  0.59861148  0.59706948  1
  Pd  Pd180  1  0.00070741  0.39021581  0.39744040  1
  Pd  Pd181  1  0.61365397  0.59508027  -0.01424105  1
  Pd  Pd182  1  0.20543068  0.38519492  -0.00792622  1
  Pd  Pd183  1  0.79989540  0.80408484  0.00549682  1
  Pd  Pd184  1  0.80843039  0.39884933  0.00061697  1
  Pd  Pd185  1  0.00074188  0.80553552  0.20023103  1
  Pd  Pd186  1  0.80428054  0.00516329  -0.00502796  1
  Pd  Pd187  1  0.79381393  0.61106068  0.79566401  1
  Pd  Pd188  1  0.20283274  0.20678143  0.00343292  1
  Pd  Pd189  1  0.60755059  0.39793754  0.78925786  1
  Pd  Pd190  1  0.40474402  0.79369146  0.60431957  1
  Pd  Pd191  1  0.40448608  -0.00556541  0.19812279  1
  Pd  Pd192  1  0.59416532  0.18772076  0.81209350  1
  Pd  Pd193  1  0.79730751  0.19730410  0.80842487  1
  Pd  Pd194  1  0.40778265  0.20065078  0.60624381  1
  Pd  Pd195  1  0.40565707  0.00920511  0.79887925  1
  Pd  Pd196  1  0.00781694  0.19576652  0.59496558  1
  Pd  Pd197  1  0.40490156  0.39821943  0.40878777  1
  Pd  Pd198  1  0.79233226  -0.00244941  0.80234116  1
  Pd  Pd199  1  0.79064619  -0.00305222  0.59687484  1
  Rh  Rh200  1  0.20120800  0.80170744  0.59647930  1
  Rh  Rh201  1  0.19766959  0.60929301  0.79730019  1
  Rh  Rh202  1  0.00269353  0.20062494  0.20277225  1
  Rh  Rh203  1  0.59928703  0.20828085  0.59413661  1
  Rh  Rh204  1  0.19574922  0.19769448  0.20110557  1
  Rh  Rh205  1  -0.00022145  0.80032558  0.80711400  1
  Rh  Rh206  1  0.59967832  0.40303214  0.00109330  1
  Rh  Rh207  1  0.00384623  0.80280175  -0.00215305  1
  Rh  Rh208  1  -0.00011214  0.00218562  0.80000320  1
  Rh  Rh209  1  0.00553133  0.79682068  0.59823583  1
  Rh  Rh210  1  -0.00026739  0.60530047  0.80121573  1
  Rh  Rh211  1  0.59668636  0.80196646  0.00222734  1
  Rh  Rh212  1  0.79352413  0.20096613  0.60192349  1
  Rh  Rh213  1  0.40971193  0.19091149  0.79729027  1
  Rh  Rh214  1  0.40872528  0.40615219  0.18933308  1
  Rh  Rh215  1  0.40280333  0.59505116  -0.00497662  1
  Rh  Rh216  1  0.39739085  0.00387602  0.60774026  1
  Rh  Rh217  1  0.59307882  0.80408553  0.79516524  1
  Rh  Rh218  1  0.39845154  0.00695069  0.39988442  1
  Rh  Rh219  1  0.19852418  0.19487882  0.80775285  1
  Rh  Rh220  1  0.79476993  0.20932833  0.19453097  1
  Rh  Rh221  1  -0.01553695  0.00523680  0.39638086  1
  Rh  Rh222  1  0.60662851  0.60451764  0.39612803  1
  Rh  Rh223  1  0.19702333  0.01039770  0.18845496  1
  Rh  Rh224  1  0.18975162  0.60631947  -0.00556092  1
  Rh  Rh225  1  -0.00554442  0.40068716  -0.00162692  1
  Rh  Rh226  1  0.40299884  0.60182795  0.80236017  1
  Rh  Rh227  1  0.60030453  0.00180563  0.20072245  1
  Rh  Rh228  1  0.60881995  0.59969184  0.80333800  1
  Rh  Rh229  1  0.40071301  0.40086177  0.80047194  1
  Rh  Rh230  1  0.00888914  -0.00013289  0.61289807  1
  Rh  Rh231  1  0.20148968  0.39161799  0.39846730  1
  Rh  Rh232  1  0.80884718  0.18754650  0.40129483  1
  Rh  Rh233  1  0.80609401  0.40909660  0.39471934  1
  Rh  Rh234  1  0.39325205  -0.00288590  -0.00235870  1
  Rh  Rh235  1  -0.00904997  0.20022666  0.00560593  1
  Rh  Rh236  1  0.40397080  0.20021716  0.19642156  1
  Rh  Rh237  1  0.59554522  0.79735074  0.39499765  1
  Rh  Rh238  1  0.00438273  0.40818288  0.20677199  1
  Rh  Rh239  1  0.39542649  0.60230182  0.38995034  1
  Rh  Rh240  1  0.19947539  0.60757162  0.40483521  1
  Rh  Rh241  1  0.40012316  0.79731692  0.80412612  1
  Rh  Rh242  1  0.18967208  0.40693751  0.20721605  1
  Rh  Rh243  1  -0.00528817  0.59431901  -0.00027147  1
  Rh  Rh244  1  0.60605849  0.00467921  0.40340381  1
  Rh  Rh245  1  0.21179339  0.00406903  0.41431054  1
  Rh  Rh246  1  0.20137101  0.00606771  0.79742993  1
  Rh  Rh247  1  -0.00121521  0.00662969  0.19039328  1
  Rh  Rh248  1  0.80027782  0.79799886  0.79786856  1
  Rh  Rh249  1  0.59971884  -0.01203890  0.60526307  1
