# generated using pymatgen
data_ZrScNbPdRh
_symmetry_space_group_name_H-M   'P 1'
_cell_length_a   16.56004899
_cell_length_b   16.55641592
_cell_length_c   16.56149511
_cell_angle_alpha   90.02756557
_cell_angle_beta   89.98785998
_cell_angle_gamma   89.99104777
_symmetry_Int_Tables_number   1
_chemical_formula_structural   ZrScNbPdRh
_chemical_formula_sum   'Zr50 Sc50 Nb50 Pd50 Rh50'
_cell_volume   4540.74821180
_cell_formula_units_Z   50
loop_
 _symmetry_equiv_pos_site_id
 _symmetry_equiv_pos_as_xyz
  1  'x, y, z'
loop_
 _atom_site_type_symbol
 _atom_site_label
 _atom_site_symmetry_multiplicity
 _atom_site_fract_x
 _atom_site_fract_y
 _atom_site_fract_z
 _atom_site_occupancy
  Zr  Zr0  1  0.89869549  0.30000051  0.30149153  1
  Zr  Zr1  1  0.70680261  0.89740384  0.30442048  1
  Zr  Zr2  1  0.49849026  0.89324050  0.89200722  1
  Zr  Zr3  1  0.49790754  0.50081884  0.30251645  1
  Zr  Zr4  1  0.90548871  0.29795070  0.70236110  1
  Zr  Zr5  1  0.89379387  0.69456645  0.69761143  1
  Zr  Zr6  1  0.49898416  0.48354453  0.10192892  1
  Zr  Zr7  1  0.69854383  0.70344817  0.09552224  1
  Zr  Zr8  1  0.29198971  0.10924079  0.29356188  1
  Zr  Zr9  1  0.69826388  0.90030298  0.70461984  1
  Zr  Zr10  1  0.09614192  0.90521819  0.09440252  1
  Zr  Zr11  1  0.29744396  0.69056647  0.29933753  1
  Zr  Zr12  1  0.69677792  0.09993295  0.10194064  1
  Zr  Zr13  1  0.10553395  0.70551318  0.49221109  1
  Zr  Zr14  1  0.50586249  0.69924661  0.89674255  1
  Zr  Zr15  1  0.29636179  0.69474941  0.09808045  1
  Zr  Zr16  1  0.90150757  0.89791128  0.10432496  1
  Zr  Zr17  1  0.49078604  0.10170122  0.70484952  1
  Zr  Zr18  1  0.30547239  0.30872287  0.10589806  1
  Zr  Zr19  1  0.10851058  0.89894575  0.68383053  1
  Zr  Zr20  1  0.70022190  0.10404768  0.49752387  1
  Zr  Zr21  1  0.10221481  0.10762693  0.91438579  1
  Zr  Zr22  1  0.50674776  0.69580052  0.31132663  1
  Zr  Zr23  1  0.10299299  0.68757905  0.68960307  1
  Zr  Zr24  1  0.50307876  0.50198359  0.49901586  1
  Zr  Zr25  1  0.50029832  0.09223438  0.29634461  1
  Zr  Zr26  1  0.30198822  0.49281331  0.28799232  1
  Zr  Zr27  1  0.10202647  0.31088429  0.70902348  1
  Zr  Zr28  1  0.49281834  0.50168417  0.69537735  1
  Zr  Zr29  1  0.90896111  0.69890675  0.10100395  1
  Zr  Zr30  1  0.09583721  0.29569784  0.29931298  1
  Zr  Zr31  1  0.29319818  0.09796775  0.10305372  1
  Zr  Zr32  1  0.70134235  0.11414610  0.30025082  1
  Zr  Zr33  1  0.69764950  0.50216436  0.90113191  1
  Zr  Zr34  1  0.50187410  0.10160721  0.49503142  1
  Zr  Zr35  1  0.70368144  0.89892680  0.50722707  1
  Zr  Zr36  1  0.09247398  0.30000420  0.08879253  1
  Zr  Zr37  1  0.69661511  0.30486170  0.49070596  1
  Zr  Zr38  1  0.29817221  0.49554352  0.09892273  1
  Zr  Zr39  1  0.09659272  0.50258519  0.29761556  1
  Zr  Zr40  1  0.09757483  0.90103529  0.49078057  1
  Zr  Zr41  1  0.70978352  0.49081547  0.09974601  1
  Zr  Zr42  1  0.70282525  0.09531748  0.70218875  1
  Zr  Zr43  1  0.28877574  0.89660703  0.50213598  1
  Zr  Zr44  1  0.49980256  0.90167078  0.49800335  1
  Zr  Zr45  1  0.29787439  0.09990170  0.89830983  1
  Zr  Zr46  1  0.90361100  0.69936465  0.30229598  1
  Zr  Zr47  1  0.50048003  0.10724695  0.09985529  1
  Zr  Zr48  1  0.70439345  0.90901481  0.10161746  1
  Zr  Zr49  1  0.89938413  0.30183626  0.49630323  1
  Sc  Sc50  1  0.90049363  0.10097429  0.89288046  1
  Sc  Sc51  1  0.10152429  0.49527530  0.09532079  1
  Sc  Sc52  1  0.89828067  0.69923250  0.90095687  1
  Sc  Sc53  1  0.30560831  0.10887296  0.71143467  1
  Sc  Sc54  1  0.29512575  0.49884405  0.89771413  1
  Sc  Sc55  1  0.90639472  0.89584292  0.29945593  1
  Sc  Sc56  1  0.51057994  0.30593901  0.29715417  1
  Sc  Sc57  1  0.88405319  0.90070698  0.69689764  1
  Sc  Sc58  1  0.69714863  0.30182119  0.10850225  1
  Sc  Sc59  1  0.89838225  0.89616391  0.90038157  1
  Sc  Sc60  1  0.28573443  0.90162277  0.10364060  1
  Sc  Sc61  1  0.29647766  0.69521293  0.89569024  1
  Sc  Sc62  1  0.29638987  0.10003814  0.49393439  1
  Sc  Sc63  1  0.90801909  0.49910633  0.10644728  1
  Sc  Sc64  1  0.09973385  0.69867108  0.10022177  1
  Sc  Sc65  1  0.70185475  0.50234096  0.49961134  1
  Sc  Sc66  1  0.69634813  0.70167267  0.89477054  1
  Sc  Sc67  1  0.30454292  0.30487842  0.50240820  1
  Sc  Sc68  1  0.89015839  0.69328811  0.49322441  1
  Sc  Sc69  1  0.69747462  0.89806013  0.89558694  1
  Sc  Sc70  1  0.70257118  0.50818561  0.69050912  1
  Sc  Sc71  1  0.89521042  0.49617704  0.91144078  1
  Sc  Sc72  1  0.90177569  0.31282541  0.09922984  1
  Sc  Sc73  1  0.70134125  0.09662718  0.89911649  1
  Sc  Sc74  1  0.69943332  0.30122071  0.91039380  1
  Sc  Sc75  1  0.90499821  0.09094746  0.10796016  1
  Sc  Sc76  1  0.89747032  0.09997045  0.70180375  1
  Sc  Sc77  1  0.29413401  0.29854097  0.89549615  1
  Sc  Sc78  1  0.30351522  0.69512412  0.69736361  1
  Sc  Sc79  1  0.29411493  0.90873001  0.29858518  1
  Sc  Sc80  1  0.09573619  0.29791342  0.49863634  1
  Sc  Sc81  1  0.31271926  0.49842946  0.49982355  1
  Sc  Sc82  1  0.10103176  0.09908660  0.49935661  1
  Sc  Sc83  1  0.90816442  0.10314262  0.50890016  1
  Sc  Sc84  1  0.51295173  0.90902176  0.10294195  1
  Sc  Sc85  1  0.30195945  0.69709633  0.50053396  1
  Sc  Sc86  1  0.10091008  0.69387073  0.90980032  1
  Sc  Sc87  1  0.09597501  0.10831708  0.69438365  1
  Sc  Sc88  1  0.70027712  0.70232137  0.69510792  1
  Sc  Sc89  1  0.31007373  0.89777776  0.69863257  1
  Sc  Sc90  1  0.89585611  0.49955409  0.50196202  1
  Sc  Sc91  1  0.90323369  0.49645359  0.30434183  1
  Sc  Sc92  1  0.70024230  0.48566352  0.30515194  1
  Sc  Sc93  1  0.49515604  0.10936328  0.90279648  1
  Sc  Sc94  1  0.29181757  0.49821187  0.70285672  1
  Sc  Sc95  1  0.49837788  0.70049184  0.69785905  1
  Sc  Sc96  1  0.49850404  0.89916599  0.70172364  1
  Sc  Sc97  1  0.50809894  0.69998659  0.09612158  1
  Sc  Sc98  1  0.09533890  0.50293529  0.50715245  1
  Sc  Sc99  1  0.30038832  0.89613704  0.89703591  1
  Nb  Nb100  1  0.10797868  0.49103354  0.89230983  1
  Nb  Nb101  1  0.50011519  0.49511365  0.90061609  1
  Nb  Nb102  1  0.10142596  0.89127403  0.30760906  1
  Nb  Nb103  1  0.50081337  0.89863983  0.30011081  1
  Nb  Nb104  1  0.69687163  0.30303711  0.70134670  1
  Nb  Nb105  1  0.50277350  0.30063064  0.08467480  1
  Nb  Nb106  1  0.90509100  0.29481518  0.90557675  1
  Nb  Nb107  1  0.70655764  0.29906149  0.30496008  1
  Nb  Nb108  1  0.09790981  0.89842653  0.90092403  1
  Nb  Nb109  1  0.09259172  0.30337856  0.90059354  1
  Nb  Nb110  1  0.90088281  0.90221630  0.49731840  1
  Nb  Nb111  1  0.50103920  0.30712630  0.90800952  1
  Nb  Nb112  1  0.70451307  0.70025743  0.31032267  1
  Nb  Nb113  1  0.10212394  0.09579498  0.10143843  1
  Nb  Nb114  1  0.30208183  0.29841360  0.70073919  1
  Nb  Nb115  1  0.89733968  0.10263807  0.30111702  1
  Nb  Nb116  1  0.49114638  0.30038355  0.69908203  1
  Nb  Nb117  1  0.49679999  0.30426781  0.50521568  1
  Nb  Nb118  1  0.90306103  0.50137334  0.69522095  1
  Nb  Nb119  1  0.50510080  0.69412435  0.49600644  1
  Nb  Nb120  1  0.09944903  0.70190093  0.30741830  1
  Nb  Nb121  1  0.29346676  0.29786111  0.30183586  1
  Nb  Nb122  1  0.09502996  0.50010818  0.70435645  1
  Nb  Nb123  1  0.69177903  0.69889753  0.48788832  1
  Nb  Nb124  1  0.09775527  0.10365427  0.29232044  1
  Nb  Nb125  1  0.80538139  0.20049985  0.00263476  1
  Nb  Nb126  1  0.60919789  0.60038881  0.20375560  1
  Nb  Nb127  1  0.01027725  -0.00945228  0.79924504  1
  Nb  Nb128  1  0.80018694  0.80153472  0.00601077  1
  Nb  Nb129  1  0.79132750  0.20730263  0.60374592  1
  Nb  Nb130  1  0.20094896  0.39810803  0.39440268  1
  Nb  Nb131  1  0.19152922  -0.00276203  0.80198967  1
  Nb  Nb132  1  0.59600750  0.20799984  0.60486045  1
  Nb  Nb133  1  0.40585493  0.59702297  -0.00252526  1
  Nb  Nb134  1  0.00558293  0.79816006  0.79195307  1
  Nb  Nb135  1  0.39809473  -0.00313559  0.00236265  1
  Nb  Nb136  1  0.40151475  0.20448903  0.39482633  1
  Nb  Nb137  1  0.20480102  0.20967513  0.60575279  1
  Nb  Nb138  1  0.59579750  0.21150042  0.79631881  1
  Nb  Nb139  1  0.00227244  0.59299742  0.79633825  1
  Nb  Nb140  1  0.79509511  0.60341556  0.20501592  1
  Nb  Nb141  1  0.18985214  0.80141005  0.79658608  1
  Nb  Nb142  1  0.40193872  0.79962514  0.00653001  1
  Nb  Nb143  1  0.59636111  0.39838307  0.79797272  1
  Nb  Nb144  1  0.60161154  0.79712567  0.20930912  1
  Nb  Nb145  1  0.40330978  0.80169320  0.39563993  1
  Nb  Nb146  1  0.80768847  0.00393140  0.40135914  1
  Nb  Nb147  1  0.40617030  0.80041959  0.20201350  1
  Nb  Nb148  1  0.79920418  0.39660197  0.79711834  1
  Nb  Nb149  1  -0.00426521  0.79992104  0.59609797  1
  Pd  Pd150  1  0.80853000  0.20525949  0.18901333  1
  Pd  Pd151  1  0.80322844  0.60586521  0.00618569  1
  Pd  Pd152  1  0.80032309  0.39818523  0.60394714  1
  Pd  Pd153  1  0.59624307  0.79593320  0.60135620  1
  Pd  Pd154  1  -0.00787210  -0.00558771  0.60792956  1
  Pd  Pd155  1  -0.00176640  0.00838711  0.39248798  1
  Pd  Pd156  1  0.00459707  0.59079721  -0.00707421  1
  Pd  Pd157  1  0.59536517  0.20803107  0.19899401  1
  Pd  Pd158  1  0.19444212  0.00764584  0.39190628  1
  Pd  Pd159  1  0.39343106  0.00448242  0.59905112  1
  Pd  Pd160  1  0.39165987  0.00064618  0.39749436  1
  Pd  Pd161  1  0.39838273  0.39874870  0.80256804  1
  Pd  Pd162  1  0.00598180  -0.00452059  0.21038696  1
  Pd  Pd163  1  0.40374651  0.79476873  0.59099800  1
  Pd  Pd164  1  0.20748709  0.59152369  0.59236514  1
  Pd  Pd165  1  -0.00175975  0.59710085  0.40673156  1
  Pd  Pd166  1  0.60079950  0.59504678  0.79071015  1
  Pd  Pd167  1  0.39583206  0.19734902  0.59067545  1
  Pd  Pd168  1  0.80787636  0.00221241  -0.00622430  1
  Pd  Pd169  1  0.20467544  0.58636279  0.40524991  1
  Pd  Pd170  1  0.59518481  0.00565801  0.60389306  1
  Pd  Pd171  1  0.19812380  0.80001773  0.20500831  1
  Pd  Pd172  1  0.80500336  0.59195941  0.80062621  1
  Pd  Pd173  1  0.39099788  0.19974437  -0.00114138  1
  Pd  Pd174  1  0.79255960  0.20722754  0.80529461  1
  Pd  Pd175  1  0.19255318  0.20775246  0.18871703  1
  Pd  Pd176  1  0.20244538  0.39985072  0.59366356  1
  Pd  Pd177  1  0.39840330  0.59991490  0.80425128  1
  Pd  Pd178  1  0.59300144  0.00882130  0.80496777  1
  Pd  Pd179  1  0.39804047  -0.00832971  0.19104625  1
  Pd  Pd180  1  0.41233599  0.60636460  0.19030738  1
  Pd  Pd181  1  -0.00636013  0.20154749  0.19134930  1
  Pd  Pd182  1  0.61018811  -0.00234163  0.39632172  1
  Pd  Pd183  1  0.21106326  0.01694046  0.61051338  1
  Pd  Pd184  1  0.79744114  0.79329292  0.19847806  1
  Pd  Pd185  1  0.18909530  0.59895978  0.19547047  1
  Pd  Pd186  1  0.40931265  0.20975869  0.20551886  1
  Pd  Pd187  1  0.59177907  0.00230178  -0.01130542  1
  Pd  Pd188  1  -0.01222266  0.40801181  0.80920170  1
  Pd  Pd189  1  0.20610651  0.20817396  0.00603268  1
  Pd  Pd190  1  0.00078581  0.39898046  0.59574127  1
  Pd  Pd191  1  0.59572704  0.58995125  0.00757916  1
  Pd  Pd192  1  0.01225361  0.79834106  0.20160593  1
  Pd  Pd193  1  -0.00787162  0.00387338  -0.00682085  1
  Pd  Pd194  1  0.80118273  0.79200130  0.59145113  1
  Pd  Pd195  1  0.00659706  0.19281485  0.80212534  1
  Pd  Pd196  1  -0.00029581  0.19230049  0.40242990  1
  Pd  Pd197  1  0.39787824  0.39248540  0.39403573  1
  Pd  Pd198  1  0.20435402  0.79957667  -0.00652751  1
  Pd  Pd199  1  0.59821704  0.40109346  0.60256619  1
  Rh  Rh200  1  0.40750397  0.38903926  0.20426220  1
  Rh  Rh201  1  0.19138265  0.60457507  0.80266475  1
  Rh  Rh202  1  -0.00684581  0.60331380  0.59965093  1
  Rh  Rh203  1  -0.00682584  0.79881132  -0.00373727  1
  Rh  Rh204  1  0.60980157  0.19835520  -0.00356211  1
  Rh  Rh205  1  0.60242021  0.39828786  0.20024080  1
  Rh  Rh206  1  -0.00636905  0.79667973  0.40602008  1
  Rh  Rh207  1  0.39477655  -0.00362590  0.80766868  1
  Rh  Rh208  1  0.60020646  0.60566098  0.59640324  1
  Rh  Rh209  1  0.00287713  0.39942595  0.20199311  1
  Rh  Rh210  1  0.60123747  0.79611140  0.79010198  1
  Rh  Rh211  1  0.80436159  0.40203756  0.39863599  1
  Rh  Rh212  1  0.21194141  0.79826638  0.39172958  1
  Rh  Rh213  1  0.39204027  0.40391922  -0.00695099  1
  Rh  Rh214  1  0.60738929  0.40116390  -0.00151760  1
  Rh  Rh215  1  0.79588220  0.59309236  0.39513903  1
  Rh  Rh216  1  0.79919510  0.00656191  0.21435848  1
  Rh  Rh217  1  0.39428911  0.40427167  0.60705870  1
  Rh  Rh218  1  0.80541851  0.80607227  0.40655589  1
  Rh  Rh219  1  0.39585265  0.60442991  0.40399216  1
  Rh  Rh220  1  0.80775305  -0.00441911  0.80355757  1
  Rh  Rh221  1  0.39319151  0.79427572  0.80397932  1
  Rh  Rh222  1  0.19083062  0.19913046  0.79441431  1
  Rh  Rh223  1  0.80130888  0.39065447  -0.00427823  1
  Rh  Rh224  1  0.80071629  0.79851786  0.80997530  1
  Rh  Rh225  1  0.79593553  0.60303690  0.59297271  1
  Rh  Rh226  1  0.40665479  0.21235018  0.81012125  1
  Rh  Rh227  1  0.40143472  0.60097285  0.59925555  1
  Rh  Rh228  1  -0.00049060  0.60169183  0.20412993  1
  Rh  Rh229  1  0.59626414  0.80728133  0.40294624  1
  Rh  Rh230  1  0.18995540  0.39371794  0.20357839  1
  Rh  Rh231  1  0.60811615  0.58712863  0.39754081  1
  Rh  Rh232  1  0.20417520  0.39714602  0.80149866  1
  Rh  Rh233  1  0.00417111  0.20727653  0.60220450  1
  Rh  Rh234  1  0.80385743  0.40212009  0.20699629  1
  Rh  Rh235  1  0.20311226  0.59203569  -0.00040534  1
  Rh  Rh236  1  0.80973760  0.19415269  0.40783166  1
  Rh  Rh237  1  0.00262486  0.40662339  -0.00666381  1
  Rh  Rh238  1  0.19960751  0.39578258  -0.00535917  1
  Rh  Rh239  1  0.58810331  0.21018306  0.40344331  1
  Rh  Rh240  1  0.60444980  0.81193475  0.00453849  1
  Rh  Rh241  1  0.20561448  0.20749844  0.41018315  1
  Rh  Rh242  1  0.80324816  0.01023366  0.59265365  1
  Rh  Rh243  1  0.00666354  0.40443425  0.40290974  1
  Rh  Rh244  1  0.59817001  0.39975756  0.40169016  1
  Rh  Rh245  1  0.18526334  -0.00273626  0.20684261  1
  Rh  Rh246  1  -0.00952456  0.19358904  0.00682578  1
  Rh  Rh247  1  0.60888509  -0.00139120  0.20970156  1
  Rh  Rh248  1  0.20458903  -0.00211176  -0.00513637  1
  Rh  Rh249  1  0.20217278  0.79136124  0.60207648  1
