# generated using pymatgen
data_ZrScNbPdRh
_symmetry_space_group_name_H-M   'P 1'
_cell_length_a   16.55442502
_cell_length_b   16.55567236
_cell_length_c   16.55286752
_cell_angle_alpha   89.98011498
_cell_angle_beta   90.00023332
_cell_angle_gamma   89.98822762
_symmetry_Int_Tables_number   1
_chemical_formula_structural   ZrScNbPdRh
_chemical_formula_sum   'Zr50 Sc50 Nb50 Pd50 Rh50'
_cell_volume   4536.63801904
_cell_formula_units_Z   50
loop_
 _symmetry_equiv_pos_site_id
 _symmetry_equiv_pos_as_xyz
  1  'x, y, z'
loop_
 _atom_site_type_symbol
 _atom_site_label
 _atom_site_symmetry_multiplicity
 _atom_site_fract_x
 _atom_site_fract_y
 _atom_site_fract_z
 _atom_site_occupancy
  Zr  Zr0  1  0.30227053  0.10403882  0.49493231  1
  Zr  Zr1  1  0.10450621  0.10725985  0.50394629  1
  Zr  Zr2  1  0.49619579  0.89471301  0.29669254  1
  Zr  Zr3  1  0.49744041  0.70327799  0.90370394  1
  Zr  Zr4  1  0.89904315  0.49666670  0.50513193  1
  Zr  Zr5  1  0.89951309  0.50192291  0.89893502  1
  Zr  Zr6  1  0.89499043  0.30485830  0.10055358  1
  Zr  Zr7  1  0.90221922  0.90208453  0.49987589  1
  Zr  Zr8  1  0.10157207  0.69829368  0.50326534  1
  Zr  Zr9  1  0.69918428  0.69755763  0.30743003  1
  Zr  Zr10  1  0.70069846  0.30396277  0.69765801  1
  Zr  Zr11  1  0.09909891  0.90657694  0.10187901  1
  Zr  Zr12  1  0.90632292  0.89274152  0.10310586  1
  Zr  Zr13  1  0.29424409  0.90071880  0.10158036  1
  Zr  Zr14  1  0.90638989  0.10238373  0.69933247  1
  Zr  Zr15  1  0.10671496  0.29294020  0.89982533  1
  Zr  Zr16  1  0.49975744  0.09861002  0.89692522  1
  Zr  Zr17  1  0.69957027  0.10168159  0.10101243  1
  Zr  Zr18  1  0.90134465  0.69209957  0.69644817  1
  Zr  Zr19  1  0.90264438  0.10257292  0.49900704  1
  Zr  Zr20  1  0.30359023  0.49898545  0.90253785  1
  Zr  Zr21  1  0.90657153  0.49475245  0.69846988  1
  Zr  Zr22  1  0.69891610  0.50493617  0.89279365  1
  Zr  Zr23  1  0.08722838  0.70598217  0.09252155  1
  Zr  Zr24  1  0.89457570  0.89666579  0.30059113  1
  Zr  Zr25  1  0.49444530  0.09555164  0.69336257  1
  Zr  Zr26  1  0.90148512  0.50530484  0.09663788  1
  Zr  Zr27  1  0.10590985  0.70158542  0.89578882  1
  Zr  Zr28  1  0.10292398  0.90102125  0.29851920  1
  Zr  Zr29  1  0.09936273  0.49203530  0.49904141  1
  Zr  Zr30  1  0.09818238  0.29889345  0.69774458  1
  Zr  Zr31  1  0.70009408  0.30549920  0.30422420  1
  Zr  Zr32  1  0.89926468  0.10255981  0.89418574  1
  Zr  Zr33  1  0.90018198  0.90828455  0.69808557  1
  Zr  Zr34  1  0.69531195  0.30282955  0.49688041  1
  Zr  Zr35  1  0.49149779  0.90247433  0.89400612  1
  Zr  Zr36  1  0.49798618  0.89076958  0.10298183  1
  Zr  Zr37  1  0.69868036  0.10103039  0.68970626  1
  Zr  Zr38  1  0.69475882  0.10473135  0.49028211  1
  Zr  Zr39  1  0.70171185  0.89956454  0.49430579  1
  Zr  Zr40  1  0.90037311  0.29286298  0.89164317  1
  Zr  Zr41  1  0.89639961  0.90689604  0.90131092  1
  Zr  Zr42  1  0.89969912  0.69719609  0.10521499  1
  Zr  Zr43  1  0.49143312  0.50960977  0.50801109  1
  Zr  Zr44  1  0.29663506  0.30458681  0.90765650  1
  Zr  Zr45  1  0.30276408  0.90099920  0.70871066  1
  Zr  Zr46  1  0.69662722  0.69465571  0.50234845  1
  Zr  Zr47  1  0.69964068  0.30038451  0.09882703  1
  Zr  Zr48  1  0.89039952  0.10172169  0.30352571  1
  Zr  Zr49  1  0.90699195  0.68729181  0.90766067  1
  Sc  Sc50  1  0.09652869  0.49829233  0.10849321  1
  Sc  Sc51  1  0.10262893  0.90767999  0.49645126  1
  Sc  Sc52  1  0.09973160  0.10365418  0.90026806  1
  Sc  Sc53  1  0.50367756  0.90472292  0.49583458  1
  Sc  Sc54  1  0.49207127  0.10439214  0.30394674  1
  Sc  Sc55  1  0.50078586  0.29973777  0.69076689  1
  Sc  Sc56  1  0.50189460  0.69308374  0.29849859  1
  Sc  Sc57  1  0.50426083  0.50089162  0.30244995  1
  Sc  Sc58  1  0.49846183  0.30411696  0.30535995  1
  Sc  Sc59  1  0.31185583  0.70931216  0.30387505  1
  Sc  Sc60  1  0.28895804  0.09732567  0.89035211  1
  Sc  Sc61  1  0.32039335  0.69921847  0.09993418  1
  Sc  Sc62  1  0.30096031  0.90714549  0.30152153  1
  Sc  Sc63  1  0.89472886  0.68919532  0.49748874  1
  Sc  Sc64  1  0.30526548  0.49256291  0.10226940  1
  Sc  Sc65  1  0.70629207  0.29777369  0.89914304  1
  Sc  Sc66  1  0.49791626  0.29739841  0.49538255  1
  Sc  Sc67  1  0.10491854  0.30833174  0.30682692  1
  Sc  Sc68  1  0.50599692  0.90215439  0.70515339  1
  Sc  Sc69  1  0.10190424  0.49814919  0.89099432  1
  Sc  Sc70  1  0.90363895  0.30345872  0.50086873  1
  Sc  Sc71  1  0.49379487  0.50427028  0.10758150  1
  Sc  Sc72  1  0.29199761  0.10777984  0.11349293  1
  Sc  Sc73  1  0.30662859  0.69727955  0.49539470  1
  Sc  Sc74  1  0.70841459  0.10408530  0.90466131  1
  Sc  Sc75  1  0.29069347  0.30160517  0.70017212  1
  Sc  Sc76  1  0.29562042  0.30261753  0.10641062  1
  Sc  Sc77  1  0.10773818  0.89673424  0.90772100  1
  Sc  Sc78  1  0.49656673  0.10309764  0.11043563  1
  Sc  Sc79  1  0.10687132  0.09792984  0.30440179  1
  Sc  Sc80  1  0.69237081  0.89448817  0.11049140  1
  Sc  Sc81  1  0.29829017  0.30090236  0.49477443  1
  Sc  Sc82  1  0.29358490  0.89222965  0.89623664  1
  Sc  Sc83  1  0.30344312  0.89679980  0.48752388  1
  Sc  Sc84  1  0.30151391  0.29810215  0.30142875  1
  Sc  Sc85  1  0.29427858  0.09784780  0.69497616  1
  Sc  Sc86  1  0.90010987  0.29891576  0.69524483  1
  Sc  Sc87  1  0.69931180  0.50996057  0.70328961  1
  Sc  Sc88  1  0.09978542  0.49367323  0.29979308  1
  Sc  Sc89  1  0.09824161  0.90787155  0.69459045  1
  Sc  Sc90  1  0.89740335  0.09183704  0.09282348  1
  Sc  Sc91  1  0.69990686  0.90418042  0.30503180  1
  Sc  Sc92  1  0.70020743  0.49610832  0.10411252  1
  Sc  Sc93  1  0.29001286  0.69656967  0.71025903  1
  Sc  Sc94  1  0.69057370  0.89924698  0.89392270  1
  Sc  Sc95  1  0.90733099  0.49818245  0.30340066  1
  Sc  Sc96  1  0.09134180  0.69532440  0.29718755  1
  Sc  Sc97  1  0.70544528  0.50068050  0.49289842  1
  Sc  Sc98  1  0.10256842  0.69162603  0.70332629  1
  Sc  Sc99  1  0.30414359  0.48972579  0.29623882  1
  Nb  Nb100  1  0.30008216  0.10598393  0.30341479  1
  Nb  Nb101  1  0.70048628  0.10906895  0.30037674  1
  Nb  Nb102  1  0.69266814  0.69732026  0.10099035  1
  Nb  Nb103  1  0.09968336  0.29812012  0.49816440  1
  Nb  Nb104  1  0.50107553  0.30154630  0.89796450  1
  Nb  Nb105  1  0.11419111  0.49938869  0.69788624  1
  Nb  Nb106  1  0.10035291  0.10695429  0.10446675  1
  Nb  Nb107  1  0.29342918  0.50360214  0.50546357  1
  Nb  Nb108  1  0.49984349  0.69889009  0.50455097  1
  Nb  Nb109  1  0.10502399  0.10314262  0.69956135  1
  Nb  Nb110  1  0.50830577  0.70002368  0.10663436  1
  Nb  Nb111  1  0.70344485  0.89498892  0.69791286  1
  Nb  Nb112  1  0.70591820  0.69316291  0.89884691  1
  Nb  Nb113  1  0.69201317  0.50372916  0.30294259  1
  Nb  Nb114  1  0.90016641  0.29629677  0.29922072  1
  Nb  Nb115  1  0.50322976  0.50179202  0.70357231  1
  Nb  Nb116  1  0.69765188  0.69961977  0.70165532  1
  Nb  Nb117  1  0.29520819  0.69844791  0.89864977  1
  Nb  Nb118  1  0.51250533  0.68738967  0.68898554  1
  Nb  Nb119  1  0.49831265  0.29616991  0.09470360  1
  Nb  Nb120  1  0.29770061  0.49888257  0.69749878  1
  Nb  Nb121  1  0.89710545  0.70202948  0.29941978  1
  Nb  Nb122  1  0.50327318  0.10993752  0.50592259  1
  Nb  Nb123  1  0.10117948  0.29296010  0.09710515  1
  Nb  Nb124  1  0.50354444  0.49743565  0.89540647  1
  Nb  Nb125  1  0.19859962  0.79429192  0.19599425  1
  Nb  Nb126  1  0.40450757  0.79314115  0.60239940  1
  Nb  Nb127  1  0.79518532  0.79220475  -0.00312237  1
  Nb  Nb128  1  0.59250860  0.40231372  -0.00518658  1
  Nb  Nb129  1  0.00088840  0.20197549  0.19867726  1
  Nb  Nb130  1  0.39907158  0.00396196  0.00097604  1
  Nb  Nb131  1  0.79565158  0.79914588  0.60610911  1
  Nb  Nb132  1  0.20412978  0.60449305  0.00392563  1
  Nb  Nb133  1  0.60434780  0.20415504  0.20286541  1
  Nb  Nb134  1  0.59578274  0.20073382  0.79777510  1
  Nb  Nb135  1  0.40458122  0.59545923  0.79729846  1
  Nb  Nb136  1  0.20337798  0.59524492  0.39831037  1
  Nb  Nb137  1  0.39953592  0.19912896  -0.00271243  1
  Nb  Nb138  1  0.40231767  0.20586422  0.80328178  1
  Nb  Nb139  1  0.00175385  0.39236606  -0.00073959  1
  Nb  Nb140  1  0.59746795  0.60095966  -0.00024405  1
  Nb  Nb141  1  0.59063770  -0.00067712  0.00310896  1
  Nb  Nb142  1  0.40540883  0.40292711  0.79788728  1
  Nb  Nb143  1  0.20616431  0.79946884  0.59870136  1
  Nb  Nb144  1  -0.00466023  0.79842923  0.39908537  1
  Nb  Nb145  1  -0.00738421  0.80071199  0.79966285  1
  Nb  Nb146  1  0.79657100  0.60185096  0.20649533  1
  Nb  Nb147  1  0.79937028  0.79459831  0.79890122  1
  Nb  Nb148  1  0.59682181  0.40670502  0.60095323  1
  Nb  Nb149  1  0.20403305  0.60627120  0.19940664  1
  Pd  Pd150  1  0.00347427  0.60033660  0.39868383  1
  Pd  Pd151  1  0.79697649  -0.00303573  0.19853886  1
  Pd  Pd152  1  0.59772610  0.80580549  0.59953781  1
  Pd  Pd153  1  0.78511971  -0.01429097  0.00581028  1
  Pd  Pd154  1  0.39553020  0.59482351  0.39271680  1
  Pd  Pd155  1  0.79653396  0.00019377  0.59281892  1
  Pd  Pd156  1  0.00188930  -0.00155115  0.39661679  1
  Pd  Pd157  1  0.00274646  0.80068385  0.59934599  1
  Pd  Pd158  1  0.39886806  0.40377363  0.40486631  1
  Pd  Pd159  1  0.20406393  0.01083442  0.00337202  1
  Pd  Pd160  1  0.39334905  0.80615610  -0.00137028  1
  Pd  Pd161  1  0.40546795  0.00467487  0.40318243  1
  Pd  Pd162  1  0.00735171  0.59249018  0.60261170  1
  Pd  Pd163  1  0.39121019  0.20691510  0.60405632  1
  Pd  Pd164  1  0.00364801  0.20441898  0.39187997  1
  Pd  Pd165  1  0.01148401  -0.00309586  0.80573776  1
  Pd  Pd166  1  0.80029652  0.40263763  0.79592548  1
  Pd  Pd167  1  0.80051820  0.41111866  0.21082866  1
  Pd  Pd168  1  0.60526601  0.80069321  -0.00350542  1
  Pd  Pd169  1  0.00673937  0.00248937  -0.00431288  1
  Pd  Pd170  1  -0.00163173  0.01116516  0.20489063  1
  Pd  Pd171  1  0.78972026  0.00139400  0.79901067  1
  Pd  Pd172  1  0.00316672  0.39166790  0.19807943  1
  Pd  Pd173  1  0.60923017  0.00929360  0.80190913  1
  Pd  Pd174  1  -0.00569062  0.20038390  0.00525469  1
  Pd  Pd175  1  0.59330327  0.00802419  0.39312195  1
  Pd  Pd176  1  0.19356032  0.79099367  0.39651178  1
  Pd  Pd177  1  0.40595989  0.39441980  0.20027150  1
  Pd  Pd178  1  0.59588766  0.19835829  -0.00137396  1
  Pd  Pd179  1  0.59444298  0.79588530  0.39750046  1
  Pd  Pd180  1  0.39394874  0.00361122  0.19764940  1
  Pd  Pd181  1  0.59825001  0.00721472  0.20365050  1
  Pd  Pd182  1  0.80300674  0.20404922  0.59285553  1
  Pd  Pd183  1  0.19295084  0.20667616  0.21118969  1
  Pd  Pd184  1  0.59290611  0.39671850  0.19391702  1
  Pd  Pd185  1  0.40626774  0.78557429  0.78783142  1
  Pd  Pd186  1  0.39725584  -0.01056218  0.59371050  1
  Pd  Pd187  1  0.80177332  0.19954893  0.19620203  1
  Pd  Pd188  1  0.40138278  0.39676993  0.60240849  1
  Pd  Pd189  1  0.38832245  0.60785628  0.61061147  1
  Pd  Pd190  1  0.20714353  -0.00747464  0.59498292  1
  Pd  Pd191  1  0.79818421  0.40118854  -0.00671126  1
  Pd  Pd192  1  0.19004711  0.40892045  0.00871012  1
  Pd  Pd193  1  0.60015864  -0.00641443  0.59743811  1
  Pd  Pd194  1  0.79088031  0.79463555  0.19777074  1
  Pd  Pd195  1  0.00480641  0.39749592  0.80190678  1
  Pd  Pd196  1  0.80605323  0.40170370  0.39520122  1
  Pd  Pd197  1  0.19938524  0.39270916  0.59472749  1
  Pd  Pd198  1  0.40366878  0.59777955  -0.00103832  1
  Pd  Pd199  1  0.60052434  0.79312255  0.79824034  1
  Rh  Rh200  1  0.20641093  0.59063285  0.80636046  1
  Rh  Rh201  1  0.19390151  -0.00294504  0.79787579  1
  Rh  Rh202  1  0.20484522  0.40152245  0.79765191  1
  Rh  Rh203  1  0.00661951  0.39943830  0.60061420  1
  Rh  Rh204  1  0.40454528  0.20601956  0.19868333  1
  Rh  Rh205  1  0.80087992  0.20699512  0.40542415  1
  Rh  Rh206  1  0.60138580  0.79603690  0.21144011  1
  Rh  Rh207  1  0.20046489  0.20249726  0.39842295  1
  Rh  Rh208  1  0.78773524  0.60210058  0.01384954  1
  Rh  Rh209  1  0.59414556  0.19860194  0.39146679  1
  Rh  Rh210  1  0.59290911  0.41040123  0.41074239  1
  Rh  Rh211  1  -0.00314543  0.59851699  0.20399800  1
  Rh  Rh212  1  0.20576946  0.40510267  0.40370923  1
  Rh  Rh213  1  0.39016559  0.00749256  0.80285087  1
  Rh  Rh214  1  0.20858842  0.78774780  0.01050049  1
  Rh  Rh215  1  0.40744168  0.39405752  -0.00047901  1
  Rh  Rh216  1  0.80659100  0.79774551  0.41073157  1
  Rh  Rh217  1  0.00566033  0.80137349  0.20997208  1
  Rh  Rh218  1  0.60475890  0.59665725  0.19609320  1
  Rh  Rh219  1  0.41228261  0.80022784  0.40690285  1
  Rh  Rh220  1  0.79544613  0.59972461  0.60364154  1
  Rh  Rh221  1  0.80551810  0.60029641  0.79285554  1
  Rh  Rh222  1  0.79119464  0.40541163  0.60217606  1
  Rh  Rh223  1  0.39850098  0.79908341  0.20256206  1
  Rh  Rh224  1  0.00569497  0.01141516  0.59726876  1
  Rh  Rh225  1  0.00481598  0.59909531  0.79565480  1
  Rh  Rh226  1  0.00535025  0.19850032  0.79342660  1
  Rh  Rh227  1  0.40043227  0.19887341  0.40156579  1
  Rh  Rh228  1  0.20208291  -0.00029202  0.20316698  1
  Rh  Rh229  1  0.59332709  0.61017206  0.80717538  1
  Rh  Rh230  1  0.19848150  0.40170243  0.19854040  1
  Rh  Rh231  1  -0.01005992  0.80708480  -0.01190887  1
  Rh  Rh232  1  0.20244068  0.20012460  0.79613392  1
  Rh  Rh233  1  0.79313534  0.19585524  0.79216418  1
  Rh  Rh234  1  0.59471299  0.59733612  0.40689887  1
  Rh  Rh235  1  0.80731574  0.19983117  0.00267205  1
  Rh  Rh236  1  0.79629357  0.00518167  0.40064950  1
  Rh  Rh237  1  0.59973254  0.20751232  0.60063580  1
  Rh  Rh238  1  0.20567096  0.00687525  0.39980983  1
  Rh  Rh239  1  0.39737859  0.60026447  0.20515502  1
  Rh  Rh240  1  0.20369935  0.60539849  0.59412924  1
  Rh  Rh241  1  0.20878392  0.19458880  0.00255100  1
  Rh  Rh242  1  0.60848959  0.59008937  0.59379765  1
  Rh  Rh243  1  0.59808944  0.38991356  0.79632498  1
  Rh  Rh244  1  0.18586107  0.80743991  0.78948835  1
  Rh  Rh245  1  0.20168722  0.20370944  0.59752516  1
  Rh  Rh246  1  0.00296571  0.20056523  0.60069908  1
  Rh  Rh247  1  0.80292203  0.59248539  0.39100332  1
  Rh  Rh248  1  -0.00317350  0.39373884  0.40273054  1
  Rh  Rh249  1  0.01664002  0.58351700  -0.00272038  1
