# generated using pymatgen
data_ZrScNbPdRh
_symmetry_space_group_name_H-M   'P 1'
_cell_length_a   16.55633959
_cell_length_b   16.56013131
_cell_length_c   16.56176478
_cell_angle_alpha   89.95981628
_cell_angle_beta   90.02770536
_cell_angle_gamma   89.98843704
_symmetry_Int_Tables_number   1
_chemical_formula_structural   ZrScNbPdRh
_chemical_formula_sum   'Zr50 Sc50 Nb50 Pd50 Rh50'
_cell_volume   4540.82272869
_cell_formula_units_Z   50
loop_
 _symmetry_equiv_pos_site_id
 _symmetry_equiv_pos_as_xyz
  1  'x, y, z'
loop_
 _atom_site_type_symbol
 _atom_site_label
 _atom_site_symmetry_multiplicity
 _atom_site_fract_x
 _atom_site_fract_y
 _atom_site_fract_z
 _atom_site_occupancy
  Zr  Zr0  1  0.09393602  0.50104848  0.70157707  1
  Zr  Zr1  1  0.69598830  0.89890913  0.69772345  1
  Zr  Zr2  1  0.89972120  0.90018110  0.89691835  1
  Zr  Zr3  1  0.70392912  0.30171933  0.90062038  1
  Zr  Zr4  1  0.89853709  0.49719382  0.29552727  1
  Zr  Zr5  1  0.10787197  0.10905258  0.30383087  1
  Zr  Zr6  1  0.30400190  0.90330350  0.49638075  1
  Zr  Zr7  1  0.89798892  0.68166273  0.09915392  1
  Zr  Zr8  1  0.69718679  0.10113750  0.89865015  1
  Zr  Zr9  1  0.91113777  0.69962704  0.29946447  1
  Zr  Zr10  1  0.10266946  0.90557095  0.89652184  1
  Zr  Zr11  1  0.89714131  0.10164265  0.30003609  1
  Zr  Zr12  1  0.49854745  0.69222190  0.29475468  1
  Zr  Zr13  1  0.29536441  0.11594921  0.09757870  1
  Zr  Zr14  1  0.89946170  0.90145253  0.49886051  1
  Zr  Zr15  1  0.69475403  0.89896224  0.09578648  1
  Zr  Zr16  1  0.49220209  0.10413283  0.10754498  1
  Zr  Zr17  1  0.69548207  0.90014947  0.90399300  1
  Zr  Zr18  1  0.49482877  0.48988848  0.50229486  1
  Zr  Zr19  1  0.89950478  0.49923893  0.49177536  1
  Zr  Zr20  1  0.09696786  0.30444157  0.30328181  1
  Zr  Zr21  1  0.29817537  0.90234438  0.69832977  1
  Zr  Zr22  1  0.09188476  0.10032437  0.09446748  1
  Zr  Zr23  1  0.69665778  0.49550083  0.30504620  1
  Zr  Zr24  1  0.29251923  0.29227847  0.29597693  1
  Zr  Zr25  1  0.69741739  0.69497924  0.49895355  1
  Zr  Zr26  1  0.50802821  0.09996965  0.70299136  1
  Zr  Zr27  1  0.69369191  0.69865244  0.10021274  1
  Zr  Zr28  1  0.49992423  0.49456327  0.30042828  1
  Zr  Zr29  1  0.29686111  0.50318025  0.50420674  1
  Zr  Zr30  1  0.10099991  0.69935296  0.69886200  1
  Zr  Zr31  1  0.30586358  0.69287010  0.09874375  1
  Zr  Zr32  1  0.90573417  0.90195205  0.69430175  1
  Zr  Zr33  1  0.11283148  0.29737585  0.09942581  1
  Zr  Zr34  1  0.09686627  0.30227002  0.69715224  1
  Zr  Zr35  1  0.30317716  0.90132034  0.10364807  1
  Zr  Zr36  1  0.89913272  0.11308773  0.91296543  1
  Zr  Zr37  1  0.29773002  0.51020425  0.90857561  1
  Zr  Zr38  1  0.10386135  0.89877699  0.70210179  1
  Zr  Zr39  1  0.90337138  0.30400643  0.70213675  1
  Zr  Zr40  1  0.70018899  0.69037237  0.69782020  1
  Zr  Zr41  1  0.69272816  0.90190619  0.49642524  1
  Zr  Zr42  1  0.70262402  0.69938573  0.89731120  1
  Zr  Zr43  1  0.50861010  0.70557504  0.49445288  1
  Zr  Zr44  1  0.89290454  0.30596186  0.29446900  1
  Zr  Zr45  1  0.09867758  0.49861813  0.50189528  1
  Zr  Zr46  1  0.90854209  0.90048651  0.30026438  1
  Zr  Zr47  1  0.88973979  0.09819902  0.50313811  1
  Zr  Zr48  1  0.29256912  0.69715310  0.29617855  1
  Zr  Zr49  1  0.29978318  0.70273716  0.70544025  1
  Sc  Sc50  1  0.90342165  0.29968212  0.50243450  1
  Sc  Sc51  1  0.69409654  0.29173742  0.50026860  1
  Sc  Sc52  1  0.49494337  0.90512252  0.30666226  1
  Sc  Sc53  1  0.50047947  0.90240826  0.90254793  1
  Sc  Sc54  1  0.09732111  0.90650239  0.09737199  1
  Sc  Sc55  1  0.91350463  0.90997360  0.10038247  1
  Sc  Sc56  1  0.09964696  0.89262887  0.29640540  1
  Sc  Sc57  1  0.49612661  0.29263074  0.69705539  1
  Sc  Sc58  1  0.31376570  0.10102683  0.70182980  1
  Sc  Sc59  1  0.08969705  0.30535838  0.90575963  1
  Sc  Sc60  1  0.70512277  0.10995278  0.09640647  1
  Sc  Sc61  1  0.31352280  0.50796507  0.69551943  1
  Sc  Sc62  1  0.68998931  0.68725294  0.29454182  1
  Sc  Sc63  1  0.10230115  0.68815209  0.10463519  1
  Sc  Sc64  1  0.10153412  0.69672978  0.30330913  1
  Sc  Sc65  1  0.30843244  0.29806193  0.50335999  1
  Sc  Sc66  1  0.29788969  0.49943054  0.10267505  1
  Sc  Sc67  1  0.89856485  0.10517449  0.69488922  1
  Sc  Sc68  1  0.49650201  0.70019491  0.09994254  1
  Sc  Sc69  1  0.10062021  0.29586480  0.49968366  1
  Sc  Sc70  1  0.29874391  0.10043103  0.49075905  1
  Sc  Sc71  1  0.89087633  0.30427717  0.09229607  1
  Sc  Sc72  1  0.10302317  0.69385813  0.49957996  1
  Sc  Sc73  1  0.49728410  0.10100545  0.89109552  1
  Sc  Sc74  1  0.10052173  0.10149754  0.69700841  1
  Sc  Sc75  1  0.29962397  0.90219167  0.88796306  1
  Sc  Sc76  1  0.10008519  0.10370530  0.90650591  1
  Sc  Sc77  1  0.10323351  0.49721395  0.30393450  1
  Sc  Sc78  1  0.49435077  0.10496495  0.30377009  1
  Sc  Sc79  1  0.10002731  0.89476107  0.51020427  1
  Sc  Sc80  1  0.89855603  0.68033521  0.89722790  1
  Sc  Sc81  1  0.50424842  0.30148665  0.29853196  1
  Sc  Sc82  1  0.89801035  0.69515477  0.70431295  1
  Sc  Sc83  1  0.50058335  0.89467937  0.09874869  1
  Sc  Sc84  1  0.10324350  0.49728147  0.09308576  1
  Sc  Sc85  1  0.90152282  0.50051358  0.70864765  1
  Sc  Sc86  1  0.70004493  0.48986805  0.88612157  1
  Sc  Sc87  1  0.69900246  0.10139262  0.50491167  1
  Sc  Sc88  1  0.69360771  0.30013619  0.29767922  1
  Sc  Sc89  1  0.29823519  0.49708116  0.29692394  1
  Sc  Sc90  1  0.30259693  0.89888317  0.30302499  1
  Sc  Sc91  1  0.49118013  0.49358949  0.10233787  1
  Sc  Sc92  1  0.69859718  0.11077106  0.30636650  1
  Sc  Sc93  1  0.49931678  0.10261623  0.49725905  1
  Sc  Sc94  1  0.49740313  0.69103798  0.70433958  1
  Sc  Sc95  1  0.69901950  0.30301613  0.10869147  1
  Sc  Sc96  1  0.49961505  0.90731074  0.69974278  1
  Sc  Sc97  1  0.49923248  0.29524743  0.49436360  1
  Sc  Sc98  1  0.91085900  0.70005631  0.49520398  1
  Sc  Sc99  1  0.70063038  0.29263838  0.70511023  1
  Nb  Nb100  1  0.30554320  0.29728753  0.90616032  1
  Nb  Nb101  1  0.90681721  0.48744718  0.90383204  1
  Nb  Nb102  1  0.10225828  0.10359277  0.49357408  1
  Nb  Nb103  1  0.69896471  0.09930293  0.69963855  1
  Nb  Nb104  1  0.49267725  0.69452032  0.90338763  1
  Nb  Nb105  1  0.70523713  0.90683160  0.29842370  1
  Nb  Nb106  1  0.30633881  0.30002530  0.09271902  1
  Nb  Nb107  1  0.89296387  0.50212284  0.09840529  1
  Nb  Nb108  1  0.30246624  0.10764875  0.90204645  1
  Nb  Nb109  1  0.69655426  0.49876965  0.69668676  1
  Nb  Nb110  1  0.49388648  0.29863511  0.09538027  1
  Nb  Nb111  1  0.30084133  0.69585521  0.50068399  1
  Nb  Nb112  1  0.90290362  0.10457183  0.10390941  1
  Nb  Nb113  1  0.50112200  0.31174848  0.90629882  1
  Nb  Nb114  1  0.50314151  0.49716519  0.89690508  1
  Nb  Nb115  1  0.50188937  0.89381955  0.50036371  1
  Nb  Nb116  1  0.69722534  0.50177585  0.50204356  1
  Nb  Nb117  1  0.30324568  0.70002198  0.89989484  1
  Nb  Nb118  1  0.30165416  0.09407350  0.29817001  1
  Nb  Nb119  1  0.30236639  0.30222760  0.70537230  1
  Nb  Nb120  1  0.70590260  0.51235559  0.11027091  1
  Nb  Nb121  1  0.10736637  0.69001279  0.89824463  1
  Nb  Nb122  1  0.89412144  0.31003235  0.89706264  1
  Nb  Nb123  1  0.50323468  0.49393516  0.70741902  1
  Nb  Nb124  1  0.09961268  0.50303917  0.90152588  1
  Nb  Nb125  1  0.00621090  0.79456674  0.80629572  1
  Nb  Nb126  1  0.20602815  0.39874262  0.80249482  1
  Nb  Nb127  1  0.39736451  0.60181627  0.40289004  1
  Nb  Nb128  1  0.20766182  0.20914100  0.80299978  1
  Nb  Nb129  1  0.20016583  0.79319935  -0.00691703  1
  Nb  Nb130  1  0.20420061  0.00755918  0.20043873  1
  Nb  Nb131  1  0.59156838  0.21033462  0.00030685  1
  Nb  Nb132  1  -0.00237224  0.20317750  0.19748441  1
  Nb  Nb133  1  0.60260289  0.40393477  0.60416111  1
  Nb  Nb134  1  0.59907982  0.79488790  0.80275418  1
  Nb  Nb135  1  0.20461572  0.39879824  0.60927389  1
  Nb  Nb136  1  0.39296608  0.00806854  0.00039714  1
  Nb  Nb137  1  0.80074767  0.80246881  0.19948978  1
  Nb  Nb138  1  0.79650427  0.00455486  0.79876453  1
  Nb  Nb139  1  0.80745872  0.79729996  0.00557898  1
  Nb  Nb140  1  0.40040195  0.39900847  0.80601862  1
  Nb  Nb141  1  0.00316633  0.78994780  -0.00753209  1
  Nb  Nb142  1  0.59605758  0.59194947  -0.00527690  1
  Nb  Nb143  1  0.79784589  -0.00102152  0.19935844  1
  Nb  Nb144  1  0.79634125  0.80087411  0.39471841  1
  Nb  Nb145  1  0.79188829  0.40680028  0.60061947  1
  Nb  Nb146  1  0.79622117  0.79874994  0.59344290  1
  Nb  Nb147  1  0.00579172  0.00721170  0.40416916  1
  Nb  Nb148  1  0.40196940  0.80050240  0.59351493  1
  Nb  Nb149  1  0.60532791  0.00199329  0.20155628  1
  Pd  Pd150  1  0.79253846  0.39165627  0.40874212  1
  Pd  Pd151  1  0.20422882  0.01674151  0.79629813  1
  Pd  Pd152  1  0.79797957  0.20744907  0.40251068  1
  Pd  Pd153  1  0.40532098  -0.00022639  0.59380907  1
  Pd  Pd154  1  0.40061153  0.19619994  0.59725796  1
  Pd  Pd155  1  0.59871244  0.60303270  0.80562950  1
  Pd  Pd156  1  0.80354804  0.19525461  0.79687609  1
  Pd  Pd157  1  0.20718006  0.79623014  0.59477842  1
  Pd  Pd158  1  0.00033345  0.39888385  0.00829599  1
  Pd  Pd159  1  0.39185600  0.39866079  0.39332564  1
  Pd  Pd160  1  0.39455285  0.40823181  -0.00048718  1
  Pd  Pd161  1  0.58737058  0.01403380  0.00679060  1
  Pd  Pd162  1  0.00710708  0.00842217  0.59432761  1
  Pd  Pd163  1  0.00101068  0.79407784  0.18531192  1
  Pd  Pd164  1  -0.00737556  0.60082967  0.59964396  1
  Pd  Pd165  1  0.79045379  0.58967605  -0.01087773  1
  Pd  Pd166  1  0.59621388  0.00421597  0.59419135  1
  Pd  Pd167  1  0.80201049  0.80357693  0.79705672  1
  Pd  Pd168  1  0.20386212  0.40266870  0.19684602  1
  Pd  Pd169  1  -0.00650898  0.20107306  0.39759953  1
  Pd  Pd170  1  0.39753398  0.79361960  0.39934154  1
  Pd  Pd171  1  0.19411499  -0.00858475  0.39443865  1
  Pd  Pd172  1  0.40408904  0.80251885  0.20586596  1
  Pd  Pd173  1  0.60848338  0.40512486  0.01074582  1
  Pd  Pd174  1  -0.00134151  0.39811003  0.18895697  1
  Pd  Pd175  1  0.78935362  0.40850442  0.00426318  1
  Pd  Pd176  1  0.20773089  0.20080874  0.60363659  1
  Pd  Pd177  1  0.20690153  -0.00475774  0.00325777  1
  Pd  Pd178  1  0.59899396  0.40254631  0.19312582  1
  Pd  Pd179  1  0.58937542  0.59360922  0.59869324  1
  Pd  Pd180  1  0.20428977  0.39442727  0.41060707  1
  Pd  Pd181  1  0.80945858  0.59884559  0.59905235  1
  Pd  Pd182  1  0.20546735  0.59233613  0.79293694  1
  Pd  Pd183  1  0.19578852  0.80035049  0.40564832  1
  Pd  Pd184  1  0.40199113  0.20766352  0.20803379  1
  Pd  Pd185  1  0.39388140  0.80856817  -0.00572297  1
  Pd  Pd186  1  0.00564897  0.19982272  0.80490649  1
  Pd  Pd187  1  0.59554273  0.00689696  0.39528469  1
  Pd  Pd188  1  0.59850047  0.80755776  0.20874980  1
  Pd  Pd189  1  0.80085822  0.60800177  0.39334926  1
  Pd  Pd190  1  0.00867309  0.58715810  0.20153419  1
  Pd  Pd191  1  -0.00689392  0.00863163  0.80371600  1
  Pd  Pd192  1  0.19435287  0.80403825  0.18911708  1
  Pd  Pd193  1  0.40894270  0.60708443  0.59495036  1
  Pd  Pd194  1  -0.00059267  0.19556629  0.59527512  1
  Pd  Pd195  1  0.20176797  0.01044440  0.59914486  1
  Pd  Pd196  1  0.80734732  -0.00283417  0.00331625  1
  Pd  Pd197  1  0.41032863  0.80360789  0.79468591  1
  Pd  Pd198  1  0.60646928  0.80088358  0.38504693  1
  Pd  Pd199  1  0.59381768  0.20900818  0.80611602  1
  Rh  Rh200  1  0.40368258  0.00178215  0.40312016  1
  Rh  Rh201  1  0.79525177  0.20803002  0.00200345  1
  Rh  Rh202  1  0.40451111  0.39621987  0.60981989  1
  Rh  Rh203  1  -0.00026868  0.59809554  0.80697949  1
  Rh  Rh204  1  0.00446930  0.80664839  0.40655985  1
  Rh  Rh205  1  0.00577559  0.59424588  0.39563493  1
  Rh  Rh206  1  0.60004948  0.20115451  0.60184125  1
  Rh  Rh207  1  -0.00628479  0.79084839  0.60850349  1
  Rh  Rh208  1  0.40945407  0.19631129  -0.00761141  1
  Rh  Rh209  1  0.59436760  0.39063862  0.79040482  1
  Rh  Rh210  1  0.39913255  0.59537547  0.20562144  1
  Rh  Rh211  1  0.19978997  0.59612392  0.60531289  1
  Rh  Rh212  1  0.80442178  0.19764305  0.19878714  1
  Rh  Rh213  1  0.39460710  0.39149144  0.19935471  1
  Rh  Rh214  1  0.79559601  0.40487642  0.19675452  1
  Rh  Rh215  1  0.19805900  0.59314166  0.20120871  1
  Rh  Rh216  1  0.40011251  0.59277626  0.80593362  1
  Rh  Rh217  1  0.39828094  0.00068262  0.80531101  1
  Rh  Rh218  1  0.59022429  0.59032629  0.40254863  1
  Rh  Rh219  1  0.59533073  0.79665164  0.61276121  1
  Rh  Rh220  1  0.80102385  0.60229207  0.21139760  1
  Rh  Rh221  1  0.60381651  0.39868577  0.40906583  1
  Rh  Rh222  1  0.60523925  -0.00619968  0.79962907  1
  Rh  Rh223  1  0.00452894  0.40146054  0.80480644  1
  Rh  Rh224  1  -0.00442107  -0.00006446  -0.00852731  1
  Rh  Rh225  1  0.19501552  0.79592718  0.80572792  1
  Rh  Rh226  1  0.20362409  0.39730657  -0.00555769  1
  Rh  Rh227  1  0.80589558  -0.00283136  0.39377769  1
  Rh  Rh228  1  0.00021554  0.39909158  0.40307353  1
  Rh  Rh229  1  0.79312105  -0.00343975  0.60848651  1
  Rh  Rh230  1  0.59774334  0.78509041  -0.00978658  1
  Rh  Rh231  1  0.40208981  0.20727930  0.80697820  1
  Rh  Rh232  1  0.79758708  0.20804594  0.60350915  1
  Rh  Rh233  1  0.20051481  0.60497965  0.00430227  1
  Rh  Rh234  1  0.40691402  0.59553613  0.00113840  1
  Rh  Rh235  1  0.80191181  0.58567640  0.80286960  1
  Rh  Rh236  1  0.58913578  0.59035491  0.18852124  1
  Rh  Rh237  1  0.20484792  0.59997963  0.39890858  1
  Rh  Rh238  1  0.59736581  0.19655760  0.19392365  1
  Rh  Rh239  1  -0.00537288  0.21151478  0.00547364  1
  Rh  Rh240  1  0.39631356  0.20074058  0.39487142  1
  Rh  Rh241  1  -0.00379282  0.40257059  0.59498057  1
  Rh  Rh242  1  0.80336458  0.40121583  0.79202251  1
  Rh  Rh243  1  0.20853359  0.20579470  0.40602287  1
  Rh  Rh244  1  0.19699642  0.19759502  0.20002379  1
  Rh  Rh245  1  0.00698346  0.01480880  0.21104577  1
  Rh  Rh246  1  0.00288954  0.59362359  -0.00324255  1
  Rh  Rh247  1  0.19588369  0.20843842  -0.01086714  1
  Rh  Rh248  1  0.59750665  0.20002095  0.39926203  1
  Rh  Rh249  1  0.39885445  -0.00049001  0.19626672  1
