# generated using pymatgen
data_ZrScNbPdRh
_symmetry_space_group_name_H-M   'P 1'
_cell_length_a   16.55728041
_cell_length_b   16.55825826
_cell_length_c   16.56377854
_cell_angle_alpha   89.99788725
_cell_angle_beta   90.01685912
_cell_angle_gamma   90.03587248
_symmetry_Int_Tables_number   1
_chemical_formula_structural   ZrScNbPdRh
_chemical_formula_sum   'Zr50 Sc50 Nb50 Pd50 Rh50'
_cell_volume   4541.11988075
_cell_formula_units_Z   50
loop_
 _symmetry_equiv_pos_site_id
 _symmetry_equiv_pos_as_xyz
  1  'x, y, z'
loop_
 _atom_site_type_symbol
 _atom_site_label
 _atom_site_symmetry_multiplicity
 _atom_site_fract_x
 _atom_site_fract_y
 _atom_site_fract_z
 _atom_site_occupancy
  Zr  Zr0  1  0.70575846  0.70521436  0.71237306  1
  Zr  Zr1  1  0.49572617  0.50023185  0.70285714  1
  Zr  Zr2  1  0.30364725  0.29939738  0.10003208  1
  Zr  Zr3  1  0.09820403  0.70015024  0.70334111  1
  Zr  Zr4  1  0.70323863  0.89702951  0.10393377  1
  Zr  Zr5  1  0.90304231  0.10915889  0.69871957  1
  Zr  Zr6  1  0.09830393  0.09886206  0.69654673  1
  Zr  Zr7  1  0.09815273  0.29806312  0.10494213  1
  Zr  Zr8  1  0.90290928  0.70474594  0.10195784  1
  Zr  Zr9  1  0.69944966  0.29710335  0.70437199  1
  Zr  Zr10  1  0.49516368  0.50826123  0.51145652  1
  Zr  Zr11  1  0.91381182  0.90668761  0.91093581  1
  Zr  Zr12  1  0.90205773  0.49939006  0.49246075  1
  Zr  Zr13  1  0.30584430  0.51212925  0.89533773  1
  Zr  Zr14  1  0.50450648  0.30554052  0.29849046  1
  Zr  Zr15  1  0.49452983  0.10016205  0.91136834  1
  Zr  Zr16  1  0.69906751  0.10458345  0.90206095  1
  Zr  Zr17  1  0.70244769  0.30104827  0.49896284  1
  Zr  Zr18  1  0.30276306  0.09809962  0.91143834  1
  Zr  Zr19  1  0.09231948  0.30090846  0.70568520  1
  Zr  Zr20  1  0.69398437  0.69331859  0.90713657  1
  Zr  Zr21  1  0.30195259  0.70238987  0.50126091  1
  Zr  Zr22  1  0.49496445  0.09760149  0.50936453  1
  Zr  Zr23  1  0.90547386  0.70154263  0.29928157  1
  Zr  Zr24  1  0.49588482  0.10134849  0.31031016  1
  Zr  Zr25  1  0.70555835  0.89608046  0.30141342  1
  Zr  Zr26  1  0.90618333  0.29997791  0.29852322  1
  Zr  Zr27  1  0.90025902  0.29431495  0.49536908  1
  Zr  Zr28  1  0.70373850  0.09317182  0.30152666  1
  Zr  Zr29  1  0.50381789  0.90537741  0.69320915  1
  Zr  Zr30  1  0.70159099  0.89468843  0.89427127  1
  Zr  Zr31  1  0.90255667  0.69236515  0.50344541  1
  Zr  Zr32  1  0.10314940  0.70644731  0.29966483  1
  Zr  Zr33  1  0.89682097  0.09683302  0.50740760  1
  Zr  Zr34  1  0.29514649  0.69820291  0.70902105  1
  Zr  Zr35  1  0.90954709  0.30407128  0.09945046  1
  Zr  Zr36  1  0.89636617  0.89827845  0.29724016  1
  Zr  Zr37  1  0.90096020  0.10168945  0.90096867  1
  Zr  Zr38  1  0.31315194  0.29496849  0.90191464  1
  Zr  Zr39  1  0.50897525  0.29184418  0.49725575  1
  Zr  Zr40  1  0.90306228  0.29950204  0.89149970  1
  Zr  Zr41  1  0.10171807  0.50282730  0.30668131  1
  Zr  Zr42  1  0.89617161  0.90589127  0.69985451  1
  Zr  Zr43  1  0.30558867  0.50008088  0.09921670  1
  Zr  Zr44  1  0.29569346  0.10010416  0.49725455  1
  Zr  Zr45  1  0.69674138  0.30381061  0.30414732  1
  Zr  Zr46  1  0.69761417  0.50783172  0.09592002  1
  Zr  Zr47  1  0.89289734  0.50072384  0.10101700  1
  Zr  Zr48  1  0.29912289  0.50333010  0.29516656  1
  Zr  Zr49  1  0.49755717  0.88673908  0.30238779  1
  Sc  Sc50  1  0.10245995  0.29934495  0.49120451  1
  Sc  Sc51  1  0.70203750  0.29938834  0.09332296  1
  Sc  Sc52  1  0.10065577  0.70435003  0.10665093  1
  Sc  Sc53  1  0.11676131  0.10135503  0.10361743  1
  Sc  Sc54  1  0.89405229  0.70161055  0.89231425  1
  Sc  Sc55  1  0.70607497  0.90212966  0.50178156  1
  Sc  Sc56  1  0.90515647  0.51412692  0.70420163  1
  Sc  Sc57  1  0.29161985  0.10207126  0.29637497  1
  Sc  Sc58  1  0.49975047  0.89484461  0.91000887  1
  Sc  Sc59  1  0.50130638  0.69924866  0.69496181  1
  Sc  Sc60  1  0.09645904  0.89309401  0.09166406  1
  Sc  Sc61  1  0.09273551  0.09970675  0.50210609  1
  Sc  Sc62  1  0.69830558  0.10729069  0.50529265  1
  Sc  Sc63  1  0.48797539  0.29997086  0.70274007  1
  Sc  Sc64  1  0.90319215  0.90131466  0.49550414  1
  Sc  Sc65  1  0.09798140  0.89591935  0.50001685  1
  Sc  Sc66  1  0.90018715  0.49756504  0.29826998  1
  Sc  Sc67  1  0.08913093  0.49514780  0.09863468  1
  Sc  Sc68  1  0.10951422  0.50034961  0.69977630  1
  Sc  Sc69  1  0.50739355  0.70484036  0.50375173  1
  Sc  Sc70  1  0.70123090  0.09768525  0.08725830  1
  Sc  Sc71  1  0.70881891  0.29949065  0.89390367  1
  Sc  Sc72  1  0.10525340  0.90736898  0.69692761  1
  Sc  Sc73  1  0.30090939  0.89712082  0.49912662  1
  Sc  Sc74  1  0.70116206  0.09434884  0.69668047  1
  Sc  Sc75  1  0.90502454  0.09949700  0.30821376  1
  Sc  Sc76  1  0.50165200  0.70428498  0.09759050  1
  Sc  Sc77  1  0.70433998  0.50676908  0.49139572  1
  Sc  Sc78  1  0.28934162  0.49579844  0.50720705  1
  Sc  Sc79  1  0.69743538  0.90089484  0.70518601  1
  Sc  Sc80  1  0.29788226  0.89726936  0.09519404  1
  Sc  Sc81  1  0.29347595  0.89584623  0.69785041  1
  Sc  Sc82  1  0.09725799  0.29122313  0.30115148  1
  Sc  Sc83  1  0.29207703  0.70135564  0.29517515  1
  Sc  Sc84  1  0.50722140  0.49870647  0.28512017  1
  Sc  Sc85  1  0.69342623  0.50199632  0.71844182  1
  Sc  Sc86  1  0.69947077  0.50156493  0.29060723  1
  Sc  Sc87  1  0.29150779  0.30064782  0.50420934  1
  Sc  Sc88  1  0.70021600  0.69263429  0.10414370  1
  Sc  Sc89  1  0.30001763  0.69849261  0.10103381  1
  Sc  Sc90  1  0.49663153  0.50574466  0.89567187  1
  Sc  Sc91  1  0.29919718  0.10145363  0.69441042  1
  Sc  Sc92  1  0.29969286  0.49929460  0.69485373  1
  Sc  Sc93  1  0.69719907  0.70033681  0.30173967  1
  Sc  Sc94  1  0.29776738  0.88781539  0.30012933  1
  Sc  Sc95  1  0.09573710  0.69874117  0.49485038  1
  Sc  Sc96  1  0.49841391  0.50577659  0.09785870  1
  Sc  Sc97  1  0.29123176  0.29598285  0.30720278  1
  Sc  Sc98  1  0.09463081  0.49457239  0.88795479  1
  Sc  Sc99  1  0.49749758  0.31470882  0.09854785  1
  Nb  Nb100  1  0.50076318  0.09287520  0.09551917  1
  Nb  Nb101  1  0.89683389  0.50001770  0.91127952  1
  Nb  Nb102  1  0.30102007  0.70729457  0.89807641  1
  Nb  Nb103  1  0.48260322  0.69929048  0.90540958  1
  Nb  Nb104  1  0.49597800  0.90188093  0.49597019  1
  Nb  Nb105  1  0.29139752  0.29672052  0.70396582  1
  Nb  Nb106  1  0.10558659  0.89985084  0.89972742  1
  Nb  Nb107  1  0.70134077  0.50248963  0.90595552  1
  Nb  Nb108  1  0.29829592  0.89332457  0.89534760  1
  Nb  Nb109  1  0.10045617  0.10002910  0.29437359  1
  Nb  Nb110  1  0.90199818  0.70596227  0.69954392  1
  Nb  Nb111  1  0.50117095  0.30134712  0.89514380  1
  Nb  Nb112  1  0.31085009  0.10155789  0.09901443  1
  Nb  Nb113  1  0.50144491  0.90513780  0.09908840  1
  Nb  Nb114  1  0.89763512  0.29606882  0.69644034  1
  Nb  Nb115  1  0.09717648  0.48959359  0.49848807  1
  Nb  Nb116  1  0.10026889  0.09550198  0.89844607  1
  Nb  Nb117  1  0.49866337  0.09968071  0.70316890  1
  Nb  Nb118  1  0.90446134  0.09675386  0.09389821  1
  Nb  Nb119  1  0.90426335  0.90117342  0.09957523  1
  Nb  Nb120  1  0.49751326  0.70072086  0.30709085  1
  Nb  Nb121  1  0.09883774  0.89997994  0.29784445  1
  Nb  Nb122  1  0.10418386  0.70668971  0.90068271  1
  Nb  Nb123  1  0.70492551  0.69697735  0.50690660  1
  Nb  Nb124  1  0.09821863  0.30007441  0.90138389  1
  Nb  Nb125  1  0.40358878  0.00123752  0.19502170  1
  Nb  Nb126  1  0.00253607  -0.00057463  0.19813973  1
  Nb  Nb127  1  0.59869865  0.19333515  0.19706054  1
  Nb  Nb128  1  0.80428070  0.80328826  0.00180689  1
  Nb  Nb129  1  0.00448680  0.80306432  0.80279951  1
  Nb  Nb130  1  0.60342929  0.39995989  0.60271034  1
  Nb  Nb131  1  0.20065410  0.40141357  -0.00288474  1
  Nb  Nb132  1  0.80224541  0.19715854  0.19653170  1
  Nb  Nb133  1  0.39976062  -0.00130921  0.80251418  1
  Nb  Nb134  1  0.40594271  0.19356882  0.19614436  1
  Nb  Nb135  1  0.40168691  0.40615986  0.40169340  1
  Nb  Nb136  1  0.19452806  0.60033287  -0.00720941  1
  Nb  Nb137  1  0.60271567  0.40536580  -0.01250875  1
  Nb  Nb138  1  0.80227533  0.79138514  0.60328952  1
  Nb  Nb139  1  0.19819493  0.20075935  0.80620201  1
  Nb  Nb140  1  0.59317810  -0.00061771  0.20107579  1
  Nb  Nb141  1  0.00027444  0.60231396  -0.00721602  1
  Nb  Nb142  1  0.58969755  0.19669174  0.80147829  1
  Nb  Nb143  1  0.00629009  0.19665616  -0.00371645  1
  Nb  Nb144  1  0.40242808  0.59853596  0.39877228  1
  Nb  Nb145  1  0.19270076  -0.00115679  0.39258105  1
  Nb  Nb146  1  -0.00517892  0.39845716  0.59922359  1
  Nb  Nb147  1  0.59296501  -0.00581316  0.40142432  1
  Nb  Nb148  1  0.19914589  0.40081720  0.19621691  1
  Nb  Nb149  1  0.80226909  0.40128029  0.60388369  1
  Pd  Pd150  1  -0.00936961  0.40661070  0.79324897  1
  Pd  Pd151  1  0.19569123  0.79777269  0.59789521  1
  Pd  Pd152  1  0.60482342  -0.00058320  0.59256125  1
  Pd  Pd153  1  0.00166455  0.60558893  0.80679144  1
  Pd  Pd154  1  0.59382261  0.21265819  0.00058366  1
  Pd  Pd155  1  0.59464481  0.59745720  0.39630480  1
  Pd  Pd156  1  0.79561693  -0.00621178  -0.00222680  1
  Pd  Pd157  1  0.19257579  0.20371950  0.60259804  1
  Pd  Pd158  1  0.00236527  -0.00345832  0.79644862  1
  Pd  Pd159  1  0.00932824  0.59153212  0.59828860  1
  Pd  Pd160  1  -0.00304944  0.80640783  0.60441378  1
  Pd  Pd161  1  0.79971010  0.60187564  0.38932113  1
  Pd  Pd162  1  0.60978657  0.80341057  0.59705231  1
  Pd  Pd163  1  0.60400258  0.79800361  0.00238127  1
  Pd  Pd164  1  0.39368040  0.40323216  0.79888230  1
  Pd  Pd165  1  0.20341668  -0.00801141  0.20011933  1
  Pd  Pd166  1  0.80346177  0.59661908  0.80475107  1
  Pd  Pd167  1  0.20392879  0.79448725  0.00337929  1
  Pd  Pd168  1  0.60504300  0.80165797  0.41063062  1
  Pd  Pd169  1  0.20070680  -0.00458263  0.00312653  1
  Pd  Pd170  1  0.58979444  0.60897497  0.80613387  1
  Pd  Pd171  1  0.00468377  0.00059248  0.39571406  1
  Pd  Pd172  1  0.19397030  0.60286705  0.59577896  1
  Pd  Pd173  1  0.39138557  -0.00699792  0.39190484  1
  Pd  Pd174  1  0.59380025  0.41616877  0.40783328  1
  Pd  Pd175  1  0.40605439  0.61064896  0.20361095  1
  Pd  Pd176  1  0.58593318  0.79406478  0.80454324  1
  Pd  Pd177  1  0.40094027  0.79963069  0.60351100  1
  Pd  Pd178  1  0.20939372  0.00600259  0.80041379  1
  Pd  Pd179  1  0.20469666  0.60109839  0.40740378  1
  Pd  Pd180  1  0.80565778  0.00821349  0.19522387  1
  Pd  Pd181  1  0.59937094  0.79682847  0.19880987  1
  Pd  Pd182  1  0.20851206  0.39617480  0.80626973  1
  Pd  Pd183  1  0.80023897  0.19630108  0.39402416  1
  Pd  Pd184  1  0.39058080  -0.00472052  0.60599861  1
  Pd  Pd185  1  0.39779354  0.79938650  0.19326794  1
  Pd  Pd186  1  0.40691752  0.80770639  0.79474318  1
  Pd  Pd187  1  0.80146711  0.00491827  0.80188832  1
  Pd  Pd188  1  0.39467731  0.20937350  0.39940636  1
  Pd  Pd189  1  0.19663892  0.20438021  -0.00295742  1
  Pd  Pd190  1  0.80268655  0.79354398  0.41006765  1
  Pd  Pd191  1  0.40131652  0.39103628  0.59481094  1
  Pd  Pd192  1  0.39704389  0.20569296  0.60135258  1
  Pd  Pd193  1  0.79467483  0.39389815  0.19915282  1
  Pd  Pd194  1  0.00257127  0.59755775  0.19545351  1
  Pd  Pd195  1  0.79329818  0.59603502  0.60932843  1
  Pd  Pd196  1  0.80915346  0.40985581  0.79535149  1
  Pd  Pd197  1  0.79606143  0.39412730  -0.00132304  1
  Pd  Pd198  1  0.59148315  0.00482743  0.80779337  1
  Pd  Pd199  1  0.61227552  0.59448739  0.60702447  1
  Rh  Rh200  1  0.39654416  0.19015243  0.79532766  1
  Rh  Rh201  1  -0.00088625  0.79912425  0.39773552  1
  Rh  Rh202  1  0.18843427  0.39356089  0.60226103  1
  Rh  Rh203  1  0.60656081  -0.00859569  -0.00012693  1
  Rh  Rh204  1  0.39915172  0.78873205  0.40354473  1
  Rh  Rh205  1  0.58881124  0.59660834  -0.00422948  1
  Rh  Rh206  1  -0.00022230  -0.00269148  0.59988542  1
  Rh  Rh207  1  0.60544525  0.18933066  0.39556085  1
  Rh  Rh208  1  0.20160804  -0.00098845  0.58594031  1
  Rh  Rh209  1  0.00725487  0.19536109  0.80634299  1
  Rh  Rh210  1  0.19666499  0.80612518  0.40060982  1
  Rh  Rh211  1  0.80168718  0.79453107  0.19468987  1
  Rh  Rh212  1  0.40562747  0.40404355  -0.01084716  1
  Rh  Rh213  1  0.00330795  0.20764955  0.59445888  1
  Rh  Rh214  1  0.20418482  0.40288778  0.39295629  1
  Rh  Rh215  1  0.39178135  0.60705564  0.59901182  1
  Rh  Rh216  1  0.00283968  0.19443035  0.40204622  1
  Rh  Rh217  1  0.41217921  0.20819406  0.01122332  1
  Rh  Rh218  1  0.59520053  0.20470519  0.61345130  1
  Rh  Rh219  1  0.80039163  0.40388071  0.39997158  1
  Rh  Rh220  1  0.40211834  0.60701538  0.79191332  1
  Rh  Rh221  1  0.39607427  0.80168134  0.00367496  1
  Rh  Rh222  1  0.00880185  0.40490382  0.21203325  1
  Rh  Rh223  1  0.19315580  0.80384388  0.79863872  1
  Rh  Rh224  1  0.38845039  0.38802463  0.21522619  1
  Rh  Rh225  1  0.00111537  0.39667333  0.40036485  1
  Rh  Rh226  1  0.59561754  0.60819684  0.20053191  1
  Rh  Rh227  1  0.81499741  0.20532898  0.00540017  1
  Rh  Rh228  1  0.19282188  0.18746151  0.40120564  1
  Rh  Rh229  1  -0.00462077  0.79027174  -0.00785135  1
  Rh  Rh230  1  0.59836597  0.39180846  0.80210773  1
  Rh  Rh231  1  0.39507247  0.60596289  0.00271713  1
  Rh  Rh232  1  0.19962646  0.60167328  0.80505693  1
  Rh  Rh233  1  0.80998755  0.60959237  -0.00143172  1
  Rh  Rh234  1  0.00415326  0.40196610  -0.00737220  1
  Rh  Rh235  1  0.19370854  0.59201093  0.18705739  1
  Rh  Rh236  1  0.79227259  0.19201819  0.79447710  1
  Rh  Rh237  1  0.20974744  0.20524667  0.20014393  1
  Rh  Rh238  1  0.19822276  0.80402409  0.19549080  1
  Rh  Rh239  1  0.39255286  -0.01431241  -0.00200594  1
  Rh  Rh240  1  0.79489892  0.00319438  0.40859021  1
  Rh  Rh241  1  -0.00793255  0.18635065  0.19294063  1
  Rh  Rh242  1  0.80105488  0.60351670  0.20531756  1
  Rh  Rh243  1  0.01606250  0.01004168  0.01068868  1
  Rh  Rh244  1  0.00219493  0.80900753  0.20297910  1
  Rh  Rh245  1  0.61021357  0.39651189  0.18302876  1
  Rh  Rh246  1  0.00227036  0.60049507  0.39945588  1
  Rh  Rh247  1  0.81069998  0.80796681  0.80170896  1
  Rh  Rh248  1  0.79897275  -0.00522177  0.59856029  1
  Rh  Rh249  1  0.79748842  0.20327111  0.60279107  1
