# generated using pymatgen
data_ZrScNbPdRh
_symmetry_space_group_name_H-M   'P 1'
_cell_length_a   16.55651500
_cell_length_b   16.55902916
_cell_length_c   16.55583970
_cell_angle_alpha   90.01976159
_cell_angle_beta   89.99041544
_cell_angle_gamma   89.99974361
_symmetry_Int_Tables_number   1
_chemical_formula_structural   ZrScNbPdRh
_chemical_formula_sum   'Zr50 Sc50 Nb50 Pd50 Rh50'
_cell_volume   4538.94561124
_cell_formula_units_Z   50
loop_
 _symmetry_equiv_pos_site_id
 _symmetry_equiv_pos_as_xyz
  1  'x, y, z'
loop_
 _atom_site_type_symbol
 _atom_site_label
 _atom_site_symmetry_multiplicity
 _atom_site_fract_x
 _atom_site_fract_y
 _atom_site_fract_z
 _atom_site_occupancy
  Zr  Zr0  1  0.70118069  0.29751316  0.49511028  1
  Zr  Zr1  1  0.49817176  0.90475345  0.30259781  1
  Zr  Zr2  1  0.50467523  0.29822779  0.09953471  1
  Zr  Zr3  1  0.09515122  0.29564668  0.09399617  1
  Zr  Zr4  1  0.30348981  0.70037951  0.69667250  1
  Zr  Zr5  1  0.69294752  0.70470438  0.49337694  1
  Zr  Zr6  1  0.69792376  0.90482072  0.89445175  1
  Zr  Zr7  1  0.49740345  0.29755685  0.31736474  1
  Zr  Zr8  1  0.30393539  0.68880384  0.30150553  1
  Zr  Zr9  1  0.49431546  0.50365581  0.70236623  1
  Zr  Zr10  1  0.09265754  0.51196856  0.90220903  1
  Zr  Zr11  1  0.30787773  0.29621247  0.90244870  1
  Zr  Zr12  1  0.70483032  0.09403053  0.50617238  1
  Zr  Zr13  1  0.09729153  0.09521838  0.30601485  1
  Zr  Zr14  1  0.50053114  0.89521247  0.70213185  1
  Zr  Zr15  1  0.70476642  0.90509504  0.10112131  1
  Zr  Zr16  1  0.70007274  0.29651468  0.70359425  1
  Zr  Zr17  1  0.89840927  0.90061896  0.50217233  1
  Zr  Zr18  1  0.50211839  0.10025986  0.30022213  1
  Zr  Zr19  1  0.10121242  0.88576810  0.09478072  1
  Zr  Zr20  1  0.89684208  0.09048521  0.10437246  1
  Zr  Zr21  1  0.29440177  0.09920575  0.09510236  1
  Zr  Zr22  1  0.30965160  0.50230276  0.89757279  1
  Zr  Zr23  1  0.08807335  0.29220375  0.89889875  1
  Zr  Zr24  1  0.70933030  0.09787645  0.30117741  1
  Zr  Zr25  1  0.70041810  0.10513611  0.90175714  1
  Zr  Zr26  1  0.50334016  0.30952913  0.90130231  1
  Zr  Zr27  1  0.90405227  0.49472731  0.28579054  1
  Zr  Zr28  1  0.49814275  0.10848203  0.89902158  1
  Zr  Zr29  1  0.90163813  0.90315322  0.70287122  1
  Zr  Zr30  1  0.70280581  0.30069868  0.29681491  1
  Zr  Zr31  1  0.89975643  0.49829639  0.71695817  1
  Zr  Zr32  1  0.10501978  0.30421157  0.29636834  1
  Zr  Zr33  1  0.50324720  0.10058711  0.49494429  1
  Zr  Zr34  1  0.49933160  0.29215475  0.70167790  1
  Zr  Zr35  1  0.70459639  0.50232136  0.29301106  1
  Zr  Zr36  1  0.09042320  0.50230148  0.10794918  1
  Zr  Zr37  1  0.10317865  0.69272992  0.49524448  1
  Zr  Zr38  1  0.90781376  0.30260985  0.70433500  1
  Zr  Zr39  1  0.30609106  0.89227668  0.49334782  1
  Zr  Zr40  1  0.70048767  0.88692500  0.30117447  1
  Zr  Zr41  1  0.50533397  0.10533366  0.69200931  1
  Zr  Zr42  1  0.49953472  0.89926325  0.89876384  1
  Zr  Zr43  1  0.09559393  0.29799761  0.69477684  1
  Zr  Zr44  1  0.29650714  0.09709296  0.30024853  1
  Zr  Zr45  1  0.50947253  0.70300322  0.29519869  1
  Zr  Zr46  1  0.91402954  0.70708927  0.50140548  1
  Zr  Zr47  1  0.49123321  0.69681156  0.50059564  1
  Zr  Zr48  1  0.29658373  0.09753887  0.90302722  1
  Zr  Zr49  1  0.69538577  0.69981945  0.11395751  1
  Sc  Sc50  1  0.09445611  0.50061550  0.69793826  1
  Sc  Sc51  1  0.89645188  0.30488718  0.90031958  1
  Sc  Sc52  1  0.10308622  0.10907270  0.70396599  1
  Sc  Sc53  1  0.90669631  0.69658444  0.70086158  1
  Sc  Sc54  1  0.29579212  0.10145429  0.70552455  1
  Sc  Sc55  1  0.70122288  0.10344095  0.69911232  1
  Sc  Sc56  1  0.69903450  0.49651133  0.10297633  1
  Sc  Sc57  1  0.09767892  0.29270340  0.49945275  1
  Sc  Sc58  1  0.10387983  0.09594594  0.09473864  1
  Sc  Sc59  1  0.49285753  0.50854952  0.30801868  1
  Sc  Sc60  1  0.30141279  0.90994588  0.90539422  1
  Sc  Sc61  1  0.90985917  0.70052034  0.10359207  1
  Sc  Sc62  1  0.91339521  0.69503140  0.89856290  1
  Sc  Sc63  1  0.50910349  0.09944757  0.10354291  1
  Sc  Sc64  1  0.50149217  0.50472460  0.09513496  1
  Sc  Sc65  1  0.49339633  0.70211417  0.70276042  1
  Sc  Sc66  1  0.30069070  0.50813263  0.10587057  1
  Sc  Sc67  1  0.69950831  0.90853806  0.49314506  1
  Sc  Sc68  1  0.90088148  0.90650256  0.29298623  1
  Sc  Sc69  1  0.10392940  0.50077613  0.30008879  1
  Sc  Sc70  1  0.90649311  0.29476075  0.49826683  1
  Sc  Sc71  1  0.29627703  0.51019614  0.70257205  1
  Sc  Sc72  1  0.30241746  0.90087080  0.71049517  1
  Sc  Sc73  1  0.69908302  0.29626506  0.09667940  1
  Sc  Sc74  1  0.89668820  0.30068448  0.30579146  1
  Sc  Sc75  1  0.09870109  0.90147453  0.70962573  1
  Sc  Sc76  1  0.89982568  0.70803308  0.29616248  1
  Sc  Sc77  1  0.10398575  0.09575640  0.90196782  1
  Sc  Sc78  1  0.09543776  0.88620190  0.48993664  1
  Sc  Sc79  1  0.10008834  0.89889489  0.29744661  1
  Sc  Sc80  1  0.29782236  0.28881681  0.69715110  1
  Sc  Sc81  1  0.90150892  0.30397025  0.09705839  1
  Sc  Sc82  1  0.29256129  0.29730947  0.09843536  1
  Sc  Sc83  1  0.29705222  0.51056052  0.48601239  1
  Sc  Sc84  1  0.91024657  0.49842781  0.49171912  1
  Sc  Sc85  1  0.30025859  0.70149731  0.10494210  1
  Sc  Sc86  1  0.30110209  0.89826250  0.29827730  1
  Sc  Sc87  1  0.70227901  0.50282349  0.70721691  1
  Sc  Sc88  1  0.49402167  0.69721178  0.10554605  1
  Sc  Sc89  1  0.69803872  0.91417555  0.69782665  1
  Sc  Sc90  1  0.09666393  0.69166737  0.69332112  1
  Sc  Sc91  1  0.29475608  0.10681165  0.49508462  1
  Sc  Sc92  1  0.69928113  0.10409499  0.10206742  1
  Sc  Sc93  1  0.69744749  0.70170185  0.90056383  1
  Sc  Sc94  1  0.90138622  0.10287663  0.89664234  1
  Sc  Sc95  1  0.89895940  0.10331009  0.48924286  1
  Sc  Sc96  1  0.89532895  0.10203436  0.69924919  1
  Sc  Sc97  1  0.10150470  0.70099185  0.29492761  1
  Sc  Sc98  1  0.30582790  0.90055259  0.10192240  1
  Sc  Sc99  1  0.69372552  0.50280494  0.49800585  1
  Nb  Nb100  1  0.50096638  0.89222499  0.10354138  1
  Nb  Nb101  1  0.89949837  0.50027117  0.09856249  1
  Nb  Nb102  1  0.29925490  0.30447810  0.30661933  1
  Nb  Nb103  1  0.30254620  0.30548097  0.49019526  1
  Nb  Nb104  1  0.10880082  0.50191096  0.50061828  1
  Nb  Nb105  1  0.50119361  0.90315213  0.49932342  1
  Nb  Nb106  1  0.69602584  0.70426328  0.69952723  1
  Nb  Nb107  1  0.09696611  0.10017104  0.50440483  1
  Nb  Nb108  1  0.29730785  0.69212763  0.89733426  1
  Nb  Nb109  1  0.90501417  0.10012900  0.29616029  1
  Nb  Nb110  1  0.49857207  0.49640849  0.50349585  1
  Nb  Nb111  1  0.90316591  0.89556687  0.89691423  1
  Nb  Nb112  1  0.10084724  0.69485845  0.09167213  1
  Nb  Nb113  1  0.69888383  0.70004255  0.30038514  1
  Nb  Nb114  1  0.09673906  0.89315579  0.90108606  1
  Nb  Nb115  1  0.89913322  0.89874794  0.09898697  1
  Nb  Nb116  1  0.69311708  0.30851470  0.90157571  1
  Nb  Nb117  1  0.69960901  0.49523780  0.90092451  1
  Nb  Nb118  1  0.29288534  0.70354569  0.49983370  1
  Nb  Nb119  1  0.50139452  0.70026460  0.90167943  1
  Nb  Nb120  1  0.50529524  0.50196279  0.90200187  1
  Nb  Nb121  1  0.29657678  0.49431450  0.29971652  1
  Nb  Nb122  1  0.10315570  0.70497824  0.91557828  1
  Nb  Nb123  1  0.89218126  0.50229427  0.90158362  1
  Nb  Nb124  1  0.49558278  0.30099972  0.50108154  1
  Nb  Nb125  1  0.19657594  0.79204112  0.80854519  1
  Nb  Nb126  1  0.59888739  0.80183218  0.59806008  1
  Nb  Nb127  1  -0.00017763  0.19414619  0.20362508  1
  Nb  Nb128  1  0.80176477  0.59795462  -0.00133551  1
  Nb  Nb129  1  0.20320994  0.80010488  0.60236524  1
  Nb  Nb130  1  0.00701305  0.00279374  0.59633049  1
  Nb  Nb131  1  0.80026219  0.60540535  0.39862179  1
  Nb  Nb132  1  0.79984766  0.60308041  0.59646385  1
  Nb  Nb133  1  0.39800644  -0.00221462  0.59609562  1
  Nb  Nb134  1  0.79434622  0.79636627  0.60429825  1
  Nb  Nb135  1  0.19654972  0.39903799  0.80214755  1
  Nb  Nb136  1  0.59158121  0.39732708  0.20635697  1
  Nb  Nb137  1  0.59853926  0.80222734  0.00221763  1
  Nb  Nb138  1  0.59507898  0.39759861  0.59777638  1
  Nb  Nb139  1  0.39791031  0.39492699  0.20838856  1
  Nb  Nb140  1  0.39567706  0.20484241  0.20639053  1
  Nb  Nb141  1  0.79959893  0.40406466  0.60179298  1
  Nb  Nb142  1  0.80245125  0.79976679  -0.00234707  1
  Nb  Nb143  1  0.19645361  0.40364640  -0.00757849  1
  Nb  Nb144  1  0.20450174  0.40031753  0.59521559  1
  Nb  Nb145  1  0.39806527  0.39818451  0.59183788  1
  Nb  Nb146  1  -0.00298717  -0.01392334  -0.00264430  1
  Nb  Nb147  1  0.59740317  0.59946383  0.80843045  1
  Nb  Nb148  1  0.19802510  -0.00466310  0.59577949  1
  Nb  Nb149  1  0.80027917  0.80133109  0.79953605  1
  Pd  Pd150  1  0.19575420  0.20298834  0.40225033  1
  Pd  Pd151  1  0.80197253  0.40927365  0.40714437  1
  Pd  Pd152  1  -0.00301486  0.59941882  0.38804197  1
  Pd  Pd153  1  0.80669396  -0.00095692  -0.00769433  1
  Pd  Pd154  1  0.60755714  0.60447807  -0.00028576  1
  Pd  Pd155  1  0.60276671  0.59973460  0.60847559  1
  Pd  Pd156  1  0.19831862  0.19780645  0.20132603  1
  Pd  Pd157  1  0.20380879  0.59421929  0.00697266  1
  Pd  Pd158  1  0.19813700  -0.00756693  0.40665859  1
  Pd  Pd159  1  0.39420962  0.40515682  0.01214386  1
  Pd  Pd160  1  -0.00235256  -0.00495793  0.40406450  1
  Pd  Pd161  1  0.39053785  0.39709044  0.78803439  1
  Pd  Pd162  1  -0.00824518  0.58869455  0.60053959  1
  Pd  Pd163  1  0.59789141  0.00974745  0.79633649  1
  Pd  Pd164  1  0.60831701  0.19405701  0.40224482  1
  Pd  Pd165  1  0.60003561  0.40648020  0.79298384  1
  Pd  Pd166  1  0.40390022  0.79465624  0.39289828  1
  Pd  Pd167  1  0.79531890  0.40332210  0.00444814  1
  Pd  Pd168  1  0.79395254  0.60976158  0.80318311  1
  Pd  Pd169  1  0.21599383  0.80154551  -0.00288487  1
  Pd  Pd170  1  0.80702799  0.20559266  0.59778222  1
  Pd  Pd171  1  0.80877277  0.20513159  0.19709186  1
  Pd  Pd172  1  0.80406991  0.20198013  -0.00028456  1
  Pd  Pd173  1  0.39915288  0.60531291  0.00087768  1
  Pd  Pd174  1  0.40026464  0.00588903  0.19443034  1
  Pd  Pd175  1  0.60557266  -0.00370448  0.20359422  1
  Pd  Pd176  1  0.19177588  0.60285992  0.79804408  1
  Pd  Pd177  1  0.20463999  0.40295706  0.19011063  1
  Pd  Pd178  1  0.39068188  0.79683524  0.81079318  1
  Pd  Pd179  1  0.80744461  0.60544519  0.19841557  1
  Pd  Pd180  1  0.00790910  0.39824018  0.39964356  1
  Pd  Pd181  1  0.59988812  0.40717967  0.39881591  1
  Pd  Pd182  1  0.00085211  0.40545279  0.59450674  1
  Pd  Pd183  1  0.00241511  0.79921421  0.20126416  1
  Pd  Pd184  1  0.00030624  0.40610089  -0.00501188  1
  Pd  Pd185  1  0.19446737  -0.00698701  0.19523597  1
  Pd  Pd186  1  0.19902884  0.20504164  0.80493050  1
  Pd  Pd187  1  0.39965653  0.79472082  -0.00184250  1
  Pd  Pd188  1  0.40288960  0.19658349  0.00957147  1
  Pd  Pd189  1  0.80074841  0.20505482  0.80533613  1
  Pd  Pd190  1  0.40252854  0.00829803  0.79258799  1
  Pd  Pd191  1  0.00453292  0.00944763  0.80022498  1
  Pd  Pd192  1  0.39112571  0.59311979  0.59295766  1
  Pd  Pd193  1  0.60187946  0.59603873  0.39584958  1
  Pd  Pd194  1  0.59434286  -0.00222228  0.00248514  1
  Pd  Pd195  1  0.39181235  0.19647241  0.59379970  1
  Pd  Pd196  1  0.20502366  0.79645855  0.20275724  1
  Pd  Pd197  1  0.00478388  0.78983333  0.79596091  1
  Pd  Pd198  1  0.80654814  0.79755278  0.40354132  1
  Pd  Pd199  1  0.41006443  0.00251151  0.00893935  1
  Rh  Rh200  1  0.59751790  0.80490997  0.19730721  1
  Rh  Rh201  1  0.80367929  -0.00016323  0.39357272  1
  Rh  Rh202  1  0.19480950  0.40072562  0.40690455  1
  Rh  Rh203  1  0.60452238  0.20515667  0.59273353  1
  Rh  Rh204  1  0.80922297  -0.00133007  0.60056288  1
  Rh  Rh205  1  0.60306555  0.20102799  0.80764806  1
  Rh  Rh206  1  0.39998455  0.79980339  0.20485796  1
  Rh  Rh207  1  0.00551355  0.60438339  0.80311457  1
  Rh  Rh208  1  0.40910574  0.60504481  0.80690484  1
  Rh  Rh209  1  0.00453368  0.40382630  0.80882075  1
  Rh  Rh210  1  0.60375079  0.79357740  0.80093221  1
  Rh  Rh211  1  0.19774791  0.60133766  0.39237693  1
  Rh  Rh212  1  0.59117935  0.80345876  0.40505025  1
  Rh  Rh213  1  0.40085632  0.80681250  0.59823009  1
  Rh  Rh214  1  0.19700844  0.60130646  0.19959668  1
  Rh  Rh215  1  -0.00415827  0.19585238  0.79933651  1
  Rh  Rh216  1  0.60247049  0.20144271  -0.00550863  1
  Rh  Rh217  1  0.80216414  0.19697251  0.39810135  1
  Rh  Rh218  1  -0.00642117  0.18319215  0.00959977  1
  Rh  Rh219  1  0.00571522  0.81135597  0.60654137  1
  Rh  Rh220  1  0.79753857  0.39390081  0.80035531  1
  Rh  Rh221  1  0.59212898  -0.00420092  0.60151155  1
  Rh  Rh222  1  -0.00790498  0.79996008  0.00237829  1
  Rh  Rh223  1  0.60600117  0.00034625  0.39546490  1
  Rh  Rh224  1  0.59506602  0.20685931  0.20647789  1
  Rh  Rh225  1  0.00110102  0.60430470  0.20092885  1
  Rh  Rh226  1  0.80215335  0.80006131  0.19481183  1
  Rh  Rh227  1  0.59457754  0.59059902  0.20293374  1
  Rh  Rh228  1  0.79663179  -0.00373727  0.20550856  1
  Rh  Rh229  1  0.39677102  0.00402814  0.40562014  1
  Rh  Rh230  1  -0.00327962  0.38933461  0.19989067  1
  Rh  Rh231  1  0.20324964  0.59927574  0.59738541  1
  Rh  Rh232  1  0.19833097  0.20723704  -0.00701232  1
  Rh  Rh233  1  -0.00126401  0.80246957  0.38803968  1
  Rh  Rh234  1  0.00667512  0.00269398  0.18961022  1
  Rh  Rh235  1  0.39397293  0.19171865  0.39741330  1
  Rh  Rh236  1  0.39886097  0.60132236  0.40164262  1
  Rh  Rh237  1  0.19707605  -0.00677451  0.79931270  1
  Rh  Rh238  1  0.79924680  -0.00007365  0.80194277  1
  Rh  Rh239  1  0.79592630  0.39421443  0.19269967  1
  Rh  Rh240  1  0.19128594  -0.01127441  -0.00062812  1
  Rh  Rh241  1  -0.00822092  0.59938636  0.00472089  1
  Rh  Rh242  1  0.40100631  0.59400229  0.20416125  1
  Rh  Rh243  1  0.60280844  0.40158773  0.00666909  1
  Rh  Rh244  1  -0.00442868  0.18995634  0.60061551  1
  Rh  Rh245  1  0.39669343  0.40952090  0.40164424  1
  Rh  Rh246  1  0.20035291  0.79513483  0.39775574  1
  Rh  Rh247  1  0.39987707  0.19669110  0.80110377  1
  Rh  Rh248  1  0.00331156  0.20079519  0.39199384  1
  Rh  Rh249  1  0.20197533  0.20218153  0.59423801  1
