# generated using pymatgen
data_ZrScNbPdRh
_symmetry_space_group_name_H-M   'P 1'
_cell_length_a   16.55851819
_cell_length_b   16.56294691
_cell_length_c   16.56142307
_cell_angle_alpha   90.01367098
_cell_angle_beta   89.98930968
_cell_angle_gamma   90.01222382
_symmetry_Int_Tables_number   1
_chemical_formula_structural   ZrScNbPdRh
_chemical_formula_sum   'Zr50 Sc50 Nb50 Pd50 Rh50'
_cell_volume   4542.10009928
_cell_formula_units_Z   50
loop_
 _symmetry_equiv_pos_site_id
 _symmetry_equiv_pos_as_xyz
  1  'x, y, z'
loop_
 _atom_site_type_symbol
 _atom_site_label
 _atom_site_symmetry_multiplicity
 _atom_site_fract_x
 _atom_site_fract_y
 _atom_site_fract_z
 _atom_site_occupancy
  Zr  Zr0  1  0.50381010  0.09984249  0.08533403  1
  Zr  Zr1  1  0.51019012  0.89009623  0.29873869  1
  Zr  Zr2  1  0.70211403  0.10227114  0.49797613  1
  Zr  Zr3  1  0.29825608  0.50094817  0.90188213  1
  Zr  Zr4  1  0.89993561  0.29472197  0.50483767  1
  Zr  Zr5  1  0.89871299  0.69651076  0.89693657  1
  Zr  Zr6  1  0.28891869  0.09754962  0.30113482  1
  Zr  Zr7  1  0.49459525  0.50533993  0.30190583  1
  Zr  Zr8  1  0.49900963  0.70311786  0.11025265  1
  Zr  Zr9  1  0.09940406  0.90572105  0.29212108  1
  Zr  Zr10  1  0.90625027  0.70893557  0.09848276  1
  Zr  Zr11  1  0.50360562  0.69370019  0.89757788  1
  Zr  Zr12  1  0.89506257  0.70121347  0.49054514  1
  Zr  Zr13  1  0.30648939  0.90334120  0.89460819  1
  Zr  Zr14  1  0.69373790  0.49147171  0.29938562  1
  Zr  Zr15  1  0.88799169  0.09551741  0.89345418  1
  Zr  Zr16  1  0.69603906  0.71362326  0.30668406  1
  Zr  Zr17  1  0.89649995  0.29239137  0.30109237  1
  Zr  Zr18  1  0.29346911  0.70635945  0.50939085  1
  Zr  Zr19  1  0.29696780  0.08860312  0.49946438  1
  Zr  Zr20  1  0.09719974  0.70336451  0.49766241  1
  Zr  Zr21  1  0.30240356  0.69882305  0.89833912  1
  Zr  Zr22  1  0.10020002  0.08907040  0.11564497  1
  Zr  Zr23  1  0.90825656  0.90145784  0.10367425  1
  Zr  Zr24  1  0.49651857  0.10035255  0.51020112  1
  Zr  Zr25  1  0.30051140  0.30067046  0.89867970  1
  Zr  Zr26  1  0.30266635  0.29816481  0.30154303  1
  Zr  Zr27  1  0.89627690  0.50416661  0.09976467  1
  Zr  Zr28  1  0.29752787  0.90082976  0.10013263  1
  Zr  Zr29  1  0.70721347  0.10988091  0.29923856  1
  Zr  Zr30  1  0.90214118  0.49632843  0.70288788  1
  Zr  Zr31  1  0.50618562  0.29507397  0.68855048  1
  Zr  Zr32  1  0.70144533  0.29705137  0.11447971  1
  Zr  Zr33  1  0.09347080  0.89934881  0.50708298  1
  Zr  Zr34  1  0.70612240  0.30236310  0.89375496  1
  Zr  Zr35  1  0.30460828  0.29942768  0.09466094  1
  Zr  Zr36  1  0.29884865  0.69688119  0.28811728  1
  Zr  Zr37  1  0.50544637  0.50287488  0.09039017  1
  Zr  Zr38  1  0.70629006  0.49403698  0.09882735  1
  Zr  Zr39  1  0.10023087  0.30079284  0.89395034  1
  Zr  Zr40  1  0.09828562  0.29225347  0.30486324  1
  Zr  Zr41  1  0.70411521  0.49437728  0.69966564  1
  Zr  Zr42  1  0.49727312  0.29485369  0.09335215  1
  Zr  Zr43  1  0.69994576  0.50514869  0.90237839  1
  Zr  Zr44  1  0.09582173  0.89311037  0.10314430  1
  Zr  Zr45  1  0.09644194  0.50119180  0.70287537  1
  Zr  Zr46  1  0.90388759  0.10046989  0.49726459  1
  Zr  Zr47  1  0.50059072  0.08996051  0.31049180  1
  Zr  Zr48  1  0.50661292  0.70605231  0.50875694  1
  Zr  Zr49  1  0.29910525  0.50783886  0.09769311  1
  Sc  Sc50  1  0.31000507  0.10609014  0.10168272  1
  Sc  Sc51  1  0.29933146  0.09154441  0.69476739  1
  Sc  Sc52  1  0.49830016  0.49131744  0.49602805  1
  Sc  Sc53  1  0.30204841  0.31113098  0.50594721  1
  Sc  Sc54  1  0.68725656  0.69929945  0.69545531  1
  Sc  Sc55  1  0.50561613  0.30957900  0.30224053  1
  Sc  Sc56  1  0.30069721  0.89981197  0.30807268  1
  Sc  Sc57  1  0.89880776  0.30409702  0.10315571  1
  Sc  Sc58  1  0.70500915  0.90691952  0.89844897  1
  Sc  Sc59  1  0.30058378  0.70543473  0.70482028  1
  Sc  Sc60  1  0.09864392  0.29856072  0.70016174  1
  Sc  Sc61  1  0.49229345  0.90247802  0.49456929  1
  Sc  Sc62  1  0.69093697  0.51031285  0.50200172  1
  Sc  Sc63  1  0.70061703  0.10298874  0.71258617  1
  Sc  Sc64  1  0.89667289  0.68466439  0.69329446  1
  Sc  Sc65  1  0.30443018  0.50170026  0.30764976  1
  Sc  Sc66  1  0.50102253  0.91102915  0.89389429  1
  Sc  Sc67  1  0.29766505  0.89950795  0.50671400  1
  Sc  Sc68  1  0.90443111  0.09544083  0.09809373  1
  Sc  Sc69  1  0.69530733  0.29721892  0.70311433  1
  Sc  Sc70  1  0.90289105  0.90012014  0.68931450  1
  Sc  Sc71  1  0.09086575  0.49894852  0.30515067  1
  Sc  Sc72  1  0.90254443  0.50769658  0.50086550  1
  Sc  Sc73  1  0.89543363  0.90085868  0.91308025  1
  Sc  Sc74  1  0.71116281  0.89471438  0.09625911  1
  Sc  Sc75  1  0.90174497  0.29463790  0.70419224  1
  Sc  Sc76  1  0.89990013  0.50397837  0.30037783  1
  Sc  Sc77  1  0.30096344  0.89919397  0.69840344  1
  Sc  Sc78  1  0.11093734  0.69584582  0.89513199  1
  Sc  Sc79  1  0.29668262  0.49818253  0.69785253  1
  Sc  Sc80  1  0.08997399  0.29910848  0.09763639  1
  Sc  Sc81  1  0.09887685  0.30163777  0.50533023  1
  Sc  Sc82  1  0.09641300  0.10794747  0.88796843  1
  Sc  Sc83  1  0.10302312  0.89827299  0.90058621  1
  Sc  Sc84  1  0.69157397  0.89847208  0.70657220  1
  Sc  Sc85  1  0.10907194  0.69419115  0.69500312  1
  Sc  Sc86  1  0.29943247  0.49637973  0.50244144  1
  Sc  Sc87  1  0.09982828  0.49997243  0.09784712  1
  Sc  Sc88  1  0.49477504  0.70159220  0.30339239  1
  Sc  Sc89  1  0.70915377  0.69675414  0.09589606  1
  Sc  Sc90  1  0.09851517  0.49664813  0.50683663  1
  Sc  Sc91  1  0.50050431  0.71339604  0.70629058  1
  Sc  Sc92  1  0.90250026  0.69979162  0.29997278  1
  Sc  Sc93  1  0.90800158  0.29812065  0.89485403  1
  Sc  Sc94  1  0.69282272  0.09496949  0.89763809  1
  Sc  Sc95  1  0.50027543  0.30297186  0.90116551  1
  Sc  Sc96  1  0.10718933  0.10322363  0.69267089  1
  Sc  Sc97  1  0.30367518  0.09630192  0.89203072  1
  Sc  Sc98  1  0.50029891  0.49292530  0.70255407  1
  Sc  Sc99  1  0.29587311  0.30439459  0.69821068  1
  Nb  Nb100  1  0.89532342  0.90019605  0.30151751  1
  Nb  Nb101  1  0.90389582  0.50243792  0.89050530  1
  Nb  Nb102  1  0.11121594  0.70082910  0.10506171  1
  Nb  Nb103  1  0.29044773  0.69960982  0.09832214  1
  Nb  Nb104  1  0.50270858  0.29892344  0.50407448  1
  Nb  Nb105  1  0.49897196  0.50336647  0.90459015  1
  Nb  Nb106  1  0.70332428  0.30002079  0.30248761  1
  Nb  Nb107  1  0.10139915  0.70183417  0.29602841  1
  Nb  Nb108  1  0.10430903  0.09720791  0.48927137  1
  Nb  Nb109  1  0.89589166  0.89855546  0.49898352  1
  Nb  Nb110  1  0.09569091  0.89990169  0.69940228  1
  Nb  Nb111  1  0.69607513  0.70613254  0.89683454  1
  Nb  Nb112  1  0.90365163  0.10338567  0.30596933  1
  Nb  Nb113  1  0.10039390  0.10018315  0.31005163  1
  Nb  Nb114  1  0.70182276  0.70499513  0.50477994  1
  Nb  Nb115  1  0.89555441  0.09723259  0.70173956  1
  Nb  Nb116  1  0.49759172  0.09957676  0.89409081  1
  Nb  Nb117  1  0.50352681  0.09803793  0.70092556  1
  Nb  Nb118  1  0.69787295  0.89777222  0.49227802  1
  Nb  Nb119  1  0.69457550  0.30157130  0.50358944  1
  Nb  Nb120  1  0.50201619  0.89991649  0.09921804  1
  Nb  Nb121  1  0.49943515  0.90111266  0.69766723  1
  Nb  Nb122  1  0.69773636  0.90525457  0.30441441  1
  Nb  Nb123  1  0.70056568  0.10358714  0.10405329  1
  Nb  Nb124  1  0.09490668  0.50137642  0.89693733  1
  Nb  Nb125  1  0.79566895  0.19808795  0.00298858  1
  Nb  Nb126  1  0.79312773  0.39508956  0.40509227  1
  Nb  Nb127  1  0.20357931  0.39652996  0.20180203  1
  Nb  Nb128  1  0.19567012  0.60796528  0.39996352  1
  Nb  Nb129  1  0.40978716  -0.00320960  0.19842795  1
  Nb  Nb130  1  0.79546003  0.80248991  0.59400789  1
  Nb  Nb131  1  0.80024315  0.00147943  0.20802881  1
  Nb  Nb132  1  0.40381995  0.20129181  0.40711164  1
  Nb  Nb133  1  0.79757373  -0.00428789  0.59558038  1
  Nb  Nb134  1  0.19762887  0.19567087  -0.00025754  1
  Nb  Nb135  1  0.60553143  -0.00252262  0.19766784  1
  Nb  Nb136  1  0.19911050  0.00577114  0.00208980  1
  Nb  Nb137  1  0.60304961  0.59976020  0.19980735  1
  Nb  Nb138  1  0.00192526  0.59944664  -0.00422085  1
  Nb  Nb139  1  0.60189290  -0.00073879  0.59990241  1
  Nb  Nb140  1  0.79803492  0.39807202  0.59527016  1
  Nb  Nb141  1  0.59575135  0.79944055  -0.00072423  1
  Nb  Nb142  1  0.80322493  0.79787889  0.79510959  1
  Nb  Nb143  1  0.40162187  0.60392920  0.60084484  1
  Nb  Nb144  1  0.40287615  0.79995171  0.00296844  1
  Nb  Nb145  1  0.39775899  0.40163970  0.19405163  1
  Nb  Nb146  1  -0.00269332  -0.00488450  0.79269713  1
  Nb  Nb147  1  0.40729457  0.19628951  0.79385326  1
  Nb  Nb148  1  0.60015616  0.20656865  0.40541105  1
  Nb  Nb149  1  -0.00315202  0.80079804  0.79496033  1
  Pd  Pd150  1  -0.00322682  0.19498294  0.20004630  1
  Pd  Pd151  1  0.58859175  0.19566247  0.20948597  1
  Pd  Pd152  1  0.60339503  0.39404056  -0.00321325  1
  Pd  Pd153  1  0.58924010  0.59434228  0.60646807  1
  Pd  Pd154  1  -0.00158317  0.00988432  0.60242804  1
  Pd  Pd155  1  0.19457906  0.20657975  0.19254849  1
  Pd  Pd156  1  0.59139982  0.40280447  0.19620514  1
  Pd  Pd157  1  0.79320455  0.59407043  0.39691555  1
  Pd  Pd158  1  0.19749476  0.40350736  0.79670338  1
  Pd  Pd159  1  0.20397152  0.80487972  -0.00431243  1
  Pd  Pd160  1  0.19849047  0.80108656  0.39516736  1
  Pd  Pd161  1  0.60893782  -0.00769155  0.00337955  1
  Pd  Pd162  1  0.60048938  0.59502352  0.79426676  1
  Pd  Pd163  1  0.39253233  0.80609984  0.19793687  1
  Pd  Pd164  1  0.80916079  0.39235094  -0.00718764  1
  Pd  Pd165  1  -0.00606381  0.40754198  -0.00415435  1
  Pd  Pd166  1  -0.00074143  0.80441163  0.39104210  1
  Pd  Pd167  1  0.79983596  0.80404271  0.20336109  1
  Pd  Pd168  1  0.00979528  0.00646646  -0.01242612  1
  Pd  Pd169  1  0.00117632  -0.00482381  0.39789296  1
  Pd  Pd170  1  0.20411625  0.20130827  0.59483753  1
  Pd  Pd171  1  0.38812069  0.20111788  0.60241800  1
  Pd  Pd172  1  -0.00161451  0.19225191  -0.00134092  1
  Pd  Pd173  1  0.00163545  0.40094470  0.20266764  1
  Pd  Pd174  1  0.79333169  0.60407535  0.20859935  1
  Pd  Pd175  1  0.59943362  0.60676980  0.39658363  1
  Pd  Pd176  1  0.41055703  0.19669461  0.21140031  1
  Pd  Pd177  1  0.59530620  0.40154789  0.80493025  1
  Pd  Pd178  1  0.00597729  0.19350452  0.60188562  1
  Pd  Pd179  1  0.19471321  0.80242192  0.79496594  1
  Pd  Pd180  1  0.01101416  0.78954614  -0.01093899  1
  Pd  Pd181  1  0.20726887  0.20636645  0.41332894  1
  Pd  Pd182  1  0.39929369  0.60838107  0.00407833  1
  Pd  Pd183  1  0.40439644  0.39454528  0.79769952  1
  Pd  Pd184  1  0.19335022  0.58673169  0.20905337  1
  Pd  Pd185  1  0.80252502  0.00037969  0.39905863  1
  Pd  Pd186  1  0.00444254  0.60414671  0.19281712  1
  Pd  Pd187  1  0.39926852  0.59661996  0.78968337  1
  Pd  Pd188  1  0.79418342  0.19940370  0.60933721  1
  Pd  Pd189  1  0.19758967  0.40714733  0.39673859  1
  Pd  Pd190  1  0.19293887  0.39547824  0.00469377  1
  Pd  Pd191  1  -0.00910783  0.39897881  0.40379550  1
  Pd  Pd192  1  0.78980067  0.60648104  0.79469330  1
  Pd  Pd193  1  0.60889545  0.20467346  -0.00917809  1
  Pd  Pd194  1  0.19255760  0.00149602  0.80098285  1
  Pd  Pd195  1  0.00093893  0.60268743  0.59589888  1
  Pd  Pd196  1  0.39100025  0.60807781  0.41375715  1
  Pd  Pd197  1  0.39736300  0.79650392  0.40316799  1
  Pd  Pd198  1  -0.00750716  0.78910760  0.60616401  1
  Pd  Pd199  1  0.80427417  0.60246683  -0.00399980  1
  Rh  Rh200  1  0.60275104  0.39574048  0.40528323  1
  Rh  Rh201  1  0.60216364  0.80836356  0.81026825  1
  Rh  Rh202  1  -0.00732527  0.39828692  0.60389010  1
  Rh  Rh203  1  0.00723512  0.60731906  0.80439535  1
  Rh  Rh204  1  -0.00328210  0.19000643  0.79161645  1
  Rh  Rh205  1  -0.01050239  0.00424835  0.21389519  1
  Rh  Rh206  1  0.40344628  0.40628976  -0.00053072  1
  Rh  Rh207  1  0.19325203  -0.01093367  0.40430615  1
  Rh  Rh208  1  0.40386976  0.40715917  0.60212907  1
  Rh  Rh209  1  0.40576956  0.80575342  0.80631913  1
  Rh  Rh210  1  0.00112368  0.39696031  0.79757020  1
  Rh  Rh211  1  0.39312490  0.00100546  0.39727090  1
  Rh  Rh212  1  0.81188435  0.19268497  0.19189902  1
  Rh  Rh213  1  0.19243871  0.59934795  -0.00364905  1
  Rh  Rh214  1  0.00740889  0.60281606  0.40080598  1
  Rh  Rh215  1  0.00544240  0.19930250  0.40585098  1
  Rh  Rh216  1  0.80122801  0.80318601  0.40170258  1
  Rh  Rh217  1  0.60265957  0.81355694  0.59555587  1
  Rh  Rh218  1  0.40578997  -0.00673053  0.60406124  1
  Rh  Rh219  1  0.20782247  0.59683256  0.59489084  1
  Rh  Rh220  1  0.80510690  0.39845410  0.79545697  1
  Rh  Rh221  1  0.59686433  0.79885151  0.40848981  1
  Rh  Rh222  1  0.80012194  0.20224496  0.80523039  1
  Rh  Rh223  1  0.19348160  -0.00483250  0.59845178  1
  Rh  Rh224  1  0.00007052  0.79463807  0.20618036  1
  Rh  Rh225  1  0.20924748  -0.00221332  0.19792212  1
  Rh  Rh226  1  0.80887363  -0.01256400  0.78808822  1
  Rh  Rh227  1  0.40188392  0.39166692  0.39834060  1
  Rh  Rh228  1  0.19664875  0.80598960  0.60747703  1
  Rh  Rh229  1  0.39468067  0.19417528  -0.01687538  1
  Rh  Rh230  1  0.80844043  0.40167671  0.21119823  1
  Rh  Rh231  1  0.40385095  0.00395704  0.78977515  1
  Rh  Rh232  1  0.20113001  0.80400135  0.20457158  1
  Rh  Rh233  1  0.60768983  0.19153228  0.59935908  1
  Rh  Rh234  1  0.40432720  0.59447316  0.19398969  1
  Rh  Rh235  1  0.60470214  0.40433150  0.59798589  1
  Rh  Rh236  1  0.59260715  0.20012575  0.80433720  1
  Rh  Rh237  1  0.79479461  0.59818127  0.59868026  1
  Rh  Rh238  1  0.79241607  0.79728229  -0.01026663  1
  Rh  Rh239  1  0.60607871  0.60670613  0.00403370  1
  Rh  Rh240  1  0.59607875  -0.00117174  0.79354432  1
  Rh  Rh241  1  0.19259905  0.40150386  0.60376995  1
  Rh  Rh242  1  0.79658068  0.20766840  0.40368924  1
  Rh  Rh243  1  0.79449328  0.00950668  0.01203667  1
  Rh  Rh244  1  0.40062664  0.79823060  0.60248642  1
  Rh  Rh245  1  0.39412763  -0.00218790  0.00444148  1
  Rh  Rh246  1  0.61351961  0.80017136  0.19032644  1
  Rh  Rh247  1  0.60449559  0.00406638  0.40324567  1
  Rh  Rh248  1  0.21190368  0.19967144  0.80281768  1
  Rh  Rh249  1  0.20438434  0.59415545  0.80002751  1
