# generated using pymatgen
data_ZrScNbPdRh
_symmetry_space_group_name_H-M   'P 1'
_cell_length_a   16.56049963
_cell_length_b   16.55581875
_cell_length_c   16.55735558
_cell_angle_alpha   89.98390536
_cell_angle_beta   89.99164379
_cell_angle_gamma   89.96588587
_symmetry_Int_Tables_number   1
_chemical_formula_structural   ZrScNbPdRh
_chemical_formula_sum   'Zr50 Sc50 Nb50 Pd50 Rh50'
_cell_volume   4539.57269893
_cell_formula_units_Z   50
loop_
 _symmetry_equiv_pos_site_id
 _symmetry_equiv_pos_as_xyz
  1  'x, y, z'
loop_
 _atom_site_type_symbol
 _atom_site_label
 _atom_site_symmetry_multiplicity
 _atom_site_fract_x
 _atom_site_fract_y
 _atom_site_fract_z
 _atom_site_occupancy
  Zr  Zr0  1  0.68721196  0.30410314  0.11290935  1
  Zr  Zr1  1  0.30636800  0.70497349  0.49127721  1
  Zr  Zr2  1  0.09802515  0.09817674  0.70543124  1
  Zr  Zr3  1  0.10759817  0.30065832  0.28972289  1
  Zr  Zr4  1  0.30254939  0.89255295  0.69881383  1
  Zr  Zr5  1  0.69855044  0.09888662  0.28092212  1
  Zr  Zr6  1  0.90106109  0.69694257  0.29869880  1
  Zr  Zr7  1  0.70543017  0.30146799  0.89834017  1
  Zr  Zr8  1  0.10019469  0.30174726  0.50445955  1
  Zr  Zr9  1  0.50799368  0.50242218  0.50015187  1
  Zr  Zr10  1  0.89933416  0.30486759  0.89609036  1
  Zr  Zr11  1  0.70412496  0.48685928  0.29253686  1
  Zr  Zr12  1  0.09852387  0.90021780  0.70103727  1
  Zr  Zr13  1  0.49845863  0.88460542  0.09727008  1
  Zr  Zr14  1  0.09468345  0.50710013  0.31476231  1
  Zr  Zr15  1  0.29932692  0.09413094  0.90456585  1
  Zr  Zr16  1  0.70938571  0.29871397  0.69014757  1
  Zr  Zr17  1  0.09815891  0.29729163  0.70283075  1
  Zr  Zr18  1  0.89707263  0.70617093  0.49905929  1
  Zr  Zr19  1  0.30066121  0.51048431  0.90182627  1
  Zr  Zr20  1  0.50430191  0.09323318  0.50246361  1
  Zr  Zr21  1  0.89932257  0.09630969  0.49677898  1
  Zr  Zr22  1  0.69987276  0.10218939  0.50806470  1
  Zr  Zr23  1  0.50425792  0.30619152  0.50520730  1
  Zr  Zr24  1  0.08740936  0.30014403  0.90302231  1
  Zr  Zr25  1  0.89616649  0.09752104  0.10756927  1
  Zr  Zr26  1  0.89203831  0.89514366  0.89995307  1
  Zr  Zr27  1  0.10389914  0.90963047  0.89711835  1
  Zr  Zr28  1  0.50321150  0.69369295  0.10774798  1
  Zr  Zr29  1  0.89476412  0.89838807  0.49780729  1
  Zr  Zr30  1  0.90804473  0.49223121  0.49489345  1
  Zr  Zr31  1  0.89763619  0.90356217  0.30579707  1
  Zr  Zr32  1  0.09519373  0.10165163  0.09955209  1
  Zr  Zr33  1  0.92243866  0.29954057  0.09293591  1
  Zr  Zr34  1  0.71689289  0.70149539  0.89661129  1
  Zr  Zr35  1  0.30318443  0.69321541  0.29931657  1
  Zr  Zr36  1  0.89043666  0.50665859  0.10383215  1
  Zr  Zr37  1  0.29978384  0.10205892  0.10204972  1
  Zr  Zr38  1  0.69927065  0.89716335  0.90179737  1
  Zr  Zr39  1  0.29788285  0.89576795  0.09810890  1
  Zr  Zr40  1  0.50083960  0.49669556  0.69522317  1
  Zr  Zr41  1  0.09477957  0.89811467  0.29272480  1
  Zr  Zr42  1  0.30378476  0.50022729  0.71281729  1
  Zr  Zr43  1  0.49270894  0.10307693  0.89886578  1
  Zr  Zr44  1  0.31039182  0.10658643  0.69489861  1
  Zr  Zr45  1  0.70748391  0.09551128  0.89730426  1
  Zr  Zr46  1  0.30794143  0.49992150  0.09944238  1
  Zr  Zr47  1  0.88440830  0.70216579  0.69707714  1
  Zr  Zr48  1  0.48980406  0.49593480  0.90028832  1
  Zr  Zr49  1  0.89670683  0.09334968  0.30017872  1
  Sc  Sc50  1  0.09538269  0.49185223  0.71025066  1
  Sc  Sc51  1  0.50010766  0.09887903  0.30396172  1
  Sc  Sc52  1  0.09423910  0.10268822  0.30566329  1
  Sc  Sc53  1  0.90456955  0.29830313  0.70415335  1
  Sc  Sc54  1  0.69509729  0.69706952  0.50632646  1
  Sc  Sc55  1  0.49417648  0.30449908  0.90432380  1
  Sc  Sc56  1  0.09632658  0.69926863  0.90569858  1
  Sc  Sc57  1  0.69567297  0.90680512  0.09591569  1
  Sc  Sc58  1  0.10186847  0.49538695  0.09961467  1
  Sc  Sc59  1  0.09330405  0.90070051  0.09828073  1
  Sc  Sc60  1  0.30427570  0.30897715  0.90301245  1
  Sc  Sc61  1  0.09855535  0.69459707  0.48950142  1
  Sc  Sc62  1  0.30054247  0.50110451  0.29754696  1
  Sc  Sc63  1  0.50004233  0.89566837  0.50097344  1
  Sc  Sc64  1  0.09997354  0.70507608  0.70290812  1
  Sc  Sc65  1  0.30216221  0.49938066  0.48553192  1
  Sc  Sc66  1  0.70698685  0.09993337  0.69594244  1
  Sc  Sc67  1  0.30795091  0.11255587  0.30441986  1
  Sc  Sc68  1  0.30274315  0.88001998  0.30195620  1
  Sc  Sc69  1  0.30489299  0.70135262  0.10716112  1
  Sc  Sc70  1  0.90021416  0.31284536  0.29748823  1
  Sc  Sc71  1  0.09968868  0.11116685  0.49962767  1
  Sc  Sc72  1  0.50200474  0.10351277  0.10579812  1
  Sc  Sc73  1  0.10448648  0.69921728  0.29443865  1
  Sc  Sc74  1  0.30238515  0.70335991  0.71150174  1
  Sc  Sc75  1  0.90353964  0.09936515  0.89258980  1
  Sc  Sc76  1  0.69778533  0.89315683  0.70026192  1
  Sc  Sc77  1  0.10484943  0.49899248  0.90141787  1
  Sc  Sc78  1  0.50800986  0.70642801  0.69133739  1
  Sc  Sc79  1  0.69145512  0.69895185  0.30442289  1
  Sc  Sc80  1  0.08561493  0.89568959  0.49999146  1
  Sc  Sc81  1  0.49771204  0.29857437  0.29101133  1
  Sc  Sc82  1  0.69120866  0.90105121  0.49450472  1
  Sc  Sc83  1  0.51036615  0.89830367  0.30979092  1
  Sc  Sc84  1  0.90119298  0.70393098  0.09098470  1
  Sc  Sc85  1  0.30520891  0.29431296  0.49665089  1
  Sc  Sc86  1  0.09320391  0.70537837  0.10275033  1
  Sc  Sc87  1  0.30550014  0.89954681  0.89588813  1
  Sc  Sc88  1  0.49964760  0.70020162  0.30328929  1
  Sc  Sc89  1  0.69687649  0.70352356  0.10057046  1
  Sc  Sc90  1  0.31003485  0.10706327  0.49845078  1
  Sc  Sc91  1  0.89454234  0.49143127  0.69631468  1
  Sc  Sc92  1  0.89965085  0.30258884  0.50901938  1
  Sc  Sc93  1  0.89622802  0.09459199  0.70131334  1
  Sc  Sc94  1  0.49950885  0.70574731  0.90772812  1
  Sc  Sc95  1  0.90549576  0.89874570  0.10228856  1
  Sc  Sc96  1  0.50092329  0.89758166  0.69166545  1
  Sc  Sc97  1  0.30500211  0.30105618  0.29638343  1
  Sc  Sc98  1  0.49844187  0.50700869  0.29582456  1
  Sc  Sc99  1  0.50008047  0.89708234  0.90600757  1
  Nb  Nb100  1  0.10420776  0.09994054  0.89863937  1
  Nb  Nb101  1  0.10616092  0.29600937  0.09910726  1
  Nb  Nb102  1  0.69872329  0.29801984  0.30214487  1
  Nb  Nb103  1  0.70438095  0.49893948  0.90239486  1
  Nb  Nb104  1  0.69674505  0.50694454  0.69277835  1
  Nb  Nb105  1  0.30083478  0.89905327  0.50046931  1
  Nb  Nb106  1  0.69308724  0.50041633  0.09841628  1
  Nb  Nb107  1  0.10206808  0.50068000  0.50519565  1
  Nb  Nb108  1  0.30084534  0.29831019  0.69316672  1
  Nb  Nb109  1  0.50444272  0.10454324  0.69947135  1
  Nb  Nb110  1  0.50474503  0.49322704  0.09945273  1
  Nb  Nb111  1  0.70035672  0.10646969  0.09816433  1
  Nb  Nb112  1  0.89669741  0.70057540  0.90035579  1
  Nb  Nb113  1  0.69805458  0.69271909  0.70149553  1
  Nb  Nb114  1  0.88354576  0.51140711  0.90474988  1
  Nb  Nb115  1  0.70223737  0.30550288  0.49388379  1
  Nb  Nb116  1  0.29449057  0.70242173  0.90076853  1
  Nb  Nb117  1  0.89619927  0.50487888  0.30185024  1
  Nb  Nb118  1  0.49060434  0.30669084  0.10147410  1
  Nb  Nb119  1  0.29419736  0.29833133  0.11081233  1
  Nb  Nb120  1  0.70315455  0.89938370  0.30397500  1
  Nb  Nb121  1  0.90714864  0.89705733  0.69472690  1
  Nb  Nb122  1  0.69940105  0.48720315  0.50352594  1
  Nb  Nb123  1  0.49375926  0.30199824  0.70027813  1
  Nb  Nb124  1  0.50017922  0.69899660  0.49812368  1
  Nb  Nb125  1  0.39713145  -0.00651436  0.20135607  1
  Nb  Nb126  1  0.20169766  0.59788134  0.59965636  1
  Nb  Nb127  1  0.79334576  0.20543482  0.39687762  1
  Nb  Nb128  1  0.20384636  -0.00521516  0.40285267  1
  Nb  Nb129  1  0.79738300  0.20109042  0.00727719  1
  Nb  Nb130  1  0.60467659  0.58998189  -0.00342015  1
  Nb  Nb131  1  0.60353620  0.20153396  -0.00050398  1
  Nb  Nb132  1  0.60821915  0.20406432  0.39972236  1
  Nb  Nb133  1  0.20302446  0.40302665  0.60123491  1
  Nb  Nb134  1  0.39750611  0.60202367  0.59680393  1
  Nb  Nb135  1  0.60350718  0.40138314  0.79565028  1
  Nb  Nb136  1  0.59619464  0.20292797  0.79748262  1
  Nb  Nb137  1  0.20456932  -0.00377121  0.59336625  1
  Nb  Nb138  1  0.60761770  0.59534445  0.80243204  1
  Nb  Nb139  1  0.59589039  0.00768551  0.79849043  1
  Nb  Nb140  1  0.20180965  0.20004665  0.80443047  1
  Nb  Nb141  1  0.20518345  0.00012650  0.20686075  1
  Nb  Nb142  1  -0.00920745  0.79838354  0.80126696  1
  Nb  Nb143  1  0.20265253  0.79997911  0.59554166  1
  Nb  Nb144  1  0.79935390  0.58875542  0.39936323  1
  Nb  Nb145  1  0.00266097  0.59840363  0.60203592  1
  Nb  Nb146  1  0.20187688  0.80056804  -0.00414272  1
  Nb  Nb147  1  0.19525682  0.20275067  -0.00036148  1
  Nb  Nb148  1  -0.01399997  0.60356237  0.80237015  1
  Nb  Nb149  1  0.79804590  0.80503176  0.20827555  1
  Pd  Pd150  1  0.80592662  0.39256947  0.19065881  1
  Pd  Pd151  1  0.78825016  0.00800285  0.40031183  1
  Pd  Pd152  1  0.20002684  0.40977218  0.20298187  1
  Pd  Pd153  1  -0.00663273  0.00223807  -0.00436113  1
  Pd  Pd154  1  0.59815912  0.39781664  -0.00672544  1
  Pd  Pd155  1  0.19807793  0.60945433  0.00803707  1
  Pd  Pd156  1  0.60828087  0.59576945  0.39988696  1
  Pd  Pd157  1  0.78836823  0.80624688  0.59622196  1
  Pd  Pd158  1  0.38817023  0.40806476  0.59527415  1
  Pd  Pd159  1  0.19588426  0.59697673  0.19591231  1
  Pd  Pd160  1  0.59924776  0.20534084  0.60095400  1
  Pd  Pd161  1  0.40553325  0.60624128  0.00327089  1
  Pd  Pd162  1  -0.00692160  0.19516274  0.60441046  1
  Pd  Pd163  1  0.59185629  0.00703371  -0.00208372  1
  Pd  Pd164  1  0.19143876  0.80348922  0.40447786  1
  Pd  Pd165  1  0.20372360  0.39039208  0.79943068  1
  Pd  Pd166  1  0.00411241  0.79571656  0.39431419  1
  Pd  Pd167  1  0.59191730  -0.00680976  0.19688285  1
  Pd  Pd168  1  0.40065034  -0.00141227  0.59940542  1
  Pd  Pd169  1  0.59184725  0.39789100  0.38950770  1
  Pd  Pd170  1  0.59773988  0.79817717  0.80229536  1
  Pd  Pd171  1  -0.00240081  0.19917927  0.20911981  1
  Pd  Pd172  1  0.80625769  0.00200911  0.00493201  1
  Pd  Pd173  1  0.79053353  0.61056973  0.20201893  1
  Pd  Pd174  1  0.40723766  -0.00292468  0.00885377  1
  Pd  Pd175  1  0.18808319  0.60555741  0.79739104  1
  Pd  Pd176  1  0.20192353  0.39452922  0.40293346  1
  Pd  Pd177  1  0.00388439  0.39171242  0.39749595  1
  Pd  Pd178  1  0.80439534  0.59096768  0.58886890  1
  Pd  Pd179  1  0.80162654  0.39272480  0.01312891  1
  Pd  Pd180  1  0.21163968  0.00574726  0.78978360  1
  Pd  Pd181  1  0.39706432  0.20854408  0.80137009  1
  Pd  Pd182  1  0.79592079  -0.01033222  0.60405655  1
  Pd  Pd183  1  -0.01079135  0.21027154  0.39534854  1
  Pd  Pd184  1  0.41016100  0.79762550  0.80164655  1
  Pd  Pd185  1  -0.00402630  0.41747241  -0.00421047  1
  Pd  Pd186  1  0.41384281  0.61399319  0.79486201  1
  Pd  Pd187  1  0.39727491  0.20712514  0.00726674  1
  Pd  Pd188  1  0.00498309  0.41036178  0.20129119  1
  Pd  Pd189  1  0.00592520  0.00615089  0.59331202  1
  Pd  Pd190  1  0.79751296  0.40587421  0.79264513  1
  Pd  Pd191  1  0.00021863  0.59572964  -0.00290490  1
  Pd  Pd192  1  0.40680073  0.39903610  0.39297823  1
  Pd  Pd193  1  0.20453831  0.39469974  0.00103987  1
  Pd  Pd194  1  0.39296402  -0.00818638  0.39163037  1
  Pd  Pd195  1  0.60554383  0.80334475  0.20457852  1
  Pd  Pd196  1  0.80909239  0.21303126  0.19845432  1
  Pd  Pd197  1  0.20215614  0.19866821  0.39865894  1
  Pd  Pd198  1  0.00302630  0.59718250  0.19623124  1
  Pd  Pd199  1  0.40770052  -0.00703334  0.79440036  1
  Rh  Rh200  1  0.00399052  0.78995926  0.60666131  1
  Rh  Rh201  1  -0.00955584  -0.00800073  0.80220047  1
  Rh  Rh202  1  0.60725073  0.01125004  0.39566328  1
  Rh  Rh203  1  0.19740885  -0.00021886  0.00903319  1
  Rh  Rh204  1  0.00680963  0.80576648  -0.01017201  1
  Rh  Rh205  1  0.39175130  0.39757008  0.00714702  1
  Rh  Rh206  1  0.59083714  0.40396744  0.20586563  1
  Rh  Rh207  1  0.40056841  0.39487265  0.79871143  1
  Rh  Rh208  1  0.40867109  0.20208747  0.59369219  1
  Rh  Rh209  1  -0.00088363  0.19089641  -0.00534529  1
  Rh  Rh210  1  0.20279633  0.59979724  0.40081578  1
  Rh  Rh211  1  0.79874335  0.59322063  0.79302871  1
  Rh  Rh212  1  0.19096663  0.79594170  0.80693187  1
  Rh  Rh213  1  0.20199752  0.19997507  0.60645025  1
  Rh  Rh214  1  0.60855969  0.78982356  -0.00478514  1
  Rh  Rh215  1  0.19510933  0.80378167  0.18964198  1
  Rh  Rh216  1  0.80193177  0.39985041  0.40211763  1
  Rh  Rh217  1  0.79690693  0.80249075  0.01379638  1
  Rh  Rh218  1  0.80060587  0.40089242  0.59927428  1
  Rh  Rh219  1  0.79137723  0.78999269  0.39586480  1
  Rh  Rh220  1  0.60589499  0.39480265  0.60717209  1
  Rh  Rh221  1  0.00520632  0.00393906  0.20345110  1
  Rh  Rh222  1  0.59137944  0.20168082  0.19954987  1
  Rh  Rh223  1  0.40328505  0.19664055  0.19688433  1
  Rh  Rh224  1  0.00077680  0.19456854  0.80012044  1
  Rh  Rh225  1  0.40828625  0.80152572  0.20739876  1
  Rh  Rh226  1  0.80187580  0.80729853  0.79188498  1
  Rh  Rh227  1  0.38906750  0.79326069  -0.00327171  1
  Rh  Rh228  1  0.39683722  0.79104432  0.59683729  1
  Rh  Rh229  1  0.80813300  0.20156724  0.59341473  1
  Rh  Rh230  1  0.41667481  0.20649103  0.40481030  1
  Rh  Rh231  1  0.79654417  -0.00805519  0.79125751  1
  Rh  Rh232  1  0.79595446  -0.01226963  0.19461421  1
  Rh  Rh233  1  0.00927114  0.40359107  0.60364704  1
  Rh  Rh234  1  0.60153193  0.59363519  0.19612219  1
  Rh  Rh235  1  -0.00673618  0.60304186  0.40625738  1
  Rh  Rh236  1  0.60331997  0.79839680  0.59561706  1
  Rh  Rh237  1  0.80063693  0.19811090  0.80228402  1
  Rh  Rh238  1  0.00819610  0.00060268  0.40405776  1
  Rh  Rh239  1  0.40359168  0.59644780  0.19925026  1
  Rh  Rh240  1  -0.00977065  0.79724771  0.20215430  1
  Rh  Rh241  1  0.79198275  0.60487521  0.01099263  1
  Rh  Rh242  1  -0.01289688  0.41655191  0.81199268  1
  Rh  Rh243  1  0.60028571  0.79578938  0.40577651  1
  Rh  Rh244  1  0.39944220  0.40258871  0.19886936  1
  Rh  Rh245  1  0.20034054  0.19262660  0.20010836  1
  Rh  Rh246  1  0.40926891  0.80155271  0.39929662  1
  Rh  Rh247  1  0.59572270  0.60327043  0.60007458  1
  Rh  Rh248  1  0.60036285  -0.00411458  0.60861320  1
  Rh  Rh249  1  0.40359962  0.59913355  0.40282584  1
