# generated using pymatgen
data_ZrScNbPdRh
_symmetry_space_group_name_H-M   'P 1'
_cell_length_a   16.56435985
_cell_length_b   16.56893602
_cell_length_c   16.56312744
_cell_angle_alpha   90.03025488
_cell_angle_beta   90.00411156
_cell_angle_gamma   89.95729149
_symmetry_Int_Tables_number   1
_chemical_formula_structural   ZrScNbPdRh
_chemical_formula_sum   'Zr50 Sc50 Nb50 Pd50 Rh50'
_cell_volume   4545.81166461
_cell_formula_units_Z   50
loop_
 _symmetry_equiv_pos_site_id
 _symmetry_equiv_pos_as_xyz
  1  'x, y, z'
loop_
 _atom_site_type_symbol
 _atom_site_label
 _atom_site_symmetry_multiplicity
 _atom_site_fract_x
 _atom_site_fract_y
 _atom_site_fract_z
 _atom_site_occupancy
  Zr  Zr0  1  0.89009058  0.70677406  0.49628541  1
  Zr  Zr1  1  0.68414867  0.70810725  0.69702003  1
  Zr  Zr2  1  0.29646801  0.10332990  0.71185352  1
  Zr  Zr3  1  0.69603167  0.10369830  0.50651412  1
  Zr  Zr4  1  0.30235407  0.69780401  0.70013382  1
  Zr  Zr5  1  0.90571488  0.10389190  0.90006098  1
  Zr  Zr6  1  0.89883025  0.89531164  0.91120929  1
  Zr  Zr7  1  0.09882860  0.50518734  0.89636860  1
  Zr  Zr8  1  0.49589558  0.30227875  0.49360496  1
  Zr  Zr9  1  0.90449130  0.09534916  0.49320699  1
  Zr  Zr10  1  0.09674530  0.10010431  0.69787433  1
  Zr  Zr11  1  0.70333771  0.48493640  0.70237978  1
  Zr  Zr12  1  0.09480932  0.29989682  0.30050255  1
  Zr  Zr13  1  0.09235952  0.09846340  0.29652411  1
  Zr  Zr14  1  0.30153695  0.09829317  0.30171212  1
  Zr  Zr15  1  0.30606933  0.69396031  0.09174774  1
  Zr  Zr16  1  0.49849429  0.90307930  0.50037180  1
  Zr  Zr17  1  0.48937928  0.30545085  0.09542815  1
  Zr  Zr18  1  0.29111549  0.31215923  0.50510994  1
  Zr  Zr19  1  0.51576173  0.48709834  0.90767787  1
  Zr  Zr20  1  0.70035835  0.10001083  0.69810014  1
  Zr  Zr21  1  0.69496403  0.89851698  0.30200837  1
  Zr  Zr22  1  0.30336789  0.70325427  0.50112050  1
  Zr  Zr23  1  0.51165617  0.69322610  0.30009135  1
  Zr  Zr24  1  0.51690723  0.10291170  0.69930697  1
  Zr  Zr25  1  0.71054606  0.88678232  0.49018085  1
  Zr  Zr26  1  0.10315111  0.30360632  0.10033008  1
  Zr  Zr27  1  0.90910873  0.89782550  0.09982746  1
  Zr  Zr28  1  0.89735339  0.09755446  0.69536491  1
  Zr  Zr29  1  0.49656227  0.50427472  0.49981001  1
  Zr  Zr30  1  0.29807123  0.90866461  0.89665808  1
  Zr  Zr31  1  0.70218029  0.11278092  0.30036522  1
  Zr  Zr32  1  0.31495962  0.49731094  0.10543072  1
  Zr  Zr33  1  0.69771202  0.70102564  0.10661737  1
  Zr  Zr34  1  0.70643019  0.49805199  0.89997096  1
  Zr  Zr35  1  0.09892393  0.70028101  0.50329406  1
  Zr  Zr36  1  0.70296747  0.69950016  0.31289649  1
  Zr  Zr37  1  0.68969990  0.09279761  0.89478338  1
  Zr  Zr38  1  0.30484550  0.90080425  0.49377209  1
  Zr  Zr39  1  0.49791109  0.50071912  0.69475121  1
  Zr  Zr40  1  0.09963461  0.70335394  0.30090841  1
  Zr  Zr41  1  0.90216476  0.89901031  0.68913886  1
  Zr  Zr42  1  0.29721765  0.69956113  0.89718156  1
  Zr  Zr43  1  0.69058428  0.29131875  0.69533162  1
  Zr  Zr44  1  0.09922466  0.89826663  0.28838169  1
  Zr  Zr45  1  0.50832160  0.89171076  0.70148522  1
  Zr  Zr46  1  0.09344415  0.10574853  0.50329877  1
  Zr  Zr47  1  0.30268809  0.30328150  0.70878536  1
  Zr  Zr48  1  0.90495915  0.49837955  0.10422348  1
  Zr  Zr49  1  0.70241453  0.49974829  0.30250345  1
  Sc  Sc50  1  0.09246760  0.70827244  0.11103268  1
  Sc  Sc51  1  0.30650037  0.09996614  0.10420593  1
  Sc  Sc52  1  0.69686602  0.90869632  0.70098664  1
  Sc  Sc53  1  0.69182131  0.10075619  0.11208248  1
  Sc  Sc54  1  0.50136792  0.90288510  0.30866637  1
  Sc  Sc55  1  0.90348099  0.68603797  0.29757542  1
  Sc  Sc56  1  0.10223513  0.48389671  0.50176592  1
  Sc  Sc57  1  0.70287587  0.70112940  0.90637274  1
  Sc  Sc58  1  0.30260002  0.49702752  0.69408318  1
  Sc  Sc59  1  0.10398127  0.30696090  0.90055850  1
  Sc  Sc60  1  0.10134924  0.10132969  0.90257928  1
  Sc  Sc61  1  0.49285494  0.09954865  0.89798999  1
  Sc  Sc62  1  0.91921765  0.69728894  0.69146571  1
  Sc  Sc63  1  0.10794901  0.69539993  0.89059589  1
  Sc  Sc64  1  0.89470126  0.49978972  0.90049602  1
  Sc  Sc65  1  0.89899670  0.30400350  0.10469207  1
  Sc  Sc66  1  0.08920952  0.49912082  0.29651989  1
  Sc  Sc67  1  0.89860839  0.70123167  0.90899147  1
  Sc  Sc68  1  0.09608282  0.09698000  0.10327129  1
  Sc  Sc69  1  0.50067692  0.90824578  0.90171168  1
  Sc  Sc70  1  0.10710187  0.89674384  0.69632327  1
  Sc  Sc71  1  0.69234445  0.90979298  0.10423792  1
  Sc  Sc72  1  0.10407120  0.91030657  0.50062318  1
  Sc  Sc73  1  0.69543282  0.49655297  0.49674375  1
  Sc  Sc74  1  0.10875253  0.49664360  0.09276903  1
  Sc  Sc75  1  0.89739029  0.91644314  0.30458646  1
  Sc  Sc76  1  0.31298566  0.30057272  0.30435036  1
  Sc  Sc77  1  0.89804958  0.49169443  0.49655038  1
  Sc  Sc78  1  0.49771221  0.69939672  0.90085491  1
  Sc  Sc79  1  0.28876245  0.49902070  0.90464949  1
  Sc  Sc80  1  0.70050866  0.49689782  0.09373070  1
  Sc  Sc81  1  0.49843108  0.90957952  0.09820286  1
  Sc  Sc82  1  0.49706603  0.09828637  0.09991544  1
  Sc  Sc83  1  0.29959278  0.08974431  0.50502472  1
  Sc  Sc84  1  0.50034064  0.09728648  0.49838854  1
  Sc  Sc85  1  0.29734916  0.89951296  0.30586500  1
  Sc  Sc86  1  0.30304767  0.90704681  0.09998543  1
  Sc  Sc87  1  0.29777437  0.90442525  0.69423469  1
  Sc  Sc88  1  0.89662492  0.49336745  0.29759476  1
  Sc  Sc89  1  0.10705513  0.69613622  0.69790541  1
  Sc  Sc90  1  0.69574732  0.31578738  0.89673294  1
  Sc  Sc91  1  0.30548165  0.49347628  0.49767489  1
  Sc  Sc92  1  0.49048087  0.49969678  0.29933355  1
  Sc  Sc93  1  0.10438863  0.30124440  0.68704506  1
  Sc  Sc94  1  0.49979350  0.68357070  0.10231784  1
  Sc  Sc95  1  0.89168841  0.30763945  0.69381791  1
  Sc  Sc96  1  0.70343012  0.30057433  0.48947217  1
  Sc  Sc97  1  0.90154601  0.30381169  0.90422580  1
  Sc  Sc98  1  0.30055578  0.70740440  0.30394399  1
  Sc  Sc99  1  0.90254933  0.70536585  0.10210967  1
  Nb  Nb100  1  0.49819550  0.69540873  0.69867666  1
  Nb  Nb101  1  0.08454088  0.50514624  0.69712330  1
  Nb  Nb102  1  0.50310685  0.49639123  0.10758645  1
  Nb  Nb103  1  0.69706753  0.29273508  0.10464205  1
  Nb  Nb104  1  0.30200219  0.30264184  0.09605436  1
  Nb  Nb105  1  0.69839260  0.89523833  0.90172423  1
  Nb  Nb106  1  0.90057814  0.10713788  0.29506408  1
  Nb  Nb107  1  0.30190502  0.10522953  0.90112297  1
  Nb  Nb108  1  0.09569617  0.90148350  0.90973575  1
  Nb  Nb109  1  0.49630020  0.29529418  0.89627383  1
  Nb  Nb110  1  0.49703132  0.29817032  0.70547036  1
  Nb  Nb111  1  0.30924793  0.29082330  0.90109779  1
  Nb  Nb112  1  0.49857818  0.11485486  0.30563441  1
  Nb  Nb113  1  0.50956709  0.69334856  0.51084699  1
  Nb  Nb114  1  0.09328489  0.89735593  0.09391646  1
  Nb  Nb115  1  0.90653823  0.89809714  0.49873979  1
  Nb  Nb116  1  0.89550181  0.09768722  0.10065449  1
  Nb  Nb117  1  0.88876831  0.29339304  0.30572929  1
  Nb  Nb118  1  0.29644921  0.49892634  0.30268790  1
  Nb  Nb119  1  0.69916727  0.29567739  0.29366867  1
  Nb  Nb120  1  0.69792318  0.69182120  0.49669547  1
  Nb  Nb121  1  0.91009154  0.29614532  0.48969646  1
  Nb  Nb122  1  0.09844504  0.29837047  0.49611793  1
  Nb  Nb123  1  0.89920577  0.50219696  0.69862725  1
  Nb  Nb124  1  0.50723675  0.29198118  0.30108495  1
  Nb  Nb125  1  0.19494610  0.20347384  0.40238748  1
  Nb  Nb126  1  0.79478435  0.60096932  0.60347069  1
  Nb  Nb127  1  0.59831118  0.39202479  0.20172790  1
  Nb  Nb128  1  -0.00060343  -0.00835932  0.80296647  1
  Nb  Nb129  1  0.40122708  0.20374866  0.60764369  1
  Nb  Nb130  1  -0.00220874  0.80561735  0.40230754  1
  Nb  Nb131  1  0.21094325  0.20400588  0.00029538  1
  Nb  Nb132  1  0.80361083  0.79895720  0.79700601  1
  Nb  Nb133  1  0.59913261  0.20686907  -0.00103061  1
  Nb  Nb134  1  0.19563624  0.80659290  -0.00019741  1
  Nb  Nb135  1  0.39952793  0.79728260  0.79719653  1
  Nb  Nb136  1  0.19940618  0.59659622  0.39671207  1
  Nb  Nb137  1  0.79712846  0.80354052  0.20417463  1
  Nb  Nb138  1  0.20589081  0.59627800  0.20392239  1
  Nb  Nb139  1  0.60234277  0.59862074  0.79611396  1
  Nb  Nb140  1  0.79936694  0.00522215  0.00114863  1
  Nb  Nb141  1  0.79888985  0.60569025  0.78895814  1
  Nb  Nb142  1  0.20901250  0.40028489  0.20139684  1
  Nb  Nb143  1  -0.00071250  0.40832766  0.79089868  1
  Nb  Nb144  1  0.00066973  0.80502155  0.80497129  1
  Nb  Nb145  1  0.59947313  0.80238921  0.00207481  1
  Nb  Nb146  1  0.00386281  0.59991637  0.00037615  1
  Nb  Nb147  1  0.79607341  0.19886708  0.80385506  1
  Nb  Nb148  1  0.40509451  0.79681849  0.19844096  1
  Nb  Nb149  1  0.79196161  0.19668389  0.00069644  1
  Pd  Pd150  1  0.40662707  0.58732695  -0.01145341  1
  Pd  Pd151  1  0.60154186  0.00779726  0.39899491  1
  Pd  Pd152  1  0.80693171  0.20584997  0.59567545  1
  Pd  Pd153  1  0.79765525  0.60345491  0.19780837  1
  Pd  Pd154  1  -0.00771352  0.20434845  0.19428879  1
  Pd  Pd155  1  0.80634250  -0.00290560  0.80726980  1
  Pd  Pd156  1  0.38786525  0.19722722  0.41494131  1
  Pd  Pd157  1  0.20097951  0.80477999  0.59553739  1
  Pd  Pd158  1  0.19332274  0.40401311  0.79302663  1
  Pd  Pd159  1  0.40424528  0.00818623  0.60977273  1
  Pd  Pd160  1  0.40063897  0.79927690  0.60457051  1
  Pd  Pd161  1  0.39596258  0.60513967  0.39916940  1
  Pd  Pd162  1  -0.00216884  0.40607889  -0.00658677  1
  Pd  Pd163  1  0.59549270  0.40307744  0.39130276  1
  Pd  Pd164  1  0.00395094  0.20068843  0.00712993  1
  Pd  Pd165  1  0.59433529  0.80374162  0.19275084  1
  Pd  Pd166  1  0.19083809  0.20522451  0.80826285  1
  Pd  Pd167  1  0.19942648  -0.00170196  0.19386057  1
  Pd  Pd168  1  0.20223675  0.58944603  0.78691999  1
  Pd  Pd169  1  0.79657148  0.00775025  0.40097605  1
  Pd  Pd170  1  0.80106905  0.39866106  0.58791348  1
  Pd  Pd171  1  0.40611961  0.59526864  0.80698973  1
  Pd  Pd172  1  0.40084014  0.40911004  0.80868850  1
  Pd  Pd173  1  0.59541552  0.39491977  0.59579878  1
  Pd  Pd174  1  0.40717250  -0.00236685  0.79319135  1
  Pd  Pd175  1  -0.00425785  0.40075416  0.39521442  1
  Pd  Pd176  1  -0.00453984  0.21208566  0.79224642  1
  Pd  Pd177  1  0.39549869  0.40613251  -0.01075347  1
  Pd  Pd178  1  0.20201331  0.00618277  0.00703151  1
  Pd  Pd179  1  -0.00894188  0.20823172  0.60469502  1
  Pd  Pd180  1  0.58879803  0.00898354  0.21288537  1
  Pd  Pd181  1  0.18998967  -0.00108874  0.80141667  1
  Pd  Pd182  1  0.80698548  0.60004222  0.00389922  1
  Pd  Pd183  1  0.20742349  0.20653451  0.20124581  1
  Pd  Pd184  1  0.20904711  0.19654737  0.59408240  1
  Pd  Pd185  1  0.41140789  0.79259310  0.39549203  1
  Pd  Pd186  1  0.20381989  0.58895222  0.59261952  1
  Pd  Pd187  1  0.19365241  0.00594371  0.39830859  1
  Pd  Pd188  1  -0.00735863  0.59260517  0.58420119  1
  Pd  Pd189  1  0.79715132  0.79346422  0.60838991  1
  Pd  Pd190  1  0.60042734  0.60527654  -0.00341164  1
  Pd  Pd191  1  0.60249621  0.80619932  0.58944550  1
  Pd  Pd192  1  0.40309448  0.80779660  -0.00011060  1
  Pd  Pd193  1  0.40071587  0.20111067  0.19845634  1
  Pd  Pd194  1  0.21320462  0.79766582  0.18881760  1
  Pd  Pd195  1  0.80032750  -0.00222215  0.19659718  1
  Pd  Pd196  1  0.40503452  -0.00576728  0.21017713  1
  Pd  Pd197  1  0.79405545  0.39759999  0.19766967  1
  Pd  Pd198  1  0.79588829  -0.00529083  0.58961159  1
  Pd  Pd199  1  0.00260173  0.59940530  0.40682441  1
  Rh  Rh200  1  0.59005429  0.20860832  0.58908565  1
  Rh  Rh201  1  0.40454476  0.39174584  0.60196857  1
  Rh  Rh202  1  0.80090322  0.39451816  0.39802432  1
  Rh  Rh203  1  0.59677731  0.79395488  0.81274252  1
  Rh  Rh204  1  0.60436806  0.20764371  0.81169989  1
  Rh  Rh205  1  -0.00273092  0.00949512  0.00093570  1
  Rh  Rh206  1  0.01079279  0.80526472  0.59650952  1
  Rh  Rh207  1  0.80766849  0.20126573  0.19543278  1
  Rh  Rh208  1  -0.00283002  0.39525738  0.60120643  1
  Rh  Rh209  1  -0.01556573  0.80674313  0.21550699  1
  Rh  Rh210  1  0.20255116  0.80776482  0.80730269  1
  Rh  Rh211  1  0.18741630  0.61565717  0.01320883  1
  Rh  Rh212  1  0.79894600  0.39226276  0.00644379  1
  Rh  Rh213  1  0.60631603  -0.00960321  0.59147405  1
  Rh  Rh214  1  0.00374690  -0.00192379  0.39653039  1
  Rh  Rh215  1  0.60310159  0.39121656  0.01266574  1
  Rh  Rh216  1  0.81251147  0.80068816  0.38697064  1
  Rh  Rh217  1  0.40328884  0.39539190  0.20896383  1
  Rh  Rh218  1  0.39558840  0.60152700  0.59472374  1
  Rh  Rh219  1  0.59179528  0.39961262  0.79223613  1
  Rh  Rh220  1  -0.00895876  0.60243814  0.80873932  1
  Rh  Rh221  1  0.60350223  0.19797700  0.40395544  1
  Rh  Rh222  1  0.40444189  0.40001046  0.39545945  1
  Rh  Rh223  1  0.78507487  0.81085661  0.01282172  1
  Rh  Rh224  1  0.60274324  0.00190879  -0.00157304  1
  Rh  Rh225  1  0.80127641  0.59108065  0.40865466  1
  Rh  Rh226  1  0.20042681  0.00454232  0.60222937  1
  Rh  Rh227  1  0.01436908  0.78323372  -0.00966311  1
  Rh  Rh228  1  0.40112457  0.19472987  -0.00002794  1
  Rh  Rh229  1  0.39622928  0.00666630  -0.00122562  1
  Rh  Rh230  1  0.58784107  0.20317708  0.19155494  1
  Rh  Rh231  1  0.40603595  0.19405840  0.79509100  1
  Rh  Rh232  1  0.20843100  0.39127609  0.00288195  1
  Rh  Rh233  1  0.18993793  0.79731588  0.40715434  1
  Rh  Rh234  1  0.39548213  0.60779675  0.20877540  1
  Rh  Rh235  1  0.00768033  0.59170896  0.18941621  1
  Rh  Rh236  1  0.19683066  0.39790499  0.39078967  1
  Rh  Rh237  1  0.81140028  0.39643957  0.80333867  1
  Rh  Rh238  1  0.60657659  0.59242905  0.60461708  1
  Rh  Rh239  1  0.59487193  -0.00517483  0.80075822  1
  Rh  Rh240  1  0.40363527  0.00606215  0.39462649  1
  Rh  Rh241  1  0.19607474  0.40610780  0.60781031  1
  Rh  Rh242  1  0.00425712  -0.00292122  0.60393154  1
  Rh  Rh243  1  0.80126633  0.19760872  0.40450834  1
  Rh  Rh244  1  0.00359915  0.39658184  0.20217316  1
  Rh  Rh245  1  0.00042138  0.19895392  0.39428861  1
  Rh  Rh246  1  0.60522965  0.58381134  0.20278433  1
  Rh  Rh247  1  0.59256156  0.79422978  0.40971107  1
  Rh  Rh248  1  0.59779697  0.59379650  0.40157882  1
  Rh  Rh249  1  -0.00291762  0.00113342  0.19681204  1
