# generated using pymatgen
data_ZrScNbPdRh
_symmetry_space_group_name_H-M   'P 1'
_cell_length_a   16.56303918
_cell_length_b   16.56001512
_cell_length_c   16.56298996
_cell_angle_alpha   90.02621948
_cell_angle_beta   90.02659122
_cell_angle_gamma   90.00896549
_symmetry_Int_Tables_number   1
_chemical_formula_structural   ZrScNbPdRh
_chemical_formula_sum   'Zr50 Sc50 Nb50 Pd50 Rh50'
_cell_volume   4542.96508742
_cell_formula_units_Z   50
loop_
 _symmetry_equiv_pos_site_id
 _symmetry_equiv_pos_as_xyz
  1  'x, y, z'
loop_
 _atom_site_type_symbol
 _atom_site_label
 _atom_site_symmetry_multiplicity
 _atom_site_fract_x
 _atom_site_fract_y
 _atom_site_fract_z
 _atom_site_occupancy
  Zr  Zr0  1  0.69717350  0.88903163  0.10298340  1
  Zr  Zr1  1  0.90250512  0.49657827  0.70152483  1
  Zr  Zr2  1  0.50262749  0.30382486  0.48960416  1
  Zr  Zr3  1  0.89723963  0.49693093  0.10721520  1
  Zr  Zr4  1  0.49602713  0.70601546  0.68549794  1
  Zr  Zr5  1  0.09721099  0.49921801  0.50120084  1
  Zr  Zr6  1  0.30139828  0.08925595  0.10317233  1
  Zr  Zr7  1  0.90476322  0.89942037  0.50410424  1
  Zr  Zr8  1  0.89866577  0.09606102  0.90519963  1
  Zr  Zr9  1  0.69865541  0.49602049  0.29111278  1
  Zr  Zr10  1  0.49881435  0.10217373  0.29106765  1
  Zr  Zr11  1  0.50641822  0.90034470  0.50280680  1
  Zr  Zr12  1  0.29654161  0.29902873  0.69464943  1
  Zr  Zr13  1  0.10604109  0.90447532  0.10138079  1
  Zr  Zr14  1  0.49440382  0.89963958  0.70086145  1
  Zr  Zr15  1  0.29988815  0.30024599  0.49402235  1
  Zr  Zr16  1  0.90793989  0.30203411  0.89665816  1
  Zr  Zr17  1  0.10608548  0.70133773  0.10153793  1
  Zr  Zr18  1  0.50502214  0.29469378  0.09858232  1
  Zr  Zr19  1  0.50650165  0.90228002  0.29282430  1
  Zr  Zr20  1  0.90352474  0.11021468  0.29263921  1
  Zr  Zr21  1  0.09405759  0.28890877  0.30395608  1
  Zr  Zr22  1  0.30383087  0.29681854  0.09006137  1
  Zr  Zr23  1  0.50312907  0.50315333  0.10441707  1
  Zr  Zr24  1  0.90147111  0.90438010  0.70026369  1
  Zr  Zr25  1  0.10302945  0.70269433  0.29429702  1
  Zr  Zr26  1  0.30589151  0.49425559  0.49978521  1
  Zr  Zr27  1  0.30464812  0.50299758  0.29572499  1
  Zr  Zr28  1  0.50375480  0.49682219  0.29991519  1
  Zr  Zr29  1  0.69490020  0.29734735  0.30327661  1
  Zr  Zr30  1  0.69436634  0.29425397  0.49999845  1
  Zr  Zr31  1  0.91034411  0.69437042  0.30000201  1
  Zr  Zr32  1  0.69164016  0.50056606  0.50146185  1
  Zr  Zr33  1  0.30368747  0.70767446  0.70952177  1
  Zr  Zr34  1  0.09351469  0.90457993  0.50211664  1
  Zr  Zr35  1  0.10724052  0.29718298  0.89951456  1
  Zr  Zr36  1  0.70220332  0.09512676  0.89878543  1
  Zr  Zr37  1  0.31418015  0.69544672  0.50709148  1
  Zr  Zr38  1  0.90243226  0.09441246  0.10276363  1
  Zr  Zr39  1  0.50064393  0.69299228  0.28744133  1
  Zr  Zr40  1  0.90183994  0.50262682  0.50441135  1
  Zr  Zr41  1  0.89209640  0.29327662  0.49705166  1
  Zr  Zr42  1  0.70295090  0.90582300  0.49303566  1
  Zr  Zr43  1  0.69381199  0.29197100  0.69673522  1
  Zr  Zr44  1  0.69778875  0.10740296  0.50169903  1
  Zr  Zr45  1  0.49621323  0.50901469  0.49606983  1
  Zr  Zr46  1  0.69480498  0.89741452  0.90313865  1
  Zr  Zr47  1  0.69688822  0.50030368  0.70540461  1
  Zr  Zr48  1  0.30426213  0.10272731  0.69653642  1
  Zr  Zr49  1  0.09102276  0.51118682  0.29212798  1
  Sc  Sc50  1  0.70432959  0.10497476  0.09984167  1
  Sc  Sc51  1  0.30634931  0.50440321  0.90298907  1
  Sc  Sc52  1  0.30222677  0.50630649  0.09100194  1
  Sc  Sc53  1  0.09907614  0.29587221  0.50671885  1
  Sc  Sc54  1  0.09057723  0.50068520  0.69813655  1
  Sc  Sc55  1  0.29971311  0.09775854  0.30164534  1
  Sc  Sc56  1  0.29842555  0.10227642  0.49558225  1
  Sc  Sc57  1  0.30440101  0.30451943  0.90624006  1
  Sc  Sc58  1  0.29957796  0.70587320  0.28776638  1
  Sc  Sc59  1  0.29823430  0.10596623  0.91121929  1
  Sc  Sc60  1  0.09723957  0.11850441  0.70234110  1
  Sc  Sc61  1  0.50234617  0.89790210  0.90698897  1
  Sc  Sc62  1  0.49982779  0.29294643  0.70669493  1
  Sc  Sc63  1  0.49824356  0.29922765  0.90561483  1
  Sc  Sc64  1  0.29670893  0.90429916  0.29255401  1
  Sc  Sc65  1  0.68898883  0.69179169  0.69945829  1
  Sc  Sc66  1  0.89481078  0.29653934  0.11138864  1
  Sc  Sc67  1  0.69735423  0.09644817  0.29857024  1
  Sc  Sc68  1  0.09718161  0.88858179  0.90578891  1
  Sc  Sc69  1  0.10254003  0.09272905  0.29985450  1
  Sc  Sc70  1  0.89566584  0.69686032  0.90111350  1
  Sc  Sc71  1  0.90670809  0.70161882  0.69948628  1
  Sc  Sc72  1  0.09690581  0.70219663  0.71572805  1
  Sc  Sc73  1  0.89914589  0.90316605  0.90188460  1
  Sc  Sc74  1  0.49990791  0.09613912  0.49856924  1
  Sc  Sc75  1  0.69518054  0.10064484  0.70052222  1
  Sc  Sc76  1  0.29728360  0.90809008  0.49059851  1
  Sc  Sc77  1  0.10647504  0.89704558  0.30610789  1
  Sc  Sc78  1  0.70430372  0.70582307  0.28702546  1
  Sc  Sc79  1  0.90304961  0.90202216  0.10057857  1
  Sc  Sc80  1  0.68941422  0.90639339  0.70333930  1
  Sc  Sc81  1  0.08967383  0.88953412  0.70559461  1
  Sc  Sc82  1  0.08971034  0.71042838  0.48884277  1
  Sc  Sc83  1  0.89140860  0.89899622  0.29768774  1
  Sc  Sc84  1  0.69211998  0.29407654  0.91300888  1
  Sc  Sc85  1  0.89906213  0.09443427  0.50869137  1
  Sc  Sc86  1  0.09465066  0.09969878  0.49195177  1
  Sc  Sc87  1  0.89533622  0.70325927  0.10232348  1
  Sc  Sc88  1  0.49657021  0.89911626  0.09848950  1
  Sc  Sc89  1  0.70452597  0.49462108  0.09911958  1
  Sc  Sc90  1  0.49701215  0.70632781  0.09941473  1
  Sc  Sc91  1  0.50578776  0.10514693  0.90501530  1
  Sc  Sc92  1  0.90170315  0.70437162  0.49751480  1
  Sc  Sc93  1  0.50301320  0.49643949  0.70868470  1
  Sc  Sc94  1  0.29698448  0.70165450  0.90029844  1
  Sc  Sc95  1  0.70247297  0.90408996  0.29508622  1
  Sc  Sc96  1  0.11078649  0.50525335  0.09925340  1
  Sc  Sc97  1  0.91437009  0.29877626  0.70021733  1
  Sc  Sc98  1  0.49599761  0.70622396  0.89659073  1
  Sc  Sc99  1  0.30725744  0.50140632  0.69913899  1
  Nb  Nb100  1  0.30423401  0.89376625  0.09466253  1
  Nb  Nb101  1  0.30236265  0.70433007  0.10134239  1
  Nb  Nb102  1  0.50624091  0.70089006  0.49897788  1
  Nb  Nb103  1  0.10274513  0.09827467  0.09574483  1
  Nb  Nb104  1  0.09990890  0.10072089  0.90380215  1
  Nb  Nb105  1  0.49350703  0.10456897  0.10458880  1
  Nb  Nb106  1  0.50647965  0.49759208  0.90520786  1
  Nb  Nb107  1  0.09848916  0.30683228  0.70733703  1
  Nb  Nb108  1  0.30265943  0.89721694  0.89499077  1
  Nb  Nb109  1  0.89499439  0.49732288  0.90614704  1
  Nb  Nb110  1  0.70324352  0.69780368  0.90401437  1
  Nb  Nb111  1  0.09802586  0.69167817  0.90192987  1
  Nb  Nb112  1  0.29224888  0.89867498  0.70828397  1
  Nb  Nb113  1  0.10278337  0.50173894  0.90124892  1
  Nb  Nb114  1  0.89759922  0.30622945  0.30043927  1
  Nb  Nb115  1  0.69382957  0.69749217  0.50442894  1
  Nb  Nb116  1  0.69670348  0.29770440  0.10828246  1
  Nb  Nb117  1  0.89708160  0.49679806  0.29895580  1
  Nb  Nb118  1  0.30052141  0.29586762  0.29938299  1
  Nb  Nb119  1  0.10688797  0.30288582  0.09529713  1
  Nb  Nb120  1  0.49722411  0.29756244  0.29476412  1
  Nb  Nb121  1  0.49645650  0.10120488  0.70328788  1
  Nb  Nb122  1  0.89729003  0.09949838  0.70624015  1
  Nb  Nb123  1  0.69942807  0.70071914  0.09048906  1
  Nb  Nb124  1  0.70743443  0.50798060  0.89889723  1
  Nb  Nb125  1  0.79335121  0.79868797  0.79789229  1
  Nb  Nb126  1  0.40946487  0.79810960  0.39836864  1
  Nb  Nb127  1  0.59830411  0.79452813  0.40174795  1
  Nb  Nb128  1  0.39890012  0.39192423  0.20002369  1
  Nb  Nb129  1  0.19836135  -0.00014921  0.80161235  1
  Nb  Nb130  1  0.20134347  0.80080657  0.60220201  1
  Nb  Nb131  1  -0.00462412  0.39962963  0.39390582  1
  Nb  Nb132  1  0.20353635  0.39290449  0.20244197  1
  Nb  Nb133  1  0.19898239  0.20263352  0.19372927  1
  Nb  Nb134  1  0.00774342  0.20107731  0.00446550  1
  Nb  Nb135  1  0.20127654  0.59907967  0.40289681  1
  Nb  Nb136  1  0.79701959  0.39777776  0.60532880  1
  Nb  Nb137  1  0.00440360  0.40147232  0.00089622  1
  Nb  Nb138  1  0.19626695  -0.00401595  0.61026462  1
  Nb  Nb139  1  0.60659469  0.59985914  -0.00754769  1
  Nb  Nb140  1  0.00511344  0.00753600  0.80360638  1
  Nb  Nb141  1  0.19531815  0.40052014  0.79942428  1
  Nb  Nb142  1  0.00031035  0.59401686  -0.00283823  1
  Nb  Nb143  1  0.19575251  0.40190641  0.39210015  1
  Nb  Nb144  1  0.39407226  -0.00047689  0.80040586  1
  Nb  Nb145  1  0.20100523  0.60836288  0.59747719  1
  Nb  Nb146  1  0.79716458  0.39887853  0.80313034  1
  Nb  Nb147  1  0.80304037  0.20205564  0.80060822  1
  Nb  Nb148  1  0.79306845  0.80011169  0.60173930  1
  Nb  Nb149  1  0.79902163  0.59781030  0.39813763  1
  Pd  Pd150  1  0.40566593  0.20458114  0.59207748  1
  Pd  Pd151  1  0.59011859  0.60624914  0.80473784  1
  Pd  Pd152  1  0.40876374  0.60733264  -0.00199185  1
  Pd  Pd153  1  0.79323507  -0.00216767  0.60596931  1
  Pd  Pd154  1  0.61015882  0.60837878  0.38983358  1
  Pd  Pd155  1  0.60065649  0.00623999  0.60204232  1
  Pd  Pd156  1  0.39205808  -0.00489300  0.60263801  1
  Pd  Pd157  1  0.19669209  0.40777110  0.60529168  1
  Pd  Pd158  1  0.00708989  0.20033549  0.19171509  1
  Pd  Pd159  1  0.40450301  0.00091093  -0.00638549  1
  Pd  Pd160  1  0.21253598  0.79211938  0.40636433  1
  Pd  Pd161  1  0.80614239  0.20663953  0.00000594  1
  Pd  Pd162  1  0.39474758  0.39899272  0.80356158  1
  Pd  Pd163  1  0.20389293  0.79754727  -0.00325291  1
  Pd  Pd164  1  0.60507177  0.39291286  0.81145833  1
  Pd  Pd165  1  0.79865088  0.60409486  0.20000110  1
  Pd  Pd166  1  0.39069636  0.81512383  0.59255422  1
  Pd  Pd167  1  0.80637060  0.60432575  0.79544103  1
  Pd  Pd168  1  0.79955866  0.60360874  0.59753250  1
  Pd  Pd169  1  0.60516871  0.40521999  -0.00003222  1
  Pd  Pd170  1  0.80635189  0.80340806  -0.00514179  1
  Pd  Pd171  1  0.80078901  0.39131383  0.00036175  1
  Pd  Pd172  1  0.59497566  0.40084593  0.60127267  1
  Pd  Pd173  1  0.20865124  0.20168521  0.80262531  1
  Pd  Pd174  1  0.00764097  0.39867618  0.19712549  1
  Pd  Pd175  1  0.41121449  0.39590841  0.60576727  1
  Pd  Pd176  1  -0.00080745  0.80710168  0.20170392  1
  Pd  Pd177  1  0.40235820  -0.00428316  0.39350911  1
  Pd  Pd178  1  0.19566709  0.19427419  0.59437108  1
  Pd  Pd179  1  0.80613263  0.00993368  0.39561728  1
  Pd  Pd180  1  0.40330887  0.19477556  0.39952151  1
  Pd  Pd181  1  0.79944835  0.40647671  0.40603344  1
  Pd  Pd182  1  0.40718823  0.60085712  0.80167532  1
  Pd  Pd183  1  0.60357864  0.00505898  0.18868561  1
  Pd  Pd184  1  -0.00469347  0.79089516  -0.00190605  1
  Pd  Pd185  1  0.79411841  0.79024277  0.40332337  1
  Pd  Pd186  1  0.00490796  -0.00665396  0.20622572  1
  Pd  Pd187  1  0.79446781  -0.00863037  0.00876346  1
  Pd  Pd188  1  0.20100461  -0.00706964  -0.00771069  1
  Pd  Pd189  1  0.59818405  0.00433755  0.01037072  1
  Pd  Pd190  1  0.01027612  0.61381421  0.59993904  1
  Pd  Pd191  1  0.39723840  0.19628621  0.80882873  1
  Pd  Pd192  1  0.39604514  0.60935487  0.39101803  1
  Pd  Pd193  1  -0.00752688  0.59698943  0.80749591  1
  Pd  Pd194  1  0.58821536  0.00353544  0.80270106  1
  Pd  Pd195  1  0.80083631  0.19176504  0.39378100  1
  Pd  Pd196  1  -0.00776508  -0.00131577  0.39056715  1
  Pd  Pd197  1  -0.00140897  0.19845717  0.59784485  1
  Pd  Pd198  1  0.20148472  0.59204713  0.79377308  1
  Pd  Pd199  1  0.60155133  0.79472726  0.79960614  1
  Rh  Rh200  1  0.60341741  0.19609945  0.19885607  1
  Rh  Rh201  1  -0.00390566  0.60312560  0.18637128  1
  Rh  Rh202  1  0.40392317  0.59424457  0.60793262  1
  Rh  Rh203  1  0.39763699  0.80675555  0.20072905  1
  Rh  Rh204  1  0.40747829  0.40416899  0.00547595  1
  Rh  Rh205  1  0.59682012  0.39386054  0.19840522  1
  Rh  Rh206  1  0.19984110  0.20101709  0.39559956  1
  Rh  Rh207  1  0.59960030  0.19294220  0.00700258  1
  Rh  Rh208  1  0.80630429  0.20344269  0.61220946  1
  Rh  Rh209  1  -0.00052720  0.79592173  0.60023411  1
  Rh  Rh210  1  0.79468395  0.20276118  0.20479736  1
  Rh  Rh211  1  0.60867484  0.60444313  0.18569640  1
  Rh  Rh212  1  0.00336527  0.41032050  0.80822990  1
  Rh  Rh213  1  0.79888860  0.00043892  0.19705561  1
  Rh  Rh214  1  0.00498502  0.00357882  -0.00260261  1
  Rh  Rh215  1  0.39565274  0.79851868  -0.00083147  1
  Rh  Rh216  1  -0.00634306  0.38923154  0.59054377  1
  Rh  Rh217  1  0.58664025  0.19362693  0.60038352  1
  Rh  Rh218  1  0.59266458  0.19359348  0.39473123  1
  Rh  Rh219  1  0.20051048  0.00079177  0.19889163  1
  Rh  Rh220  1  0.60028117  0.79704652  0.19998035  1
  Rh  Rh221  1  0.19267928  0.79996089  0.80486748  1
  Rh  Rh222  1  0.01109275  0.01001630  0.61515374  1
  Rh  Rh223  1  0.39842507  -0.00526939  0.19763558  1
  Rh  Rh224  1  0.39607604  0.59632673  0.19141026  1
  Rh  Rh225  1  0.39243366  0.20151784  0.19675133  1
  Rh  Rh226  1  0.60042263  -0.00127005  0.39736632  1
  Rh  Rh227  1  0.39994567  0.39581873  0.39076590  1
  Rh  Rh228  1  0.20786227  0.59901710  0.19963629  1
  Rh  Rh229  1  0.59058241  0.59323375  0.60499493  1
  Rh  Rh230  1  0.40512362  0.80628131  0.80461614  1
  Rh  Rh231  1  0.80331543  -0.00052507  0.79709892  1
  Rh  Rh232  1  -0.00469616  0.19149961  0.80724483  1
  Rh  Rh233  1  0.19911939  0.60682144  -0.00044723  1
  Rh  Rh234  1  0.80159247  0.79916061  0.19530242  1
  Rh  Rh235  1  0.19897271  0.19587551  0.00625610  1
  Rh  Rh236  1  -0.00354163  0.59426642  0.40121986  1
  Rh  Rh237  1  0.80103785  0.60017586  0.00683331  1
  Rh  Rh238  1  0.59655169  0.79188633  0.00126666  1
  Rh  Rh239  1  0.79518843  0.39213841  0.20042074  1
  Rh  Rh240  1  -0.01037320  0.80330290  0.81164891  1
  Rh  Rh241  1  0.19807487  0.00383725  0.40608252  1
  Rh  Rh242  1  0.19999718  0.40974314  -0.00412625  1
  Rh  Rh243  1  -0.00606035  0.81020948  0.39152984  1
  Rh  Rh244  1  -0.00760611  0.20049093  0.40325499  1
  Rh  Rh245  1  0.59755445  0.40063066  0.39637135  1
  Rh  Rh246  1  0.60985854  0.80495572  0.59469561  1
  Rh  Rh247  1  0.20406587  0.80668725  0.19331557  1
  Rh  Rh248  1  0.60376128  0.19728175  0.80349196  1
  Rh  Rh249  1  0.40484052  0.19344243  0.00005174  1
