# generated using pymatgen
data_ZrScNbPdRh
_symmetry_space_group_name_H-M   'P 1'
_cell_length_a   16.55983161
_cell_length_b   16.55839172
_cell_length_c   16.55584008
_cell_angle_alpha   90.01142127
_cell_angle_beta   89.95150995
_cell_angle_gamma   89.97175771
_symmetry_Int_Tables_number   1
_chemical_formula_structural   ZrScNbPdRh
_chemical_formula_sum   'Zr50 Sc50 Nb50 Pd50 Rh50'
_cell_volume   4539.67826194
_cell_formula_units_Z   50
loop_
 _symmetry_equiv_pos_site_id
 _symmetry_equiv_pos_as_xyz
  1  'x, y, z'
loop_
 _atom_site_type_symbol
 _atom_site_label
 _atom_site_symmetry_multiplicity
 _atom_site_fract_x
 _atom_site_fract_y
 _atom_site_fract_z
 _atom_site_occupancy
  Zr  Zr0  1  0.90203381  0.50124850  0.49751259  1
  Zr  Zr1  1  0.70845520  0.70576801  0.90680912  1
  Zr  Zr2  1  0.89509156  0.70458269  0.49800558  1
  Zr  Zr3  1  0.90528607  0.48889040  0.90765843  1
  Zr  Zr4  1  0.09488800  0.89942339  0.90819967  1
  Zr  Zr5  1  0.09389108  0.10651104  0.49312709  1
  Zr  Zr6  1  0.50320808  0.10183207  0.10091133  1
  Zr  Zr7  1  0.90049480  0.90420084  0.10462553  1
  Zr  Zr8  1  0.88988718  0.29968467  0.09636560  1
  Zr  Zr9  1  0.50062312  0.49411599  0.11211993  1
  Zr  Zr10  1  0.70305306  0.89950111  0.10581929  1
  Zr  Zr11  1  0.69889250  0.10644532  0.49945768  1
  Zr  Zr12  1  0.10306550  0.49892994  0.70075342  1
  Zr  Zr13  1  0.90490927  0.09107383  0.89566741  1
  Zr  Zr14  1  0.50266429  0.90116253  0.29871872  1
  Zr  Zr15  1  0.30478481  0.70914679  0.90875076  1
  Zr  Zr16  1  0.50167849  0.49668423  0.89853925  1
  Zr  Zr17  1  0.29864906  0.89805543  0.90400172  1
  Zr  Zr18  1  0.30305923  0.90361419  0.69420184  1
  Zr  Zr19  1  0.51427585  0.10282148  0.89691462  1
  Zr  Zr20  1  0.90335118  0.90064235  0.49987103  1
  Zr  Zr21  1  0.49275937  0.29770960  0.70082422  1
  Zr  Zr22  1  0.10320956  0.89911880  0.09931430  1
  Zr  Zr23  1  0.90306922  0.70634425  0.90144866  1
  Zr  Zr24  1  0.69694848  0.08812613  0.69589635  1
  Zr  Zr25  1  0.10455517  0.69279547  0.90111886  1
  Zr  Zr26  1  0.90296677  0.09820390  0.30069417  1
  Zr  Zr27  1  0.89952538  0.30055347  0.49585407  1
  Zr  Zr28  1  0.70978727  0.49433273  0.10600722  1
  Zr  Zr29  1  0.88842082  0.69576576  0.10073154  1
  Zr  Zr30  1  0.50364536  0.70257969  0.90003162  1
  Zr  Zr31  1  0.30514775  0.50526085  0.29347585  1
  Zr  Zr32  1  0.50134904  0.29990373  0.50117594  1
  Zr  Zr33  1  0.90077812  0.69935069  0.30545272  1
  Zr  Zr34  1  0.70048680  0.09902777  0.08847896  1
  Zr  Zr35  1  0.90223780  0.48814584  0.69619123  1
  Zr  Zr36  1  0.91010787  0.49327711  0.10124905  1
  Zr  Zr37  1  0.69962768  0.69511794  0.30600703  1
  Zr  Zr38  1  0.71061397  0.90661541  0.90101878  1
  Zr  Zr39  1  0.69484915  0.70620630  0.50140899  1
  Zr  Zr40  1  0.70440246  0.30535911  0.70003806  1
  Zr  Zr41  1  0.49304363  0.89732509  0.89855581  1
  Zr  Zr42  1  0.29820871  0.48702176  0.49715664  1
  Zr  Zr43  1  0.30086314  0.29367325  0.70198087  1
  Zr  Zr44  1  0.30779452  0.49951452  0.10105930  1
  Zr  Zr45  1  0.09874183  0.09798227  0.09631649  1
  Zr  Zr46  1  0.09444593  0.50670278  0.28149382  1
  Zr  Zr47  1  0.30680609  0.10110478  0.69874293  1
  Zr  Zr48  1  0.70624741  0.90340555  0.50691030  1
  Zr  Zr49  1  0.49324907  0.91289773  0.70006599  1
  Sc  Sc50  1  0.30324718  0.70926091  0.50047987  1
  Sc  Sc51  1  0.50030221  0.50229301  0.30291956  1
  Sc  Sc52  1  0.29541888  0.09578036  0.50367208  1
  Sc  Sc53  1  0.30086834  0.51368929  0.89249313  1
  Sc  Sc54  1  0.70349032  0.48760512  0.89572803  1
  Sc  Sc55  1  0.29382443  0.11538318  0.90289015  1
  Sc  Sc56  1  0.29927112  0.50244793  0.69250193  1
  Sc  Sc57  1  0.09528348  0.09820833  0.30146822  1
  Sc  Sc58  1  0.49663923  0.49875759  0.69835405  1
  Sc  Sc59  1  0.49703534  0.69991493  0.68498869  1
  Sc  Sc60  1  0.30399282  0.88541847  0.09359304  1
  Sc  Sc61  1  0.09539775  0.11398142  0.70724966  1
  Sc  Sc62  1  0.10501763  0.29929504  0.50039576  1
  Sc  Sc63  1  0.09870695  0.71577555  0.50145591  1
  Sc  Sc64  1  0.69659579  0.90512317  0.30055246  1
  Sc  Sc65  1  0.89660709  0.10287047  0.10581091  1
  Sc  Sc66  1  0.69456537  0.50802819  0.48808973  1
  Sc  Sc67  1  0.09354175  0.28337850  0.89650519  1
  Sc  Sc68  1  0.29762911  0.11805595  0.10071798  1
  Sc  Sc69  1  0.09789518  0.68112363  0.10209829  1
  Sc  Sc70  1  0.90479873  0.29767842  0.69629738  1
  Sc  Sc71  1  0.29840460  0.69700200  0.69639973  1
  Sc  Sc72  1  0.89643340  0.48871570  0.29831059  1
  Sc  Sc73  1  0.48461386  0.30301286  0.09976221  1
  Sc  Sc74  1  0.69589384  0.29251411  0.90367669  1
  Sc  Sc75  1  0.90752980  0.70834158  0.69477138  1
  Sc  Sc76  1  0.50829622  0.89824428  0.10875831  1
  Sc  Sc77  1  0.69895562  0.30366382  0.30465249  1
  Sc  Sc78  1  0.89212413  0.10137662  0.49424120  1
  Sc  Sc79  1  0.50643654  0.30870164  0.29896990  1
  Sc  Sc80  1  0.10384235  0.69816271  0.69312590  1
  Sc  Sc81  1  0.49146227  0.89726966  0.49512505  1
  Sc  Sc82  1  0.30227392  0.89562277  0.31624283  1
  Sc  Sc83  1  0.09001843  0.29179449  0.09213450  1
  Sc  Sc84  1  0.50458276  0.10167470  0.50308741  1
  Sc  Sc85  1  0.49757844  0.70585573  0.30191931  1
  Sc  Sc86  1  0.90027884  0.91075705  0.30393298  1
  Sc  Sc87  1  0.50587436  0.71259047  0.11168745  1
  Sc  Sc88  1  0.69353180  0.49599086  0.29923986  1
  Sc  Sc89  1  0.69833920  0.09601735  0.30298255  1
  Sc  Sc90  1  0.09758489  0.29257130  0.30787458  1
  Sc  Sc91  1  0.09926428  0.89513413  0.69064946  1
  Sc  Sc92  1  0.10764794  0.90131061  0.49430011  1
  Sc  Sc93  1  0.10368678  0.49229855  0.50891336  1
  Sc  Sc94  1  0.89557903  0.90021769  0.70331040  1
  Sc  Sc95  1  0.49725350  0.29995029  0.89330518  1
  Sc  Sc96  1  0.49625948  0.50109803  0.49569502  1
  Sc  Sc97  1  0.09538994  0.29912698  0.69448258  1
  Sc  Sc98  1  0.29291518  0.30131288  0.30106125  1
  Sc  Sc99  1  0.29200404  0.10820894  0.30300473  1
  Nb  Nb100  1  0.09680790  0.49618082  0.09011485  1
  Nb  Nb101  1  0.70170808  0.49806455  0.70142895  1
  Nb  Nb102  1  0.10081600  0.09731267  0.89995035  1
  Nb  Nb103  1  0.69978602  0.89434092  0.69572744  1
  Nb  Nb104  1  0.30368627  0.29910174  0.50383436  1
  Nb  Nb105  1  0.70324475  0.69961913  0.10180219  1
  Nb  Nb106  1  0.69198684  0.29598940  0.49950723  1
  Nb  Nb107  1  0.89867257  0.29865775  0.29881792  1
  Nb  Nb108  1  0.70446432  0.10091054  0.90188943  1
  Nb  Nb109  1  0.89856930  0.29284403  0.90316281  1
  Nb  Nb110  1  0.29692253  0.69666051  0.29299480  1
  Nb  Nb111  1  0.49361205  0.10213905  0.70134323  1
  Nb  Nb112  1  0.90229070  0.10031062  0.69599778  1
  Nb  Nb113  1  0.30827243  0.69815805  0.10833190  1
  Nb  Nb114  1  0.09915806  0.89433275  0.30148000  1
  Nb  Nb115  1  0.29862781  0.30468849  0.90364509  1
  Nb  Nb116  1  0.69884716  0.70075785  0.69628142  1
  Nb  Nb117  1  0.50693067  0.70043695  0.49582077  1
  Nb  Nb118  1  0.10246061  0.70129431  0.30124601  1
  Nb  Nb119  1  0.09965043  0.50219037  0.90441935  1
  Nb  Nb120  1  0.29745893  0.90194656  0.50889449  1
  Nb  Nb121  1  0.90262947  0.89452740  0.90281334  1
  Nb  Nb122  1  0.69775071  0.29561361  0.09855563  1
  Nb  Nb123  1  0.50011247  0.10115743  0.30007121  1
  Nb  Nb124  1  0.29662260  0.30614778  0.09221030  1
  Nb  Nb125  1  0.59897007  0.40098676  0.00617241  1
  Nb  Nb126  1  0.79415431  0.59993528  0.60628145  1
  Nb  Nb127  1  0.20376662  -0.00850849  0.20007678  1
  Nb  Nb128  1  0.60420687  0.59813608  0.00372765  1
  Nb  Nb129  1  0.59950859  0.19951115  0.19649432  1
  Nb  Nb130  1  -0.00334577  0.00729718  0.60022319  1
  Nb  Nb131  1  0.40173237  0.20264500  0.40277291  1
  Nb  Nb132  1  0.60584570  0.80200985  0.79200292  1
  Nb  Nb133  1  0.00430929  0.79775774  0.20536402  1
  Nb  Nb134  1  0.19837833  0.79518093  0.20429418  1
  Nb  Nb135  1  0.40226085  0.00429234  0.00526887  1
  Nb  Nb136  1  0.19802697  0.39877742  0.80766859  1
  Nb  Nb137  1  0.39460133  0.00315051  0.20036294  1
  Nb  Nb138  1  0.40978676  0.60418546  0.00733372  1
  Nb  Nb139  1  0.61017617  0.60490787  0.79800885  1
  Nb  Nb140  1  0.80111372  0.19069004  0.80138472  1
  Nb  Nb141  1  0.20170574  0.80520469  0.80366735  1
  Nb  Nb142  1  0.19725639  0.60389202  0.39419219  1
  Nb  Nb143  1  0.80334864  0.59801765  0.79350577  1
  Nb  Nb144  1  -0.00202292  0.59372823  0.80159491  1
  Nb  Nb145  1  0.19650345  0.40131274  0.18782162  1
  Nb  Nb146  1  0.19569780  0.00103236  0.80488019  1
  Nb  Nb147  1  0.00732098  0.60133676  0.39856113  1
  Nb  Nb148  1  0.60506719  0.39839846  0.59982940  1
  Nb  Nb149  1  0.19824437  0.40107910  -0.00391584  1
  Pd  Pd150  1  0.79828760  0.20145109  0.39229526  1
  Pd  Pd151  1  0.80340763  0.59160811  0.20910967  1
  Pd  Pd152  1  0.39500020  0.60707400  0.40335261  1
  Pd  Pd153  1  0.00016240  0.20289764  0.20188404  1
  Pd  Pd154  1  0.18690488  0.00882175  0.60939503  1
  Pd  Pd155  1  0.78999310  0.19922684  0.20702562  1
  Pd  Pd156  1  0.59226995  -0.00462696  0.59239265  1
  Pd  Pd157  1  0.59842476  0.20265766  0.60994094  1
  Pd  Pd158  1  0.80392165  0.39093480  0.80658144  1
  Pd  Pd159  1  0.00850920  0.39560970  0.80602235  1
  Pd  Pd160  1  0.20296385  0.60434509  0.58572869  1
  Pd  Pd161  1  0.19975421  0.00125318  0.39458739  1
  Pd  Pd162  1  0.60159723  0.59014409  0.60144985  1
  Pd  Pd163  1  0.39658553  0.59839943  0.58916897  1
  Pd  Pd164  1  0.79385133  0.39999958  0.40212706  1
  Pd  Pd165  1  0.79056918  0.40663003  0.58405328  1
  Pd  Pd166  1  0.79507712  0.80995835  0.39389565  1
  Pd  Pd167  1  0.00462920  0.38628988  0.19822639  1
  Pd  Pd168  1  -0.00649229  0.00375072  0.00476680  1
  Pd  Pd169  1  0.40217124  0.20416458  0.21058085  1
  Pd  Pd170  1  0.58995647  0.80927322  0.60111903  1
  Pd  Pd171  1  0.59984831  -0.00154180  0.40734951  1
  Pd  Pd172  1  0.40003614  0.79241057  0.78683899  1
  Pd  Pd173  1  0.00236027  0.79003085  0.01330865  1
  Pd  Pd174  1  0.38919027  0.40418969  0.79845973  1
  Pd  Pd175  1  0.00734020  -0.00529222  0.79096359  1
  Pd  Pd176  1  0.39891138  0.79571752  0.40098639  1
  Pd  Pd177  1  0.21211747  0.59826117  0.00619136  1
  Pd  Pd178  1  0.79860083  0.58989870  -0.00687346  1
  Pd  Pd179  1  0.60795713  0.20139079  0.79247390  1
  Pd  Pd180  1  0.39534100  0.01010384  0.39913760  1
  Pd  Pd181  1  0.60232065  0.80279999  -0.00165185  1
  Pd  Pd182  1  0.79881086  0.79670200  0.79347480  1
  Pd  Pd183  1  0.59626604  -0.01019988  -0.00148190  1
  Pd  Pd184  1  0.60351380  -0.00591708  0.80090854  1
  Pd  Pd185  1  0.19198426  0.20549084  0.19743024  1
  Pd  Pd186  1  0.80198615  0.19917913  0.60447870  1
  Pd  Pd187  1  0.80297228  0.80409652  0.21078816  1
  Pd  Pd188  1  0.39011453  0.01279492  0.81472314  1
  Pd  Pd189  1  0.19157070  0.40717033  0.38750007  1
  Pd  Pd190  1  0.00937809  0.40491712  0.39999800  1
  Pd  Pd191  1  0.00999976  0.79714939  0.79505219  1
  Pd  Pd192  1  0.40036640  0.39282101  0.39464265  1
  Pd  Pd193  1  0.40642150  0.19882726  -0.00720027  1
  Pd  Pd194  1  -0.00338880  0.60288387  0.59735301  1
  Pd  Pd195  1  0.59918677  0.60520364  0.19943552  1
  Pd  Pd196  1  0.80245593  0.00072783  0.79511170  1
  Pd  Pd197  1  0.40754704  0.60708483  0.79936365  1
  Pd  Pd198  1  0.19893569  0.19860611  0.59876927  1
  Pd  Pd199  1  0.21215382  0.00854019  0.00347720  1
  Rh  Rh200  1  0.20163081  0.59843938  0.19658007  1
  Rh  Rh201  1  -0.00770106  0.20391996  0.39898627  1
  Rh  Rh202  1  0.20924103  0.20199542  0.40941810  1
  Rh  Rh203  1  0.19300706  0.78500283  0.00666780  1
  Rh  Rh204  1  0.60437553  0.38912985  0.19282380  1
  Rh  Rh205  1  -0.00013967  0.79962748  0.39716365  1
  Rh  Rh206  1  0.40194206  0.80136137  0.59712160  1
  Rh  Rh207  1  -0.00089202  0.81015076  0.59667033  1
  Rh  Rh208  1  0.79588080  0.00550421  0.20028496  1
  Rh  Rh209  1  0.40075232  0.19600325  0.80765696  1
  Rh  Rh210  1  0.40412088  0.00550011  0.59049189  1
  Rh  Rh211  1  0.80748125  -0.00192173  0.00169821  1
  Rh  Rh212  1  0.59323759  0.20161246  0.38939482  1
  Rh  Rh213  1  0.00253300  0.39212813  0.59224266  1
  Rh  Rh214  1  0.39208019  0.80920183  0.20685385  1
  Rh  Rh215  1  0.00347951  -0.00216127  0.40625898  1
  Rh  Rh216  1  0.19326279  0.60075662  0.79473908  1
  Rh  Rh217  1  0.40045473  0.19414739  0.59186669  1
  Rh  Rh218  1  -0.01114560  0.60578605  0.20311840  1
  Rh  Rh219  1  0.61389650  0.79556485  0.20798952  1
  Rh  Rh220  1  0.40338956  0.40175964  0.60174290  1
  Rh  Rh221  1  0.80458848  0.19533325  -0.00786773  1
  Rh  Rh222  1  0.59701132  0.40135568  0.79661705  1
  Rh  Rh223  1  0.80345111  0.80988860  0.00654719  1
  Rh  Rh224  1  0.20532258  0.39206851  0.61056757  1
  Rh  Rh225  1  -0.00973703  0.20003447  0.80141445  1
  Rh  Rh226  1  0.59696856  0.00797285  0.20282204  1
  Rh  Rh227  1  0.79228045  0.39357264  -0.00232002  1
  Rh  Rh228  1  0.60037306  0.80299817  0.40079096  1
  Rh  Rh229  1  0.00909908  -0.00451507  0.20388845  1
  Rh  Rh230  1  0.79930304  0.39277800  0.20450901  1
  Rh  Rh231  1  0.39843698  0.40774743  -0.00834113  1
  Rh  Rh232  1  0.19463753  0.20652808  -0.00078775  1
  Rh  Rh233  1  0.80708942  0.59377863  0.40179530  1
  Rh  Rh234  1  0.80324200  0.79677518  0.60298903  1
  Rh  Rh235  1  0.20059695  0.20224554  0.80016807  1
  Rh  Rh236  1  -0.00584486  0.19763363  0.59156778  1
  Rh  Rh237  1  -0.00847033  0.19108379  -0.00107293  1
  Rh  Rh238  1  0.59303533  0.60347300  0.39621527  1
  Rh  Rh239  1  0.39021660  0.39114837  0.20915206  1
  Rh  Rh240  1  0.41285606  0.60723137  0.19862570  1
  Rh  Rh241  1  -0.00984170  0.60271802  -0.00362064  1
  Rh  Rh242  1  0.41269539  0.80032280  0.01059441  1
  Rh  Rh243  1  0.79533326  0.00185070  0.40192214  1
  Rh  Rh244  1  0.20592567  0.80131208  0.60444622  1
  Rh  Rh245  1  0.80611643  0.00042935  0.60117690  1
  Rh  Rh246  1  0.20701055  0.79660778  0.39929844  1
  Rh  Rh247  1  0.60043432  0.40129921  0.40889132  1
  Rh  Rh248  1  0.59184489  0.21301818  0.00623110  1
  Rh  Rh249  1  0.00527763  0.38718644  -0.00522800  1
