# generated using pymatgen
data_ZrScNbPdRh
_symmetry_space_group_name_H-M   'P 1'
_cell_length_a   16.55809174
_cell_length_b   16.55660612
_cell_length_c   16.55829262
_cell_angle_alpha   90.03583940
_cell_angle_beta   89.96544993
_cell_angle_gamma   90.02953102
_symmetry_Int_Tables_number   1
_chemical_formula_structural   ZrScNbPdRh
_chemical_formula_sum   'Zr50 Sc50 Nb50 Pd50 Rh50'
_cell_volume   4539.38411064
_cell_formula_units_Z   50
loop_
 _symmetry_equiv_pos_site_id
 _symmetry_equiv_pos_as_xyz
  1  'x, y, z'
loop_
 _atom_site_type_symbol
 _atom_site_label
 _atom_site_symmetry_multiplicity
 _atom_site_fract_x
 _atom_site_fract_y
 _atom_site_fract_z
 _atom_site_occupancy
  Zr  Zr0  1  0.50124007  0.29895479  0.89675024  1
  Zr  Zr1  1  0.29602723  0.70067120  0.49885688  1
  Zr  Zr2  1  0.69447800  0.50399713  0.29597760  1
  Zr  Zr3  1  0.69115009  0.09870696  0.90956440  1
  Zr  Zr4  1  0.11992341  0.90145950  0.49497302  1
  Zr  Zr5  1  0.09440158  0.09788136  0.68869255  1
  Zr  Zr6  1  0.69631633  0.70372250  0.30116696  1
  Zr  Zr7  1  0.29919480  0.30268439  0.29286212  1
  Zr  Zr8  1  0.09713741  0.30816048  0.69418882  1
  Zr  Zr9  1  0.90000421  0.49100159  0.31080797  1
  Zr  Zr10  1  0.49176491  0.89956841  0.10854833  1
  Zr  Zr11  1  0.49014740  0.70376915  0.10836688  1
  Zr  Zr12  1  0.09963245  0.30341550  0.10233848  1
  Zr  Zr13  1  0.69930438  0.09939301  0.69067822  1
  Zr  Zr14  1  0.90285741  0.09068009  0.50704621  1
  Zr  Zr15  1  0.50792815  0.49524484  0.69316710  1
  Zr  Zr16  1  0.89519584  0.31274396  0.90043396  1
  Zr  Zr17  1  0.69959496  0.71005817  0.50318522  1
  Zr  Zr18  1  0.29972794  0.50152978  0.10429143  1
  Zr  Zr19  1  0.90519394  0.90081268  0.69431011  1
  Zr  Zr20  1  0.30051298  0.68537362  0.30003284  1
  Zr  Zr21  1  0.89671393  0.10745878  0.10934092  1
  Zr  Zr22  1  0.49921416  0.89639107  0.89592300  1
  Zr  Zr23  1  0.69315285  0.90460883  0.10461677  1
  Zr  Zr24  1  0.49670114  0.70254199  0.89611850  1
  Zr  Zr25  1  0.89984885  0.09979147  0.29290024  1
  Zr  Zr26  1  0.10553984  0.90119616  0.69720118  1
  Zr  Zr27  1  0.70880203  0.49808772  0.89445170  1
  Zr  Zr28  1  0.90407427  0.09468004  0.91032530  1
  Zr  Zr29  1  0.70325032  0.50590620  0.09898323  1
  Zr  Zr30  1  0.90131886  0.50183163  0.69633310  1
  Zr  Zr31  1  0.68595079  0.29811275  0.49883782  1
  Zr  Zr32  1  0.09350008  0.49808577  0.70287704  1
  Zr  Zr33  1  0.10061232  0.50391907  0.90141144  1
  Zr  Zr34  1  0.30144029  0.69425741  0.89537395  1
  Zr  Zr35  1  0.69525539  0.89437398  0.30890165  1
  Zr  Zr36  1  0.30612466  0.29732792  0.70222024  1
  Zr  Zr37  1  0.69688222  0.69522353  0.89694785  1
  Zr  Zr38  1  0.90163029  0.09702160  0.69610502  1
  Zr  Zr39  1  0.69576015  0.29752472  0.10565669  1
  Zr  Zr40  1  0.29252218  0.70822056  0.10348161  1
  Zr  Zr41  1  0.69189176  0.88983581  0.69059927  1
  Zr  Zr42  1  0.30510748  0.49714425  0.29931347  1
  Zr  Zr43  1  0.10589167  0.30366547  0.90997322  1
  Zr  Zr44  1  0.90100139  0.70346259  0.30175751  1
  Zr  Zr45  1  0.10273106  0.29962049  0.30768600  1
  Zr  Zr46  1  0.69664026  0.30252176  0.89950568  1
  Zr  Zr47  1  0.30580417  0.51441807  0.49834950  1
  Zr  Zr48  1  0.10035060  0.49733294  0.09263299  1
  Zr  Zr49  1  0.50374852  0.50016117  0.10828616  1
  Sc  Sc50  1  0.69958657  0.89764253  0.90818010  1
  Sc  Sc51  1  0.50430674  0.50127759  0.49243270  1
  Sc  Sc52  1  0.29861238  0.50953426  0.69527673  1
  Sc  Sc53  1  0.90092692  0.50124365  0.90444705  1
  Sc  Sc54  1  0.89342741  0.89331660  0.49740092  1
  Sc  Sc55  1  0.30046491  0.29571898  0.09977743  1
  Sc  Sc56  1  0.90008095  0.70097942  0.90436243  1
  Sc  Sc57  1  0.09954440  0.70089150  0.90808769  1
  Sc  Sc58  1  0.30499928  0.08920352  0.70581448  1
  Sc  Sc59  1  0.50028734  0.50502648  0.30013396  1
  Sc  Sc60  1  0.69512485  0.09984428  0.10734852  1
  Sc  Sc61  1  0.49709534  0.08581032  0.29877201  1
  Sc  Sc62  1  0.69909414  0.09024359  0.29646133  1
  Sc  Sc63  1  0.69549632  0.30148913  0.30312096  1
  Sc  Sc64  1  0.29167391  0.31127548  0.48783481  1
  Sc  Sc65  1  0.09765500  0.49379060  0.50623077  1
  Sc  Sc66  1  0.31232124  0.70139294  0.69234456  1
  Sc  Sc67  1  0.50398810  0.90209505  0.50547874  1
  Sc  Sc68  1  0.89633015  0.89733691  0.29422739  1
  Sc  Sc69  1  0.10077589  0.10969046  0.29769015  1
  Sc  Sc70  1  0.49808173  0.29779421  0.10732257  1
  Sc  Sc71  1  0.30978632  0.29684464  0.90633096  1
  Sc  Sc72  1  0.68937600  0.31046865  0.70445946  1
  Sc  Sc73  1  0.90418623  0.29616426  0.29715624  1
  Sc  Sc74  1  0.30000451  0.90697777  0.90134007  1
  Sc  Sc75  1  0.49297921  0.09804468  0.69997600  1
  Sc  Sc76  1  0.89780786  0.69628480  0.68310469  1
  Sc  Sc77  1  0.10565210  0.09834975  0.90818375  1
  Sc  Sc78  1  0.30247923  0.91664397  0.31487508  1
  Sc  Sc79  1  0.49871156  0.69532580  0.50252359  1
  Sc  Sc80  1  0.50509525  0.29593883  0.70283239  1
  Sc  Sc81  1  0.10673663  0.49592057  0.29203627  1
  Sc  Sc82  1  0.90602169  0.90539671  0.10286980  1
  Sc  Sc83  1  0.09198565  0.10318294  0.09394394  1
  Sc  Sc84  1  0.30341774  0.07780101  0.48665615  1
  Sc  Sc85  1  0.69123115  0.50079614  0.49408709  1
  Sc  Sc86  1  0.50485760  0.09357805  0.10101695  1
  Sc  Sc87  1  0.90320696  0.31120237  0.70113465  1
  Sc  Sc88  1  0.51226240  0.09738313  0.50013786  1
  Sc  Sc89  1  0.70068549  0.69095772  0.10439956  1
  Sc  Sc90  1  0.30149621  0.10119083  0.90392410  1
  Sc  Sc91  1  0.30311217  0.10175933  0.29460769  1
  Sc  Sc92  1  0.89264607  0.70117380  0.10206854  1
  Sc  Sc93  1  0.10162508  0.70768139  0.30112603  1
  Sc  Sc94  1  0.49139294  0.50238265  0.90082201  1
  Sc  Sc95  1  0.90178879  0.89523042  0.91223798  1
  Sc  Sc96  1  0.09154471  0.70136126  0.69937666  1
  Sc  Sc97  1  0.49667540  0.10291902  0.90017495  1
  Sc  Sc98  1  0.90484969  0.31357053  0.48555907  1
  Sc  Sc99  1  0.50671927  0.70784701  0.70261434  1
  Nb  Nb100  1  0.70248221  0.09552367  0.50009735  1
  Nb  Nb101  1  0.70065359  0.69598469  0.70184554  1
  Nb  Nb102  1  0.31015330  0.89849680  0.69431261  1
  Nb  Nb103  1  0.89713020  0.30451978  0.10059414  1
  Nb  Nb104  1  0.50241121  0.29841331  0.49978617  1
  Nb  Nb105  1  0.30099701  0.09185123  0.10129041  1
  Nb  Nb106  1  0.89559886  0.50382168  0.50004395  1
  Nb  Nb107  1  0.10082589  0.89549187  0.90180490  1
  Nb  Nb108  1  0.10193050  0.29272381  0.49959479  1
  Nb  Nb109  1  0.48914678  0.89548650  0.70323264  1
  Nb  Nb110  1  0.50193636  0.70831984  0.30140642  1
  Nb  Nb111  1  0.10286167  0.70476860  0.11079852  1
  Nb  Nb112  1  0.69862999  0.90774446  0.49796347  1
  Nb  Nb113  1  0.09809949  0.10227437  0.49876688  1
  Nb  Nb114  1  0.90270416  0.69099753  0.49406901  1
  Nb  Nb115  1  0.50366429  0.89201562  0.30134357  1
  Nb  Nb116  1  0.09615634  0.90074600  0.29445467  1
  Nb  Nb117  1  0.09656896  0.70293529  0.49292170  1
  Nb  Nb118  1  0.29516889  0.90251332  0.09966868  1
  Nb  Nb119  1  0.10968167  0.88325590  0.09910945  1
  Nb  Nb120  1  0.89687345  0.50013999  0.10221593  1
  Nb  Nb121  1  0.30929126  0.89292683  0.50866668  1
  Nb  Nb122  1  0.49972221  0.30536775  0.30353553  1
  Nb  Nb123  1  0.29474136  0.49944599  0.90049907  1
  Nb  Nb124  1  0.70419399  0.50606629  0.69769985  1
  Nb  Nb125  1  0.79728150  0.80058606  0.79351520  1
  Nb  Nb126  1  0.60121436  0.40190246  0.00101156  1
  Nb  Nb127  1  0.59361260  0.79607333  0.00360753  1
  Nb  Nb128  1  0.79555516  0.40516475  0.59496276  1
  Nb  Nb129  1  0.79977249  0.20473758  0.00041394  1
  Nb  Nb130  1  0.20147247  0.80561270  0.79771648  1
  Nb  Nb131  1  0.80126424  0.40188995  0.19747684  1
  Nb  Nb132  1  0.40668930  0.20658733  0.40116198  1
  Nb  Nb133  1  0.19710824  -0.00633906  0.19316047  1
  Nb  Nb134  1  0.00665833  -0.00090958  0.39891285  1
  Nb  Nb135  1  0.20460427  0.40174558  0.80393611  1
  Nb  Nb136  1  0.20262801  0.19796463  0.59343050  1
  Nb  Nb137  1  0.19430963  0.20337003  0.79349060  1
  Nb  Nb138  1  0.39527774  0.20255342  0.58738068  1
  Nb  Nb139  1  0.00125731  -0.00130995  0.80530835  1
  Nb  Nb140  1  0.40268049  0.39464211  0.59369671  1
  Nb  Nb141  1  0.79824471  0.20795431  0.59588951  1
  Nb  Nb142  1  -0.00039214  0.59933202  0.19696914  1
  Nb  Nb143  1  0.00069049  0.19829549  0.80216121  1
  Nb  Nb144  1  0.40029357  0.80073840  0.40134760  1
  Nb  Nb145  1  0.80288234  0.19551366  0.80038231  1
  Nb  Nb146  1  0.79878985  -0.00302947  0.79875933  1
  Nb  Nb147  1  0.79630600  0.19350647  0.40749925  1
  Nb  Nb148  1  0.80297670  0.60253355  0.40395826  1
  Nb  Nb149  1  0.60186044  -0.00661581  0.79693351  1
  Pd  Pd150  1  0.60116832  0.19013503  0.79496777  1
  Pd  Pd151  1  0.80721744  0.00181691  0.39509114  1
  Pd  Pd152  1  0.39631192  0.40824753  0.79265973  1
  Pd  Pd153  1  0.81130872  0.60827366  0.79828449  1
  Pd  Pd154  1  0.79737399  0.00590579  0.00689047  1
  Pd  Pd155  1  0.19548819  0.41090146  0.40271268  1
  Pd  Pd156  1  0.80153251  0.79969599  0.59799689  1
  Pd  Pd157  1  0.20971864  0.00662797  0.59985952  1
  Pd  Pd158  1  0.59404056  0.59406462  0.79956505  1
  Pd  Pd159  1  0.59525646  0.59970931  -0.00166495  1
  Pd  Pd160  1  0.00760467  0.60018688  0.59380920  1
  Pd  Pd161  1  -0.00645011  0.20879651  -0.00207980  1
  Pd  Pd162  1  0.39547318  0.80300320  -0.00467581  1
  Pd  Pd163  1  0.19606254  0.00022261  0.80134099  1
  Pd  Pd164  1  0.21393659  0.19120796  0.40520588  1
  Pd  Pd165  1  0.60127518  0.60431358  0.59796821  1
  Pd  Pd166  1  0.59911897  0.18922055  0.39032333  1
  Pd  Pd167  1  0.00620388  0.59385063  0.39336571  1
  Pd  Pd168  1  -0.00436666  0.60644521  0.00945152  1
  Pd  Pd169  1  0.59158498  -0.00240845  0.60651767  1
  Pd  Pd170  1  0.20148309  0.60619515  0.00523548  1
  Pd  Pd171  1  0.18606121  0.59439372  0.40014041  1
  Pd  Pd172  1  -0.00371195  0.40224502  0.20144714  1
  Pd  Pd173  1  -0.00956250  0.19426624  0.40217126  1
  Pd  Pd174  1  0.59291482  0.19546057  0.21005144  1
  Pd  Pd175  1  0.40466653  0.39987892  0.40332000  1
  Pd  Pd176  1  0.20969983  0.80215839  0.39131116  1
  Pd  Pd177  1  -0.00670704  0.60716107  0.80129252  1
  Pd  Pd178  1  0.19453964  0.00031496  0.00688215  1
  Pd  Pd179  1  0.00977968  -0.00070093  0.19844969  1
  Pd  Pd180  1  -0.00691846  0.21268559  0.59776814  1
  Pd  Pd181  1  0.20970504  0.39839919  0.60227920  1
  Pd  Pd182  1  0.18977553  0.60930025  0.60206023  1
  Pd  Pd183  1  0.19706356  0.19239169  0.19065376  1
  Pd  Pd184  1  0.19804768  0.60561467  0.79269889  1
  Pd  Pd185  1  0.00010222  0.81021830  0.40321726  1
  Pd  Pd186  1  -0.00217411  0.80136798  0.80246556  1
  Pd  Pd187  1  -0.00000401  0.79704432  0.00927358  1
  Pd  Pd188  1  0.19973271  0.79038685  0.60769333  1
  Pd  Pd189  1  0.00436114  0.80285663  0.58617423  1
  Pd  Pd190  1  0.38496570  0.80939430  0.21557025  1
  Pd  Pd191  1  0.79664599  0.80453307  0.19553454  1
  Pd  Pd192  1  0.40368604  0.40087439  0.00608007  1
  Pd  Pd193  1  0.79069914  0.79483213  0.00167061  1
  Pd  Pd194  1  0.40727169  0.19435384  0.20394849  1
  Pd  Pd195  1  0.40439659  0.00202259  -0.00112707  1
  Pd  Pd196  1  0.21101001  0.80890028  0.21693012  1
  Pd  Pd197  1  0.39670108  0.59960774  0.00481104  1
  Pd  Pd198  1  0.40477875  0.19392162  0.00895473  1
  Pd  Pd199  1  0.40471308  0.59521214  0.79111337  1
  Rh  Rh200  1  0.79502316  -0.00452307  0.60067297  1
  Rh  Rh201  1  0.59593769  0.40237957  0.39496339  1
  Rh  Rh202  1  0.59778069  0.19889609  0.60367094  1
  Rh  Rh203  1  0.59848244  0.20869300  0.00463147  1
  Rh  Rh204  1  -0.00297163  0.79363486  0.19568352  1
  Rh  Rh205  1  0.79644564  -0.00563567  0.19968367  1
  Rh  Rh206  1  0.01069948  -0.01399961  0.00247995  1
  Rh  Rh207  1  0.20734946  0.19695043  0.00084280  1
  Rh  Rh208  1  0.79788063  0.20840922  0.20404525  1
  Rh  Rh209  1  0.80057654  0.79634605  0.40389883  1
  Rh  Rh210  1  0.59747070  0.41079210  0.80857137  1
  Rh  Rh211  1  0.39399120  0.19340638  0.79593948  1
  Rh  Rh212  1  0.01270793  0.40243688  0.40267483  1
  Rh  Rh213  1  0.00543582  0.20746323  0.19856856  1
  Rh  Rh214  1  0.79291597  0.39811671  0.01139696  1
  Rh  Rh215  1  0.40913641  0.60813810  0.39634984  1
  Rh  Rh216  1  0.79811830  0.40052384  0.78470237  1
  Rh  Rh217  1  0.59094086  0.80228663  0.41000317  1
  Rh  Rh218  1  0.81316456  0.59195184  0.21377847  1
  Rh  Rh219  1  0.60069961  0.40180204  0.59828108  1
  Rh  Rh220  1  0.60466640  0.79611670  0.19231088  1
  Rh  Rh221  1  -0.00863427  0.39881693  0.58975771  1
  Rh  Rh222  1  0.80452953  0.60169891  -0.00456562  1
  Rh  Rh223  1  0.00767363  -0.01566838  0.58692036  1
  Rh  Rh224  1  0.21153248  0.39924820  -0.00177456  1
  Rh  Rh225  1  0.79135886  0.59512277  0.59060773  1
  Rh  Rh226  1  0.40079446  0.39815429  0.19942704  1
  Rh  Rh227  1  0.40970754  0.59407413  0.60242085  1
  Rh  Rh228  1  0.20569091  0.79635869  -0.01074777  1
  Rh  Rh229  1  -0.00297890  0.40208429  0.00009659  1
  Rh  Rh230  1  0.60200710  0.39965573  0.19944948  1
  Rh  Rh231  1  0.40830936  0.79750573  0.59401729  1
  Rh  Rh232  1  0.00879028  0.39890142  0.81156559  1
  Rh  Rh233  1  0.41447780  -0.00593503  0.40515066  1
  Rh  Rh234  1  0.59193526  0.60889632  0.20334396  1
  Rh  Rh235  1  0.60007268  -0.00328957  0.39924373  1
  Rh  Rh236  1  0.39281519  -0.00429457  0.19906026  1
  Rh  Rh237  1  0.20324104  0.39828829  0.19554104  1
  Rh  Rh238  1  0.60301391  0.60753502  0.39706918  1
  Rh  Rh239  1  0.40361638  0.59933047  0.20268951  1
  Rh  Rh240  1  0.60881184  0.80467037  0.80577955  1
  Rh  Rh241  1  0.59122441  -0.01082752  -0.00381100  1
  Rh  Rh242  1  0.40253604  0.00394480  0.59746848  1
  Rh  Rh243  1  0.59445186  0.79906794  0.59647478  1
  Rh  Rh244  1  0.19190609  0.59831065  0.19713336  1
  Rh  Rh245  1  0.40576530  -0.00193700  0.80365047  1
  Rh  Rh246  1  0.78922710  0.40120545  0.39863057  1
  Rh  Rh247  1  0.38691243  0.80163560  0.80052664  1
  Rh  Rh248  1  0.59782242  -0.00553556  0.20626651  1
  Rh  Rh249  1  0.18729051  0.00642926  0.38632048  1
