# generated using pymatgen
data_ZrScNbPdRh
_symmetry_space_group_name_H-M   'P 1'
_cell_length_a   16.56565925
_cell_length_b   16.56421858
_cell_length_c   16.56310641
_cell_angle_alpha   90.01120608
_cell_angle_beta   89.98389305
_cell_angle_gamma   89.98082959
_symmetry_Int_Tables_number   1
_chemical_formula_structural   ZrScNbPdRh
_chemical_formula_sum   'Zr50 Sc50 Nb50 Pd50 Rh50'
_cell_volume   4544.86951422
_cell_formula_units_Z   50
loop_
 _symmetry_equiv_pos_site_id
 _symmetry_equiv_pos_as_xyz
  1  'x, y, z'
loop_
 _atom_site_type_symbol
 _atom_site_label
 _atom_site_symmetry_multiplicity
 _atom_site_fract_x
 _atom_site_fract_y
 _atom_site_fract_z
 _atom_site_occupancy
  Zr  Zr0  1  0.70363801  0.49962801  0.51076592  1
  Zr  Zr1  1  0.90277494  0.69536831  0.89688955  1
  Zr  Zr2  1  0.30168311  0.89618215  0.50024933  1
  Zr  Zr3  1  0.29800132  0.70237416  0.69999302  1
  Zr  Zr4  1  0.50724467  0.30366595  0.90579629  1
  Zr  Zr5  1  0.89549855  0.30103684  0.30094225  1
  Zr  Zr6  1  0.30119149  0.29230773  0.10437462  1
  Zr  Zr7  1  0.90097721  0.90251553  0.09471211  1
  Zr  Zr8  1  0.88906033  0.70419539  0.50021545  1
  Zr  Zr9  1  0.89959923  0.49982080  0.70334795  1
  Zr  Zr10  1  0.30695325  0.89596830  0.89119050  1
  Zr  Zr11  1  0.89860425  0.69545734  0.29689578  1
  Zr  Zr12  1  0.49177481  0.10493272  0.30011200  1
  Zr  Zr13  1  0.89903299  0.30515014  0.49563885  1
  Zr  Zr14  1  0.49580549  0.89332212  0.29830147  1
  Zr  Zr15  1  0.30077447  0.89780506  0.30264047  1
  Zr  Zr16  1  0.69896815  0.30204861  0.30303480  1
  Zr  Zr17  1  0.29456048  0.09697215  0.28862496  1
  Zr  Zr18  1  0.69719619  0.70221940  0.88892719  1
  Zr  Zr19  1  0.10780934  0.09717613  0.10678203  1
  Zr  Zr20  1  0.10573732  0.09903002  0.69030561  1
  Zr  Zr21  1  0.49806703  0.69318351  0.70975615  1
  Zr  Zr22  1  0.09612985  0.49680532  0.09955421  1
  Zr  Zr23  1  0.30562090  0.69748057  0.09775128  1
  Zr  Zr24  1  0.30151920  0.49972811  0.69323574  1
  Zr  Zr25  1  0.09493636  0.49977306  0.90801225  1
  Zr  Zr26  1  0.50795609  0.29721744  0.69031375  1
  Zr  Zr27  1  0.50111006  0.09874151  0.69641331  1
  Zr  Zr28  1  0.30674046  0.70093856  0.89308827  1
  Zr  Zr29  1  0.08891099  0.49905072  0.29775232  1
  Zr  Zr30  1  0.10620646  0.10784008  0.89166580  1
  Zr  Zr31  1  0.69616224  0.90703359  0.09908565  1
  Zr  Zr32  1  0.09148455  0.29992550  0.30897754  1
  Zr  Zr33  1  0.30430453  0.10050306  0.89870728  1
  Zr  Zr34  1  0.50267492  0.70416007  0.10431808  1
  Zr  Zr35  1  0.70037176  0.89186982  0.49550364  1
  Zr  Zr36  1  0.88637447  0.09779127  0.09753263  1
  Zr  Zr37  1  0.30300508  0.70308589  0.30029750  1
  Zr  Zr38  1  0.10118157  0.49607104  0.50026280  1
  Zr  Zr39  1  0.29786975  0.10845819  0.49414765  1
  Zr  Zr40  1  0.70224352  0.49688230  0.30265356  1
  Zr  Zr41  1  0.29739539  0.68902375  0.49676339  1
  Zr  Zr42  1  0.70105399  0.30491639  0.89483960  1
  Zr  Zr43  1  0.89645533  0.29748917  0.09766818  1
  Zr  Zr44  1  0.50024954  0.90140035  0.49465869  1
  Zr  Zr45  1  0.09556853  0.29595151  0.70239454  1
  Zr  Zr46  1  0.90195594  0.29809994  0.88917344  1
  Zr  Zr47  1  0.50910226  0.09563656  0.89668480  1
  Zr  Zr48  1  0.09606125  0.69840186  0.70396265  1
  Zr  Zr49  1  0.30537599  0.29421456  0.30498011  1
  Sc  Sc50  1  0.09234770  0.89797185  0.10071486  1
  Sc  Sc51  1  0.69782537  0.10245810  0.71326052  1
  Sc  Sc52  1  0.90249965  0.09255851  0.48564489  1
  Sc  Sc53  1  0.89954714  0.49824639  0.50915267  1
  Sc  Sc54  1  0.90334166  0.89955342  0.50009424  1
  Sc  Sc55  1  0.70272749  0.70048481  0.10334266  1
  Sc  Sc56  1  0.91227030  0.90459330  0.30219860  1
  Sc  Sc57  1  0.90389428  0.89582048  0.70239857  1
  Sc  Sc58  1  0.09255314  0.50225786  0.68825701  1
  Sc  Sc59  1  0.30192933  0.89734268  0.69757732  1
  Sc  Sc60  1  0.30676767  0.49750217  0.31176402  1
  Sc  Sc61  1  0.10195731  0.70615105  0.30169963  1
  Sc  Sc62  1  0.10508104  0.89760651  0.69818663  1
  Sc  Sc63  1  0.09177026  0.69611678  0.09575927  1
  Sc  Sc64  1  0.69632306  0.29198071  0.09970366  1
  Sc  Sc65  1  0.90067866  0.69438233  0.09653436  1
  Sc  Sc66  1  0.49826204  0.49001035  0.09823383  1
  Sc  Sc67  1  0.68713766  0.89967633  0.30188555  1
  Sc  Sc68  1  0.29408261  0.29776292  0.91215765  1
  Sc  Sc69  1  0.70239296  0.70560078  0.30758381  1
  Sc  Sc70  1  0.49654591  0.69751758  0.50143402  1
  Sc  Sc71  1  0.10135200  0.69615708  0.50741595  1
  Sc  Sc72  1  0.10534828  0.90378517  0.29859668  1
  Sc  Sc73  1  0.70701497  0.10043480  0.90331336  1
  Sc  Sc74  1  0.49688905  0.70751427  0.89984195  1
  Sc  Sc75  1  0.49478654  0.49234786  0.30192519  1
  Sc  Sc76  1  0.89815217  0.30639600  0.70213844  1
  Sc  Sc77  1  0.30367699  0.49584052  0.09693660  1
  Sc  Sc78  1  0.90239796  0.89721668  0.89918667  1
  Sc  Sc79  1  0.51081606  0.89791726  0.10043074  1
  Sc  Sc80  1  0.90237319  0.70349459  0.70326761  1
  Sc  Sc81  1  0.30401998  0.90190645  0.11505547  1
  Sc  Sc82  1  0.89630582  0.49466984  0.29509722  1
  Sc  Sc83  1  0.50537800  0.49945447  0.89626216  1
  Sc  Sc84  1  0.29381246  0.30142568  0.68277599  1
  Sc  Sc85  1  0.89676533  0.10790676  0.71274117  1
  Sc  Sc86  1  0.70466602  0.89284982  0.71794033  1
  Sc  Sc87  1  0.50282715  0.29701238  0.10318147  1
  Sc  Sc88  1  0.70537456  0.10290553  0.29297109  1
  Sc  Sc89  1  0.30282869  0.50182883  0.90872877  1
  Sc  Sc90  1  0.90329287  0.50767905  0.10435128  1
  Sc  Sc91  1  0.48915989  0.49492987  0.50051231  1
  Sc  Sc92  1  0.09216437  0.70298739  0.89913802  1
  Sc  Sc93  1  0.70186469  0.09371069  0.48928264  1
  Sc  Sc94  1  0.09613746  0.91390336  0.50311206  1
  Sc  Sc95  1  0.70892938  0.50217157  0.09990128  1
  Sc  Sc96  1  0.49799113  0.30428976  0.29578382  1
  Sc  Sc97  1  0.49423131  0.70050229  0.30522864  1
  Sc  Sc98  1  0.50244363  0.50429307  0.69733959  1
  Sc  Sc99  1  0.29626989  0.09600137  0.69546599  1
  Nb  Nb100  1  0.10216784  0.89974989  0.90207830  1
  Nb  Nb101  1  0.09834356  0.10322599  0.30941680  1
  Nb  Nb102  1  0.50405026  0.90272508  0.70095572  1
  Nb  Nb103  1  0.90255729  0.10713572  0.90185540  1
  Nb  Nb104  1  0.29838164  0.31065435  0.49836029  1
  Nb  Nb105  1  0.70154269  0.30582552  0.69270828  1
  Nb  Nb106  1  0.68971672  0.69369881  0.69340372  1
  Nb  Nb107  1  0.49993051  0.10361274  0.50191065  1
  Nb  Nb108  1  0.51120349  0.89973030  0.89914060  1
  Nb  Nb109  1  0.09994648  0.30239022  0.90433945  1
  Nb  Nb110  1  0.50333766  0.10072938  0.10211900  1
  Nb  Nb111  1  0.09944948  0.30351543  0.09676708  1
  Nb  Nb112  1  0.49596753  0.29136876  0.50198710  1
  Nb  Nb113  1  0.10139857  0.29766228  0.50023147  1
  Nb  Nb114  1  0.69666222  0.69899104  0.50401067  1
  Nb  Nb115  1  0.69803378  0.10013454  0.10161044  1
  Nb  Nb116  1  0.70353488  0.50329846  0.89833065  1
  Nb  Nb117  1  0.89161583  0.50274461  0.89752508  1
  Nb  Nb118  1  0.69713338  0.50263150  0.70460887  1
  Nb  Nb119  1  0.30750179  0.09646014  0.10124774  1
  Nb  Nb120  1  0.69866582  0.30401339  0.50436369  1
  Nb  Nb121  1  0.29620156  0.49005827  0.50482476  1
  Nb  Nb122  1  0.90573409  0.10791894  0.29667321  1
  Nb  Nb123  1  0.68870090  0.89690536  0.90407850  1
  Nb  Nb124  1  0.09928822  0.10687196  0.49616232  1
  Nb  Nb125  1  -0.00257564  0.19882834  0.59198345  1
  Nb  Nb126  1  0.19922179  0.59493925  0.79980378  1
  Nb  Nb127  1  0.60049354  0.59784690  0.20421664  1
  Nb  Nb128  1  0.60340869  -0.00565809  0.60068319  1
  Nb  Nb129  1  0.20256873  0.80585406  -0.00353452  1
  Nb  Nb130  1  0.59606512  0.20470321  0.40741461  1
  Nb  Nb131  1  0.40404480  0.00199865  0.00279758  1
  Nb  Nb132  1  0.00495850  0.00510498  0.80557615  1
  Nb  Nb133  1  0.60369819  0.59662821  0.40340467  1
  Nb  Nb134  1  -0.00457177  0.60148500  0.40218944  1
  Nb  Nb135  1  0.80212139  0.80707243  0.19508155  1
  Nb  Nb136  1  0.60526853  0.60026411  0.00091900  1
  Nb  Nb137  1  0.39668081  0.39161847  0.79739108  1
  Nb  Nb138  1  0.79444171  0.80114664  -0.00210028  1
  Nb  Nb139  1  0.00087674  0.19813915  0.19793074  1
  Nb  Nb140  1  0.19897429  0.40201076  0.80323378  1
  Nb  Nb141  1  0.20752163  -0.00263954  -0.00062668  1
  Nb  Nb142  1  0.20188507  0.59539771  0.20051153  1
  Nb  Nb143  1  0.60137488  0.79905032  0.60413752  1
  Nb  Nb144  1  0.79776786  0.20012212  0.59630091  1
  Nb  Nb145  1  0.79495722  0.00237961  0.60288477  1
  Nb  Nb146  1  0.00405735  0.20069923  0.00004116  1
  Nb  Nb147  1  0.19622295  0.39867782  0.20050194  1
  Nb  Nb148  1  0.80171855  0.40424703  -0.01020660  1
  Nb  Nb149  1  0.40293723  0.20670263  0.79869252  1
  Pd  Pd150  1  0.40453516  0.00178481  0.80030158  1
  Pd  Pd151  1  0.39962572  0.39689157  -0.00365892  1
  Pd  Pd152  1  0.40006523  0.00156578  0.59638796  1
  Pd  Pd153  1  0.59397984  0.39943862  0.40842392  1
  Pd  Pd154  1  0.40753901  0.79675282  0.60302736  1
  Pd  Pd155  1  0.79849719  0.60607422  0.79016941  1
  Pd  Pd156  1  0.59582641  0.00636842  0.20520520  1
  Pd  Pd157  1  0.19239946  0.20686149  0.20583402  1
  Pd  Pd158  1  0.80356784  0.60311763  0.60911012  1
  Pd  Pd159  1  0.00740487  0.40750177  0.79941058  1
  Pd  Pd160  1  0.00746765  0.00941237  -0.00709043  1
  Pd  Pd161  1  0.39856312  0.81308705  0.00699098  1
  Pd  Pd162  1  0.79577435  -0.00577005  -0.01192662  1
  Pd  Pd163  1  0.21284105  0.21219451  0.79504668  1
  Pd  Pd164  1  0.59690083  0.40486730  0.79450330  1
  Pd  Pd165  1  0.19730429  0.19466072  0.00434559  1
  Pd  Pd166  1  0.79645459  0.39689019  0.18947749  1
  Pd  Pd167  1  0.80382963  0.81072571  0.38778450  1
  Pd  Pd168  1  0.80032496  -0.00628579  0.21043278  1
  Pd  Pd169  1  0.80075765  0.59309826  0.40170798  1
  Pd  Pd170  1  -0.00436330  0.79620179  0.19654283  1
  Pd  Pd171  1  0.19822932  0.00059952  0.40220828  1
  Pd  Pd172  1  0.60125926  0.20354296  0.80064191  1
  Pd  Pd173  1  0.60301654  0.40418793  0.19343456  1
  Pd  Pd174  1  0.40832696  0.19576356  -0.00230195  1
  Pd  Pd175  1  -0.01277566  0.39864343  -0.00105728  1
  Pd  Pd176  1  0.00273069  0.79953810  0.59735313  1
  Pd  Pd177  1  0.41402987  0.59737118  -0.00326631  1
  Pd  Pd178  1  0.00206946  0.00703748  0.20423815  1
  Pd  Pd179  1  0.19540390  0.80192207  0.59499464  1
  Pd  Pd180  1  0.19688368  -0.00585871  0.79962054  1
  Pd  Pd181  1  0.39649906  0.00357913  0.39988646  1
  Pd  Pd182  1  0.40125674  0.60006241  0.59676810  1
  Pd  Pd183  1  0.40158535  0.59217249  0.20251288  1
  Pd  Pd184  1  0.19608091  0.79362656  0.18895822  1
  Pd  Pd185  1  0.59614745  0.00913449  0.39787827  1
  Pd  Pd186  1  0.80705805  -0.00360172  0.80355466  1
  Pd  Pd187  1  0.79354958  0.80686170  0.60873143  1
  Pd  Pd188  1  0.19974429  0.39958725  0.39370391  1
  Pd  Pd189  1  0.61383623  0.18763878  0.59262303  1
  Pd  Pd190  1  0.80290721  -0.00659933  0.39464826  1
  Pd  Pd191  1  0.79312431  0.19997468  0.40383944  1
  Pd  Pd192  1  0.39190730  0.19989212  0.60261493  1
  Pd  Pd193  1  0.19310888  0.80237917  0.40841100  1
  Pd  Pd194  1  0.19832813  0.60989575  -0.00065216  1
  Pd  Pd195  1  -0.01359740  0.01078494  0.60869540  1
  Pd  Pd196  1  0.00693776  0.79627873  0.40676611  1
  Pd  Pd197  1  0.60560880  0.19591580  0.00056957  1
  Pd  Pd198  1  0.59353219  0.40767484  0.59588825  1
  Pd  Pd199  1  0.19408762  0.59638220  0.39313893  1
  Rh  Rh200  1  0.40257356  0.80142099  0.19781231  1
  Rh  Rh201  1  0.80181694  0.79734197  0.80662088  1
  Rh  Rh202  1  0.40234514  0.20326284  0.40276011  1
  Rh  Rh203  1  0.20337480  0.20307411  0.40064727  1
  Rh  Rh204  1  0.39358503  0.58755711  0.80340939  1
  Rh  Rh205  1  0.80050985  0.39788052  0.60699598  1
  Rh  Rh206  1  0.79490756  0.20634473  0.79397586  1
  Rh  Rh207  1  0.19635224  0.20127005  0.59110292  1
  Rh  Rh208  1  0.39109130  0.39635566  0.19898755  1
  Rh  Rh209  1  0.59686647  0.60081888  0.59317007  1
  Rh  Rh210  1  -0.00668098  0.59737612  -0.00317239  1
  Rh  Rh211  1  -0.00280184  0.19719615  0.40159403  1
  Rh  Rh212  1  0.59440902  0.78734091  0.40604215  1
  Rh  Rh213  1  0.19724961  -0.00342887  0.19901500  1
  Rh  Rh214  1  0.40960501  0.80766061  0.79275173  1
  Rh  Rh215  1  0.00500144  0.59256831  0.80079133  1
  Rh  Rh216  1  0.40463642  0.39633294  0.60294136  1
  Rh  Rh217  1  0.79298591  0.60744999  0.20357977  1
  Rh  Rh218  1  0.60401406  -0.00320852  0.79692193  1
  Rh  Rh219  1  0.40308225  0.39356070  0.40620346  1
  Rh  Rh220  1  0.60555664  0.79050121  -0.00061648  1
  Rh  Rh221  1  0.40159651  0.59652640  0.40510441  1
  Rh  Rh222  1  0.59974663  0.59699360  0.80619764  1
  Rh  Rh223  1  0.00457716  0.00143925  0.39568496  1
  Rh  Rh224  1  0.00641771  0.60770770  0.20801821  1
  Rh  Rh225  1  0.20284111  0.39867178  0.00354677  1
  Rh  Rh226  1  0.19031979  0.39877393  0.60257368  1
  Rh  Rh227  1  0.80096567  0.19912189  0.20055255  1
  Rh  Rh228  1  0.80062469  0.40502134  0.40448166  1
  Rh  Rh229  1  0.79985162  0.20647324  -0.00424086  1
  Rh  Rh230  1  0.20704173  -0.00033311  0.59218429  1
  Rh  Rh231  1  0.61351765  0.41002134  0.00447581  1
  Rh  Rh232  1  0.59364749  0.80002082  0.79390788  1
  Rh  Rh233  1  0.00226549  0.19681627  0.79863656  1
  Rh  Rh234  1  0.59853687  0.00726346  0.00174831  1
  Rh  Rh235  1  0.00170125  0.38965695  0.59736879  1
  Rh  Rh236  1  0.40483613  0.20071361  0.19663273  1
  Rh  Rh237  1  -0.00237959  0.79806613  -0.00244821  1
  Rh  Rh238  1  0.79335393  0.40317329  0.79710429  1
  Rh  Rh239  1  0.20168926  0.59773726  0.60607069  1
  Rh  Rh240  1  0.19535807  0.79060798  0.80531513  1
  Rh  Rh241  1  0.79762063  0.60005715  -0.00194153  1
  Rh  Rh242  1  0.41000281  -0.00207805  0.19495490  1
  Rh  Rh243  1  -0.01035383  0.60866184  0.59188188  1
  Rh  Rh244  1  0.39818847  0.79627895  0.40356098  1
  Rh  Rh245  1  0.00361228  0.81138306  0.80052068  1
  Rh  Rh246  1  -0.00724763  0.41050713  0.40613065  1
  Rh  Rh247  1  0.59952154  0.19667163  0.20713383  1
  Rh  Rh248  1  0.00097982  0.39005815  0.19806660  1
  Rh  Rh249  1  0.60515119  0.79083436  0.20547479  1
