# generated using pymatgen
data_ZrScNbPdRh
_symmetry_space_group_name_H-M   'P 1'
_cell_length_a   16.55260340
_cell_length_b   16.55411487
_cell_length_c   16.55445014
_cell_angle_alpha   90.03256136
_cell_angle_beta   90.01693825
_cell_angle_gamma   89.99562612
_symmetry_Int_Tables_number   1
_chemical_formula_structural   ZrScNbPdRh
_chemical_formula_sum   'Zr50 Sc50 Nb50 Pd50 Rh50'
_cell_volume   4536.14515789
_cell_formula_units_Z   50
loop_
 _symmetry_equiv_pos_site_id
 _symmetry_equiv_pos_as_xyz
  1  'x, y, z'
loop_
 _atom_site_type_symbol
 _atom_site_label
 _atom_site_symmetry_multiplicity
 _atom_site_fract_x
 _atom_site_fract_y
 _atom_site_fract_z
 _atom_site_occupancy
  Zr  Zr0  1  0.89855549  0.89943365  0.29696184  1
  Zr  Zr1  1  0.30562561  0.91567022  0.49649652  1
  Zr  Zr2  1  0.09309804  0.50715022  0.09355906  1
  Zr  Zr3  1  0.69844079  0.70805585  0.10161874  1
  Zr  Zr4  1  0.69146080  0.89490699  0.69658974  1
  Zr  Zr5  1  0.49374883  0.30542459  0.90880219  1
  Zr  Zr6  1  0.70303841  0.49639171  0.71185258  1
  Zr  Zr7  1  0.10006554  0.90759535  0.50025425  1
  Zr  Zr8  1  0.49777803  0.69765456  0.49442382  1
  Zr  Zr9  1  0.70117820  0.89290069  0.90280472  1
  Zr  Zr10  1  0.09945077  0.09955366  0.30581796  1
  Zr  Zr11  1  0.50670594  0.29657034  0.70325569  1
  Zr  Zr12  1  0.11611422  0.69692426  0.90536733  1
  Zr  Zr13  1  0.29950530  0.29315206  0.50184652  1
  Zr  Zr14  1  0.29996829  0.70694293  0.70825230  1
  Zr  Zr15  1  0.70616818  0.29877292  0.09562961  1
  Zr  Zr16  1  0.10331110  0.09828171  0.09392367  1
  Zr  Zr17  1  0.89926354  0.49970186  0.71036220  1
  Zr  Zr18  1  0.09389452  0.89608447  0.29395371  1
  Zr  Zr19  1  0.89533330  0.70380323  0.50927837  1
  Zr  Zr20  1  0.10024243  0.09548858  0.90094094  1
  Zr  Zr21  1  0.69022565  0.30526813  0.89783821  1
  Zr  Zr22  1  0.30735191  0.30135533  0.10143560  1
  Zr  Zr23  1  0.10084843  0.10242066  0.50423191  1
  Zr  Zr24  1  0.50471098  0.50680999  0.49644299  1
  Zr  Zr25  1  0.30423894  0.30248863  0.69483968  1
  Zr  Zr26  1  0.29396408  0.29477892  0.29256637  1
  Zr  Zr27  1  0.90010169  0.10427543  0.69617758  1
  Zr  Zr28  1  0.70454088  0.49768364  0.90349879  1
  Zr  Zr29  1  0.09575876  0.30286616  0.89968279  1
  Zr  Zr30  1  0.09728696  0.89364551  0.89958803  1
  Zr  Zr31  1  0.09783738  0.50091156  0.89921755  1
  Zr  Zr32  1  0.69074487  0.70389937  0.51127566  1
  Zr  Zr33  1  0.50027345  0.90307943  0.89871757  1
  Zr  Zr34  1  0.89013513  0.50273523  0.29711610  1
  Zr  Zr35  1  0.49430592  0.69094654  0.29857689  1
  Zr  Zr36  1  0.10752376  0.49506173  0.49745314  1
  Zr  Zr37  1  0.30619567  0.10652245  0.10519818  1
  Zr  Zr38  1  0.29595337  0.90046180  0.30238407  1
  Zr  Zr39  1  0.90003528  0.09513412  0.30481082  1
  Zr  Zr40  1  0.89997359  0.71170140  0.89264144  1
  Zr  Zr41  1  0.89206099  0.89707621  0.09839881  1
  Zr  Zr42  1  0.69440929  0.29344477  0.48961186  1
  Zr  Zr43  1  0.49411468  0.51062862  0.10475478  1
  Zr  Zr44  1  0.50086837  0.69869106  0.90504665  1
  Zr  Zr45  1  0.50796957  0.49882790  0.90354960  1
  Zr  Zr46  1  0.69543817  0.90140893  0.10346001  1
  Zr  Zr47  1  0.30286384  0.50148060  0.69290902  1
  Zr  Zr48  1  0.69087607  0.11277706  0.70568157  1
  Zr  Zr49  1  0.90093594  0.90279910  0.90473105  1
  Sc  Sc50  1  0.51015254  0.69798649  0.68674527  1
  Sc  Sc51  1  0.50250340  0.10383414  0.29427118  1
  Sc  Sc52  1  0.70166931  0.69740355  0.89780860  1
  Sc  Sc53  1  0.89602622  0.89696487  0.49613087  1
  Sc  Sc54  1  0.50741734  0.49904999  0.29662371  1
  Sc  Sc55  1  0.90786412  0.88244583  0.69478176  1
  Sc  Sc56  1  0.29810333  0.51303001  0.90200933  1
  Sc  Sc57  1  0.49189724  0.10121048  0.49272977  1
  Sc  Sc58  1  0.30044297  0.49862590  0.30128998  1
  Sc  Sc59  1  0.30124220  0.89542333  0.88282296  1
  Sc  Sc60  1  0.30523125  0.10349728  0.30459529  1
  Sc  Sc61  1  0.69306828  0.10487258  0.10311783  1
  Sc  Sc62  1  0.49771144  0.10185770  0.70809223  1
  Sc  Sc63  1  0.50358012  0.90884516  0.30496041  1
  Sc  Sc64  1  0.10419494  0.50112511  0.70193969  1
  Sc  Sc65  1  0.89649615  0.30254733  0.90681522  1
  Sc  Sc66  1  0.10916607  0.29536425  0.68912221  1
  Sc  Sc67  1  0.90509604  0.29009838  0.49180674  1
  Sc  Sc68  1  0.29740134  0.69784412  0.09728514  1
  Sc  Sc69  1  0.70225791  0.50435795  0.49032433  1
  Sc  Sc70  1  0.10365204  0.49621284  0.31067494  1
  Sc  Sc71  1  0.30063738  0.90275774  0.10274676  1
  Sc  Sc72  1  0.89370230  0.49877781  0.09816134  1
  Sc  Sc73  1  0.28940135  0.09251294  0.70168293  1
  Sc  Sc74  1  0.70159950  0.70407166  0.29825108  1
  Sc  Sc75  1  0.09718705  0.70995873  0.69927725  1
  Sc  Sc76  1  0.90349864  0.49177986  0.90478070  1
  Sc  Sc77  1  0.50046098  0.50105309  0.69468861  1
  Sc  Sc78  1  0.30260645  0.49836446  0.49497227  1
  Sc  Sc79  1  0.29347799  0.09708317  0.90362537  1
  Sc  Sc80  1  0.88693879  0.29602829  0.30362034  1
  Sc  Sc81  1  0.08965319  0.69400039  0.49331388  1
  Sc  Sc82  1  0.70447406  0.90587099  0.29816160  1
  Sc  Sc83  1  0.90001263  0.69450539  0.10844128  1
  Sc  Sc84  1  0.90244192  0.51013606  0.49354496  1
  Sc  Sc85  1  0.10787909  0.29675672  0.10011120  1
  Sc  Sc86  1  0.70212604  0.49743298  0.10311882  1
  Sc  Sc87  1  0.09567243  0.89049334  0.09941474  1
  Sc  Sc88  1  0.70125059  0.11112864  0.90396052  1
  Sc  Sc89  1  0.69941722  0.89393195  0.49166315  1
  Sc  Sc90  1  0.49142741  0.90399958  0.70904315  1
  Sc  Sc91  1  0.69730557  0.10142657  0.30311940  1
  Sc  Sc92  1  0.90340358  0.09846772  0.49260110  1
  Sc  Sc93  1  0.69327668  0.29537477  0.29513753  1
  Sc  Sc94  1  0.71042380  0.69451652  0.70064990  1
  Sc  Sc95  1  0.10725929  0.29858785  0.49304653  1
  Sc  Sc96  1  0.49436014  0.09673904  0.90602416  1
  Sc  Sc97  1  0.50054614  0.29581325  0.10185223  1
  Sc  Sc98  1  0.50006916  0.28786715  0.50226124  1
  Sc  Sc99  1  0.89512147  0.09970698  0.08688403  1
  Nb  Nb100  1  0.49964404  0.70260914  0.10564292  1
  Nb  Nb101  1  0.29787857  0.89911267  0.69709583  1
  Nb  Nb102  1  0.50063866  0.90285256  0.09929027  1
  Nb  Nb103  1  0.10400354  0.70044783  0.10736170  1
  Nb  Nb104  1  0.09740240  0.09431865  0.69967452  1
  Nb  Nb105  1  0.30129721  0.30348190  0.90274018  1
  Nb  Nb106  1  0.30218979  0.70387646  0.89518803  1
  Nb  Nb107  1  0.10766952  0.90687415  0.69586306  1
  Nb  Nb108  1  0.90527254  0.69518974  0.69726648  1
  Nb  Nb109  1  0.49598823  0.09071674  0.10309809  1
  Nb  Nb110  1  0.69895950  0.29951626  0.70139793  1
  Nb  Nb111  1  0.30597093  0.69580164  0.49296797  1
  Nb  Nb112  1  0.09900487  0.29811750  0.29831470  1
  Nb  Nb113  1  0.49907608  0.90097402  0.50229714  1
  Nb  Nb114  1  0.70150933  0.09882860  0.50355728  1
  Nb  Nb115  1  0.70183660  0.48545511  0.30101690  1
  Nb  Nb116  1  0.29804375  0.69874177  0.30376688  1
  Nb  Nb117  1  0.29645517  0.10035600  0.49267936  1
  Nb  Nb118  1  0.90028427  0.30258654  0.10403997  1
  Nb  Nb119  1  0.29727784  0.50066185  0.10766186  1
  Nb  Nb120  1  0.10151908  0.70664257  0.29122368  1
  Nb  Nb121  1  0.90840801  0.70397555  0.30290754  1
  Nb  Nb122  1  0.90010376  0.30467122  0.70424433  1
  Nb  Nb123  1  0.50233130  0.29619477  0.30680077  1
  Nb  Nb124  1  0.90362734  0.09768701  0.89499267  1
  Nb  Nb125  1  0.79232329  0.00359336  0.60444468  1
  Nb  Nb126  1  0.40484464  0.79784384  0.19739390  1
  Nb  Nb127  1  0.00017263  0.60676726  0.80119498  1
  Nb  Nb128  1  -0.00558999  0.39925402  0.60004086  1
  Nb  Nb129  1  0.40567225  0.79966830  0.00342214  1
  Nb  Nb130  1  0.00128175  0.19660262  0.79659287  1
  Nb  Nb131  1  0.59986416  0.00138741  0.59647815  1
  Nb  Nb132  1  0.39114994  0.20803958  0.80575098  1
  Nb  Nb133  1  0.20523388  0.40405450  0.00037231  1
  Nb  Nb134  1  0.20681432  0.39690862  0.80487724  1
  Nb  Nb135  1  0.40574224  0.39181869  0.39694608  1
  Nb  Nb136  1  0.19730344  0.00168021  0.20170115  1
  Nb  Nb137  1  0.20154347  0.79451694  0.40169992  1
  Nb  Nb138  1  -0.00150853  0.39326268  0.20313321  1
  Nb  Nb139  1  0.80310781  0.00092225  0.79656788  1
  Nb  Nb140  1  0.20694119  0.80218135  0.59206230  1
  Nb  Nb141  1  0.20539628  0.61041087  0.59428982  1
  Nb  Nb142  1  0.60969892  0.39521600  0.59941891  1
  Nb  Nb143  1  -0.00153739  0.20294513  0.19977655  1
  Nb  Nb144  1  0.79663496  0.20407127  0.60250527  1
  Nb  Nb145  1  0.40112474  0.60586511  0.80113483  1
  Nb  Nb146  1  0.39507327  0.80392383  0.59433952  1
  Nb  Nb147  1  -0.00048606  0.00146814  0.79519891  1
  Nb  Nb148  1  0.19651920  0.60559444  0.20269133  1
  Nb  Nb149  1  0.80155300  0.39211270  0.60165700  1
  Pd  Pd150  1  0.80389099  0.19358972  0.19878840  1
  Pd  Pd151  1  -0.00220591  0.20819581  0.60164534  1
  Pd  Pd152  1  0.59469424  0.60308714  0.79548739  1
  Pd  Pd153  1  0.60569615  0.00564729  -0.00039199  1
  Pd  Pd154  1  0.39766257  0.40694033  0.80246957  1
  Pd  Pd155  1  0.20461332  -0.01093329  0.00409371  1
  Pd  Pd156  1  0.59768926  0.39566033  0.19510360  1
  Pd  Pd157  1  0.21194087  0.80524863  0.00302624  1
  Pd  Pd158  1  0.79387270  0.61014901  0.39653605  1
  Pd  Pd159  1  0.80374366  0.60548305  -0.00291326  1
  Pd  Pd160  1  -0.01140563  -0.00618163  0.60119228  1
  Pd  Pd161  1  0.39731905  -0.00398967  0.20700937  1
  Pd  Pd162  1  0.61189558  0.59671784  0.20389019  1
  Pd  Pd163  1  0.79289261  0.60223404  0.20341919  1
  Pd  Pd164  1  0.60588464  0.00432390  0.80224134  1
  Pd  Pd165  1  0.00095359  0.00576954  0.18840991  1
  Pd  Pd166  1  0.00182313  0.60005208  0.39116829  1
  Pd  Pd167  1  0.79051541  0.00550027  -0.00487130  1
  Pd  Pd168  1  0.80264700  0.39689056  0.40671684  1
  Pd  Pd169  1  0.18927956  0.41010544  0.19569743  1
  Pd  Pd170  1  -0.00430369  0.20386208  0.00052752  1
  Pd  Pd171  1  0.40019642  0.80504616  0.39729530  1
  Pd  Pd172  1  0.41360000  0.39925168  0.58778988  1
  Pd  Pd173  1  0.79916361  0.80481935  0.79193712  1
  Pd  Pd174  1  0.59328571  0.80681148  0.21022176  1
  Pd  Pd175  1  0.60677990  0.59938598  0.00813604  1
  Pd  Pd176  1  0.40560829  0.00457763  0.60518228  1
  Pd  Pd177  1  0.79524427  0.00880436  0.19758245  1
  Pd  Pd178  1  -0.00771813  0.39659378  0.39893648  1
  Pd  Pd179  1  -0.00182144  0.79056727  0.00827913  1
  Pd  Pd180  1  0.39033066  -0.00776117  -0.00559014  1
  Pd  Pd181  1  0.80659121  0.20348105  0.80421031  1
  Pd  Pd182  1  0.79855106  0.79441255  0.39770279  1
  Pd  Pd183  1  0.59943846  0.00488377  0.40504242  1
  Pd  Pd184  1  0.20587102  0.20694517  0.00012027  1
  Pd  Pd185  1  0.19944738  0.20418827  0.79754534  1
  Pd  Pd186  1  0.61041217  0.60071606  0.39012066  1
  Pd  Pd187  1  0.00477516  0.59154704  0.20946691  1
  Pd  Pd188  1  0.59125433  0.19560595  0.00386997  1
  Pd  Pd189  1  -0.00854181  0.61070343  -0.00751588  1
  Pd  Pd190  1  0.59607555  0.79192887  0.79562793  1
  Pd  Pd191  1  0.59800476  0.80098002  0.39286429  1
  Pd  Pd192  1  0.39447585  0.60450446  -0.00030155  1
  Pd  Pd193  1  0.00781762  0.59392600  0.60579328  1
  Pd  Pd194  1  0.00270406  0.80102590  0.40423729  1
  Pd  Pd195  1  0.79732928  0.58995182  0.59981622  1
  Pd  Pd196  1  0.59673839  0.79945743  0.00061836  1
  Pd  Pd197  1  0.39456918  0.41251020  0.00426879  1
  Pd  Pd198  1  0.40800181  0.39804380  0.20786456  1
  Pd  Pd199  1  0.39495170  0.18644493  0.60909440  1
  Rh  Rh200  1  0.59899328  0.40579411  0.01096341  1
  Rh  Rh201  1  0.80192309  0.20365609  -0.00225861  1
  Rh  Rh202  1  0.59842335  0.19205479  0.39788069  1
  Rh  Rh203  1  0.38895855  0.60486789  0.20254007  1
  Rh  Rh204  1  0.59569785  0.19930871  0.19726794  1
  Rh  Rh205  1  0.00715157  0.80087490  0.59490985  1
  Rh  Rh206  1  0.59565908  0.40194480  0.79689600  1
  Rh  Rh207  1  0.81185308  0.60058932  0.80916488  1
  Rh  Rh208  1  0.20645059  0.59746035  0.01009900  1
  Rh  Rh209  1  0.00499893  0.39325593  0.01436948  1
  Rh  Rh210  1  0.39113087  0.01095277  0.80136429  1
  Rh  Rh211  1  0.60202135  0.19714821  0.59315393  1
  Rh  Rh212  1  0.80226922  0.39823307  0.20099719  1
  Rh  Rh213  1  0.39307273  0.61130679  0.60687850  1
  Rh  Rh214  1  0.19727832  0.60730755  0.39807706  1
  Rh  Rh215  1  -0.00240723  -0.00478258  0.40347613  1
  Rh  Rh216  1  0.20415149  0.18959133  0.59800081  1
  Rh  Rh217  1  0.41147822  0.79313638  0.79857010  1
  Rh  Rh218  1  0.79830579  0.39419971  0.80648176  1
  Rh  Rh219  1  0.19361883  0.40856477  0.60311819  1
  Rh  Rh220  1  0.79877222  0.80197048  0.60266248  1
  Rh  Rh221  1  0.19232882  0.80588363  0.79486738  1
  Rh  Rh222  1  0.59321176  0.39820275  0.40423566  1
  Rh  Rh223  1  0.58400062  0.20264166  0.81665249  1
  Rh  Rh224  1  0.39784015  0.20353385  0.39512705  1
  Rh  Rh225  1  0.20001509  0.20039388  0.39983347  1
  Rh  Rh226  1  0.58931962  0.81052539  0.59800366  1
  Rh  Rh227  1  0.79959449  -0.00032377  0.40519420  1
  Rh  Rh228  1  0.79904781  0.79364867  0.00468502  1
  Rh  Rh229  1  0.20142732  0.59795923  0.79038541  1
  Rh  Rh230  1  0.80449271  0.79749212  0.20389188  1
  Rh  Rh231  1  0.40514775  0.00643694  0.39521600  1
  Rh  Rh232  1  0.40027223  0.19399327  -0.00201872  1
  Rh  Rh233  1  0.19239071  0.18931443  0.20147100  1
  Rh  Rh234  1  0.40048604  0.58561307  0.39241034  1
  Rh  Rh235  1  0.40890541  0.20187019  0.20081627  1
  Rh  Rh236  1  0.19545695  -0.00590516  0.80202441  1
  Rh  Rh237  1  0.01326991  0.39573275  0.78780851  1
  Rh  Rh238  1  0.20332192  0.00318128  0.59595748  1
  Rh  Rh239  1  0.79912355  0.39733655  0.00087370  1
  Rh  Rh240  1  0.21271683  0.39061919  0.39875422  1
  Rh  Rh241  1  0.19608098  -0.00040506  0.39370302  1
  Rh  Rh242  1  0.60018586  0.00134490  0.19792027  1
  Rh  Rh243  1  -0.00970997  0.79716006  0.19458438  1
  Rh  Rh244  1  0.79580470  0.19313011  0.40234579  1
  Rh  Rh245  1  0.00287411  0.20266708  0.39141968  1
  Rh  Rh246  1  0.00731768  0.80007047  0.79707069  1
  Rh  Rh247  1  0.20939618  0.79918368  0.20356192  1
  Rh  Rh248  1  0.61342262  0.58559081  0.60321400  1
  Rh  Rh249  1  -0.00034046  -0.00321338  -0.00079797  1
