# generated using pymatgen
data_ZrScNbPdRh
_symmetry_space_group_name_H-M   'P 1'
_cell_length_a   16.56207392
_cell_length_b   16.56860436
_cell_length_c   16.55910255
_cell_angle_alpha   90.00361108
_cell_angle_beta   89.96199868
_cell_angle_gamma   89.98419045
_symmetry_Int_Tables_number   1
_chemical_formula_structural   ZrScNbPdRh
_chemical_formula_sum   'Zr50 Sc50 Nb50 Pd50 Rh50'
_cell_volume   4543.98960187
_cell_formula_units_Z   50
loop_
 _symmetry_equiv_pos_site_id
 _symmetry_equiv_pos_as_xyz
  1  'x, y, z'
loop_
 _atom_site_type_symbol
 _atom_site_label
 _atom_site_symmetry_multiplicity
 _atom_site_fract_x
 _atom_site_fract_y
 _atom_site_fract_z
 _atom_site_occupancy
  Zr  Zr0  1  0.49590013  0.50887370  0.69312824  1
  Zr  Zr1  1  0.90771538  0.51051599  0.29279833  1
  Zr  Zr2  1  0.89780145  0.31175500  0.90395741  1
  Zr  Zr3  1  0.28775452  0.70280194  0.30222030  1
  Zr  Zr4  1  0.49284663  0.50440071  0.10066948  1
  Zr  Zr5  1  0.70035495  0.70042125  0.69985354  1
  Zr  Zr6  1  0.49097162  0.12046363  0.90559910  1
  Zr  Zr7  1  0.71356569  0.50531424  0.89495716  1
  Zr  Zr8  1  0.10183842  0.30121170  0.90250175  1
  Zr  Zr9  1  0.50572106  0.09363672  0.48789955  1
  Zr  Zr10  1  0.29734773  0.90423156  0.09062320  1
  Zr  Zr11  1  0.69935682  0.50150753  0.70364686  1
  Zr  Zr12  1  0.89877986  0.50188298  0.08891903  1
  Zr  Zr13  1  0.49961060  0.88996880  0.90061322  1
  Zr  Zr14  1  0.11017709  0.88893795  0.90651475  1
  Zr  Zr15  1  0.70879956  0.70720484  0.30508730  1
  Zr  Zr16  1  0.70278119  0.09898654  0.09427498  1
  Zr  Zr17  1  0.29897018  0.50814592  0.49858200  1
  Zr  Zr18  1  0.69794028  0.90487601  0.10255128  1
  Zr  Zr19  1  0.48706107  0.10521237  0.29934880  1
  Zr  Zr20  1  0.29238147  0.90619851  0.29600385  1
  Zr  Zr21  1  0.49886514  0.69838150  0.50088219  1
  Zr  Zr22  1  0.30547985  0.10002109  0.09586197  1
  Zr  Zr23  1  0.29890387  0.10906022  0.69433094  1
  Zr  Zr24  1  0.91850118  0.91110877  0.89949233  1
  Zr  Zr25  1  0.69315076  0.89556034  0.70182760  1
  Zr  Zr26  1  0.69430367  0.90121949  0.90484671  1
  Zr  Zr27  1  0.51093797  0.10744896  0.69996954  1
  Zr  Zr28  1  0.10837437  0.88900806  0.29570982  1
  Zr  Zr29  1  0.09376113  0.09296380  0.90091071  1
  Zr  Zr30  1  0.30779881  0.88810279  0.70582245  1
  Zr  Zr31  1  0.10306758  0.50363998  0.30540623  1
  Zr  Zr32  1  0.50265390  0.10215402  0.10729333  1
  Zr  Zr33  1  0.90899687  0.49586004  0.49599512  1
  Zr  Zr34  1  0.89642666  0.88657552  0.29940217  1
  Zr  Zr35  1  0.10131350  0.89666302  0.09376226  1
  Zr  Zr36  1  0.10342645  0.29777965  0.70338719  1
  Zr  Zr37  1  0.89575428  0.30425992  0.50200999  1
  Zr  Zr38  1  0.69580257  0.28769754  0.69522553  1
  Zr  Zr39  1  0.50393829  0.89785092  0.09765864  1
  Zr  Zr40  1  0.70045724  0.49592857  0.49570767  1
  Zr  Zr41  1  0.90599972  0.09958267  0.50593010  1
  Zr  Zr42  1  0.90165017  0.10409450  0.69924019  1
  Zr  Zr43  1  0.30094285  0.50359534  0.70283903  1
  Zr  Zr44  1  0.69346014  0.10717750  0.50669128  1
  Zr  Zr45  1  0.89711379  0.68694724  0.91021368  1
  Zr  Zr46  1  0.10404190  0.70179983  0.70912088  1
  Zr  Zr47  1  0.29752695  0.29860316  0.30480555  1
  Zr  Zr48  1  0.70347973  0.30261074  0.49659934  1
  Zr  Zr49  1  0.50466609  0.30291584  0.09533679  1
  Sc  Sc50  1  0.29525672  0.50368639  0.29594024  1
  Sc  Sc51  1  0.10856696  0.29778793  0.29477596  1
  Sc  Sc52  1  0.10333759  0.50078189  0.70153607  1
  Sc  Sc53  1  0.10137084  0.90246965  0.48989197  1
  Sc  Sc54  1  0.30024941  0.89000286  0.48893806  1
  Sc  Sc55  1  0.30709205  0.69298525  0.70517640  1
  Sc  Sc56  1  0.09931930  0.09938503  0.11029205  1
  Sc  Sc57  1  0.89951825  0.49194925  0.70170378  1
  Sc  Sc58  1  0.90577744  0.89255197  0.50757178  1
  Sc  Sc59  1  0.29412166  0.28739855  0.90371234  1
  Sc  Sc60  1  0.89732880  0.09279872  0.09812171  1
  Sc  Sc61  1  0.10202281  0.09837212  0.50409620  1
  Sc  Sc62  1  0.49818215  0.28936336  0.49746414  1
  Sc  Sc63  1  0.69561139  0.50076983  0.30050253  1
  Sc  Sc64  1  0.49902856  0.29726671  0.29741176  1
  Sc  Sc65  1  0.90852091  0.08933387  0.28938372  1
  Sc  Sc66  1  0.08402973  0.89406867  0.71591838  1
  Sc  Sc67  1  0.50423691  0.69422346  0.30299181  1
  Sc  Sc68  1  0.69457963  0.71177899  0.10950263  1
  Sc  Sc69  1  0.30159888  0.70542533  0.89316049  1
  Sc  Sc70  1  0.09526544  0.10851819  0.69728339  1
  Sc  Sc71  1  0.69431144  0.30592034  0.90165407  1
  Sc  Sc72  1  0.10943752  0.08680126  0.30222268  1
  Sc  Sc73  1  0.10086865  0.48959884  0.89524482  1
  Sc  Sc74  1  0.69895181  0.89343869  0.29938716  1
  Sc  Sc75  1  0.67970303  0.09167853  0.30388919  1
  Sc  Sc76  1  0.90665027  0.69267206  0.10936067  1
  Sc  Sc77  1  0.89678996  0.30887408  0.30100036  1
  Sc  Sc78  1  0.69432482  0.88783957  0.49865179  1
  Sc  Sc79  1  0.69921356  0.10871891  0.89937241  1
  Sc  Sc80  1  0.30175112  0.49976316  0.10504204  1
  Sc  Sc81  1  0.29892532  0.10765389  0.49431760  1
  Sc  Sc82  1  0.69745472  0.69464465  0.89909826  1
  Sc  Sc83  1  0.51429182  0.50159636  0.90602792  1
  Sc  Sc84  1  0.09852772  0.69358946  0.50106335  1
  Sc  Sc85  1  0.10219184  0.30206490  0.49373822  1
  Sc  Sc86  1  0.89576875  0.10390165  0.90764495  1
  Sc  Sc87  1  0.90163269  0.29804045  0.69469197  1
  Sc  Sc88  1  0.50620537  0.89145553  0.70376413  1
  Sc  Sc89  1  0.30242724  0.70113569  0.49721472  1
  Sc  Sc90  1  0.69566143  0.31177435  0.30138431  1
  Sc  Sc91  1  0.90866986  0.71013036  0.69311526  1
  Sc  Sc92  1  0.50146695  0.49976250  0.29604851  1
  Sc  Sc93  1  0.30796475  0.68955765  0.09792728  1
  Sc  Sc94  1  0.90590912  0.70732242  0.50201056  1
  Sc  Sc95  1  0.69462139  0.70465117  0.49638152  1
  Sc  Sc96  1  0.50103008  0.91451557  0.30649839  1
  Sc  Sc97  1  0.10709993  0.49651695  0.09717532  1
  Sc  Sc98  1  0.69145732  0.49210992  0.10187758  1
  Sc  Sc99  1  0.49988678  0.69601863  0.09673766  1
  Nb  Nb100  1  0.10464239  0.30256617  0.09957624  1
  Nb  Nb101  1  0.89581265  0.89893400  0.70179319  1
  Nb  Nb102  1  0.49580826  0.30537690  0.89825991  1
  Nb  Nb103  1  0.70107884  0.09822068  0.69917730  1
  Nb  Nb104  1  0.89813497  0.50353859  0.89629894  1
  Nb  Nb105  1  0.10365309  0.49980497  0.49739459  1
  Nb  Nb106  1  0.49851256  0.70437723  0.70260982  1
  Nb  Nb107  1  0.28544628  0.30771494  0.09940422  1
  Nb  Nb108  1  0.30306544  0.29961443  0.68775413  1
  Nb  Nb109  1  0.08737318  0.69675493  0.28859054  1
  Nb  Nb110  1  0.49584613  0.89326985  0.50441225  1
  Nb  Nb111  1  0.29908545  0.09206362  0.90302568  1
  Nb  Nb112  1  0.10029436  0.69865385  0.08824261  1
  Nb  Nb113  1  0.89002543  0.90723000  0.09792646  1
  Nb  Nb114  1  0.49887569  0.50429123  0.49809769  1
  Nb  Nb115  1  0.09778691  0.70048116  0.90372792  1
  Nb  Nb116  1  0.89718084  0.30038798  0.10112075  1
  Nb  Nb117  1  0.30417422  0.09591858  0.29570329  1
  Nb  Nb118  1  0.49519401  0.30078300  0.70371259  1
  Nb  Nb119  1  0.29816981  0.30119600  0.50232044  1
  Nb  Nb120  1  0.90471549  0.69637827  0.30065581  1
  Nb  Nb121  1  0.49874880  0.70026449  0.90440859  1
  Nb  Nb122  1  0.30039360  0.90447718  0.90055714  1
  Nb  Nb123  1  0.70532582  0.29864442  0.10274961  1
  Nb  Nb124  1  0.29975638  0.50043523  0.89986381  1
  Nb  Nb125  1  0.80831050  0.60269282  0.40032068  1
  Nb  Nb126  1  0.39656195  0.39793425  -0.00622433  1
  Nb  Nb127  1  0.59068480  0.40006134  0.60083399  1
  Nb  Nb128  1  0.79724255  0.20191041  0.20093832  1
  Nb  Nb129  1  0.80305386  0.19123177  0.39345450  1
  Nb  Nb130  1  0.20716403  -0.00192370  0.80034400  1
  Nb  Nb131  1  -0.00521740  0.19759329  0.39617442  1
  Nb  Nb132  1  0.39581682  0.40150781  0.40842931  1
  Nb  Nb133  1  0.20631025  -0.00978477  0.60820801  1
  Nb  Nb134  1  0.20644227  0.39985779  0.59626927  1
  Nb  Nb135  1  0.80534699  0.80569273  0.80598527  1
  Nb  Nb136  1  0.39723161  0.80411489  0.20161010  1
  Nb  Nb137  1  0.19909307  0.60034958  -0.00856974  1
  Nb  Nb138  1  0.40054314  -0.00378143  0.60190239  1
  Nb  Nb139  1  0.79522738  -0.00178565  0.60441278  1
  Nb  Nb140  1  0.19930584  0.80411980  0.60520474  1
  Nb  Nb141  1  0.39749511  0.00428646  0.80123052  1
  Nb  Nb142  1  0.80195598  0.59798101  0.59513024  1
  Nb  Nb143  1  0.80128890  0.00089082  0.40759841  1
  Nb  Nb144  1  0.80417552  0.80630592  0.00080671  1
  Nb  Nb145  1  0.79836002  -0.00149026  0.79442279  1
  Nb  Nb146  1  0.00006715  0.21059684  0.01054029  1
  Nb  Nb147  1  -0.00180455  0.59922431  0.80767752  1
  Nb  Nb148  1  0.00164697  0.39621078  0.19120219  1
  Nb  Nb149  1  0.39943693  0.39582792  0.80080582  1
  Pd  Pd150  1  0.79174081  0.60041119  0.20025574  1
  Pd  Pd151  1  0.20593893  0.19373536  0.20089256  1
  Pd  Pd152  1  0.00609595  0.79447256  0.40135292  1
  Pd  Pd153  1  0.00345966  -0.01308698  0.19831342  1
  Pd  Pd154  1  0.19377137  0.19355914  0.39984389  1
  Pd  Pd155  1  0.59145887  0.00955235  -0.00771529  1
  Pd  Pd156  1  0.00643927  0.39272698  0.38984917  1
  Pd  Pd157  1  0.60683347  0.60237484  0.00586747  1
  Pd  Pd158  1  0.40785459  0.19118056  0.59097227  1
  Pd  Pd159  1  0.59257619  0.60427148  0.80199483  1
  Pd  Pd160  1  0.40480952  0.80000844  0.38652538  1
  Pd  Pd161  1  -0.00367684  -0.00082369  0.39709544  1
  Pd  Pd162  1  0.60354879  0.60160917  0.20252154  1
  Pd  Pd163  1  0.80324824  0.40204208  0.20231573  1
  Pd  Pd164  1  0.79131570  0.40150425  0.00133091  1
  Pd  Pd165  1  0.21037640  0.39386144  0.79452420  1
  Pd  Pd166  1  0.79004708  0.00588518  0.21298329  1
  Pd  Pd167  1  -0.00663298  0.20737263  0.20279423  1
  Pd  Pd168  1  -0.00403743  0.80354946  0.18946263  1
  Pd  Pd169  1  0.58702757  0.80323483  0.21025039  1
  Pd  Pd170  1  0.40154705  0.40133948  0.59650481  1
  Pd  Pd171  1  0.39135735  0.20339109  0.79876284  1
  Pd  Pd172  1  0.80148783  0.20093705  0.80328488  1
  Pd  Pd173  1  0.20277999  0.19475763  0.80216996  1
  Pd  Pd174  1  0.59554105  0.00915060  0.80980114  1
  Pd  Pd175  1  0.39524169  0.79407876  0.00466183  1
  Pd  Pd176  1  0.00310475  0.40216051  0.00286007  1
  Pd  Pd177  1  0.39150322  0.21067395  0.19205483  1
  Pd  Pd178  1  0.59518339  0.40037965  0.79432923  1
  Pd  Pd179  1  0.39932616  0.59482199  0.39152507  1
  Pd  Pd180  1  0.39768774  0.39590757  0.20164619  1
  Pd  Pd181  1  -0.00754805  0.20411730  0.81129615  1
  Pd  Pd182  1  0.00618706  -0.00842603  0.60647595  1
  Pd  Pd183  1  0.60532278  0.60023171  0.59491573  1
  Pd  Pd184  1  -0.01104561  0.79933748  0.00642709  1
  Pd  Pd185  1  0.58473334  0.39776681  0.40373279  1
  Pd  Pd186  1  0.40998591  0.59494159  0.81108576  1
  Pd  Pd187  1  0.79945650  0.39040351  0.79248175  1
  Pd  Pd188  1  -0.00362540  0.59595836  0.60802428  1
  Pd  Pd189  1  0.01255847  0.39880417  0.60314625  1
  Pd  Pd190  1  0.20618153  0.79161942  0.18568374  1
  Pd  Pd191  1  0.60512647  0.20681284  -0.00166164  1
  Pd  Pd192  1  0.39195012  -0.00122924  0.40729456  1
  Pd  Pd193  1  0.60807160  0.20380068  0.20512203  1
  Pd  Pd194  1  0.41142144  0.00057027  -0.00412857  1
  Pd  Pd195  1  0.59790251  -0.00741075  0.59531742  1
  Pd  Pd196  1  0.19483297  0.60298965  0.19049826  1
  Pd  Pd197  1  0.20148594  0.60385657  0.60082105  1
  Pd  Pd198  1  0.78531042  0.60892275  0.01634709  1
  Pd  Pd199  1  0.19233266  0.19035037  0.00336544  1
  Rh  Rh200  1  0.60743833  0.60131813  0.39899565  1
  Rh  Rh201  1  0.39547814  0.20439432  0.39963121  1
  Rh  Rh202  1  0.60627047  0.20702413  0.39362398  1
  Rh  Rh203  1  0.80047606  -0.00497259  -0.01236404  1
  Rh  Rh204  1  0.00478168  0.00831016  0.01104893  1
  Rh  Rh205  1  0.59001240  0.80279816  0.39740477  1
  Rh  Rh206  1  0.20269339  0.00347293  0.19374564  1
  Rh  Rh207  1  0.01039675  0.59185603  0.18992296  1
  Rh  Rh208  1  0.60126473  0.78765015  0.80616844  1
  Rh  Rh209  1  0.80335183  0.20449936  0.00615269  1
  Rh  Rh210  1  0.01608668  0.80666794  0.59617725  1
  Rh  Rh211  1  0.80894873  0.79796570  0.19078811  1
  Rh  Rh212  1  0.39626885  0.59240633  -0.00685791  1
  Rh  Rh213  1  0.19386481  0.00604122  -0.00091816  1
  Rh  Rh214  1  0.59705253  -0.00085322  0.19920085  1
  Rh  Rh215  1  0.78888619  0.40513526  0.60737418  1
  Rh  Rh216  1  0.19242891  0.20562696  0.59507351  1
  Rh  Rh217  1  0.39901445  0.79746656  0.59973166  1
  Rh  Rh218  1  0.79546496  0.79824035  0.60491494  1
  Rh  Rh219  1  0.80570460  0.41030763  0.39072981  1
  Rh  Rh220  1  0.40037892  -0.00651103  0.19515636  1
  Rh  Rh221  1  0.60669001  -0.01127017  0.40850673  1
  Rh  Rh222  1  -0.00042460  0.01090680  0.79306014  1
  Rh  Rh223  1  0.39387921  0.21187470  0.00928900  1
  Rh  Rh224  1  0.39935520  0.61009209  0.59807453  1
  Rh  Rh225  1  0.20855612  0.40745826  -0.00180717  1
  Rh  Rh226  1  0.01223952  0.58976685  -0.00456765  1
  Rh  Rh227  1  0.40045703  0.60955775  0.20688787  1
  Rh  Rh228  1  0.60196616  0.20380608  0.80414883  1
  Rh  Rh229  1  0.80653123  0.79890496  0.40515808  1
  Rh  Rh230  1  0.21022492  0.78753559  0.00179000  1
  Rh  Rh231  1  0.19183783  0.60742793  0.39818456  1
  Rh  Rh232  1  0.20223580  0.80042228  0.79969624  1
  Rh  Rh233  1  0.00484268  0.21076509  0.58890679  1
  Rh  Rh234  1  -0.01099240  0.78760272  0.81232762  1
  Rh  Rh235  1  0.40631560  0.79791688  0.80451698  1
  Rh  Rh236  1  0.60004089  0.39951815  0.00162803  1
  Rh  Rh237  1  0.19128657  0.60118745  0.80940099  1
  Rh  Rh238  1  -0.00322111  0.40307928  0.79781276  1
  Rh  Rh239  1  0.20700714  0.40394890  0.40595674  1
  Rh  Rh240  1  0.59238064  0.20710676  0.59772470  1
  Rh  Rh241  1  0.18894117  0.78993727  0.40450265  1
  Rh  Rh242  1  0.59572969  0.39902664  0.19712767  1
  Rh  Rh243  1  0.60649286  0.79115291  -0.00352366  1
  Rh  Rh244  1  0.81582816  0.61178847  0.78516514  1
  Rh  Rh245  1  0.59222889  0.79397168  0.59961918  1
  Rh  Rh246  1  0.20710915  0.00448081  0.40693289  1
  Rh  Rh247  1  0.80163704  0.19634134  0.59513356  1
  Rh  Rh248  1  0.19529075  0.40358293  0.20437375  1
  Rh  Rh249  1  0.00015236  0.60598119  0.40295638  1
