# generated using pymatgen
data_ZrScNbPdRh
_symmetry_space_group_name_H-M   'P 1'
_cell_length_a   16.55820964
_cell_length_b   16.55977643
_cell_length_c   16.55548306
_cell_angle_alpha   89.98945063
_cell_angle_beta   89.99602102
_cell_angle_gamma   90.01173470
_symmetry_Int_Tables_number   1
_chemical_formula_structural   ZrScNbPdRh
_chemical_formula_sum   'Zr50 Sc50 Nb50 Pd50 Rh50'
_cell_volume   4539.51740693
_cell_formula_units_Z   50
loop_
 _symmetry_equiv_pos_site_id
 _symmetry_equiv_pos_as_xyz
  1  'x, y, z'
loop_
 _atom_site_type_symbol
 _atom_site_label
 _atom_site_symmetry_multiplicity
 _atom_site_fract_x
 _atom_site_fract_y
 _atom_site_fract_z
 _atom_site_occupancy
  Zr  Zr0  1  0.08223709  0.30105979  0.70118421  1
  Zr  Zr1  1  0.29891343  0.89454187  0.29764762  1
  Zr  Zr2  1  0.10112123  0.09674594  0.91227921  1
  Zr  Zr3  1  0.49581298  0.30054451  0.50064492  1
  Zr  Zr4  1  0.49304062  0.70093860  0.30099932  1
  Zr  Zr5  1  0.30577513  0.10065036  0.30607152  1
  Zr  Zr6  1  0.90766111  0.49945107  0.49840692  1
  Zr  Zr7  1  0.69799487  0.49685895  0.29408600  1
  Zr  Zr8  1  0.90106127  0.29948433  0.10044282  1
  Zr  Zr9  1  0.10029306  0.89508225  0.29810788  1
  Zr  Zr10  1  0.50354605  0.11190365  0.29683905  1
  Zr  Zr11  1  0.90511211  0.48932897  0.69930846  1
  Zr  Zr12  1  0.50593282  0.69654548  0.49776719  1
  Zr  Zr13  1  0.90448293  0.50511098  0.29282681  1
  Zr  Zr14  1  0.29174634  0.70791770  0.69605558  1
  Zr  Zr15  1  0.71715263  0.30103260  0.70664738  1
  Zr  Zr16  1  0.49970703  0.32132355  0.70216169  1
  Zr  Zr17  1  0.69857884  0.28658024  0.30070914  1
  Zr  Zr18  1  0.89864147  0.49878552  0.09970926  1
  Zr  Zr19  1  0.28598607  0.09697690  0.09830572  1
  Zr  Zr20  1  0.70319506  0.90013661  0.29755659  1
  Zr  Zr21  1  0.10580224  0.10336017  0.69500145  1
  Zr  Zr22  1  0.88992741  0.10429138  0.29884511  1
  Zr  Zr23  1  0.89787561  0.90332075  0.10343609  1
  Zr  Zr24  1  0.69868897  0.89582291  0.10393001  1
  Zr  Zr25  1  0.69389888  0.51014527  0.50218999  1
  Zr  Zr26  1  0.10188723  0.51149823  0.50475876  1
  Zr  Zr27  1  0.50387960  0.89909168  0.88586288  1
  Zr  Zr28  1  0.30551487  0.10526158  0.89185771  1
  Zr  Zr29  1  0.90510972  0.30411194  0.30432939  1
  Zr  Zr30  1  0.50081934  0.49263369  0.09357047  1
  Zr  Zr31  1  0.69872547  0.88999622  0.89956200  1
  Zr  Zr32  1  0.51462479  0.89919871  0.09614703  1
  Zr  Zr33  1  0.50582840  0.89380483  0.50158455  1
  Zr  Zr34  1  0.49373247  0.09742859  0.49240071  1
  Zr  Zr35  1  0.90296498  0.30247254  0.50708405  1
  Zr  Zr36  1  0.10512958  0.89075507  0.70002172  1
  Zr  Zr37  1  0.10482940  0.29528930  0.10166317  1
  Zr  Zr38  1  0.68479170  0.90036812  0.70182259  1
  Zr  Zr39  1  0.30379490  0.30528296  0.90011524  1
  Zr  Zr40  1  0.30378489  0.30041915  0.30022795  1
  Zr  Zr41  1  0.89797034  0.89921299  0.49101901  1
  Zr  Zr42  1  0.49636089  0.50103768  0.89137623  1
  Zr  Zr43  1  0.89398528  0.30360967  0.88235822  1
  Zr  Zr44  1  0.30256327  0.90092689  0.49272095  1
  Zr  Zr45  1  0.10126185  0.69351681  0.69493869  1
  Zr  Zr46  1  0.09672680  0.69442300  0.89062469  1
  Zr  Zr47  1  0.29567160  0.89281797  0.10069001  1
  Zr  Zr48  1  0.30312866  0.89460008  0.70342330  1
  Zr  Zr49  1  0.90694817  0.09962921  0.09591901  1
  Sc  Sc50  1  0.69869923  0.30338034  0.09102056  1
  Sc  Sc51  1  0.69784370  0.70676949  0.49871287  1
  Sc  Sc52  1  0.70098876  0.49310631  0.09642571  1
  Sc  Sc53  1  0.69016655  0.70515651  0.10121568  1
  Sc  Sc54  1  0.89590378  0.68700625  0.10382924  1
  Sc  Sc55  1  0.69709636  0.09658875  0.10173115  1
  Sc  Sc56  1  0.89873838  0.90040031  0.89653246  1
  Sc  Sc57  1  0.69405429  0.49953378  0.70156501  1
  Sc  Sc58  1  0.10468065  0.69852362  0.49952782  1
  Sc  Sc59  1  0.90135011  0.10487342  0.90541645  1
  Sc  Sc60  1  0.30217147  0.29771735  0.50839338  1
  Sc  Sc61  1  0.30517250  0.49784326  0.29996346  1
  Sc  Sc62  1  0.89893319  0.09941863  0.49396286  1
  Sc  Sc63  1  0.09804519  0.50190346  0.30331108  1
  Sc  Sc64  1  0.70699003  0.11015428  0.91055601  1
  Sc  Sc65  1  0.69602617  0.49906596  0.89950933  1
  Sc  Sc66  1  0.50134603  0.07871971  0.72146118  1
  Sc  Sc67  1  0.48913971  0.49252264  0.30452699  1
  Sc  Sc68  1  0.49311323  0.70069723  0.09255709  1
  Sc  Sc69  1  0.50222544  0.89979085  0.30204797  1
  Sc  Sc70  1  0.69711979  0.70897418  0.29878983  1
  Sc  Sc71  1  0.29397621  0.70026998  0.49296052  1
  Sc  Sc72  1  0.10254312  0.30057227  0.29839864  1
  Sc  Sc73  1  0.29670399  0.89434231  0.90189623  1
  Sc  Sc74  1  0.49736708  0.29769985  0.10394713  1
  Sc  Sc75  1  0.70506650  0.28956107  0.50353577  1
  Sc  Sc76  1  0.89492562  0.89390587  0.69985826  1
  Sc  Sc77  1  0.70180363  0.69665273  0.70098998  1
  Sc  Sc78  1  0.30157118  0.49467019  0.09476851  1
  Sc  Sc79  1  0.10316771  0.70037169  0.30843305  1
  Sc  Sc80  1  0.29275289  0.10235364  0.49968039  1
  Sc  Sc81  1  0.11223183  0.49593468  0.09744006  1
  Sc  Sc82  1  0.10464168  0.91470399  0.09621192  1
  Sc  Sc83  1  0.49916806  0.49480404  0.50800850  1
  Sc  Sc84  1  0.09824315  0.90212010  0.49337796  1
  Sc  Sc85  1  0.29638216  0.30957480  0.10284590  1
  Sc  Sc86  1  0.10384834  0.09917186  0.49941166  1
  Sc  Sc87  1  0.30826405  0.50004025  0.70616690  1
  Sc  Sc88  1  0.10928536  0.70248875  0.09611187  1
  Sc  Sc89  1  0.89910196  0.70323307  0.49870671  1
  Sc  Sc90  1  0.09934802  0.29189108  0.49926714  1
  Sc  Sc91  1  0.89974601  0.11532462  0.69810211  1
  Sc  Sc92  1  0.89617684  0.69434654  0.70783483  1
  Sc  Sc93  1  0.29687958  0.69442235  0.91093936  1
  Sc  Sc94  1  0.89385780  0.90022527  0.30383275  1
  Sc  Sc95  1  0.10771994  0.10409173  0.29380943  1
  Sc  Sc96  1  0.49860635  0.30457001  0.90708045  1
  Sc  Sc97  1  0.29912235  0.29582636  0.70423767  1
  Sc  Sc98  1  0.30459648  0.50309551  0.50233097  1
  Sc  Sc99  1  0.09481878  0.29626456  0.89574177  1
  Nb  Nb100  1  0.50212264  0.50771856  0.70255737  1
  Nb  Nb101  1  0.70352025  0.69881919  0.89589454  1
  Nb  Nb102  1  0.10272754  0.50577911  0.89949335  1
  Nb  Nb103  1  0.30026591  0.70402835  0.10658028  1
  Nb  Nb104  1  0.90714397  0.51110157  0.90233830  1
  Nb  Nb105  1  0.70034466  0.30150187  0.89578328  1
  Nb  Nb106  1  0.70092317  0.90228158  0.49923934  1
  Nb  Nb107  1  0.30025862  0.70383278  0.29395592  1
  Nb  Nb108  1  0.30171780  0.09707004  0.70055930  1
  Nb  Nb109  1  0.49860605  0.09448192  0.09756239  1
  Nb  Nb110  1  0.89765818  0.69475426  0.90317271  1
  Nb  Nb111  1  0.49469708  0.89104585  0.70224410  1
  Nb  Nb112  1  0.29188031  0.49535060  0.90702799  1
  Nb  Nb113  1  0.90085057  0.30333884  0.70025642  1
  Nb  Nb114  1  0.49620076  0.10246143  0.90796506  1
  Nb  Nb115  1  0.49766159  0.29737935  0.30586197  1
  Nb  Nb116  1  0.69885831  0.10115399  0.50147434  1
  Nb  Nb117  1  0.09484284  0.89962411  0.89691950  1
  Nb  Nb118  1  0.49569535  0.70065447  0.70698462  1
  Nb  Nb119  1  0.51142641  0.69507962  0.89583322  1
  Nb  Nb120  1  0.89913797  0.70559602  0.29769198  1
  Nb  Nb121  1  0.09953238  0.09923860  0.09754179  1
  Nb  Nb122  1  0.70043030  0.10319243  0.69832135  1
  Nb  Nb123  1  0.69909238  0.10204097  0.31196932  1
  Nb  Nb124  1  0.09810254  0.50495497  0.69916353  1
  Nb  Nb125  1  0.21107102  0.60719773  0.20032867  1
  Nb  Nb126  1  0.59193538  0.59612317  0.20051881  1
  Nb  Nb127  1  -0.00215626  0.79847547  0.19633339  1
  Nb  Nb128  1  0.60194667  0.20294488  0.80088958  1
  Nb  Nb129  1  0.80240459  0.59782190  0.39286456  1
  Nb  Nb130  1  0.19644437  -0.00035009  0.79982781  1
  Nb  Nb131  1  0.40385576  0.00267186  0.19245219  1
  Nb  Nb132  1  0.79064496  0.00080908  0.60046756  1
  Nb  Nb133  1  0.00088780  0.80058434  0.60062524  1
  Nb  Nb134  1  0.19240414  0.40714196  0.79974786  1
  Nb  Nb135  1  0.80424012  0.79227659  -0.00388654  1
  Nb  Nb136  1  0.60319821  0.39290671  0.39859027  1
  Nb  Nb137  1  -0.00176188  0.40651926  -0.00688611  1
  Nb  Nb138  1  0.40450389  0.00170110  0.00015798  1
  Nb  Nb139  1  0.40627760  0.60609348  0.60824310  1
  Nb  Nb140  1  0.79735122  0.40467397  0.39934135  1
  Nb  Nb141  1  0.59613916  0.19369486  0.61159937  1
  Nb  Nb142  1  -0.00468579  0.79742821  -0.00144084  1
  Nb  Nb143  1  0.40191232  -0.00375557  0.60642575  1
  Nb  Nb144  1  0.79774730  0.00411549  0.79386396  1
  Nb  Nb145  1  0.19945765  0.40131612  0.40711852  1
  Nb  Nb146  1  0.40755532  0.18725729  0.61161763  1
  Nb  Nb147  1  0.00271022  0.00103915  0.79732727  1
  Nb  Nb148  1  0.19379181  0.40421942  0.60602151  1
  Nb  Nb149  1  0.60711923  0.00347263  0.40219591  1
  Pd  Pd150  1  0.61125209  0.39262526  0.59555263  1
  Pd  Pd151  1  0.20497195  0.20703220  -0.00229194  1
  Pd  Pd152  1  0.60071134  0.79088976  0.60649890  1
  Pd  Pd153  1  0.39494741  0.78834353  0.81305468  1
  Pd  Pd154  1  0.19480117  0.20311357  0.79827814  1
  Pd  Pd155  1  0.19598421  0.00153120  0.39471490  1
  Pd  Pd156  1  0.00127435  -0.00156129  0.20725828  1
  Pd  Pd157  1  -0.00163642  0.19373973  0.59337196  1
  Pd  Pd158  1  0.61455622  0.01235509  0.81593569  1
  Pd  Pd159  1  0.41519486  0.20552545  0.79369276  1
  Pd  Pd160  1  -0.00782530  0.80018907  0.79889919  1
  Pd  Pd161  1  0.19075398  0.80046454  -0.00435842  1
  Pd  Pd162  1  0.39089468  0.60588432  0.80220384  1
  Pd  Pd163  1  0.01583679  0.60794113  0.19466927  1
  Pd  Pd164  1  0.00338741  0.19522007  0.39821172  1
  Pd  Pd165  1  0.00278270  0.19669151  0.20408704  1
  Pd  Pd166  1  0.60451886  0.19883857  0.19105355  1
  Pd  Pd167  1  0.80401836  0.60149203  0.59439606  1
  Pd  Pd168  1  0.59297581  0.39805312  0.20497510  1
  Pd  Pd169  1  0.40843870  0.80916414  0.19648657  1
  Pd  Pd170  1  0.39687797  0.60159579  0.40817542  1
  Pd  Pd171  1  0.40824091  0.80393369  -0.00726927  1
  Pd  Pd172  1  0.20844017  0.59577017  0.79762623  1
  Pd  Pd173  1  0.79575541  0.00691447  0.19983736  1
  Pd  Pd174  1  0.80171758  0.80413139  0.60020785  1
  Pd  Pd175  1  0.59901776  0.20451201  -0.00067390  1
  Pd  Pd176  1  -0.00400974  0.21088831  -0.00552183  1
  Pd  Pd177  1  0.00199273  0.00725609  0.39070473  1
  Pd  Pd178  1  0.79911083  0.39261017  0.20400235  1
  Pd  Pd179  1  0.20722249  -0.00575031  0.60187376  1
  Pd  Pd180  1  0.39508990  0.19961847  0.01001197  1
  Pd  Pd181  1  0.60166753  0.00201350  -0.00872998  1
  Pd  Pd182  1  0.78862828  0.60249594  0.00325265  1
  Pd  Pd183  1  0.79399178  0.19789219  0.19043294  1
  Pd  Pd184  1  0.00897195  0.60086142  0.00971308  1
  Pd  Pd185  1  0.80534594  0.40035734  -0.00941945  1
  Pd  Pd186  1  0.39925911  0.79591071  0.59155931  1
  Pd  Pd187  1  0.39998264  0.59329747  0.19315493  1
  Pd  Pd188  1  0.79394001  0.40385528  0.59341113  1
  Pd  Pd189  1  0.79820633  0.59149695  0.79851839  1
  Pd  Pd190  1  0.60384331  0.59968478  0.00407792  1
  Pd  Pd191  1  0.00955507  0.40307925  0.19221621  1
  Pd  Pd192  1  0.39648844  0.59777923  -0.00104919  1
  Pd  Pd193  1  0.60004174  0.59328159  0.38987057  1
  Pd  Pd194  1  0.39246317  0.19809762  0.19091451  1
  Pd  Pd195  1  0.59429260  0.00549747  0.59714500  1
  Pd  Pd196  1  0.79876655  -0.00640236  -0.00680940  1
  Pd  Pd197  1  -0.00394524  0.60923755  0.39976190  1
  Pd  Pd198  1  -0.01087721  -0.00464759  0.60556986  1
  Pd  Pd199  1  0.78654169  0.60745584  0.20108170  1
  Rh  Rh200  1  0.80687833  0.20550409  0.40615715  1
  Rh  Rh201  1  -0.00114051  0.18902003  0.80235923  1
  Rh  Rh202  1  0.60155484  0.78832650  0.79525417  1
  Rh  Rh203  1  0.20297360  0.20758124  0.39945734  1
  Rh  Rh204  1  0.80137841  0.19536818  0.59672785  1
  Rh  Rh205  1  0.59834303  0.00751226  0.21211301  1
  Rh  Rh206  1  0.00355399  0.41163822  0.80800947  1
  Rh  Rh207  1  -0.00820992  0.60965339  0.60463697  1
  Rh  Rh208  1  0.39231569  0.20461819  0.40849563  1
  Rh  Rh209  1  0.00842351  0.40148758  0.59292123  1
  Rh  Rh210  1  0.39434593  0.40476386  0.80369250  1
  Rh  Rh211  1  0.59125492  0.79010238  0.20353424  1
  Rh  Rh212  1  0.40203189  0.40136448  -0.00154816  1
  Rh  Rh213  1  0.20423956  0.00152609  0.20489004  1
  Rh  Rh214  1  0.18982507  0.39346552  -0.01215918  1
  Rh  Rh215  1  0.59857968  0.20175900  0.41040270  1
  Rh  Rh216  1  0.80815190  0.79548941  0.19134434  1
  Rh  Rh217  1  0.20711826  -0.00224089  -0.01011298  1
  Rh  Rh218  1  0.79836943  0.19288664  0.80222560  1
  Rh  Rh219  1  -0.00122028  0.79734388  0.39987405  1
  Rh  Rh220  1  0.79869929  0.80027935  0.80474249  1
  Rh  Rh221  1  0.40717094  -0.00585986  0.39467761  1
  Rh  Rh222  1  0.40257493  0.39658147  0.19865132  1
  Rh  Rh223  1  0.59254504  0.60790678  0.60846427  1
  Rh  Rh224  1  0.20732200  0.59311889  0.38838150  1
  Rh  Rh225  1  0.59802493  0.39715899  -0.00610550  1
  Rh  Rh226  1  0.20116342  0.79927774  0.39967871  1
  Rh  Rh227  1  0.21332198  0.59286941  0.60525080  1
  Rh  Rh228  1  0.39075352  -0.00688269  0.80504484  1
  Rh  Rh229  1  0.79424783  0.00229698  0.40557819  1
  Rh  Rh230  1  0.60453417  0.60276539  0.79769225  1
  Rh  Rh231  1  0.39755591  0.39441983  0.40371902  1
  Rh  Rh232  1  0.60147705  0.79130288  -0.00825888  1
  Rh  Rh233  1  -0.00265271  -0.00670759  -0.00457088  1
  Rh  Rh234  1  0.20131310  0.79868514  0.80952249  1
  Rh  Rh235  1  0.20057964  0.40949119  0.21264101  1
  Rh  Rh236  1  0.19258846  0.80541988  0.58689342  1
  Rh  Rh237  1  0.00505291  0.39827668  0.40459115  1
  Rh  Rh238  1  0.80343491  0.20707831  0.00361735  1
  Rh  Rh239  1  0.39976483  0.79743554  0.40185187  1
  Rh  Rh240  1  0.20426157  0.60117401  0.00867081  1
  Rh  Rh241  1  0.60359186  0.80808849  0.39545319  1
  Rh  Rh242  1  -0.00449962  0.59631176  0.79441709  1
  Rh  Rh243  1  0.60303176  0.39825995  0.80427096  1
  Rh  Rh244  1  0.20175157  0.19997327  0.19943710  1
  Rh  Rh245  1  0.19018211  0.79483799  0.20036496  1
  Rh  Rh246  1  0.79687312  0.79277165  0.40074020  1
  Rh  Rh247  1  0.20485263  0.20722236  0.60387910  1
  Rh  Rh248  1  0.80079350  0.41288275  0.80406579  1
  Rh  Rh249  1  0.39183008  0.40727372  0.60506820  1
