# generated using pymatgen
data_ZrScNbPdRh
_symmetry_space_group_name_H-M   'P 1'
_cell_length_a   16.55396474
_cell_length_b   16.55164807
_cell_length_c   16.55749249
_cell_angle_alpha   89.99440306
_cell_angle_beta   89.97440144
_cell_angle_gamma   90.02017204
_symmetry_Int_Tables_number   1
_chemical_formula_structural   ZrScNbPdRh
_chemical_formula_sum   'Zr50 Sc50 Nb50 Pd50 Rh50'
_cell_volume   4536.67599849
_cell_formula_units_Z   50
loop_
 _symmetry_equiv_pos_site_id
 _symmetry_equiv_pos_as_xyz
  1  'x, y, z'
loop_
 _atom_site_type_symbol
 _atom_site_label
 _atom_site_symmetry_multiplicity
 _atom_site_fract_x
 _atom_site_fract_y
 _atom_site_fract_z
 _atom_site_occupancy
  Zr  Zr0  1  0.09415928  0.90332536  0.29716996  1
  Zr  Zr1  1  0.30137739  0.29389585  0.09849541  1
  Zr  Zr2  1  0.50284424  0.89238066  0.51037285  1
  Zr  Zr3  1  0.70354302  0.69690333  0.70552552  1
  Zr  Zr4  1  0.90570188  0.69379338  0.50067009  1
  Zr  Zr5  1  0.70050897  0.69987419  0.90175172  1
  Zr  Zr6  1  0.50046199  0.89430614  0.88506908  1
  Zr  Zr7  1  0.49545128  0.29917184  0.69830148  1
  Zr  Zr8  1  0.90389869  0.90298167  0.10437309  1
  Zr  Zr9  1  0.10231496  0.70067936  0.50174845  1
  Zr  Zr10  1  0.30051884  0.50870797  0.90267989  1
  Zr  Zr11  1  0.90520041  0.50195760  0.69495075  1
  Zr  Zr12  1  0.49588263  0.71125186  0.69949022  1
  Zr  Zr13  1  0.90268357  0.49056791  0.10471775  1
  Zr  Zr14  1  0.49844564  0.30753143  0.09693919  1
  Zr  Zr15  1  0.69763941  0.29867094  0.70261873  1
  Zr  Zr16  1  0.10670920  0.50367290  0.90656779  1
  Zr  Zr17  1  0.89652401  0.10198873  0.09466782  1
  Zr  Zr18  1  0.09488103  0.70396900  0.69547561  1
  Zr  Zr19  1  0.49857929  0.50438229  0.70731887  1
  Zr  Zr20  1  0.69688383  0.30129631  0.10191062  1
  Zr  Zr21  1  0.90242272  0.30488860  0.49563111  1
  Zr  Zr22  1  0.89604649  0.29919235  0.10182751  1
  Zr  Zr23  1  0.49527809  0.50358431  0.49886964  1
  Zr  Zr24  1  0.10364754  0.30215581  0.49224245  1
  Zr  Zr25  1  0.10305872  0.89299341  0.50000471  1
  Zr  Zr26  1  0.29978000  0.71217446  0.09884140  1
  Zr  Zr27  1  0.30577113  0.90412111  0.50019928  1
  Zr  Zr28  1  0.88884587  0.09501542  0.49987628  1
  Zr  Zr29  1  0.30564005  0.69881461  0.90406365  1
  Zr  Zr30  1  0.50288175  0.29263182  0.49826868  1
  Zr  Zr31  1  0.10879975  0.69651976  0.89956500  1
  Zr  Zr32  1  0.50227709  0.90421563  0.11512121  1
  Zr  Zr33  1  0.49535278  0.10698671  0.10415294  1
  Zr  Zr34  1  0.29571999  0.69429925  0.69603572  1
  Zr  Zr35  1  0.08948239  0.49170622  0.50463398  1
  Zr  Zr36  1  0.29984615  0.89293920  0.29176789  1
  Zr  Zr37  1  0.69840453  0.29630489  0.49253850  1
  Zr  Zr38  1  0.30523589  0.09673929  0.49989451  1
  Zr  Zr39  1  0.70708048  0.89624592  0.09917555  1
  Zr  Zr40  1  0.10601067  0.71514284  0.30863254  1
  Zr  Zr41  1  0.70140349  0.50042350  0.70874450  1
  Zr  Zr42  1  0.50378808  0.49863986  0.29269396  1
  Zr  Zr43  1  0.90257487  0.29056145  0.90592831  1
  Zr  Zr44  1  0.89972089  0.49269305  0.31146392  1
  Zr  Zr45  1  0.90211415  0.90380430  0.69713075  1
  Zr  Zr46  1  0.30036191  0.28951405  0.70630994  1
  Zr  Zr47  1  0.69526924  0.70606117  0.49905552  1
  Zr  Zr48  1  0.89695772  0.48777982  0.90658643  1
  Zr  Zr49  1  0.10634621  0.90463385  0.10009977  1
  Sc  Sc50  1  0.48980040  0.30686864  0.89942778  1
  Sc  Sc51  1  0.29432299  0.50546576  0.50101944  1
  Sc  Sc52  1  0.29329209  0.11399896  0.89480427  1
  Sc  Sc53  1  0.10070982  0.30269398  0.11342453  1
  Sc  Sc54  1  0.09954044  0.90657655  0.69538377  1
  Sc  Sc55  1  0.10127340  0.30248731  0.69681525  1
  Sc  Sc56  1  0.70611942  0.09994216  0.90268507  1
  Sc  Sc57  1  0.30035792  0.50054251  0.30219654  1
  Sc  Sc58  1  0.70134928  0.09570342  0.49837692  1
  Sc  Sc59  1  0.89737870  0.09857929  0.30228963  1
  Sc  Sc60  1  0.70620861  0.30996808  0.89933056  1
  Sc  Sc61  1  0.30391753  0.10708906  0.29752189  1
  Sc  Sc62  1  0.70899888  0.49867212  0.48857100  1
  Sc  Sc63  1  0.29529800  0.69644161  0.49939251  1
  Sc  Sc64  1  0.29508327  0.90430855  0.68816766  1
  Sc  Sc65  1  0.70227498  0.30036642  0.30191886  1
  Sc  Sc66  1  0.10031462  0.50744033  0.70042757  1
  Sc  Sc67  1  0.49667318  0.69907998  0.28504676  1
  Sc  Sc68  1  0.10484353  0.47841948  0.30279753  1
  Sc  Sc69  1  0.89162564  0.70629072  0.09566874  1
  Sc  Sc70  1  0.90321612  0.69994643  0.70133226  1
  Sc  Sc71  1  0.49541381  0.69290684  0.09348656  1
  Sc  Sc72  1  0.30206606  0.29896189  0.90517050  1
  Sc  Sc73  1  0.69539434  0.89703171  0.28650819  1
  Sc  Sc74  1  0.89705600  0.70437049  0.90066121  1
  Sc  Sc75  1  0.29801185  0.89528850  0.90362464  1
  Sc  Sc76  1  0.29961205  0.29682916  0.50543648  1
  Sc  Sc77  1  0.90534230  0.09688967  0.70516707  1
  Sc  Sc78  1  0.70209612  0.09498427  0.10904612  1
  Sc  Sc79  1  0.90299770  0.91185579  0.49805341  1
  Sc  Sc80  1  0.69716779  0.49928440  0.09188587  1
  Sc  Sc81  1  0.90168573  0.90157622  0.90588783  1
  Sc  Sc82  1  0.69447253  0.50498137  0.90265242  1
  Sc  Sc83  1  0.90076258  0.29477775  0.29461315  1
  Sc  Sc84  1  0.51329994  0.30232800  0.29720909  1
  Sc  Sc85  1  0.10403337  0.70977613  0.09654253  1
  Sc  Sc86  1  0.09490187  0.90653245  0.90340862  1
  Sc  Sc87  1  0.68388800  0.90202207  0.69933243  1
  Sc  Sc88  1  0.90827469  0.70352641  0.30561807  1
  Sc  Sc89  1  0.50239989  0.49732297  0.09682481  1
  Sc  Sc90  1  0.30442161  0.50427568  0.69542449  1
  Sc  Sc91  1  0.09964596  0.10050724  0.49669837  1
  Sc  Sc92  1  0.09427620  0.09845032  0.89706171  1
  Sc  Sc93  1  0.70419726  0.69854147  0.09546322  1
  Sc  Sc94  1  0.10544594  0.09581755  0.10252409  1
  Sc  Sc95  1  0.29831481  0.49164849  0.09697828  1
  Sc  Sc96  1  0.90338284  0.30294604  0.71663574  1
  Sc  Sc97  1  0.28547658  0.30145379  0.30180308  1
  Sc  Sc98  1  0.09640216  0.29236551  0.89624592  1
  Sc  Sc99  1  0.49720058  0.09718821  0.29749484  1
  Nb  Nb100  1  0.70333344  0.09758235  0.30559005  1
  Nb  Nb101  1  0.49592325  0.90358801  0.69674181  1
  Nb  Nb102  1  0.69646176  0.89834240  0.89864028  1
  Nb  Nb103  1  0.49728807  0.90059073  0.30249070  1
  Nb  Nb104  1  0.90544413  0.09948770  0.89789702  1
  Nb  Nb105  1  0.10826431  0.10108688  0.70579074  1
  Nb  Nb106  1  0.29681917  0.70033926  0.29844343  1
  Nb  Nb107  1  0.10399229  0.28777716  0.30288760  1
  Nb  Nb108  1  0.49856992  0.51206387  0.90542073  1
  Nb  Nb109  1  0.50101258  0.70170981  0.50036794  1
  Nb  Nb110  1  0.29846163  0.90486499  0.09747722  1
  Nb  Nb111  1  0.10940589  0.11086325  0.30233045  1
  Nb  Nb112  1  0.70117772  0.89969290  0.49828317  1
  Nb  Nb113  1  0.70154531  0.09893335  0.69925535  1
  Nb  Nb114  1  0.30469057  0.10165407  0.09466606  1
  Nb  Nb115  1  0.10165840  0.50144016  0.10529561  1
  Nb  Nb116  1  0.69703340  0.50184881  0.30150193  1
  Nb  Nb117  1  0.50263229  0.09602646  0.69782737  1
  Nb  Nb118  1  0.90315477  0.49443014  0.50128116  1
  Nb  Nb119  1  0.49618973  0.10128378  0.89969087  1
  Nb  Nb120  1  0.89880533  0.89655322  0.30214530  1
  Nb  Nb121  1  0.29503010  0.09764312  0.69980741  1
  Nb  Nb122  1  0.70422183  0.69903415  0.29743254  1
  Nb  Nb123  1  0.49679751  0.69604963  0.89820155  1
  Nb  Nb124  1  0.49267634  0.09085153  0.49607673  1
  Nb  Nb125  1  0.59709480  0.80492834  -0.00638482  1
  Nb  Nb126  1  0.79678605  0.80565415  0.59490941  1
  Nb  Nb127  1  0.59577726  0.19624619  -0.00505644  1
  Nb  Nb128  1  0.20339219  0.40349194  0.80269460  1
  Nb  Nb129  1  0.60261841  0.40401974  0.59815587  1
  Nb  Nb130  1  -0.00309074  0.19949525  0.60088929  1
  Nb  Nb131  1  0.59977560  0.60622684  0.39685907  1
  Nb  Nb132  1  0.59891008  0.59925145  0.59601730  1
  Nb  Nb133  1  0.79608750  -0.00032476  0.80124447  1
  Nb  Nb134  1  0.20153867  -0.00056130  0.39468765  1
  Nb  Nb135  1  0.40096125  0.00341979  -0.00162920  1
  Nb  Nb136  1  0.19545883  0.60291321  0.20177736  1
  Nb  Nb137  1  0.80218650  0.20185881  0.60412563  1
  Nb  Nb138  1  0.00462643  0.59665538  0.19954917  1
  Nb  Nb139  1  0.59603354  0.19371535  0.80127036  1
  Nb  Nb140  1  0.79682474  0.80463476  0.40023886  1
  Nb  Nb141  1  0.19818490  0.79685264  0.79819492  1
  Nb  Nb142  1  0.59477199  -0.00106243  -0.00376582  1
  Nb  Nb143  1  0.79972175  0.39788658  0.60030265  1
  Nb  Nb144  1  0.80252649  0.59670253  0.20788470  1
  Nb  Nb145  1  0.40144935  0.00531659  0.79537772  1
  Nb  Nb146  1  0.40454397  0.79623083  0.39657721  1
  Nb  Nb147  1  0.00198229  0.59550087  0.00753254  1
  Nb  Nb148  1  0.59630348  -0.00745498  0.40036985  1
  Nb  Nb149  1  0.40391961  0.39910276  0.40133566  1
  Pd  Pd150  1  0.40440484  0.60363444  0.39551749  1
  Pd  Pd151  1  0.01062589  0.40295149  0.80048212  1
  Pd  Pd152  1  0.20605931  -0.00699524  0.80470430  1
  Pd  Pd153  1  -0.00290545  0.79306348  0.19497627  1
  Pd  Pd154  1  0.79541827  0.59800029  0.59596619  1
  Pd  Pd155  1  0.39842416  0.21177111  0.20957511  1
  Pd  Pd156  1  0.79867353  0.60625482  0.39711931  1
  Pd  Pd157  1  0.39237425  0.40579638  0.80502843  1
  Pd  Pd158  1  0.40100949  0.19143921  0.60246538  1
  Pd  Pd159  1  0.19124101  0.20123477  0.00281572  1
  Pd  Pd160  1  0.59961245  0.78985914  0.19097043  1
  Pd  Pd161  1  0.39380553  0.39475685  0.20884572  1
  Pd  Pd162  1  0.59808600  0.18466695  0.39659910  1
  Pd  Pd163  1  0.39865801  0.20956662  0.39204387  1
  Pd  Pd164  1  0.60842799  0.60196545  0.19548561  1
  Pd  Pd165  1  0.60137938  0.00419540  0.59110896  1
  Pd  Pd166  1  -0.00647509  0.19573833  0.40371085  1
  Pd  Pd167  1  0.00986168  0.19715742  0.00986691  1
  Pd  Pd168  1  0.20488036  0.40229861  0.60791211  1
  Pd  Pd169  1  0.19139718  0.59167133  0.39354897  1
  Pd  Pd170  1  0.19594321  0.39130958  -0.00229695  1
  Pd  Pd171  1  0.39219003  0.00295473  0.19906785  1
  Pd  Pd172  1  0.60181401  0.00754156  0.80403002  1
  Pd  Pd173  1  -0.00075156  0.01049913  0.20413931  1
  Pd  Pd174  1  0.19314722  0.19474852  0.59815214  1
  Pd  Pd175  1  0.20653762  0.00788905  0.20624219  1
  Pd  Pd176  1  0.79051004  0.19984038  0.00023178  1
  Pd  Pd177  1  0.79920073  0.81032867  0.79358135  1
  Pd  Pd178  1  0.40005833  0.39995999  0.59395826  1
  Pd  Pd179  1  0.80305567  -0.00016371  0.20557254  1
  Pd  Pd180  1  0.00583102  0.00510981  0.39547809  1
  Pd  Pd181  1  0.81020764  0.59564871  0.80959776  1
  Pd  Pd182  1  0.01247766  0.59423763  0.39229215  1
  Pd  Pd183  1  0.41009275  0.81109235  0.00587533  1
  Pd  Pd184  1  0.60478062  0.19656752  0.19944304  1
  Pd  Pd185  1  0.59837988  0.79989200  0.38825208  1
  Pd  Pd186  1  0.79847726  -0.00228832  -0.00579632  1
  Pd  Pd187  1  0.00647474  0.80671774  0.80289192  1
  Pd  Pd188  1  0.00063940  0.19295170  0.19718320  1
  Pd  Pd189  1  0.38748546  0.59662084  0.19224064  1
  Pd  Pd190  1  0.38479126  0.80813581  0.78981802  1
  Pd  Pd191  1  0.79268608  0.40393053  0.20426432  1
  Pd  Pd192  1  0.00821838  0.00943894  0.60096495  1
  Pd  Pd193  1  -0.00614051  0.59843087  0.81090273  1
  Pd  Pd194  1  0.60298312  0.19547255  0.60151356  1
  Pd  Pd195  1  0.59473308  0.39488086  0.80533708  1
  Pd  Pd196  1  0.20746971  0.00613484  -0.00891087  1
  Pd  Pd197  1  0.00140269  0.79602336  -0.00009797  1
  Pd  Pd198  1  0.01040327  0.39572887  0.00394913  1
  Pd  Pd199  1  0.79696049  0.19281847  0.79890215  1
  Rh  Rh200  1  0.19991152  0.60353484  0.01570590  1
  Rh  Rh201  1  0.39828074  0.59650440  0.00700767  1
  Rh  Rh202  1  0.40168251  0.60260891  0.79965341  1
  Rh  Rh203  1  0.40176003  -0.00924398  0.39721241  1
  Rh  Rh204  1  0.79986519  0.39456460  0.39942315  1
  Rh  Rh205  1  0.40038011  0.79886088  0.19939109  1
  Rh  Rh206  1  0.60676074  0.40325968  0.19599779  1
  Rh  Rh207  1  -0.00327461  0.00466470  0.00273937  1
  Rh  Rh208  1  0.40343079  0.19823533  -0.00041953  1
  Rh  Rh209  1  -0.00716545  0.39101415  0.60690806  1
  Rh  Rh210  1  0.40396943  0.19240111  0.79481182  1
  Rh  Rh211  1  0.59271039  0.60830435  0.79843245  1
  Rh  Rh212  1  0.79578169  0.80568531  -0.00441933  1
  Rh  Rh213  1  0.80963853  0.59399604  0.00593016  1
  Rh  Rh214  1  0.00303530  0.39598386  0.20736623  1
  Rh  Rh215  1  0.59319090  0.41109044  0.40283696  1
  Rh  Rh216  1  0.60176873  0.79207268  0.80015100  1
  Rh  Rh217  1  -0.00412509  0.00085215  0.80053860  1
  Rh  Rh218  1  0.40170655  0.00529470  0.60876968  1
  Rh  Rh219  1  0.78890517  -0.01147582  0.38803065  1
  Rh  Rh220  1  -0.01035246  0.80243775  0.59518262  1
  Rh  Rh221  1  0.59739077  0.60807620  -0.00263669  1
  Rh  Rh222  1  0.79607536  0.19559332  0.20500173  1
  Rh  Rh223  1  0.60253873  0.00695063  0.20694887  1
  Rh  Rh224  1  0.20626450  0.19279811  0.40602036  1
  Rh  Rh225  1  0.19540051  0.20624450  0.79978082  1
  Rh  Rh226  1  0.20815867  0.39881158  0.40662815  1
  Rh  Rh227  1  -0.01027978  0.80783485  0.40825019  1
  Rh  Rh228  1  0.59617613  0.39592955  -0.00659120  1
  Rh  Rh229  1  0.39248360  0.79511540  0.59327471  1
  Rh  Rh230  1  0.19854283  0.79947648  0.19622947  1
  Rh  Rh231  1  0.20261289  0.39977725  0.20024711  1
  Rh  Rh232  1  0.80115807  0.19932903  0.40082218  1
  Rh  Rh233  1  0.21251300  0.80809029  0.40424908  1
  Rh  Rh234  1  0.19527040  0.00627217  0.59033075  1
  Rh  Rh235  1  0.60585761  0.79506227  0.60972311  1
  Rh  Rh236  1  0.80290512  0.40591829  0.79945354  1
  Rh  Rh237  1  0.40503527  0.60684464  0.60044432  1
  Rh  Rh238  1  0.00137805  0.38972261  0.39182637  1
  Rh  Rh239  1  0.19622229  0.80723482  -0.00727136  1
  Rh  Rh240  1  0.20238442  0.79924051  0.60378741  1
  Rh  Rh241  1  0.40234414  0.40690639  -0.00363920  1
  Rh  Rh242  1  0.80872755  0.79209668  0.20822791  1
  Rh  Rh243  1  0.79507983  0.39789942  0.00155850  1
  Rh  Rh244  1  0.20307986  0.19644726  0.19341913  1
  Rh  Rh245  1  0.19215236  0.59665342  0.59733119  1
  Rh  Rh246  1  0.00258658  0.59986582  0.59767832  1
  Rh  Rh247  1  0.00490688  0.19353322  0.79256998  1
  Rh  Rh248  1  0.79353555  -0.00242260  0.61168911  1
  Rh  Rh249  1  0.20307772  0.60072050  0.79494477  1
