# generated using pymatgen
data_ZrScNbPdRh
_symmetry_space_group_name_H-M   'P 1'
_cell_length_a   16.55680709
_cell_length_b   16.56101671
_cell_length_c   16.55799983
_cell_angle_alpha   89.98907300
_cell_angle_beta   89.98727544
_cell_angle_gamma   89.98787652
_symmetry_Int_Tables_number   1
_chemical_formula_structural   ZrScNbPdRh
_chemical_formula_sum   'Zr50 Sc50 Nb50 Pd50 Rh50'
_cell_volume   4540.16283578
_cell_formula_units_Z   50
loop_
 _symmetry_equiv_pos_site_id
 _symmetry_equiv_pos_as_xyz
  1  'x, y, z'
loop_
 _atom_site_type_symbol
 _atom_site_label
 _atom_site_symmetry_multiplicity
 _atom_site_fract_x
 _atom_site_fract_y
 _atom_site_fract_z
 _atom_site_occupancy
  Zr  Zr0  1  0.09948786  0.09308581  0.70303172  1
  Zr  Zr1  1  0.90845332  0.31219233  0.89742089  1
  Zr  Zr2  1  0.49895296  0.49595419  0.70156360  1
  Zr  Zr3  1  0.29346907  0.69570258  0.10485753  1
  Zr  Zr4  1  0.10495188  0.69887049  0.30090801  1
  Zr  Zr5  1  0.70140098  0.68988784  0.30015948  1
  Zr  Zr6  1  0.50053877  0.30308646  0.10212916  1
  Zr  Zr7  1  0.68381247  0.29760309  0.29953149  1
  Zr  Zr8  1  0.89982835  0.49504186  0.49766704  1
  Zr  Zr9  1  0.29070504  0.90349377  0.30645520  1
  Zr  Zr10  1  0.69922221  0.50642961  0.09992834  1
  Zr  Zr11  1  0.10226245  0.30201818  0.89958497  1
  Zr  Zr12  1  0.10402744  0.09659821  0.31090699  1
  Zr  Zr13  1  0.29543976  0.90503666  0.09574150  1
  Zr  Zr14  1  0.10333482  0.10717846  0.89971033  1
  Zr  Zr15  1  0.70562078  0.10208831  0.49382024  1
  Zr  Zr16  1  0.49839272  0.89863001  0.09422318  1
  Zr  Zr17  1  0.30738814  0.89091997  0.50275742  1
  Zr  Zr18  1  0.69766561  0.89853795  0.50257943  1
  Zr  Zr19  1  0.70659931  0.49669595  0.49224281  1
  Zr  Zr20  1  0.70108926  0.89846279  0.09078990  1
  Zr  Zr21  1  0.50065712  0.68979183  0.70335237  1
  Zr  Zr22  1  0.69458789  0.89641724  0.89638771  1
  Zr  Zr23  1  0.90791217  0.10772731  0.09956110  1
  Zr  Zr24  1  0.49290820  0.89692465  0.89689402  1
  Zr  Zr25  1  0.89535033  0.89561032  0.10064151  1
  Zr  Zr26  1  0.70330027  0.09432179  0.89290186  1
  Zr  Zr27  1  0.49950353  0.30120255  0.90453898  1
  Zr  Zr28  1  0.50223823  0.11072292  0.29902394  1
  Zr  Zr29  1  0.90053009  0.49819910  0.71551535  1
  Zr  Zr30  1  0.70683877  0.69841080  0.09817785  1
  Zr  Zr31  1  0.10243353  0.50016489  0.10242159  1
  Zr  Zr32  1  0.30466486  0.30683291  0.10853545  1
  Zr  Zr33  1  0.09840017  0.10072939  0.51016012  1
  Zr  Zr34  1  0.90165036  0.10094470  0.50198618  1
  Zr  Zr35  1  0.09467843  0.70843278  0.70114243  1
  Zr  Zr36  1  0.51640946  0.49979170  0.30018138  1
  Zr  Zr37  1  0.49117843  0.10417802  0.89469964  1
  Zr  Zr38  1  0.69503571  0.30989196  0.89737219  1
  Zr  Zr39  1  0.10071888  0.50454643  0.49230320  1
  Zr  Zr40  1  0.09888230  0.89719885  0.89934968  1
  Zr  Zr41  1  0.89672509  0.09520761  0.30944224  1
  Zr  Zr42  1  0.29678161  0.49814682  0.49876617  1
  Zr  Zr43  1  0.48974015  0.30074091  0.29401264  1
  Zr  Zr44  1  0.49617777  0.90573333  0.50179864  1
  Zr  Zr45  1  0.91006761  0.09846181  0.70091095  1
  Zr  Zr46  1  0.70756385  0.29470140  0.50915708  1
  Zr  Zr47  1  0.30275197  0.09258433  0.49574674  1
  Zr  Zr48  1  0.09563008  0.69916164  0.90199617  1
  Zr  Zr49  1  0.30462364  0.50064802  0.70401379  1
  Sc  Sc50  1  0.69597384  0.70389462  0.70588776  1
  Sc  Sc51  1  0.49849206  0.11388743  0.09765915  1
  Sc  Sc52  1  0.89917010  0.50229714  0.09448468  1
  Sc  Sc53  1  0.49677879  0.89830019  0.31238316  1
  Sc  Sc54  1  0.30151773  0.10537833  0.70073935  1
  Sc  Sc55  1  0.29208618  0.48524672  0.89791989  1
  Sc  Sc56  1  0.90992059  0.30797183  0.09708341  1
  Sc  Sc57  1  0.30101451  0.30290357  0.70056023  1
  Sc  Sc58  1  0.29249087  0.69945627  0.29942575  1
  Sc  Sc59  1  0.90233599  0.70353692  0.50018033  1
  Sc  Sc60  1  0.68988374  0.30772140  0.08867104  1
  Sc  Sc61  1  0.10622844  0.89808708  0.49808455  1
  Sc  Sc62  1  0.90301966  0.89668111  0.69893145  1
  Sc  Sc63  1  0.69302094  0.10204627  0.09114306  1
  Sc  Sc64  1  0.49980535  0.69169725  0.09954971  1
  Sc  Sc65  1  0.70169853  0.70586780  0.49978644  1
  Sc  Sc66  1  0.49691758  0.49800199  0.88951004  1
  Sc  Sc67  1  0.50345158  0.71566634  0.50408150  1
  Sc  Sc68  1  0.49782253  0.70158705  0.89580679  1
  Sc  Sc69  1  0.70888689  0.89604103  0.70304301  1
  Sc  Sc70  1  0.10140118  0.28292638  0.70361717  1
  Sc  Sc71  1  0.29138947  0.49616023  0.30032218  1
  Sc  Sc72  1  0.90046912  0.50362250  0.30371352  1
  Sc  Sc73  1  0.89164132  0.90673570  0.89337422  1
  Sc  Sc74  1  0.49955430  0.49811296  0.10287468  1
  Sc  Sc75  1  0.89592995  0.69480173  0.09819192  1
  Sc  Sc76  1  0.90825008  0.09719476  0.89238045  1
  Sc  Sc77  1  0.48971034  0.30005804  0.50080069  1
  Sc  Sc78  1  0.09691067  0.29528897  0.49533119  1
  Sc  Sc79  1  0.89315473  0.89716302  0.49329443  1
  Sc  Sc80  1  0.70082935  0.10017422  0.68095012  1
  Sc  Sc81  1  0.50091442  0.49346355  0.50161543  1
  Sc  Sc82  1  0.49214877  0.89529920  0.69328775  1
  Sc  Sc83  1  0.90268800  0.68949627  0.89767565  1
  Sc  Sc84  1  0.49315288  0.29861472  0.69580907  1
  Sc  Sc85  1  0.70038669  0.49703557  0.71094977  1
  Sc  Sc86  1  0.09926495  0.51058500  0.69924450  1
  Sc  Sc87  1  0.09838205  0.69338951  0.10076962  1
  Sc  Sc88  1  0.30035517  0.10745202  0.30286369  1
  Sc  Sc89  1  0.91428860  0.30677762  0.29701822  1
  Sc  Sc90  1  0.50530054  0.69794806  0.30192859  1
  Sc  Sc91  1  0.89715462  0.29766019  0.50217167  1
  Sc  Sc92  1  0.10427566  0.69456568  0.50176499  1
  Sc  Sc93  1  0.70683878  0.49878623  0.90713340  1
  Sc  Sc94  1  0.29507809  0.70455562  0.69869473  1
  Sc  Sc95  1  0.71125195  0.89048142  0.30675484  1
  Sc  Sc96  1  0.88995393  0.70303440  0.29937482  1
  Sc  Sc97  1  0.10635680  0.30563006  0.29865358  1
  Sc  Sc98  1  0.09662349  0.29949230  0.10287783  1
  Sc  Sc99  1  0.11136350  0.10705686  0.09925409  1
  Nb  Nb100  1  0.50662974  0.09237937  0.51403969  1
  Nb  Nb101  1  0.29938350  0.09780451  0.09699910  1
  Nb  Nb102  1  0.89810116  0.69591611  0.69532430  1
  Nb  Nb103  1  0.29051022  0.89274020  0.70606922  1
  Nb  Nb104  1  0.10344524  0.89620169  0.29764619  1
  Nb  Nb105  1  0.29875060  0.69200589  0.49970553  1
  Nb  Nb106  1  0.30631584  0.30233418  0.31205264  1
  Nb  Nb107  1  0.89578226  0.30405984  0.69793697  1
  Nb  Nb108  1  0.30156595  0.31257841  0.49042314  1
  Nb  Nb109  1  0.70586910  0.30126442  0.69811823  1
  Nb  Nb110  1  0.10343028  0.90076748  0.10306170  1
  Nb  Nb111  1  0.90311913  0.90042063  0.29756491  1
  Nb  Nb112  1  0.69849364  0.10343054  0.29769704  1
  Nb  Nb113  1  0.09290319  0.49783156  0.30245549  1
  Nb  Nb114  1  0.29713666  0.09454160  0.90589381  1
  Nb  Nb115  1  0.90866176  0.49767807  0.90167361  1
  Nb  Nb116  1  0.29752951  0.29352130  0.89467399  1
  Nb  Nb117  1  0.08799168  0.49905190  0.89741348  1
  Nb  Nb118  1  0.30481003  0.89730109  0.90119469  1
  Nb  Nb119  1  0.10685544  0.89799471  0.70558519  1
  Nb  Nb120  1  0.29960795  0.70413670  0.89966181  1
  Nb  Nb121  1  0.69609873  0.70408998  0.90251511  1
  Nb  Nb122  1  0.29780214  0.50579473  0.09881151  1
  Nb  Nb123  1  0.50416692  0.10038168  0.69153416  1
  Nb  Nb124  1  0.70287811  0.50021868  0.29990000  1
  Nb  Nb125  1  0.79926172  0.00495014  0.20210556  1
  Nb  Nb126  1  0.80258020  0.59933544  0.60564258  1
  Nb  Nb127  1  0.39905614  0.80569377  0.19859042  1
  Nb  Nb128  1  0.19789875  0.60408756  0.80758982  1
  Nb  Nb129  1  0.00288776  -0.00488442  0.20241087  1
  Nb  Nb130  1  0.79888904  0.20548900  0.79688746  1
  Nb  Nb131  1  0.60871091  0.39589752  0.60225269  1
  Nb  Nb132  1  0.60076081  0.80466813  0.19767198  1
  Nb  Nb133  1  0.59322374  0.00451420  0.79180048  1
  Nb  Nb134  1  0.60196707  -0.00269491  0.20502007  1
  Nb  Nb135  1  0.79394267  0.39939404  0.20157661  1
  Nb  Nb136  1  0.20748554  -0.00681213  0.80445666  1
  Nb  Nb137  1  0.00642994  -0.00343954  0.00782107  1
  Nb  Nb138  1  0.19639233  0.40022438  0.59575246  1
  Nb  Nb139  1  0.38738782  0.59654981  -0.00311847  1
  Nb  Nb140  1  0.00314888  0.80718225  0.20266398  1
  Nb  Nb141  1  0.80282444  0.20526021  -0.00593234  1
  Nb  Nb142  1  0.60320816  0.00714537  0.39953181  1
  Nb  Nb143  1  0.20275237  0.80279647  -0.00186412  1
  Nb  Nb144  1  0.60213538  0.19776271  0.79154977  1
  Nb  Nb145  1  0.40105549  0.00049859  0.19938976  1
  Nb  Nb146  1  0.39846223  0.60165031  0.59565998  1
  Nb  Nb147  1  0.00142620  0.39871613  0.60451418  1
  Nb  Nb148  1  0.39834337  0.59927215  0.40508345  1
  Nb  Nb149  1  0.79719158  0.20345291  0.19630380  1
  Pd  Pd150  1  0.39968002  0.60063935  0.20567750  1
  Pd  Pd151  1  0.80454742  0.21275905  0.38816483  1
  Pd  Pd152  1  0.20001294  0.40057840  0.20286797  1
  Pd  Pd153  1  0.80240682  0.38966700  0.38774849  1
  Pd  Pd154  1  -0.00656915  0.60841243  0.39611080  1
  Pd  Pd155  1  0.59398013  0.79047596  0.00187427  1
  Pd  Pd156  1  0.00073960  0.20398095  0.39705505  1
  Pd  Pd157  1  0.60827190  0.59766957  0.80961160  1
  Pd  Pd158  1  -0.00020663  -0.01395193  0.59597632  1
  Pd  Pd159  1  -0.01104297  0.80084138  0.80114685  1
  Pd  Pd160  1  0.60462115  0.59111794  0.59510534  1
  Pd  Pd161  1  0.20153564  0.00874488  0.20352192  1
  Pd  Pd162  1  0.39510994  0.78817210  0.39229280  1
  Pd  Pd163  1  0.59073850  0.20042509  0.41348897  1
  Pd  Pd164  1  0.40162636  0.79435667  0.79245751  1
  Pd  Pd165  1  0.20566643  0.20399119  0.20408031  1
  Pd  Pd166  1  0.39797643  0.41310057  0.20638607  1
  Pd  Pd167  1  -0.00000788  0.80605763  0.59496517  1
  Pd  Pd168  1  0.39945658  0.20261953  0.79647185  1
  Pd  Pd169  1  0.19878416  0.79651471  0.59320878  1
  Pd  Pd170  1  0.39191496  0.20134473  0.59374497  1
  Pd  Pd171  1  0.20721930  0.20986353  0.00519327  1
  Pd  Pd172  1  0.59379169  0.60602244  0.41308864  1
  Pd  Pd173  1  0.20649853  -0.00378033  0.60504765  1
  Pd  Pd174  1  -0.00035025  0.80270008  0.00538353  1
  Pd  Pd175  1  0.20058219  0.60001650  -0.00786301  1
  Pd  Pd176  1  0.60171773  0.80393768  0.60942008  1
  Pd  Pd177  1  0.59678049  0.39083029  0.41023545  1
  Pd  Pd178  1  0.80553241  0.79176832  0.80409022  1
  Pd  Pd179  1  0.40567885  0.00694011  0.00507568  1
  Pd  Pd180  1  0.00539109  -0.00797980  0.40374352  1
  Pd  Pd181  1  0.19796094  0.39540592  0.00260210  1
  Pd  Pd182  1  -0.00567095  0.60509638  0.20189719  1
  Pd  Pd183  1  -0.00673498  0.59446266  0.60065653  1
  Pd  Pd184  1  0.80561372  -0.00290524  0.60187497  1
  Pd  Pd185  1  0.19068878  0.40323942  0.78947758  1
  Pd  Pd186  1  0.38985529  0.20391943  0.00319318  1
  Pd  Pd187  1  0.81033938  0.00994760  0.00333019  1
  Pd  Pd188  1  0.21003384  0.20955325  0.59246097  1
  Pd  Pd189  1  0.39746235  -0.00115318  0.78936480  1
  Pd  Pd190  1  0.58919063  0.59637484  -0.00809899  1
  Pd  Pd191  1  0.39893063  0.40624971  -0.00434349  1
  Pd  Pd192  1  0.38975593  -0.00239301  0.61064574  1
  Pd  Pd193  1  0.80811919  0.79286383  -0.01227753  1
  Pd  Pd194  1  0.40511849  0.19428854  0.41026079  1
  Pd  Pd195  1  0.79385754  0.60377225  0.80334126  1
  Pd  Pd196  1  0.58947627  0.00699280  -0.00519003  1
  Pd  Pd197  1  0.20155007  0.20389030  0.40555521  1
  Pd  Pd198  1  0.00278555  0.19521161  0.20869984  1
  Pd  Pd199  1  0.00151278  0.79754158  0.39656652  1
  Rh  Rh200  1  0.60426404  0.80607043  0.39420005  1
  Rh  Rh201  1  0.19231029  0.39807109  0.40107290  1
  Rh  Rh202  1  0.01078593  0.39567757  0.78959876  1
  Rh  Rh203  1  -0.00135156  0.19676895  -0.00737637  1
  Rh  Rh204  1  -0.00348279  0.20697289  0.60095500  1
  Rh  Rh205  1  -0.00294829  0.41039993  0.19928034  1
  Rh  Rh206  1  0.20936834  0.19213559  0.80317987  1
  Rh  Rh207  1  0.19588592  -0.00385653  -0.00818818  1
  Rh  Rh208  1  0.80262370  0.58980072  0.20105021  1
  Rh  Rh209  1  0.20265330  0.59920561  0.39283360  1
  Rh  Rh210  1  0.20030899  0.79893842  0.80830813  1
  Rh  Rh211  1  0.60426488  -0.00910796  0.60013611  1
  Rh  Rh212  1  0.60688553  0.19903457  0.18785105  1
  Rh  Rh213  1  -0.00139327  0.59415791  0.00258871  1
  Rh  Rh214  1  -0.00739947  0.20674077  0.80006231  1
  Rh  Rh215  1  0.60406320  0.60527288  0.19701031  1
  Rh  Rh216  1  0.40016915  0.38975230  0.80560688  1
  Rh  Rh217  1  0.79327936  -0.00337055  0.39719371  1
  Rh  Rh218  1  0.38872268  0.19648509  0.19601357  1
  Rh  Rh219  1  0.59533487  0.80692615  0.79830884  1
  Rh  Rh220  1  0.19787023  -0.00160178  0.40671529  1
  Rh  Rh221  1  0.40981352  0.01109631  0.39505030  1
  Rh  Rh222  1  0.20092575  0.79693770  0.40687091  1
  Rh  Rh223  1  0.81146556  0.19384321  0.60733002  1
  Rh  Rh224  1  0.39177298  0.78630879  0.00813226  1
  Rh  Rh225  1  0.19417375  0.59104824  0.20753418  1
  Rh  Rh226  1  0.59094981  0.41178859  -0.00055807  1
  Rh  Rh227  1  0.79380808  0.00810394  0.78739986  1
  Rh  Rh228  1  0.40625568  0.40997757  0.38959085  1
  Rh  Rh229  1  0.39498269  0.79234836  0.60504069  1
  Rh  Rh230  1  0.19791113  0.79790076  0.19312938  1
  Rh  Rh231  1  0.60519406  0.40188823  0.19512900  1
  Rh  Rh232  1  0.80218396  0.79055199  0.60168345  1
  Rh  Rh233  1  0.38786573  0.60373708  0.80312240  1
  Rh  Rh234  1  0.00797163  0.40501429  0.00542731  1
  Rh  Rh235  1  0.80192324  0.60345581  0.40740998  1
  Rh  Rh236  1  0.80080874  0.39848940  0.80569528  1
  Rh  Rh237  1  0.80547733  0.39856733  0.00542376  1
  Rh  Rh238  1  0.59344694  0.39044987  0.78959814  1
  Rh  Rh239  1  0.00895060  -0.00786102  0.80325503  1
  Rh  Rh240  1  0.00452846  0.60380527  0.79912842  1
  Rh  Rh241  1  0.00290999  0.39799033  0.40630140  1
  Rh  Rh242  1  0.39710822  0.40481057  0.60120072  1
  Rh  Rh243  1  0.80228507  0.41279513  0.60621468  1
  Rh  Rh244  1  0.60591522  0.19818163  -0.01076954  1
  Rh  Rh245  1  0.80180077  0.60169914  -0.00878994  1
  Rh  Rh246  1  0.20761553  0.59621148  0.61107380  1
  Rh  Rh247  1  0.59596146  0.21113823  0.60055455  1
  Rh  Rh248  1  0.80198994  0.79641126  0.40144720  1
  Rh  Rh249  1  0.79847906  0.80271268  0.19964726  1
