# generated using pymatgen
data_ZrScNbPdRh
_symmetry_space_group_name_H-M   'P 1'
_cell_length_a   16.55562472
_cell_length_b   16.56296951
_cell_length_c   16.55914370
_cell_angle_alpha   90.03235791
_cell_angle_beta   90.02352584
_cell_angle_gamma   90.01214084
_symmetry_Int_Tables_number   1
_chemical_formula_structural   ZrScNbPdRh
_chemical_formula_sum   'Zr50 Sc50 Nb50 Pd50 Rh50'
_cell_volume   4540.68667679
_cell_formula_units_Z   50
loop_
 _symmetry_equiv_pos_site_id
 _symmetry_equiv_pos_as_xyz
  1  'x, y, z'
loop_
 _atom_site_type_symbol
 _atom_site_label
 _atom_site_symmetry_multiplicity
 _atom_site_fract_x
 _atom_site_fract_y
 _atom_site_fract_z
 _atom_site_occupancy
  Zr  Zr0  1  0.09686549  0.89891073  0.89916408  1
  Zr  Zr1  1  0.09978767  0.09429586  0.09998473  1
  Zr  Zr2  1  0.70454381  0.30526469  0.89514644  1
  Zr  Zr3  1  0.09349810  0.89632015  0.09489082  1
  Zr  Zr4  1  0.70019022  0.10684502  0.69833188  1
  Zr  Zr5  1  0.49571333  0.70643908  0.89750893  1
  Zr  Zr6  1  0.10841889  0.09212797  0.70557832  1
  Zr  Zr7  1  0.49051520  0.49535959  0.10792968  1
  Zr  Zr8  1  0.48804208  0.30181765  0.49377521  1
  Zr  Zr9  1  0.29845070  0.69799291  0.89750142  1
  Zr  Zr10  1  0.29779721  0.29123264  0.68838582  1
  Zr  Zr11  1  0.90230679  0.50287618  0.90098028  1
  Zr  Zr12  1  0.50081823  0.29888758  0.69581546  1
  Zr  Zr13  1  0.50155034  0.90457913  0.10533834  1
  Zr  Zr14  1  0.50514227  0.09612911  0.90186922  1
  Zr  Zr15  1  0.30481951  0.30634326  0.09422009  1
  Zr  Zr16  1  0.90292395  0.30227102  0.10382457  1
  Zr  Zr17  1  0.09639750  0.49725454  0.09924720  1
  Zr  Zr18  1  0.69984932  0.70277970  0.10153571  1
  Zr  Zr19  1  0.89135743  0.10358804  0.70063792  1
  Zr  Zr20  1  0.09949685  0.30166850  0.09629472  1
  Zr  Zr21  1  0.89311312  0.90442912  0.49694508  1
  Zr  Zr22  1  0.10348794  0.69844208  0.29700439  1
  Zr  Zr23  1  0.89489714  0.30425559  0.30228164  1
  Zr  Zr24  1  0.09494040  0.89481532  0.28546343  1
  Zr  Zr25  1  0.70410016  0.90120172  0.09866835  1
  Zr  Zr26  1  0.30071355  0.10139119  0.30555061  1
  Zr  Zr27  1  0.50736855  0.30707528  0.90389762  1
  Zr  Zr28  1  0.88915532  0.49502800  0.29976706  1
  Zr  Zr29  1  0.70077348  0.69364530  0.29525482  1
  Zr  Zr30  1  0.50192023  0.91288706  0.30101362  1
  Zr  Zr31  1  0.09549854  0.69757517  0.69021530  1
  Zr  Zr32  1  0.29369254  0.50231503  0.90561751  1
  Zr  Zr33  1  0.30373617  0.10402772  0.09962549  1
  Zr  Zr34  1  0.69735972  0.90274799  0.70664927  1
  Zr  Zr35  1  0.90118564  0.49804326  0.50234818  1
  Zr  Zr36  1  0.48946569  0.89801277  0.50050969  1
  Zr  Zr37  1  0.51060995  0.10082747  0.49147202  1
  Zr  Zr38  1  0.09963275  0.89765505  0.52183272  1
  Zr  Zr39  1  0.89339927  0.29726039  0.70443231  1
  Zr  Zr40  1  0.09569504  0.50359647  0.69155953  1
  Zr  Zr41  1  0.29825977  0.10266390  0.89551928  1
  Zr  Zr42  1  0.90252091  0.69683616  0.89954618  1
  Zr  Zr43  1  0.30187816  0.09336414  0.70590790  1
  Zr  Zr44  1  0.49743366  0.70252987  0.29062882  1
  Zr  Zr45  1  0.30467210  0.90305795  0.68762170  1
  Zr  Zr46  1  0.70352744  0.89801876  0.49612830  1
  Zr  Zr47  1  0.09989612  0.09177841  0.30077921  1
  Zr  Zr48  1  0.29473358  0.89206458  0.09845791  1
  Zr  Zr49  1  0.70171870  0.69581008  0.68907324  1
  Sc  Sc50  1  0.10311113  0.50807120  0.29833269  1
  Sc  Sc51  1  0.50531856  0.50014483  0.49824221  1
  Sc  Sc52  1  0.50261781  0.49607635  0.90508166  1
  Sc  Sc53  1  0.29770260  0.69823475  0.50176568  1
  Sc  Sc54  1  0.09638112  0.69937833  0.90101215  1
  Sc  Sc55  1  0.70768449  0.09891305  0.49996097  1
  Sc  Sc56  1  0.51050650  0.69548961  0.50466210  1
  Sc  Sc57  1  0.10156237  0.70957267  0.10602533  1
  Sc  Sc58  1  0.49132767  0.09896640  0.70044614  1
  Sc  Sc59  1  0.70076779  0.30543823  0.29964285  1
  Sc  Sc60  1  0.29649597  0.69731900  0.29383411  1
  Sc  Sc61  1  0.69369882  0.90937196  0.90051574  1
  Sc  Sc62  1  0.30826657  0.89306712  0.89264900  1
  Sc  Sc63  1  0.29696956  0.29525802  0.90740008  1
  Sc  Sc64  1  0.10980444  0.30129606  0.31837831  1
  Sc  Sc65  1  0.89502440  0.70500740  0.29416161  1
  Sc  Sc66  1  0.69524052  0.10019518  0.09286834  1
  Sc  Sc67  1  0.69788648  0.28595603  0.50064489  1
  Sc  Sc68  1  0.88691979  0.70271005  0.51227059  1
  Sc  Sc69  1  0.90097436  0.09952679  0.89662671  1
  Sc  Sc70  1  0.70179039  0.28625059  0.10010062  1
  Sc  Sc71  1  0.30051937  0.50106421  0.49718184  1
  Sc  Sc72  1  0.89021306  0.09915181  0.09579436  1
  Sc  Sc73  1  0.90244547  0.29196098  0.90197258  1
  Sc  Sc74  1  0.50174874  0.70150736  0.09828720  1
  Sc  Sc75  1  0.31212488  0.89709715  0.29724181  1
  Sc  Sc76  1  0.69726564  0.10030517  0.30142602  1
  Sc  Sc77  1  0.89352502  0.69621618  0.09739869  1
  Sc  Sc78  1  0.29625665  0.51459432  0.69759696  1
  Sc  Sc79  1  0.09930667  0.50535366  0.90246097  1
  Sc  Sc80  1  0.89877143  0.50900653  0.70116976  1
  Sc  Sc81  1  0.49698198  0.50327805  0.69439078  1
  Sc  Sc82  1  0.69989121  0.51179659  0.10640623  1
  Sc  Sc83  1  0.49730511  0.70591836  0.69756795  1
  Sc  Sc84  1  0.90427656  0.90058395  0.69919625  1
  Sc  Sc85  1  0.30114180  0.50691081  0.29361838  1
  Sc  Sc86  1  0.50623807  0.89864930  0.89195665  1
  Sc  Sc87  1  0.10281109  0.49977085  0.50443849  1
  Sc  Sc88  1  0.69836254  0.70009809  0.91396644  1
  Sc  Sc89  1  0.70211982  0.69925638  0.49991614  1
  Sc  Sc90  1  0.69953464  0.49815907  0.90328623  1
  Sc  Sc91  1  0.30166001  0.10279450  0.50380915  1
  Sc  Sc92  1  0.09972172  0.29117562  0.90663544  1
  Sc  Sc93  1  0.30220033  0.69529035  0.10127688  1
  Sc  Sc94  1  0.89921540  0.30698183  0.49495281  1
  Sc  Sc95  1  0.50701844  0.30172315  0.09928611  1
  Sc  Sc96  1  0.89282700  0.90562209  0.29831060  1
  Sc  Sc97  1  0.70199590  0.49474991  0.71359863  1
  Sc  Sc98  1  0.69772135  0.50936227  0.49292451  1
  Sc  Sc99  1  0.90481043  0.90299106  0.90211636  1
  Nb  Nb100  1  0.90345146  0.89778220  0.09612257  1
  Nb  Nb101  1  0.29653929  0.69898479  0.70681110  1
  Nb  Nb102  1  0.49874282  0.10161465  0.29388103  1
  Nb  Nb103  1  0.09601112  0.09557351  0.49986994  1
  Nb  Nb104  1  0.10411332  0.29943504  0.50836330  1
  Nb  Nb105  1  0.69801081  0.09998273  0.89842916  1
  Nb  Nb106  1  0.29017961  0.29676774  0.48427982  1
  Nb  Nb107  1  0.89494690  0.69552673  0.70461236  1
  Nb  Nb108  1  0.09877703  0.30539701  0.68896252  1
  Nb  Nb109  1  0.51284785  0.49958681  0.30038694  1
  Nb  Nb110  1  0.70097273  0.29894193  0.70124075  1
  Nb  Nb111  1  0.29612738  0.89909220  0.49995557  1
  Nb  Nb112  1  0.49798841  0.90395115  0.70019323  1
  Nb  Nb113  1  0.29643481  0.49614604  0.09930969  1
  Nb  Nb114  1  0.49874240  0.30229188  0.29953698  1
  Nb  Nb115  1  0.09982268  0.69850478  0.49749813  1
  Nb  Nb116  1  0.50368879  0.10228783  0.10668866  1
  Nb  Nb117  1  0.10967540  0.89776144  0.70176471  1
  Nb  Nb118  1  0.70251022  0.89723652  0.30563715  1
  Nb  Nb119  1  0.90445828  0.09756535  0.49987988  1
  Nb  Nb120  1  0.69233994  0.50542822  0.30295692  1
  Nb  Nb121  1  0.90329538  0.10136221  0.30887932  1
  Nb  Nb122  1  0.10431243  0.09231322  0.90088555  1
  Nb  Nb123  1  0.30313086  0.29611180  0.31179281  1
  Nb  Nb124  1  0.90460127  0.49211674  0.10130055  1
  Nb  Nb125  1  0.00145911  0.19965264  0.21007348  1
  Nb  Nb126  1  0.00420213  0.19861608  0.59535535  1
  Nb  Nb127  1  0.00200175  0.19438983  0.40537543  1
  Nb  Nb128  1  0.60341691  0.20285422  0.80070907  1
  Nb  Nb129  1  0.00312858  0.79808068  0.40497668  1
  Nb  Nb130  1  0.40879839  0.59935262  0.39251561  1
  Nb  Nb131  1  0.80116179  0.79544530  0.79856868  1
  Nb  Nb132  1  -0.00103831  0.60813989  0.40300126  1
  Nb  Nb133  1  0.39097231  0.39880218  0.79750641  1
  Nb  Nb134  1  0.19762345  0.39732050  0.79375661  1
  Nb  Nb135  1  0.59741506  0.60379609  0.80152956  1
  Nb  Nb136  1  0.20273135  -0.00130252  -0.00488005  1
  Nb  Nb137  1  0.79299893  0.39706526  0.60267648  1
  Nb  Nb138  1  0.20309121  0.20646304  0.20375360  1
  Nb  Nb139  1  0.80745685  0.40223483  0.00667107  1
  Nb  Nb140  1  0.00650280  0.39690501  0.79497798  1
  Nb  Nb141  1  0.19619617  -0.00902690  0.40669489  1
  Nb  Nb142  1  0.60569045  0.39388814  0.60221381  1
  Nb  Nb143  1  0.20609038  0.39454603  0.19961253  1
  Nb  Nb144  1  0.40051716  0.00207903  0.00300878  1
  Nb  Nb145  1  0.60089742  0.80365617  0.39321205  1
  Nb  Nb146  1  0.40290642  0.20506980  0.20746657  1
  Nb  Nb147  1  0.19808677  0.79837376  0.78983423  1
  Nb  Nb148  1  0.59583323  -0.00428876  0.60133434  1
  Nb  Nb149  1  0.19542722  0.80599034  0.40469433  1
  Pd  Pd150  1  0.40602354  0.20889177  0.80599473  1
  Pd  Pd151  1  -0.00077233  0.79732023  0.79626039  1
  Pd  Pd152  1  0.19306185  0.20895779  0.79879413  1
  Pd  Pd153  1  0.60084507  0.20561090  0.39150615  1
  Pd  Pd154  1  0.00467997  -0.01059045  0.40124112  1
  Pd  Pd155  1  0.40574222  0.80569744  0.00255778  1
  Pd  Pd156  1  0.60046747  0.80731494  0.59386641  1
  Pd  Pd157  1  -0.00249319  0.19066918  0.00537012  1
  Pd  Pd158  1  0.39371990  0.00537768  0.40536029  1
  Pd  Pd159  1  0.79860202  0.00545562  0.20299285  1
  Pd  Pd160  1  0.20961313  -0.00186180  0.20009459  1
  Pd  Pd161  1  0.61284127  0.00334920  0.19981922  1
  Pd  Pd162  1  0.01058493  0.20298249  0.79320974  1
  Pd  Pd163  1  0.60939889  0.79052112  0.80240522  1
  Pd  Pd164  1  0.19349616  0.60863895  0.00806813  1
  Pd  Pd165  1  0.40759509  0.59332115  0.80208628  1
  Pd  Pd166  1  0.60591269  0.39305593  0.40975585  1
  Pd  Pd167  1  0.59299641  0.59861947  -0.00040420  1
  Pd  Pd168  1  0.79428123  -0.00205851  0.60260354  1
  Pd  Pd169  1  0.19734043  0.19104091  0.59596624  1
  Pd  Pd170  1  0.78737509  0.40401593  0.19305825  1
  Pd  Pd171  1  0.60168386  0.80510088  0.20255278  1
  Pd  Pd172  1  0.00217478  0.60601023  0.00945997  1
  Pd  Pd173  1  0.61471877  0.40338853  0.01396110  1
  Pd  Pd174  1  0.39607270  0.40375070  0.60062027  1
  Pd  Pd175  1  0.40071251  0.60472032  0.59103875  1
  Pd  Pd176  1  0.80343896  0.19815052  0.40218560  1
  Pd  Pd177  1  -0.00193675  0.00483643  0.61120924  1
  Pd  Pd178  1  0.01286181  0.39292401  0.21544278  1
  Pd  Pd179  1  0.40336660  0.59743101  0.00291085  1
  Pd  Pd180  1  -0.00344847  0.00036721  0.79528395  1
  Pd  Pd181  1  0.39823884  0.41288565  0.39261434  1
  Pd  Pd182  1  0.20056541  0.41364378  0.39630308  1
  Pd  Pd183  1  0.80148182  0.00024313  -0.00705168  1
  Pd  Pd184  1  0.80310698  0.19224373  0.20383967  1
  Pd  Pd185  1  0.39677654  0.79101775  0.59967816  1
  Pd  Pd186  1  0.39947010  0.78890067  0.40059729  1
  Pd  Pd187  1  0.60801962  0.39705557  0.19465215  1
  Pd  Pd188  1  0.21267727  0.40557341  0.60076465  1
  Pd  Pd189  1  0.80793532  0.60579660  0.39970839  1
  Pd  Pd190  1  0.00924491  0.40514614  0.39931013  1
  Pd  Pd191  1  0.80210505  0.80647386  -0.00906157  1
  Pd  Pd192  1  0.80321961  0.80453785  0.19862736  1
  Pd  Pd193  1  0.40077113  0.19493271  0.59159496  1
  Pd  Pd194  1  -0.01066837  0.79549498  0.59954177  1
  Pd  Pd195  1  -0.00692650  0.60229853  0.20390360  1
  Pd  Pd196  1  -0.01558917  0.00507267  0.19328745  1
  Pd  Pd197  1  0.41222296  0.19813925  0.00459489  1
  Pd  Pd198  1  0.39608343  0.39662692  0.21040015  1
  Pd  Pd199  1  0.78811793  0.60562439  0.80761528  1
  Rh  Rh200  1  0.79812922  0.20350214  -0.00531414  1
  Rh  Rh201  1  0.60587396  0.58774396  0.61108390  1
  Rh  Rh202  1  0.39970313  0.00604525  0.19365139  1
  Rh  Rh203  1  0.59411348  0.00010269  0.00512107  1
  Rh  Rh204  1  0.80235906  -0.00459822  0.80489895  1
  Rh  Rh205  1  0.40505522  0.00574417  0.59382758  1
  Rh  Rh206  1  0.19368124  0.19072660  0.00354503  1
  Rh  Rh207  1  0.59428933  0.59901481  0.19518652  1
  Rh  Rh208  1  0.39516157  0.80305795  0.78915840  1
  Rh  Rh209  1  0.59488614  0.19680934  0.60486822  1
  Rh  Rh210  1  0.20352404  0.00745581  0.59596982  1
  Rh  Rh211  1  0.19217225  0.18965500  0.40336350  1
  Rh  Rh212  1  0.20705383  0.79024385  0.60255435  1
  Rh  Rh213  1  -0.00407964  0.39974369  -0.01347325  1
  Rh  Rh214  1  0.40262425  0.59667773  0.20126097  1
  Rh  Rh215  1  0.59721386  0.01158592  0.78977350  1
  Rh  Rh216  1  0.39672065  0.40375877  -0.00952094  1
  Rh  Rh217  1  0.40172457  -0.00572757  0.80593774  1
  Rh  Rh218  1  0.40616653  0.19532133  0.39832710  1
  Rh  Rh219  1  0.19596934  0.40223594  -0.00168544  1
  Rh  Rh220  1  -0.00515188  0.79523030  0.00404388  1
  Rh  Rh221  1  -0.01420235  0.39157297  0.60501219  1
  Rh  Rh222  1  0.19038593  0.60314645  0.79811175  1
  Rh  Rh223  1  0.81158286  0.20712366  0.59101545  1
  Rh  Rh224  1  0.79673606  0.58766247  0.60048041  1
  Rh  Rh225  1  0.58615132  0.40331657  0.78970299  1
  Rh  Rh226  1  -0.00651898  0.60667714  0.59162731  1
  Rh  Rh227  1  0.59414279  0.61071117  0.39284568  1
  Rh  Rh228  1  0.78752460  0.40346931  0.40726173  1
  Rh  Rh229  1  0.20049498  0.59169707  0.18991022  1
  Rh  Rh230  1  0.79920639  0.79582294  0.39630765  1
  Rh  Rh231  1  0.60204584  0.19785822  -0.00693972  1
  Rh  Rh232  1  0.59432967  0.20222298  0.20568820  1
  Rh  Rh233  1  0.19924817  0.80169587  -0.01266385  1
  Rh  Rh234  1  0.60002924  0.80628781  0.00238746  1
  Rh  Rh235  1  0.00503247  0.59535318  0.79704297  1
  Rh  Rh236  1  0.20197583  0.60219022  0.59570354  1
  Rh  Rh237  1  0.00154272  0.00276784  0.00022883  1
  Rh  Rh238  1  0.79701169  0.00731678  0.39545000  1
  Rh  Rh239  1  0.80235566  0.80598210  0.61152473  1
  Rh  Rh240  1  0.20189359  0.60512232  0.40241221  1
  Rh  Rh241  1  0.20748590  0.80092687  0.20665490  1
  Rh  Rh242  1  0.80382739  0.59063742  0.00483553  1
  Rh  Rh243  1  0.39728879  0.79826281  0.19463231  1
  Rh  Rh244  1  0.80323585  0.59420413  0.19954276  1
  Rh  Rh245  1  0.81269275  0.40105025  0.80450590  1
  Rh  Rh246  1  0.20546436  -0.01249560  0.80723793  1
  Rh  Rh247  1  -0.01163089  0.79943006  0.19822666  1
  Rh  Rh248  1  0.60598892  -0.00528799  0.40456588  1
  Rh  Rh249  1  0.79245783  0.19440994  0.80950268  1
