# generated using pymatgen
data_ZrScNbPdRh
_symmetry_space_group_name_H-M   'P 1'
_cell_length_a   16.56415419
_cell_length_b   16.55741792
_cell_length_c   16.55139306
_cell_angle_alpha   90.04010180
_cell_angle_beta   89.98173620
_cell_angle_gamma   90.02630815
_symmetry_Int_Tables_number   1
_chemical_formula_structural   ZrScNbPdRh
_chemical_formula_sum   'Zr50 Sc50 Nb50 Pd50 Rh50'
_cell_volume   4539.37700606
_cell_formula_units_Z   50
loop_
 _symmetry_equiv_pos_site_id
 _symmetry_equiv_pos_as_xyz
  1  'x, y, z'
loop_
 _atom_site_type_symbol
 _atom_site_label
 _atom_site_symmetry_multiplicity
 _atom_site_fract_x
 _atom_site_fract_y
 _atom_site_fract_z
 _atom_site_occupancy
  Zr  Zr0  1  0.30550742  0.69520855  0.10265076  1
  Zr  Zr1  1  0.69914856  0.90153221  0.10091078  1
  Zr  Zr2  1  0.69953564  0.49965105  0.89777561  1
  Zr  Zr3  1  0.50574816  0.69675480  0.90347931  1
  Zr  Zr4  1  0.89833703  0.10210117  0.49402580  1
  Zr  Zr5  1  0.49898097  0.50184611  0.30733840  1
  Zr  Zr6  1  0.50194456  0.09758519  0.10488361  1
  Zr  Zr7  1  0.90956681  0.70160411  0.29875536  1
  Zr  Zr8  1  0.29540473  0.51240525  0.50374657  1
  Zr  Zr9  1  0.89904955  0.70298180  0.69672051  1
  Zr  Zr10  1  0.10232464  0.50163892  0.50421027  1
  Zr  Zr11  1  0.50776021  0.10364665  0.30420578  1
  Zr  Zr12  1  0.69337486  0.70206973  0.50192500  1
  Zr  Zr13  1  0.50406992  0.49650220  0.09753373  1
  Zr  Zr14  1  0.69678083  0.90241060  0.90010984  1
  Zr  Zr15  1  0.30513983  0.69747884  0.70056397  1
  Zr  Zr16  1  0.29937693  0.30400221  0.70409414  1
  Zr  Zr17  1  0.30308446  0.50240379  0.30335208  1
  Zr  Zr18  1  0.50317966  0.50381390  0.89316697  1
  Zr  Zr19  1  0.89464051  0.10474662  0.90247270  1
  Zr  Zr20  1  0.50750935  0.29679519  0.09707458  1
  Zr  Zr21  1  0.30111281  0.30205577  0.89311090  1
  Zr  Zr22  1  0.30034400  0.50106865  0.69955156  1
  Zr  Zr23  1  0.10041867  0.69317001  0.10538673  1
  Zr  Zr24  1  0.49891016  0.69028900  0.70617716  1
  Zr  Zr25  1  0.30409824  0.09279680  0.29869213  1
  Zr  Zr26  1  0.10247546  0.30136933  0.70394056  1
  Zr  Zr27  1  0.71038958  0.30393377  0.70539877  1
  Zr  Zr28  1  0.69591459  0.49945676  0.69986546  1
  Zr  Zr29  1  0.09711602  0.10263759  0.69765355  1
  Zr  Zr30  1  0.10348240  0.69712357  0.50123395  1
  Zr  Zr31  1  0.30582707  0.70080661  0.29658057  1
  Zr  Zr32  1  0.29573431  0.09529572  0.09638992  1
  Zr  Zr33  1  0.49707421  0.11436067  0.50106972  1
  Zr  Zr34  1  0.69824064  0.70658281  0.10469583  1
  Zr  Zr35  1  0.90997148  0.69379717  0.89311002  1
  Zr  Zr36  1  0.30184512  0.89867649  0.30878761  1
  Zr  Zr37  1  0.69739362  0.30246995  0.10301656  1
  Zr  Zr38  1  0.89102711  0.29939414  0.10429276  1
  Zr  Zr39  1  0.69397154  0.50171990  0.29480200  1
  Zr  Zr40  1  0.09773894  0.89778441  0.90108555  1
  Zr  Zr41  1  0.90164479  0.69084679  0.09634535  1
  Zr  Zr42  1  0.09479147  0.90052669  0.29905271  1
  Zr  Zr43  1  0.29697275  0.09214940  0.49674946  1
  Zr  Zr44  1  0.49815924  0.10033954  0.69825927  1
  Zr  Zr45  1  0.30646815  0.89440687  0.10573277  1
  Zr  Zr46  1  0.50129336  0.89080875  0.49992499  1
  Zr  Zr47  1  0.10382896  0.49408771  0.69700774  1
  Zr  Zr48  1  0.90251194  0.49060313  0.49882907  1
  Zr  Zr49  1  0.89490529  0.10096249  0.09639406  1
  Sc  Sc50  1  0.70227556  0.10192317  0.90243521  1
  Sc  Sc51  1  0.30394014  0.49744119  0.90097319  1
  Sc  Sc52  1  0.09161838  0.10077245  0.10132625  1
  Sc  Sc53  1  0.09672962  0.70107978  0.30211479  1
  Sc  Sc54  1  0.90540101  0.10375648  0.30274317  1
  Sc  Sc55  1  0.29295300  0.50410143  0.09755035  1
  Sc  Sc56  1  0.90782014  0.29999771  0.70166216  1
  Sc  Sc57  1  0.09976711  0.30409215  0.89552835  1
  Sc  Sc58  1  0.68917821  0.10362172  0.70714088  1
  Sc  Sc59  1  0.10054863  0.90593176  0.49585859  1
  Sc  Sc60  1  0.08921977  0.09208753  0.50169893  1
  Sc  Sc61  1  0.49528846  0.70182485  0.09917182  1
  Sc  Sc62  1  0.90543772  0.90582115  0.90615546  1
  Sc  Sc63  1  0.30367791  0.30041415  0.49825697  1
  Sc  Sc64  1  0.70428941  0.49076630  0.09516230  1
  Sc  Sc65  1  0.69587630  0.10642818  0.09513575  1
  Sc  Sc66  1  0.50373701  0.89242136  0.10171172  1
  Sc  Sc67  1  0.50134815  0.90541064  0.29283052  1
  Sc  Sc68  1  0.50366617  0.88866375  0.90057464  1
  Sc  Sc69  1  0.69388194  0.49669214  0.50640551  1
  Sc  Sc70  1  0.69986319  0.30437434  0.49664221  1
  Sc  Sc71  1  0.09803078  0.09786361  0.90348261  1
  Sc  Sc72  1  0.30321913  0.11282832  0.70051164  1
  Sc  Sc73  1  0.69088911  0.89791488  0.69256131  1
  Sc  Sc74  1  0.50548442  0.89514266  0.70609172  1
  Sc  Sc75  1  0.49638927  0.30502919  0.90226093  1
  Sc  Sc76  1  0.50857761  0.10551625  0.89836635  1
  Sc  Sc77  1  0.31125386  0.69726893  0.90342361  1
  Sc  Sc78  1  0.69245386  0.09978496  0.48846402  1
  Sc  Sc79  1  0.29888436  0.89149553  0.90306794  1
  Sc  Sc80  1  0.09291230  0.49534507  0.90431333  1
  Sc  Sc81  1  0.10039790  0.30420318  0.09959536  1
  Sc  Sc82  1  0.09908656  0.50473553  0.30680590  1
  Sc  Sc83  1  0.28971832  0.30336767  0.29754225  1
  Sc  Sc84  1  0.49730594  0.29292919  0.69838200  1
  Sc  Sc85  1  0.69545482  0.90457629  0.49347013  1
  Sc  Sc86  1  0.29704178  0.10611543  0.89444047  1
  Sc  Sc87  1  0.90419006  0.50063963  0.30468924  1
  Sc  Sc88  1  0.08941793  0.71068401  0.71053476  1
  Sc  Sc89  1  0.90499546  0.90440496  0.30104473  1
  Sc  Sc90  1  0.90404342  0.90235909  0.49656992  1
  Sc  Sc91  1  0.09887440  0.29808821  0.29356169  1
  Sc  Sc92  1  0.90779871  0.90493946  0.09964159  1
  Sc  Sc93  1  0.90077755  0.29801895  0.89803427  1
  Sc  Sc94  1  0.89455263  0.49950050  0.70684831  1
  Sc  Sc95  1  0.50603670  0.69196226  0.29736827  1
  Sc  Sc96  1  0.08854413  0.30841864  0.50890783  1
  Sc  Sc97  1  0.69840333  0.29776482  0.29436341  1
  Sc  Sc98  1  0.90134514  0.70466830  0.50160974  1
  Sc  Sc99  1  0.91223685  0.10705009  0.70253112  1
  Nb  Nb100  1  0.49490534  0.68980463  0.49812323  1
  Nb  Nb101  1  0.89420830  0.30386324  0.30394818  1
  Nb  Nb102  1  0.70401862  0.69828374  0.90062394  1
  Nb  Nb103  1  0.50057370  0.30163043  0.49174138  1
  Nb  Nb104  1  0.30262993  0.89844043  0.70235291  1
  Nb  Nb105  1  0.69745677  0.89947425  0.29805718  1
  Nb  Nb106  1  0.49822653  0.49937282  0.69776427  1
  Nb  Nb107  1  0.89956389  0.49870458  0.09601475  1
  Nb  Nb108  1  0.10157055  0.09739529  0.30003039  1
  Nb  Nb109  1  0.08903929  0.49649501  0.10209181  1
  Nb  Nb110  1  0.69648172  0.08633618  0.30356371  1
  Nb  Nb111  1  0.89414671  0.29905571  0.50013036  1
  Nb  Nb112  1  0.49943319  0.49960158  0.49759683  1
  Nb  Nb113  1  0.70217204  0.29532143  0.89950061  1
  Nb  Nb114  1  0.30201339  0.89494354  0.50156828  1
  Nb  Nb115  1  0.50001171  0.30013447  0.29897570  1
  Nb  Nb116  1  0.70295192  0.70137604  0.29711545  1
  Nb  Nb117  1  0.09810424  0.90412327  0.70037968  1
  Nb  Nb118  1  0.89797477  0.50672626  0.91596479  1
  Nb  Nb119  1  0.70847898  0.69611465  0.70025897  1
  Nb  Nb120  1  0.90225380  0.89984174  0.69708586  1
  Nb  Nb121  1  0.30277240  0.29932080  0.09894569  1
  Nb  Nb122  1  0.10594555  0.90926613  0.09353206  1
  Nb  Nb123  1  0.10049051  0.70403212  0.89594159  1
  Nb  Nb124  1  0.30530084  0.70570242  0.50512939  1
  Nb  Nb125  1  0.79989315  0.79532773  -0.00640033  1
  Nb  Nb126  1  0.79477777  0.60585123  0.39610574  1
  Nb  Nb127  1  0.79440799  0.79768117  0.39123824  1
  Nb  Nb128  1  -0.00737535  0.40202792  0.19708863  1
  Nb  Nb129  1  0.40170991  0.39494131  0.19958880  1
  Nb  Nb130  1  0.00142644  0.59785146  0.60365235  1
  Nb  Nb131  1  0.39774873  -0.00231607  0.79935447  1
  Nb  Nb132  1  0.19433450  0.19285601  0.40153860  1
  Nb  Nb133  1  0.19738353  0.19983207  0.59524943  1
  Nb  Nb134  1  0.80265134  0.19796996  0.59605756  1
  Nb  Nb135  1  0.20486971  0.20514218  0.00312660  1
  Nb  Nb136  1  0.20197209  -0.00602424  0.79281314  1
  Nb  Nb137  1  0.80242150  -0.00513042  0.79154918  1
  Nb  Nb138  1  0.79464598  0.00089639  0.20479576  1
  Nb  Nb139  1  0.80201264  0.00616353  0.60403794  1
  Nb  Nb140  1  0.80230266  0.60047501  0.20121210  1
  Nb  Nb141  1  0.19705646  -0.00330535  0.20069968  1
  Nb  Nb142  1  0.39987444  0.20531352  0.19856574  1
  Nb  Nb143  1  0.19441045  0.60459823  0.80367049  1
  Nb  Nb144  1  0.80010434  0.80080311  0.79823878  1
  Nb  Nb145  1  0.20627225  0.80784100  0.60278536  1
  Nb  Nb146  1  0.19420199  0.79517663  0.00359650  1
  Nb  Nb147  1  0.39980815  -0.00078682  -0.00412044  1
  Nb  Nb148  1  0.40839315  0.40519848  0.59305640  1
  Nb  Nb149  1  0.39560731  -0.00622102  0.60208310  1
  Pd  Pd150  1  0.79636140  0.81266676  0.59501811  1
  Pd  Pd151  1  0.39530313  0.39721937  0.39964842  1
  Pd  Pd152  1  0.59797008  0.00418468  0.59447397  1
  Pd  Pd153  1  0.79152835  0.40682509  0.39670466  1
  Pd  Pd154  1  0.59746931  0.79730156  0.39223163  1
  Pd  Pd155  1  0.00709093  0.20637565  -0.00130277  1
  Pd  Pd156  1  0.41075631  -0.00245973  0.40833129  1
  Pd  Pd157  1  0.00539341  0.39265661  0.39149122  1
  Pd  Pd158  1  0.19492418  0.80474968  0.19685989  1
  Pd  Pd159  1  0.39013216  0.20669065  0.39118986  1
  Pd  Pd160  1  0.20356785  0.60974335  0.39506099  1
  Pd  Pd161  1  0.80016548  0.39367101  -0.00764583  1
  Pd  Pd162  1  0.00725242  0.20756646  0.40062577  1
  Pd  Pd163  1  0.60460932  0.39747586  0.39651182  1
  Pd  Pd164  1  0.20438034  0.00097674  0.60653067  1
  Pd  Pd165  1  0.80072381  0.59985971  0.80181573  1
  Pd  Pd166  1  0.01045936  0.60001247  -0.00312347  1
  Pd  Pd167  1  0.59517821  0.39249486  0.79913916  1
  Pd  Pd168  1  0.59734467  0.20785378  0.80329326  1
  Pd  Pd169  1  0.39682118  0.19352707  -0.00127128  1
  Pd  Pd170  1  0.79289426  0.20063376  0.39818029  1
  Pd  Pd171  1  -0.00822338  0.40618839  0.80520924  1
  Pd  Pd172  1  0.40442818  0.80096479  0.60611096  1
  Pd  Pd173  1  0.00213384  0.80477599  0.19134467  1
  Pd  Pd174  1  0.80804827  0.40196543  0.80822121  1
  Pd  Pd175  1  0.59477755  0.79012726  0.60473056  1
  Pd  Pd176  1  0.20516118  0.79883426  0.80103301  1
  Pd  Pd177  1  0.00964007  0.80231811  0.59470322  1
  Pd  Pd178  1  0.59659949  0.60147299  0.60052364  1
  Pd  Pd179  1  0.79378809  0.18958118  0.20931516  1
  Pd  Pd180  1  0.60800414  0.79145043  0.79535831  1
  Pd  Pd181  1  0.19662949  0.59328875  0.20604360  1
  Pd  Pd182  1  0.80641023  0.59468049  0.59082655  1
  Pd  Pd183  1  0.19872753  0.39676560  -0.00105655  1
  Pd  Pd184  1  0.60267754  0.59911897  0.19070524  1
  Pd  Pd185  1  0.59335733  0.39046728  0.60222562  1
  Pd  Pd186  1  0.19501743  0.60249993  -0.00845137  1
  Pd  Pd187  1  0.39810958  0.40440038  0.00505849  1
  Pd  Pd188  1  0.19850953  0.79768624  0.40605068  1
  Pd  Pd189  1  0.80917721  0.80484332  0.19907153  1
  Pd  Pd190  1  0.19751327  0.40833350  0.19746881  1
  Pd  Pd191  1  0.00071218  0.79783837  0.00531594  1
  Pd  Pd192  1  -0.00430025  0.20635880  0.20244825  1
  Pd  Pd193  1  0.59146272  -0.00028166  -0.00236128  1
  Pd  Pd194  1  0.61040668  0.20911591  0.59783091  1
  Pd  Pd195  1  0.20202478  0.19285454  0.19873503  1
  Pd  Pd196  1  -0.00054341  0.00010000  0.80196323  1
  Pd  Pd197  1  0.60606333  0.59970217  0.00678027  1
  Pd  Pd198  1  0.41047991  0.79328717  0.39367100  1
  Pd  Pd199  1  0.19340739  0.39107543  0.40552192  1
  Rh  Rh200  1  0.40455199  0.80036155  0.80314081  1
  Rh  Rh201  1  0.39543556  0.80277061  -0.00014389  1
  Rh  Rh202  1  0.39573456  0.59502600  0.80440912  1
  Rh  Rh203  1  0.39409467  0.20529656  0.59600538  1
  Rh  Rh204  1  -0.00225212  0.00776206  0.00084788  1
  Rh  Rh205  1  -0.00008461  0.00314171  0.19823791  1
  Rh  Rh206  1  0.60554992  0.20598429  0.39509875  1
  Rh  Rh207  1  0.79442034  0.20614907  -0.00113788  1
  Rh  Rh208  1  0.18803952  0.61867596  0.61593681  1
  Rh  Rh209  1  -0.00843403  -0.00288164  0.59864108  1
  Rh  Rh210  1  0.80111056  0.19261920  0.79240512  1
  Rh  Rh211  1  0.59350434  0.79915414  0.20344691  1
  Rh  Rh212  1  0.80864827  0.40828175  0.20822757  1
  Rh  Rh213  1  0.60634896  0.39537098  -0.01131010  1
  Rh  Rh214  1  -0.00206683  0.20415417  0.59401941  1
  Rh  Rh215  1  0.19983676  0.41254978  0.80777268  1
  Rh  Rh216  1  0.00596416  0.59045837  0.79691805  1
  Rh  Rh217  1  -0.00979522  0.81004519  0.80195718  1
  Rh  Rh218  1  0.79436051  0.60315046  0.00506790  1
  Rh  Rh219  1  0.60457805  0.20531196  -0.00437408  1
  Rh  Rh220  1  0.19498801  0.00040444  0.39360342  1
  Rh  Rh221  1  -0.00679228  0.39574532  0.00551491  1
  Rh  Rh222  1  0.80026086  -0.00876752  0.39654427  1
  Rh  Rh223  1  0.40654432  0.40245229  0.79136207  1
  Rh  Rh224  1  -0.00510397  0.60228520  0.41347355  1
  Rh  Rh225  1  0.60695611  0.60207136  0.79517465  1
  Rh  Rh226  1  0.60615832  -0.00011018  0.19690969  1
  Rh  Rh227  1  0.40750429  0.59401248  0.59510226  1
  Rh  Rh228  1  -0.00429419  0.58874477  0.20116740  1
  Rh  Rh229  1  0.20560660  -0.00214187  -0.00325018  1
  Rh  Rh230  1  0.40769126  0.19704468  0.80444834  1
  Rh  Rh231  1  0.60097160  0.19659738  0.20517407  1
  Rh  Rh232  1  0.59144134  -0.00405778  0.40470392  1
  Rh  Rh233  1  0.00347325  0.20165793  0.80743063  1
  Rh  Rh234  1  0.39659972  0.60600605  0.40367484  1
  Rh  Rh235  1  0.39762023  0.00354943  0.19173826  1
  Rh  Rh236  1  0.40818914  0.79656696  0.20750110  1
  Rh  Rh237  1  0.59187144  0.40097997  0.20373704  1
  Rh  Rh238  1  0.40470269  0.59510084  0.00050371  1
  Rh  Rh239  1  0.40261415  0.58981861  0.19629911  1
  Rh  Rh240  1  -0.00279354  0.80154496  0.40322996  1
  Rh  Rh241  1  -0.00070445  0.00120769  0.39708076  1
  Rh  Rh242  1  0.21257403  0.38944223  0.59342597  1
  Rh  Rh243  1  0.59966284  -0.00092394  0.80362548  1
  Rh  Rh244  1  -0.00986547  0.40474687  0.60615877  1
  Rh  Rh245  1  0.60586372  0.79637433  0.00158907  1
  Rh  Rh246  1  0.18987924  0.19268402  0.80147680  1
  Rh  Rh247  1  0.80018074  -0.00456509  0.00294848  1
  Rh  Rh248  1  0.60465431  0.60116410  0.40649459  1
  Rh  Rh249  1  0.80287772  0.39268189  0.60211259  1
