# generated using pymatgen
data_ZrScNbPdRh
_symmetry_space_group_name_H-M   'P 1'
_cell_length_a   16.55750986
_cell_length_b   16.55254358
_cell_length_c   16.55813100
_cell_angle_alpha   89.99879841
_cell_angle_beta   90.01301839
_cell_angle_gamma   90.01721635
_symmetry_Int_Tables_number   1
_chemical_formula_structural   ZrScNbPdRh
_chemical_formula_sum   'Zr50 Sc50 Nb50 Pd50 Rh50'
_cell_volume   4538.06848623
_cell_formula_units_Z   50
loop_
 _symmetry_equiv_pos_site_id
 _symmetry_equiv_pos_as_xyz
  1  'x, y, z'
loop_
 _atom_site_type_symbol
 _atom_site_label
 _atom_site_symmetry_multiplicity
 _atom_site_fract_x
 _atom_site_fract_y
 _atom_site_fract_z
 _atom_site_occupancy
  Zr  Zr0  1  0.70110383  0.69064680  0.50638841  1
  Zr  Zr1  1  0.29077870  0.70147007  0.89811646  1
  Zr  Zr2  1  0.90643891  0.10371097  0.29379959  1
  Zr  Zr3  1  0.29621041  0.30090861  0.89675065  1
  Zr  Zr4  1  0.90767007  0.69489145  0.49955472  1
  Zr  Zr5  1  0.90438481  0.89903957  0.09395041  1
  Zr  Zr6  1  0.49403566  0.70085549  0.30663454  1
  Zr  Zr7  1  0.30557079  0.70338153  0.49815620  1
  Zr  Zr8  1  0.09439115  0.10238540  0.70067814  1
  Zr  Zr9  1  0.48978324  0.50494948  0.30532387  1
  Zr  Zr10  1  0.89201918  0.50463883  0.29864681  1
  Zr  Zr11  1  0.49850030  0.29587169  0.50757950  1
  Zr  Zr12  1  0.09787882  0.09672102  0.10521023  1
  Zr  Zr13  1  0.70793399  0.29741265  0.50014673  1
  Zr  Zr14  1  0.49715164  0.70318963  0.09881514  1
  Zr  Zr15  1  0.70861042  0.69904642  0.30627783  1
  Zr  Zr16  1  0.69147922  0.68863537  0.89961140  1
  Zr  Zr17  1  0.10369182  0.70087130  0.10377358  1
  Zr  Zr18  1  0.10826456  0.89757190  0.29745972  1
  Zr  Zr19  1  0.49311337  0.90487321  0.90149394  1
  Zr  Zr20  1  0.69592501  0.29545663  0.10050649  1
  Zr  Zr21  1  0.69783668  0.10585137  0.10081064  1
  Zr  Zr22  1  0.90832149  0.69643246  0.30192880  1
  Zr  Zr23  1  0.49742195  0.69242566  0.50160135  1
  Zr  Zr24  1  0.10425018  0.89725039  0.10148821  1
  Zr  Zr25  1  0.10469523  0.70367223  0.30770633  1
  Zr  Zr26  1  0.29514367  0.10756521  0.29776260  1
  Zr  Zr27  1  0.70018031  0.50582114  0.10158468  1
  Zr  Zr28  1  0.71308569  0.90379214  0.49436514  1
  Zr  Zr29  1  0.11182188  0.49548032  0.90782376  1
  Zr  Zr30  1  0.10613658  0.10533413  0.49268116  1
  Zr  Zr31  1  0.89602993  0.09528094  0.70098573  1
  Zr  Zr32  1  0.50211348  0.29850359  0.89484032  1
  Zr  Zr33  1  0.09791257  0.69719100  0.70027980  1
  Zr  Zr34  1  0.50479468  0.90752831  0.29905897  1
  Zr  Zr35  1  0.49996646  0.10201592  0.91043460  1
  Zr  Zr36  1  0.30250277  0.29990076  0.50083042  1
  Zr  Zr37  1  0.50334709  0.50254851  0.89755104  1
  Zr  Zr38  1  0.50005175  0.09772520  0.50065050  1
  Zr  Zr39  1  0.49954690  0.28896377  0.09856117  1
  Zr  Zr40  1  0.70964190  0.50283406  0.49824325  1
  Zr  Zr41  1  0.29768030  0.49575353  0.70958437  1
  Zr  Zr42  1  0.89751295  0.90245246  0.70038679  1
  Zr  Zr43  1  0.49786225  0.10448305  0.10604214  1
  Zr  Zr44  1  0.89578088  0.09607891  0.89224733  1
  Zr  Zr45  1  0.30382874  0.09902433  0.90660854  1
  Zr  Zr46  1  0.09585463  0.29763665  0.90243795  1
  Zr  Zr47  1  0.70138308  0.50999649  0.70288844  1
  Zr  Zr48  1  0.10187662  0.51468079  0.29452910  1
  Zr  Zr49  1  0.48774461  0.89735358  0.50225811  1
  Sc  Sc50  1  0.30034939  0.89677817  0.09967479  1
  Sc  Sc51  1  0.09258063  0.89281351  0.70383280  1
  Sc  Sc52  1  0.49504697  0.29972827  0.70232155  1
  Sc  Sc53  1  0.49956043  0.89884620  0.10064131  1
  Sc  Sc54  1  0.89862677  0.30032671  0.88910979  1
  Sc  Sc55  1  0.90802086  0.70878309  0.90137085  1
  Sc  Sc56  1  0.30489684  0.09801005  0.49365942  1
  Sc  Sc57  1  0.29990652  0.50485625  0.50954104  1
  Sc  Sc58  1  0.10171697  0.69279311  0.49729585  1
  Sc  Sc59  1  0.49781297  0.50229280  0.70506863  1
  Sc  Sc60  1  0.29719149  0.10058527  0.09865932  1
  Sc  Sc61  1  0.69591670  0.90540501  0.90589037  1
  Sc  Sc62  1  0.50516622  0.10598154  0.70651537  1
  Sc  Sc63  1  0.10518768  0.10200255  0.29406015  1
  Sc  Sc64  1  0.89248607  0.10987337  0.49622459  1
  Sc  Sc65  1  0.88788372  0.89446241  0.30086395  1
  Sc  Sc66  1  0.29660196  0.29469675  0.10618475  1
  Sc  Sc67  1  0.30301840  0.89925706  0.90274165  1
  Sc  Sc68  1  0.09587083  0.88948742  0.90131019  1
  Sc  Sc69  1  0.69635507  0.70914251  0.09641554  1
  Sc  Sc70  1  0.89991626  0.50130549  0.69536656  1
  Sc  Sc71  1  0.30473651  0.69376826  0.70235981  1
  Sc  Sc72  1  0.69624480  0.10275904  0.89378566  1
  Sc  Sc73  1  0.70628246  0.10361038  0.49939587  1
  Sc  Sc74  1  0.09894100  0.88493350  0.49218130  1
  Sc  Sc75  1  0.10342842  0.30011205  0.09598415  1
  Sc  Sc76  1  0.29793409  0.09549375  0.71239440  1
  Sc  Sc77  1  0.10836056  0.09931903  0.89715301  1
  Sc  Sc78  1  0.30939816  0.89717463  0.70869583  1
  Sc  Sc79  1  0.48327078  0.30146033  0.29620186  1
  Sc  Sc80  1  0.90266451  0.49054385  0.88968337  1
  Sc  Sc81  1  0.08980508  0.30468091  0.49752988  1
  Sc  Sc82  1  0.10385165  0.50599563  0.69374055  1
  Sc  Sc83  1  0.70773096  0.29743277  0.29928023  1
  Sc  Sc84  1  0.29915426  0.89742140  0.30327890  1
  Sc  Sc85  1  0.49772998  0.70381345  0.90278866  1
  Sc  Sc86  1  0.89563537  0.29366399  0.10642983  1
  Sc  Sc87  1  0.49156093  0.90383937  0.70318896  1
  Sc  Sc88  1  0.89983459  0.89216994  0.49936371  1
  Sc  Sc89  1  0.49253368  0.50390677  0.10359551  1
  Sc  Sc90  1  0.30114781  0.69556707  0.30366971  1
  Sc  Sc91  1  0.90157509  0.70851551  0.10328723  1
  Sc  Sc92  1  0.70221819  0.09024643  0.30170941  1
  Sc  Sc93  1  0.90042099  0.30139245  0.69737053  1
  Sc  Sc94  1  0.09421458  0.29858201  0.70125694  1
  Sc  Sc95  1  0.90670979  0.69706903  0.69657045  1
  Sc  Sc96  1  0.90240620  0.30171497  0.30466571  1
  Sc  Sc97  1  0.69995422  0.30148885  0.88933858  1
  Sc  Sc98  1  0.69692268  0.49901674  0.88895985  1
  Sc  Sc99  1  0.09968391  0.29118769  0.29693221  1
  Nb  Nb100  1  0.29924031  0.70360938  0.09328346  1
  Nb  Nb101  1  0.69730320  0.50365105  0.30155256  1
  Nb  Nb102  1  0.90555049  0.48760605  0.49782220  1
  Nb  Nb103  1  0.29912692  0.30456745  0.69441645  1
  Nb  Nb104  1  0.89648268  0.89929259  0.89832262  1
  Nb  Nb105  1  0.29903941  0.49928305  0.90183977  1
  Nb  Nb106  1  0.70152551  0.89574756  0.30138183  1
  Nb  Nb107  1  0.29488657  0.30523094  0.30297321  1
  Nb  Nb108  1  0.28587210  0.50004527  0.09568214  1
  Nb  Nb109  1  0.70224898  0.09519040  0.69535575  1
  Nb  Nb110  1  0.09894111  0.69743883  0.90001971  1
  Nb  Nb111  1  0.90309001  0.09823988  0.09716521  1
  Nb  Nb112  1  0.70825025  0.89774782  0.11176558  1
  Nb  Nb113  1  0.50297244  0.10248128  0.29786442  1
  Nb  Nb114  1  0.10108793  0.50029497  0.09683725  1
  Nb  Nb115  1  0.89418710  0.31382283  0.49396434  1
  Nb  Nb116  1  0.10188563  0.50584799  0.49648086  1
  Nb  Nb117  1  0.68794901  0.29581229  0.69676375  1
  Nb  Nb118  1  0.70118355  0.69969746  0.69972615  1
  Nb  Nb119  1  0.50391483  0.70592275  0.69696681  1
  Nb  Nb120  1  0.70628820  0.90290938  0.69531173  1
  Nb  Nb121  1  0.30084649  0.89865668  0.50736258  1
  Nb  Nb122  1  0.51114562  0.50431291  0.49866904  1
  Nb  Nb123  1  0.29923664  0.49239703  0.29671076  1
  Nb  Nb124  1  0.90095707  0.50258347  0.10065972  1
  Nb  Nb125  1  0.60318762  0.80343882  0.40493583  1
  Nb  Nb126  1  0.00139041  0.00042457  0.40055573  1
  Nb  Nb127  1  0.00200807  0.59424123  0.00325989  1
  Nb  Nb128  1  0.60184172  0.40314031  0.59547879  1
  Nb  Nb129  1  0.60632521  -0.00408843  0.60215850  1
  Nb  Nb130  1  0.00474845  0.00223590  0.59117166  1
  Nb  Nb131  1  0.79400778  0.80166049  0.79802008  1
  Nb  Nb132  1  0.38701466  0.59664657  0.00067603  1
  Nb  Nb133  1  0.20198957  0.40558769  0.39511149  1
  Nb  Nb134  1  0.80798487  0.59555254  -0.00127954  1
  Nb  Nb135  1  0.59878327  0.59999713  0.20621763  1
  Nb  Nb136  1  0.59896005  0.40493571  0.20470591  1
  Nb  Nb137  1  0.19719073  -0.00382552  0.59834340  1
  Nb  Nb138  1  0.80399931  0.00014355  0.00580989  1
  Nb  Nb139  1  0.20258249  0.19907352  0.60163536  1
  Nb  Nb140  1  0.00141271  0.41046813  0.19355685  1
  Nb  Nb141  1  0.59859510  0.40017726  0.40011944  1
  Nb  Nb142  1  0.79666155  0.40349946  0.00311688  1
  Nb  Nb143  1  0.60514570  0.80178662  0.79101389  1
  Nb  Nb144  1  0.20553515  0.80240759  0.59967232  1
  Nb  Nb145  1  0.60398057  0.80359568  0.60161015  1
  Nb  Nb146  1  0.59843634  0.40056462  0.00537112  1
  Nb  Nb147  1  -0.00558408  0.19225221  0.00053992  1
  Nb  Nb148  1  0.59412744  0.20159272  0.39805729  1
  Nb  Nb149  1  0.39591568  0.40416259  -0.00206122  1
  Pd  Pd150  1  0.60199884  0.79461863  0.20845483  1
  Pd  Pd151  1  0.00931789  0.40574029  0.38634508  1
  Pd  Pd152  1  0.80025724  0.39805535  0.19924968  1
  Pd  Pd153  1  0.40322868  0.60689688  0.80606513  1
  Pd  Pd154  1  -0.00218964  -0.00976562  0.20926523  1
  Pd  Pd155  1  0.20091667  0.80178539  0.79340664  1
  Pd  Pd156  1  0.19069694  0.39622698  0.20302586  1
  Pd  Pd157  1  0.80349231  0.20225609  -0.00618895  1
  Pd  Pd158  1  0.39347833  0.00057758  0.19952396  1
  Pd  Pd159  1  0.19622791  -0.01181842  0.79649556  1
  Pd  Pd160  1  0.79554536  0.79935227  -0.00749893  1
  Pd  Pd161  1  0.60092957  0.80729865  -0.00382453  1
  Pd  Pd162  1  -0.00340725  0.19869002  0.40198104  1
  Pd  Pd163  1  0.00520057  0.40355711  0.60366588  1
  Pd  Pd164  1  0.60551201  -0.00317070  0.01147404  1
  Pd  Pd165  1  0.60351963  0.00189834  0.40727786  1
  Pd  Pd166  1  0.00222225  0.59467032  0.80795862  1
  Pd  Pd167  1  0.80541170  0.20356939  0.60488835  1
  Pd  Pd168  1  0.40847184  0.40982598  0.60082182  1
  Pd  Pd169  1  0.39788695  0.40674682  0.41010275  1
  Pd  Pd170  1  0.81293645  0.60885150  0.80711412  1
  Pd  Pd171  1  0.60076027  -0.00326534  0.79259525  1
  Pd  Pd172  1  0.39733526  0.00865176  0.60982839  1
  Pd  Pd173  1  -0.00022362  0.00287024  -0.01058339  1
  Pd  Pd174  1  0.39281632  0.60200069  0.19341613  1
  Pd  Pd175  1  0.39080867  0.18943697  0.61068385  1
  Pd  Pd176  1  0.79603837  0.61224001  0.19098090  1
  Pd  Pd177  1  0.39875747  0.39891122  0.19030792  1
  Pd  Pd178  1  0.19184626  0.39701536  0.79667461  1
  Pd  Pd179  1  0.40120201  0.59453433  0.60450067  1
  Pd  Pd180  1  -0.00088408  0.80559754  0.20605259  1
  Pd  Pd181  1  0.80350795  0.00149218  0.19797684  1
  Pd  Pd182  1  0.20021739  -0.00575048  -0.00075596  1
  Pd  Pd183  1  0.19830594  -0.00519225  0.40433630  1
  Pd  Pd184  1  0.20065931  0.20521012  0.79327811  1
  Pd  Pd185  1  0.19212791  0.39421354  0.59352863  1
  Pd  Pd186  1  0.39456894  0.80311023  0.20373772  1
  Pd  Pd187  1  0.79523404  0.20418728  0.78933737  1
  Pd  Pd188  1  0.80287089  0.79283719  0.60263364  1
  Pd  Pd189  1  0.00631903  -0.00350719  0.80164957  1
  Pd  Pd190  1  0.00706153  0.40646259  0.79131547  1
  Pd  Pd191  1  0.79379694  0.40052043  0.61087267  1
  Pd  Pd192  1  -0.01155561  0.39367242  0.00615950  1
  Pd  Pd193  1  0.39812766  0.19891870  0.79728837  1
  Pd  Pd194  1  0.20901861  0.60693044  0.19930262  1
  Pd  Pd195  1  0.39524527  0.00016556  0.39189831  1
  Pd  Pd196  1  0.60353525  -0.00066013  0.19463290  1
  Pd  Pd197  1  0.80019168  0.19642039  0.20507867  1
  Pd  Pd198  1  -0.00327780  0.19975468  0.59210033  1
  Pd  Pd199  1  0.40264285  0.19780117  0.39478345  1
  Rh  Rh200  1  0.20830901  0.79481884  0.20063920  1
  Rh  Rh201  1  0.20051703  0.21410296  0.40633420  1
  Rh  Rh202  1  0.59082347  0.60782633  0.79338963  1
  Rh  Rh203  1  0.20761837  0.39023567  0.00328707  1
  Rh  Rh204  1  0.39774714  0.39662811  0.80302201  1
  Rh  Rh205  1  0.38994901  0.59123231  0.40528212  1
  Rh  Rh206  1  0.19743432  0.60764695  -0.00103774  1
  Rh  Rh207  1  0.59654910  0.59798770  0.60824874  1
  Rh  Rh208  1  0.00618255  0.79350798  -0.00073526  1
  Rh  Rh209  1  0.00014291  0.59237271  0.59278373  1
  Rh  Rh210  1  0.60089009  0.60344254  0.39307495  1
  Rh  Rh211  1  0.39175818  0.20562963  0.00076242  1
  Rh  Rh212  1  0.79624290  0.40147529  0.39359235  1
  Rh  Rh213  1  0.40218273  0.80653167  0.39585368  1
  Rh  Rh214  1  0.59435096  0.59553061  0.00914911  1
  Rh  Rh215  1  -0.00249051  0.80526660  0.39325259  1
  Rh  Rh216  1  0.59932675  0.20545094  0.21627327  1
  Rh  Rh217  1  0.00078829  0.59951333  0.19226292  1
  Rh  Rh218  1  0.79137468  -0.00667487  0.80958870  1
  Rh  Rh219  1  0.60276393  0.19657214  0.59604861  1
  Rh  Rh220  1  0.60608590  0.20574680  -0.01065380  1
  Rh  Rh221  1  0.40679933  0.79601925  0.80369187  1
  Rh  Rh222  1  0.60202201  0.19664444  0.79827950  1
  Rh  Rh223  1  0.40305892  0.00770773  0.80604633  1
  Rh  Rh224  1  -0.00174738  0.19898654  0.80813564  1
  Rh  Rh225  1  0.19975555  0.20071413  0.19844040  1
  Rh  Rh226  1  0.39659862  0.79582449  -0.00334568  1
  Rh  Rh227  1  -0.00365929  0.59162140  0.40451783  1
  Rh  Rh228  1  0.81249577  0.59706520  0.59721893  1
  Rh  Rh229  1  0.00774509  0.80117580  0.60014494  1
  Rh  Rh230  1  0.79480971  0.39693632  0.79472804  1
  Rh  Rh231  1  0.19730207  0.80182922  -0.00064848  1
  Rh  Rh232  1  -0.00918369  0.79823434  0.79883871  1
  Rh  Rh233  1  0.20587936  -0.00119543  0.19752487  1
  Rh  Rh234  1  0.39347187  0.19877441  0.20424116  1
  Rh  Rh235  1  0.20777697  0.59292266  0.40214404  1
  Rh  Rh236  1  0.80489264  0.00587470  0.59333355  1
  Rh  Rh237  1  0.80118502  0.79626357  0.20062863  1
  Rh  Rh238  1  0.80959369  0.59776204  0.40660612  1
  Rh  Rh239  1  0.39677183  0.79624915  0.60712842  1
  Rh  Rh240  1  0.19246836  0.19811015  0.00165231  1
  Rh  Rh241  1  0.60086843  0.39877114  0.79126678  1
  Rh  Rh242  1  0.79830095  0.20097328  0.39413684  1
  Rh  Rh243  1  0.19629545  0.59691065  0.79939949  1
  Rh  Rh244  1  0.20146444  0.60914017  0.60048645  1
  Rh  Rh245  1  0.20697115  0.79806135  0.40600002  1
  Rh  Rh246  1  0.00298037  0.20893912  0.19040294  1
  Rh  Rh247  1  0.81069394  0.00430537  0.39497254  1
  Rh  Rh248  1  0.80035692  0.79311818  0.40316961  1
  Rh  Rh249  1  0.39959858  0.00050129  0.00794291  1
