# generated using pymatgen
data_ZrScNbPdRh
_symmetry_space_group_name_H-M   'P 1'
_cell_length_a   16.56108750
_cell_length_b   16.56070042
_cell_length_c   16.55786106
_cell_angle_alpha   90.02891557
_cell_angle_beta   90.01070609
_cell_angle_gamma   89.99167048
_symmetry_Int_Tables_number   1
_chemical_formula_structural   ZrScNbPdRh
_chemical_formula_sum   'Zr50 Sc50 Nb50 Pd50 Rh50'
_cell_volume   4541.21139715
_cell_formula_units_Z   50
loop_
 _symmetry_equiv_pos_site_id
 _symmetry_equiv_pos_as_xyz
  1  'x, y, z'
loop_
 _atom_site_type_symbol
 _atom_site_label
 _atom_site_symmetry_multiplicity
 _atom_site_fract_x
 _atom_site_fract_y
 _atom_site_fract_z
 _atom_site_occupancy
  Zr  Zr0  1  0.10164248  0.09941690  0.30051809  1
  Zr  Zr1  1  0.30811049  0.69509031  0.50096372  1
  Zr  Zr2  1  0.09844672  0.69298188  0.30125728  1
  Zr  Zr3  1  0.70181129  0.50368152  0.09298825  1
  Zr  Zr4  1  0.50495758  0.29596076  0.69611638  1
  Zr  Zr5  1  0.50011943  0.70141203  0.49976933  1
  Zr  Zr6  1  0.29845873  0.29618218  0.90257497  1
  Zr  Zr7  1  0.30016600  0.89358999  0.50279310  1
  Zr  Zr8  1  0.50048887  0.10036815  0.90253680  1
  Zr  Zr9  1  0.89744351  0.88909202  0.69770390  1
  Zr  Zr10  1  0.90050941  0.69260965  0.69781191  1
  Zr  Zr11  1  0.09777996  0.29902835  0.10134160  1
  Zr  Zr12  1  0.69623535  0.30659068  0.69409097  1
  Zr  Zr13  1  0.50400758  0.29764590  0.90181779  1
  Zr  Zr14  1  0.08835467  0.30451379  0.90541010  1
  Zr  Zr15  1  0.69932962  0.49659830  0.89909267  1
  Zr  Zr16  1  0.90704378  0.90445872  0.10495030  1
  Zr  Zr17  1  0.09866508  0.09872983  0.11099696  1
  Zr  Zr18  1  0.10256325  0.50010109  0.88910963  1
  Zr  Zr19  1  0.89966428  0.10141726  0.30889550  1
  Zr  Zr20  1  0.50846639  0.89827522  0.10444106  1
  Zr  Zr21  1  0.49861709  0.49056190  0.30318360  1
  Zr  Zr22  1  0.70596060  0.70517537  0.70224519  1
  Zr  Zr23  1  0.50073210  0.70245135  0.09496107  1
  Zr  Zr24  1  0.09923093  0.09568342  0.69502029  1
  Zr  Zr25  1  0.09869285  0.70876105  0.10636699  1
  Zr  Zr26  1  0.09605374  0.68993257  0.70449630  1
  Zr  Zr27  1  0.89781481  0.69931380  0.30319724  1
  Zr  Zr28  1  0.09766029  0.89977775  0.89590765  1
  Zr  Zr29  1  0.71209616  0.49791970  0.69584383  1
  Zr  Zr30  1  0.50266928  0.90377085  0.69575365  1
  Zr  Zr31  1  0.89924750  0.11107016  0.89396647  1
  Zr  Zr32  1  0.50403701  0.29766735  0.09710192  1
  Zr  Zr33  1  0.89274467  0.90648126  0.30389350  1
  Zr  Zr34  1  0.09994890  0.90084379  0.69484816  1
  Zr  Zr35  1  0.49717460  0.11066632  0.10797233  1
  Zr  Zr36  1  0.69981481  0.30424381  0.90254660  1
  Zr  Zr37  1  0.09053864  0.30273855  0.29617554  1
  Zr  Zr38  1  0.30612607  0.70101908  0.10938233  1
  Zr  Zr39  1  0.89811598  0.10444632  0.69140136  1
  Zr  Zr40  1  0.30386488  0.49661303  0.10556489  1
  Zr  Zr41  1  0.70589115  0.69786099  0.30201940  1
  Zr  Zr42  1  0.09627832  0.50066108  0.69488989  1
  Zr  Zr43  1  0.69613499  0.69734098  0.10274964  1
  Zr  Zr44  1  0.89941285  0.70027725  0.10603334  1
  Zr  Zr45  1  0.50177124  0.09865888  0.69929209  1
  Zr  Zr46  1  0.09673490  0.30457947  0.69059318  1
  Zr  Zr47  1  0.10165811  0.49669883  0.30293600  1
  Zr  Zr48  1  0.29827952  0.50145940  0.89376017  1
  Zr  Zr49  1  0.50747337  0.30093722  0.49630205  1
  Sc  Sc50  1  0.89796362  0.49339490  0.89713791  1
  Sc  Sc51  1  0.69174412  0.90066343  0.49990765  1
  Sc  Sc52  1  0.50174039  0.50652969  0.10227140  1
  Sc  Sc53  1  0.29735032  0.49838704  0.49621295  1
  Sc  Sc54  1  0.89876843  0.29752996  0.49547939  1
  Sc  Sc55  1  0.29481260  0.50680333  0.69380571  1
  Sc  Sc56  1  0.50377478  0.50264581  0.89920340  1
  Sc  Sc57  1  0.09174606  0.09530712  0.89617844  1
  Sc  Sc58  1  0.90337016  0.70521158  0.88575884  1
  Sc  Sc59  1  0.90163126  0.70466604  0.49384375  1
  Sc  Sc60  1  0.70264806  0.50634227  0.31216010  1
  Sc  Sc61  1  0.49955851  0.50118232  0.49362194  1
  Sc  Sc62  1  0.90255294  0.90005368  0.49900626  1
  Sc  Sc63  1  0.09643000  0.69706253  0.50501367  1
  Sc  Sc64  1  0.50232119  0.70061750  0.30271418  1
  Sc  Sc65  1  0.30076650  0.49691351  0.29986919  1
  Sc  Sc66  1  0.31640718  0.69906144  0.89394908  1
  Sc  Sc67  1  0.30333083  0.29879366  0.11129931  1
  Sc  Sc68  1  0.30265914  0.69413546  0.69497721  1
  Sc  Sc69  1  0.50124937  0.90388716  0.90405698  1
  Sc  Sc70  1  0.49154628  0.69758501  0.69672521  1
  Sc  Sc71  1  0.29764679  0.09186183  0.50326890  1
  Sc  Sc72  1  0.89933869  0.50490416  0.30679701  1
  Sc  Sc73  1  0.30609575  0.90521336  0.89282401  1
  Sc  Sc74  1  0.69201246  0.90621295  0.30146747  1
  Sc  Sc75  1  0.69768455  0.09644409  0.30585644  1
  Sc  Sc76  1  0.90567350  0.90162241  0.89918716  1
  Sc  Sc77  1  0.30605790  0.89329839  0.11549986  1
  Sc  Sc78  1  0.70278687  0.10247738  0.69037801  1
  Sc  Sc79  1  0.09708204  0.90142412  0.50435619  1
  Sc  Sc80  1  0.69734351  0.90030047  0.69114358  1
  Sc  Sc81  1  0.30039837  0.09027422  0.69918112  1
  Sc  Sc82  1  0.70589797  0.69520932  0.90419883  1
  Sc  Sc83  1  0.91287434  0.29908972  0.09705481  1
  Sc  Sc84  1  0.90215434  0.09629554  0.10823657  1
  Sc  Sc85  1  0.10200072  0.49057688  0.10186288  1
  Sc  Sc86  1  0.50016149  0.89957291  0.49545710  1
  Sc  Sc87  1  0.09890248  0.30434923  0.50308720  1
  Sc  Sc88  1  0.89556929  0.29860798  0.69991726  1
  Sc  Sc89  1  0.69748379  0.70532114  0.48890379  1
  Sc  Sc90  1  0.30479592  0.09736060  0.89216174  1
  Sc  Sc91  1  0.08944935  0.09438905  0.50131974  1
  Sc  Sc92  1  0.89702720  0.50295876  0.09795153  1
  Sc  Sc93  1  0.29492602  0.28841438  0.68994329  1
  Sc  Sc94  1  0.50458388  0.49592301  0.69696572  1
  Sc  Sc95  1  0.30860013  0.90731686  0.30372494  1
  Sc  Sc96  1  0.10112775  0.90682723  0.29853362  1
  Sc  Sc97  1  0.09733797  0.49627727  0.50544009  1
  Sc  Sc98  1  0.50012564  0.29642623  0.29873339  1
  Sc  Sc99  1  0.50731652  0.09580440  0.50164178  1
  Nb  Nb100  1  0.10240244  0.69848666  0.89628827  1
  Nb  Nb101  1  0.29855691  0.70739453  0.30089836  1
  Nb  Nb102  1  0.48895487  0.08969656  0.30221730  1
  Nb  Nb103  1  0.69971170  0.09608024  0.90290474  1
  Nb  Nb104  1  0.10066085  0.90223969  0.09631403  1
  Nb  Nb105  1  0.70345655  0.90883308  0.09726912  1
  Nb  Nb106  1  0.69582516  0.29653992  0.10036933  1
  Nb  Nb107  1  0.88976996  0.50090063  0.51387138  1
  Nb  Nb108  1  0.89949822  0.50341113  0.69053710  1
  Nb  Nb109  1  0.89494790  0.29565502  0.29939873  1
  Nb  Nb110  1  0.70370983  0.29878226  0.30777533  1
  Nb  Nb111  1  0.70081706  0.09876630  0.09576283  1
  Nb  Nb112  1  0.30206262  0.10032043  0.29369642  1
  Nb  Nb113  1  0.49518586  0.91141323  0.30235623  1
  Nb  Nb114  1  0.70164906  0.11025313  0.49819118  1
  Nb  Nb115  1  0.69436303  0.30289431  0.49341060  1
  Nb  Nb116  1  0.30454274  0.30409266  0.30482378  1
  Nb  Nb117  1  0.30092438  0.29862514  0.49605388  1
  Nb  Nb118  1  0.50342284  0.69945304  0.89506606  1
  Nb  Nb119  1  0.89616447  0.09968562  0.50033978  1
  Nb  Nb120  1  0.29946471  0.09990197  0.10860515  1
  Nb  Nb121  1  0.69537130  0.91380502  0.91175446  1
  Nb  Nb122  1  0.89980971  0.29396288  0.90469432  1
  Nb  Nb123  1  0.29297341  0.90343664  0.70139928  1
  Nb  Nb124  1  0.69980550  0.49288422  0.50175628  1
  Nb  Nb125  1  0.20581235  0.20155853  0.39523712  1
  Nb  Nb126  1  0.60725798  0.59867292  0.59901257  1
  Nb  Nb127  1  0.20407393  0.79466057  0.39796453  1
  Nb  Nb128  1  0.20050286  0.79960901  0.79948096  1
  Nb  Nb129  1  0.19982085  0.19205037  0.00125645  1
  Nb  Nb130  1  0.19847026  0.60819920  -0.00062388  1
  Nb  Nb131  1  0.39613921  0.00561792  0.01134474  1
  Nb  Nb132  1  0.79536761  0.39129142  0.20342144  1
  Nb  Nb133  1  0.60377329  0.60452222  0.79514505  1
  Nb  Nb134  1  0.79673817  0.20008138  0.00349933  1
  Nb  Nb135  1  0.79553806  0.80701282  0.19548038  1
  Nb  Nb136  1  0.39907302  0.39510420  0.79646385  1
  Nb  Nb137  1  0.60007624  0.79843732  0.80498105  1
  Nb  Nb138  1  0.00944319  0.60412260  -0.00469629  1
  Nb  Nb139  1  0.20350152  -0.00196779  0.00797099  1
  Nb  Nb140  1  0.79667272  0.80915141  0.00592181  1
  Nb  Nb141  1  0.61220783  0.39474985  0.20163188  1
  Nb  Nb142  1  0.60647577  0.19717892  0.80213309  1
  Nb  Nb143  1  0.40015043  0.39836683  -0.00387309  1
  Nb  Nb144  1  0.79407381  0.20495608  0.19967834  1
  Nb  Nb145  1  0.39931966  0.39346148  0.59774936  1
  Nb  Nb146  1  0.19315481  0.20061799  0.80280063  1
  Nb  Nb147  1  0.79535368  0.00245980  0.80266948  1
  Nb  Nb148  1  0.39385883  0.19578694  0.39640247  1
  Nb  Nb149  1  0.19980726  0.80050554  -0.00258982  1
  Pd  Pd150  1  0.40131279  0.19816764  0.58932590  1
  Pd  Pd151  1  0.81317298  0.00431772  -0.00407794  1
  Pd  Pd152  1  0.60413080  0.19770925  0.21190029  1
  Pd  Pd153  1  0.00993260  0.80600047  0.39719519  1
  Pd  Pd154  1  -0.01210561  0.40765581  0.20029908  1
  Pd  Pd155  1  0.60011887  0.59155503  0.20777384  1
  Pd  Pd156  1  0.40184818  0.80665761  0.79381721  1
  Pd  Pd157  1  0.60232470  0.80273970  0.20829569  1
  Pd  Pd158  1  0.78727766  0.81534663  0.81409199  1
  Pd  Pd159  1  -0.00302919  0.59210517  0.41010141  1
  Pd  Pd160  1  0.80470089  0.40281965  0.40036490  1
  Pd  Pd161  1  0.40155172  0.80353792  0.60509400  1
  Pd  Pd162  1  0.19684564  0.39538384  0.40052953  1
  Pd  Pd163  1  0.40158062  -0.00255280  0.59596920  1
  Pd  Pd164  1  0.20681947  0.39085276  0.78649134  1
  Pd  Pd165  1  0.60675644  0.79725738  -0.00684197  1
  Pd  Pd166  1  0.20127347  0.60298584  0.40453984  1
  Pd  Pd167  1  -0.00294716  0.79390464  -0.00401633  1
  Pd  Pd168  1  0.79345913  0.61338044  0.58850966  1
  Pd  Pd169  1  0.39767920  0.20143617  0.79373350  1
  Pd  Pd170  1  0.79896801  0.79677240  0.58658705  1
  Pd  Pd171  1  0.39868379  0.59520500  -0.00241929  1
  Pd  Pd172  1  -0.00925661  0.40535076  0.40728016  1
  Pd  Pd173  1  0.81504471  0.60895685  -0.00949348  1
  Pd  Pd174  1  0.20015123  0.59569682  0.19680169  1
  Pd  Pd175  1  0.00173870  0.59006860  0.19412011  1
  Pd  Pd176  1  0.39479859  0.80946476  -0.00085098  1
  Pd  Pd177  1  0.20174233  0.20759226  0.20371869  1
  Pd  Pd178  1  0.00708453  0.20162689  0.40629819  1
  Pd  Pd179  1  -0.01056633  0.40056534  0.79339406  1
  Pd  Pd180  1  0.00075731  0.00771806  0.00078481  1
  Pd  Pd181  1  0.19820576  0.79244195  0.60012839  1
  Pd  Pd182  1  0.80732907  0.39073661  0.00896714  1
  Pd  Pd183  1  0.39791493  0.59880909  0.39307703  1
  Pd  Pd184  1  0.19866924  0.80811663  0.20706064  1
  Pd  Pd185  1  0.60744472  -0.00052595  0.79489048  1
  Pd  Pd186  1  0.59567546  0.80494129  0.39266741  1
  Pd  Pd187  1  0.79248593  -0.00090042  0.40983739  1
  Pd  Pd188  1  0.00630951  0.20527551  0.79186843  1
  Pd  Pd189  1  0.79783592  0.20947216  0.59104617  1
  Pd  Pd190  1  0.19612249  0.19192913  0.59373004  1
  Pd  Pd191  1  0.40422607  0.60300387  0.20982566  1
  Pd  Pd192  1  0.80726019  0.39801450  0.79760354  1
  Pd  Pd193  1  0.59227840  0.19202577  0.39272859  1
  Pd  Pd194  1  -0.00352608  0.80773309  0.21270684  1
  Pd  Pd195  1  0.79858867  -0.00248270  0.59784281  1
  Pd  Pd196  1  0.20234424  -0.00174205  0.40282784  1
  Pd  Pd197  1  0.60155365  0.00855109  0.19991381  1
  Pd  Pd198  1  -0.01166298  -0.00128199  0.79027251  1
  Pd  Pd199  1  0.20548045  0.39886130  0.00515065  1
  Rh  Rh200  1  0.40220048  -0.00267943  0.19481779  1
  Rh  Rh201  1  0.79460038  0.00314468  0.20227476  1
  Rh  Rh202  1  0.40450022  -0.00436168  0.80027450  1
  Rh  Rh203  1  -0.00992891  -0.00200713  0.59969563  1
  Rh  Rh204  1  0.59634105  0.40021807  0.79936296  1
  Rh  Rh205  1  0.19852260  0.00118051  0.59644231  1
  Rh  Rh206  1  0.59297252  0.40966997  0.00985173  1
  Rh  Rh207  1  0.59603533  0.79066205  0.60611250  1
  Rh  Rh208  1  -0.00373433  0.20092700  0.59498445  1
  Rh  Rh209  1  0.60640630  0.19745515  0.60158894  1
  Rh  Rh210  1  0.20192227  -0.00651102  0.19813534  1
  Rh  Rh211  1  0.00243599  -0.00030859  0.20750541  1
  Rh  Rh212  1  -0.00871932  0.59118933  0.80310961  1
  Rh  Rh213  1  0.40824818  0.58983358  0.79541214  1
  Rh  Rh214  1  0.79823668  0.19830211  0.40096178  1
  Rh  Rh215  1  0.20858134  0.40233816  0.59851583  1
  Rh  Rh216  1  0.60106230  0.59768197  0.40737150  1
  Rh  Rh217  1  -0.00279941  -0.00029235  0.40191270  1
  Rh  Rh218  1  0.38781591  0.19899940  0.00753585  1
  Rh  Rh219  1  0.60450118  0.00483057  0.59329356  1
  Rh  Rh220  1  0.40784491  0.58837939  0.59696760  1
  Rh  Rh221  1  0.20067611  0.00129598  0.80383262  1
  Rh  Rh222  1  0.19715750  0.59935578  0.59424158  1
  Rh  Rh223  1  0.79007648  0.19840634  0.80814172  1
  Rh  Rh224  1  -0.00179384  0.79487983  0.60260293  1
  Rh  Rh225  1  0.00076390  0.19432561  0.00424561  1
  Rh  Rh226  1  0.59869492  0.00363976  0.40447165  1
  Rh  Rh227  1  0.79947190  0.59784931  0.20519940  1
  Rh  Rh228  1  0.60394403  0.40179085  0.39446586  1
  Rh  Rh229  1  0.21004218  0.61216025  0.80365076  1
  Rh  Rh230  1  0.58787359  0.00987964  0.01142146  1
  Rh  Rh231  1  0.20115497  0.39747577  0.20783532  1
  Rh  Rh232  1  -0.00252156  0.40948807  -0.00185676  1
  Rh  Rh233  1  0.39882458  0.20514060  0.20833464  1
  Rh  Rh234  1  0.80275575  0.39020987  0.59384385  1
  Rh  Rh235  1  0.60830001  0.19236262  -0.00604283  1
  Rh  Rh236  1  -0.00967218  0.19694815  0.20375946  1
  Rh  Rh237  1  0.59540104  0.40834361  0.59271659  1
  Rh  Rh238  1  0.80316255  0.59742010  0.40866381  1
  Rh  Rh239  1  -0.00287617  0.59907424  0.59484874  1
  Rh  Rh240  1  0.39779908  0.80309838  0.39442798  1
  Rh  Rh241  1  -0.01011586  0.39860088  0.59940326  1
  Rh  Rh242  1  0.00789195  0.80066646  0.79245947  1
  Rh  Rh243  1  0.80064167  0.59191125  0.80275551  1
  Rh  Rh244  1  0.41055304  0.39659472  0.19401552  1
  Rh  Rh245  1  0.59677810  0.60178913  -0.00851180  1
  Rh  Rh246  1  0.41223913  0.79945434  0.21047035  1
  Rh  Rh247  1  0.79644047  0.80751697  0.39394314  1
  Rh  Rh248  1  0.40064753  0.39368755  0.40622847  1
  Rh  Rh249  1  0.39767715  0.00411930  0.40675423  1
