# generated using pymatgen
data_ZrScNbPdRh
_symmetry_space_group_name_H-M   'P 1'
_cell_length_a   16.56413764
_cell_length_b   16.55842347
_cell_length_c   16.55844612
_cell_angle_alpha   89.98653003
_cell_angle_beta   90.00086634
_cell_angle_gamma   89.98496952
_symmetry_Int_Tables_number   1
_chemical_formula_structural   ZrScNbPdRh
_chemical_formula_sum   'Zr50 Sc50 Nb50 Pd50 Rh50'
_cell_volume   4541.58417493
_cell_formula_units_Z   50
loop_
 _symmetry_equiv_pos_site_id
 _symmetry_equiv_pos_as_xyz
  1  'x, y, z'
loop_
 _atom_site_type_symbol
 _atom_site_label
 _atom_site_symmetry_multiplicity
 _atom_site_fract_x
 _atom_site_fract_y
 _atom_site_fract_z
 _atom_site_occupancy
  Zr  Zr0  1  0.30170306  0.89700878  0.89523200  1
  Zr  Zr1  1  0.89982937  0.29123182  0.90332119  1
  Zr  Zr2  1  0.50050643  0.50987721  0.49380612  1
  Zr  Zr3  1  0.09867470  0.70474126  0.89369702  1
  Zr  Zr4  1  0.09992617  0.69420682  0.11107552  1
  Zr  Zr5  1  0.89950757  0.11965789  0.09241370  1
  Zr  Zr6  1  0.10478519  0.09801621  0.29956264  1
  Zr  Zr7  1  0.30220505  0.30065112  0.90107339  1
  Zr  Zr8  1  0.29414499  0.70245275  0.69398464  1
  Zr  Zr9  1  0.29763743  0.31184795  0.50645674  1
  Zr  Zr10  1  0.09983708  0.49525405  0.49900387  1
  Zr  Zr11  1  0.49283458  0.29976577  0.69959427  1
  Zr  Zr12  1  0.71009165  0.69683497  0.10212250  1
  Zr  Zr13  1  0.50238996  0.50854752  0.90947813  1
  Zr  Zr14  1  0.29950671  0.48433750  0.90077733  1
  Zr  Zr15  1  0.91195813  0.30021728  0.49638051  1
  Zr  Zr16  1  0.29531215  0.09723339  0.91156510  1
  Zr  Zr17  1  0.50302911  0.69648943  0.09716840  1
  Zr  Zr18  1  0.09788617  0.69810568  0.69824704  1
  Zr  Zr19  1  0.30455105  0.31158312  0.70366442  1
  Zr  Zr20  1  0.89814685  0.89798395  0.30232958  1
  Zr  Zr21  1  0.50911503  0.90517869  0.89263312  1
  Zr  Zr22  1  0.90152090  0.70149985  0.90049793  1
  Zr  Zr23  1  0.30517569  0.30136451  0.30157118  1
  Zr  Zr24  1  0.50709954  0.89470187  0.10960269  1
  Zr  Zr25  1  0.89962711  0.29985949  0.71054344  1
  Zr  Zr26  1  0.30493268  0.70071547  0.90112218  1
  Zr  Zr27  1  0.70174468  0.69543348  0.69736882  1
  Zr  Zr28  1  0.49822959  0.69940404  0.30378942  1
  Zr  Zr29  1  0.69862930  0.69045898  0.89672239  1
  Zr  Zr30  1  0.88379915  0.70943099  0.50004098  1
  Zr  Zr31  1  0.30178282  0.90144463  0.09437663  1
  Zr  Zr32  1  0.69535244  0.89558171  0.70500875  1
  Zr  Zr33  1  0.50164296  0.30203045  0.29496289  1
  Zr  Zr34  1  0.10194233  0.10413674  0.09764553  1
  Zr  Zr35  1  0.89167768  0.09186779  0.30247896  1
  Zr  Zr36  1  0.50231121  0.49410758  0.09978511  1
  Zr  Zr37  1  0.30431293  0.89487821  0.69016595  1
  Zr  Zr38  1  0.10028508  0.69602100  0.29582895  1
  Zr  Zr39  1  0.88669339  0.90049961  0.09635743  1
  Zr  Zr40  1  0.68974432  0.69738486  0.50418910  1
  Zr  Zr41  1  0.49797406  0.10169924  0.49825281  1
  Zr  Zr42  1  0.71464265  0.89355304  0.50195955  1
  Zr  Zr43  1  0.10070485  0.09876448  0.89812811  1
  Zr  Zr44  1  0.70905292  0.30340985  0.09757246  1
  Zr  Zr45  1  0.70334960  0.09648731  0.70002136  1
  Zr  Zr46  1  0.70165923  0.49930154  0.09354951  1
  Zr  Zr47  1  0.49525808  0.90239991  0.29887521  1
  Zr  Zr48  1  0.89558388  0.50235092  0.10737227  1
  Zr  Zr49  1  0.49571066  0.10108693  0.90525458  1
  Sc  Sc50  1  0.90168652  0.09163426  0.50565398  1
  Sc  Sc51  1  0.69390856  0.30555531  0.49274862  1
  Sc  Sc52  1  0.29967977  0.49914104  0.30826032  1
  Sc  Sc53  1  0.30434337  0.69689498  0.50209004  1
  Sc  Sc54  1  0.69546375  0.10576305  0.29910514  1
  Sc  Sc55  1  0.49875414  0.30825793  0.49866211  1
  Sc  Sc56  1  0.29149594  0.69345846  0.30595827  1
  Sc  Sc57  1  0.70302782  0.90435368  0.28654736  1
  Sc  Sc58  1  0.10680432  0.49431940  0.11065203  1
  Sc  Sc59  1  0.10807598  0.30081205  0.89645343  1
  Sc  Sc60  1  0.11397200  0.68931402  0.50735437  1
  Sc  Sc61  1  0.29914493  0.10431566  0.69749461  1
  Sc  Sc62  1  0.50409624  0.49607500  0.69496124  1
  Sc  Sc63  1  0.10186262  0.90140875  0.89531615  1
  Sc  Sc64  1  0.08639247  0.50478116  0.69275170  1
  Sc  Sc65  1  0.30065581  0.10242570  0.09829342  1
  Sc  Sc66  1  0.89723094  0.90678168  0.49713691  1
  Sc  Sc67  1  0.47929393  0.89915677  0.50272653  1
  Sc  Sc68  1  0.09950902  0.29338121  0.68884762  1
  Sc  Sc69  1  0.50101704  0.29791190  0.89950810  1
  Sc  Sc70  1  0.49985840  0.10418360  0.10212862  1
  Sc  Sc71  1  0.10464609  0.89722986  0.29767791  1
  Sc  Sc72  1  0.30310582  0.49290159  0.09349010  1
  Sc  Sc73  1  0.90141028  0.70082912  0.09948499  1
  Sc  Sc74  1  0.09381251  0.10467012  0.50422331  1
  Sc  Sc75  1  0.30320781  0.29799346  0.09795344  1
  Sc  Sc76  1  0.90144646  0.90882435  0.69371399  1
  Sc  Sc77  1  0.49659242  0.09623296  0.70700856  1
  Sc  Sc78  1  0.10783153  0.89699834  0.70267087  1
  Sc  Sc79  1  0.90022017  0.49414975  0.29795472  1
  Sc  Sc80  1  0.90472859  0.49624935  0.50180816  1
  Sc  Sc81  1  0.30058460  0.09561177  0.29360810  1
  Sc  Sc82  1  0.09987468  0.89201406  0.09974158  1
  Sc  Sc83  1  0.10854572  0.90670823  0.49917642  1
  Sc  Sc84  1  0.70546924  0.09892553  0.49512059  1
  Sc  Sc85  1  0.29889704  0.90469455  0.30928808  1
  Sc  Sc86  1  0.29884573  0.08882545  0.50001640  1
  Sc  Sc87  1  0.68543594  0.09761851  0.90427692  1
  Sc  Sc88  1  0.89664927  0.69743767  0.28567881  1
  Sc  Sc89  1  0.50267415  0.70024393  0.89597641  1
  Sc  Sc90  1  0.50631417  0.70476679  0.69816969  1
  Sc  Sc91  1  0.69389912  0.30720899  0.71325606  1
  Sc  Sc92  1  0.70037657  0.09687226  0.10107577  1
  Sc  Sc93  1  0.69600322  0.30515899  0.29828652  1
  Sc  Sc94  1  0.30262458  0.70216520  0.09798917  1
  Sc  Sc95  1  0.10557304  0.50355552  0.29565905  1
  Sc  Sc96  1  0.90540831  0.30672346  0.29330277  1
  Sc  Sc97  1  0.89458834  0.49692221  0.88819977  1
  Sc  Sc98  1  0.09087151  0.09930170  0.70461780  1
  Sc  Sc99  1  0.49431160  0.89628787  0.70445971  1
  Nb  Nb100  1  0.89309781  0.50287557  0.69831174  1
  Nb  Nb101  1  0.08709029  0.29794248  0.11029737  1
  Nb  Nb102  1  0.09748129  0.29936529  0.49135056  1
  Nb  Nb103  1  0.09905692  0.30285807  0.30224197  1
  Nb  Nb104  1  0.69636873  0.50204712  0.50141670  1
  Nb  Nb105  1  0.30233375  0.50410974  0.50646439  1
  Nb  Nb106  1  0.49846095  0.30047684  0.10481125  1
  Nb  Nb107  1  0.91025490  0.10129849  0.89090543  1
  Nb  Nb108  1  0.90077641  0.10533485  0.70680913  1
  Nb  Nb109  1  0.29798457  0.90126757  0.50378305  1
  Nb  Nb110  1  0.90557527  0.30433310  0.09785821  1
  Nb  Nb111  1  0.49860707  0.10423437  0.30639672  1
  Nb  Nb112  1  0.70384028  0.31273180  0.89971545  1
  Nb  Nb113  1  0.70537407  0.90072342  0.90544577  1
  Nb  Nb114  1  0.70475949  0.50474008  0.70664372  1
  Nb  Nb115  1  0.69694588  0.49895349  0.30069973  1
  Nb  Nb116  1  0.69716128  0.69953224  0.30328719  1
  Nb  Nb117  1  0.30491065  0.49883722  0.69931335  1
  Nb  Nb118  1  0.10443064  0.49558525  0.90583525  1
  Nb  Nb119  1  0.69936533  0.90134170  0.09071370  1
  Nb  Nb120  1  0.90206183  0.69150205  0.70096857  1
  Nb  Nb121  1  0.50089457  0.50054568  0.29887690  1
  Nb  Nb122  1  0.50294739  0.69670119  0.49555043  1
  Nb  Nb123  1  0.69722129  0.50180139  0.89340559  1
  Nb  Nb124  1  0.89791201  0.90034107  0.90324145  1
  Nb  Nb125  1  0.59636170  -0.00678615  0.40280381  1
  Nb  Nb126  1  0.79688709  0.40269680  0.60468802  1
  Nb  Nb127  1  0.39337576  0.59488121  0.79752579  1
  Nb  Nb128  1  0.20247266  0.59202111  0.80155546  1
  Nb  Nb129  1  0.39683031  0.20147362  0.39825418  1
  Nb  Nb130  1  0.79356588  0.59672203  0.39850419  1
  Nb  Nb131  1  0.80440154  0.20491900  0.40411982  1
  Nb  Nb132  1  0.59945404  0.00001887  0.59511356  1
  Nb  Nb133  1  0.60282868  0.19818694  0.60084759  1
  Nb  Nb134  1  -0.00524540  0.00282578  0.19174711  1
  Nb  Nb135  1  -0.00692354  0.00223665  -0.00206629  1
  Nb  Nb136  1  0.00092655  0.39862217  0.00421161  1
  Nb  Nb137  1  0.60926861  0.80326353  0.00099764  1
  Nb  Nb138  1  0.59814124  0.80225135  0.39939238  1
  Nb  Nb139  1  0.40704928  0.59603537  0.20247352  1
  Nb  Nb140  1  0.80361325  0.80292017  0.80326324  1
  Nb  Nb141  1  0.80513084  -0.00005742  0.80857920  1
  Nb  Nb142  1  0.60033485  0.59696147  0.20632979  1
  Nb  Nb143  1  -0.00467353  0.60713890  0.40188185  1
  Nb  Nb144  1  0.00141020  0.79202848  0.40339743  1
  Nb  Nb145  1  0.00659935  0.59135233  -0.00193360  1
  Nb  Nb146  1  0.19537998  0.59707613  -0.00587404  1
  Nb  Nb147  1  0.19913210  0.20785921  0.40117903  1
  Nb  Nb148  1  -0.00080521  0.79432912  0.59551749  1
  Nb  Nb149  1  0.79948655  0.20723000  0.60116139  1
  Pd  Pd150  1  0.41405954  0.80571792  -0.00386925  1
  Pd  Pd151  1  0.39505523  0.40551199  0.20000602  1
  Pd  Pd152  1  0.19488417  0.00575703  0.60495769  1
  Pd  Pd153  1  0.60198509  0.20828381  0.00490843  1
  Pd  Pd154  1  0.40767195  -0.00399623  0.00581968  1
  Pd  Pd155  1  0.79735605  0.80167229  0.20062314  1
  Pd  Pd156  1  0.20589715  0.00100947  0.79421476  1
  Pd  Pd157  1  0.59756084  0.39146621  -0.00145977  1
  Pd  Pd158  1  0.39656089  0.79541796  0.40198328  1
  Pd  Pd159  1  0.79951143  0.20731439  0.20918732  1
  Pd  Pd160  1  -0.00794115  0.80952563  0.78867918  1
  Pd  Pd161  1  0.19621418  0.79823722  0.40719679  1
  Pd  Pd162  1  0.59485200  0.40223542  0.39845721  1
  Pd  Pd163  1  0.19580489  0.20940547  0.00485478  1
  Pd  Pd164  1  0.38851178  0.79254311  0.20678799  1
  Pd  Pd165  1  0.19542461  0.79561006  -0.00005882  1
  Pd  Pd166  1  0.39336040  0.19579616  0.80402753  1
  Pd  Pd167  1  0.60695242  0.39780507  0.60270155  1
  Pd  Pd168  1  0.60170342  0.00666775  0.20400269  1
  Pd  Pd169  1  0.20354342  0.20682550  0.20316120  1
  Pd  Pd170  1  -0.00207542  0.19436744  0.39285370  1
  Pd  Pd171  1  0.58845419  0.81123013  0.58950912  1
  Pd  Pd172  1  0.78963223  0.19476610  0.80549412  1
  Pd  Pd173  1  0.60020996  0.20010077  0.79809712  1
  Pd  Pd174  1  0.80393149  0.01620319  -0.00522126  1
  Pd  Pd175  1  -0.00505589  0.39598589  0.60517430  1
  Pd  Pd176  1  0.00204609  0.80061167  0.00551118  1
  Pd  Pd177  1  0.59245670  0.40624579  0.80340736  1
  Pd  Pd178  1  0.00400955  0.59136579  0.80575911  1
  Pd  Pd179  1  0.78854915  0.19550599  -0.01216064  1
  Pd  Pd180  1  0.18721408  0.40518743  0.78483729  1
  Pd  Pd181  1  0.40100934  0.19998700  0.59451133  1
  Pd  Pd182  1  0.40001994  0.00502626  0.19652052  1
  Pd  Pd183  1  0.20108513  0.19978301  0.79504009  1
  Pd  Pd184  1  0.40852327  0.60439635  0.60638474  1
  Pd  Pd185  1  0.19383743  0.40545508  0.60665296  1
  Pd  Pd186  1  0.20609343  0.39512346  0.19930136  1
  Pd  Pd187  1  0.19637156  -0.00727440  0.19308519  1
  Pd  Pd188  1  0.39107731  0.00411368  0.79747485  1
  Pd  Pd189  1  0.00474502  0.39843241  0.80302826  1
  Pd  Pd190  1  0.80075242  0.40098024  0.40499420  1
  Pd  Pd191  1  0.80112401  0.59220008  0.59262093  1
  Pd  Pd192  1  0.60151813  0.20076760  0.19516043  1
  Pd  Pd193  1  0.00677337  -0.00525420  0.60344696  1
  Pd  Pd194  1  0.19820458  0.40165217  0.39805109  1
  Pd  Pd195  1  0.20969820  0.80345077  0.20415947  1
  Pd  Pd196  1  -0.00457567  0.19414117  0.21148490  1
  Pd  Pd197  1  0.00716554  -0.00824803  0.39567590  1
  Pd  Pd198  1  0.80852888  0.40699559  -0.00657139  1
  Pd  Pd199  1  0.20147971  0.19703348  0.59243900  1
  Rh  Rh200  1  0.00145659  0.40463551  0.20006923  1
  Rh  Rh201  1  0.01036166  0.20732865  0.79972376  1
  Rh  Rh202  1  0.38904975  0.59646521  -0.00037835  1
  Rh  Rh203  1  0.39926113  0.79181922  0.79684940  1
  Rh  Rh204  1  0.60986324  0.79289895  0.19687311  1
  Rh  Rh205  1  0.40297969  0.20336049  0.00350963  1
  Rh  Rh206  1  0.40892206  0.39015413  -0.00095359  1
  Rh  Rh207  1  0.40365935  0.40228901  0.40540707  1
  Rh  Rh208  1  0.79798968  0.40199589  0.79848021  1
  Rh  Rh209  1  0.21750767  0.59567699  0.18893156  1
  Rh  Rh210  1  0.80072668  0.00426456  0.19340583  1
  Rh  Rh211  1  0.60829160  0.79802958  0.80890873  1
  Rh  Rh212  1  0.59103612  0.59474690  0.79259417  1
  Rh  Rh213  1  -0.00186101  0.59509158  0.20097984  1
  Rh  Rh214  1  0.19986859  0.00651947  0.40224296  1
  Rh  Rh215  1  0.20394389  0.58852908  0.60581476  1
  Rh  Rh216  1  0.79237366  0.59458124  0.20905259  1
  Rh  Rh217  1  0.40401089  0.40743469  0.59434345  1
  Rh  Rh218  1  0.79902450  0.00489696  0.60687713  1
  Rh  Rh219  1  0.19259328  -0.00611065  0.00238761  1
  Rh  Rh220  1  0.80843698  0.59421076  -0.00741437  1
  Rh  Rh221  1  0.79666614  0.79609254  0.38872309  1
  Rh  Rh222  1  0.60612474  0.40251416  0.19692845  1
  Rh  Rh223  1  0.41129870  0.40647438  0.80466772  1
  Rh  Rh224  1  0.40359393  0.19776073  0.20368178  1
  Rh  Rh225  1  0.00788933  0.41052235  0.39088571  1
  Rh  Rh226  1  0.81142436  0.80099526  0.61831682  1
  Rh  Rh227  1  -0.00799863  0.19892252  0.60218874  1
  Rh  Rh228  1  0.59312445  -0.00535222  0.00537230  1
  Rh  Rh229  1  0.60469113  -0.00001853  0.79536944  1
  Rh  Rh230  1  0.40294459  0.00009085  0.60643070  1
  Rh  Rh231  1  0.79463343  0.79049097  -0.00626158  1
  Rh  Rh232  1  0.79685131  0.39753271  0.20025720  1
  Rh  Rh233  1  0.18873178  0.39320744  0.01268026  1
  Rh  Rh234  1  0.20518781  0.79868588  0.79847708  1
  Rh  Rh235  1  0.40116305  0.79207009  0.59663974  1
  Rh  Rh236  1  0.19557487  0.80454385  0.59334504  1
  Rh  Rh237  1  0.39837066  0.00655686  0.39804465  1
  Rh  Rh238  1  0.80196535  0.60404198  0.80145954  1
  Rh  Rh239  1  0.00986830  0.20473867  -0.00783291  1
  Rh  Rh240  1  -0.01058234  0.60750688  0.58968787  1
  Rh  Rh241  1  -0.00419551  -0.00652413  0.80274307  1
  Rh  Rh242  1  0.60562911  0.60158652  0.39534898  1
  Rh  Rh243  1  -0.00384392  0.81038405  0.20444106  1
  Rh  Rh244  1  0.60810651  0.60588493  0.00604195  1
  Rh  Rh245  1  0.59849599  0.19476021  0.40454275  1
  Rh  Rh246  1  0.78938677  0.00406043  0.39622286  1
  Rh  Rh247  1  0.59718865  0.59560011  0.60608202  1
  Rh  Rh248  1  0.39436137  0.59787475  0.39731888  1
  Rh  Rh249  1  0.19792439  0.59320780  0.40640708  1
