# generated using pymatgen
data_ZrScNbPdRh
_symmetry_space_group_name_H-M   'P 1'
_cell_length_a   16.56056966
_cell_length_b   16.56302848
_cell_length_c   16.56078539
_cell_angle_alpha   89.98229713
_cell_angle_beta   90.03111072
_cell_angle_gamma   89.95638438
_symmetry_Int_Tables_number   1
_chemical_formula_structural   ZrScNbPdRh
_chemical_formula_sum   'Zr50 Sc50 Nb50 Pd50 Rh50'
_cell_volume   4542.50839666
_cell_formula_units_Z   50
loop_
 _symmetry_equiv_pos_site_id
 _symmetry_equiv_pos_as_xyz
  1  'x, y, z'
loop_
 _atom_site_type_symbol
 _atom_site_label
 _atom_site_symmetry_multiplicity
 _atom_site_fract_x
 _atom_site_fract_y
 _atom_site_fract_z
 _atom_site_occupancy
  Zr  Zr0  1  0.90129195  0.70432567  0.10223817  1
  Zr  Zr1  1  0.70343752  0.89752429  0.30035558  1
  Zr  Zr2  1  0.49519172  0.50398311  0.49703964  1
  Zr  Zr3  1  0.69190735  0.50585036  0.49636892  1
  Zr  Zr4  1  0.30460832  0.30123747  0.49832723  1
  Zr  Zr5  1  0.30147490  0.09478140  0.30117577  1
  Zr  Zr6  1  0.49996026  0.30657239  0.10268831  1
  Zr  Zr7  1  0.90039986  0.70465876  0.49314802  1
  Zr  Zr8  1  0.30956026  0.50172841  0.09836334  1
  Zr  Zr9  1  0.50073959  0.89357881  0.90194437  1
  Zr  Zr10  1  0.89197290  0.30559678  0.89878361  1
  Zr  Zr11  1  0.69920945  0.89396781  0.69536133  1
  Zr  Zr12  1  0.31122812  0.30467632  0.10514778  1
  Zr  Zr13  1  0.50155490  0.10167413  0.30238031  1
  Zr  Zr14  1  0.30877260  0.89929400  0.09986009  1
  Zr  Zr15  1  0.90507810  0.10241092  0.10546704  1
  Zr  Zr16  1  0.89984888  0.90248162  0.69871569  1
  Zr  Zr17  1  0.11004138  0.89621433  0.89506808  1
  Zr  Zr18  1  0.51382393  0.10247740  0.69566868  1
  Zr  Zr19  1  0.70049855  0.09732795  0.50388904  1
  Zr  Zr20  1  0.10516875  0.70089483  0.90938122  1
  Zr  Zr21  1  0.10293353  0.29969950  0.89834635  1
  Zr  Zr22  1  0.10349370  0.30166803  0.30690459  1
  Zr  Zr23  1  0.88939730  0.29745647  0.69406901  1
  Zr  Zr24  1  0.50599959  0.10069682  0.10210822  1
  Zr  Zr25  1  0.30858182  0.69977155  0.90356736  1
  Zr  Zr26  1  0.30447559  0.49253851  0.69912516  1
  Zr  Zr27  1  0.69323935  0.49842140  0.30008904  1
  Zr  Zr28  1  0.90633288  0.29388654  0.49641472  1
  Zr  Zr29  1  0.30125204  0.49160713  0.30391139  1
  Zr  Zr30  1  0.09838777  0.89983808  0.69620967  1
  Zr  Zr31  1  0.30730405  0.89855734  0.90486876  1
  Zr  Zr32  1  0.70111022  0.09491178  0.08994496  1
  Zr  Zr33  1  0.90095563  0.50193691  0.69799359  1
  Zr  Zr34  1  0.09761009  0.10294020  0.69655223  1
  Zr  Zr35  1  0.08755016  0.70031003  0.30597426  1
  Zr  Zr36  1  0.49818940  0.90209097  0.50237299  1
  Zr  Zr37  1  0.09951052  0.50912553  0.09656771  1
  Zr  Zr38  1  0.49494427  0.89622460  0.30214542  1
  Zr  Zr39  1  0.90812783  0.29477302  0.30572840  1
  Zr  Zr40  1  0.29701706  0.50454157  0.50393159  1
  Zr  Zr41  1  0.50250833  0.90674961  0.70394746  1
  Zr  Zr42  1  0.10910490  0.90171033  0.30617872  1
  Zr  Zr43  1  0.10270807  0.90193410  0.10141508  1
  Zr  Zr44  1  0.88383751  0.10613862  0.91011684  1
  Zr  Zr45  1  0.10659405  0.70038608  0.49865883  1
  Zr  Zr46  1  0.49366506  0.29573770  0.29936757  1
  Zr  Zr47  1  0.88886121  0.90165768  0.50469962  1
  Zr  Zr48  1  0.70215715  0.30391551  0.89231015  1
  Zr  Zr49  1  0.49540665  0.09901563  0.50495847  1
  Sc  Sc50  1  0.89700571  0.89196020  0.30396408  1
  Sc  Sc51  1  0.11186750  0.29709557  0.69575415  1
  Sc  Sc52  1  0.11174249  0.10608416  0.90720306  1
  Sc  Sc53  1  0.70206621  0.69776283  0.30315376  1
  Sc  Sc54  1  0.30735255  0.69617364  0.09716136  1
  Sc  Sc55  1  0.50733351  0.69547376  0.70708445  1
  Sc  Sc56  1  0.30364354  0.30694935  0.89335862  1
  Sc  Sc57  1  0.29919863  0.10489792  0.69357586  1
  Sc  Sc58  1  0.30328368  0.09007271  0.90183226  1
  Sc  Sc59  1  0.10242137  0.70477841  0.70428877  1
  Sc  Sc60  1  0.09796313  0.50772935  0.89789814  1
  Sc  Sc61  1  0.69414802  0.50233667  0.09626538  1
  Sc  Sc62  1  0.89403390  0.70485159  0.29669458  1
  Sc  Sc63  1  0.10444041  0.28625708  0.10429412  1
  Sc  Sc64  1  0.50193049  0.69516151  0.49837238  1
  Sc  Sc65  1  0.90623821  0.10400050  0.30882298  1
  Sc  Sc66  1  0.68837297  0.31117732  0.09286850  1
  Sc  Sc67  1  0.90299422  0.29612313  0.09567887  1
  Sc  Sc68  1  0.31031633  0.69846777  0.29718152  1
  Sc  Sc69  1  0.89509480  0.89976791  0.10362073  1
  Sc  Sc70  1  0.30439470  0.09750081  0.49804379  1
  Sc  Sc71  1  0.10356772  0.09980269  0.29315714  1
  Sc  Sc72  1  0.89945464  0.89611963  0.89656547  1
  Sc  Sc73  1  0.69060597  0.29866221  0.30915439  1
  Sc  Sc74  1  0.29863741  0.89915441  0.30699337  1
  Sc  Sc75  1  0.49722025  0.69372949  0.30110675  1
  Sc  Sc76  1  0.49680548  0.50014607  0.69785565  1
  Sc  Sc77  1  0.69307750  0.90379095  0.09506603  1
  Sc  Sc78  1  0.29124826  0.89996786  0.70913971  1
  Sc  Sc79  1  0.88928254  0.50635987  0.09279862  1
  Sc  Sc80  1  0.50755709  0.31266538  0.90038825  1
  Sc  Sc81  1  0.89743081  0.48561672  0.49879864  1
  Sc  Sc82  1  0.90309291  0.71077975  0.70119959  1
  Sc  Sc83  1  0.29341847  0.09531392  0.09626124  1
  Sc  Sc84  1  0.10451946  0.10662981  0.50545874  1
  Sc  Sc85  1  0.70141077  0.30003981  0.50079763  1
  Sc  Sc86  1  0.69490547  0.10482937  0.30540380  1
  Sc  Sc87  1  0.69958549  0.69823870  0.10164849  1
  Sc  Sc88  1  0.68521580  0.49457935  0.69434949  1
  Sc  Sc89  1  0.29929837  0.69369360  0.49947989  1
  Sc  Sc90  1  0.30237805  0.29708347  0.29997374  1
  Sc  Sc91  1  0.89036407  0.50101510  0.89999199  1
  Sc  Sc92  1  0.10697672  0.49848652  0.69331782  1
  Sc  Sc93  1  0.67991378  0.70323672  0.89652312  1
  Sc  Sc94  1  0.90770355  0.70116841  0.89293707  1
  Sc  Sc95  1  0.50100266  0.50185638  0.30093264  1
  Sc  Sc96  1  0.89972728  0.10425823  0.50803270  1
  Sc  Sc97  1  0.89907773  0.50624098  0.30605100  1
  Sc  Sc98  1  0.29964198  0.69344211  0.69285203  1
  Sc  Sc99  1  0.49662799  0.69676661  0.09854029  1
  Nb  Nb100  1  0.30653920  0.50162704  0.90198187  1
  Nb  Nb101  1  0.09950057  0.69926877  0.10144458  1
  Nb  Nb102  1  0.69873993  0.10149046  0.70548912  1
  Nb  Nb103  1  0.69873860  0.70659619  0.50876181  1
  Nb  Nb104  1  0.10783226  0.89516440  0.49423644  1
  Nb  Nb105  1  0.69806525  0.49872017  0.90073630  1
  Nb  Nb106  1  0.50155776  0.09778838  0.89477959  1
  Nb  Nb107  1  0.10214266  0.49770184  0.30254484  1
  Nb  Nb108  1  0.70043371  0.90239460  0.90136172  1
  Nb  Nb109  1  0.68691768  0.28918147  0.70403664  1
  Nb  Nb110  1  0.10346294  0.49798301  0.49283123  1
  Nb  Nb111  1  0.50140733  0.90026750  0.10246498  1
  Nb  Nb112  1  0.89771232  0.09929096  0.70032647  1
  Nb  Nb113  1  0.49700288  0.49209764  0.09744839  1
  Nb  Nb114  1  0.49955857  0.70028003  0.89903461  1
  Nb  Nb115  1  0.50122309  0.29703620  0.69747347  1
  Nb  Nb116  1  0.69409037  0.09990993  0.89478999  1
  Nb  Nb117  1  0.69977095  0.89458596  0.50028057  1
  Nb  Nb118  1  0.29593203  0.89860543  0.49419703  1
  Nb  Nb119  1  0.09881812  0.09161318  0.10236577  1
  Nb  Nb120  1  0.49525061  0.50930747  0.90146873  1
  Nb  Nb121  1  0.69721770  0.69578811  0.69825045  1
  Nb  Nb122  1  0.31335184  0.30397347  0.70333090  1
  Nb  Nb123  1  0.49719667  0.28908973  0.50029074  1
  Nb  Nb124  1  0.09346231  0.30584247  0.49402420  1
  Nb  Nb125  1  0.60099951  -0.00677256  0.40573847  1
  Nb  Nb126  1  0.79801788  0.20240139  0.19966290  1
  Nb  Nb127  1  0.59459309  0.80420126  0.19886997  1
  Nb  Nb128  1  0.20794351  0.59671609  0.80598344  1
  Nb  Nb129  1  0.00488503  0.39989133  -0.00056337  1
  Nb  Nb130  1  0.19418818  0.60176771  0.20104521  1
  Nb  Nb131  1  0.40666777  -0.00141447  0.19884234  1
  Nb  Nb132  1  0.40869082  0.20247712  0.79808611  1
  Nb  Nb133  1  0.79359469  0.80067031  -0.00481438  1
  Nb  Nb134  1  0.78737917  0.60229875  0.79346538  1
  Nb  Nb135  1  -0.00151509  0.39472498  0.80017489  1
  Nb  Nb136  1  0.80230219  0.39527289  0.20266221  1
  Nb  Nb137  1  0.40795182  0.19830481  -0.00608871  1
  Nb  Nb138  1  0.79598048  0.00512705  0.79985070  1
  Nb  Nb139  1  0.00596879  -0.00659732  0.40828718  1
  Nb  Nb140  1  0.00263401  0.00290429  -0.00115036  1
  Nb  Nb141  1  0.00044659  0.40366904  0.19828207  1
  Nb  Nb142  1  -0.00806116  0.19929070  0.79889742  1
  Nb  Nb143  1  0.39885107  0.80600021  0.59824347  1
  Nb  Nb144  1  -0.00460434  0.01011780  0.80415065  1
  Nb  Nb145  1  0.79639738  0.00778044  0.20023824  1
  Nb  Nb146  1  -0.00002304  0.59826372  0.59315534  1
  Nb  Nb147  1  0.79872706  0.60463114  0.60146786  1
  Nb  Nb148  1  0.20139437  0.40531205  -0.00069558  1
  Nb  Nb149  1  0.19648748  0.79157834  0.19840500  1
  Pd  Pd150  1  0.58793000  0.79526138  0.60300181  1
  Pd  Pd151  1  0.00379023  0.19851209  -0.00476412  1
  Pd  Pd152  1  0.59536493  0.59957221  0.00147944  1
  Pd  Pd153  1  0.61033116  0.20604126  0.19792357  1
  Pd  Pd154  1  0.59374119  -0.00264047  -0.00777942  1
  Pd  Pd155  1  0.00507056  0.59674914  0.79213301  1
  Pd  Pd156  1  0.39855217  0.79507718  0.78946607  1
  Pd  Pd157  1  0.20737093  0.79881796  0.00864363  1
  Pd  Pd158  1  0.80167970  0.00493626  0.39531532  1
  Pd  Pd159  1  0.00194137  0.00077469  0.59518626  1
  Pd  Pd160  1  0.20018011  0.19710193  0.40193821  1
  Pd  Pd161  1  0.79244098  0.79616194  0.80639029  1
  Pd  Pd162  1  0.00351215  0.80688209  0.20305823  1
  Pd  Pd163  1  0.59369231  0.39353781  0.59283591  1
  Pd  Pd164  1  0.39866428  0.00937888  0.79258416  1
  Pd  Pd165  1  0.78799276  0.21207457  0.00866534  1
  Pd  Pd166  1  0.19637488  0.40867629  0.80502954  1
  Pd  Pd167  1  0.59026877  0.39474011  0.40455042  1
  Pd  Pd168  1  0.20638560  0.20859151  0.59544114  1
  Pd  Pd169  1  0.60156228  0.79712917  0.39508478  1
  Pd  Pd170  1  0.38769777  -0.00690581  0.60639827  1
  Pd  Pd171  1  0.20490908  0.19671233  0.19908182  1
  Pd  Pd172  1  0.39727591  0.60187781  0.79296209  1
  Pd  Pd173  1  0.79385626  0.61459462  -0.01518629  1
  Pd  Pd174  1  0.79419357  0.40928235  0.78922687  1
  Pd  Pd175  1  -0.00428707  0.59336933  0.40742144  1
  Pd  Pd176  1  0.00660144  0.39928957  0.60427565  1
  Pd  Pd177  1  0.21590796  0.20770833  0.00009082  1
  Pd  Pd178  1  0.20465178  -0.00162079  0.59543384  1
  Pd  Pd179  1  0.78823207  0.40303462  0.60308980  1
  Pd  Pd180  1  -0.00974062  0.59743140  -0.00422098  1
  Pd  Pd181  1  0.59732657  0.20339629  -0.00813092  1
  Pd  Pd182  1  0.21070603  0.19655814  0.80084856  1
  Pd  Pd183  1  0.79287951  0.19976649  0.59913101  1
  Pd  Pd184  1  -0.00392134  0.59479115  0.20120844  1
  Pd  Pd185  1  0.40773744  0.39823861  0.59486775  1
  Pd  Pd186  1  0.20006533  0.39351218  0.59422566  1
  Pd  Pd187  1  -0.00817972  -0.00625314  0.20773180  1
  Pd  Pd188  1  0.59384609  0.40752734  0.79970428  1
  Pd  Pd189  1  0.20512858  0.60440474  0.38926372  1
  Pd  Pd190  1  0.79823125  0.59313121  0.20167377  1
  Pd  Pd191  1  0.59541459  0.60525575  0.19777011  1
  Pd  Pd192  1  -0.00685381  0.80717988  -0.00057269  1
  Pd  Pd193  1  0.39613275  0.79298675  0.40804247  1
  Pd  Pd194  1  0.79681441  0.60249931  0.40579748  1
  Pd  Pd195  1  0.19354309  0.40497840  0.19258725  1
  Pd  Pd196  1  0.20920040  0.79992519  0.60085496  1
  Pd  Pd197  1  0.79862700  0.39587351  0.39346615  1
  Pd  Pd198  1  0.19657970  0.00865231  0.80031113  1
  Pd  Pd199  1  0.00195326  0.79571556  0.59417556  1
  Rh  Rh200  1  0.80018519  0.39913846  0.00819242  1
  Rh  Rh201  1  0.78774972  0.80647689  0.18915726  1
  Rh  Rh202  1  0.59616797  0.19478792  0.40964213  1
  Rh  Rh203  1  0.20230448  0.39728440  0.40655520  1
  Rh  Rh204  1  0.00763711  0.80790148  0.80172005  1
  Rh  Rh205  1  0.60947869  -0.00269945  0.59539037  1
  Rh  Rh206  1  0.00199139  0.20448280  0.20202216  1
  Rh  Rh207  1  0.40613172  0.60743892  0.60272457  1
  Rh  Rh208  1  0.01047102  0.18770072  0.40478808  1
  Rh  Rh209  1  0.40779294  0.40598988  0.20906460  1
  Rh  Rh210  1  0.60122746  0.59120335  0.80492477  1
  Rh  Rh211  1  0.40313500  0.39782160  0.40225549  1
  Rh  Rh212  1  0.59768300  0.41210371  -0.00627176  1
  Rh  Rh213  1  0.19139729  0.59922301  0.60449652  1
  Rh  Rh214  1  0.80591442  -0.01050735  -0.00155550  1
  Rh  Rh215  1  -0.00300112  0.80920430  0.40491691  1
  Rh  Rh216  1  0.40890280  0.00719583  0.00697300  1
  Rh  Rh217  1  0.39867203  0.39574415  -0.00715635  1
  Rh  Rh218  1  0.59503070  0.20223526  0.80684719  1
  Rh  Rh219  1  0.59986320  0.79862624  0.00583938  1
  Rh  Rh220  1  0.21054906  -0.00704240  0.19746204  1
  Rh  Rh221  1  0.39376935  0.18733083  0.19040221  1
  Rh  Rh222  1  0.59956910  0.60278926  0.59785849  1
  Rh  Rh223  1  0.00164668  0.20825982  0.60525473  1
  Rh  Rh224  1  0.80018753  0.20144173  0.39885113  1
  Rh  Rh225  1  0.40169899  0.80414069  0.19809909  1
  Rh  Rh226  1  0.39852614  0.20190174  0.60637212  1
  Rh  Rh227  1  0.79723653  0.19498366  0.79514383  1
  Rh  Rh228  1  0.20632497  0.79027843  0.39277025  1
  Rh  Rh229  1  0.59923057  0.80461230  0.79811365  1
  Rh  Rh230  1  0.19509792  -0.00446974  -0.00018199  1
  Rh  Rh231  1  0.40920779  0.39925943  0.80195435  1
  Rh  Rh232  1  0.60276366  0.60714662  0.40001985  1
  Rh  Rh233  1  0.20583125  0.78739659  0.80240053  1
  Rh  Rh234  1  0.00153929  0.40611892  0.39475197  1
  Rh  Rh235  1  0.39651116  0.59636333  0.40012580  1
  Rh  Rh236  1  0.60132076  0.40224975  0.20322774  1
  Rh  Rh237  1  0.60644757  -0.00557904  0.80342180  1
  Rh  Rh238  1  0.40907997  0.79512691  0.00162269  1
  Rh  Rh239  1  0.40885297  0.60056813  0.00190546  1
  Rh  Rh240  1  0.19454716  0.00716149  0.40825406  1
  Rh  Rh241  1  0.20668856  0.59760195  -0.00019628  1
  Rh  Rh242  1  0.79622114  0.79440000  0.40271356  1
  Rh  Rh243  1  0.39923273  0.59318472  0.20050893  1
  Rh  Rh244  1  0.60097180  -0.00855826  0.21260876  1
  Rh  Rh245  1  0.80079413  0.79416568  0.60117877  1
  Rh  Rh246  1  0.39718097  0.19934786  0.40134293  1
  Rh  Rh247  1  0.40325495  0.00079651  0.39584057  1
  Rh  Rh248  1  0.60463761  0.20331369  0.59421627  1
  Rh  Rh249  1  0.79253074  0.00205203  0.60782685  1
