# generated using pymatgen
data_ZrScNbPdRh
_symmetry_space_group_name_H-M   'P 1'
_cell_length_a   16.55052661
_cell_length_b   16.55534060
_cell_length_c   16.55373813
_cell_angle_alpha   89.97411558
_cell_angle_beta   90.05037704
_cell_angle_gamma   90.00047666
_symmetry_Int_Tables_number   1
_chemical_formula_structural   ZrScNbPdRh
_chemical_formula_sum   'Zr50 Sc50 Nb50 Pd50 Rh50'
_cell_volume   4535.71549248
_cell_formula_units_Z   50
loop_
 _symmetry_equiv_pos_site_id
 _symmetry_equiv_pos_as_xyz
  1  'x, y, z'
loop_
 _atom_site_type_symbol
 _atom_site_label
 _atom_site_symmetry_multiplicity
 _atom_site_fract_x
 _atom_site_fract_y
 _atom_site_fract_z
 _atom_site_occupancy
  Zr  Zr0  1  0.89072167  0.30308371  0.10097341  1
  Zr  Zr1  1  0.29881211  0.10458722  0.50994508  1
  Zr  Zr2  1  0.49498524  0.90472719  0.70213122  1
  Zr  Zr3  1  0.51221860  0.69935466  0.30742253  1
  Zr  Zr4  1  0.31680964  0.69382823  0.89619828  1
  Zr  Zr5  1  0.49984235  0.90211468  0.09349404  1
  Zr  Zr6  1  0.30133306  0.09954416  0.29833343  1
  Zr  Zr7  1  0.30395105  0.90285557  0.09410634  1
  Zr  Zr8  1  0.69888294  0.09831557  0.70762286  1
  Zr  Zr9  1  0.09924340  0.49706476  0.89615874  1
  Zr  Zr10  1  0.90375853  0.70422775  0.10190488  1
  Zr  Zr11  1  0.50752635  0.49978796  0.49991323  1
  Zr  Zr12  1  0.89802953  0.90120769  0.30963614  1
  Zr  Zr13  1  0.70662633  0.69646815  0.70421066  1
  Zr  Zr14  1  0.70369209  0.28790258  0.90138026  1
  Zr  Zr15  1  0.90151400  0.69990390  0.48974685  1
  Zr  Zr16  1  0.70656737  0.29109000  0.69625355  1
  Zr  Zr17  1  0.30180156  0.50233636  0.89508925  1
  Zr  Zr18  1  0.50210399  0.30572442  0.30112952  1
  Zr  Zr19  1  0.30052034  0.29604110  0.69323036  1
  Zr  Zr20  1  0.28719033  0.70187075  0.29997839  1
  Zr  Zr21  1  0.09709635  0.10208253  0.09933904  1
  Zr  Zr22  1  0.49062231  0.09607691  0.09735286  1
  Zr  Zr23  1  0.68702154  0.50917299  0.89081384  1
  Zr  Zr24  1  0.28974545  0.50149686  0.49546287  1
  Zr  Zr25  1  0.29534539  0.69582735  0.09876921  1
  Zr  Zr26  1  0.50454089  0.09733596  0.69108942  1
  Zr  Zr27  1  0.90270291  0.30266409  0.50664862  1
  Zr  Zr28  1  0.68909421  0.10181026  0.50839440  1
  Zr  Zr29  1  0.89621457  0.70501472  0.89633872  1
  Zr  Zr30  1  0.09267695  0.69013527  0.88843425  1
  Zr  Zr31  1  0.89869576  0.29471608  0.30110966  1
  Zr  Zr32  1  0.50543157  0.69862837  0.08790458  1
  Zr  Zr33  1  0.70018454  0.10145350  0.89172381  1
  Zr  Zr34  1  0.29976316  0.30411373  0.89723011  1
  Zr  Zr35  1  0.30641248  0.49661375  0.69624844  1
  Zr  Zr36  1  0.70265949  0.30017949  0.29603620  1
  Zr  Zr37  1  0.10446283  0.69184561  0.50450770  1
  Zr  Zr38  1  0.09671073  0.10411579  0.69794725  1
  Zr  Zr39  1  0.90679567  0.50025124  0.90004266  1
  Zr  Zr40  1  0.29883679  0.09591871  0.69944102  1
  Zr  Zr41  1  0.49940793  0.89855259  0.50621792  1
  Zr  Zr42  1  0.30685220  0.30711221  0.50567440  1
  Zr  Zr43  1  0.50661071  0.10147636  0.30204010  1
  Zr  Zr44  1  0.30132872  0.09868215  0.09879934  1
  Zr  Zr45  1  0.69654924  0.09311226  0.08516606  1
  Zr  Zr46  1  0.90314776  0.51276649  0.30525042  1
  Zr  Zr47  1  0.09848595  0.30503313  0.09885655  1
  Zr  Zr48  1  0.09793506  0.89908627  0.49855851  1
  Zr  Zr49  1  0.50861777  0.10323655  0.90056795  1
  Sc  Sc50  1  0.10010273  0.10571869  0.89270983  1
  Sc  Sc51  1  0.89897420  0.89763347  0.49741514  1
  Sc  Sc52  1  0.70657853  0.29537471  0.49797298  1
  Sc  Sc53  1  0.09504157  0.50898295  0.69695754  1
  Sc  Sc54  1  0.10132343  0.29532303  0.50641470  1
  Sc  Sc55  1  0.70690539  0.09764553  0.31357667  1
  Sc  Sc56  1  0.10190049  0.90676770  0.10324816  1
  Sc  Sc57  1  0.29464803  0.89761312  0.50871637  1
  Sc  Sc58  1  0.70469989  0.89860441  0.49713619  1
  Sc  Sc59  1  0.50242070  0.49219518  0.29936124  1
  Sc  Sc60  1  0.90372147  0.29519561  0.69291119  1
  Sc  Sc61  1  0.90472368  0.10016868  0.30439785  1
  Sc  Sc62  1  0.50762007  0.89103309  0.30929759  1
  Sc  Sc63  1  0.29521824  0.49664745  0.30104928  1
  Sc  Sc64  1  0.10076931  0.89340012  0.30411350  1
  Sc  Sc65  1  0.29348120  0.70555731  0.50328418  1
  Sc  Sc66  1  0.10268004  0.30617815  0.89428502  1
  Sc  Sc67  1  0.50511098  0.29813365  0.50265336  1
  Sc  Sc68  1  0.09715137  0.28996142  0.30477942  1
  Sc  Sc69  1  0.30161947  0.30445806  0.09324990  1
  Sc  Sc70  1  0.69116313  0.49892278  0.30299622  1
  Sc  Sc71  1  0.10622939  0.50680517  0.09869343  1
  Sc  Sc72  1  0.90434665  0.10055303  0.11060321  1
  Sc  Sc73  1  0.49308070  0.69888004  0.70418893  1
  Sc  Sc74  1  0.09441124  0.09912012  0.30802622  1
  Sc  Sc75  1  0.29692239  0.49878033  0.09942791  1
  Sc  Sc76  1  0.09996002  0.09753814  0.50205644  1
  Sc  Sc77  1  0.09495878  0.90892215  0.89740543  1
  Sc  Sc78  1  0.70315673  0.50383514  0.51015240  1
  Sc  Sc79  1  0.69796888  0.69449227  0.49718625  1
  Sc  Sc80  1  0.29593705  0.10199364  0.90236281  1
  Sc  Sc81  1  0.48436954  0.89480558  0.90132808  1
  Sc  Sc82  1  0.29632648  0.69352745  0.69925116  1
  Sc  Sc83  1  0.90179486  0.49604811  0.09473041  1
  Sc  Sc84  1  0.89916279  0.50377264  0.50593559  1
  Sc  Sc85  1  0.90580814  0.09766135  0.49781168  1
  Sc  Sc86  1  0.70826288  0.90384365  0.90862450  1
  Sc  Sc87  1  0.89927936  0.89753282  0.89286986  1
  Sc  Sc88  1  0.09778657  0.29913339  0.69715313  1
  Sc  Sc89  1  0.30487809  0.30877782  0.30007825  1
  Sc  Sc90  1  0.69594972  0.49254156  0.10526598  1
  Sc  Sc91  1  0.49900209  0.49662925  0.10194423  1
  Sc  Sc92  1  0.29312136  0.89726604  0.30163639  1
  Sc  Sc93  1  0.89595424  0.10151585  0.88727722  1
  Sc  Sc94  1  0.09905683  0.90896866  0.69979260  1
  Sc  Sc95  1  0.50192119  0.30845746  0.69419947  1
  Sc  Sc96  1  0.09335063  0.70030143  0.29532768  1
  Sc  Sc97  1  0.48958196  0.30008142  0.10072313  1
  Sc  Sc98  1  0.89837970  0.70152561  0.70938159  1
  Sc  Sc99  1  0.89782144  0.90783438  0.09591088  1
  Nb  Nb100  1  0.10190753  0.50192972  0.30561093  1
  Nb  Nb101  1  0.50061975  0.09734275  0.50236551  1
  Nb  Nb102  1  0.89717460  0.70306964  0.29785486  1
  Nb  Nb103  1  0.50614613  0.68692278  0.90043371  1
  Nb  Nb104  1  0.49949642  0.50499088  0.89423225  1
  Nb  Nb105  1  0.69528945  0.70000561  0.90595701  1
  Nb  Nb106  1  0.30499758  0.89884315  0.71020926  1
  Nb  Nb107  1  0.89935074  0.30969275  0.90636800  1
  Nb  Nb108  1  0.69832037  0.70765557  0.09298261  1
  Nb  Nb109  1  0.89013346  0.49261884  0.69686312  1
  Nb  Nb110  1  0.49826572  0.30074228  0.89831549  1
  Nb  Nb111  1  0.69941422  0.49916323  0.69913874  1
  Nb  Nb112  1  0.70222499  0.89454050  0.69988384  1
  Nb  Nb113  1  0.29906611  0.89314132  0.89803726  1
  Nb  Nb114  1  0.09772159  0.70205450  0.70208066  1
  Nb  Nb115  1  0.70180028  0.89904129  0.09967610  1
  Nb  Nb116  1  0.09544994  0.50351883  0.49653532  1
  Nb  Nb117  1  0.50304683  0.70061463  0.50085003  1
  Nb  Nb118  1  0.51422582  0.50136166  0.69824834  1
  Nb  Nb119  1  0.70120541  0.89813526  0.29894509  1
  Nb  Nb120  1  0.89128098  0.89073944  0.70006506  1
  Nb  Nb121  1  0.10532899  0.70684002  0.10101221  1
  Nb  Nb122  1  0.69706797  0.70424851  0.29485430  1
  Nb  Nb123  1  0.70126343  0.29803500  0.10036524  1
  Nb  Nb124  1  0.89502832  0.09769619  0.69796351  1
  Nb  Nb125  1  -0.00579324  0.20888946  -0.00309380  1
  Nb  Nb126  1  0.19721765  0.79671778  -0.00732860  1
  Nb  Nb127  1  0.40340014  0.19496793  0.40448004  1
  Nb  Nb128  1  0.40167326  0.00438887  0.40680320  1
  Nb  Nb129  1  0.59693461  0.39394411  -0.00792950  1
  Nb  Nb130  1  0.60158827  0.79850634  0.60609240  1
  Nb  Nb131  1  0.00767485  0.79633093  -0.00006411  1
  Nb  Nb132  1  0.40256244  0.79312856  0.19887702  1
  Nb  Nb133  1  0.60488343  0.19602216  0.19519730  1
  Nb  Nb134  1  0.20095514  0.19790302  0.19752786  1
  Nb  Nb135  1  0.60180774  0.79620273  0.80268024  1
  Nb  Nb136  1  0.79950230  -0.00218719  0.60797856  1
  Nb  Nb137  1  0.40098039  0.60709491  0.20602259  1
  Nb  Nb138  1  0.20253137  0.80106002  0.80258061  1
  Nb  Nb139  1  0.40632162  0.59574694  0.59275292  1
  Nb  Nb140  1  0.79366140  0.80074587  0.20075665  1
  Nb  Nb141  1  0.79553799  0.61155580  0.19903133  1
  Nb  Nb142  1  -0.00069139  0.79737398  0.60523204  1
  Nb  Nb143  1  0.40250072  0.60402507  0.40175086  1
  Nb  Nb144  1  0.00150734  0.40374030  0.20925571  1
  Nb  Nb145  1  0.79919533  0.40110408  0.79826889  1
  Nb  Nb146  1  0.60747397  -0.00270296  0.19842907  1
  Nb  Nb147  1  0.79235367  0.60624292  0.00248323  1
  Nb  Nb148  1  0.00274800  0.40617595  0.40016795  1
  Nb  Nb149  1  0.40380501  0.20343236  0.79977061  1
  Pd  Pd150  1  0.81067507  0.18902544  0.00114480  1
  Pd  Pd151  1  0.80529429  0.41320300  0.20581212  1
  Pd  Pd152  1  0.40596858  0.39876162  0.79483070  1
  Pd  Pd153  1  0.18882435  0.40594248  0.60342066  1
  Pd  Pd154  1  0.59260024  0.20795185  0.00897627  1
  Pd  Pd155  1  0.39801573  0.20737857  0.20507353  1
  Pd  Pd156  1  0.59777000  0.80980681  -0.01271256  1
  Pd  Pd157  1  0.79171476  0.18726129  0.19771818  1
  Pd  Pd158  1  0.20028114  -0.00250213  0.80160796  1
  Pd  Pd159  1  0.19099552  0.39011483  0.39943995  1
  Pd  Pd160  1  -0.00946516  0.60480133  0.60725882  1
  Pd  Pd161  1  0.80402762  0.40786435  0.40309062  1
  Pd  Pd162  1  0.40927734  -0.01587600  0.21478511  1
  Pd  Pd163  1  0.19941151  0.60239915  -0.00693503  1
  Pd  Pd164  1  0.39435703  0.80116113  0.39729710  1
  Pd  Pd165  1  0.40049613  0.79247225  0.60525408  1
  Pd  Pd166  1  0.78871912  0.59813810  0.39452734  1
  Pd  Pd167  1  0.19429567  0.80533110  0.61218217  1
  Pd  Pd168  1  0.19314275  0.00350324  0.20539761  1
  Pd  Pd169  1  0.00346728  -0.00598272  0.20903033  1
  Pd  Pd170  1  0.19536597  0.39529756  0.20254170  1
  Pd  Pd171  1  0.60900974  0.39713627  0.40865999  1
  Pd  Pd172  1  0.00149510  0.59652460  0.19538929  1
  Pd  Pd173  1  0.60996971  0.39399520  0.59393266  1
  Pd  Pd174  1  0.80384785  0.59410304  0.80550812  1
  Pd  Pd175  1  0.78525163  0.41193421  -0.00944773  1
  Pd  Pd176  1  -0.00647455  0.00692046  -0.00656371  1
  Pd  Pd177  1  -0.00543673  0.81184984  0.19523374  1
  Pd  Pd178  1  0.39912015  0.01093351  0.80838991  1
  Pd  Pd179  1  0.19679752  0.40271963  0.78979250  1
  Pd  Pd180  1  -0.00643701  -0.00191108  0.79632231  1
  Pd  Pd181  1  0.60672765  0.38923880  0.80254092  1
  Pd  Pd182  1  0.20410116  -0.00162977  0.40363972  1
  Pd  Pd183  1  -0.00193310  0.60336368  0.00576692  1
  Pd  Pd184  1  0.40441570  0.40681092  -0.00139709  1
  Pd  Pd185  1  0.60015985  -0.00711944  0.40019438  1
  Pd  Pd186  1  0.80416164  0.19368134  0.40815905  1
  Pd  Pd187  1  0.60050957  -0.01560633  0.80901333  1
  Pd  Pd188  1  0.59795446  0.80635671  0.19606820  1
  Pd  Pd189  1  0.20891176  0.20596409  0.39689113  1
  Pd  Pd190  1  0.80656402  0.60718679  0.60088867  1
  Pd  Pd191  1  0.81097811  0.00611371  -0.00537208  1
  Pd  Pd192  1  -0.00943879  -0.00688917  0.60189680  1
  Pd  Pd193  1  0.79352209  0.79690578  0.39813375  1
  Pd  Pd194  1  0.60011856  0.59737582  0.19466969  1
  Pd  Pd195  1  0.79578456  0.00041381  0.20358309  1
  Pd  Pd196  1  -0.00505886  0.20807440  0.80411953  1
  Pd  Pd197  1  -0.00492831  0.39734651  0.78924255  1
  Pd  Pd198  1  0.19321722  0.20414334  0.00108126  1
  Pd  Pd199  1  0.19893094  -0.00327953  -0.00612490  1
  Rh  Rh200  1  0.20557361  0.80771923  0.18972069  1
  Rh  Rh201  1  0.00603609  0.60282693  0.39915570  1
  Rh  Rh202  1  0.20681316  0.20369546  0.79609303  1
  Rh  Rh203  1  0.39251032  -0.00390386  0.59585345  1
  Rh  Rh204  1  0.40516957  0.59151430  0.00563751  1
  Rh  Rh205  1  0.59706090  0.60870463  0.60696584  1
  Rh  Rh206  1  0.60939739  -0.01046312  0.60044011  1
  Rh  Rh207  1  0.40266170  0.40145615  0.40504166  1
  Rh  Rh208  1  0.00577378  0.79382402  0.40574276  1
  Rh  Rh209  1  0.40667806  0.40937629  0.59641991  1
  Rh  Rh210  1  0.80397420  0.18789980  0.59654969  1
  Rh  Rh211  1  0.59610552  0.20704227  0.39559694  1
  Rh  Rh212  1  0.20274245  -0.00366971  0.60534277  1
  Rh  Rh213  1  0.40822984  0.59070293  0.78925684  1
  Rh  Rh214  1  0.59821882  0.38739373  0.18973172  1
  Rh  Rh215  1  0.20064858  0.40637254  -0.00559769  1
  Rh  Rh216  1  0.79583156  0.39897508  0.60377584  1
  Rh  Rh217  1  0.60275763  0.58760158  0.00760075  1
  Rh  Rh218  1  0.39603158  0.40999175  0.19985171  1
  Rh  Rh219  1  0.19412492  0.19839519  0.60232434  1
  Rh  Rh220  1  0.80261143  0.79979491  0.59513968  1
  Rh  Rh221  1  0.81244574  0.21079155  0.79869145  1
  Rh  Rh222  1  0.20030086  0.59613127  0.20429110  1
  Rh  Rh223  1  0.60879501  0.80041471  0.41215536  1
  Rh  Rh224  1  0.60204653  0.59745129  0.40022893  1
  Rh  Rh225  1  -0.00248030  0.20659753  0.40796920  1
  Rh  Rh226  1  0.39832993  0.19888028  -0.01000709  1
  Rh  Rh227  1  -0.00859561  0.59253473  0.79048050  1
  Rh  Rh228  1  0.78928313  0.80292151  0.80875663  1
  Rh  Rh229  1  0.20194608  0.60188921  0.79623218  1
  Rh  Rh230  1  0.58976550  0.20624057  0.79076475  1
  Rh  Rh231  1  -0.00007799  0.19385020  0.59841639  1
  Rh  Rh232  1  0.00063770  -0.00200577  0.39961874  1
  Rh  Rh233  1  0.39603902  0.79219701  0.00324579  1
  Rh  Rh234  1  0.00930018  0.80774309  0.79639512  1
  Rh  Rh235  1  0.00639211  0.20781149  0.19326278  1
  Rh  Rh236  1  0.59706370  -0.00739154  -0.00428183  1
  Rh  Rh237  1  0.00188586  0.40552630  0.59419940  1
  Rh  Rh238  1  0.80135463  -0.00630618  0.79434638  1
  Rh  Rh239  1  0.19843199  0.60413829  0.39716457  1
  Rh  Rh240  1  0.80035249  0.00251515  0.40935897  1
  Rh  Rh241  1  0.20356060  0.59512368  0.60390867  1
  Rh  Rh242  1  0.40059372  0.79480690  0.79830612  1
  Rh  Rh243  1  0.19319395  0.79732967  0.40386871  1
  Rh  Rh244  1  0.59638777  0.60898392  0.79021215  1
  Rh  Rh245  1  0.40825881  0.20108897  0.60164611  1
  Rh  Rh246  1  0.80820059  0.79791400  0.00323116  1
  Rh  Rh247  1  0.39621575  0.00561372  -0.01052171  1
  Rh  Rh248  1  0.00518810  0.39875698  0.00748067  1
  Rh  Rh249  1  0.59828474  0.20392951  0.60271453  1
