# generated using pymatgen
data_ZrScNbPdRh
_symmetry_space_group_name_H-M   'P 1'
_cell_length_a   16.55398213
_cell_length_b   16.55722115
_cell_length_c   16.55449387
_cell_angle_alpha   89.96608809
_cell_angle_beta   89.98956078
_cell_angle_gamma   89.97970222
_symmetry_Int_Tables_number   1
_chemical_formula_structural   ZrScNbPdRh
_chemical_formula_sum   'Zr50 Sc50 Nb50 Pd50 Rh50'
_cell_volume   4537.38601774
_cell_formula_units_Z   50
loop_
 _symmetry_equiv_pos_site_id
 _symmetry_equiv_pos_as_xyz
  1  'x, y, z'
loop_
 _atom_site_type_symbol
 _atom_site_label
 _atom_site_symmetry_multiplicity
 _atom_site_fract_x
 _atom_site_fract_y
 _atom_site_fract_z
 _atom_site_occupancy
  Zr  Zr0  1  0.49813135  0.70285518  0.90141858  1
  Zr  Zr1  1  0.71257980  0.69683141  0.30278617  1
  Zr  Zr2  1  0.69466187  0.09893225  0.29549423  1
  Zr  Zr3  1  0.09862511  0.89975760  0.49576813  1
  Zr  Zr4  1  0.29643579  0.89520153  0.90687249  1
  Zr  Zr5  1  0.90189278  0.71104214  0.90053664  1
  Zr  Zr6  1  0.10366559  0.50073235  0.50768362  1
  Zr  Zr7  1  0.90246900  0.29963474  0.48136934  1
  Zr  Zr8  1  0.29532382  0.30378797  0.30179194  1
  Zr  Zr9  1  0.89594331  0.29756180  0.69727152  1
  Zr  Zr10  1  0.10519917  0.90885395  0.09799107  1
  Zr  Zr11  1  0.09290842  0.89619421  0.69030958  1
  Zr  Zr12  1  0.29272171  0.09683660  0.49269593  1
  Zr  Zr13  1  0.89054112  0.49952195  0.10144601  1
  Zr  Zr14  1  0.10115645  0.30010079  0.10835821  1
  Zr  Zr15  1  0.30305622  0.10509540  0.89451628  1
  Zr  Zr16  1  0.90210284  0.90364031  0.09552470  1
  Zr  Zr17  1  0.90281633  0.89865755  0.70748404  1
  Zr  Zr18  1  0.90592738  0.28838074  0.90384815  1
  Zr  Zr19  1  0.50497579  0.70021453  0.69232326  1
  Zr  Zr20  1  0.49547281  0.89939189  0.10138970  1
  Zr  Zr21  1  0.29319327  0.69448505  0.89918988  1
  Zr  Zr22  1  0.69750774  0.89798609  0.29686090  1
  Zr  Zr23  1  0.50482751  0.89250395  0.49909169  1
  Zr  Zr24  1  0.70493700  0.10033308  0.70274077  1
  Zr  Zr25  1  0.70441247  0.91023775  0.91123091  1
  Zr  Zr26  1  0.89565456  0.50209402  0.69481609  1
  Zr  Zr27  1  0.89373883  0.50536309  0.29777641  1
  Zr  Zr28  1  0.30474277  0.68674975  0.30732533  1
  Zr  Zr29  1  0.89634463  0.09098921  0.89719901  1
  Zr  Zr30  1  0.70562486  0.50163695  0.49738336  1
  Zr  Zr31  1  0.29541221  0.50136964  0.90248711  1
  Zr  Zr32  1  0.90692500  0.70222329  0.29595088  1
  Zr  Zr33  1  0.30244563  0.29485709  0.70238112  1
  Zr  Zr34  1  0.08953351  0.10127260  0.90515149  1
  Zr  Zr35  1  0.50278350  0.89660945  0.69992403  1
  Zr  Zr36  1  0.50289465  0.10464171  0.29750979  1
  Zr  Zr37  1  0.89932078  0.11281936  0.29996302  1
  Zr  Zr38  1  0.70160427  0.69470810  0.69430732  1
  Zr  Zr39  1  0.10020298  0.30903601  0.49248554  1
  Zr  Zr40  1  0.90300325  0.89494305  0.30230768  1
  Zr  Zr41  1  0.90525871  0.10592770  0.09939064  1
  Zr  Zr42  1  0.10171973  0.09993102  0.10143284  1
  Zr  Zr43  1  0.69444572  0.90050489  0.69418080  1
  Zr  Zr44  1  0.10495961  0.30394912  0.69104981  1
  Zr  Zr45  1  0.29734710  0.90316667  0.10014901  1
  Zr  Zr46  1  0.90156633  0.09611689  0.69949733  1
  Zr  Zr47  1  0.10246054  0.69609219  0.69592538  1
  Zr  Zr48  1  0.50401738  0.30961043  0.30202758  1
  Zr  Zr49  1  0.10733201  0.50289079  0.10141598  1
  Sc  Sc50  1  0.30534062  0.68989476  0.50076534  1
  Sc  Sc51  1  0.49945870  0.49441346  0.69988851  1
  Sc  Sc52  1  0.69935839  0.09337506  0.10509922  1
  Sc  Sc53  1  0.70166722  0.31235748  0.10699690  1
  Sc  Sc54  1  0.69982477  0.70206292  0.50177121  1
  Sc  Sc55  1  0.50189613  0.30904463  0.70189055  1
  Sc  Sc56  1  0.09664373  0.30077825  0.29955866  1
  Sc  Sc57  1  0.50203822  0.30340625  0.49873689  1
  Sc  Sc58  1  0.29704507  0.30592061  0.50133373  1
  Sc  Sc59  1  0.49405373  0.69949975  0.29864791  1
  Sc  Sc60  1  0.70068263  0.70344096  0.91308023  1
  Sc  Sc61  1  0.49819174  0.70120311  0.10363221  1
  Sc  Sc62  1  0.90248743  0.09758586  0.49529705  1
  Sc  Sc63  1  0.09551520  0.89361158  0.89890610  1
  Sc  Sc64  1  0.49852975  0.48972055  0.49903321  1
  Sc  Sc65  1  0.28965566  0.90297523  0.69923567  1
  Sc  Sc66  1  0.30020705  0.69154396  0.69812214  1
  Sc  Sc67  1  0.69661938  0.30718142  0.50016078  1
  Sc  Sc68  1  0.89497331  0.70054206  0.49926831  1
  Sc  Sc69  1  0.70021740  0.30342626  0.69359369  1
  Sc  Sc70  1  0.09462529  0.89926755  0.29882005  1
  Sc  Sc71  1  0.89821376  0.49686069  0.49803568  1
  Sc  Sc72  1  0.29480962  0.09724621  0.10653117  1
  Sc  Sc73  1  0.69651951  0.49218334  0.69222324  1
  Sc  Sc74  1  0.30378230  0.49598604  0.10527704  1
  Sc  Sc75  1  0.09739621  0.70286216  0.10740224  1
  Sc  Sc76  1  0.10512927  0.49202307  0.30511817  1
  Sc  Sc77  1  0.49899959  0.09883699  0.90036776  1
  Sc  Sc78  1  0.69935922  0.69862842  0.10335875  1
  Sc  Sc79  1  0.50289751  0.89971767  0.29780306  1
  Sc  Sc80  1  0.51063694  0.90390819  0.89920362  1
  Sc  Sc81  1  0.10096008  0.09077828  0.69889402  1
  Sc  Sc82  1  0.70393760  0.30012007  0.29790900  1
  Sc  Sc83  1  0.29465084  0.89659303  0.49813579  1
  Sc  Sc84  1  0.49992287  0.09744916  0.71146139  1
  Sc  Sc85  1  0.10614178  0.09925750  0.30127591  1
  Sc  Sc86  1  0.29748772  0.90399920  0.29313346  1
  Sc  Sc87  1  0.09715093  0.09137981  0.49247099  1
  Sc  Sc88  1  0.48863688  0.30544573  0.89946799  1
  Sc  Sc89  1  0.30391626  0.70582954  0.09623359  1
  Sc  Sc90  1  0.90118258  0.69747957  0.10774934  1
  Sc  Sc91  1  0.50262539  0.09855725  0.10366957  1
  Sc  Sc92  1  0.91000518  0.89868005  0.50384340  1
  Sc  Sc93  1  0.30186388  0.30532242  0.10040707  1
  Sc  Sc94  1  0.51036892  0.10467006  0.49299238  1
  Sc  Sc95  1  0.69729266  0.10155329  0.50532189  1
  Sc  Sc96  1  0.30057653  0.49874542  0.49441075  1
  Sc  Sc97  1  0.30146280  0.49880435  0.69383615  1
  Sc  Sc98  1  0.89772950  0.71002822  0.69651294  1
  Sc  Sc99  1  0.29400097  0.09808653  0.70550978  1
  Nb  Nb100  1  0.89970760  0.29781459  0.11206134  1
  Nb  Nb101  1  0.69846669  0.10325323  0.90626652  1
  Nb  Nb102  1  0.90064258  0.89708636  0.89943914  1
  Nb  Nb103  1  0.10234706  0.69571465  0.49725338  1
  Nb  Nb104  1  0.49829712  0.29895890  0.10611174  1
  Nb  Nb105  1  0.69535683  0.90807923  0.10012511  1
  Nb  Nb106  1  0.70210122  0.49736712  0.91485747  1
  Nb  Nb107  1  0.90038013  0.30092969  0.28794199  1
  Nb  Nb108  1  0.29757310  0.29623783  0.89797935  1
  Nb  Nb109  1  0.69611587  0.30646841  0.90297230  1
  Nb  Nb110  1  0.50055156  0.49699996  0.10580449  1
  Nb  Nb111  1  0.30254455  0.10023129  0.29939489  1
  Nb  Nb112  1  0.49069303  0.50376826  0.29422636  1
  Nb  Nb113  1  0.09726678  0.49880020  0.70063779  1
  Nb  Nb114  1  0.89878991  0.50174585  0.90402836  1
  Nb  Nb115  1  0.09885406  0.30206485  0.90195436  1
  Nb  Nb116  1  0.69258824  0.90806589  0.49348324  1
  Nb  Nb117  1  0.09669298  0.69664893  0.29940766  1
  Nb  Nb118  1  0.10300786  0.50273385  0.90193809  1
  Nb  Nb119  1  0.31024790  0.50097063  0.30129600  1
  Nb  Nb120  1  0.69535643  0.50401013  0.29743305  1
  Nb  Nb121  1  0.10403138  0.68777351  0.89714694  1
  Nb  Nb122  1  0.69821621  0.50524694  0.09592278  1
  Nb  Nb123  1  0.50673793  0.49843074  0.90011638  1
  Nb  Nb124  1  0.49843811  0.70032453  0.49643290  1
  Nb  Nb125  1  0.79404284  0.20227937  0.00033677  1
  Nb  Nb126  1  -0.00035643  0.59564395  0.80355212  1
  Nb  Nb127  1  0.39980100  0.79817206  0.79979233  1
  Nb  Nb128  1  0.40116130  0.00352848  0.59356146  1
  Nb  Nb129  1  0.59656997  0.59614821  0.39522021  1
  Nb  Nb130  1  0.00152010  0.40451572  0.80497453  1
  Nb  Nb131  1  0.00144011  0.20294370  0.59499923  1
  Nb  Nb132  1  0.20054077  0.20570224  -0.00547558  1
  Nb  Nb133  1  0.19469609  0.78796553  0.39680383  1
  Nb  Nb134  1  0.20396699  0.60003628  0.20868705  1
  Nb  Nb135  1  0.39917298  0.19342509  0.59908399  1
  Nb  Nb136  1  0.60712883  0.20464881  0.80979522  1
  Nb  Nb137  1  0.40042725  0.20314259  0.20547356  1
  Nb  Nb138  1  0.00253061  0.59640741  -0.00555984  1
  Nb  Nb139  1  0.79783809  0.59426967  0.80865012  1
  Nb  Nb140  1  0.60344909  0.20640947  -0.00033409  1
  Nb  Nb141  1  0.40101164  0.00323244  0.40027015  1
  Nb  Nb142  1  0.00486185  0.60260618  0.39878312  1
  Nb  Nb143  1  0.60599452  0.59230319  0.80997734  1
  Nb  Nb144  1  0.80070227  0.40384235  0.81169650  1
  Nb  Nb145  1  0.39598644  -0.00209596  0.00075255  1
  Nb  Nb146  1  0.79510135  -0.00366638  0.39787334  1
  Nb  Nb147  1  0.00035372  0.40158480  -0.00099983  1
  Nb  Nb148  1  0.40727419  0.59088428  -0.00222942  1
  Nb  Nb149  1  0.19478591  0.39941403  0.80486247  1
  Pd  Pd150  1  0.59129425  0.20172447  0.61146985  1
  Pd  Pd151  1  0.59868342  0.60397696  0.20457720  1
  Pd  Pd152  1  0.59444486  0.59309571  0.59283071  1
  Pd  Pd153  1  0.79913398  0.80003439  0.01046063  1
  Pd  Pd154  1  0.39174931  0.40405723  0.80061309  1
  Pd  Pd155  1  0.40339406  0.40466459  0.00067675  1
  Pd  Pd156  1  0.19978731  0.39412147  -0.00039723  1
  Pd  Pd157  1  0.19672225  0.19207270  0.59388950  1
  Pd  Pd158  1  0.60384328  0.40539910  0.20138876  1
  Pd  Pd159  1  0.39987480  0.20067045  0.40200083  1
  Pd  Pd160  1  0.80529948  0.00029963  0.20399469  1
  Pd  Pd161  1  0.79481052  -0.00549831  0.80018484  1
  Pd  Pd162  1  0.60014383  0.80300945  0.00793604  1
  Pd  Pd163  1  -0.00017291  0.40743574  0.19975339  1
  Pd  Pd164  1  0.60172283  0.79527430  0.19990338  1
  Pd  Pd165  1  0.79647224  0.81033710  0.59230530  1
  Pd  Pd166  1  0.20591848  0.79297417  0.59162264  1
  Pd  Pd167  1  0.39529386  0.79879934  0.20652488  1
  Pd  Pd168  1  0.20068591  0.79842339  0.79670424  1
  Pd  Pd169  1  0.79052812  0.19466427  0.40279648  1
  Pd  Pd170  1  0.39951455  0.19430836  0.00995509  1
  Pd  Pd171  1  -0.00720795  0.60637788  0.59734551  1
  Pd  Pd172  1  0.00792936  0.20187762  0.78736280  1
  Pd  Pd173  1  0.79897322  0.80361519  0.19079365  1
  Pd  Pd174  1  0.39118363  0.80720030  0.39517478  1
  Pd  Pd175  1  0.80130236  0.80774983  0.40906720  1
  Pd  Pd176  1  0.20144889  0.79413743  0.20706657  1
  Pd  Pd177  1  0.59046152  0.39460567  0.00578283  1
  Pd  Pd178  1  0.39830815  -0.01052932  0.80051194  1
  Pd  Pd179  1  0.39164029  0.80466670  0.60552633  1
  Pd  Pd180  1  0.78768643  0.79726099  0.80218550  1
  Pd  Pd181  1  0.79246579  0.20718763  0.80625475  1
  Pd  Pd182  1  0.19480637  0.20251523  0.39915700  1
  Pd  Pd183  1  0.19078026  -0.00404455  0.80655347  1
  Pd  Pd184  1  0.60797825  0.20738361  0.39948357  1
  Pd  Pd185  1  0.80383704  -0.00580074  0.59026436  1
  Pd  Pd186  1  0.80804528  0.38963326  0.00209312  1
  Pd  Pd187  1  0.80580711  0.20233166  0.58786364  1
  Pd  Pd188  1  0.19010876  0.20173570  0.80290005  1
  Pd  Pd189  1  0.79855958  0.39971495  0.39170597  1
  Pd  Pd190  1  0.59396589  0.60054319  0.00274252  1
  Pd  Pd191  1  0.18969785  0.79183780  0.00253779  1
  Pd  Pd192  1  -0.00763229  0.39558160  0.59819885  1
  Pd  Pd193  1  0.00690266  0.79476695  0.00417213  1
  Pd  Pd194  1  0.60096187  0.78833804  0.39639333  1
  Pd  Pd195  1  0.40765074  0.60064084  0.80117379  1
  Pd  Pd196  1  0.00036898  0.00317507  0.20558069  1
  Pd  Pd197  1  0.59133524  0.00772388  0.60198401  1
  Pd  Pd198  1  0.40570476  0.59226776  0.59487176  1
  Pd  Pd199  1  0.60480686  0.79218038  0.80309185  1
  Rh  Rh200  1  0.59191223  0.00598419  0.00393645  1
  Rh  Rh201  1  0.00258491  0.20770605  0.01188272  1
  Rh  Rh202  1  0.60896443  0.40351498  0.80159380  1
  Rh  Rh203  1  0.80582843  0.60908863  0.00278554  1
  Rh  Rh204  1  0.20667121  0.01354243  -0.00830309  1
  Rh  Rh205  1  0.00650838  0.19826886  0.20572767  1
  Rh  Rh206  1  0.39939822  0.39333087  0.20194572  1
  Rh  Rh207  1  0.20566955  -0.01162503  0.39358194  1
  Rh  Rh208  1  0.80213178  0.39578808  0.59661518  1
  Rh  Rh209  1  0.00209025  -0.00766795  0.80340091  1
  Rh  Rh210  1  0.00944302  0.59206894  0.20178153  1
  Rh  Rh211  1  0.19468018  0.59811367  0.39663168  1
  Rh  Rh212  1  0.59824646  0.20605467  0.19367835  1
  Rh  Rh213  1  0.40387401  0.80288136  -0.00853868  1
  Rh  Rh214  1  0.59531356  -0.00518093  0.19802423  1
  Rh  Rh215  1  0.20582734  0.40626151  0.60321881  1
  Rh  Rh216  1  0.59867850  0.40051924  0.59722973  1
  Rh  Rh217  1  0.79348978  0.20095854  0.19188121  1
  Rh  Rh218  1  0.20380719  0.40320011  0.39826264  1
  Rh  Rh219  1  0.79344677  0.40642334  0.20391205  1
  Rh  Rh220  1  0.19617287  0.00031294  0.20639270  1
  Rh  Rh221  1  0.39964525  0.40055442  0.39976291  1
  Rh  Rh222  1  0.79264597  0.59829556  0.19414693  1
  Rh  Rh223  1  0.60557068  0.79804529  0.59276009  1
  Rh  Rh224  1  0.80175899  0.60036340  0.40211159  1
  Rh  Rh225  1  0.20302093  0.00098122  0.59729860  1
  Rh  Rh226  1  0.00313656  0.80821719  0.19291299  1
  Rh  Rh227  1  0.00576618  0.20120307  0.39839489  1
  Rh  Rh228  1  -0.00658391  0.40868334  0.39155904  1
  Rh  Rh229  1  0.59962569  0.00228369  0.39679533  1
  Rh  Rh230  1  -0.00072856  0.79360339  0.59765460  1
  Rh  Rh231  1  0.00536790  0.79121573  0.40502175  1
  Rh  Rh232  1  0.40331816  0.00837504  0.20151267  1
  Rh  Rh233  1  0.20312958  0.60626827  0.01505262  1
  Rh  Rh234  1  0.39776753  0.39030285  0.59888139  1
  Rh  Rh235  1  0.19723820  0.59116258  0.78820928  1
  Rh  Rh236  1  0.41073904  0.20567071  0.79141246  1
  Rh  Rh237  1  0.80447054  0.00481588  0.00556628  1
  Rh  Rh238  1  0.80151535  0.60025863  0.60167497  1
  Rh  Rh239  1  -0.00058172  0.00632239  0.59967433  1
  Rh  Rh240  1  0.41335213  0.59316634  0.40854975  1
  Rh  Rh241  1  -0.00426820  -0.00628603  -0.00585725  1
  Rh  Rh242  1  -0.01054985  0.00294345  0.39262100  1
  Rh  Rh243  1  0.60116716  0.40925313  0.39408704  1
  Rh  Rh244  1  0.00736106  0.79484527  0.79856737  1
  Rh  Rh245  1  0.60886454  0.00734898  0.80150178  1
  Rh  Rh246  1  0.20667271  0.20118522  0.19650123  1
  Rh  Rh247  1  0.20392885  0.59596454  0.60038954  1
  Rh  Rh248  1  0.20728151  0.40781140  0.20703287  1
  Rh  Rh249  1  0.39508881  0.60145459  0.18832741  1
