# generated using pymatgen
data_ZrScNbPdRh
_symmetry_space_group_name_H-M   'P 1'
_cell_length_a   16.55897722
_cell_length_b   16.56083828
_cell_length_c   16.56195876
_cell_angle_alpha   90.01567656
_cell_angle_beta   90.04500179
_cell_angle_gamma   90.00458488
_symmetry_Int_Tables_number   1
_chemical_formula_structural   ZrScNbPdRh
_chemical_formula_sum   'Zr50 Sc50 Nb50 Pd50 Rh50'
_cell_volume   4541.79337218
_cell_formula_units_Z   50
loop_
 _symmetry_equiv_pos_site_id
 _symmetry_equiv_pos_as_xyz
  1  'x, y, z'
loop_
 _atom_site_type_symbol
 _atom_site_label
 _atom_site_symmetry_multiplicity
 _atom_site_fract_x
 _atom_site_fract_y
 _atom_site_fract_z
 _atom_site_occupancy
  Zr  Zr0  1  0.09420235  0.89905937  0.09700812  1
  Zr  Zr1  1  0.29163493  0.09473169  0.30803459  1
  Zr  Zr2  1  0.90221352  0.50014599  0.70008596  1
  Zr  Zr3  1  0.29749400  0.50599211  0.30419547  1
  Zr  Zr4  1  0.09624487  0.30690412  0.09937119  1
  Zr  Zr5  1  0.70405310  0.89580386  0.10829112  1
  Zr  Zr6  1  0.70364250  0.10659739  0.09534048  1
  Zr  Zr7  1  0.50070444  0.49651302  0.30238303  1
  Zr  Zr8  1  0.30098740  0.50352435  0.89171333  1
  Zr  Zr9  1  0.09561353  0.50107286  0.90206349  1
  Zr  Zr10  1  0.10026925  0.49290441  0.50160397  1
  Zr  Zr11  1  0.50688887  0.49973529  0.09697665  1
  Zr  Zr12  1  0.50078365  0.89617631  0.29988564  1
  Zr  Zr13  1  0.68597011  0.89869003  0.89156471  1
  Zr  Zr14  1  0.50632438  0.10539289  0.89361233  1
  Zr  Zr15  1  0.89967351  0.69617172  0.09859457  1
  Zr  Zr16  1  0.29202687  0.10273151  0.89150845  1
  Zr  Zr17  1  0.91073926  0.69642165  0.30582275  1
  Zr  Zr18  1  0.49870270  0.11550676  0.09911713  1
  Zr  Zr19  1  0.09956484  0.08926330  0.89688115  1
  Zr  Zr20  1  0.90402754  0.89752755  0.28320010  1
  Zr  Zr21  1  0.50435275  0.30488243  0.70501792  1
  Zr  Zr22  1  0.50011435  0.30475279  0.49947106  1
  Zr  Zr23  1  0.70695514  0.10315583  0.50481368  1
  Zr  Zr24  1  0.89996546  0.10405459  0.69894985  1
  Zr  Zr25  1  0.28992400  0.90265762  0.90097481  1
  Zr  Zr26  1  0.91614653  0.89794979  0.89613262  1
  Zr  Zr27  1  0.10070097  0.10011355  0.10732832  1
  Zr  Zr28  1  0.70702909  0.90025340  0.50721637  1
  Zr  Zr29  1  0.30846719  0.50308454  0.09960817  1
  Zr  Zr30  1  0.49545413  0.49475526  0.89626091  1
  Zr  Zr31  1  0.29073723  0.88919322  0.10021075  1
  Zr  Zr32  1  0.49264105  0.10232051  0.30575077  1
  Zr  Zr33  1  0.10209767  0.09756523  0.49491788  1
  Zr  Zr34  1  0.69996543  0.30451139  0.50515452  1
  Zr  Zr35  1  0.49760720  0.68890688  0.69240619  1
  Zr  Zr36  1  0.69733566  0.10569650  0.29985262  1
  Zr  Zr37  1  0.09633953  0.30132271  0.69124625  1
  Zr  Zr38  1  0.31192504  0.50918682  0.69891814  1
  Zr  Zr39  1  0.69620806  0.89752143  0.30045108  1
  Zr  Zr40  1  0.49953898  0.70044106  0.29118676  1
  Zr  Zr41  1  0.68666377  0.68608644  0.09670095  1
  Zr  Zr42  1  0.90368436  0.30653368  0.30420324  1
  Zr  Zr43  1  0.50692182  0.70562822  0.90926112  1
  Zr  Zr44  1  0.29477257  0.69598440  0.70150481  1
  Zr  Zr45  1  0.49286745  0.88189822  0.10046405  1
  Zr  Zr46  1  0.69740259  0.09709625  0.69930351  1
  Zr  Zr47  1  0.90142487  0.70236244  0.49818567  1
  Zr  Zr48  1  0.50946132  0.30687440  0.89906839  1
  Zr  Zr49  1  0.29541817  0.10054237  0.50007203  1
  Sc  Sc50  1  0.69599951  0.69652544  0.29562303  1
  Sc  Sc51  1  0.09950595  0.29941884  0.49816277  1
  Sc  Sc52  1  0.29744685  0.10437045  0.10606466  1
  Sc  Sc53  1  0.29527673  0.28914448  0.70014723  1
  Sc  Sc54  1  0.52177702  0.90407226  0.70135317  1
  Sc  Sc55  1  0.29674176  0.90167684  0.30200573  1
  Sc  Sc56  1  0.70651104  0.90284853  0.69208362  1
  Sc  Sc57  1  0.50002109  0.30041621  0.29741744  1
  Sc  Sc58  1  0.29588627  0.29675032  0.50047356  1
  Sc  Sc59  1  0.09706686  0.70667969  0.49311153  1
  Sc  Sc60  1  0.70577795  0.11222393  0.89625331  1
  Sc  Sc61  1  0.28432200  0.90197597  0.69207126  1
  Sc  Sc62  1  0.30535657  0.30772983  0.89775322  1
  Sc  Sc63  1  0.50308748  0.10514660  0.50124934  1
  Sc  Sc64  1  0.70759560  0.30451826  0.70132083  1
  Sc  Sc65  1  0.89704452  0.10068840  0.89326577  1
  Sc  Sc66  1  0.10389599  0.69777534  0.30420777  1
  Sc  Sc67  1  0.90252508  0.09513918  0.10313748  1
  Sc  Sc68  1  0.48930355  0.50004053  0.51510860  1
  Sc  Sc69  1  0.70179090  0.49761459  0.29679549  1
  Sc  Sc70  1  0.69924066  0.30511483  0.08917395  1
  Sc  Sc71  1  0.90267122  0.90399133  0.69739047  1
  Sc  Sc72  1  0.90577067  0.10284543  0.50104575  1
  Sc  Sc73  1  0.09948293  0.89959087  0.50526651  1
  Sc  Sc74  1  0.90593503  0.30138779  0.50558744  1
  Sc  Sc75  1  0.09621930  0.09778224  0.29887785  1
  Sc  Sc76  1  0.70293017  0.69939937  0.69200688  1
  Sc  Sc77  1  0.30378260  0.29636892  0.30531105  1
  Sc  Sc78  1  0.10628840  0.30430485  0.89352431  1
  Sc  Sc79  1  0.29124074  0.69716835  0.50106810  1
  Sc  Sc80  1  0.29885231  0.69649116  0.90179437  1
  Sc  Sc81  1  0.89931657  0.50737752  0.90915166  1
  Sc  Sc82  1  0.28723139  0.90444128  0.49958033  1
  Sc  Sc83  1  0.29764922  0.69168653  0.29581186  1
  Sc  Sc84  1  0.09608059  0.29500078  0.30192377  1
  Sc  Sc85  1  0.09233591  0.69760972  0.90014518  1
  Sc  Sc86  1  0.69519067  0.30679627  0.31139115  1
  Sc  Sc87  1  0.10644313  0.10163501  0.70081334  1
  Sc  Sc88  1  0.10223700  0.49935581  0.30690921  1
  Sc  Sc89  1  0.90103729  0.50113758  0.48813963  1
  Sc  Sc90  1  0.90988822  0.90326106  0.50659674  1
  Sc  Sc91  1  0.89885689  0.30956087  0.10090633  1
  Sc  Sc92  1  0.90611780  0.68905225  0.89691648  1
  Sc  Sc93  1  0.69871402  0.49662163  0.90941850  1
  Sc  Sc94  1  0.70127863  0.49874135  0.69246030  1
  Sc  Sc95  1  0.10760608  0.70431640  0.10515331  1
  Sc  Sc96  1  0.90058138  0.70016289  0.70398194  1
  Sc  Sc97  1  0.51633762  0.90343016  0.50096967  1
  Sc  Sc98  1  0.70106151  0.70027958  0.50864573  1
  Sc  Sc99  1  0.10954486  0.50098301  0.70300685  1
  Nb  Nb100  1  0.90075794  0.30145665  0.70298666  1
  Nb  Nb101  1  0.49909005  0.50278180  0.70902937  1
  Nb  Nb102  1  0.50163057  0.70151949  0.50411929  1
  Nb  Nb103  1  0.90243420  0.49948402  0.10635825  1
  Nb  Nb104  1  0.70619189  0.30141346  0.89623513  1
  Nb  Nb105  1  0.09925940  0.69947112  0.70228577  1
  Nb  Nb106  1  0.10251796  0.89789297  0.89689094  1
  Nb  Nb107  1  0.70243055  0.69679947  0.90174642  1
  Nb  Nb108  1  0.69221630  0.50175552  0.49542507  1
  Nb  Nb109  1  0.09499367  0.49583979  0.09735378  1
  Nb  Nb110  1  0.30336907  0.30272923  0.09802351  1
  Nb  Nb111  1  0.48835131  0.30483226  0.09464803  1
  Nb  Nb112  1  0.88622999  0.29063345  0.89376939  1
  Nb  Nb113  1  0.30453184  0.69462299  0.10162054  1
  Nb  Nb114  1  0.09522914  0.89857069  0.70286038  1
  Nb  Nb115  1  0.09708730  0.89794569  0.29628716  1
  Nb  Nb116  1  0.48762217  0.69213983  0.10172617  1
  Nb  Nb117  1  0.29572093  0.50000683  0.49786048  1
  Nb  Nb118  1  0.30070200  0.09867423  0.69890647  1
  Nb  Nb119  1  0.49660962  0.90218311  0.89762455  1
  Nb  Nb120  1  0.90287833  0.49929124  0.29534792  1
  Nb  Nb121  1  0.70611986  0.50266820  0.09861331  1
  Nb  Nb122  1  0.49717552  0.10453236  0.70264703  1
  Nb  Nb123  1  0.89798840  0.89455656  0.09775641  1
  Nb  Nb124  1  0.90145791  0.10124029  0.29978883  1
  Nb  Nb125  1  0.40173909  0.00134402  0.60810598  1
  Nb  Nb126  1  0.19308640  0.80074679  0.79933805  1
  Nb  Nb127  1  -0.00068460  0.59122762  0.19853136  1
  Nb  Nb128  1  0.40214837  0.80525504  0.60005575  1
  Nb  Nb129  1  0.59968888  0.59782183  0.80107876  1
  Nb  Nb130  1  0.79951370  0.79946532  -0.00400444  1
  Nb  Nb131  1  0.40474570  0.79663271  0.40808492  1
  Nb  Nb132  1  0.20199037  0.40129770  0.19393899  1
  Nb  Nb133  1  -0.00970976  0.39414435  0.79912227  1
  Nb  Nb134  1  0.19674620  0.20501015  0.00355054  1
  Nb  Nb135  1  0.80396742  0.80528118  0.39833876  1
  Nb  Nb136  1  0.80466458  -0.00143342  0.39333491  1
  Nb  Nb137  1  0.40400901  -0.00047348  -0.00168275  1
  Nb  Nb138  1  0.00193927  0.20306052  -0.00388387  1
  Nb  Nb139  1  0.79802819  0.79849966  0.80905920  1
  Nb  Nb140  1  0.40074801  -0.00167200  0.79543769  1
  Nb  Nb141  1  0.79900818  -0.01150335  -0.00066396  1
  Nb  Nb142  1  0.59233161  0.00389162  0.19438314  1
  Nb  Nb143  1  0.20021847  0.59567041  0.00721186  1
  Nb  Nb144  1  0.80175215  0.20232471  0.20580603  1
  Nb  Nb145  1  0.40377570  -0.00209972  0.19385732  1
  Nb  Nb146  1  0.59537284  0.59807696  0.40793121  1
  Nb  Nb147  1  0.39902535  0.80727759  0.79413938  1
  Nb  Nb148  1  0.59676718  -0.00146531  0.00327733  1
  Nb  Nb149  1  0.00372336  0.60070489  0.59988029  1
  Pd  Pd150  1  0.80115821  -0.00611391  0.80571624  1
  Pd  Pd151  1  0.60101318  0.78769824  0.78930454  1
  Pd  Pd152  1  0.20389107  0.00757988  0.00924306  1
  Pd  Pd153  1  0.80758425  0.19937973  0.39933203  1
  Pd  Pd154  1  0.00323504  0.19698596  0.59682755  1
  Pd  Pd155  1  0.80111201  0.40958773  0.80540209  1
  Pd  Pd156  1  0.20518131  0.80081245  0.39676363  1
  Pd  Pd157  1  0.39055399  0.79907915  -0.00836260  1
  Pd  Pd158  1  0.39248353  0.19763392  0.20649465  1
  Pd  Pd159  1  0.78990447  0.60471693  0.39879239  1
  Pd  Pd160  1  0.39916827  0.19792693  0.59612736  1
  Pd  Pd161  1  0.60397098  0.39504836  0.19351128  1
  Pd  Pd162  1  0.00536786  0.20401632  0.80505519  1
  Pd  Pd163  1  0.60238988  0.20673580  -0.00366334  1
  Pd  Pd164  1  0.21155736  0.40074525  0.60478346  1
  Pd  Pd165  1  0.20398952  0.21020753  0.20038188  1
  Pd  Pd166  1  0.40044152  -0.01068596  0.41024204  1
  Pd  Pd167  1  0.79626812  0.00857197  0.19981906  1
  Pd  Pd168  1  0.59780300  0.40569893  0.60367883  1
  Pd  Pd169  1  0.79120859  0.39367321  0.20034916  1
  Pd  Pd170  1  0.40360335  0.60625925  0.40691582  1
  Pd  Pd171  1  0.20122208  0.39933881  0.79140190  1
  Pd  Pd172  1  0.59714958  0.20450837  0.40305199  1
  Pd  Pd173  1  -0.00931617  0.20336418  0.19501672  1
  Pd  Pd174  1  0.60489892  0.21084374  0.19848320  1
  Pd  Pd175  1  0.60548392  0.80226952  0.00725616  1
  Pd  Pd176  1  0.00037229  0.79183536  0.00083142  1
  Pd  Pd177  1  0.80625464  0.40402211  0.59087000  1
  Pd  Pd178  1  -0.00314262  -0.00555850  0.39612833  1
  Pd  Pd179  1  0.39621039  0.40081672  0.20337783  1
  Pd  Pd180  1  0.39206542  0.39498504  0.60592208  1
  Pd  Pd181  1  -0.01257094  0.39166580  -0.01351860  1
  Pd  Pd182  1  0.80821274  0.59549810  0.59406430  1
  Pd  Pd183  1  0.39061645  0.19852648  -0.00870912  1
  Pd  Pd184  1  0.20687976  0.40208748  0.00248428  1
  Pd  Pd185  1  0.80581794  0.40297368  -0.00155873  1
  Pd  Pd186  1  0.19900603  0.39325377  0.39312014  1
  Pd  Pd187  1  -0.00026605  0.79404216  0.60446087  1
  Pd  Pd188  1  0.39928513  0.20321143  0.80369806  1
  Pd  Pd189  1  0.60675917  0.00510850  0.40048854  1
  Pd  Pd190  1  -0.00576849  0.00611856  0.00141609  1
  Pd  Pd191  1  0.19156774  0.60287849  0.59323798  1
  Pd  Pd192  1  0.60148013  0.20222352  0.60523814  1
  Pd  Pd193  1  0.80154048  0.40264459  0.40472968  1
  Pd  Pd194  1  0.79789365  0.78481237  0.20044618  1
  Pd  Pd195  1  0.60476572  0.78844389  0.40527125  1
  Pd  Pd196  1  0.80346227  0.60171176  0.20318204  1
  Pd  Pd197  1  0.20049060  0.79692742  0.20818045  1
  Pd  Pd198  1  0.79198703  0.59928844  0.80005823  1
  Pd  Pd199  1  0.39677924  0.39924847  0.40373408  1
  Rh  Rh200  1  0.20067604  -0.00561106  0.20146379  1
  Rh  Rh201  1  0.39286988  0.60449176  0.58951256  1
  Rh  Rh202  1  0.59385386  0.40792871  0.40681460  1
  Rh  Rh203  1  0.59938533  0.79366697  0.19145321  1
  Rh  Rh204  1  0.80237016  0.20389206  0.60318729  1
  Rh  Rh205  1  -0.00192797  0.40774784  0.60537650  1
  Rh  Rh206  1  0.00397439  -0.00283361  0.19838143  1
  Rh  Rh207  1  0.40397056  0.59515436  0.20274280  1
  Rh  Rh208  1  0.39858319  0.59935411  -0.00443847  1
  Rh  Rh209  1  0.19755245  0.59881237  0.40680303  1
  Rh  Rh210  1  0.59902862  0.79899313  0.60294839  1
  Rh  Rh211  1  0.60157172  0.39901647  0.00255280  1
  Rh  Rh212  1  0.00819838  0.40754041  0.20949496  1
  Rh  Rh213  1  0.80928532  0.00468394  0.59204894  1
  Rh  Rh214  1  0.00478913  0.58937610  0.79090782  1
  Rh  Rh215  1  0.00639905  0.79140959  0.19891495  1
  Rh  Rh216  1  0.19554791  0.20084577  0.39907630  1
  Rh  Rh217  1  0.61088587  0.40636041  0.79902164  1
  Rh  Rh218  1  0.19677199  0.20348330  0.80265860  1
  Rh  Rh219  1  0.00284796  0.00228711  0.79270219  1
  Rh  Rh220  1  0.59580007  0.59273660  -0.00606033  1
  Rh  Rh221  1  -0.00191836  0.80983367  0.39458274  1
  Rh  Rh222  1  0.60014356  0.00873068  0.80177498  1
  Rh  Rh223  1  -0.00013097  0.79855091  0.79523450  1
  Rh  Rh224  1  0.00634320  0.59401478  0.40101532  1
  Rh  Rh225  1  0.19279594  0.60702590  0.81195533  1
  Rh  Rh226  1  0.59982864  0.59159878  0.60007106  1
  Rh  Rh227  1  0.60807671  0.20799184  0.79529888  1
  Rh  Rh228  1  0.79493505  0.19915018  0.78939248  1
  Rh  Rh229  1  0.00672003  0.00564992  0.60683745  1
  Rh  Rh230  1  0.80659138  0.80268038  0.60252657  1
  Rh  Rh231  1  0.19677315  0.79577350  0.60571545  1
  Rh  Rh232  1  0.79989597  0.60036453  0.00419070  1
  Rh  Rh233  1  0.41178850  0.61282848  0.81114647  1
  Rh  Rh234  1  0.40060897  0.20414579  0.40503969  1
  Rh  Rh235  1  0.81306331  0.19530901  0.00775023  1
  Rh  Rh236  1  0.00106102  0.39946053  0.39907960  1
  Rh  Rh237  1  0.19671153  0.19605555  0.59706788  1
  Rh  Rh238  1  -0.00043400  0.20030587  0.40180899  1
  Rh  Rh239  1  0.19786152  -0.00595724  0.79077470  1
  Rh  Rh240  1  0.39554378  0.39285267  0.79022691  1
  Rh  Rh241  1  0.38852952  0.79953256  0.21073267  1
  Rh  Rh242  1  0.00761711  0.60365201  0.01284859  1
  Rh  Rh243  1  0.59639751  0.59183831  0.20392213  1
  Rh  Rh244  1  0.19695888  0.00467705  0.60192789  1
  Rh  Rh245  1  0.40031386  0.40135436  -0.00284883  1
  Rh  Rh246  1  0.19748904  0.78687060  -0.00708605  1
  Rh  Rh247  1  0.18809522  -0.00647468  0.39554571  1
  Rh  Rh248  1  0.19182099  0.59054794  0.19243807  1
  Rh  Rh249  1  0.59513141  0.01067613  0.59978830  1
