# generated using pymatgen
data_ZrScNbPdRh
_symmetry_space_group_name_H-M   'P 1'
_cell_length_a   16.56175550
_cell_length_b   16.56241718
_cell_length_c   16.55734740
_cell_angle_alpha   89.98139379
_cell_angle_beta   89.98357646
_cell_angle_gamma   89.99748510
_symmetry_Int_Tables_number   1
_chemical_formula_structural   ZrScNbPdRh
_chemical_formula_sum   'Zr50 Sc50 Nb50 Pd50 Rh50'
_cell_volume   4541.72472881
_cell_formula_units_Z   50
loop_
 _symmetry_equiv_pos_site_id
 _symmetry_equiv_pos_as_xyz
  1  'x, y, z'
loop_
 _atom_site_type_symbol
 _atom_site_label
 _atom_site_symmetry_multiplicity
 _atom_site_fract_x
 _atom_site_fract_y
 _atom_site_fract_z
 _atom_site_occupancy
  Zr  Zr0  1  0.29527317  0.29641214  0.49995548  1
  Zr  Zr1  1  0.50061714  0.70532232  0.90532297  1
  Zr  Zr2  1  0.09661703  0.49571918  0.29460196  1
  Zr  Zr3  1  0.09597959  0.09971991  0.10106531  1
  Zr  Zr4  1  0.90419068  0.10925270  0.30116361  1
  Zr  Zr5  1  0.09326043  0.69971316  0.29223330  1
  Zr  Zr6  1  0.31097678  0.70077876  0.10900410  1
  Zr  Zr7  1  0.30248380  0.89323241  0.30131353  1
  Zr  Zr8  1  0.51197794  0.49683047  0.69649901  1
  Zr  Zr9  1  0.10392487  0.50338815  0.69933036  1
  Zr  Zr10  1  0.69873167  0.29781682  0.10259978  1
  Zr  Zr11  1  0.09677046  0.70332078  0.89487000  1
  Zr  Zr12  1  0.90432786  0.29236613  0.69940031  1
  Zr  Zr13  1  0.29673446  0.28722751  0.69905734  1
  Zr  Zr14  1  0.10135368  0.90120012  0.10268451  1
  Zr  Zr15  1  0.50363354  0.90407380  0.70465013  1
  Zr  Zr16  1  0.69649499  0.51211128  0.70057576  1
  Zr  Zr17  1  0.50128636  0.29043617  0.11007290  1
  Zr  Zr18  1  0.90467266  0.10319712  0.89456233  1
  Zr  Zr19  1  0.90259458  0.49817120  0.10141488  1
  Zr  Zr20  1  0.48999794  0.90188435  0.89822223  1
  Zr  Zr21  1  0.09872928  0.50314202  0.11126925  1
  Zr  Zr22  1  0.70296708  0.90378807  0.10666610  1
  Zr  Zr23  1  0.69291885  0.31955918  0.69671977  1
  Zr  Zr24  1  0.29425540  0.29477008  0.89746518  1
  Zr  Zr25  1  0.90414508  0.89472242  0.50804046  1
  Zr  Zr26  1  0.50288209  0.10355895  0.30482026  1
  Zr  Zr27  1  0.49583926  0.50919662  0.50449572  1
  Zr  Zr28  1  0.10191584  0.09747943  0.50331664  1
  Zr  Zr29  1  0.09119784  0.30218167  0.09756602  1
  Zr  Zr30  1  0.09438401  0.29785703  0.30091388  1
  Zr  Zr31  1  0.70180652  0.49658895  0.50379061  1
  Zr  Zr32  1  0.28872421  0.89665361  0.49627185  1
  Zr  Zr33  1  0.09560068  0.90270561  0.88805045  1
  Zr  Zr34  1  0.70300413  0.68920051  0.90181430  1
  Zr  Zr35  1  0.10023081  0.30253025  0.70562513  1
  Zr  Zr36  1  0.49713594  0.30684842  0.90933720  1
  Zr  Zr37  1  0.09693638  0.29333176  0.89676197  1
  Zr  Zr38  1  0.89092735  0.29728459  0.50123292  1
  Zr  Zr39  1  0.30826810  0.10788589  0.09676394  1
  Zr  Zr40  1  0.70028267  0.09741488  0.50470472  1
  Zr  Zr41  1  0.50416332  0.69303646  0.69812149  1
  Zr  Zr42  1  0.70140426  0.10223250  0.10470343  1
  Zr  Zr43  1  0.49208382  0.28988630  0.49057526  1
  Zr  Zr44  1  0.69793871  0.90110845  0.30466499  1
  Zr  Zr45  1  0.69903470  0.49687882  0.89700295  1
  Zr  Zr46  1  0.89925550  0.10238676  0.10104162  1
  Zr  Zr47  1  0.30141416  0.90160766  0.10114372  1
  Zr  Zr48  1  0.69921442  0.70760708  0.10468514  1
  Zr  Zr49  1  0.89470290  0.50016559  0.30688752  1
  Sc  Sc50  1  0.09421254  0.29136554  0.50050508  1
  Sc  Sc51  1  0.50616361  0.90073358  0.49589292  1
  Sc  Sc52  1  0.49993840  0.90280395  0.31259205  1
  Sc  Sc53  1  0.10268203  0.69426012  0.69907143  1
  Sc  Sc54  1  0.30432774  0.30493649  0.30332702  1
  Sc  Sc55  1  0.70563962  0.30316590  0.29465786  1
  Sc  Sc56  1  0.89859101  0.30083417  0.30223450  1
  Sc  Sc57  1  0.29406834  0.08708077  0.30379273  1
  Sc  Sc58  1  0.90525816  0.88515112  0.30439605  1
  Sc  Sc59  1  0.29811581  0.50375455  0.89635464  1
  Sc  Sc60  1  0.29363505  0.51738114  0.70017399  1
  Sc  Sc61  1  0.89753460  0.11227098  0.51194263  1
  Sc  Sc62  1  0.90790774  0.69810616  0.69814902  1
  Sc  Sc63  1  0.89337649  0.09973137  0.70141308  1
  Sc  Sc64  1  0.90246957  0.70101300  0.49252086  1
  Sc  Sc65  1  0.69869363  0.09825863  0.29509515  1
  Sc  Sc66  1  0.89186388  0.50056863  0.90536128  1
  Sc  Sc67  1  0.10890581  0.89751515  0.30222095  1
  Sc  Sc68  1  0.49840782  0.50235933  0.90063531  1
  Sc  Sc69  1  0.31612556  0.30287510  0.09704801  1
  Sc  Sc70  1  0.70051057  0.90448207  0.69564969  1
  Sc  Sc71  1  0.49597105  0.09906863  0.70048670  1
  Sc  Sc72  1  0.70401607  0.09230478  0.69948871  1
  Sc  Sc73  1  0.90374882  0.90434689  0.89286899  1
  Sc  Sc74  1  0.09788919  0.50203225  0.49925625  1
  Sc  Sc75  1  0.29696675  0.10223201  0.50030875  1
  Sc  Sc76  1  0.90709852  0.50153974  0.69579400  1
  Sc  Sc77  1  0.49665917  0.29894820  0.69441406  1
  Sc  Sc78  1  0.49166075  0.49016585  0.29499652  1
  Sc  Sc79  1  0.69661155  0.89917961  0.50620647  1
  Sc  Sc80  1  0.69528764  0.90356563  0.89634156  1
  Sc  Sc81  1  0.30359291  0.69593123  0.49939615  1
  Sc  Sc82  1  0.10771885  0.70772558  0.50036332  1
  Sc  Sc83  1  0.90917613  0.69365381  0.89918711  1
  Sc  Sc84  1  0.30785454  0.69807958  0.89492381  1
  Sc  Sc85  1  0.90579371  0.89996840  0.70080280  1
  Sc  Sc86  1  0.89861805  0.30272220  0.09960223  1
  Sc  Sc87  1  0.48561002  0.48604009  0.10120489  1
  Sc  Sc88  1  0.90292000  0.90521838  0.09893327  1
  Sc  Sc89  1  0.70173544  0.71050511  0.30600719  1
  Sc  Sc90  1  0.89501986  0.50454861  0.49577573  1
  Sc  Sc91  1  0.70531547  0.30686089  0.90310609  1
  Sc  Sc92  1  0.10369787  0.49965047  0.88700698  1
  Sc  Sc93  1  0.70956334  0.48820246  0.09980443  1
  Sc  Sc94  1  0.70218971  0.70234747  0.50455175  1
  Sc  Sc95  1  0.48839102  0.70947496  0.30434312  1
  Sc  Sc96  1  0.49140481  0.09944970  0.90031279  1
  Sc  Sc97  1  0.49756864  0.88430758  0.09749079  1
  Sc  Sc98  1  0.09907942  0.09567618  0.29819850  1
  Sc  Sc99  1  0.70958139  0.10199000  0.90033872  1
  Nb  Nb100  1  0.50328478  0.10562449  0.10576659  1
  Nb  Nb101  1  0.29703706  0.70239130  0.30261443  1
  Nb  Nb102  1  0.90422746  0.69245302  0.09626067  1
  Nb  Nb103  1  0.90610780  0.29462003  0.89610668  1
  Nb  Nb104  1  0.69912559  0.50068281  0.30172662  1
  Nb  Nb105  1  0.29842796  0.09913741  0.89574915  1
  Nb  Nb106  1  0.69927128  0.30150148  0.50389518  1
  Nb  Nb107  1  0.29731987  0.70426214  0.69427582  1
  Nb  Nb108  1  0.49910912  0.09452888  0.49713379  1
  Nb  Nb109  1  0.50242650  0.69630624  0.10052203  1
  Nb  Nb110  1  0.10313686  0.10334176  0.90050934  1
  Nb  Nb111  1  0.69760163  0.69912932  0.70689876  1
  Nb  Nb112  1  0.09900026  0.89999569  0.50260102  1
  Nb  Nb113  1  0.50197708  0.29862417  0.29576841  1
  Nb  Nb114  1  0.89825286  0.69420083  0.30026871  1
  Nb  Nb115  1  0.29909309  0.09911645  0.69783660  1
  Nb  Nb116  1  0.30064700  0.90396124  0.69915150  1
  Nb  Nb117  1  0.30291430  0.90271259  0.89919592  1
  Nb  Nb118  1  0.10711248  0.09926331  0.69837297  1
  Nb  Nb119  1  0.10936353  0.90292325  0.68730996  1
  Nb  Nb120  1  0.29239068  0.50336618  0.29237476  1
  Nb  Nb121  1  0.29914564  0.50073094  0.49608100  1
  Nb  Nb122  1  0.09492231  0.69793887  0.09447127  1
  Nb  Nb123  1  0.29454203  0.50099370  0.10699727  1
  Nb  Nb124  1  0.49812318  0.69941985  0.49931110  1
  Nb  Nb125  1  0.40572487  0.00251487  0.19720451  1
  Nb  Nb126  1  0.19983804  0.40556764  0.00436734  1
  Nb  Nb127  1  0.39580352  -0.00361645  0.60018178  1
  Nb  Nb128  1  0.20532635  0.80937383  0.79531655  1
  Nb  Nb129  1  0.39157251  0.40452966  0.59847572  1
  Nb  Nb130  1  0.20571650  0.40078696  0.59888705  1
  Nb  Nb131  1  0.59826274  0.60017175  0.01234389  1
  Nb  Nb132  1  0.80343021  0.79628190  -0.00212035  1
  Nb  Nb133  1  0.59980496  0.19980268  0.59736884  1
  Nb  Nb134  1  0.59830887  0.59705038  0.39596257  1
  Nb  Nb135  1  0.20314212  0.00185891  -0.00998353  1
  Nb  Nb136  1  0.20090306  0.80132938  -0.00447717  1
  Nb  Nb137  1  0.79864020  0.60352500  0.20389653  1
  Nb  Nb138  1  0.60009984  0.39969702  0.39938471  1
  Nb  Nb139  1  0.20568485  0.59729360  0.38954010  1
  Nb  Nb140  1  0.60025492  0.59835835  0.20161167  1
  Nb  Nb141  1  0.20047033  0.20133771  0.19641041  1
  Nb  Nb142  1  0.39561396  0.40013837  0.79134686  1
  Nb  Nb143  1  0.19937414  0.60349076  0.00931130  1
  Nb  Nb144  1  0.60115901  0.20598547  0.79655345  1
  Nb  Nb145  1  0.39861642  0.80227271  0.60328215  1
  Nb  Nb146  1  0.80745087  -0.00065424  0.40416782  1
  Nb  Nb147  1  0.59568101  0.00331224  0.00866959  1
  Nb  Nb148  1  -0.00270670  -0.00359930  0.40902403  1
  Nb  Nb149  1  0.79720414  0.79334561  0.80124882  1
  Pd  Pd150  1  0.60191219  0.01264912  0.80946315  1
  Pd  Pd151  1  -0.00417991  0.80004884  0.19622666  1
  Pd  Pd152  1  0.79261577  0.19602738  0.39672544  1
  Pd  Pd153  1  0.59918917  0.19205577  -0.00963569  1
  Pd  Pd154  1  0.40394513  0.00323985  0.00673200  1
  Pd  Pd155  1  0.00439398  0.00130949  -0.00390001  1
  Pd  Pd156  1  0.60639355  0.79977995  0.80212746  1
  Pd  Pd157  1  0.40713251  0.59904445  0.20756090  1
  Pd  Pd158  1  0.59038029  0.79843327  0.21084917  1
  Pd  Pd159  1  0.39641427  0.79810247  0.79331861  1
  Pd  Pd160  1  0.81129516  -0.00353095  0.21376724  1
  Pd  Pd161  1  -0.00458913  0.00709385  0.60159772  1
  Pd  Pd162  1  0.40703990  0.20316734  0.80223711  1
  Pd  Pd163  1  -0.00814742  0.40615225  0.80467427  1
  Pd  Pd164  1  0.19926842  0.19608819  0.39040055  1
  Pd  Pd165  1  0.79987471  0.80336633  0.40626593  1
  Pd  Pd166  1  0.00908832  0.58852727  -0.00754345  1
  Pd  Pd167  1  0.00676444  0.79257068  0.60435161  1
  Pd  Pd168  1  0.60658181  0.80391943  -0.00372329  1
  Pd  Pd169  1  0.39904310  0.59828475  0.38997236  1
  Pd  Pd170  1  0.00453345  0.39866061  0.59225263  1
  Pd  Pd171  1  0.80176417  0.60615234  0.60039387  1
  Pd  Pd172  1  0.20164528  0.20322450  0.00651411  1
  Pd  Pd173  1  0.58935262  -0.00644252  0.19709660  1
  Pd  Pd174  1  0.20584544  0.38592031  0.19414880  1
  Pd  Pd175  1  0.39884565  0.59371034  0.00305922  1
  Pd  Pd176  1  0.61023863  0.20505342  0.39944113  1
  Pd  Pd177  1  0.19779837  0.79303596  0.19377629  1
  Pd  Pd178  1  0.59899938  0.40740523  0.00804259  1
  Pd  Pd179  1  0.38945136  0.19145545  0.39267936  1
  Pd  Pd180  1  0.80897868  0.40187303  0.79639634  1
  Pd  Pd181  1  -0.00422206  0.39722565  0.40675504  1
  Pd  Pd182  1  0.80596322  0.20520213  0.00030422  1
  Pd  Pd183  1  -0.00506916  -0.00702791  0.21332128  1
  Pd  Pd184  1  0.40195097  0.40308552  0.40050437  1
  Pd  Pd185  1  0.78922105  0.20708845  0.79394251  1
  Pd  Pd186  1  0.40464188  0.59593467  0.79410728  1
  Pd  Pd187  1  0.19513777  0.40464831  0.40450280  1
  Pd  Pd188  1  0.00512230  0.40676119  -0.01021357  1
  Pd  Pd189  1  0.79972458  0.79590323  0.61045040  1
  Pd  Pd190  1  0.81001582  0.60253798  0.79366810  1
  Pd  Pd191  1  0.59584627  0.79747922  0.59860178  1
  Pd  Pd192  1  -0.00447634  0.80527765  -0.00022518  1
  Pd  Pd193  1  0.20307483  0.00104081  0.80054176  1
  Pd  Pd194  1  0.80868923  0.40483092  0.60469736  1
  Pd  Pd195  1  0.79610064  -0.00623025  -0.00587066  1
  Pd  Pd196  1  0.00914087  0.60416648  0.40349203  1
  Pd  Pd197  1  0.81292000  0.79718778  0.19388517  1
  Pd  Pd198  1  0.00336224  0.60538248  0.59109693  1
  Pd  Pd199  1  0.00248013  0.00714545  0.78735751  1
  Rh  Rh200  1  0.39738699  0.80154683  0.41095122  1
  Rh  Rh201  1  0.39453227  0.39523532  0.20494753  1
  Rh  Rh202  1  -0.00173569  0.59417919  0.80038005  1
  Rh  Rh203  1  0.80475837  0.40407159  0.20250544  1
  Rh  Rh204  1  0.19683095  0.79206245  0.39692704  1
  Rh  Rh205  1  0.80735597  0.39120800  -0.00460519  1
  Rh  Rh206  1  0.20301403  0.79848650  0.60334033  1
  Rh  Rh207  1  0.80604883  -0.00374548  0.59546952  1
  Rh  Rh208  1  0.58366007  0.38911663  0.58289482  1
  Rh  Rh209  1  0.00449754  0.19613011  0.60821051  1
  Rh  Rh210  1  0.80183468  0.20336118  0.19906796  1
  Rh  Rh211  1  0.40502413  0.19854632  -0.00633648  1
  Rh  Rh212  1  0.58975781  0.00679579  0.59906191  1
  Rh  Rh213  1  0.19469060  0.19021509  0.79715440  1
  Rh  Rh214  1  -0.01049746  0.60067028  0.20272228  1
  Rh  Rh215  1  0.60622158  0.60995856  0.59208387  1
  Rh  Rh216  1  0.39859629  -0.00110409  0.40243257  1
  Rh  Rh217  1  0.59895237  0.39923655  0.20345273  1
  Rh  Rh218  1  0.20121431  0.61489356  0.80629990  1
  Rh  Rh219  1  0.39518556  0.60291741  0.60436956  1
  Rh  Rh220  1  0.00059217  0.19368333  0.40373256  1
  Rh  Rh221  1  0.39374753  0.79436386  -0.00122530  1
  Rh  Rh222  1  0.20050599  0.61083764  0.20044366  1
  Rh  Rh223  1  0.00543315  0.19075579  0.79489990  1
  Rh  Rh224  1  0.00237260  0.20475756  0.19857648  1
  Rh  Rh225  1  0.20998561  0.39993824  0.79593923  1
  Rh  Rh226  1  0.59040449  0.39647298  0.80761861  1
  Rh  Rh227  1  0.00389492  0.80231659  0.78953952  1
  Rh  Rh228  1  -0.00940674  0.39705213  0.20622437  1
  Rh  Rh229  1  0.20075464  0.59685995  0.58817118  1
  Rh  Rh230  1  0.19296735  0.20235568  0.60202560  1
  Rh  Rh231  1  0.78714238  0.20704652  0.61076608  1
  Rh  Rh232  1  0.39453933  0.00463284  0.79273132  1
  Rh  Rh233  1  0.00689035  0.80195828  0.40132235  1
  Rh  Rh234  1  0.79321853  0.39591204  0.40230772  1
  Rh  Rh235  1  0.61094743  -0.00013397  0.40410218  1
  Rh  Rh236  1  -0.00748251  0.19684499  -0.00213200  1
  Rh  Rh237  1  0.19094349  -0.00236907  0.40584876  1
  Rh  Rh238  1  0.79121773  0.60646666  0.39558973  1
  Rh  Rh239  1  0.80102850  -0.01086943  0.79872769  1
  Rh  Rh240  1  0.79211216  0.60396062  0.01365082  1
  Rh  Rh241  1  0.20638259  0.00385754  0.59672710  1
  Rh  Rh242  1  0.59809488  0.79275608  0.40401590  1
  Rh  Rh243  1  0.39444680  0.19268453  0.21208412  1
  Rh  Rh244  1  0.40491333  0.80569995  0.20412251  1
  Rh  Rh245  1  0.38621518  0.40613055  -0.01130198  1
  Rh  Rh246  1  0.60582292  0.20332057  0.20895651  1
  Rh  Rh247  1  0.59464309  0.59959762  0.81008544  1
  Rh  Rh248  1  0.40690482  0.18917447  0.59537969  1
  Rh  Rh249  1  0.20957577  0.01058673  0.18678009  1
