# generated using pymatgen
data_ZrScNbPdRh
_symmetry_space_group_name_H-M   'P 1'
_cell_length_a   16.55840956
_cell_length_b   16.55865611
_cell_length_c   16.55865957
_cell_angle_alpha   90.04112104
_cell_angle_beta   90.00053333
_cell_angle_gamma   89.96276334
_symmetry_Int_Tables_number   1
_chemical_formula_structural   ZrScNbPdRh
_chemical_formula_sum   'Zr50 Sc50 Nb50 Pd50 Rh50'
_cell_volume   4540.13410359
_cell_formula_units_Z   50
loop_
 _symmetry_equiv_pos_site_id
 _symmetry_equiv_pos_as_xyz
  1  'x, y, z'
loop_
 _atom_site_type_symbol
 _atom_site_label
 _atom_site_symmetry_multiplicity
 _atom_site_fract_x
 _atom_site_fract_y
 _atom_site_fract_z
 _atom_site_occupancy
  Zr  Zr0  1  0.49663439  0.90381392  0.71026944  1
  Zr  Zr1  1  0.09320539  0.90003431  0.29582456  1
  Zr  Zr2  1  0.69370826  0.51256786  0.09443673  1
  Zr  Zr3  1  0.30659449  0.69778774  0.29624404  1
  Zr  Zr4  1  0.90335342  0.50684515  0.11167986  1
  Zr  Zr5  1  0.10124729  0.10155613  0.10213646  1
  Zr  Zr6  1  0.49583393  0.49737565  0.09757752  1
  Zr  Zr7  1  0.90313362  0.30839973  0.30440712  1
  Zr  Zr8  1  0.10026298  0.30699523  0.70016164  1
  Zr  Zr9  1  0.49442151  0.90996060  0.10420422  1
  Zr  Zr10  1  0.49213469  0.09578875  0.89571775  1
  Zr  Zr11  1  0.30199298  0.89432093  0.29922133  1
  Zr  Zr12  1  0.29517821  0.69972881  0.89391086  1
  Zr  Zr13  1  0.29449222  0.90572959  0.49707039  1
  Zr  Zr14  1  0.89750566  0.48708229  0.69985312  1
  Zr  Zr15  1  0.70606031  0.29831926  0.29303062  1
  Zr  Zr16  1  0.30253506  0.29291265  0.50058211  1
  Zr  Zr17  1  0.48423152  0.10924006  0.49963728  1
  Zr  Zr18  1  0.50036477  0.90115420  0.90310569  1
  Zr  Zr19  1  0.50494719  0.50234568  0.50416111  1
  Zr  Zr20  1  0.70698772  0.89601690  0.89639754  1
  Zr  Zr21  1  0.70758335  0.09721424  0.70008857  1
  Zr  Zr22  1  0.70589518  0.89972410  0.70084535  1
  Zr  Zr23  1  0.29843801  0.30659783  0.10071471  1
  Zr  Zr24  1  0.48987937  0.69763708  0.70382594  1
  Zr  Zr25  1  0.68972234  0.70585959  0.29486048  1
  Zr  Zr26  1  0.90058464  0.29821832  0.50840983  1
  Zr  Zr27  1  0.70473350  0.68485524  0.90930060  1
  Zr  Zr28  1  0.49922394  0.90238762  0.49490123  1
  Zr  Zr29  1  0.10123897  0.69474077  0.89828072  1
  Zr  Zr30  1  0.29847445  0.10543860  0.89911839  1
  Zr  Zr31  1  0.90711657  0.88627376  0.10462542  1
  Zr  Zr32  1  0.10102155  0.30271359  0.90344970  1
  Zr  Zr33  1  0.29675730  0.29931359  0.30406688  1
  Zr  Zr34  1  0.10777160  0.89992689  0.49507414  1
  Zr  Zr35  1  0.49324943  0.70167230  0.89592287  1
  Zr  Zr36  1  0.70426687  0.29772487  0.10256359  1
  Zr  Zr37  1  0.91321460  0.10522781  0.50254403  1
  Zr  Zr38  1  0.90217780  0.10284597  0.69200406  1
  Zr  Zr39  1  0.90886429  0.49957077  0.49498637  1
  Zr  Zr40  1  0.90347363  0.89992901  0.71848379  1
  Zr  Zr41  1  0.71085808  0.30938450  0.70013208  1
  Zr  Zr42  1  0.49855588  0.30203326  0.50088440  1
  Zr  Zr43  1  0.70925483  0.69887511  0.09966707  1
  Zr  Zr44  1  0.90132066  0.30168583  0.10729029  1
  Zr  Zr45  1  0.29886289  0.09415850  0.09375440  1
  Zr  Zr46  1  0.69885156  0.89788124  0.50212040  1
  Zr  Zr47  1  0.09795270  0.30008964  0.10232685  1
  Zr  Zr48  1  0.90649495  0.70291203  0.28494245  1
  Zr  Zr49  1  0.10051313  0.91208487  0.09946073  1
  Sc  Sc50  1  0.30768642  0.09939153  0.70108753  1
  Sc  Sc51  1  0.90787396  0.10324976  0.31196630  1
  Sc  Sc52  1  0.50205121  0.08545986  0.29509097  1
  Sc  Sc53  1  0.30404624  0.89385739  0.90157583  1
  Sc  Sc54  1  0.70562260  0.31298478  0.49435098  1
  Sc  Sc55  1  0.30147874  0.90158646  0.09549334  1
  Sc  Sc56  1  0.69883824  0.50001088  0.70401092  1
  Sc  Sc57  1  0.10086260  0.69709616  0.30758653  1
  Sc  Sc58  1  0.51077663  0.69467141  0.11103264  1
  Sc  Sc59  1  0.29016542  0.49254095  0.49838073  1
  Sc  Sc60  1  0.09009278  0.50045315  0.70240415  1
  Sc  Sc61  1  0.49487927  0.50430640  0.29030019  1
  Sc  Sc62  1  0.29615876  0.09365356  0.49818172  1
  Sc  Sc63  1  0.50764531  0.30656854  0.29038089  1
  Sc  Sc64  1  0.69593150  0.89712828  0.10428180  1
  Sc  Sc65  1  0.29984016  0.09915397  0.30690452  1
  Sc  Sc66  1  0.29210668  0.70966952  0.49105763  1
  Sc  Sc67  1  0.90337735  0.90361607  0.49769699  1
  Sc  Sc68  1  0.29557713  0.49838289  0.10525483  1
  Sc  Sc69  1  0.71735599  0.09589175  0.49885788  1
  Sc  Sc70  1  0.70598621  0.09577199  0.90475605  1
  Sc  Sc71  1  0.90790772  0.10402437  0.10005272  1
  Sc  Sc72  1  0.49749162  0.50440028  0.89367259  1
  Sc  Sc73  1  0.49745580  0.30700086  0.10181086  1
  Sc  Sc74  1  0.10173637  0.50030267  0.10373439  1
  Sc  Sc75  1  0.49989826  0.70293241  0.50278507  1
  Sc  Sc76  1  0.29372031  0.49449801  0.70039041  1
  Sc  Sc77  1  0.10367930  0.30935711  0.49246728  1
  Sc  Sc78  1  0.30178295  0.30010352  0.70193659  1
  Sc  Sc79  1  0.29625118  0.89490577  0.69556271  1
  Sc  Sc80  1  0.09672226  0.09988272  0.30178999  1
  Sc  Sc81  1  0.29991001  0.49699570  0.90144478  1
  Sc  Sc82  1  0.89890218  0.51034591  0.89345217  1
  Sc  Sc83  1  0.48682879  0.30363497  0.89490880  1
  Sc  Sc84  1  0.09460295  0.09215411  0.69467913  1
  Sc  Sc85  1  0.08919663  0.90127288  0.89652765  1
  Sc  Sc86  1  0.69265563  0.70116125  0.69694563  1
  Sc  Sc87  1  0.29468046  0.29890828  0.89973973  1
  Sc  Sc88  1  0.68455116  0.90550015  0.30772055  1
  Sc  Sc89  1  0.10170512  0.89587644  0.70365230  1
  Sc  Sc90  1  0.69320524  0.70697600  0.50647134  1
  Sc  Sc91  1  0.29492402  0.50027362  0.29657682  1
  Sc  Sc92  1  0.90336562  0.69569765  0.70677905  1
  Sc  Sc93  1  0.90164704  0.30418491  0.90709524  1
  Sc  Sc94  1  0.10085107  0.09842406  0.90963548  1
  Sc  Sc95  1  0.70453370  0.10608820  0.10344444  1
  Sc  Sc96  1  0.70294914  0.48876891  0.29753308  1
  Sc  Sc97  1  0.10065901  0.29867245  0.29755046  1
  Sc  Sc98  1  0.90499184  0.09277800  0.90019416  1
  Sc  Sc99  1  0.50113986  0.49815460  0.70005307  1
  Nb  Nb100  1  0.70210244  0.49492932  0.90052447  1
  Nb  Nb101  1  0.09647499  0.49646437  0.89939066  1
  Nb  Nb102  1  0.90333790  0.69785449  0.09441090  1
  Nb  Nb103  1  0.70215989  0.10173383  0.30212450  1
  Nb  Nb104  1  0.89941314  0.71135926  0.91375467  1
  Nb  Nb105  1  0.28397164  0.69436109  0.08938521  1
  Nb  Nb106  1  0.49453839  0.09916554  0.09463720  1
  Nb  Nb107  1  0.09001380  0.69265388  0.50198259  1
  Nb  Nb108  1  0.90043273  0.89393251  0.90361313  1
  Nb  Nb109  1  0.70379831  0.29878252  0.90174735  1
  Nb  Nb110  1  0.09847955  0.09524946  0.50313268  1
  Nb  Nb111  1  0.29167226  0.69917422  0.70384760  1
  Nb  Nb112  1  0.70240445  0.50872527  0.49861481  1
  Nb  Nb113  1  0.50121422  0.10481833  0.70198962  1
  Nb  Nb114  1  0.90645488  0.89936385  0.29484426  1
  Nb  Nb115  1  0.90493912  0.49847300  0.29968207  1
  Nb  Nb116  1  0.10063097  0.69327541  0.09712621  1
  Nb  Nb117  1  0.10422153  0.70219350  0.70223609  1
  Nb  Nb118  1  0.50247508  0.29342685  0.69394722  1
  Nb  Nb119  1  0.90430452  0.69417545  0.49629531  1
  Nb  Nb120  1  0.90270346  0.29888392  0.69847772  1
  Nb  Nb121  1  0.50133927  0.70508935  0.30193600  1
  Nb  Nb122  1  0.09796855  0.50962152  0.49683200  1
  Nb  Nb123  1  0.49902750  0.88559358  0.29317903  1
  Nb  Nb124  1  0.09278650  0.49499106  0.30944512  1
  Nb  Nb125  1  0.80795246  -0.01022895  0.00641729  1
  Nb  Nb126  1  0.60536509  0.39746272  -0.00758958  1
  Nb  Nb127  1  0.60471102  0.19625371  0.39856384  1
  Nb  Nb128  1  0.80467482  0.59949928  0.59241355  1
  Nb  Nb129  1  0.00347097  0.79031067  0.59866668  1
  Nb  Nb130  1  0.40134836  0.39818261  0.40138287  1
  Nb  Nb131  1  0.19272948  0.60582550  0.59987678  1
  Nb  Nb132  1  0.19822907  0.79273973  0.19190426  1
  Nb  Nb133  1  0.80417391  -0.00129772  0.20647526  1
  Nb  Nb134  1  0.80346590  0.20411368  0.79936132  1
  Nb  Nb135  1  0.80492688  0.79642542  0.39680471  1
  Nb  Nb136  1  0.19614210  0.19849124  0.59788900  1
  Nb  Nb137  1  -0.00320472  0.20407510  0.79493875  1
  Nb  Nb138  1  0.60190764  0.19849277  0.60023252  1
  Nb  Nb139  1  0.59456899  0.00743969  0.60249145  1
  Nb  Nb140  1  0.60258414  0.20356787  0.79877745  1
  Nb  Nb141  1  0.38664944  0.60481442  0.60205583  1
  Nb  Nb142  1  0.79526163  0.40610443  0.00113790  1
  Nb  Nb143  1  0.40082866  0.19444146  0.19425132  1
  Nb  Nb144  1  0.80024253  0.60462004  0.39949974  1
  Nb  Nb145  1  0.60192551  0.60065760  0.39822522  1
  Nb  Nb146  1  0.59990275  0.79799465  -0.00173591  1
  Nb  Nb147  1  0.20090616  0.00083223  0.80125019  1
  Nb  Nb148  1  0.59651134  0.20249927  -0.00437323  1
  Nb  Nb149  1  0.39374495  0.60634460  0.00253151  1
  Pd  Pd150  1  0.18953867  0.19074995  0.79038122  1
  Pd  Pd151  1  0.19937140  0.40614654  0.00186376  1
  Pd  Pd152  1  0.81333322  0.18890675  0.20731527  1
  Pd  Pd153  1  0.60674635  0.00462999  0.19520165  1
  Pd  Pd154  1  0.40814686  0.79130059  0.01245358  1
  Pd  Pd155  1  0.60760075  0.39943722  0.60158222  1
  Pd  Pd156  1  0.19844851  0.58888127  0.79719127  1
  Pd  Pd157  1  0.19096359  0.80844541  -0.00182386  1
  Pd  Pd158  1  0.00795134  0.40117882  0.59354776  1
  Pd  Pd159  1  0.19213870  0.59969583  0.20654066  1
  Pd  Pd160  1  0.20654713  0.19732529  0.19940183  1
  Pd  Pd161  1  0.00016965  0.59380921  -0.00156590  1
  Pd  Pd162  1  0.20540542  -0.00322005  0.20671023  1
  Pd  Pd163  1  0.20267423  0.59962182  0.40236774  1
  Pd  Pd164  1  0.40378926  0.59420980  0.40760874  1
  Pd  Pd165  1  0.79878540  0.20471111  0.40245125  1
  Pd  Pd166  1  0.79127289  0.81090411  0.20883057  1
  Pd  Pd167  1  0.19091823  0.19398354  0.40685426  1
  Pd  Pd168  1  0.79654990  0.59605226  0.20996758  1
  Pd  Pd169  1  0.79903209  0.60324859  0.79248231  1
  Pd  Pd170  1  0.39538016  0.40788387  0.59860650  1
  Pd  Pd171  1  0.80656124  -0.00900944  0.39274899  1
  Pd  Pd172  1  -0.00189994  0.19952758  -0.00547143  1
  Pd  Pd173  1  0.40229480  0.79973206  0.40370918  1
  Pd  Pd174  1  0.39922938  0.39989237  0.79476724  1
  Pd  Pd175  1  -0.00873002  0.41142498  -0.00011941  1
  Pd  Pd176  1  0.40083699  -0.00098306  0.60433134  1
  Pd  Pd177  1  0.58991534  0.80846856  0.60626967  1
  Pd  Pd178  1  0.40303593  0.20760490  0.00417052  1
  Pd  Pd179  1  0.19972328  0.40496940  0.80179127  1
  Pd  Pd180  1  0.39692921  0.79696970  0.59960311  1
  Pd  Pd181  1  0.59124420  0.19232387  0.19893762  1
  Pd  Pd182  1  0.00109567  -0.01647084  0.60227550  1
  Pd  Pd183  1  0.81283774  0.79332371  0.59679512  1
  Pd  Pd184  1  0.19435805  0.79530178  0.59726693  1
  Pd  Pd185  1  0.59714986  0.01025483  0.41004981  1
  Pd  Pd186  1  -0.00353042  0.80137254  0.40458341  1
  Pd  Pd187  1  0.39303056  0.79121515  0.18634334  1
  Pd  Pd188  1  -0.00245210  0.60367619  0.80096117  1
  Pd  Pd189  1  0.80732000  -0.00735429  0.59896849  1
  Pd  Pd190  1  0.60465723  0.00584111  0.79869003  1
  Pd  Pd191  1  0.01252147  0.79889656  0.00231159  1
  Pd  Pd192  1  0.40208598  -0.00422970  0.39124260  1
  Pd  Pd193  1  0.79928860  0.78490308  0.80079904  1
  Pd  Pd194  1  0.59471499  0.39424328  0.80383739  1
  Pd  Pd195  1  0.60509852  0.79412005  0.80555219  1
  Pd  Pd196  1  0.60135396  0.59910923  0.79861812  1
  Pd  Pd197  1  0.60932433  0.00168498  0.00554851  1
  Pd  Pd198  1  0.39666689  0.60566938  0.19045439  1
  Pd  Pd199  1  0.59584433  0.40322926  0.39453554  1
  Rh  Rh200  1  -0.00850008  0.00919926  0.20269064  1
  Rh  Rh201  1  -0.00324006  0.39494405  0.80856388  1
  Rh  Rh202  1  0.01489384  0.79115575  0.19106143  1
  Rh  Rh203  1  0.19738861  0.79937981  0.38992924  1
  Rh  Rh204  1  0.59779893  0.80445932  0.19237031  1
  Rh  Rh205  1  0.19533057  0.00196639  0.39412229  1
  Rh  Rh206  1  0.20229268  0.00661032  0.60754407  1
  Rh  Rh207  1  0.80700766  0.00478906  0.80946586  1
  Rh  Rh208  1  0.79871275  0.41019363  0.59235487  1
  Rh  Rh209  1  0.19740424  0.80809606  0.80526603  1
  Rh  Rh210  1  0.19958799  0.58999956  -0.00763988  1
  Rh  Rh211  1  0.01413780  0.20761367  0.59973690  1
  Rh  Rh212  1  -0.00759857  -0.00392500  0.00350390  1
  Rh  Rh213  1  0.59905770  0.79413116  0.40283574  1
  Rh  Rh214  1  0.00907194  0.60164124  0.20278897  1
  Rh  Rh215  1  0.80912620  0.39569133  0.80963620  1
  Rh  Rh216  1  0.38909557  -0.00418969  0.80185116  1
  Rh  Rh217  1  0.00196226  0.39701697  0.40210734  1
  Rh  Rh218  1  0.39197724  0.39266341  0.20830722  1
  Rh  Rh219  1  0.59996890  0.59950988  0.59822210  1
  Rh  Rh220  1  0.00650399  0.20553724  0.40504167  1
  Rh  Rh221  1  0.80661941  0.40580585  0.40180450  1
  Rh  Rh222  1  0.79841137  0.19758787  -0.00569913  1
  Rh  Rh223  1  -0.00453962  0.60061353  0.38733347  1
  Rh  Rh224  1  0.19914964  0.20435608  0.00611000  1
  Rh  Rh225  1  0.39610144  0.00336290  0.20395086  1
  Rh  Rh226  1  0.39307343  0.19971827  0.60678264  1
  Rh  Rh227  1  0.40264672  0.40947808  -0.00419090  1
  Rh  Rh228  1  0.60187151  0.59383997  0.21161176  1
  Rh  Rh229  1  0.79910758  0.40699138  0.19194091  1
  Rh  Rh230  1  0.60550784  0.40696257  0.18951398  1
  Rh  Rh231  1  0.20270450  -0.00395515  -0.01182800  1
  Rh  Rh232  1  0.79440543  0.80372118  0.00298281  1
  Rh  Rh233  1  -0.00014429  0.20123528  0.20507067  1
  Rh  Rh234  1  0.81376910  0.59357548  0.00039009  1
  Rh  Rh235  1  0.19299317  0.40179858  0.59879958  1
  Rh  Rh236  1  0.39462480  -0.00134745  -0.00623069  1
  Rh  Rh237  1  0.00467340  0.00729834  0.80273628  1
  Rh  Rh238  1  0.00645213  0.40156320  0.20385552  1
  Rh  Rh239  1  0.40356370  0.20620782  0.79620954  1
  Rh  Rh240  1  0.39169453  0.59605901  0.79679656  1
  Rh  Rh241  1  0.39185885  0.80371171  0.79422723  1
  Rh  Rh242  1  0.00092360  0.79151648  0.80030932  1
  Rh  Rh243  1  0.58642115  0.59946035  -0.00879317  1
  Rh  Rh244  1  0.00329591  -0.00109465  0.40109998  1
  Rh  Rh245  1  0.41652026  0.20937403  0.37870528  1
  Rh  Rh246  1  0.20161836  0.40460830  0.39667530  1
  Rh  Rh247  1  0.19265874  0.40254923  0.20391684  1
  Rh  Rh248  1  0.79327102  0.20493756  0.60052278  1
  Rh  Rh249  1  0.00013606  0.60234459  0.60995738  1
