# generated using pymatgen
data_ZrScNbPdRh
_symmetry_space_group_name_H-M   'P 1'
_cell_length_a   16.56204236
_cell_length_b   16.56305746
_cell_length_c   16.56687252
_cell_angle_alpha   90.01653718
_cell_angle_beta   89.98587021
_cell_angle_gamma   89.99589029
_symmetry_Int_Tables_number   1
_chemical_formula_structural   ZrScNbPdRh
_chemical_formula_sum   'Zr50 Sc50 Nb50 Pd50 Rh50'
_cell_volume   4544.59197888
_cell_formula_units_Z   50
loop_
 _symmetry_equiv_pos_site_id
 _symmetry_equiv_pos_as_xyz
  1  'x, y, z'
loop_
 _atom_site_type_symbol
 _atom_site_label
 _atom_site_symmetry_multiplicity
 _atom_site_fract_x
 _atom_site_fract_y
 _atom_site_fract_z
 _atom_site_occupancy
  Zr  Zr0  1  0.10909698  0.50667031  0.10364621  1
  Zr  Zr1  1  0.10164990  0.09013108  0.69991797  1
  Zr  Zr2  1  0.70176569  0.49450950  0.70537095  1
  Zr  Zr3  1  0.89459198  0.29549207  0.91107123  1
  Zr  Zr4  1  0.29762365  0.70430041  0.70064607  1
  Zr  Zr5  1  0.70026049  0.29390918  0.09062231  1
  Zr  Zr6  1  0.49045932  0.10635186  0.89842136  1
  Zr  Zr7  1  0.30342047  0.89468202  0.90025197  1
  Zr  Zr8  1  0.30759740  0.10342306  0.49690938  1
  Zr  Zr9  1  0.29659329  0.09904652  0.29317133  1
  Zr  Zr10  1  0.69679830  0.30328173  0.90022261  1
  Zr  Zr11  1  0.10061235  0.10115757  0.90493451  1
  Zr  Zr12  1  0.09424632  0.70309725  0.69684488  1
  Zr  Zr13  1  0.50001218  0.89720534  0.89812095  1
  Zr  Zr14  1  0.90069145  0.09304535  0.90580347  1
  Zr  Zr15  1  0.89850019  0.30329690  0.49518819  1
  Zr  Zr16  1  0.89417548  0.50138844  0.49651781  1
  Zr  Zr17  1  0.70173901  0.49481041  0.91046170  1
  Zr  Zr18  1  0.30061003  0.50209449  0.90533009  1
  Zr  Zr19  1  0.70643403  0.30700897  0.49918978  1
  Zr  Zr20  1  0.89038434  0.10051873  0.69939838  1
  Zr  Zr21  1  0.30294015  0.29498753  0.30402627  1
  Zr  Zr22  1  0.69349384  0.90367820  0.69687594  1
  Zr  Zr23  1  0.70338952  0.70422841  0.89696304  1
  Zr  Zr24  1  0.30031309  0.70979803  0.30624631  1
  Zr  Zr25  1  0.70592223  0.10075819  0.10431765  1
  Zr  Zr26  1  0.50066217  0.69702856  0.29752391  1
  Zr  Zr27  1  0.50631515  0.70196882  0.49188354  1
  Zr  Zr28  1  0.29567472  0.50438812  0.09655647  1
  Zr  Zr29  1  0.29980810  0.90603635  0.69889910  1
  Zr  Zr30  1  0.70615304  0.29557769  0.70251838  1
  Zr  Zr31  1  0.09057898  0.29568898  0.09954081  1
  Zr  Zr32  1  0.49334117  0.89071943  0.30017925  1
  Zr  Zr33  1  0.69831577  0.08193301  0.50861375  1
  Zr  Zr34  1  0.89485034  0.30323893  0.70168852  1
  Zr  Zr35  1  0.90110857  0.50814011  0.69549114  1
  Zr  Zr36  1  0.09132054  0.69756112  0.29336492  1
  Zr  Zr37  1  0.70047666  0.09738848  0.29450328  1
  Zr  Zr38  1  0.70514173  0.70078540  0.30074720  1
  Zr  Zr39  1  0.90100040  0.90981548  0.10620027  1
  Zr  Zr40  1  0.49331024  0.50464382  0.10055343  1
  Zr  Zr41  1  0.89500594  0.90098318  0.49882626  1
  Zr  Zr42  1  0.31141326  0.09872486  0.70219271  1
  Zr  Zr43  1  0.09480786  0.09462416  0.49446051  1
  Zr  Zr44  1  0.30763395  0.30513433  0.68999609  1
  Zr  Zr45  1  0.70274821  0.49739215  0.30501336  1
  Zr  Zr46  1  0.29811185  0.29655841  0.10737558  1
  Zr  Zr47  1  0.90431149  0.70213438  0.70855434  1
  Zr  Zr48  1  0.09481576  0.09769494  0.29982812  1
  Zr  Zr49  1  0.09984327  0.70121350  0.89786678  1
  Sc  Sc50  1  0.30501043  0.30097335  0.49846711  1
  Sc  Sc51  1  0.30865806  0.49516112  0.50752932  1
  Sc  Sc52  1  0.50169237  0.70070518  0.70083092  1
  Sc  Sc53  1  0.50587196  0.11368005  0.10500803  1
  Sc  Sc54  1  0.49598804  0.49738600  0.70072983  1
  Sc  Sc55  1  0.50273181  0.50644479  0.49795425  1
  Sc  Sc56  1  0.10253436  0.89930236  0.69473561  1
  Sc  Sc57  1  0.09715655  0.29971546  0.29685602  1
  Sc  Sc58  1  0.09482719  0.90086748  0.50122220  1
  Sc  Sc59  1  0.31184278  0.29255130  0.90463859  1
  Sc  Sc60  1  0.49930098  0.29710764  0.29733654  1
  Sc  Sc61  1  0.10343793  0.90610079  0.89727010  1
  Sc  Sc62  1  0.09767470  0.70957264  0.49727980  1
  Sc  Sc63  1  0.69942407  0.30191471  0.30142523  1
  Sc  Sc64  1  0.09449633  0.50468243  0.70646535  1
  Sc  Sc65  1  0.69812564  0.50332986  0.49837460  1
  Sc  Sc66  1  0.90055657  0.50890594  0.90283676  1
  Sc  Sc67  1  0.90918251  0.50336369  0.29927834  1
  Sc  Sc68  1  0.49585949  0.89245103  0.11219781  1
  Sc  Sc69  1  0.69925360  0.90322061  0.89099468  1
  Sc  Sc70  1  0.09711388  0.90068478  0.30131456  1
  Sc  Sc71  1  0.49633875  0.90888609  0.70603062  1
  Sc  Sc72  1  0.50125022  0.10180295  0.29721761  1
  Sc  Sc73  1  0.70326976  0.89772861  0.29817098  1
  Sc  Sc74  1  0.70349796  0.09878465  0.89600017  1
  Sc  Sc75  1  0.90691533  0.89538935  0.70134632  1
  Sc  Sc76  1  0.50443820  0.29756056  0.09845433  1
  Sc  Sc77  1  0.29776109  0.70291943  0.90100198  1
  Sc  Sc78  1  0.90187168  0.89626290  0.29631529  1
  Sc  Sc79  1  0.09582130  0.50182875  0.90684728  1
  Sc  Sc80  1  0.50471394  0.29852669  0.90515941  1
  Sc  Sc81  1  0.71167422  0.69407610  0.11004319  1
  Sc  Sc82  1  0.29914040  0.10126481  0.90099519  1
  Sc  Sc83  1  0.89567316  0.50836331  0.09570100  1
  Sc  Sc84  1  0.48904285  0.70710960  0.89749627  1
  Sc  Sc85  1  0.29846213  0.49560135  0.28601487  1
  Sc  Sc86  1  0.49036385  0.29366622  0.50046622  1
  Sc  Sc87  1  0.90157548  0.69917571  0.11114413  1
  Sc  Sc88  1  0.90711054  0.29341569  0.29399584  1
  Sc  Sc89  1  0.28868103  0.89401787  0.49341651  1
  Sc  Sc90  1  0.90422373  0.70458025  0.51005201  1
  Sc  Sc91  1  0.70190179  0.49880230  0.09937537  1
  Sc  Sc92  1  0.08910293  0.30345618  0.90851867  1
  Sc  Sc93  1  0.09807905  0.50108029  0.29042519  1
  Sc  Sc94  1  0.49820257  0.49009659  0.90094911  1
  Sc  Sc95  1  0.08761891  0.50651254  0.49889480  1
  Sc  Sc96  1  0.30109952  0.70522155  0.49616471  1
  Sc  Sc97  1  0.70306091  0.70618568  0.69515925  1
  Sc  Sc98  1  0.30627933  0.50021745  0.70047963  1
  Sc  Sc99  1  0.50452511  0.50312269  0.30044681  1
  Nb  Nb100  1  0.89758115  0.69976011  0.29799136  1
  Nb  Nb101  1  0.90280174  0.09474814  0.49533442  1
  Nb  Nb102  1  0.70050923  0.90022747  0.09981223  1
  Nb  Nb103  1  0.90432424  0.89535477  0.90527922  1
  Nb  Nb104  1  0.49949269  0.09340622  0.50259913  1
  Nb  Nb105  1  0.30237262  0.90014360  0.29420729  1
  Nb  Nb106  1  0.49919512  0.10196303  0.68871813  1
  Nb  Nb107  1  0.49846821  0.69489179  0.09727494  1
  Nb  Nb108  1  0.70186592  0.71095091  0.49824681  1
  Nb  Nb109  1  0.29478405  0.90392076  0.10502088  1
  Nb  Nb110  1  0.89410793  0.28682872  0.10038228  1
  Nb  Nb111  1  0.10060822  0.30135344  0.50357088  1
  Nb  Nb112  1  0.09965523  0.30070137  0.69881588  1
  Nb  Nb113  1  0.69575694  0.10013089  0.69982051  1
  Nb  Nb114  1  0.50452131  0.90459910  0.49937100  1
  Nb  Nb115  1  0.89923760  0.09628161  0.29502122  1
  Nb  Nb116  1  0.89915815  0.10700096  0.10844866  1
  Nb  Nb117  1  0.69846922  0.88852982  0.50223611  1
  Nb  Nb118  1  0.10275951  0.89813600  0.10224617  1
  Nb  Nb119  1  0.29341024  0.09616811  0.10199130  1
  Nb  Nb120  1  0.29409935  0.69669296  0.09080289  1
  Nb  Nb121  1  0.10745316  0.70298022  0.09974468  1
  Nb  Nb122  1  0.10393324  0.09220660  0.10205600  1
  Nb  Nb123  1  0.90092238  0.70930482  0.90348114  1
  Nb  Nb124  1  0.50219969  0.29762647  0.70067710  1
  Nb  Nb125  1  0.80481986  0.39332068  0.19467490  1
  Nb  Nb126  1  0.60056311  0.39363039  0.60405435  1
  Nb  Nb127  1  0.80171343  0.18757165  0.40118777  1
  Nb  Nb128  1  0.19859988  0.60222263  0.59668240  1
  Nb  Nb129  1  0.19973454  0.39304800  0.79974812  1
  Nb  Nb130  1  0.00066033  0.19997777  0.79554569  1
  Nb  Nb131  1  0.59558578  -0.00458881  0.00492289  1
  Nb  Nb132  1  0.40405420  0.80609708  0.59424581  1
  Nb  Nb133  1  0.19496675  0.20158137  0.60100847  1
  Nb  Nb134  1  0.19687863  0.40327298  0.40378663  1
  Nb  Nb135  1  0.60318720  0.59804096  0.80635296  1
  Nb  Nb136  1  0.60466679  0.79933641  0.00650358  1
  Nb  Nb137  1  0.20380633  0.80291853  0.19391187  1
  Nb  Nb138  1  0.39800621  -0.00038569  0.01121771  1
  Nb  Nb139  1  0.00014623  0.80340603  0.00389743  1
  Nb  Nb140  1  0.19955562  0.59581500  0.40078979  1
  Nb  Nb141  1  0.40061641  -0.00507903  0.39809970  1
  Nb  Nb142  1  -0.00019128  0.39509316  0.60062274  1
  Nb  Nb143  1  0.80258180  0.61056979  0.40037629  1
  Nb  Nb144  1  0.19582505  0.20668711  0.79349097  1
  Nb  Nb145  1  0.60534741  0.19243617  0.40902867  1
  Nb  Nb146  1  0.00146439  0.20109497  0.59938544  1
  Nb  Nb147  1  0.80382973  0.80474985  0.00093007  1
  Nb  Nb148  1  0.59885443  0.19653362  0.78809706  1
  Nb  Nb149  1  0.59668640  0.60783765  -0.00070713  1
  Pd  Pd150  1  0.80193851  -0.00363509  0.39392836  1
  Pd  Pd151  1  0.39154676  0.78802708  0.18928893  1
  Pd  Pd152  1  0.59040954  0.80417723  0.60572131  1
  Pd  Pd153  1  0.80057872  0.80888465  0.79848331  1
  Pd  Pd154  1  0.19238967  0.40926001  0.59863677  1
  Pd  Pd155  1  -0.00746304  0.40358196  0.18878525  1
  Pd  Pd156  1  0.39231051  0.60608182  0.20201581  1
  Pd  Pd157  1  0.79326082  0.60653745  0.59370941  1
  Pd  Pd158  1  0.40643960  0.00776769  0.19843444  1
  Pd  Pd159  1  0.20395204  -0.00421702  0.39549705  1
  Pd  Pd160  1  0.59984739  0.20399855  0.59581411  1
  Pd  Pd161  1  0.79309170  -0.00334525  0.00042966  1
  Pd  Pd162  1  0.80322784  -0.00891544  0.60544909  1
  Pd  Pd163  1  0.60310374  0.80311835  0.39431174  1
  Pd  Pd164  1  0.40409282  0.39693154  0.19968931  1
  Pd  Pd165  1  0.20619790  -0.00352836  -0.00397867  1
  Pd  Pd166  1  0.60375289  0.59476753  0.60652967  1
  Pd  Pd167  1  0.58915693  0.39188719  0.40878393  1
  Pd  Pd168  1  0.59373026  0.01047457  0.80324572  1
  Pd  Pd169  1  0.59382175  -0.00303016  0.19554608  1
  Pd  Pd170  1  0.39881642  0.40733417  0.39568156  1
  Pd  Pd171  1  0.00009795  0.39910659  0.80020252  1
  Pd  Pd172  1  0.00480859  0.40029207  0.40004162  1
  Pd  Pd173  1  0.79771454  0.59949983  0.80368206  1
  Pd  Pd174  1  0.20048980  0.20603285  -0.00408731  1
  Pd  Pd175  1  -0.00372439  0.80063633  0.39948796  1
  Pd  Pd176  1  0.40123876  0.39406455  0.00515764  1
  Pd  Pd177  1  0.19232652  0.20188171  0.20068244  1
  Pd  Pd178  1  -0.00201710  -0.00108994  0.79818759  1
  Pd  Pd179  1  0.20022531  0.59148650  0.79720040  1
  Pd  Pd180  1  0.39671251  0.60993780  0.59819170  1
  Pd  Pd181  1  0.60433967  0.59747050  0.19544862  1
  Pd  Pd182  1  -0.00752458  0.40528386  0.00970525  1
  Pd  Pd183  1  0.00346032  -0.00117343  0.00764728  1
  Pd  Pd184  1  0.40190039  0.80371070  0.00928646  1
  Pd  Pd185  1  0.80959713  0.40552763  0.80814573  1
  Pd  Pd186  1  -0.00010557  0.61007142  0.00554075  1
  Pd  Pd187  1  0.60532273  0.39798722  0.19488640  1
  Pd  Pd188  1  0.60613991  0.79361150  0.19601381  1
  Pd  Pd189  1  0.20067583  0.39159737  -0.00517498  1
  Pd  Pd190  1  0.80276522  0.19425580  0.58952827  1
  Pd  Pd191  1  0.39673586  0.39443209  0.80336513  1
  Pd  Pd192  1  0.40677049  0.60013529  0.80451465  1
  Pd  Pd193  1  0.59581922  -0.00083411  0.39453213  1
  Pd  Pd194  1  0.19521780  0.80521469  0.79889251  1
  Pd  Pd195  1  0.80330662  -0.00756999  0.79650012  1
  Pd  Pd196  1  0.20448536  0.00360534  0.59207741  1
  Pd  Pd197  1  0.19860494  0.20705673  0.40501672  1
  Pd  Pd198  1  -0.00452157  0.20047129  0.40091145  1
  Pd  Pd199  1  0.39137108  0.59158342  0.39517553  1
  Rh  Rh200  1  0.19747444  0.60145535  -0.00854715  1
  Rh  Rh201  1  -0.00622999  0.00099319  0.59916959  1
  Rh  Rh202  1  0.79956244  0.40687821  0.60218755  1
  Rh  Rh203  1  0.80471519  0.79672660  0.40127394  1
  Rh  Rh204  1  0.19837523  0.39086152  0.20479952  1
  Rh  Rh205  1  0.80306895  0.80637748  0.19609972  1
  Rh  Rh206  1  0.60512444  0.20636210  0.20941374  1
  Rh  Rh207  1  -0.00043637  0.59972143  0.19366396  1
  Rh  Rh208  1  0.00451027  0.79899417  0.19382124  1
  Rh  Rh209  1  0.80130633  0.80337303  0.60383749  1
  Rh  Rh210  1  0.79708549  0.20621983  0.20947648  1
  Rh  Rh211  1  0.39783258  0.20000451  0.59899161  1
  Rh  Rh212  1  -0.00127394  0.18944693  0.00346144  1
  Rh  Rh213  1  0.59724173  0.39709214  0.79359269  1
  Rh  Rh214  1  0.80120085  -0.00300076  0.20322110  1
  Rh  Rh215  1  0.40289865  0.20379922  0.79354035  1
  Rh  Rh216  1  0.00686413  0.80562533  0.80672837  1
  Rh  Rh217  1  0.19278566  -0.00624880  0.20404557  1
  Rh  Rh218  1  0.20696209  0.61374583  0.20831395  1
  Rh  Rh219  1  0.79651086  0.18989152  -0.00466926  1
  Rh  Rh220  1  0.80783656  0.39952077  0.00787100  1
  Rh  Rh221  1  0.40236948  0.81002468  0.40985317  1
  Rh  Rh222  1  0.40261930  0.60332989  -0.00559080  1
  Rh  Rh223  1  0.00533745  0.59929012  0.60114967  1
  Rh  Rh224  1  -0.00235729  0.60364155  0.80627787  1
  Rh  Rh225  1  0.00645901  0.19092473  0.19504290  1
  Rh  Rh226  1  0.00293536  0.00377495  0.20006408  1
  Rh  Rh227  1  0.59346669  0.40970230  0.00866462  1
  Rh  Rh228  1  0.20404671  0.79500620  0.59976060  1
  Rh  Rh229  1  -0.00323633  0.60936516  0.39929320  1
  Rh  Rh230  1  0.19088755  0.79762781  0.38950609  1
  Rh  Rh231  1  0.59568570  -0.00678072  0.60372215  1
  Rh  Rh232  1  0.79598906  0.61068112  -0.00142703  1
  Rh  Rh233  1  0.39866931  0.80135253  0.78722868  1
  Rh  Rh234  1  0.81092014  0.40200417  0.38297384  1
  Rh  Rh235  1  0.20672071  0.00416040  0.80443447  1
  Rh  Rh236  1  0.39794446  0.00039448  0.80978867  1
  Rh  Rh237  1  -0.00651401  -0.00572649  0.39497522  1
  Rh  Rh238  1  0.41539506  0.40201286  0.59598282  1
  Rh  Rh239  1  0.60438058  0.18937649  -0.01241391  1
  Rh  Rh240  1  0.19569026  0.80330073  0.00415092  1
  Rh  Rh241  1  0.40991032  0.18845846  0.39599177  1
  Rh  Rh242  1  0.39802440  0.19904200  0.19813939  1
  Rh  Rh243  1  0.39908511  -0.00887757  0.58793615  1
  Rh  Rh244  1  0.60977132  0.60514755  0.40058249  1
  Rh  Rh245  1  0.39503615  0.19144989  0.01374918  1
  Rh  Rh246  1  0.59771333  0.79272795  0.80084181  1
  Rh  Rh247  1  -0.00156666  0.80541804  0.59993813  1
  Rh  Rh248  1  0.79855356  0.19638359  0.80793575  1
  Rh  Rh249  1  0.80405944  0.58738414  0.21151165  1
