# generated using pymatgen
data_ZrScNbPdRh
_symmetry_space_group_name_H-M   'P 1'
_cell_length_a   16.56316926
_cell_length_b   16.55840269
_cell_length_c   16.56264964
_cell_angle_alpha   90.00618117
_cell_angle_beta   89.98448266
_cell_angle_gamma   90.03843146
_symmetry_Int_Tables_number   1
_chemical_formula_structural   ZrScNbPdRh
_chemical_formula_sum   'Zr50 Sc50 Nb50 Pd50 Rh50'
_cell_volume   4542.46488732
_cell_formula_units_Z   50
loop_
 _symmetry_equiv_pos_site_id
 _symmetry_equiv_pos_as_xyz
  1  'x, y, z'
loop_
 _atom_site_type_symbol
 _atom_site_label
 _atom_site_symmetry_multiplicity
 _atom_site_fract_x
 _atom_site_fract_y
 _atom_site_fract_z
 _atom_site_occupancy
  Zr  Zr0  1  0.49989080  0.10248663  0.69581188  1
  Zr  Zr1  1  0.09515627  0.70109877  0.49906889  1
  Zr  Zr2  1  0.69373836  0.49968599  0.69400821  1
  Zr  Zr3  1  0.70685802  0.09685010  0.10636778  1
  Zr  Zr4  1  0.08953682  0.49819736  0.70215252  1
  Zr  Zr5  1  0.49814490  0.70237859  0.51336895  1
  Zr  Zr6  1  0.08909848  0.69677883  0.69677004  1
  Zr  Zr7  1  0.89684203  0.69239914  0.10136286  1
  Zr  Zr8  1  0.10728722  0.30423790  0.30598985  1
  Zr  Zr9  1  0.29879814  0.70158136  0.29685079  1
  Zr  Zr10  1  0.89491909  0.10298904  0.50321168  1
  Zr  Zr11  1  0.90874332  0.31025715  0.69134451  1
  Zr  Zr12  1  0.10434800  0.69693513  0.09533820  1
  Zr  Zr13  1  0.90123016  0.50207664  0.89361432  1
  Zr  Zr14  1  0.30535181  0.11261071  0.30784324  1
  Zr  Zr15  1  0.49363261  0.28386841  0.29799349  1
  Zr  Zr16  1  0.89838326  0.29747982  0.29798609  1
  Zr  Zr17  1  0.10015245  0.89950126  0.90152688  1
  Zr  Zr18  1  0.49924873  0.69432717  0.88490895  1
  Zr  Zr19  1  0.89677915  0.09681936  0.90527829  1
  Zr  Zr20  1  0.89962660  0.91643910  0.09629078  1
  Zr  Zr21  1  0.89289447  0.29646831  0.90428132  1
  Zr  Zr22  1  0.30150092  0.50284267  0.10305687  1
  Zr  Zr23  1  0.30360340  0.30223033  0.89179406  1
  Zr  Zr24  1  0.28709900  0.50208994  0.69950921  1
  Zr  Zr25  1  0.50134960  0.49399026  0.89450852  1
  Zr  Zr26  1  0.90507204  0.88523492  0.70075806  1
  Zr  Zr27  1  0.10634500  0.10524342  0.50564399  1
  Zr  Zr28  1  0.70136871  0.90552150  0.29806057  1
  Zr  Zr29  1  0.50877271  0.10083209  0.89452247  1
  Zr  Zr30  1  0.10183071  0.70223224  0.89799088  1
  Zr  Zr31  1  0.50102546  0.89146167  0.69682830  1
  Zr  Zr32  1  0.70648962  0.90136719  0.90157334  1
  Zr  Zr33  1  0.29805731  0.70051643  0.90227187  1
  Zr  Zr34  1  0.70504675  0.70128662  0.89897630  1
  Zr  Zr35  1  0.69630437  0.29718892  0.09120340  1
  Zr  Zr36  1  0.29451285  0.10576727  0.69860323  1
  Zr  Zr37  1  0.50180517  0.30335825  0.90821698  1
  Zr  Zr38  1  0.89926795  0.28668779  0.09968273  1
  Zr  Zr39  1  0.70078596  0.09940366  0.49708138  1
  Zr  Zr40  1  0.91163482  0.49355715  0.09932135  1
  Zr  Zr41  1  0.29871761  0.69833218  0.10213897  1
  Zr  Zr42  1  0.30321131  0.90739723  0.69258926  1
  Zr  Zr43  1  0.10597424  0.70489352  0.30128027  1
  Zr  Zr44  1  0.49811834  0.50049726  0.29375368  1
  Zr  Zr45  1  0.70277566  0.89853403  0.10022621  1
  Zr  Zr46  1  0.09206012  0.30750318  0.10448893  1
  Zr  Zr47  1  0.50682506  0.90414535  0.09984808  1
  Zr  Zr48  1  0.09729334  0.30520118  0.50851935  1
  Zr  Zr49  1  0.10201806  0.09176648  0.30969254  1
  Sc  Sc50  1  0.70084819  0.49682247  0.30110498  1
  Sc  Sc51  1  0.50275219  0.69632221  0.10385164  1
  Sc  Sc52  1  0.90114245  0.70643969  0.50586093  1
  Sc  Sc53  1  0.30488688  0.29735532  0.08683405  1
  Sc  Sc54  1  0.69417056  0.49841062  0.89915321  1
  Sc  Sc55  1  0.69977620  0.30899177  0.49675087  1
  Sc  Sc56  1  0.29937421  0.10156028  0.50660977  1
  Sc  Sc57  1  0.90258122  0.68930476  0.30751628  1
  Sc  Sc58  1  0.50696608  0.49824133  0.51462875  1
  Sc  Sc59  1  0.49711233  0.10436425  0.50036212  1
  Sc  Sc60  1  0.71123401  0.89882418  0.50019720  1
  Sc  Sc61  1  0.10797698  0.50252687  0.50486488  1
  Sc  Sc62  1  0.10912781  0.30033640  0.90032963  1
  Sc  Sc63  1  0.49965763  0.29554460  0.50335520  1
  Sc  Sc64  1  0.50544812  0.49588498  0.09876155  1
  Sc  Sc65  1  0.71231219  0.70208795  0.50472054  1
  Sc  Sc66  1  0.90650126  0.90927385  0.30413992  1
  Sc  Sc67  1  0.29800138  0.69978956  0.50092503  1
  Sc  Sc68  1  0.69868543  0.29180894  0.30170305  1
  Sc  Sc69  1  0.30272131  0.69323913  0.70516668  1
  Sc  Sc70  1  0.09778605  0.90533981  0.09330491  1
  Sc  Sc71  1  0.28789171  0.50254788  0.29822792  1
  Sc  Sc72  1  0.10853253  0.09346662  0.89569043  1
  Sc  Sc73  1  0.29993481  0.90293186  0.08333633  1
  Sc  Sc74  1  0.29564674  0.90273441  0.89798561  1
  Sc  Sc75  1  0.51236946  0.90257061  0.29697438  1
  Sc  Sc76  1  0.50098741  0.11377685  0.09732561  1
  Sc  Sc77  1  0.09231589  0.09766026  0.09576839  1
  Sc  Sc78  1  0.90000278  0.89761224  0.90123303  1
  Sc  Sc79  1  0.09679530  0.50121085  0.29418167  1
  Sc  Sc80  1  0.30543908  0.89941786  0.50108413  1
  Sc  Sc81  1  0.10610166  0.30278180  0.69778824  1
  Sc  Sc82  1  0.49619721  0.69970501  0.29613248  1
  Sc  Sc83  1  0.70839744  0.89853947  0.70661863  1
  Sc  Sc84  1  0.88497317  0.49588989  0.50773192  1
  Sc  Sc85  1  0.71382689  0.69588418  0.30073502  1
  Sc  Sc86  1  0.49448777  0.89614434  0.50829466  1
  Sc  Sc87  1  0.10044603  0.90084329  0.71217501  1
  Sc  Sc88  1  0.49956142  0.29779508  0.70416059  1
  Sc  Sc89  1  0.29777389  0.49379890  0.89347974  1
  Sc  Sc90  1  0.88960089  0.09608728  0.70943514  1
  Sc  Sc91  1  0.09639216  0.90326906  0.48691667  1
  Sc  Sc92  1  0.49788180  0.89541980  0.89877247  1
  Sc  Sc93  1  0.70130827  0.70007379  0.09531981  1
  Sc  Sc94  1  0.89608324  0.69918803  0.89806257  1
  Sc  Sc95  1  0.69815930  0.50337963  0.10246798  1
  Sc  Sc96  1  0.29759739  0.10465163  0.90507187  1
  Sc  Sc97  1  0.89659833  0.89520696  0.50312129  1
  Sc  Sc98  1  0.50242378  0.29899907  0.09517529  1
  Sc  Sc99  1  0.89057250  0.10305783  0.29088342  1
  Nb  Nb100  1  0.70124198  0.69980577  0.70520838  1
  Nb  Nb101  1  0.69688263  0.29776726  0.89183895  1
  Nb  Nb102  1  0.29793722  0.90123367  0.29978623  1
  Nb  Nb103  1  0.30051515  0.10072515  0.10215231  1
  Nb  Nb104  1  0.50568906  0.69201046  0.69963527  1
  Nb  Nb105  1  0.29982859  0.30059154  0.30668012  1
  Nb  Nb106  1  0.70229736  0.10135045  0.87999727  1
  Nb  Nb107  1  0.69553506  0.10156201  0.71194670  1
  Nb  Nb108  1  0.29896700  0.49665653  0.50269264  1
  Nb  Nb109  1  0.89739222  0.49821579  0.29353024  1
  Nb  Nb110  1  0.68859763  0.09744477  0.29898964  1
  Nb  Nb111  1  0.10219903  0.10198236  0.70161974  1
  Nb  Nb112  1  0.29203281  0.30254165  0.49578325  1
  Nb  Nb113  1  0.68882322  0.50118273  0.49934319  1
  Nb  Nb114  1  0.29960908  0.30054032  0.69866954  1
  Nb  Nb115  1  0.89833796  0.50359859  0.70673291  1
  Nb  Nb116  1  0.10081845  0.50003171  0.09634781  1
  Nb  Nb117  1  0.70141458  0.29319538  0.70861578  1
  Nb  Nb118  1  0.89458357  0.69030562  0.70503930  1
  Nb  Nb119  1  0.90027035  0.09992165  0.10138504  1
  Nb  Nb120  1  0.10494227  0.90289243  0.29562461  1
  Nb  Nb121  1  0.89721824  0.29814874  0.49797036  1
  Nb  Nb122  1  0.10061232  0.50200696  0.89844688  1
  Nb  Nb123  1  0.50286464  0.09942043  0.29884144  1
  Nb  Nb124  1  0.50100864  0.51493667  0.70293795  1
  Nb  Nb125  1  -0.00807229  0.39887744  0.40169274  1
  Nb  Nb126  1  0.80551862  0.39667789  0.19688199  1
  Nb  Nb127  1  0.40254426  0.59211783  0.40464918  1
  Nb  Nb128  1  0.20782114  0.00256582  0.20240229  1
  Nb  Nb129  1  0.60288889  0.79438990  0.40252836  1
  Nb  Nb130  1  0.00122680  0.80256543  0.20065174  1
  Nb  Nb131  1  0.79910087  0.39843454  0.79468172  1
  Nb  Nb132  1  0.59849639  0.60196016  0.40759002  1
  Nb  Nb133  1  0.40197284  0.00102867  0.38999394  1
  Nb  Nb134  1  0.19431120  0.79871477  0.60163679  1
  Nb  Nb135  1  0.39570622  0.39344102  0.20733972  1
  Nb  Nb136  1  0.39454919  0.40139881  0.40224026  1
  Nb  Nb137  1  -0.00392343  0.20492442  0.40487667  1
  Nb  Nb138  1  0.20441785  0.19855400  0.19995737  1
  Nb  Nb139  1  0.81081873  0.80382003  0.19820554  1
  Nb  Nb140  1  0.40067065  0.59855586  -0.00486019  1
  Nb  Nb141  1  0.39205428  0.40100074  0.60021759  1
  Nb  Nb142  1  0.00197180  0.19735151  0.79671858  1
  Nb  Nb143  1  0.60757470  0.00518069  -0.00548916  1
  Nb  Nb144  1  0.39508655  0.81149992  0.20045541  1
  Nb  Nb145  1  0.40182370  0.00319308  0.79413903  1
  Nb  Nb146  1  0.60584732  0.00336555  0.60687332  1
  Nb  Nb147  1  0.79515730  0.20401579  0.60553786  1
  Nb  Nb148  1  0.39835471  0.00372792  0.20236327  1
  Nb  Nb149  1  0.00153616  0.00374602  0.60549594  1
  Pd  Pd150  1  0.59357050  0.60061732  -0.00341201  1
  Pd  Pd151  1  0.79907590  0.59099005  0.00000109  1
  Pd  Pd152  1  0.79751754  0.59347066  0.40536155  1
  Pd  Pd153  1  0.60700443  0.78908333  0.20795174  1
  Pd  Pd154  1  -0.00545772  0.80161669  0.39276682  1
  Pd  Pd155  1  0.79995825  0.00280454  0.60960936  1
  Pd  Pd156  1  0.20016794  0.81178631  0.18819815  1
  Pd  Pd157  1  0.40800488  0.00901455  -0.00382616  1
  Pd  Pd158  1  0.20310696  0.59751795  0.40218343  1
  Pd  Pd159  1  0.60807472  0.60678086  0.20857010  1
  Pd  Pd160  1  0.20585838  0.59137301  -0.00610059  1
  Pd  Pd161  1  0.18866700  -0.01133023  0.59660212  1
  Pd  Pd162  1  0.80371362  0.00308886  0.39391259  1
  Pd  Pd163  1  -0.00338963  0.00387383  0.79793606  1
  Pd  Pd164  1  0.00373812  0.39749898  -0.00953409  1
  Pd  Pd165  1  0.40264448  0.40638245  0.78632345  1
  Pd  Pd166  1  -0.00922387  0.59304197  0.59150371  1
  Pd  Pd167  1  0.59230556  -0.00859516  0.41394565  1
  Pd  Pd168  1  0.39467855  0.59634206  0.59861509  1
  Pd  Pd169  1  -0.00653207  0.58657549  0.40905238  1
  Pd  Pd170  1  0.59350844  0.39202854  0.60820854  1
  Pd  Pd171  1  0.79257752  0.39647069  0.60418966  1
  Pd  Pd172  1  0.60112740  0.39080206  0.20258481  1
  Pd  Pd173  1  0.20088099  0.40248912  -0.00042482  1
  Pd  Pd174  1  0.00982451  0.19142168  0.20909612  1
  Pd  Pd175  1  0.61347179  0.80411036  0.59698698  1
  Pd  Pd176  1  -0.00663850  0.19253432  0.60614716  1
  Pd  Pd177  1  -0.00801150  0.00774294  0.40789103  1
  Pd  Pd178  1  0.20359632  0.80520122  0.40831811  1
  Pd  Pd179  1  0.60904029  0.19968425  0.59926122  1
  Pd  Pd180  1  0.60494533  0.80197458  0.79996345  1
  Pd  Pd181  1  0.79733121  0.60152406  0.60173349  1
  Pd  Pd182  1  -0.00576395  0.79923120  0.00441314  1
  Pd  Pd183  1  0.79342377  0.40640633  -0.00051245  1
  Pd  Pd184  1  0.40955089  0.80273740  0.39237549  1
  Pd  Pd185  1  0.59532956  0.79987176  -0.00532898  1
  Pd  Pd186  1  0.39396297  0.80388322  0.79432843  1
  Pd  Pd187  1  0.20425887  0.79893728  0.79163695  1
  Pd  Pd188  1  0.20714676  0.39375542  0.19444766  1
  Pd  Pd189  1  0.00058323  0.39037795  0.80878899  1
  Pd  Pd190  1  0.40713543  0.79082920  0.00537866  1
  Pd  Pd191  1  0.00603459  0.60510059  0.20265964  1
  Pd  Pd192  1  0.40163147  0.19610275  0.80396375  1
  Pd  Pd193  1  0.79937521  0.40395851  0.39375407  1
  Pd  Pd194  1  0.59000273  0.40233465  0.39770099  1
  Pd  Pd195  1  0.01018125  0.19514514  -0.01058932  1
  Pd  Pd196  1  0.60175509  0.20179558  0.40393870  1
  Pd  Pd197  1  0.00017203  0.60050983  -0.00695634  1
  Pd  Pd198  1  0.19443031  0.19924984  0.00693373  1
  Pd  Pd199  1  0.78976343  0.19119980  -0.00373507  1
  Rh  Rh200  1  0.60944179  0.60992842  0.59811131  1
  Rh  Rh201  1  0.80114995  -0.00161471  0.20554113  1
  Rh  Rh202  1  0.60908234  0.19340716  -0.00901969  1
  Rh  Rh203  1  0.19778970  0.00182239  0.00346915  1
  Rh  Rh204  1  0.19577088  0.40742524  0.40158351  1
  Rh  Rh205  1  0.79661371  0.19577973  0.40277540  1
  Rh  Rh206  1  -0.00454248  0.79115775  0.80425693  1
  Rh  Rh207  1  0.41005757  0.00428924  0.59807936  1
  Rh  Rh208  1  0.38859647  0.78932306  0.60883597  1
  Rh  Rh209  1  0.00167825  0.00521975  -0.00636806  1
  Rh  Rh210  1  0.20346842  0.39761394  0.60386863  1
  Rh  Rh211  1  0.81138618  0.20959307  0.79391106  1
  Rh  Rh212  1  0.59200672  0.21009898  0.80270648  1
  Rh  Rh213  1  0.79318258  0.00818956  -0.00522488  1
  Rh  Rh214  1  0.39040263  0.21098155  0.59541883  1
  Rh  Rh215  1  0.80631064  -0.00899153  0.79944143  1
  Rh  Rh216  1  0.19452893  0.39971605  0.79807729  1
  Rh  Rh217  1  0.21186747  -0.00397685  0.40112035  1
  Rh  Rh218  1  0.39595334  0.59327139  0.80343923  1
  Rh  Rh219  1  0.79208067  0.59310226  0.79752296  1
  Rh  Rh220  1  0.79871281  0.80373438  0.38994513  1
  Rh  Rh221  1  0.19137295  0.59865480  0.80093935  1
  Rh  Rh222  1  0.59215389  0.01251225  0.18888179  1
  Rh  Rh223  1  -0.00343013  0.40109517  0.20576363  1
  Rh  Rh224  1  0.39982692  0.19876902  -0.00594501  1
  Rh  Rh225  1  0.79157624  0.20241790  0.20094326  1
  Rh  Rh226  1  0.59364428  -0.01138590  0.79900031  1
  Rh  Rh227  1  -0.00281210  0.41277569  0.59027713  1
  Rh  Rh228  1  0.40105031  0.20050814  0.41134650  1
  Rh  Rh229  1  0.80035046  0.79349499  0.60913441  1
  Rh  Rh230  1  0.80068899  0.59372175  0.19622979  1
  Rh  Rh231  1  0.19759454  0.80376477  -0.00038976  1
  Rh  Rh232  1  0.19005328  0.59794484  0.19909603  1
  Rh  Rh233  1  0.20432939  0.20727161  0.60178039  1
  Rh  Rh234  1  0.21069095  0.00443259  0.80144891  1
  Rh  Rh235  1  0.80715634  0.79895084  0.00828390  1
  Rh  Rh236  1  0.00896181  0.81073608  0.59729170  1
  Rh  Rh237  1  0.00679679  -0.00010025  0.19997238  1
  Rh  Rh238  1  0.40008632  0.40812203  0.00840943  1
  Rh  Rh239  1  0.60890379  0.60025996  0.79935690  1
  Rh  Rh240  1  0.60425498  0.19898363  0.19900197  1
  Rh  Rh241  1  0.60532462  0.40077674  -0.00104792  1
  Rh  Rh242  1  0.19818355  0.61032990  0.60030659  1
  Rh  Rh243  1  0.00248813  0.60391495  0.80553154  1
  Rh  Rh244  1  0.39834444  0.59858353  0.19804252  1
  Rh  Rh245  1  0.80312564  0.79614045  0.80007884  1
  Rh  Rh246  1  0.60154643  0.39845970  0.79421711  1
  Rh  Rh247  1  0.39401920  0.20401897  0.19211224  1
  Rh  Rh248  1  0.19405650  0.20167296  0.40343854  1
  Rh  Rh249  1  0.19605044  0.20291890  0.79779450  1
