# generated using pymatgen
data_ZrScNbPdRh
_symmetry_space_group_name_H-M   'P 1'
_cell_length_a   16.55643980
_cell_length_b   16.55472400
_cell_length_c   16.55409126
_cell_angle_alpha   89.98831518
_cell_angle_beta   89.97970670
_cell_angle_gamma   90.00541685
_symmetry_Int_Tables_number   1
_chemical_formula_structural   ZrScNbPdRh
_chemical_formula_sum   'Zr50 Sc50 Nb50 Pd50 Rh50'
_cell_volume   4537.26563442
_cell_formula_units_Z   50
loop_
 _symmetry_equiv_pos_site_id
 _symmetry_equiv_pos_as_xyz
  1  'x, y, z'
loop_
 _atom_site_type_symbol
 _atom_site_label
 _atom_site_symmetry_multiplicity
 _atom_site_fract_x
 _atom_site_fract_y
 _atom_site_fract_z
 _atom_site_occupancy
  Zr  Zr0  1  0.08945850  0.09889891  0.10276010  1
  Zr  Zr1  1  0.49736079  0.09969971  0.69172580  1
  Zr  Zr2  1  0.70265033  0.89225930  0.70580926  1
  Zr  Zr3  1  0.50571483  0.49881763  0.30293262  1
  Zr  Zr4  1  0.29640291  0.89719713  0.09599885  1
  Zr  Zr5  1  0.29063516  0.30267912  0.89672020  1
  Zr  Zr6  1  0.29955702  0.29750120  0.30246787  1
  Zr  Zr7  1  0.89000905  0.29164851  0.90168544  1
  Zr  Zr8  1  0.50091500  0.29866516  0.89386614  1
  Zr  Zr9  1  0.70073353  0.50113357  0.49139005  1
  Zr  Zr10  1  0.50595876  0.89638754  0.90961372  1
  Zr  Zr11  1  0.89490635  0.89957190  0.90588007  1
  Zr  Zr12  1  0.11060081  0.70492528  0.49548791  1
  Zr  Zr13  1  0.11325024  0.49903921  0.90132263  1
  Zr  Zr14  1  0.50731047  0.70979808  0.50361995  1
  Zr  Zr15  1  0.09834721  0.69474294  0.29954900  1
  Zr  Zr16  1  0.69233319  0.28872125  0.70498923  1
  Zr  Zr17  1  0.69691001  0.29656318  0.29816606  1
  Zr  Zr18  1  0.90060089  0.89805977  0.69451708  1
  Zr  Zr19  1  0.90149119  0.29490005  0.09572563  1
  Zr  Zr20  1  0.29513445  0.50485767  0.09320774  1
  Zr  Zr21  1  0.10323961  0.29496830  0.30348604  1
  Zr  Zr22  1  0.90837087  0.29654436  0.50029436  1
  Zr  Zr23  1  0.90719608  0.09552589  0.70938784  1
  Zr  Zr24  1  0.29632331  0.10157393  0.30002114  1
  Zr  Zr25  1  0.10228845  0.10297090  0.50627237  1
  Zr  Zr26  1  0.30173852  0.69664869  0.10425908  1
  Zr  Zr27  1  0.49725171  0.50169150  0.50166307  1
  Zr  Zr28  1  0.50132201  0.09841027  0.10012402  1
  Zr  Zr29  1  0.29616583  0.09417682  0.49726512  1
  Zr  Zr30  1  0.29790158  0.68957257  0.90089244  1
  Zr  Zr31  1  0.89791293  0.70566095  0.28736759  1
  Zr  Zr32  1  0.10425069  0.69991486  0.69468629  1
  Zr  Zr33  1  0.09500597  0.49218037  0.09456192  1
  Zr  Zr34  1  0.90107499  0.90164282  0.10663750  1
  Zr  Zr35  1  0.70001684  0.10141572  0.11177579  1
  Zr  Zr36  1  0.90300421  0.09769390  0.90308327  1
  Zr  Zr37  1  0.70479534  0.29804124  0.49836529  1
  Zr  Zr38  1  0.29236220  0.11271010  0.69424251  1
  Zr  Zr39  1  0.29671573  0.70437421  0.69103581  1
  Zr  Zr40  1  0.69887042  0.50936311  0.88823153  1
  Zr  Zr41  1  0.50797961  0.90291715  0.70364820  1
  Zr  Zr42  1  0.89945523  0.70848414  0.69979507  1
  Zr  Zr43  1  0.69725157  0.49733325  0.10182387  1
  Zr  Zr44  1  0.10325942  0.71018503  0.89370681  1
  Zr  Zr45  1  0.09233023  0.89998739  0.70395701  1
  Zr  Zr46  1  0.50044942  0.69833612  0.90063991  1
  Zr  Zr47  1  0.90284507  0.90371698  0.49732268  1
  Zr  Zr48  1  0.90215659  0.50279093  0.70113964  1
  Zr  Zr49  1  0.50977311  0.09601764  0.30132251  1
  Sc  Sc50  1  0.29537750  0.90622399  0.49708796  1
  Sc  Sc51  1  0.69498938  0.89267758  0.50330014  1
  Sc  Sc52  1  0.30343405  0.50191270  0.30027982  1
  Sc  Sc53  1  0.30723327  0.49419084  0.49986434  1
  Sc  Sc54  1  0.91122292  0.29231994  0.70547437  1
  Sc  Sc55  1  0.90235139  0.50224913  0.09486862  1
  Sc  Sc56  1  0.09283073  0.29951221  0.10028422  1
  Sc  Sc57  1  0.71218773  0.09530499  0.89534774  1
  Sc  Sc58  1  0.90621850  0.29220227  0.30382024  1
  Sc  Sc59  1  0.69650440  0.89866837  0.09321096  1
  Sc  Sc60  1  0.09962667  0.10641723  0.30161408  1
  Sc  Sc61  1  0.70342975  0.70478047  0.10703477  1
  Sc  Sc62  1  0.49519999  0.28855018  0.69586089  1
  Sc  Sc63  1  0.51710803  0.69851627  0.29676543  1
  Sc  Sc64  1  0.09998022  0.28978666  0.70574718  1
  Sc  Sc65  1  0.90562285  0.70644184  0.50555332  1
  Sc  Sc66  1  0.09628108  0.70460807  0.10740773  1
  Sc  Sc67  1  0.69989786  0.90820134  0.29858718  1
  Sc  Sc68  1  0.89888383  0.71118659  0.09472181  1
  Sc  Sc69  1  0.50439821  0.70219773  0.09994911  1
  Sc  Sc70  1  0.50918686  0.90171955  0.30797028  1
  Sc  Sc71  1  0.49391834  0.70458416  0.69608392  1
  Sc  Sc72  1  0.09604714  0.30851336  0.89785632  1
  Sc  Sc73  1  0.69671959  0.50690998  0.30168116  1
  Sc  Sc74  1  0.49889271  0.29951596  0.10725239  1
  Sc  Sc75  1  0.90775466  0.09699588  0.49206544  1
  Sc  Sc76  1  0.49609425  0.29972748  0.50597545  1
  Sc  Sc77  1  0.49550202  0.09056905  0.89615296  1
  Sc  Sc78  1  0.90104548  0.50133911  0.90593421  1
  Sc  Sc79  1  0.29870423  0.09146663  0.89413969  1
  Sc  Sc80  1  0.29988915  0.51240843  0.69646751  1
  Sc  Sc81  1  0.90500625  0.50708769  0.29999695  1
  Sc  Sc82  1  0.30038896  0.29972842  0.50104540  1
  Sc  Sc83  1  0.49883418  0.90270692  0.50799557  1
  Sc  Sc84  1  0.09610241  0.89651399  0.09507271  1
  Sc  Sc85  1  0.90305206  0.49542782  0.49761804  1
  Sc  Sc86  1  0.09268585  0.50061527  0.49370096  1
  Sc  Sc87  1  0.29925189  0.90221408  0.69638627  1
  Sc  Sc88  1  0.49921571  0.50655815  0.11177670  1
  Sc  Sc89  1  0.89695651  0.08957617  0.29512904  1
  Sc  Sc90  1  0.69487763  0.09192784  0.70570241  1
  Sc  Sc91  1  0.69590648  0.10208009  0.48867476  1
  Sc  Sc92  1  0.09533114  0.89291694  0.29829265  1
  Sc  Sc93  1  0.30499939  0.10816176  0.09989284  1
  Sc  Sc94  1  0.49821660  0.30336345  0.29535223  1
  Sc  Sc95  1  0.28035321  0.70135942  0.29924003  1
  Sc  Sc96  1  0.30267040  0.29371136  0.10511721  1
  Sc  Sc97  1  0.70584690  0.29588627  0.09906102  1
  Sc  Sc98  1  0.89393420  0.70036487  0.90396430  1
  Sc  Sc99  1  0.29029654  0.90340822  0.30899159  1
  Nb  Nb100  1  0.50604015  0.50418328  0.70360012  1
  Nb  Nb101  1  0.10185623  0.09360305  0.89261988  1
  Nb  Nb102  1  0.70539732  0.69906012  0.70614081  1
  Nb  Nb103  1  0.69472401  0.10009990  0.29942395  1
  Nb  Nb104  1  0.70069427  0.29735493  0.90119079  1
  Nb  Nb105  1  0.49901130  0.50467841  0.89492410  1
  Nb  Nb106  1  0.09830177  0.29613849  0.49954492  1
  Nb  Nb107  1  0.11158562  0.90308336  0.89925850  1
  Nb  Nb108  1  0.10370001  0.50288858  0.29474366  1
  Nb  Nb109  1  0.09847728  0.50132170  0.69887710  1
  Nb  Nb110  1  0.70050018  0.69985300  0.50000278  1
  Nb  Nb111  1  0.49925931  0.90143044  0.10101709  1
  Nb  Nb112  1  0.89600901  0.89891687  0.30215952  1
  Nb  Nb113  1  0.70102823  0.50394293  0.70244070  1
  Nb  Nb114  1  0.49307587  0.10159336  0.50046206  1
  Nb  Nb115  1  0.09664771  0.90569278  0.49721248  1
  Nb  Nb116  1  0.69782092  0.70945516  0.89327348  1
  Nb  Nb117  1  0.90190296  0.10031534  0.09829664  1
  Nb  Nb118  1  0.30749035  0.70478774  0.50339661  1
  Nb  Nb119  1  0.29630267  0.30037963  0.69989345  1
  Nb  Nb120  1  0.70270284  0.70186259  0.30839607  1
  Nb  Nb121  1  0.30308990  0.50154780  0.90393319  1
  Nb  Nb122  1  0.69558160  0.89192607  0.89498094  1
  Nb  Nb123  1  0.29310387  0.89184550  0.90136912  1
  Nb  Nb124  1  0.09452397  0.10007684  0.70631054  1
  Nb  Nb125  1  0.80244683  0.19568509  0.60092737  1
  Nb  Nb126  1  0.40115143  0.19158546  0.40079069  1
  Nb  Nb127  1  0.79407719  0.59966605  0.60178261  1
  Nb  Nb128  1  0.40139476  0.61285560  0.40286472  1
  Nb  Nb129  1  0.59740804  0.40156192  -0.00777016  1
  Nb  Nb130  1  0.40269631  0.40653566  -0.00737782  1
  Nb  Nb131  1  0.60305440  0.20279328  -0.00427560  1
  Nb  Nb132  1  0.40025044  0.80630797  0.20469516  1
  Nb  Nb133  1  0.80207760  0.00205744  0.59857517  1
  Nb  Nb134  1  0.39863015  0.79536755  0.39748947  1
  Nb  Nb135  1  0.00729659  0.59990065  0.79767022  1
  Nb  Nb136  1  0.79356549  0.39732976  0.79714182  1
  Nb  Nb137  1  0.19537615  0.40219885  0.20299709  1
  Nb  Nb138  1  0.79916828  0.79909463  0.39626412  1
  Nb  Nb139  1  0.60239407  0.59827200  -0.00697189  1
  Nb  Nb140  1  0.39983538  0.40721297  0.79961453  1
  Nb  Nb141  1  0.20119889  0.00247432  0.19667499  1
  Nb  Nb142  1  0.60500083  0.40635048  0.60700407  1
  Nb  Nb143  1  0.19392322  0.19512602  -0.00510017  1
  Nb  Nb144  1  0.79663706  0.39792388  0.60735293  1
  Nb  Nb145  1  0.80256227  0.39832069  0.20123395  1
  Nb  Nb146  1  0.19299756  0.39725745  0.60331753  1
  Nb  Nb147  1  0.39425669  0.80305408  0.80806187  1
  Nb  Nb148  1  0.39981339  -0.00701562  0.20007401  1
  Nb  Nb149  1  0.60693028  0.59959599  0.60520653  1
  Pd  Pd150  1  -0.00541154  0.80073301  0.80789751  1
  Pd  Pd151  1  0.59013529  0.20729260  0.40323077  1
  Pd  Pd152  1  0.00322525  -0.00713695  -0.00335378  1
  Pd  Pd153  1  0.80552109  0.19109877  0.39881392  1
  Pd  Pd154  1  0.00431423  0.39412768  0.60395174  1
  Pd  Pd155  1  0.79175980  0.60777424  0.00193931  1
  Pd  Pd156  1  0.20680013  0.40845693  0.78777517  1
  Pd  Pd157  1  0.79562259  0.40293859  -0.00145135  1
  Pd  Pd158  1  -0.00445429  0.79607007  0.39828761  1
  Pd  Pd159  1  0.59832667  0.18453691  0.80811967  1
  Pd  Pd160  1  0.79417930  -0.00005819  0.00431954  1
  Pd  Pd161  1  0.79701110  -0.00397693  0.19893578  1
  Pd  Pd162  1  0.39649598  -0.00274090  0.60197222  1
  Pd  Pd163  1  0.80857105  0.40023239  0.39214662  1
  Pd  Pd164  1  0.60195580  -0.00603309  0.41030705  1
  Pd  Pd165  1  0.39582035  -0.00860016  0.79842080  1
  Pd  Pd166  1  0.79938145  0.59517277  0.19580131  1
  Pd  Pd167  1  0.19249514  -0.00334277  0.60698189  1
  Pd  Pd168  1  0.81205769  0.60919912  0.40588182  1
  Pd  Pd169  1  0.40034696  0.61250186  0.21440497  1
  Pd  Pd170  1  0.18853056  0.60978934  0.00662261  1
  Pd  Pd171  1  0.39125222  0.40457161  0.19470558  1
  Pd  Pd172  1  0.20935746  0.59184353  0.40719449  1
  Pd  Pd173  1  0.39417495  -0.00050039  0.00289332  1
  Pd  Pd174  1  -0.00264279  0.60330377  0.59873376  1
  Pd  Pd175  1  -0.00293915  0.60080758  0.19111465  1
  Pd  Pd176  1  0.39848537  0.40011853  0.61195097  1
  Pd  Pd177  1  0.19966188  0.58862666  0.58785319  1
  Pd  Pd178  1  0.80709687  0.20233903  0.20634446  1
  Pd  Pd179  1  -0.00549107  0.60703997  0.40151966  1
  Pd  Pd180  1  0.00778611  0.20116248  -0.00796742  1
  Pd  Pd181  1  0.00149969  0.40066298  0.39193496  1
  Pd  Pd182  1  0.60904319  0.00834803  -0.00354147  1
  Pd  Pd183  1  0.19877995  0.40471807  0.40246621  1
  Pd  Pd184  1  0.39711908  0.60393525  0.79314430  1
  Pd  Pd185  1  0.59399861  0.39132200  0.40585513  1
  Pd  Pd186  1  -0.00275196  0.39895260  0.20648986  1
  Pd  Pd187  1  0.39547136  0.20148777  0.80053254  1
  Pd  Pd188  1  0.60110163  0.80572244  0.20063278  1
  Pd  Pd189  1  0.00658774  0.00346213  0.39107992  1
  Pd  Pd190  1  0.19774799  0.81308272  0.59474391  1
  Pd  Pd191  1  0.00499036  0.60678652  -0.00623135  1
  Pd  Pd192  1  -0.00634358  0.40521831  0.80578357  1
  Pd  Pd193  1  0.59792044  0.39694953  0.79646383  1
  Pd  Pd194  1  0.39925254  0.20514435  -0.00724997  1
  Pd  Pd195  1  0.39905067  0.79626055  0.00212794  1
  Pd  Pd196  1  0.20364785  -0.00097668  0.79155922  1
  Pd  Pd197  1  0.60928903  0.00643019  0.59369527  1
  Pd  Pd198  1  0.20137449  0.00897428  0.00715349  1
  Pd  Pd199  1  0.19643305  0.79172982  0.00617069  1
  Rh  Rh200  1  0.40352394  0.39631741  0.39584086  1
  Rh  Rh201  1  0.60052881  -0.00041941  0.80681300  1
  Rh  Rh202  1  0.19364539  0.59177962  0.19437033  1
  Rh  Rh203  1  0.00025932  -0.00802926  0.80928191  1
  Rh  Rh204  1  0.00602190  0.19780528  0.80976767  1
  Rh  Rh205  1  0.20881922  0.38705663  0.01248145  1
  Rh  Rh206  1  0.01205572  0.80143794  0.59248720  1
  Rh  Rh207  1  0.81253207  0.60088977  0.79844045  1
  Rh  Rh208  1  -0.00080776  0.80445126  0.19973723  1
  Rh  Rh209  1  0.39303743  0.19938350  0.59231192  1
  Rh  Rh210  1  -0.00153509  0.19449236  0.60018376  1
  Rh  Rh211  1  0.40742134  -0.00093384  0.39588934  1
  Rh  Rh212  1  0.80481693  0.80210163  0.80600911  1
  Rh  Rh213  1  0.79562722  0.80824381  0.20541201  1
  Rh  Rh214  1  0.80186021  0.20232600  0.79239986  1
  Rh  Rh215  1  0.00114240  0.19435701  0.39934421  1
  Rh  Rh216  1  0.60893780  0.39595954  0.19540951  1
  Rh  Rh217  1  0.18564287  -0.00151279  0.39277339  1
  Rh  Rh218  1  0.19131995  0.20108025  0.18580136  1
  Rh  Rh219  1  0.79386231  -0.00556950  0.40361081  1
  Rh  Rh220  1  0.39814328  0.80914153  0.59977088  1
  Rh  Rh221  1  0.19614880  0.20877321  0.59779147  1
  Rh  Rh222  1  0.41186400  0.59403902  0.00609858  1
  Rh  Rh223  1  0.60875962  0.60281155  0.19639032  1
  Rh  Rh224  1  0.60565124  0.79244954  0.00362445  1
  Rh  Rh225  1  -0.00610828  0.39719935  -0.00661035  1
  Rh  Rh226  1  0.59321645  0.60448097  0.40497765  1
  Rh  Rh227  1  -0.00682066  0.19562765  0.20257260  1
  Rh  Rh228  1  0.79403430  0.79961229  0.59248765  1
  Rh  Rh229  1  0.19693573  0.59753516  0.79719380  1
  Rh  Rh230  1  0.60406890  0.80223055  0.39819021  1
  Rh  Rh231  1  0.20216303  0.80547458  0.40553333  1
  Rh  Rh232  1  0.20516891  0.20121675  0.40976271  1
  Rh  Rh233  1  0.60610365  0.79300323  0.61079521  1
  Rh  Rh234  1  0.79337134  0.18841118  0.00471248  1
  Rh  Rh235  1  0.80283360  -0.00947146  0.79613427  1
  Rh  Rh236  1  0.19527775  0.19689506  0.80640985  1
  Rh  Rh237  1  0.00254469  -0.00256183  0.20351511  1
  Rh  Rh238  1  0.00232004  0.80492284  -0.00459016  1
  Rh  Rh239  1  -0.00149247  0.00358201  0.60002296  1
  Rh  Rh240  1  0.59718971  0.61307175  0.79691077  1
  Rh  Rh241  1  0.59750843  -0.00515825  0.19718600  1
  Rh  Rh242  1  0.79365737  0.80075348  -0.00121442  1
  Rh  Rh243  1  0.60511447  0.19703760  0.59449093  1
  Rh  Rh244  1  0.40664407  0.60191558  0.59564471  1
  Rh  Rh245  1  0.40966547  0.18971283  0.21222167  1
  Rh  Rh246  1  0.59834197  0.20409732  0.19446751  1
  Rh  Rh247  1  0.59106928  0.79470478  0.79618454  1
  Rh  Rh248  1  0.20770945  0.80247196  0.79562715  1
  Rh  Rh249  1  0.20154732  0.80747050  0.19964836  1
