# generated using pymatgen
data_ZrScNbPdRh
_symmetry_space_group_name_H-M   'P 1'
_cell_length_a   16.56143438
_cell_length_b   16.55642370
_cell_length_c   16.56198064
_cell_angle_alpha   90.02791978
_cell_angle_beta   89.99971551
_cell_angle_gamma   89.98293055
_symmetry_Int_Tables_number   1
_chemical_formula_structural   ZrScNbPdRh
_chemical_formula_sum   'Zr50 Sc50 Nb50 Pd50 Rh50'
_cell_volume   4541.26329234
_cell_formula_units_Z   50
loop_
 _symmetry_equiv_pos_site_id
 _symmetry_equiv_pos_as_xyz
  1  'x, y, z'
loop_
 _atom_site_type_symbol
 _atom_site_label
 _atom_site_symmetry_multiplicity
 _atom_site_fract_x
 _atom_site_fract_y
 _atom_site_fract_z
 _atom_site_occupancy
  Zr  Zr0  1  0.10242766  0.09632169  0.90494813  1
  Zr  Zr1  1  0.50162408  0.49718500  0.50063330  1
  Zr  Zr2  1  0.30367933  0.30131520  0.29360767  1
  Zr  Zr3  1  0.90165502  0.29855514  0.11268381  1
  Zr  Zr4  1  0.90753664  0.29846488  0.70284393  1
  Zr  Zr5  1  0.89041285  0.29636921  0.49742601  1
  Zr  Zr6  1  0.51018814  0.70633327  0.90750931  1
  Zr  Zr7  1  0.90762800  0.70117194  0.29779999  1
  Zr  Zr8  1  0.09254783  0.09710651  0.10506449  1
  Zr  Zr9  1  0.69375679  0.69811052  0.09110720  1
  Zr  Zr10  1  0.89932476  0.68857329  0.69937252  1
  Zr  Zr11  1  0.50710836  0.90302578  0.89523709  1
  Zr  Zr12  1  0.70050566  0.31370659  0.50113502  1
  Zr  Zr13  1  0.09990517  0.51581574  0.30362662  1
  Zr  Zr14  1  0.09649174  0.89696734  0.69531732  1
  Zr  Zr15  1  0.30006450  0.49671008  0.90385565  1
  Zr  Zr16  1  0.51060917  0.89789892  0.30036551  1
  Zr  Zr17  1  0.30380878  0.69913640  0.69732427  1
  Zr  Zr18  1  0.89619732  0.09934241  0.51096605  1
  Zr  Zr19  1  0.50718830  0.70732665  0.50914693  1
  Zr  Zr20  1  0.50712709  0.29847125  0.90059950  1
  Zr  Zr21  1  0.09749625  0.30015162  0.10167465  1
  Zr  Zr22  1  0.30226394  0.30559484  0.10216212  1
  Zr  Zr23  1  0.10147946  0.89127229  0.50476836  1
  Zr  Zr24  1  0.30283117  0.90188973  0.49716357  1
  Zr  Zr25  1  0.09469791  0.29868450  0.29078063  1
  Zr  Zr26  1  0.10366717  0.11101138  0.70693030  1
  Zr  Zr27  1  0.69525538  0.10401591  0.90694732  1
  Zr  Zr28  1  0.30175217  0.90092486  0.70174274  1
  Zr  Zr29  1  0.10433602  0.90816101  0.10028288  1
  Zr  Zr30  1  0.49575332  0.69304314  0.29656914  1
  Zr  Zr31  1  0.70464183  0.49533796  0.90598766  1
  Zr  Zr32  1  0.29535180  0.49598097  0.49788866  1
  Zr  Zr33  1  0.50369028  0.10084261  0.89443905  1
  Zr  Zr34  1  0.49741953  0.70055935  0.10322022  1
  Zr  Zr35  1  0.50091912  0.89641569  0.69631077  1
  Zr  Zr36  1  0.50064937  0.29625742  0.29677956  1
  Zr  Zr37  1  0.09878345  0.69860663  0.49413757  1
  Zr  Zr38  1  0.89987509  0.49399908  0.09674439  1
  Zr  Zr39  1  0.89432503  0.09834755  0.29589275  1
  Zr  Zr40  1  0.89220154  0.49561150  0.28925893  1
  Zr  Zr41  1  0.10397464  0.49859532  0.49965489  1
  Zr  Zr42  1  0.69902792  0.90131461  0.70427902  1
  Zr  Zr43  1  0.29220761  0.08568783  0.10879448  1
  Zr  Zr44  1  0.09659542  0.89579434  0.30264209  1
  Zr  Zr45  1  0.49859520  0.29910940  0.10417129  1
  Zr  Zr46  1  0.50107349  0.29960816  0.70299078  1
  Zr  Zr47  1  0.89117623  0.89688746  0.29419592  1
  Zr  Zr48  1  0.49061970  0.50481561  0.70051029  1
  Zr  Zr49  1  0.69591563  0.11754985  0.49420435  1
  Sc  Sc50  1  0.29918254  0.09539302  0.88364069  1
  Sc  Sc51  1  0.90329825  0.69778076  0.50220357  1
  Sc  Sc52  1  0.30198283  0.50446388  0.30188375  1
  Sc  Sc53  1  0.90782090  0.50835088  0.89819069  1
  Sc  Sc54  1  0.28226070  0.30136067  0.50626251  1
  Sc  Sc55  1  0.29666350  0.50194269  0.70773120  1
  Sc  Sc56  1  0.70963897  0.49825306  0.10147469  1
  Sc  Sc57  1  0.70667426  0.29676799  0.08942408  1
  Sc  Sc58  1  0.09495730  0.50080544  0.70639017  1
  Sc  Sc59  1  0.09888678  0.90090423  0.89519117  1
  Sc  Sc60  1  0.70166190  0.90208449  0.11005239  1
  Sc  Sc61  1  0.49926674  0.89418649  0.09881790  1
  Sc  Sc62  1  0.88586261  0.50345034  0.50702881  1
  Sc  Sc63  1  0.68860451  0.88959133  0.48953183  1
  Sc  Sc64  1  0.69439059  0.30482447  0.69345805  1
  Sc  Sc65  1  0.71615075  0.70648070  0.30503174  1
  Sc  Sc66  1  0.08913083  0.70077764  0.90172242  1
  Sc  Sc67  1  0.49638253  0.89602812  0.49608212  1
  Sc  Sc68  1  0.50114329  0.50491812  0.10747520  1
  Sc  Sc69  1  0.09528439  0.09320922  0.50221702  1
  Sc  Sc70  1  0.10280797  0.29992471  0.69911878  1
  Sc  Sc71  1  0.69478590  0.70144209  0.69999256  1
  Sc  Sc72  1  0.70809502  0.29103807  0.30843695  1
  Sc  Sc73  1  0.90910391  0.10064908  0.89811249  1
  Sc  Sc74  1  0.09859707  0.29875009  0.89186915  1
  Sc  Sc75  1  0.70945607  0.09304022  0.69977676  1
  Sc  Sc76  1  0.09990751  0.50569649  0.89990295  1
  Sc  Sc77  1  0.09685841  0.50477080  0.09981151  1
  Sc  Sc78  1  0.49049543  0.49846707  0.30248081  1
  Sc  Sc79  1  0.69815221  0.90186126  0.89204774  1
  Sc  Sc80  1  0.90581321  0.69773740  0.10201090  1
  Sc  Sc81  1  0.50720074  0.09926170  0.29045004  1
  Sc  Sc82  1  0.70513114  0.50029200  0.68742029  1
  Sc  Sc83  1  0.70422724  0.70388678  0.89612524  1
  Sc  Sc84  1  0.49241672  0.48895982  0.89817779  1
  Sc  Sc85  1  0.29729955  0.49616519  0.10036248  1
  Sc  Sc86  1  0.29990060  0.90092889  0.29442671  1
  Sc  Sc87  1  0.09401618  0.70462156  0.69338068  1
  Sc  Sc88  1  0.90477351  0.90486904  0.88848142  1
  Sc  Sc89  1  0.29497997  0.69363080  0.89621629  1
  Sc  Sc90  1  0.09956724  0.69934382  0.10594695  1
  Sc  Sc91  1  0.29573943  0.70323065  0.29312260  1
  Sc  Sc92  1  0.89743965  0.91471822  0.69669908  1
  Sc  Sc93  1  0.28562134  0.29171218  0.70389292  1
  Sc  Sc94  1  0.90541515  0.90622836  0.50112770  1
  Sc  Sc95  1  0.90684690  0.30525839  0.90996144  1
  Sc  Sc96  1  0.51454040  0.29515225  0.49923336  1
  Sc  Sc97  1  0.70535765  0.89998939  0.30171307  1
  Sc  Sc98  1  0.69761779  0.09800466  0.29271752  1
  Sc  Sc99  1  0.30047828  0.70883187  0.49563225  1
  Nb  Nb100  1  0.30005046  0.90129127  0.90237103  1
  Nb  Nb101  1  0.51119542  0.10131329  0.09615877  1
  Nb  Nb102  1  0.48719888  0.09396131  0.70080962  1
  Nb  Nb103  1  0.90273601  0.49881054  0.69876483  1
  Nb  Nb104  1  0.49526296  0.09860810  0.50142525  1
  Nb  Nb105  1  0.89995109  0.70332839  0.90043530  1
  Nb  Nb106  1  0.69714710  0.10320045  0.10263132  1
  Nb  Nb107  1  0.49606520  0.69798547  0.70261365  1
  Nb  Nb108  1  0.09825423  0.30123699  0.49706508  1
  Nb  Nb109  1  0.70002522  0.50017362  0.49759217  1
  Nb  Nb110  1  0.89442571  0.09667623  0.10299544  1
  Nb  Nb111  1  0.30647730  0.30096982  0.91286811  1
  Nb  Nb112  1  0.89838643  0.90327008  0.10613977  1
  Nb  Nb113  1  0.29936785  0.89517026  0.10036288  1
  Nb  Nb114  1  0.29641575  0.09802981  0.30381014  1
  Nb  Nb115  1  0.10095325  0.09798263  0.29710610  1
  Nb  Nb116  1  0.70149364  0.30100824  0.89614571  1
  Nb  Nb117  1  0.30697672  0.71173053  0.10369557  1
  Nb  Nb118  1  0.70351688  0.49654391  0.30344628  1
  Nb  Nb119  1  0.30150500  0.09798922  0.69374889  1
  Nb  Nb120  1  0.10133621  0.70073087  0.30427862  1
  Nb  Nb121  1  0.70377565  0.69935971  0.50230663  1
  Nb  Nb122  1  0.90130017  0.30061526  0.29913541  1
  Nb  Nb123  1  0.90305222  0.10057752  0.70364328  1
  Nb  Nb124  1  0.30130903  0.09556862  0.49776377  1
  Nb  Nb125  1  0.40197981  0.79909186  0.80191823  1
  Nb  Nb126  1  -0.00080537  0.39895137  0.59384017  1
  Nb  Nb127  1  -0.00385239  0.39625502  0.40020871  1
  Nb  Nb128  1  0.39368818  0.19333339  0.40346018  1
  Nb  Nb129  1  0.59539612  0.59820342  0.79940382  1
  Nb  Nb130  1  0.00137198  0.20143886  0.39611701  1
  Nb  Nb131  1  0.19767313  0.19395182  0.39541198  1
  Nb  Nb132  1  0.80223434  0.39797701  0.80101402  1
  Nb  Nb133  1  0.39748807  0.60529813  0.00335224  1
  Nb  Nb134  1  0.60696712  0.40004782  0.20585214  1
  Nb  Nb135  1  0.60957429  0.59851728  0.40367043  1
  Nb  Nb136  1  0.39839613  0.00090961  0.00013413  1
  Nb  Nb137  1  0.80080363  0.20645653  0.80388475  1
  Nb  Nb138  1  0.39865677  0.19135747  0.00202883  1
  Nb  Nb139  1  0.80935406  0.80739096  0.00054251  1
  Nb  Nb140  1  0.39806916  0.39219110  0.60162848  1
  Nb  Nb141  1  0.20614793  0.80363745  0.00370442  1
  Nb  Nb142  1  0.39697644  0.19486230  0.59754649  1
  Nb  Nb143  1  0.80300888  0.00122782  0.00605702  1
  Nb  Nb144  1  0.20594921  0.00278718  0.60123474  1
  Nb  Nb145  1  0.60094750  0.79221815  0.20135103  1
  Nb  Nb146  1  0.79651153  0.79815987  0.59839385  1
  Nb  Nb147  1  0.20808201  0.19905806  0.00145168  1
  Nb  Nb148  1  0.59236777  0.00593969  0.59706809  1
  Nb  Nb149  1  0.19841455  0.60165489  0.59678611  1
  Pd  Pd150  1  0.40813843  -0.00238908  0.19667145  1
  Pd  Pd151  1  0.60934930  0.41076718  0.79220452  1
  Pd  Pd152  1  0.80234174  0.59982803  0.40020812  1
  Pd  Pd153  1  0.19542607  -0.00283462  0.79382309  1
  Pd  Pd154  1  0.60368811  -0.00760944  0.00713028  1
  Pd  Pd155  1  0.39864274  0.79815509  0.39275921  1
  Pd  Pd156  1  -0.00298376  0.00465878  0.39563815  1
  Pd  Pd157  1  0.00105365  0.80606277  0.00286702  1
  Pd  Pd158  1  0.39136796  0.59617999  0.59130057  1
  Pd  Pd159  1  0.39771985  0.38360200  0.41243698  1
  Pd  Pd160  1  -0.01399259  0.59031438  0.40390837  1
  Pd  Pd161  1  0.39274877  0.20559457  0.80014731  1
  Pd  Pd162  1  0.19576729  0.41134052  0.20499415  1
  Pd  Pd163  1  0.79311650  0.00126415  0.40603742  1
  Pd  Pd164  1  0.78313988  -0.00989996  0.58579634  1
  Pd  Pd165  1  0.60940372  0.19304903  0.78797777  1
  Pd  Pd166  1  0.20457027  0.60333229  0.19528525  1
  Pd  Pd167  1  0.20175765  0.19811205  0.19742490  1
  Pd  Pd168  1  0.40102651  0.60637599  0.40725354  1
  Pd  Pd169  1  0.20064057  0.39799043  0.80420460  1
  Pd  Pd170  1  0.60403657  0.59770686  0.60118182  1
  Pd  Pd171  1  0.80784937  0.60795723  -0.00032014  1
  Pd  Pd172  1  0.39948845  0.18719716  0.19857903  1
  Pd  Pd173  1  0.79271622  0.59222222  0.79854314  1
  Pd  Pd174  1  0.80795509  0.80230045  0.79637459  1
  Pd  Pd175  1  0.00372344  0.80138907  0.19522643  1
  Pd  Pd176  1  0.59864289  0.40236463  0.01117110  1
  Pd  Pd177  1  -0.00699445  0.80193478  0.40343936  1
  Pd  Pd178  1  0.60001033  0.40330589  0.39160765  1
  Pd  Pd179  1  0.00696538  0.40444056  -0.00251673  1
  Pd  Pd180  1  0.59510003  0.19103271  0.60982445  1
  Pd  Pd181  1  0.38906716  0.38857426  0.79308552  1
  Pd  Pd182  1  0.18847411  0.60790812  0.79306577  1
  Pd  Pd183  1  0.39535496  0.80007822  -0.00889229  1
  Pd  Pd184  1  0.19561372  0.39410774  0.38747478  1
  Pd  Pd185  1  0.20152588  0.79544681  0.80716656  1
  Pd  Pd186  1  0.00315056  0.20036858  0.00227692  1
  Pd  Pd187  1  -0.00832326  -0.00668609  -0.00129662  1
  Pd  Pd188  1  0.18948550  0.39535747  -0.00409587  1
  Pd  Pd189  1  0.79492721  0.20464844  0.61140566  1
  Pd  Pd190  1  0.80728956  0.19538959  -0.00485992  1
  Pd  Pd191  1  0.61096084  0.59795957  0.21235726  1
  Pd  Pd192  1  -0.00815819  0.79972673  0.79184183  1
  Pd  Pd193  1  0.60164597  0.00657621  0.40453617  1
  Pd  Pd194  1  0.59182941  0.58601404  -0.00748944  1
  Pd  Pd195  1  0.19516288  -0.00096468  0.40309409  1
  Pd  Pd196  1  0.20388835  0.61028508  0.00779898  1
  Pd  Pd197  1  0.79784444  0.60563844  0.19611873  1
  Pd  Pd198  1  0.40766737  0.00277040  0.39052510  1
  Pd  Pd199  1  0.00508432  0.20242846  0.59515910  1
  Rh  Rh200  1  -0.00316764  0.20044003  0.80358922  1
  Rh  Rh201  1  0.00025222  0.60355150  0.80190193  1
  Rh  Rh202  1  0.20422771  0.20386753  0.81284253  1
  Rh  Rh203  1  0.79545856  0.60589710  0.60147013  1
  Rh  Rh204  1  0.19643586  0.41102635  0.61092381  1
  Rh  Rh205  1  -0.00564582  0.19075752  0.20307009  1
  Rh  Rh206  1  0.79449189  0.79236247  0.18780446  1
  Rh  Rh207  1  0.19954801  0.18856303  0.58849823  1
  Rh  Rh208  1  0.59245997  0.19604701  0.39272343  1
  Rh  Rh209  1  -0.00435993  0.40350266  0.79557936  1
  Rh  Rh210  1  0.80049494  0.01483868  0.81337839  1
  Rh  Rh211  1  0.00945948  0.00545475  0.60867444  1
  Rh  Rh212  1  0.40643220  0.40837002  0.19889957  1
  Rh  Rh213  1  0.40733923  0.40310793  0.00687684  1
  Rh  Rh214  1  -0.01681289  0.80170717  0.60422380  1
  Rh  Rh215  1  0.20575287  0.79969017  0.59777799  1
  Rh  Rh216  1  0.39791012  0.80082810  0.60413169  1
  Rh  Rh217  1  0.78961994  0.38979120  0.20157644  1
  Rh  Rh218  1  0.61656653  0.81198251  0.00525432  1
  Rh  Rh219  1  0.40008969  0.00021698  0.59618397  1
  Rh  Rh220  1  0.80688174  0.39811338  0.60746441  1
  Rh  Rh221  1  0.00038794  0.60015051  0.20026495  1
  Rh  Rh222  1  0.00755225  0.59078336  0.59819331  1
  Rh  Rh223  1  0.79467113  0.00464903  0.19595763  1
  Rh  Rh224  1  0.00587298  0.41139608  0.20528515  1
  Rh  Rh225  1  0.80648546  0.39826742  -0.00563150  1
  Rh  Rh226  1  0.59644140  0.20676773  0.00409624  1
  Rh  Rh227  1  0.59173986  0.40788045  0.60404402  1
  Rh  Rh228  1  -0.00178830  0.60212230  0.00089953  1
  Rh  Rh229  1  0.19595358  -0.00779463  0.21026168  1
  Rh  Rh230  1  0.61002782  0.20910898  0.19611548  1
  Rh  Rh231  1  0.00615636  0.00436646  0.79426220  1
  Rh  Rh232  1  0.80895923  0.80379958  0.41116284  1
  Rh  Rh233  1  0.20676058  -0.00092721  -0.00375401  1
  Rh  Rh234  1  -0.00144150  -0.00140952  0.20533523  1
  Rh  Rh235  1  0.60625623  0.80595649  0.60442933  1
  Rh  Rh236  1  0.19383518  0.80097177  0.19780527  1
  Rh  Rh237  1  0.20866143  0.60969381  0.40339988  1
  Rh  Rh238  1  0.40780770  0.80711328  0.20734658  1
  Rh  Rh239  1  0.40104700  -0.00837468  0.80605218  1
  Rh  Rh240  1  0.20139820  0.79992953  0.39350585  1
  Rh  Rh241  1  0.60023624  0.00893235  0.78774297  1
  Rh  Rh242  1  0.80670640  0.19282542  0.39582229  1
  Rh  Rh243  1  0.59497425  0.79114487  0.79446744  1
  Rh  Rh244  1  0.80450639  0.40311799  0.39785779  1
  Rh  Rh245  1  0.60047790  -0.00688228  0.19591440  1
  Rh  Rh246  1  0.60006661  0.78437738  0.38908905  1
  Rh  Rh247  1  0.79621729  0.20204719  0.19923799  1
  Rh  Rh248  1  0.41165035  0.61158374  0.81820600  1
  Rh  Rh249  1  0.38821017  0.59584938  0.19180532  1
