# generated using pymatgen
data_ZrScNbPdRh
_symmetry_space_group_name_H-M   'P 1'
_cell_length_a   16.55660814
_cell_length_b   16.55799304
_cell_length_c   16.55482535
_cell_angle_alpha   90.02058242
_cell_angle_beta   89.98087710
_cell_angle_gamma   89.97662879
_symmetry_Int_Tables_number   1
_chemical_formula_structural   ZrScNbPdRh
_chemical_formula_sum   'Zr50 Sc50 Nb50 Pd50 Rh50'
_cell_volume   4538.40846800
_cell_formula_units_Z   50
loop_
 _symmetry_equiv_pos_site_id
 _symmetry_equiv_pos_as_xyz
  1  'x, y, z'
loop_
 _atom_site_type_symbol
 _atom_site_label
 _atom_site_symmetry_multiplicity
 _atom_site_fract_x
 _atom_site_fract_y
 _atom_site_fract_z
 _atom_site_occupancy
  Zr  Zr0  1  0.30285047  0.70277764  0.50108888  1
  Zr  Zr1  1  0.30060528  0.90950157  0.89642216  1
  Zr  Zr2  1  0.29676850  0.09749026  0.90023844  1
  Zr  Zr3  1  0.10832105  0.50555454  0.89715094  1
  Zr  Zr4  1  0.70043138  0.09880821  0.09834189  1
  Zr  Zr5  1  0.09853579  0.30094855  0.11200404  1
  Zr  Zr6  1  0.30793157  0.09955116  0.49467582  1
  Zr  Zr7  1  0.90452677  0.30791676  0.70267840  1
  Zr  Zr8  1  0.29021565  0.69697565  0.89655152  1
  Zr  Zr9  1  0.09993941  0.09764961  0.29924272  1
  Zr  Zr10  1  0.50382722  0.70195756  0.70440738  1
  Zr  Zr11  1  0.69985659  0.50051428  0.90872739  1
  Zr  Zr12  1  0.09749839  0.90990977  0.69419447  1
  Zr  Zr13  1  0.11033179  0.09315676  0.49740403  1
  Zr  Zr14  1  0.30943968  0.70223159  0.69887234  1
  Zr  Zr15  1  0.30541792  0.49574526  0.70169954  1
  Zr  Zr16  1  0.50260782  0.50226506  0.29621148  1
  Zr  Zr17  1  0.10289138  0.90099686  0.49925230  1
  Zr  Zr18  1  0.69779295  0.49475858  0.28614302  1
  Zr  Zr19  1  0.10414968  0.30580427  0.71214108  1
  Zr  Zr20  1  0.90856592  0.10236451  0.70853378  1
  Zr  Zr21  1  0.29273937  0.50429834  0.49581370  1
  Zr  Zr22  1  0.29982655  0.30049944  0.70123801  1
  Zr  Zr23  1  0.30147885  0.09644589  0.10092617  1
  Zr  Zr24  1  0.29527711  0.28975962  0.30087287  1
  Zr  Zr25  1  0.49843743  0.90849497  0.50013446  1
  Zr  Zr26  1  0.89961445  0.69766504  0.90254296  1
  Zr  Zr27  1  0.10651006  0.70993332  0.09931585  1
  Zr  Zr28  1  0.30301038  0.30361854  0.89126032  1
  Zr  Zr29  1  0.09424618  0.09915693  0.09687243  1
  Zr  Zr30  1  0.69130030  0.09438097  0.89966371  1
  Zr  Zr31  1  0.29477094  0.89895825  0.09933689  1
  Zr  Zr32  1  0.69866483  0.30264888  0.50161556  1
  Zr  Zr33  1  0.90471291  0.89893583  0.29792136  1
  Zr  Zr34  1  0.09968595  0.89177936  0.29867897  1
  Zr  Zr35  1  0.08975913  0.50402570  0.49943729  1
  Zr  Zr36  1  0.49435225  0.09562378  0.89548675  1
  Zr  Zr37  1  0.89590580  0.29885425  0.30294563  1
  Zr  Zr38  1  0.89902807  0.08446764  0.10446742  1
  Zr  Zr39  1  0.30461210  0.90410548  0.30012012  1
  Zr  Zr40  1  0.89945784  0.10324223  0.90101774  1
  Zr  Zr41  1  0.69941374  0.30735474  0.10099509  1
  Zr  Zr42  1  0.90074466  0.69382575  0.69829119  1
  Zr  Zr43  1  0.49605061  0.70194959  0.50377917  1
  Zr  Zr44  1  0.50662821  0.89871287  0.70264622  1
  Zr  Zr45  1  0.29570161  0.89554393  0.70020379  1
  Zr  Zr46  1  0.29992385  0.09742886  0.70826976  1
  Zr  Zr47  1  0.90534512  0.49815031  0.30144098  1
  Zr  Zr48  1  0.71718022  0.10115429  0.30406484  1
  Zr  Zr49  1  0.49455146  0.30713552  0.70052575  1
  Sc  Sc50  1  0.90905313  0.69614871  0.50181329  1
  Sc  Sc51  1  0.30292148  0.69999384  0.09128724  1
  Sc  Sc52  1  0.48902104  0.09407795  0.30084436  1
  Sc  Sc53  1  0.89210566  0.09781337  0.48991702  1
  Sc  Sc54  1  0.29768499  0.51223703  0.30405612  1
  Sc  Sc55  1  0.90130110  0.30188348  0.10025553  1
  Sc  Sc56  1  0.70349816  0.69930822  0.09789262  1
  Sc  Sc57  1  0.90220883  0.31034089  0.50397404  1
  Sc  Sc58  1  0.70049941  0.09324395  0.49983090  1
  Sc  Sc59  1  0.90309933  0.89321438  0.91058217  1
  Sc  Sc60  1  0.10751577  0.31127484  0.49804193  1
  Sc  Sc61  1  0.49773339  0.89162109  0.09945279  1
  Sc  Sc62  1  0.50123106  0.50087765  0.89985538  1
  Sc  Sc63  1  0.09861900  0.70065323  0.49041070  1
  Sc  Sc64  1  0.50417580  0.29615582  0.29349645  1
  Sc  Sc65  1  0.30533193  0.29773921  0.10250651  1
  Sc  Sc66  1  0.49704331  0.50553482  0.09372762  1
  Sc  Sc67  1  0.90241115  0.29863550  0.89184673  1
  Sc  Sc68  1  0.10459488  0.89478328  0.89740930  1
  Sc  Sc69  1  0.70341512  0.90102210  0.51028629  1
  Sc  Sc70  1  0.30133345  0.29686858  0.50003392  1
  Sc  Sc71  1  0.70313927  0.49817540  0.70505720  1
  Sc  Sc72  1  0.69615265  0.69077714  0.89701551  1
  Sc  Sc73  1  0.88674130  0.49727888  0.09792665  1
  Sc  Sc74  1  0.09618672  0.09884015  0.89134811  1
  Sc  Sc75  1  0.30039647  0.70149020  0.30895562  1
  Sc  Sc76  1  0.50214524  0.49390168  0.50204481  1
  Sc  Sc77  1  0.69699037  0.09456853  0.69861202  1
  Sc  Sc78  1  0.70739394  0.70674848  0.50694435  1
  Sc  Sc79  1  0.49655701  0.89988727  0.29452731  1
  Sc  Sc80  1  0.49949813  0.29653047  0.50927039  1
  Sc  Sc81  1  0.30269112  0.10230112  0.30461746  1
  Sc  Sc82  1  0.10039218  0.70221011  0.71412994  1
  Sc  Sc83  1  0.49967196  0.29742916  0.09677690  1
  Sc  Sc84  1  0.50298038  0.90112552  0.90043505  1
  Sc  Sc85  1  0.09130257  0.89809317  0.09833436  1
  Sc  Sc86  1  0.50048949  0.69554544  0.90020348  1
  Sc  Sc87  1  0.70610215  0.89807093  0.30386100  1
  Sc  Sc88  1  0.09642537  0.49475998  0.69893140  1
  Sc  Sc89  1  0.09925838  0.49725278  0.11022687  1
  Sc  Sc90  1  0.68763182  0.90151094  0.90254249  1
  Sc  Sc91  1  0.49633009  0.69762919  0.29396387  1
  Sc  Sc92  1  0.09751316  0.49434506  0.30763209  1
  Sc  Sc93  1  0.89264804  0.50192599  0.89560504  1
  Sc  Sc94  1  0.69843912  0.30878756  0.89880442  1
  Sc  Sc95  1  0.49878106  0.10389748  0.09825391  1
  Sc  Sc96  1  0.69729706  0.30849539  0.70063450  1
  Sc  Sc97  1  0.70461103  0.70106675  0.29258159  1
  Sc  Sc98  1  0.31021326  0.50828495  0.90577228  1
  Sc  Sc99  1  0.69816502  0.29873882  0.29331066  1
  Nb  Nb100  1  0.70357052  0.49247298  0.09567723  1
  Nb  Nb101  1  0.09836000  0.69646386  0.90452317  1
  Nb  Nb102  1  0.89997362  0.89824372  0.69582273  1
  Nb  Nb103  1  0.09348655  0.29941845  0.30019193  1
  Nb  Nb104  1  0.49448943  0.30160834  0.89596993  1
  Nb  Nb105  1  0.69959999  0.49945562  0.50162020  1
  Nb  Nb106  1  0.89431005  0.89415054  0.09876840  1
  Nb  Nb107  1  0.29665711  0.90050434  0.50242031  1
  Nb  Nb108  1  0.29854833  0.50121827  0.09621944  1
  Nb  Nb109  1  0.10094531  0.10004498  0.69651705  1
  Nb  Nb110  1  0.49902852  0.10480319  0.50166700  1
  Nb  Nb111  1  0.90616190  0.89234677  0.50776535  1
  Nb  Nb112  1  0.89984821  0.50217495  0.50711057  1
  Nb  Nb113  1  0.89964915  0.09689400  0.30128436  1
  Nb  Nb114  1  0.90478940  0.49746995  0.68333447  1
  Nb  Nb115  1  0.69959092  0.89358612  0.70235539  1
  Nb  Nb116  1  0.49569436  0.10556110  0.69343849  1
  Nb  Nb117  1  0.69215615  0.70824916  0.70016424  1
  Nb  Nb118  1  0.09383761  0.70190982  0.29709156  1
  Nb  Nb119  1  0.49997062  0.70172223  0.09917027  1
  Nb  Nb120  1  0.70284332  0.90574754  0.10036310  1
  Nb  Nb121  1  0.90139680  0.70853014  0.09603117  1
  Nb  Nb122  1  0.10210048  0.30681300  0.89992547  1
  Nb  Nb123  1  0.50324298  0.50148423  0.70386221  1
  Nb  Nb124  1  0.90450036  0.70173390  0.30041319  1
  Nb  Nb125  1  0.60774288  -0.00135815  0.19712379  1
  Nb  Nb126  1  0.40050132  0.39936631  0.39270728  1
  Nb  Nb127  1  -0.00274180  0.60981222  0.19762068  1
  Nb  Nb128  1  0.20157961  0.60093250  0.59936919  1
  Nb  Nb129  1  0.00197879  0.60228771  0.00465658  1
  Nb  Nb130  1  0.59904491  0.19239410  0.40382823  1
  Nb  Nb131  1  0.60872054  0.60107373  0.40488922  1
  Nb  Nb132  1  0.79805435  0.19626496  -0.00100861  1
  Nb  Nb133  1  0.19495732  0.20652898  -0.00368924  1
  Nb  Nb134  1  0.00456315  0.19894472  0.59752033  1
  Nb  Nb135  1  0.20004692  0.39830315  0.00175718  1
  Nb  Nb136  1  0.39602231  0.40560889  0.20236202  1
  Nb  Nb137  1  0.79803221  0.80251174  0.79305266  1
  Nb  Nb138  1  0.00675788  0.40359626  -0.00378707  1
  Nb  Nb139  1  0.79610698  0.40929225  0.40378180  1
  Nb  Nb140  1  0.80193321  -0.01155040  0.79545577  1
  Nb  Nb141  1  0.80644996  0.20178147  0.60359536  1
  Nb  Nb142  1  0.60346461  0.60043456  0.60171436  1
  Nb  Nb143  1  0.19690876  0.19615763  0.60501812  1
  Nb  Nb144  1  0.59006814  0.20162926  0.79821351  1
  Nb  Nb145  1  0.79994465  0.59460796  0.40165113  1
  Nb  Nb146  1  0.59985417  0.79648488  0.40258051  1
  Nb  Nb147  1  0.00148225  0.20104562  0.39878374  1
  Nb  Nb148  1  0.19416361  0.60659361  0.20142740  1
  Nb  Nb149  1  0.19789350  -0.00225862  0.19967676  1
  Pd  Pd150  1  0.39074855  0.60134667  0.19513318  1
  Pd  Pd151  1  0.60320586  0.79513745  -0.00012301  1
  Pd  Pd152  1  0.39433253  0.79159295  0.19829948  1
  Pd  Pd153  1  0.80554703  -0.01519030  0.40644893  1
  Pd  Pd154  1  0.20794917  0.40764551  0.20393695  1
  Pd  Pd155  1  0.20171181  0.79966663  0.39894083  1
  Pd  Pd156  1  0.39307187  0.20241424  -0.00304362  1
  Pd  Pd157  1  0.78578353  0.19622282  0.79898975  1
  Pd  Pd158  1  0.59071593  0.39936718  0.00047452  1
  Pd  Pd159  1  0.80623324  0.60259201  0.19871624  1
  Pd  Pd160  1  -0.00149974  0.20881893  -0.00283464  1
  Pd  Pd161  1  0.60912287  0.19814890  0.60204532  1
  Pd  Pd162  1  0.79631775  0.60158563  0.79336674  1
  Pd  Pd163  1  0.20122952  0.19208414  0.19601469  1
  Pd  Pd164  1  0.40343186  0.59258535  0.59850000  1
  Pd  Pd165  1  0.60268818  0.20633708  -0.00963063  1
  Pd  Pd166  1  -0.00972226  0.00832570  0.59122708  1
  Pd  Pd167  1  0.40262522  0.80153092  0.80876038  1
  Pd  Pd168  1  0.60182952  0.60248715  0.19280643  1
  Pd  Pd169  1  0.19146642  0.79091186  0.60231231  1
  Pd  Pd170  1  -0.00422029  0.80479469  0.80122546  1
  Pd  Pd171  1  0.79886448  -0.00193504  -0.01033272  1
  Pd  Pd172  1  0.78687392  0.79820614  -0.00947572  1
  Pd  Pd173  1  0.40828278  -0.00437573  0.00531902  1
  Pd  Pd174  1  0.20564793  0.39875577  0.39352477  1
  Pd  Pd175  1  0.79995133  0.80204369  0.19870702  1
  Pd  Pd176  1  0.39869333  0.79620348  -0.00856321  1
  Pd  Pd177  1  0.39849180  0.40193734  0.59104143  1
  Pd  Pd178  1  -0.00998833  0.19655283  0.20547617  1
  Pd  Pd179  1  0.79349264  0.60105301  0.59965189  1
  Pd  Pd180  1  0.59772291  0.39432709  0.39893432  1
  Pd  Pd181  1  -0.00291048  0.59245562  0.80166361  1
  Pd  Pd182  1  -0.00351989  -0.00962384  0.80797496  1
  Pd  Pd183  1  0.00359625  -0.00692755  -0.00634810  1
  Pd  Pd184  1  0.20149976  0.80507785  -0.00659995  1
  Pd  Pd185  1  0.80664477  0.00581808  0.60547915  1
  Pd  Pd186  1  0.80251971  0.40561269  0.79958085  1
  Pd  Pd187  1  0.80533642  0.79673765  0.60285271  1
  Pd  Pd188  1  0.20356917  0.59722398  0.78979212  1
  Pd  Pd189  1  0.01057222  0.79065289  0.60178661  1
  Pd  Pd190  1  0.39679424  -0.00199154  0.60438582  1
  Pd  Pd191  1  -0.00317735  0.00072025  0.40343124  1
  Pd  Pd192  1  0.80680356  0.20135581  0.18989207  1
  Pd  Pd193  1  0.59685667  0.18664486  0.20977390  1
  Pd  Pd194  1  0.60026094  0.00097070  0.60343775  1
  Pd  Pd195  1  0.40668284  0.80520664  0.39954972  1
  Pd  Pd196  1  0.60301255  0.80480676  0.20445474  1
  Pd  Pd197  1  0.59967348  0.60237783  0.00694258  1
  Pd  Pd198  1  0.80195126  0.79567347  0.40448538  1
  Pd  Pd199  1  0.59899411  -0.00081106  0.39088944  1
  Rh  Rh200  1  0.39606719  0.39912509  0.00426692  1
  Rh  Rh201  1  0.40587452  -0.00418586  0.79286591  1
  Rh  Rh202  1  0.80803965  0.39047393  -0.00453788  1
  Rh  Rh203  1  0.59827232  0.00577328  0.79082871  1
  Rh  Rh204  1  0.20004276  0.40273483  0.60129200  1
  Rh  Rh205  1  0.18920333  0.20512532  0.40662733  1
  Rh  Rh206  1  0.20888266  0.41079965  0.80696597  1
  Rh  Rh207  1  0.19459976  0.19493278  0.80175220  1
  Rh  Rh208  1  0.40016913  -0.00250742  0.40328428  1
  Rh  Rh209  1  0.59141846  -0.00496684  0.01361250  1
  Rh  Rh210  1  0.00890537  0.20295571  0.79738056  1
  Rh  Rh211  1  0.39952380  -0.00062538  0.19377625  1
  Rh  Rh212  1  0.40296327  0.81117511  0.60006675  1
  Rh  Rh213  1  0.41367567  0.20896184  0.40001924  1
  Rh  Rh214  1  0.19267024  0.00599296  0.00447253  1
  Rh  Rh215  1  0.40339652  0.60068989  0.80211863  1
  Rh  Rh216  1  0.00162987  -0.00678342  0.20024028  1
  Rh  Rh217  1  -0.00657320  0.40932676  0.80640372  1
  Rh  Rh218  1  -0.00659813  0.39412841  0.40333073  1
  Rh  Rh219  1  0.79856619  -0.00745483  0.20386869  1
  Rh  Rh220  1  0.80232350  0.60164652  0.00466597  1
  Rh  Rh221  1  0.40609931  0.19822093  0.79752461  1
  Rh  Rh222  1  0.79780990  0.39662380  0.59930266  1
  Rh  Rh223  1  0.41221048  0.59203697  0.40332495  1
  Rh  Rh224  1  0.80266910  0.39583774  0.20320421  1
  Rh  Rh225  1  0.58966405  0.40377404  0.18558913  1
  Rh  Rh226  1  0.20815349  0.79990580  0.20480425  1
  Rh  Rh227  1  0.59654819  0.79903514  0.59214147  1
  Rh  Rh228  1  0.00704106  0.39521683  0.59844712  1
  Rh  Rh229  1  -0.00581512  0.60232122  0.39405560  1
  Rh  Rh230  1  0.40419451  0.40928179  0.80518314  1
  Rh  Rh231  1  0.21071227  0.00452756  0.60040010  1
  Rh  Rh232  1  0.20582939  -0.00678801  0.39296878  1
  Rh  Rh233  1  0.38944414  0.19821812  0.60244475  1
  Rh  Rh234  1  0.79970596  0.21067786  0.40953318  1
  Rh  Rh235  1  0.19799607  0.80134204  0.80109823  1
  Rh  Rh236  1  0.01096029  0.60507592  0.60606058  1
  Rh  Rh237  1  0.19196929  0.59264731  0.01065088  1
  Rh  Rh238  1  0.40164811  0.20489206  0.20144633  1
  Rh  Rh239  1  0.19111430  0.60524895  0.39920915  1
  Rh  Rh240  1  0.60385391  0.79696219  0.80982941  1
  Rh  Rh241  1  0.00242215  0.79658009  0.00013032  1
  Rh  Rh242  1  0.19303875  -0.00256721  0.79876481  1
  Rh  Rh243  1  -0.00609449  0.40571615  0.19536986  1
  Rh  Rh244  1  0.59936736  0.40964474  0.60677041  1
  Rh  Rh245  1  0.60165199  0.59528992  0.79377116  1
  Rh  Rh246  1  -0.00750618  0.79998978  0.19565417  1
  Rh  Rh247  1  0.59540934  0.39797786  0.80278596  1
  Rh  Rh248  1  0.40435104  0.60730088  0.00096515  1
  Rh  Rh249  1  -0.00392262  0.80331817  0.40427962  1
