# generated using pymatgen
data_ZrScNbPdRh
_symmetry_space_group_name_H-M   'P 1'
_cell_length_a   16.55408171
_cell_length_b   16.55596303
_cell_length_c   16.55039264
_cell_angle_alpha   89.98999119
_cell_angle_beta   89.96164895
_cell_angle_gamma   89.98370613
_symmetry_Int_Tables_number   1
_chemical_formula_structural   ZrScNbPdRh
_chemical_formula_sum   'Zr50 Sc50 Nb50 Pd50 Rh50'
_cell_volume   4535.94439894
_cell_formula_units_Z   50
loop_
 _symmetry_equiv_pos_site_id
 _symmetry_equiv_pos_as_xyz
  1  'x, y, z'
loop_
 _atom_site_type_symbol
 _atom_site_label
 _atom_site_symmetry_multiplicity
 _atom_site_fract_x
 _atom_site_fract_y
 _atom_site_fract_z
 _atom_site_occupancy
  Zr  Zr0  1  0.50017425  0.50735948  0.30097281  1
  Zr  Zr1  1  0.69992128  0.30425968  0.10003314  1
  Zr  Zr2  1  0.69620634  0.69682497  0.29335731  1
  Zr  Zr3  1  0.09463673  0.09925145  0.49981619  1
  Zr  Zr4  1  0.30649021  0.09073122  0.89986793  1
  Zr  Zr5  1  0.89477783  0.30090358  0.29567905  1
  Zr  Zr6  1  0.49767171  0.09487073  0.70649558  1
  Zr  Zr7  1  0.70643952  0.69551649  0.70860208  1
  Zr  Zr8  1  0.70646837  0.70615535  0.50509242  1
  Zr  Zr9  1  0.51536858  0.29503044  0.90141935  1
  Zr  Zr10  1  0.89248038  0.69825679  0.89425101  1
  Zr  Zr11  1  0.69944410  0.89419310  0.10481011  1
  Zr  Zr12  1  0.49681335  0.69598923  0.29575507  1
  Zr  Zr13  1  0.69577608  0.70184586  0.09609504  1
  Zr  Zr14  1  0.49850199  0.69599640  0.49905950  1
  Zr  Zr15  1  0.90146181  0.30175249  0.90598204  1
  Zr  Zr16  1  0.69966945  0.10533081  0.29800735  1
  Zr  Zr17  1  0.09694001  0.30501039  0.89881097  1
  Zr  Zr18  1  0.09069321  0.69470867  0.89497779  1
  Zr  Zr19  1  0.10079373  0.69608580  0.30761433  1
  Zr  Zr20  1  0.70675046  0.90173701  0.29902867  1
  Zr  Zr21  1  0.48893988  0.09417329  0.50657328  1
  Zr  Zr22  1  0.29983903  0.89315723  0.30087419  1
  Zr  Zr23  1  0.49987039  0.69116564  0.10228611  1
  Zr  Zr24  1  0.89752621  0.89911140  0.89398407  1
  Zr  Zr25  1  0.10099637  0.90567491  0.10238109  1
  Zr  Zr26  1  0.09681811  0.49903930  0.89585454  1
  Zr  Zr27  1  0.89415615  0.69508902  0.10053258  1
  Zr  Zr28  1  0.89638766  0.90308463  0.09860353  1
  Zr  Zr29  1  0.09125714  0.89004368  0.50238411  1
  Zr  Zr30  1  0.69435416  0.48925439  0.50102242  1
  Zr  Zr31  1  0.49343676  0.89800267  0.30752242  1
  Zr  Zr32  1  0.90193021  0.09593555  0.69515762  1
  Zr  Zr33  1  0.89274108  0.90201031  0.50129023  1
  Zr  Zr34  1  0.09913527  0.50382625  0.09899627  1
  Zr  Zr35  1  0.30265971  0.50917617  0.70350990  1
  Zr  Zr36  1  0.30390035  0.89910321  0.49862102  1
  Zr  Zr37  1  0.90271544  0.90004478  0.70119403  1
  Zr  Zr38  1  0.69220883  0.10270624  0.90080578  1
  Zr  Zr39  1  0.89197755  0.09786084  0.90344563  1
  Zr  Zr40  1  0.30076993  0.10099823  0.10619926  1
  Zr  Zr41  1  0.11092153  0.09953762  0.89636036  1
  Zr  Zr42  1  0.10232768  0.89142395  0.29692551  1
  Zr  Zr43  1  0.10921921  0.30783472  0.09919543  1
  Zr  Zr44  1  0.29827371  0.50046366  0.09779106  1
  Zr  Zr45  1  0.10238200  0.70505535  0.69632376  1
  Zr  Zr46  1  0.29573682  0.69500582  0.88824463  1
  Zr  Zr47  1  0.29675012  0.11156559  0.70585336  1
  Zr  Zr48  1  0.29660972  0.89621742  0.09855487  1
  Zr  Zr49  1  0.50644113  0.29958504  0.29806805  1
  Sc  Sc50  1  0.90159900  0.70615427  0.70813235  1
  Sc  Sc51  1  0.49495236  0.89729704  0.51625128  1
  Sc  Sc52  1  0.29999496  0.10427872  0.50479913  1
  Sc  Sc53  1  0.30329909  0.50959327  0.30414922  1
  Sc  Sc54  1  0.10756705  0.90259910  0.89734539  1
  Sc  Sc55  1  0.29889752  0.90066780  0.90578271  1
  Sc  Sc56  1  0.88909783  0.30187093  0.09571497  1
  Sc  Sc57  1  0.09865333  0.50463856  0.29998688  1
  Sc  Sc58  1  0.50877924  0.10453061  0.10687681  1
  Sc  Sc59  1  0.70371033  0.09518053  0.69788885  1
  Sc  Sc60  1  0.69454382  0.30726660  0.69062270  1
  Sc  Sc61  1  0.91094469  0.30211400  0.68677577  1
  Sc  Sc62  1  0.49681610  0.29857338  0.70229665  1
  Sc  Sc63  1  0.30709739  0.88921839  0.71084925  1
  Sc  Sc64  1  0.88936396  0.09728700  0.29718537  1
  Sc  Sc65  1  0.90929517  0.49325241  0.30336465  1
  Sc  Sc66  1  0.49946119  0.88611886  0.10198849  1
  Sc  Sc67  1  0.50177335  0.10460180  0.29820432  1
  Sc  Sc68  1  0.50369915  0.31128013  0.49538805  1
  Sc  Sc69  1  0.70993857  0.09836249  0.49886490  1
  Sc  Sc70  1  0.50125494  0.69043798  0.90650897  1
  Sc  Sc71  1  0.69727033  0.49879673  0.70444188  1
  Sc  Sc72  1  0.69618577  0.49793815  0.29948584  1
  Sc  Sc73  1  0.49412602  0.91348892  0.89829051  1
  Sc  Sc74  1  0.30814175  0.70177622  0.09995324  1
  Sc  Sc75  1  0.70487197  0.09436104  0.10367947  1
  Sc  Sc76  1  0.70136663  0.90449304  0.90485382  1
  Sc  Sc77  1  0.89631765  0.49989218  0.10349653  1
  Sc  Sc78  1  0.89969469  0.09965911  0.50286460  1
  Sc  Sc79  1  0.70581195  0.89895298  0.69110136  1
  Sc  Sc80  1  0.30104201  0.29621645  0.89017657  1
  Sc  Sc81  1  0.09821153  0.70113300  0.11045465  1
  Sc  Sc82  1  0.91234634  0.70707405  0.50296236  1
  Sc  Sc83  1  0.90917013  0.50606477  0.89997240  1
  Sc  Sc84  1  0.29733760  0.10470960  0.30593251  1
  Sc  Sc85  1  0.30454099  0.50220628  0.89398106  1
  Sc  Sc86  1  0.30127855  0.51025635  0.49738526  1
  Sc  Sc87  1  0.09018657  0.49921203  0.69474827  1
  Sc  Sc88  1  0.50038569  0.50224791  0.89112865  1
  Sc  Sc89  1  0.48748843  0.70155798  0.69868660  1
  Sc  Sc90  1  0.49943120  0.49849757  0.48676249  1
  Sc  Sc91  1  0.10514817  0.09814076  0.29880998  1
  Sc  Sc92  1  0.09869610  0.30206646  0.50673325  1
  Sc  Sc93  1  0.89928047  0.89841568  0.29901090  1
  Sc  Sc94  1  0.69829081  0.50698650  0.89382805  1
  Sc  Sc95  1  0.08958110  0.50633037  0.49376229  1
  Sc  Sc96  1  0.89871770  0.30846801  0.49810502  1
  Sc  Sc97  1  0.10450866  0.30462627  0.30162807  1
  Sc  Sc98  1  0.89840489  0.09959935  0.09467398  1
  Sc  Sc99  1  0.70092033  0.49687303  0.09930966  1
  Nb  Nb100  1  0.89997492  0.49759830  0.69781016  1
  Nb  Nb101  1  0.69809957  0.69924778  0.89303599  1
  Nb  Nb102  1  0.49999128  0.10365399  0.89799848  1
  Nb  Nb103  1  0.30343936  0.29766015  0.30220121  1
  Nb  Nb104  1  0.29448009  0.30072817  0.68903171  1
  Nb  Nb105  1  0.49204691  0.50086436  0.09966536  1
  Nb  Nb106  1  0.09970219  0.10088154  0.70039540  1
  Nb  Nb107  1  0.09503591  0.90959938  0.70203774  1
  Nb  Nb108  1  0.30485534  0.29870110  0.10535652  1
  Nb  Nb109  1  0.70844650  0.30261048  0.90409244  1
  Nb  Nb110  1  0.10761911  0.70195587  0.49843228  1
  Nb  Nb111  1  0.90087289  0.49964716  0.50107283  1
  Nb  Nb112  1  0.29667232  0.70288456  0.30796833  1
  Nb  Nb113  1  0.29121437  0.70228262  0.50777260  1
  Nb  Nb114  1  0.50321666  0.49878739  0.69703439  1
  Nb  Nb115  1  0.10361069  0.29583596  0.69848086  1
  Nb  Nb116  1  0.90016463  0.69079277  0.29586449  1
  Nb  Nb117  1  0.69262169  0.30029324  0.49401394  1
  Nb  Nb118  1  0.70203053  0.89671760  0.49743438  1
  Nb  Nb119  1  0.70203043  0.29424113  0.30156206  1
  Nb  Nb120  1  0.49965695  0.30231307  0.10282223  1
  Nb  Nb121  1  0.10200543  0.10119876  0.09787721  1
  Nb  Nb122  1  0.50284432  0.89641036  0.70282804  1
  Nb  Nb123  1  0.29999870  0.30152276  0.50031882  1
  Nb  Nb124  1  0.29760493  0.69384235  0.69604254  1
  Nb  Nb125  1  0.60186422  0.59813586  0.60128289  1
  Nb  Nb126  1  0.39365621  0.40047265  0.60205598  1
  Nb  Nb127  1  0.19461254  -0.00214126  0.60554433  1
  Nb  Nb128  1  0.40526137  0.39258608  0.00469358  1
  Nb  Nb129  1  0.20600647  0.20079989  0.00479360  1
  Nb  Nb130  1  0.00162758  0.19873965  0.79719121  1
  Nb  Nb131  1  0.80368254  0.59376027  0.59680263  1
  Nb  Nb132  1  0.40045546  0.39660197  0.19829322  1
  Nb  Nb133  1  0.19838755  -0.00702586  0.40806081  1
  Nb  Nb134  1  0.80665193  0.39501425  0.80059591  1
  Nb  Nb135  1  0.40332628  0.20312410  0.00285648  1
  Nb  Nb136  1  0.59818025  0.19921986  0.59345741  1
  Nb  Nb137  1  0.60266954  0.80342156  0.40348654  1
  Nb  Nb138  1  0.19722263  0.59965310  -0.00320769  1
  Nb  Nb139  1  0.00365550  0.20050494  0.19662277  1
  Nb  Nb140  1  0.20830679  0.39697110  0.40349156  1
  Nb  Nb141  1  0.39748875  -0.00268975  0.20207683  1
  Nb  Nb142  1  0.19982593  0.39554276  0.78759082  1
  Nb  Nb143  1  -0.00304556  0.79993531  -0.00048307  1
  Nb  Nb144  1  0.39819260  0.20929771  0.40234481  1
  Nb  Nb145  1  0.59845157  0.80069956  0.79939481  1
  Nb  Nb146  1  0.60123475  -0.00661264  0.40579267  1
  Nb  Nb147  1  0.80612445  0.59805788  0.40595901  1
  Nb  Nb148  1  -0.00089991  0.20233302  0.39317953  1
  Nb  Nb149  1  0.80274485  0.20810903  0.79959486  1
  Pd  Pd150  1  0.79685020  0.40452244  0.39489713  1
  Pd  Pd151  1  0.00494104  -0.00454494  -0.00601455  1
  Pd  Pd152  1  0.19418277  0.20138187  0.20078376  1
  Pd  Pd153  1  0.60316674  0.59170098  0.00117377  1
  Pd  Pd154  1  0.20545048  0.00049257  0.20765109  1
  Pd  Pd155  1  0.60248495  0.19733325  0.00885428  1
  Pd  Pd156  1  0.40274845  0.79271012  0.40733278  1
  Pd  Pd157  1  -0.00626625  0.79586592  0.39490016  1
  Pd  Pd158  1  0.59609100  0.41014602  -0.00425073  1
  Pd  Pd159  1  0.38665132  -0.00513536  0.61536678  1
  Pd  Pd160  1  0.21286960  0.39964254  -0.01320945  1
  Pd  Pd161  1  0.80143984  0.79917884  -0.00401530  1
  Pd  Pd162  1  0.59829719  0.79368792  0.60471346  1
  Pd  Pd163  1  0.40834897  0.79585722  0.81065426  1
  Pd  Pd164  1  0.20574794  0.60601696  0.19741060  1
  Pd  Pd165  1  -0.00135018  0.39536509  0.19555292  1
  Pd  Pd166  1  0.60711932  0.39716975  0.80022399  1
  Pd  Pd167  1  0.61096855  0.20246876  0.78774662  1
  Pd  Pd168  1  0.20070074  0.41214250  0.59611549  1
  Pd  Pd169  1  0.59427452  -0.00225681  0.00604699  1
  Pd  Pd170  1  0.60547144  -0.00871931  0.79766156  1
  Pd  Pd171  1  0.59826741  0.40464293  0.20243314  1
  Pd  Pd172  1  -0.00744548  0.40418685  0.00961340  1
  Pd  Pd173  1  0.19568301  0.19450540  0.59415531  1
  Pd  Pd174  1  -0.00378613  0.00941617  0.20326883  1
  Pd  Pd175  1  0.40697240  0.59342996  0.59570251  1
  Pd  Pd176  1  0.79518819  0.59461940  -0.00424201  1
  Pd  Pd177  1  -0.00527908  0.60654100  0.60242985  1
  Pd  Pd178  1  0.00050796  0.00655384  0.80684332  1
  Pd  Pd179  1  0.59196597  -0.00535196  0.20588434  1
  Pd  Pd180  1  0.00764110  0.19967325  0.00255128  1
  Pd  Pd181  1  0.79419472  0.20710816  0.60168956  1
  Pd  Pd182  1  0.79977280  0.58923760  0.20784574  1
  Pd  Pd183  1  0.40233436  0.20497841  0.80392569  1
  Pd  Pd184  1  0.59290193  0.19041470  0.40955870  1
  Pd  Pd185  1  0.60620598  0.00493759  0.59550295  1
  Pd  Pd186  1  0.80752146  0.20168942  0.40604721  1
  Pd  Pd187  1  0.41152846  0.00639647  0.01294448  1
  Pd  Pd188  1  -0.00731616  0.79642807  0.19678616  1
  Pd  Pd189  1  0.19148694  0.78952373  0.00114423  1
  Pd  Pd190  1  0.39702518  0.39562087  0.79772835  1
  Pd  Pd191  1  0.59347127  0.80377439  -0.01199300  1
  Pd  Pd192  1  0.19614451  0.80301615  0.79760944  1
  Pd  Pd193  1  0.40316532  0.79588077  -0.00876235  1
  Pd  Pd194  1  0.79949501  0.40000439  0.60409571  1
  Pd  Pd195  1  0.20797089  0.40571764  0.21322341  1
  Pd  Pd196  1  0.80245478  0.79055229  0.39282949  1
  Pd  Pd197  1  0.19215424  0.59334256  0.59673746  1
  Pd  Pd198  1  0.20364463  0.80919843  0.60881469  1
  Pd  Pd199  1  0.00006557  0.00496986  0.39207084  1
  Rh  Rh200  1  0.00205475  0.19916350  0.59689855  1
  Rh  Rh201  1  0.79637679  0.00069374  0.40077193  1
  Rh  Rh202  1  0.80072706  0.41128206  -0.01005711  1
  Rh  Rh203  1  0.19940352  0.20337171  0.40446604  1
  Rh  Rh204  1  0.00111825  -0.00159030  0.59888984  1
  Rh  Rh205  1  0.60979662  0.20365327  0.19608879  1
  Rh  Rh206  1  0.78772069  0.80824090  0.80225825  1
  Rh  Rh207  1  0.19931515  0.59823751  0.40485273  1
  Rh  Rh208  1  0.79468014  0.00480572  0.79964913  1
  Rh  Rh209  1  0.19870704  0.00452065  0.00269752  1
  Rh  Rh210  1  0.39987783  0.01402533  0.39154378  1
  Rh  Rh211  1  0.00954740  0.39377250  0.40398486  1
  Rh  Rh212  1  0.80297803  0.79796265  0.20171384  1
  Rh  Rh213  1  0.20362995  0.79272999  0.19859876  1
  Rh  Rh214  1  0.79018157  0.19571017  -0.00025850  1
  Rh  Rh215  1  0.41063046  0.21310315  0.59261029  1
  Rh  Rh216  1  0.19481319  0.20792945  0.80404250  1
  Rh  Rh217  1  -0.00250149  0.59646400  0.20159017  1
  Rh  Rh218  1  0.39804712  -0.00078752  0.79675871  1
  Rh  Rh219  1  0.80871300  0.79714258  0.60511069  1
  Rh  Rh220  1  0.19976849  0.79957931  0.40309382  1
  Rh  Rh221  1  0.39278695  0.39759395  0.39827909  1
  Rh  Rh222  1  0.61317444  0.60919852  0.40980957  1
  Rh  Rh223  1  0.80353602  -0.00075621  0.19731748  1
  Rh  Rh224  1  0.40626430  0.60451379  0.79788344  1
  Rh  Rh225  1  0.60582653  0.39766243  0.38916439  1
  Rh  Rh226  1  0.00029378  0.39325334  0.78925271  1
  Rh  Rh227  1  0.59089229  0.60943672  0.79097604  1
  Rh  Rh228  1  0.79472129  0.39951066  0.20567233  1
  Rh  Rh229  1  0.00717271  0.80491980  0.80417387  1
  Rh  Rh230  1  0.00419634  0.40088230  0.59588101  1
  Rh  Rh231  1  0.79973425  -0.00308298  0.59788062  1
  Rh  Rh232  1  0.39637844  0.79934330  0.20049335  1
  Rh  Rh233  1  0.80208865  0.20169605  0.19329284  1
  Rh  Rh234  1  0.58942180  0.40034976  0.60038677  1
  Rh  Rh235  1  0.80784391  0.58813460  0.79651133  1
  Rh  Rh236  1  0.00459484  0.60788724  0.00948741  1
  Rh  Rh237  1  -0.00510920  0.60517603  0.40041645  1
  Rh  Rh238  1  0.19218913  0.59368300  0.79809101  1
  Rh  Rh239  1  0.60163318  0.59334530  0.19055159  1
  Rh  Rh240  1  0.39453354  0.59921135  0.20371636  1
  Rh  Rh241  1  0.39160749  0.60997743  0.40243033  1
  Rh  Rh242  1  0.20849590  -0.00515127  0.78951304  1
  Rh  Rh243  1  0.59710371  0.79952683  0.20711771  1
  Rh  Rh244  1  0.40314792  0.19927972  0.20443454  1
  Rh  Rh245  1  0.39205011  0.59361673  -0.00487161  1
  Rh  Rh246  1  0.39308167  0.79681445  0.60261009  1
  Rh  Rh247  1  0.79408811  -0.00015722  0.00141404  1
  Rh  Rh248  1  -0.00019142  0.79919314  0.60551871  1
  Rh  Rh249  1  -0.00244273  0.60079282  0.78915626  1
