# generated using pymatgen
data_ZrScNbPdRh
_symmetry_space_group_name_H-M   'P 1'
_cell_length_a   16.55582537
_cell_length_b   16.55557580
_cell_length_c   16.55416733
_cell_angle_alpha   90.02054588
_cell_angle_beta   89.97896033
_cell_angle_gamma   89.99720862
_symmetry_Int_Tables_number   1
_chemical_formula_structural   ZrScNbPdRh
_chemical_formula_sum   'Zr50 Sc50 Nb50 Pd50 Rh50'
_cell_volume   4537.35134805
_cell_formula_units_Z   50
loop_
 _symmetry_equiv_pos_site_id
 _symmetry_equiv_pos_as_xyz
  1  'x, y, z'
loop_
 _atom_site_type_symbol
 _atom_site_label
 _atom_site_symmetry_multiplicity
 _atom_site_fract_x
 _atom_site_fract_y
 _atom_site_fract_z
 _atom_site_occupancy
  Zr  Zr0  1  0.89752855  0.69917210  0.09484802  1
  Zr  Zr1  1  0.90108668  0.70076468  0.49519118  1
  Zr  Zr2  1  0.50564620  0.29934837  0.29304922  1
  Zr  Zr3  1  0.49290299  0.30134478  0.90729345  1
  Zr  Zr4  1  0.10126564  0.51661059  0.49742993  1
  Zr  Zr5  1  0.70252225  0.49766699  0.89974561  1
  Zr  Zr6  1  0.09818035  0.30047094  0.70648911  1
  Zr  Zr7  1  0.70339314  0.50687845  0.09652466  1
  Zr  Zr8  1  0.90569161  0.50184832  0.70344570  1
  Zr  Zr9  1  0.30714016  0.70526765  0.30365536  1
  Zr  Zr10  1  0.30315567  0.50771823  0.09934754  1
  Zr  Zr11  1  0.29615349  0.29372927  0.90481420  1
  Zr  Zr12  1  0.10961638  0.89238926  0.89279158  1
  Zr  Zr13  1  0.70604080  0.50363457  0.70349160  1
  Zr  Zr14  1  0.49439562  0.49732207  0.09760238  1
  Zr  Zr15  1  0.70084030  0.30197950  0.49753333  1
  Zr  Zr16  1  0.09672882  0.50381429  0.29853674  1
  Zr  Zr17  1  0.10308686  0.69656635  0.08710779  1
  Zr  Zr18  1  0.09580348  0.10263127  0.69775614  1
  Zr  Zr19  1  0.29858305  0.89963240  0.50445155  1
  Zr  Zr20  1  0.29914502  0.49928988  0.29451859  1
  Zr  Zr21  1  0.70645306  0.30016685  0.90812379  1
  Zr  Zr22  1  0.50121259  0.09279257  0.70209289  1
  Zr  Zr23  1  0.89940403  0.69842310  0.29585500  1
  Zr  Zr24  1  0.49503989  0.10093535  0.10736122  1
  Zr  Zr25  1  0.09316605  0.28587104  0.50590203  1
  Zr  Zr26  1  0.70327841  0.49788056  0.49560229  1
  Zr  Zr27  1  0.29333730  0.90267775  0.71039028  1
  Zr  Zr28  1  0.10104199  0.90405448  0.49150855  1
  Zr  Zr29  1  0.50304787  0.70052789  0.50503312  1
  Zr  Zr30  1  0.10281741  0.09210606  0.30977029  1
  Zr  Zr31  1  0.10668174  0.29828949  0.89807905  1
  Zr  Zr32  1  0.10357144  0.90728615  0.69285027  1
  Zr  Zr33  1  0.10001817  0.10224841  0.90199835  1
  Zr  Zr34  1  0.70367852  0.89831622  0.09815551  1
  Zr  Zr35  1  0.29928659  0.50116156  0.69523038  1
  Zr  Zr36  1  0.91192065  0.29718035  0.69866741  1
  Zr  Zr37  1  0.89857162  0.69148444  0.69724829  1
  Zr  Zr38  1  0.69955073  0.89928489  0.30046064  1
  Zr  Zr39  1  0.28464516  0.30196950  0.10479089  1
  Zr  Zr40  1  0.28197130  0.71334660  0.91242398  1
  Zr  Zr41  1  0.50042041  0.89337108  0.71102451  1
  Zr  Zr42  1  0.89582060  0.30627457  0.28805517  1
  Zr  Zr43  1  0.69762523  0.70593130  0.10654552  1
  Zr  Zr44  1  0.09449007  0.70311299  0.31254543  1
  Zr  Zr45  1  0.51074841  0.70806275  0.88842497  1
  Zr  Zr46  1  0.89992279  0.50079254  0.29016322  1
  Zr  Zr47  1  0.89490675  0.09365162  0.09910901  1
  Zr  Zr48  1  0.29732752  0.30461624  0.70852952  1
  Zr  Zr49  1  0.89448308  0.30202501  0.89628009  1
  Sc  Sc50  1  0.08983904  0.70043001  0.89882190  1
  Sc  Sc51  1  0.48655105  0.29269590  0.69476863  1
  Sc  Sc52  1  0.89912817  0.50533552  0.10351312  1
  Sc  Sc53  1  0.09809010  0.70031260  0.70395934  1
  Sc  Sc54  1  0.30374059  0.48843226  0.90585560  1
  Sc  Sc55  1  0.08075066  0.90258796  0.09399103  1
  Sc  Sc56  1  0.49808463  0.90166884  0.30441184  1
  Sc  Sc57  1  0.31100802  0.90539168  0.31004407  1
  Sc  Sc58  1  0.89580309  0.09570261  0.69539889  1
  Sc  Sc59  1  0.70554410  0.29515877  0.10421909  1
  Sc  Sc60  1  0.30495210  0.28597398  0.50755928  1
  Sc  Sc61  1  0.49633586  0.90094820  0.90209014  1
  Sc  Sc62  1  0.09985596  0.09444881  0.50129647  1
  Sc  Sc63  1  0.49888471  0.50701453  0.69720689  1
  Sc  Sc64  1  0.49638936  0.69776026  0.10142278  1
  Sc  Sc65  1  0.90457719  0.90004609  0.91103822  1
  Sc  Sc66  1  0.09678877  0.50235278  0.10312935  1
  Sc  Sc67  1  0.29814391  0.50931933  0.50499249  1
  Sc  Sc68  1  0.31386611  0.89341591  0.09297590  1
  Sc  Sc69  1  0.89139690  0.50567638  0.89953456  1
  Sc  Sc70  1  0.89693056  0.09399881  0.29727683  1
  Sc  Sc71  1  0.30595767  0.10200139  0.30138044  1
  Sc  Sc72  1  0.50405180  0.70923480  0.29408157  1
  Sc  Sc73  1  0.70287249  0.09194083  0.69839202  1
  Sc  Sc74  1  0.71090258  0.29044013  0.70285039  1
  Sc  Sc75  1  0.70490650  0.10269500  0.29258582  1
  Sc  Sc76  1  0.30422801  0.09555719  0.70006367  1
  Sc  Sc77  1  0.69924642  0.69304204  0.90149887  1
  Sc  Sc78  1  0.09861795  0.50599319  0.90390135  1
  Sc  Sc79  1  0.89519785  0.90938967  0.49526076  1
  Sc  Sc80  1  0.68963871  0.69963596  0.69675022  1
  Sc  Sc81  1  0.89442379  0.09790212  0.89990650  1
  Sc  Sc82  1  0.90278370  0.51067556  0.50517746  1
  Sc  Sc83  1  0.70367232  0.10452312  0.09645118  1
  Sc  Sc84  1  0.50099120  0.50135429  0.90784803  1
  Sc  Sc85  1  0.50143752  0.49597635  0.50303360  1
  Sc  Sc86  1  0.10355614  0.29505565  0.28573078  1
  Sc  Sc87  1  0.09846794  0.10355535  0.10461795  1
  Sc  Sc88  1  0.50419821  0.49450356  0.28988474  1
  Sc  Sc89  1  0.89635000  0.90536331  0.69091958  1
  Sc  Sc90  1  0.69129828  0.89676931  0.90286246  1
  Sc  Sc91  1  0.70276430  0.89857992  0.49739724  1
  Sc  Sc92  1  0.49419627  0.10150285  0.29787031  1
  Sc  Sc93  1  0.49907830  0.90434755  0.49434873  1
  Sc  Sc94  1  0.90537398  0.90267601  0.29786674  1
  Sc  Sc95  1  0.49655233  0.10240992  0.50540087  1
  Sc  Sc96  1  0.50529650  0.89594776  0.09569897  1
  Sc  Sc97  1  0.70057526  0.09470067  0.50265770  1
  Sc  Sc98  1  0.70098758  0.90277056  0.69745047  1
  Sc  Sc99  1  0.49158264  0.09761082  0.90971803  1
  Nb  Nb100  1  0.30144940  0.09100835  0.10035516  1
  Nb  Nb101  1  0.70157614  0.49053220  0.29992404  1
  Nb  Nb102  1  0.90393310  0.29660268  0.49916078  1
  Nb  Nb103  1  0.89940792  0.29924640  0.09983000  1
  Nb  Nb104  1  0.29510844  0.69630122  0.50377428  1
  Nb  Nb105  1  0.29646793  0.70002436  0.10370036  1
  Nb  Nb106  1  0.90148014  0.69518052  0.89160795  1
  Nb  Nb107  1  0.70483105  0.69773520  0.49443317  1
  Nb  Nb108  1  0.10264152  0.89900204  0.29857137  1
  Nb  Nb109  1  0.29864151  0.09456181  0.90929474  1
  Nb  Nb110  1  0.29637301  0.30510923  0.30416842  1
  Nb  Nb111  1  0.29719572  0.90703995  0.89891312  1
  Nb  Nb112  1  0.50341711  0.29516248  0.10156701  1
  Nb  Nb113  1  0.10123338  0.49911862  0.70008872  1
  Nb  Nb114  1  0.70121673  0.69832066  0.30109833  1
  Nb  Nb115  1  0.09457585  0.29881595  0.09884761  1
  Nb  Nb116  1  0.69838078  0.10578567  0.89615794  1
  Nb  Nb117  1  0.49747184  0.70101549  0.70191868  1
  Nb  Nb118  1  0.70014494  0.30820507  0.30316476  1
  Nb  Nb119  1  0.50411510  0.30026847  0.49801716  1
  Nb  Nb120  1  0.10127235  0.70297326  0.49688681  1
  Nb  Nb121  1  0.30119026  0.69576818  0.69557756  1
  Nb  Nb122  1  0.30026081  0.09376543  0.49725764  1
  Nb  Nb123  1  0.89458910  0.90492024  0.09858894  1
  Nb  Nb124  1  0.90400537  0.10133411  0.49389347  1
  Nb  Nb125  1  0.19784606  0.80451110  0.19938868  1
  Nb  Nb126  1  -0.00294016  0.20609424  0.00263744  1
  Nb  Nb127  1  0.20345691  -0.00075504  0.00378019  1
  Nb  Nb128  1  0.20223450  0.61134422  0.20080104  1
  Nb  Nb129  1  0.60467341  0.20827464  0.39778412  1
  Nb  Nb130  1  0.39374555  0.60952982  0.80035118  1
  Nb  Nb131  1  -0.00310274  0.39226572  0.00501655  1
  Nb  Nb132  1  0.80493755  0.39650203  0.59862370  1
  Nb  Nb133  1  0.60037960  0.39206346  0.79733418  1
  Nb  Nb134  1  0.80489182  0.79525671  0.80180152  1
  Nb  Nb135  1  0.20268579  -0.00866806  0.19706267  1
  Nb  Nb136  1  0.00312811  0.79850067  0.59151727  1
  Nb  Nb137  1  0.60625510  0.60067168  0.39544258  1
  Nb  Nb138  1  0.60540593  0.39401658  0.60434883  1
  Nb  Nb139  1  0.19933386  0.39496986  0.40508158  1
  Nb  Nb140  1  0.59916092  0.20043487  0.80581165  1
  Nb  Nb141  1  0.20671145  0.59943020  0.79821442  1
  Nb  Nb142  1  0.60137133  -0.00081263  0.19770581  1
  Nb  Nb143  1  0.00372827  0.39664898  0.40142843  1
  Nb  Nb144  1  0.40566603  0.59907341  0.39968306  1
  Nb  Nb145  1  0.39669490  0.79418362  0.60617519  1
  Nb  Nb146  1  0.39558660  0.39658507  0.39846808  1
  Nb  Nb147  1  0.00402518  -0.00182076  0.80076032  1
  Nb  Nb148  1  0.19276429  0.39929351  0.59743391  1
  Nb  Nb149  1  0.80045751  0.20748263  0.39991398  1
  Pd  Pd150  1  0.59667826  0.60577223  0.00077470  1
  Pd  Pd151  1  0.59932237  0.19678279  -0.00074637  1
  Pd  Pd152  1  0.40084492  0.80647209  0.19915008  1
  Pd  Pd153  1  0.40612408  0.20289836  0.40181377  1
  Pd  Pd154  1  0.79183924  0.00086680  -0.00855686  1
  Pd  Pd155  1  0.40588362  0.79437289  -0.00452738  1
  Pd  Pd156  1  0.80042456  0.19398957  0.79742268  1
  Pd  Pd157  1  0.40189942  0.19103709  0.80202562  1
  Pd  Pd158  1  0.39921573  0.39169741  0.19761163  1
  Pd  Pd159  1  0.20597531  0.19709954  0.60559060  1
  Pd  Pd160  1  0.00228794  0.40611013  0.59143743  1
  Pd  Pd161  1  0.39819416  0.39735081  0.59188689  1
  Pd  Pd162  1  0.80446567  0.80564920  0.39542051  1
  Pd  Pd163  1  0.00226494  0.79666293  0.19532600  1
  Pd  Pd164  1  -0.00439051  0.19184263  0.19977596  1
  Pd  Pd165  1  0.60387707  0.59437308  0.59514017  1
  Pd  Pd166  1  0.00412006  0.00253329  0.20175085  1
  Pd  Pd167  1  0.80000584  0.59596769  0.39303887  1
  Pd  Pd168  1  0.60021306  0.00622515  0.00427862  1
  Pd  Pd169  1  0.60033869  0.01330711  0.39311059  1
  Pd  Pd170  1  0.80317302  0.79721957  0.60388114  1
  Pd  Pd171  1  0.80521082  0.80500367  0.20386834  1
  Pd  Pd172  1  0.59777618  0.20269075  0.60371979  1
  Pd  Pd173  1  0.38900858  0.79684439  0.80242701  1
  Pd  Pd174  1  0.00174463  0.40834175  0.81304214  1
  Pd  Pd175  1  0.39023231  0.20701783  0.19725215  1
  Pd  Pd176  1  0.59913856  -0.00890789  0.59769312  1
  Pd  Pd177  1  0.59957628  0.00413235  0.80758190  1
  Pd  Pd178  1  0.60224219  0.39652037  0.00208477  1
  Pd  Pd179  1  0.80498497  -0.01189219  0.80774869  1
  Pd  Pd180  1  0.39956418  0.61195501  -0.01126946  1
  Pd  Pd181  1  0.40116677  -0.00797472  0.60214369  1
  Pd  Pd182  1  0.60016608  0.59884793  0.20523258  1
  Pd  Pd183  1  -0.00929525  0.80950000  0.78895845  1
  Pd  Pd184  1  0.19195806  0.40757275  0.00375402  1
  Pd  Pd185  1  0.20588998  0.80522732  0.39573587  1
  Pd  Pd186  1  -0.00459576  0.79823491  -0.00206952  1
  Pd  Pd187  1  0.20432344  0.18840761  0.20178720  1
  Pd  Pd188  1  0.19768793  0.79488435  0.60337774  1
  Pd  Pd189  1  -0.00609719  0.20425009  0.38648131  1
  Pd  Pd190  1  0.40935245  0.41037981  0.80087993  1
  Pd  Pd191  1  0.20199934  0.20073984  0.40034883  1
  Pd  Pd192  1  0.20803769  0.19074550  0.79621470  1
  Pd  Pd193  1  0.59990017  0.79608340  0.40108643  1
  Pd  Pd194  1  0.81582676  0.40094847  0.40542724  1
  Pd  Pd195  1  0.80602824  0.19748454  0.59383358  1
  Pd  Pd196  1  0.80034034  0.79456398  -0.00985735  1
  Pd  Pd197  1  0.60722045  0.39901723  0.18736124  1
  Pd  Pd198  1  0.39282377  0.20355835  0.01176899  1
  Pd  Pd199  1  0.59748943  0.80675606  0.59765826  1
  Rh  Rh200  1  0.40482623  0.60690951  0.59774506  1
  Rh  Rh201  1  -0.00964542  0.59618603  0.39673843  1
  Rh  Rh202  1  0.40032876  0.79133690  0.41512086  1
  Rh  Rh203  1  0.79932907  0.00300764  0.59087067  1
  Rh  Rh204  1  0.19002439  0.60122624  0.60809676  1
  Rh  Rh205  1  0.20341015  0.59345977  -0.00139802  1
  Rh  Rh206  1  0.00808301  0.59431528  0.80109489  1
  Rh  Rh207  1  0.80157902  0.60521426  -0.00086588  1
  Rh  Rh208  1  0.60410903  0.19548866  0.20500566  1
  Rh  Rh209  1  0.40106582  0.00182360  0.80567790  1
  Rh  Rh210  1  -0.00256998  -0.00170437  0.39790477  1
  Rh  Rh211  1  0.59255594  0.59047012  0.80220025  1
  Rh  Rh212  1  0.79795643  0.39908200  0.79092361  1
  Rh  Rh213  1  0.39857082  0.19409381  0.59937858  1
  Rh  Rh214  1  0.21231096  0.59966952  0.39426160  1
  Rh  Rh215  1  0.20151208  0.79053587  0.79300282  1
  Rh  Rh216  1  0.79939508  0.00862327  0.39902957  1
  Rh  Rh217  1  0.79460339  0.60885146  0.79887398  1
  Rh  Rh218  1  0.19669938  0.00886610  0.80736315  1
  Rh  Rh219  1  0.79433337  -0.00687786  0.19915675  1
  Rh  Rh220  1  0.00322900  0.00796840  -0.00505596  1
  Rh  Rh221  1  0.59829125  0.79385306  0.00179237  1
  Rh  Rh222  1  0.58841375  0.40284065  0.40213382  1
  Rh  Rh223  1  0.61285758  0.80288370  0.79602165  1
  Rh  Rh224  1  0.20740547  -0.00097637  0.39638748  1
  Rh  Rh225  1  0.00705985  0.61144256  0.19665452  1
  Rh  Rh226  1  -0.00916229  0.59265356  -0.00270886  1
  Rh  Rh227  1  0.80611538  0.19625038  0.00182494  1
  Rh  Rh228  1  0.59957126  0.80753745  0.20126215  1
  Rh  Rh229  1  0.19883043  0.40902351  0.79677213  1
  Rh  Rh230  1  -0.00325569  -0.00157319  0.59922861  1
  Rh  Rh231  1  0.40428484  -0.00619855  0.19879237  1
  Rh  Rh232  1  0.79963615  0.20266979  0.20494016  1
  Rh  Rh233  1  0.19631655  0.81662596  0.01454015  1
  Rh  Rh234  1  0.20401962  0.00774140  0.59573388  1
  Rh  Rh235  1  0.19309895  0.40695330  0.20138107  1
  Rh  Rh236  1  0.79250456  0.59966243  0.20343606  1
  Rh  Rh237  1  0.40170764  0.00686992  0.40470553  1
  Rh  Rh238  1  0.39749815  0.38907637  0.01205826  1
  Rh  Rh239  1  0.79296216  0.40395781  0.19046024  1
  Rh  Rh240  1  0.80695557  0.40385705  0.00807245  1
  Rh  Rh241  1  0.00808872  0.61023001  0.60190761  1
  Rh  Rh242  1  0.39781537  -0.00332042  0.00035159  1
  Rh  Rh243  1  -0.00728297  0.18886333  0.80544409  1
  Rh  Rh244  1  0.00384303  0.40015668  0.19640405  1
  Rh  Rh245  1  0.79417132  0.59996007  0.59961970  1
  Rh  Rh246  1  0.39891360  0.60452415  0.20565883  1
  Rh  Rh247  1  -0.00485751  0.80738114  0.40551642  1
  Rh  Rh248  1  0.19698002  0.19084453  0.00837463  1
  Rh  Rh249  1  -0.00623888  0.18887814  0.60190885  1
