# generated using pymatgen
data_ZrScNbPdRh
_symmetry_space_group_name_H-M   'P 1'
_cell_length_a   16.55609732
_cell_length_b   16.55804409
_cell_length_c   16.55944784
_cell_angle_alpha   90.00041526
_cell_angle_beta   89.98838425
_cell_angle_gamma   89.98052136
_symmetry_Int_Tables_number   1
_chemical_formula_structural   ZrScNbPdRh
_chemical_formula_sum   'Zr50 Sc50 Nb50 Pd50 Rh50'
_cell_volume   4539.55019895
_cell_formula_units_Z   50
loop_
 _symmetry_equiv_pos_site_id
 _symmetry_equiv_pos_as_xyz
  1  'x, y, z'
loop_
 _atom_site_type_symbol
 _atom_site_label
 _atom_site_symmetry_multiplicity
 _atom_site_fract_x
 _atom_site_fract_y
 _atom_site_fract_z
 _atom_site_occupancy
  Zr  Zr0  1  0.30691955  0.09543459  0.10102924  1
  Zr  Zr1  1  0.70006493  0.90062618  0.70339013  1
  Zr  Zr2  1  0.90443678  0.29953680  0.49678302  1
  Zr  Zr3  1  0.30823137  0.30542617  0.09676772  1
  Zr  Zr4  1  0.70931722  0.10368612  0.10641011  1
  Zr  Zr5  1  0.89892297  0.29712787  0.69860266  1
  Zr  Zr6  1  0.29753477  0.89895758  0.10940360  1
  Zr  Zr7  1  0.69879750  0.69710206  0.09811924  1
  Zr  Zr8  1  0.30232894  0.70034513  0.09742013  1
  Zr  Zr9  1  0.70216731  0.70494056  0.71118377  1
  Zr  Zr10  1  0.30372450  0.49523904  0.90263978  1
  Zr  Zr11  1  0.90504155  0.29795112  0.89572360  1
  Zr  Zr12  1  0.29566076  0.10214437  0.49713650  1
  Zr  Zr13  1  0.30633057  0.69302455  0.70036446  1
  Zr  Zr14  1  0.69969148  0.49538731  0.70810463  1
  Zr  Zr15  1  0.69856769  0.08799942  0.70080525  1
  Zr  Zr16  1  0.30094633  0.68965750  0.49440826  1
  Zr  Zr17  1  0.30293465  0.69511901  0.89452375  1
  Zr  Zr18  1  0.90308862  0.29789264  0.30272231  1
  Zr  Zr19  1  0.29674942  0.50255545  0.69853884  1
  Zr  Zr20  1  0.49486034  0.30453624  0.90146728  1
  Zr  Zr21  1  0.08791475  0.70628057  0.89204040  1
  Zr  Zr22  1  0.10463350  0.50285847  0.49606254  1
  Zr  Zr23  1  0.10040634  0.49372325  0.10310052  1
  Zr  Zr24  1  0.29596930  0.69878020  0.28895124  1
  Zr  Zr25  1  0.70027280  0.49691353  0.08871404  1
  Zr  Zr26  1  0.31038716  0.29965508  0.69995947  1
  Zr  Zr27  1  0.70246127  0.69812012  0.90396200  1
  Zr  Zr28  1  0.90550802  0.69943762  0.71232276  1
  Zr  Zr29  1  0.89249641  0.49522940  0.10471174  1
  Zr  Zr30  1  0.29826292  0.49719600  0.10144965  1
  Zr  Zr31  1  0.90384176  0.49035764  0.30071458  1
  Zr  Zr32  1  0.90099346  0.10213188  0.69764272  1
  Zr  Zr33  1  0.90438040  0.50394068  0.49026367  1
  Zr  Zr34  1  0.49609327  0.90840862  0.29829282  1
  Zr  Zr35  1  0.69816319  0.90817402  0.50797007  1
  Zr  Zr36  1  0.89346454  0.89679655  0.50261765  1
  Zr  Zr37  1  0.30108178  0.30285148  0.49445343  1
  Zr  Zr38  1  0.89406159  0.10702377  0.50146897  1
  Zr  Zr39  1  0.29325316  0.91051162  0.49344728  1
  Zr  Zr40  1  0.10238465  0.29406852  0.90228700  1
  Zr  Zr41  1  0.70066829  0.30864168  0.69539683  1
  Zr  Zr42  1  0.29832079  0.29909092  0.90115189  1
  Zr  Zr43  1  0.50055491  0.70379788  0.08994525  1
  Zr  Zr44  1  0.49977830  0.30135123  0.30118303  1
  Zr  Zr45  1  0.50038423  0.89959263  0.90284127  1
  Zr  Zr46  1  0.49063131  0.90866029  0.10072810  1
  Zr  Zr47  1  0.09945391  0.29918445  0.70712199  1
  Zr  Zr48  1  0.09847628  0.90943964  0.50750579  1
  Zr  Zr49  1  0.89630496  0.49786070  0.70778455  1
  Sc  Sc50  1  0.69937196  0.31280202  0.90550595  1
  Sc  Sc51  1  0.49509046  0.10561311  0.49056428  1
  Sc  Sc52  1  0.90662177  0.90920544  0.10053388  1
  Sc  Sc53  1  0.09739452  0.09317165  0.70162785  1
  Sc  Sc54  1  0.10022578  0.30348978  0.30048597  1
  Sc  Sc55  1  0.70921201  0.90896809  0.09636572  1
  Sc  Sc56  1  0.29746973  0.10444308  0.89778799  1
  Sc  Sc57  1  0.90334817  0.09798648  0.91101370  1
  Sc  Sc58  1  0.30142589  0.49597425  0.49781937  1
  Sc  Sc59  1  0.09893994  0.69325493  0.29421523  1
  Sc  Sc60  1  0.70643335  0.71002588  0.49263226  1
  Sc  Sc61  1  0.49276226  0.09840659  0.70680254  1
  Sc  Sc62  1  0.51051307  0.49962505  0.90350732  1
  Sc  Sc63  1  0.50141724  0.49583476  0.30303438  1
  Sc  Sc64  1  0.09670183  0.10557875  0.28814624  1
  Sc  Sc65  1  0.50220884  0.90373429  0.71206488  1
  Sc  Sc66  1  0.89776848  0.09988419  0.10421215  1
  Sc  Sc67  1  0.89761858  0.70109956  0.09699378  1
  Sc  Sc68  1  0.09880056  0.09932978  0.89968806  1
  Sc  Sc69  1  0.49434663  0.68850340  0.49452252  1
  Sc  Sc70  1  0.10017548  0.09292187  0.09877231  1
  Sc  Sc71  1  0.50312391  0.90734784  0.49150117  1
  Sc  Sc72  1  0.70440264  0.30213411  0.49655348  1
  Sc  Sc73  1  0.69578517  0.29830513  0.30581611  1
  Sc  Sc74  1  0.09606812  0.09925100  0.50369165  1
  Sc  Sc75  1  0.09705280  0.70433531  0.10630156  1
  Sc  Sc76  1  0.09966827  0.49443776  0.29481240  1
  Sc  Sc77  1  0.50044543  0.69160776  0.29994305  1
  Sc  Sc78  1  0.29829276  0.30039808  0.30026175  1
  Sc  Sc79  1  0.29893366  0.10288519  0.70852169  1
  Sc  Sc80  1  0.50165358  0.70570591  0.89609929  1
  Sc  Sc81  1  0.50506578  0.10526894  0.29621238  1
  Sc  Sc82  1  0.70420913  0.89988899  0.89555279  1
  Sc  Sc83  1  0.10807883  0.49215850  0.89037517  1
  Sc  Sc84  1  0.09995270  0.90045334  0.27878349  1
  Sc  Sc85  1  0.30689857  0.90676748  0.90021128  1
  Sc  Sc86  1  0.69940656  0.90661751  0.31194316  1
  Sc  Sc87  1  0.89881434  0.68955284  0.30392870  1
  Sc  Sc88  1  0.69521846  0.69565155  0.30217388  1
  Sc  Sc89  1  0.70101474  0.49692368  0.30452746  1
  Sc  Sc90  1  0.50156729  0.49406087  0.10149164  1
  Sc  Sc91  1  0.48791198  0.09473618  0.89578441  1
  Sc  Sc92  1  0.10525542  0.29762564  0.10491042  1
  Sc  Sc93  1  0.90750569  0.89377822  0.90793134  1
  Sc  Sc94  1  0.49694030  0.49691610  0.49421818  1
  Sc  Sc95  1  0.50416308  0.49188010  0.69693168  1
  Sc  Sc96  1  0.29786238  0.09642468  0.30452024  1
  Sc  Sc97  1  0.30212060  0.49624374  0.29648523  1
  Sc  Sc98  1  0.89524142  0.90379597  0.70287234  1
  Sc  Sc99  1  0.50005522  0.30231761  0.49534086  1
  Nb  Nb100  1  0.88978197  0.50177883  0.90269687  1
  Nb  Nb101  1  0.69834007  0.49535570  0.50756210  1
  Nb  Nb102  1  0.69805001  0.30229803  0.09714985  1
  Nb  Nb103  1  0.70485730  0.50247358  0.90117044  1
  Nb  Nb104  1  0.70983099  0.10470287  0.30649617  1
  Nb  Nb105  1  0.89904503  0.90341052  0.29804029  1
  Nb  Nb106  1  0.09600928  0.69913409  0.49795903  1
  Nb  Nb107  1  0.69840181  0.10679014  0.50107879  1
  Nb  Nb108  1  0.89972392  0.69662183  0.90064176  1
  Nb  Nb109  1  0.09882488  0.89927900  0.69948449  1
  Nb  Nb110  1  0.50346037  0.10171987  0.10229874  1
  Nb  Nb111  1  0.50054259  0.70084428  0.69408643  1
  Nb  Nb112  1  0.50471525  0.29526573  0.10329834  1
  Nb  Nb113  1  0.69782874  0.09972982  0.90281361  1
  Nb  Nb114  1  0.09839996  0.89951277  0.09043851  1
  Nb  Nb115  1  0.89307077  0.30447936  0.09775923  1
  Nb  Nb116  1  0.90774836  0.69789760  0.50072298  1
  Nb  Nb117  1  0.29886587  0.89937969  0.29881755  1
  Nb  Nb118  1  0.09696834  0.89829133  0.90250612  1
  Nb  Nb119  1  0.50697602  0.29637834  0.70095794  1
  Nb  Nb120  1  0.10571904  0.30824659  0.50142627  1
  Nb  Nb121  1  0.89552912  0.09622127  0.29802032  1
  Nb  Nb122  1  0.10347911  0.50191189  0.69435421  1
  Nb  Nb123  1  0.10196573  0.69641936  0.70003345  1
  Nb  Nb124  1  0.29248766  0.89996784  0.69230733  1
  Nb  Nb125  1  0.20144508  0.20695237  0.59949512  1
  Nb  Nb126  1  0.79257868  0.19706535  0.80222582  1
  Nb  Nb127  1  0.60343856  0.20070820  0.80305859  1
  Nb  Nb128  1  0.79945927  0.60127662  0.59851753  1
  Nb  Nb129  1  0.19560505  0.80153975  -0.00634005  1
  Nb  Nb130  1  0.19419878  0.60405757  -0.00321732  1
  Nb  Nb131  1  0.59922680  0.01117537  0.00257693  1
  Nb  Nb132  1  0.00140319  0.80260196  0.40278051  1
  Nb  Nb133  1  0.59318784  0.79605991  0.60141633  1
  Nb  Nb134  1  0.39853081  0.80424052  0.59602911  1
  Nb  Nb135  1  0.59895775  0.19907534  0.00357971  1
  Nb  Nb136  1  0.19609123  0.80137636  0.39985889  1
  Nb  Nb137  1  0.00504358  0.79352862  0.60072219  1
  Nb  Nb138  1  0.59997808  0.19958601  0.60482569  1
  Nb  Nb139  1  0.00742521  0.40445603  0.60173769  1
  Nb  Nb140  1  0.60243264  0.80450833  0.19772674  1
  Nb  Nb141  1  0.39339786  -0.00491711  0.59987865  1
  Nb  Nb142  1  -0.00559603  0.40154888  0.00018625  1
  Nb  Nb143  1  -0.00198077  0.59337078  -0.00529524  1
  Nb  Nb144  1  0.39049109  0.80294653  0.39796143  1
  Nb  Nb145  1  0.19785246  0.79425157  0.59941207  1
  Nb  Nb146  1  0.60816873  0.60268714  0.60046482  1
  Nb  Nb147  1  0.19478321  0.80398070  0.79484838  1
  Nb  Nb148  1  0.79729671  0.80379125  0.20475856  1
  Nb  Nb149  1  -0.00881691  -0.00203738  0.39205932  1
  Pd  Pd150  1  -0.00492361  0.59687723  0.60320995  1
  Pd  Pd151  1  0.41027229  0.79618783  0.20600405  1
  Pd  Pd152  1  -0.00997348  0.79866484  0.20274382  1
  Pd  Pd153  1  0.40305857  0.59570552  -0.00182715  1
  Pd  Pd154  1  -0.00429640  0.59990112  0.19601078  1
  Pd  Pd155  1  0.59865112  0.59929485  0.19627695  1
  Pd  Pd156  1  0.80497813  0.80482563  0.00508328  1
  Pd  Pd157  1  0.39551590  0.19779286  0.20663032  1
  Pd  Pd158  1  0.40446471  0.40524299  0.79853578  1
  Pd  Pd159  1  0.59512186  0.59986830  0.79803047  1
  Pd  Pd160  1  0.60427412  0.40242454  0.20146508  1
  Pd  Pd161  1  0.00169102  0.20361049  0.01041429  1
  Pd  Pd162  1  0.61042171  -0.00172088  0.19850180  1
  Pd  Pd163  1  0.00072313  0.40572465  0.80146320  1
  Pd  Pd164  1  0.18190320  -0.00154280  0.38408220  1
  Pd  Pd165  1  0.20022628  -0.00413043  0.80230303  1
  Pd  Pd166  1  0.20289361  -0.00299819  -0.00309452  1
  Pd  Pd167  1  0.81108287  0.40601635  0.59168344  1
  Pd  Pd168  1  0.79748685  0.60322290  0.20246090  1
  Pd  Pd169  1  0.00457760  0.58728712  0.80622963  1
  Pd  Pd170  1  0.79379330  0.59902276  0.40417557  1
  Pd  Pd171  1  0.60501131  0.81336546  0.00530602  1
  Pd  Pd172  1  0.01054194  0.20559545  0.59894499  1
  Pd  Pd173  1  -0.00445356  0.20269937  0.19326137  1
  Pd  Pd174  1  0.58420757  0.00403763  0.60051012  1
  Pd  Pd175  1  0.20168301  0.60165406  0.59781289  1
  Pd  Pd176  1  0.40484516  0.19576422  -0.00170559  1
  Pd  Pd177  1  0.41380744  0.58988523  0.79826810  1
  Pd  Pd178  1  0.20685670  0.19988339  0.19655860  1
  Pd  Pd179  1  0.80942603  0.00265535  0.81104546  1
  Pd  Pd180  1  0.80046545  0.00358545  0.40520214  1
  Pd  Pd181  1  0.00749109  0.19349848  0.39876528  1
  Pd  Pd182  1  0.60691942  0.20149048  0.20040055  1
  Pd  Pd183  1  0.58880284  0.79653145  0.40009515  1
  Pd  Pd184  1  0.80648924  0.79660875  0.39121131  1
  Pd  Pd185  1  -0.00448255  -0.00210552  0.80522235  1
  Pd  Pd186  1  0.19785061  0.59745699  0.39036482  1
  Pd  Pd187  1  0.60091845  0.01217106  0.39806860  1
  Pd  Pd188  1  0.40200537  0.19248701  0.59916784  1
  Pd  Pd189  1  0.39579730  0.80584570  0.79380328  1
  Pd  Pd190  1  0.19120172  0.19971912  0.40316725  1
  Pd  Pd191  1  0.40777582  0.59470869  0.19931564  1
  Pd  Pd192  1  0.20564630  0.39677869  0.79591254  1
  Pd  Pd193  1  0.60465912  0.59601601  0.40818923  1
  Pd  Pd194  1  0.80151915  0.20856911  0.20506132  1
  Pd  Pd195  1  0.80101987  0.79148579  0.60447001  1
  Pd  Pd196  1  0.40557500  0.40302007  0.59713430  1
  Pd  Pd197  1  0.20022240  0.19517627  0.00645292  1
  Pd  Pd198  1  0.78950721  0.39351682  0.20708241  1
  Pd  Pd199  1  0.79530491  0.20486858  -0.00536949  1
  Rh  Rh200  1  0.40038980  0.20263044  0.39245913  1
  Rh  Rh201  1  0.60172331  0.39969542  0.40295743  1
  Rh  Rh202  1  0.80049658  0.20276708  0.39777712  1
  Rh  Rh203  1  0.00632297  0.60128405  0.39084485  1
  Rh  Rh204  1  0.80221524  0.00458524  0.59585003  1
  Rh  Rh205  1  0.20148841  0.40253927  0.39417484  1
  Rh  Rh206  1  0.40022225  0.00366764  0.00037015  1
  Rh  Rh207  1  0.60064954  0.39657778  0.80561698  1
  Rh  Rh208  1  0.80449652  0.39674266  -0.00421434  1
  Rh  Rh209  1  0.19715401  0.80025335  0.19607055  1
  Rh  Rh210  1  0.20569238  0.01402798  0.60949457  1
  Rh  Rh211  1  0.80763911  0.80296426  0.80923598  1
  Rh  Rh212  1  0.39673610  0.00988474  0.20849284  1
  Rh  Rh213  1  0.80376407  0.60294121  -0.00047412  1
  Rh  Rh214  1  0.39812601  0.39916257  0.39598030  1
  Rh  Rh215  1  0.59689484  0.00319514  0.81233148  1
  Rh  Rh216  1  -0.00547317  0.18818833  0.80258137  1
  Rh  Rh217  1  0.00199648  0.79349387  0.00614853  1
  Rh  Rh218  1  -0.00225626  0.38991792  0.19290807  1
  Rh  Rh219  1  0.19807110  0.39522761  0.60541265  1
  Rh  Rh220  1  0.79869986  0.00032235  -0.00283055  1
  Rh  Rh221  1  0.39039009  0.80213337  -0.00326073  1
  Rh  Rh222  1  0.40213755  0.00146738  0.39876860  1
  Rh  Rh223  1  0.40376401  0.39615447  0.19980127  1
  Rh  Rh224  1  0.00165561  0.00150288  0.00165090  1
  Rh  Rh225  1  -0.00015255  0.00295294  0.19919643  1
  Rh  Rh226  1  0.40937100  0.59481987  0.60240501  1
  Rh  Rh227  1  0.59905576  0.59864514  -0.00152148  1
  Rh  Rh228  1  0.59939403  0.80112649  0.79851105  1
  Rh  Rh229  1  0.79762235  0.60152843  0.80159858  1
  Rh  Rh230  1  0.19951957  0.00121483  0.19712954  1
  Rh  Rh231  1  0.20450785  0.39495917  0.20179229  1
  Rh  Rh232  1  0.40709537  0.40192260  0.00442566  1
  Rh  Rh233  1  0.00739379  0.39952102  0.40409000  1
  Rh  Rh234  1  0.19631038  0.60260458  0.80342010  1
  Rh  Rh235  1  0.40416777  0.20425771  0.80414540  1
  Rh  Rh236  1  0.78675889  0.19483034  0.60836485  1
  Rh  Rh237  1  0.79840294  0.39377134  0.80880499  1
  Rh  Rh238  1  0.59727357  0.39716515  0.00308859  1
  Rh  Rh239  1  0.39141434  -0.00473796  0.79374870  1
  Rh  Rh240  1  0.19680613  0.19868042  0.79545809  1
  Rh  Rh241  1  0.60285658  0.19939414  0.40637913  1
  Rh  Rh242  1  0.59515654  0.39779670  0.59235376  1
  Rh  Rh243  1  0.79845098  0.39821121  0.40031196  1
  Rh  Rh244  1  0.19914098  0.59629959  0.19261782  1
  Rh  Rh245  1  0.19341269  0.40227573  0.00038983  1
  Rh  Rh246  1  -0.00121862  0.80900625  0.79196230  1
  Rh  Rh247  1  0.79849213  -0.00392675  0.20578230  1
  Rh  Rh248  1  -0.01101972  -0.00458791  0.59765038  1
  Rh  Rh249  1  0.39553674  0.59866306  0.39062722  1
