# generated using pymatgen
data_ZrScNbPdRh
_symmetry_space_group_name_H-M   'P 1'
_cell_length_a   16.56401777
_cell_length_b   16.56577380
_cell_length_c   16.56466066
_cell_angle_alpha   89.99050051
_cell_angle_beta   90.02453536
_cell_angle_gamma   90.01042752
_symmetry_Int_Tables_number   1
_chemical_formula_structural   ZrScNbPdRh
_chemical_formula_sum   'Zr50 Sc50 Nb50 Pd50 Rh50'
_cell_volume   4545.27228723
_cell_formula_units_Z   50
loop_
 _symmetry_equiv_pos_site_id
 _symmetry_equiv_pos_as_xyz
  1  'x, y, z'
loop_
 _atom_site_type_symbol
 _atom_site_label
 _atom_site_symmetry_multiplicity
 _atom_site_fract_x
 _atom_site_fract_y
 _atom_site_fract_z
 _atom_site_occupancy
  Zr  Zr0  1  0.70404923  0.29611957  0.69627278  1
  Zr  Zr1  1  0.29866343  0.29220015  0.29312983  1
  Zr  Zr2  1  0.69380688  0.90554740  0.70244194  1
  Zr  Zr3  1  0.50586686  0.49448581  0.90586860  1
  Zr  Zr4  1  0.50205334  0.49475920  0.69420349  1
  Zr  Zr5  1  0.89176048  0.90123618  0.49493280  1
  Zr  Zr6  1  0.29454679  0.29561425  0.10113032  1
  Zr  Zr7  1  0.70278253  0.51111603  0.10629760  1
  Zr  Zr8  1  0.10292246  0.69798205  0.70603464  1
  Zr  Zr9  1  0.29755494  0.89779893  0.09883943  1
  Zr  Zr10  1  0.51496157  0.29686730  0.69713341  1
  Zr  Zr11  1  0.09951747  0.10667975  0.09447457  1
  Zr  Zr12  1  0.10621381  0.89975899  0.49654089  1
  Zr  Zr13  1  0.88638276  0.89982403  0.70222448  1
  Zr  Zr14  1  0.31358607  0.90151848  0.70169483  1
  Zr  Zr15  1  0.70010150  0.70365189  0.91891842  1
  Zr  Zr16  1  0.30102370  0.69878045  0.10218092  1
  Zr  Zr17  1  0.30532307  0.90596330  0.30349741  1
  Zr  Zr18  1  0.89910700  0.70007758  0.70348412  1
  Zr  Zr19  1  0.08226400  0.49297647  0.10648331  1
  Zr  Zr20  1  0.09876307  0.28876074  0.49040682  1
  Zr  Zr21  1  0.69224062  0.90093628  0.90150186  1
  Zr  Zr22  1  0.49123300  0.09729107  0.29703933  1
  Zr  Zr23  1  0.50272840  0.90157541  0.31943601  1
  Zr  Zr24  1  0.30036528  0.49751542  0.30803326  1
  Zr  Zr25  1  0.29197704  0.69784720  0.69950681  1
  Zr  Zr26  1  0.70013119  0.49784884  0.90638016  1
  Zr  Zr27  1  0.10072464  0.90087210  0.10160553  1
  Zr  Zr28  1  0.69190018  0.89417540  0.50176183  1
  Zr  Zr29  1  0.10317621  0.90300941  0.90637660  1
  Zr  Zr30  1  0.70027696  0.09779244  0.10223907  1
  Zr  Zr31  1  0.89286343  0.09953594  0.30219647  1
  Zr  Zr32  1  0.09702962  0.30214617  0.90256160  1
  Zr  Zr33  1  0.90602069  0.30610766  0.89560997  1
  Zr  Zr34  1  0.11659752  0.49877030  0.69440537  1
  Zr  Zr35  1  0.29700310  0.49768402  0.50550710  1
  Zr  Zr36  1  0.09430000  0.69280507  0.30762155  1
  Zr  Zr37  1  0.90688975  0.50627711  0.91246803  1
  Zr  Zr38  1  0.70742310  0.69325856  0.49322796  1
  Zr  Zr39  1  0.90089588  0.09940888  0.49674390  1
  Zr  Zr40  1  0.70569208  0.10445175  0.50704779  1
  Zr  Zr41  1  0.90334468  0.90181043  0.29680494  1
  Zr  Zr42  1  0.09564363  0.09982267  0.49521106  1
  Zr  Zr43  1  0.09956185  0.50515819  0.48472096  1
  Zr  Zr44  1  0.09944572  0.70642986  0.10466002  1
  Zr  Zr45  1  0.89006881  0.89362712  0.89900426  1
  Zr  Zr46  1  0.50465698  0.90050650  0.88166169  1
  Zr  Zr47  1  0.28895443  0.69722408  0.90765587  1
  Zr  Zr48  1  0.49813639  0.69691205  0.30303168  1
  Zr  Zr49  1  0.50395211  0.69344223  0.10044585  1
  Sc  Sc50  1  0.89861204  0.89936166  0.10762674  1
  Sc  Sc51  1  0.30701106  0.49887650  0.10076199  1
  Sc  Sc52  1  0.10085497  0.10970172  0.90705937  1
  Sc  Sc53  1  0.29778321  0.90201037  0.50282574  1
  Sc  Sc54  1  0.50057038  0.90562040  0.08522231  1
  Sc  Sc55  1  0.50482704  0.10020963  0.49955432  1
  Sc  Sc56  1  0.89521052  0.49545310  0.69934661  1
  Sc  Sc57  1  0.89411417  0.29279258  0.49137937  1
  Sc  Sc58  1  0.49832379  0.48460988  0.49313420  1
  Sc  Sc59  1  0.29355939  0.49674825  0.90571438  1
  Sc  Sc60  1  0.09572848  0.50141193  0.90533928  1
  Sc  Sc61  1  0.89873219  0.09964213  0.10648495  1
  Sc  Sc62  1  0.29041125  0.10819348  0.49551851  1
  Sc  Sc63  1  0.69851158  0.30496782  0.49782588  1
  Sc  Sc64  1  0.70534412  0.70529007  0.68981282  1
  Sc  Sc65  1  0.28856893  0.70138660  0.49610319  1
  Sc  Sc66  1  0.50656668  0.09763924  0.69420569  1
  Sc  Sc67  1  0.70642308  0.49218861  0.68977813  1
  Sc  Sc68  1  0.50539707  0.70588363  0.90390637  1
  Sc  Sc69  1  0.89100170  0.50003768  0.49256401  1
  Sc  Sc70  1  0.30330350  0.10576302  0.69258412  1
  Sc  Sc71  1  0.28516432  0.30593020  0.69486504  1
  Sc  Sc72  1  0.71019515  0.89459857  0.30411069  1
  Sc  Sc73  1  0.49687457  0.31053400  0.10697733  1
  Sc  Sc74  1  0.49700277  0.50053519  0.10311072  1
  Sc  Sc75  1  0.09842074  0.89497284  0.29804009  1
  Sc  Sc76  1  0.28607131  0.30481258  0.90205084  1
  Sc  Sc77  1  0.49969850  0.30200361  0.30203646  1
  Sc  Sc78  1  0.49331851  0.49629966  0.30053253  1
  Sc  Sc79  1  0.70836896  0.89612197  0.09239717  1
  Sc  Sc80  1  0.90746984  0.49836904  0.29529256  1
  Sc  Sc81  1  0.10197687  0.11593009  0.69370684  1
  Sc  Sc82  1  0.50617967  0.08972558  0.89430970  1
  Sc  Sc83  1  0.50677882  0.71413253  0.49639356  1
  Sc  Sc84  1  0.50571189  0.29666299  0.49765026  1
  Sc  Sc85  1  0.09612017  0.10672156  0.30662749  1
  Sc  Sc86  1  0.50037225  0.71713710  0.70053965  1
  Sc  Sc87  1  0.90598670  0.10144295  0.90501940  1
  Sc  Sc88  1  0.90609333  0.29951159  0.10908397  1
  Sc  Sc89  1  0.30284135  0.29755836  0.49472487  1
  Sc  Sc90  1  0.70249494  0.30214663  0.11794915  1
  Sc  Sc91  1  0.30850708  0.90308860  0.90390040  1
  Sc  Sc92  1  0.69900218  0.30379244  0.30208848  1
  Sc  Sc93  1  0.89176189  0.69142019  0.10175579  1
  Sc  Sc94  1  0.30227295  0.69872042  0.30589455  1
  Sc  Sc95  1  0.49667338  0.09881608  0.10169301  1
  Sc  Sc96  1  0.30521156  0.10589010  0.10080322  1
  Sc  Sc97  1  0.89697910  0.69921335  0.29203880  1
  Sc  Sc98  1  0.11289660  0.89366809  0.69855909  1
  Sc  Sc99  1  0.69715899  0.09080994  0.89267517  1
  Nb  Nb100  1  0.90611519  0.29809036  0.70084453  1
  Nb  Nb101  1  0.09851279  0.69979075  0.50345235  1
  Nb  Nb102  1  0.30455680  0.49960699  0.70022607  1
  Nb  Nb103  1  0.89998124  0.69792175  0.50891197  1
  Nb  Nb104  1  0.89450245  0.30080886  0.29684275  1
  Nb  Nb105  1  0.89246371  0.09760453  0.69629898  1
  Nb  Nb106  1  0.09808227  0.30602230  0.29101881  1
  Nb  Nb107  1  0.69593473  0.69377038  0.29264672  1
  Nb  Nb108  1  0.09864721  0.49961726  0.29933840  1
  Nb  Nb109  1  0.09116503  0.30418763  0.70160905  1
  Nb  Nb110  1  0.50603695  0.90382126  0.51338149  1
  Nb  Nb111  1  0.70504135  0.50128598  0.31093190  1
  Nb  Nb112  1  0.10177353  0.29351245  0.10264117  1
  Nb  Nb113  1  0.69903736  0.70028798  0.10928877  1
  Nb  Nb114  1  0.30379777  0.10070977  0.28925122  1
  Nb  Nb115  1  0.51121740  0.30059626  0.89442650  1
  Nb  Nb116  1  0.08990811  0.69850960  0.90068693  1
  Nb  Nb117  1  0.69876088  0.29825948  0.89693167  1
  Nb  Nb118  1  0.50136389  0.90106607  0.68749661  1
  Nb  Nb119  1  0.30582164  0.10513297  0.89198506  1
  Nb  Nb120  1  0.70048273  0.50074185  0.49451859  1
  Nb  Nb121  1  0.89601778  0.49671420  0.10126306  1
  Nb  Nb122  1  0.90485668  0.69707292  0.89985163  1
  Nb  Nb123  1  0.69613707  0.10167159  0.29011351  1
  Nb  Nb124  1  0.70929287  0.10047298  0.69915571  1
  Nb  Nb125  1  0.80028138  0.39713984  0.00416418  1
  Nb  Nb126  1  0.79389497  0.20883028  -0.00499886  1
  Nb  Nb127  1  0.80235561  0.20202349  0.79752760  1
  Nb  Nb128  1  0.00129425  0.59942276  0.59619931  1
  Nb  Nb129  1  0.00307224  0.00079606  0.79303701  1
  Nb  Nb130  1  0.19380940  0.59308920  0.20583068  1
  Nb  Nb131  1  0.40706017  0.20595262  -0.01280538  1
  Nb  Nb132  1  0.20201321  0.00689050  0.80190457  1
  Nb  Nb133  1  0.60137295  0.20546449  -0.00392651  1
  Nb  Nb134  1  0.20384845  0.00553961  0.20096016  1
  Nb  Nb135  1  0.40878890  0.80317498  0.20158225  1
  Nb  Nb136  1  0.59769344  0.59714735  0.59702303  1
  Nb  Nb137  1  0.59950949  -0.00630847  0.20505386  1
  Nb  Nb138  1  0.00284328  0.39694298  0.59855717  1
  Nb  Nb139  1  -0.00110087  0.79851912  0.59837181  1
  Nb  Nb140  1  0.40489596  0.20916624  0.80271320  1
  Nb  Nb141  1  0.59939626  0.80067350  0.20166141  1
  Nb  Nb142  1  0.79803620  0.60185272  0.80708441  1
  Nb  Nb143  1  0.40306316  0.59421536  0.79619277  1
  Nb  Nb144  1  -0.00293549  0.79367447  0.40965709  1
  Nb  Nb145  1  0.40293638  0.59953395  0.60320758  1
  Nb  Nb146  1  0.60311264  0.60080694  0.79494868  1
  Nb  Nb147  1  -0.00278932  -0.00291897  0.60431247  1
  Nb  Nb148  1  0.40190360  0.39747991  0.79953607  1
  Nb  Nb149  1  -0.00246463  0.79478411  -0.00496698  1
  Pd  Pd150  1  0.39976653  0.39194877  0.60325036  1
  Pd  Pd151  1  0.19142958  0.40516999  0.00969852  1
  Pd  Pd152  1  0.00385353  0.81003877  0.79987889  1
  Pd  Pd153  1  0.80082291  0.40191847  0.80563693  1
  Pd  Pd154  1  -0.00419934  0.19052587  0.79943807  1
  Pd  Pd155  1  0.59170880  0.19669331  0.19541522  1
  Pd  Pd156  1  0.40411418  0.59928762  -0.00763206  1
  Pd  Pd157  1  0.00553188  0.41316750  0.79391798  1
  Pd  Pd158  1  -0.00320948  0.58973708  0.79112555  1
  Pd  Pd159  1  0.59521670  0.59390880  0.20710319  1
  Pd  Pd160  1  0.80404866  0.79012668  0.39473551  1
  Pd  Pd161  1  0.39804675  0.00893437  0.59282300  1
  Pd  Pd162  1  0.79028890  0.20191753  0.39324989  1
  Pd  Pd163  1  0.20379553  0.20084918  0.79672153  1
  Pd  Pd164  1  0.39910723  0.00938389  -0.00252343  1
  Pd  Pd165  1  0.60959405  0.39297453  0.01477609  1
  Pd  Pd166  1  0.20804765  0.79948143  0.21203280  1
  Pd  Pd167  1  0.39546241  0.00752501  0.41556984  1
  Pd  Pd168  1  0.21116408  0.01147408  -0.00027651  1
  Pd  Pd169  1  0.40162852  0.20616300  0.60450122  1
  Pd  Pd170  1  0.20153755  0.00556974  0.39041460  1
  Pd  Pd171  1  0.78940246  0.00359410  0.39719463  1
  Pd  Pd172  1  0.60622206  0.40697851  0.79409097  1
  Pd  Pd173  1  0.80334960  0.00808656  -0.00214426  1
  Pd  Pd174  1  0.40411107  0.59951305  0.41513949  1
  Pd  Pd175  1  0.80856370  0.39418258  0.59019533  1
  Pd  Pd176  1  0.80943533  0.60227685  0.39138556  1
  Pd  Pd177  1  0.60189339  0.41032171  0.20769387  1
  Pd  Pd178  1  0.40579641  0.79894282  -0.00044803  1
  Pd  Pd179  1  0.78738118  0.79011194  0.80510475  1
  Pd  Pd180  1  0.19588541  0.00569485  0.60847369  1
  Pd  Pd181  1  0.60895223  0.00682542  0.39800453  1
  Pd  Pd182  1  0.20070632  0.39091342  0.39867215  1
  Pd  Pd183  1  0.59186359  0.59404484  0.40604793  1
  Pd  Pd184  1  0.39457467  0.78993514  0.80750822  1
  Pd  Pd185  1  0.00956050  0.00624385  0.20314872  1
  Pd  Pd186  1  0.19151929  0.39185163  0.58778425  1
  Pd  Pd187  1  0.18825212  0.59272012  0.01156131  1
  Pd  Pd188  1  0.40128768  0.19836525  0.39951352  1
  Pd  Pd189  1  0.20653557  0.80869692  0.80915053  1
  Pd  Pd190  1  0.39851110  0.39202538  -0.00679390  1
  Pd  Pd191  1  0.20328142  0.40672321  0.19472986  1
  Pd  Pd192  1  -0.00548374  0.20040637  0.59743525  1
  Pd  Pd193  1  0.39640490  0.80257408  0.40676284  1
  Pd  Pd194  1  -0.00671485  0.39494716  0.40099372  1
  Pd  Pd195  1  0.20288222  0.59224668  0.80821909  1
  Pd  Pd196  1  -0.00932108  -0.00734170  -0.00237018  1
  Pd  Pd197  1  0.39354336  0.79312311  0.59077883  1
  Pd  Pd198  1  0.60279656  0.19850945  0.39792518  1
  Pd  Pd199  1  -0.00151279  0.19611824  0.20453071  1
  Rh  Rh200  1  0.00139635  -0.00834427  0.40369110  1
  Rh  Rh201  1  0.20668854  0.19898661  -0.00098979  1
  Rh  Rh202  1  0.20170920  0.79903847  0.60040436  1
  Rh  Rh203  1  -0.00852300  0.60413398  0.40479894  1
  Rh  Rh204  1  0.19241631  0.19290404  0.20340569  1
  Rh  Rh205  1  0.79800223  -0.00471378  0.59461323  1
  Rh  Rh206  1  -0.00430229  0.39357009  0.20461386  1
  Rh  Rh207  1  0.80269569  0.20182356  0.20046976  1
  Rh  Rh208  1  0.39032668  0.60279363  0.20306517  1
  Rh  Rh209  1  0.60473078  0.19632881  0.59729669  1
  Rh  Rh210  1  0.59715099  0.60056077  0.00016340  1
  Rh  Rh211  1  0.80053841  0.59850186  0.00042062  1
  Rh  Rh212  1  -0.00718580  0.79670707  0.19908146  1
  Rh  Rh213  1  0.60626281  0.40353435  0.58976678  1
  Rh  Rh214  1  0.40060881  -0.01042091  0.19655418  1
  Rh  Rh215  1  0.60474860  0.79648467  0.79467693  1
  Rh  Rh216  1  -0.00553172  0.20848858  0.38751053  1
  Rh  Rh217  1  0.19891492  0.40228572  0.80251214  1
  Rh  Rh218  1  0.00239032  0.60869115  0.01138700  1
  Rh  Rh219  1  -0.00692993  0.20703939  0.00525569  1
  Rh  Rh220  1  0.60836483  0.79644368  0.39418909  1
  Rh  Rh221  1  0.39625702  0.39108579  0.39771597  1
  Rh  Rh222  1  0.80094823  0.59359981  0.20789208  1
  Rh  Rh223  1  0.60257012  0.00490035  0.00647776  1
  Rh  Rh224  1  0.19164485  0.79614398  -0.00580079  1
  Rh  Rh225  1  0.80065804  0.39951527  0.39428242  1
  Rh  Rh226  1  0.60502191  0.79339610  0.60018853  1
  Rh  Rh227  1  0.59635740  0.00360315  0.78791126  1
  Rh  Rh228  1  0.80184423  0.40589842  0.20239389  1
  Rh  Rh229  1  0.39950170  0.00830093  0.79080613  1
  Rh  Rh230  1  0.40641068  0.20596465  0.19266823  1
  Rh  Rh231  1  0.79888571  0.59514038  0.60488097  1
  Rh  Rh232  1  0.80557740  0.20666893  0.60280675  1
  Rh  Rh233  1  0.80796205  0.79421655  0.00740079  1
  Rh  Rh234  1  0.59835581  0.80329240  0.01080698  1
  Rh  Rh235  1  0.19375733  0.79970143  0.39710379  1
  Rh  Rh236  1  0.20240677  0.60141369  0.39558579  1
  Rh  Rh237  1  0.79697960  0.80468756  0.59713956  1
  Rh  Rh238  1  -0.00022498  0.60155050  0.19776699  1
  Rh  Rh239  1  0.60530049  0.19010360  0.80060158  1
  Rh  Rh240  1  0.39458013  0.39901275  0.20274540  1
  Rh  Rh241  1  0.79474412  0.79916020  0.19877499  1
  Rh  Rh242  1  0.79169574  -0.00179237  0.20299053  1
  Rh  Rh243  1  0.19670724  0.20673664  0.59756145  1
  Rh  Rh244  1  -0.00391109  0.39125484  0.00667771  1
  Rh  Rh245  1  0.60258570  0.40239547  0.39674305  1
  Rh  Rh246  1  0.60564764  0.00578625  0.60112937  1
  Rh  Rh247  1  0.20128606  0.20105621  0.38914389  1
  Rh  Rh248  1  0.80813533  0.00989870  0.80907583  1
  Rh  Rh249  1  0.20206284  0.60155874  0.59532353  1
