# generated using pymatgen
data_ZrScNbPdRh
_symmetry_space_group_name_H-M   'P 1'
_cell_length_a   16.55354666
_cell_length_b   16.55679928
_cell_length_c   16.55467577
_cell_angle_alpha   89.99935703
_cell_angle_beta   89.99502840
_cell_angle_gamma   89.99257449
_symmetry_Int_Tables_number   1
_chemical_formula_structural   ZrScNbPdRh
_chemical_formula_sum   'Zr50 Sc50 Nb50 Pd50 Rh50'
_cell_volume   4537.20200249
_cell_formula_units_Z   50
loop_
 _symmetry_equiv_pos_site_id
 _symmetry_equiv_pos_as_xyz
  1  'x, y, z'
loop_
 _atom_site_type_symbol
 _atom_site_label
 _atom_site_symmetry_multiplicity
 _atom_site_fract_x
 _atom_site_fract_y
 _atom_site_fract_z
 _atom_site_occupancy
  Zr  Zr0  1  0.10957574  0.10992285  0.90626655  1
  Zr  Zr1  1  0.29500592  0.29242514  0.90223658  1
  Zr  Zr2  1  0.10029756  0.49995756  0.69605862  1
  Zr  Zr3  1  0.90414626  0.09133590  0.50068515  1
  Zr  Zr4  1  0.50452005  0.89130638  0.49228252  1
  Zr  Zr5  1  0.90253764  0.50248800  0.69954998  1
  Zr  Zr6  1  0.50416973  0.31062361  0.50300547  1
  Zr  Zr7  1  0.70217811  0.89604768  0.31100504  1
  Zr  Zr8  1  0.69372865  0.70356109  0.69748764  1
  Zr  Zr9  1  0.09779493  0.89354737  0.70340364  1
  Zr  Zr10  1  0.90293344  0.69941787  0.70341488  1
  Zr  Zr11  1  0.09716472  0.29796537  0.70240764  1
  Zr  Zr12  1  0.90093454  0.29779975  0.69583937  1
  Zr  Zr13  1  0.30238340  0.90046570  0.90113346  1
  Zr  Zr14  1  0.28894262  0.10116547  0.50179875  1
  Zr  Zr15  1  0.10470773  0.70068570  0.10251586  1
  Zr  Zr16  1  0.90374579  0.30520160  0.90431338  1
  Zr  Zr17  1  0.90082100  0.50766095  0.90447388  1
  Zr  Zr18  1  0.70402756  0.89821141  0.69790478  1
  Zr  Zr19  1  0.49330261  0.89598587  0.29388119  1
  Zr  Zr20  1  0.49401938  0.49919548  0.11239499  1
  Zr  Zr21  1  0.30121231  0.69725907  0.50299786  1
  Zr  Zr22  1  0.90713062  0.50452348  0.09238780  1
  Zr  Zr23  1  0.49730903  0.89124700  0.90343080  1
  Zr  Zr24  1  0.50510618  0.09698132  0.11034849  1
  Zr  Zr25  1  0.29324438  0.09095335  0.10154909  1
  Zr  Zr26  1  0.89550111  0.09282083  0.90171225  1
  Zr  Zr27  1  0.69845294  0.89830833  0.89708350  1
  Zr  Zr28  1  0.10216311  0.90033461  0.50270184  1
  Zr  Zr29  1  0.50155853  0.10409488  0.69866760  1
  Zr  Zr30  1  0.69916821  0.69582692  0.29998912  1
  Zr  Zr31  1  0.10620575  0.69382759  0.49540183  1
  Zr  Zr32  1  0.49118827  0.69908575  0.49676383  1
  Zr  Zr33  1  0.30548245  0.70539112  0.89632366  1
  Zr  Zr34  1  0.69346391  0.30028201  0.69292609  1
  Zr  Zr35  1  0.29680835  0.50664510  0.69539162  1
  Zr  Zr36  1  0.90271193  0.68788581  0.49336019  1
  Zr  Zr37  1  0.50198555  0.70441007  0.89502670  1
  Zr  Zr38  1  0.89470389  0.70305651  0.29460778  1
  Zr  Zr39  1  0.69896482  0.29125643  0.49433302  1
  Zr  Zr40  1  0.90116893  0.09573244  0.69710502  1
  Zr  Zr41  1  0.70594557  0.50069533  0.90502121  1
  Zr  Zr42  1  0.91171619  0.30640332  0.10652598  1
  Zr  Zr43  1  0.30651117  0.90161837  0.10199718  1
  Zr  Zr44  1  0.49616005  0.69975224  0.69884785  1
  Zr  Zr45  1  0.89999959  0.90430894  0.69514789  1
  Zr  Zr46  1  0.90368969  0.49729371  0.30339578  1
  Zr  Zr47  1  0.10472604  0.89988069  0.88816894  1
  Zr  Zr48  1  0.69780045  0.30219340  0.90071133  1
  Zr  Zr49  1  0.50108572  0.29485242  0.70655190  1
  Sc  Sc50  1  0.49738530  0.70367974  0.29806076  1
  Sc  Sc51  1  0.10512351  0.70203471  0.89806889  1
  Sc  Sc52  1  0.50591124  0.29808721  0.30833583  1
  Sc  Sc53  1  0.30733496  0.48887999  0.29752639  1
  Sc  Sc54  1  0.69119912  0.90885591  0.08765041  1
  Sc  Sc55  1  0.49987520  0.89478558  0.68649025  1
  Sc  Sc56  1  0.70142762  0.90323409  0.50221440  1
  Sc  Sc57  1  0.49556452  0.30229459  0.10293603  1
  Sc  Sc58  1  0.69279095  0.10583997  0.69039238  1
  Sc  Sc59  1  0.10162712  0.50654418  0.91009240  1
  Sc  Sc60  1  0.90269627  0.29324360  0.49333029  1
  Sc  Sc61  1  0.29689123  0.70199200  0.09908522  1
  Sc  Sc62  1  0.09661748  0.50367249  0.49758104  1
  Sc  Sc63  1  0.29252006  0.89589560  0.69906679  1
  Sc  Sc64  1  0.10342619  0.09865646  0.69575529  1
  Sc  Sc65  1  0.90002361  0.90279705  0.30114668  1
  Sc  Sc66  1  0.51236708  0.09305087  0.50160317  1
  Sc  Sc67  1  0.49706847  0.90094575  0.09571675  1
  Sc  Sc68  1  0.69971096  0.30500959  0.10730577  1
  Sc  Sc69  1  0.10512590  0.69693059  0.69974109  1
  Sc  Sc70  1  0.29786430  0.30724735  0.70501303  1
  Sc  Sc71  1  0.68396357  0.10908747  0.30433427  1
  Sc  Sc72  1  0.90640346  0.09862829  0.30711024  1
  Sc  Sc73  1  0.09822456  0.29537203  0.49753691  1
  Sc  Sc74  1  0.30243517  0.89038678  0.50605353  1
  Sc  Sc75  1  0.69793306  0.70177316  0.49832752  1
  Sc  Sc76  1  0.29288377  0.50244612  0.10571808  1
  Sc  Sc77  1  0.30501524  0.50160431  0.49517886  1
  Sc  Sc78  1  0.29725989  0.49872490  0.89816529  1
  Sc  Sc79  1  0.50295697  0.70817456  0.10866951  1
  Sc  Sc80  1  0.29898427  0.31094969  0.10219964  1
  Sc  Sc81  1  0.89715839  0.90494869  0.88415601  1
  Sc  Sc82  1  0.49147912  0.11358659  0.89671740  1
  Sc  Sc83  1  0.49657286  0.49957042  0.69124837  1
  Sc  Sc84  1  0.10317114  0.50043532  0.30469780  1
  Sc  Sc85  1  0.29712787  0.09852116  0.90431324  1
  Sc  Sc86  1  0.69729948  0.49496991  0.50621522  1
  Sc  Sc87  1  0.70105415  0.69795822  0.10606056  1
  Sc  Sc88  1  0.70413725  0.50338860  0.69874770  1
  Sc  Sc89  1  0.48974571  0.30030351  0.90247035  1
  Sc  Sc90  1  0.70231993  0.08999040  0.90140822  1
  Sc  Sc91  1  0.09462665  0.09822584  0.30006075  1
  Sc  Sc92  1  0.90436847  0.90151167  0.11224916  1
  Sc  Sc93  1  0.71175523  0.50148455  0.29895773  1
  Sc  Sc94  1  0.10582121  0.90026448  0.11462619  1
  Sc  Sc95  1  0.70516586  0.50128303  0.10401492  1
  Sc  Sc96  1  0.90497563  0.49914683  0.49690740  1
  Sc  Sc97  1  0.29219648  0.30426594  0.49533798  1
  Sc  Sc98  1  0.30075045  0.70655895  0.30301195  1
  Sc  Sc99  1  0.69566455  0.70301335  0.89653632  1
  Nb  Nb100  1  0.29557839  0.10023241  0.29944264  1
  Nb  Nb101  1  0.09725290  0.10268949  0.49620026  1
  Nb  Nb102  1  0.49393849  0.49782077  0.48831350  1
  Nb  Nb103  1  0.89941286  0.30623978  0.30026387  1
  Nb  Nb104  1  0.10176382  0.89214793  0.29680972  1
  Nb  Nb105  1  0.90139401  0.90442472  0.50098194  1
  Nb  Nb106  1  0.70570527  0.30000270  0.29798527  1
  Nb  Nb107  1  0.29148256  0.29337635  0.30328910  1
  Nb  Nb108  1  0.09826012  0.70534186  0.29949940  1
  Nb  Nb109  1  0.30561168  0.09618361  0.69850197  1
  Nb  Nb110  1  0.70128984  0.10173465  0.10143836  1
  Nb  Nb111  1  0.29406070  0.90922380  0.29046308  1
  Nb  Nb112  1  0.10177668  0.50490215  0.09835644  1
  Nb  Nb113  1  0.90431214  0.69604995  0.90927672  1
  Nb  Nb114  1  0.50460144  0.49906698  0.90635265  1
  Nb  Nb115  1  0.49451101  0.10206702  0.29963663  1
  Nb  Nb116  1  0.09834941  0.29894357  0.09432363  1
  Nb  Nb117  1  0.09466219  0.29875859  0.30214749  1
  Nb  Nb118  1  0.49661013  0.49889900  0.30427483  1
  Nb  Nb119  1  0.10083553  0.29841369  0.90475411  1
  Nb  Nb120  1  0.90131857  0.09729962  0.10407719  1
  Nb  Nb121  1  0.30438794  0.69814458  0.69661558  1
  Nb  Nb122  1  0.70292086  0.09602717  0.49709631  1
  Nb  Nb123  1  0.90299615  0.70218493  0.09743817  1
  Nb  Nb124  1  0.09348401  0.10471808  0.10207111  1
  Nb  Nb125  1  0.19407833  0.20373507  0.20008653  1
  Nb  Nb126  1  0.59318747  0.59625619  0.00222452  1
  Nb  Nb127  1  0.00379202  0.60322570  0.19707709  1
  Nb  Nb128  1  0.59277473  0.59282157  0.39718430  1
  Nb  Nb129  1  0.80075679  0.19621971  0.00740942  1
  Nb  Nb130  1  0.00248884  0.80046792  0.40060992  1
  Nb  Nb131  1  0.00338900  0.00029490  0.00418046  1
  Nb  Nb132  1  0.39368867  0.00329731  0.39401395  1
  Nb  Nb133  1  0.40148592  -0.00011673  0.79526162  1
  Nb  Nb134  1  0.59231610  -0.00114427  0.79709702  1
  Nb  Nb135  1  0.80969247  0.79870609  0.00026142  1
  Nb  Nb136  1  -0.00314679  0.80414247  -0.00135991  1
  Nb  Nb137  1  0.60577643  0.19853276  0.00605328  1
  Nb  Nb138  1  0.59985880  0.40308890  0.20944258  1
  Nb  Nb139  1  0.59827501  0.40290251  0.80363826  1
  Nb  Nb140  1  0.79385217  0.01026297  0.20020886  1
  Nb  Nb141  1  0.39678417  0.19397871  0.40123432  1
  Nb  Nb142  1  0.40728969  0.59964172  -0.00090499  1
  Nb  Nb143  1  0.20007462  -0.00258180  0.39592414  1
  Nb  Nb144  1  0.39771248  0.19851322  0.59587826  1
  Nb  Nb145  1  0.39181975  0.19735268  0.20946458  1
  Nb  Nb146  1  -0.00333339  0.80009122  0.59180639  1
  Nb  Nb147  1  0.80294998  0.19986064  0.20121527  1
  Nb  Nb148  1  0.80047081  0.20121338  0.80271143  1
  Nb  Nb149  1  0.00346462  0.39889233  0.80489477  1
  Pd  Pd150  1  0.40002904  0.19572004  0.01446435  1
  Pd  Pd151  1  0.39479581  0.60674346  0.19999477  1
  Pd  Pd152  1  0.19447229  0.80691013  0.00182850  1
  Pd  Pd153  1  -0.00649637  0.19422627  -0.00092817  1
  Pd  Pd154  1  0.19925484  0.60253177  0.80308845  1
  Pd  Pd155  1  0.20274335  0.80596608  0.39722270  1
  Pd  Pd156  1  0.01170688  0.41032329  0.20161215  1
  Pd  Pd157  1  0.20493107  0.19626759  0.79321086  1
  Pd  Pd158  1  0.79986862  0.39628203  0.79493056  1
  Pd  Pd159  1  0.59836507  0.39804178  0.00759152  1
  Pd  Pd160  1  0.21001039  0.59421614  0.39163542  1
  Pd  Pd161  1  0.79006338  0.81350082  0.18904732  1
  Pd  Pd162  1  0.60656668  -0.00688520  0.20891060  1
  Pd  Pd163  1  0.20083683  0.60166608  0.20977514  1
  Pd  Pd164  1  0.59523321  -0.00126569  0.39467427  1
  Pd  Pd165  1  0.80191707  0.19483589  0.59961188  1
  Pd  Pd166  1  0.19618152  0.40410223  0.40298229  1
  Pd  Pd167  1  0.19811184  0.40099285  0.59210338  1
  Pd  Pd168  1  0.01048507  0.01123384  0.80438821  1
  Pd  Pd169  1  0.40142741  0.00068915  0.59508654  1
  Pd  Pd170  1  0.00782049  0.59798143  0.80283229  1
  Pd  Pd171  1  0.79909389  0.40269689  0.40766245  1
  Pd  Pd172  1  -0.00158629  0.20002336  0.20856013  1
  Pd  Pd173  1  0.19061811  0.39420447  0.20084407  1
  Pd  Pd174  1  -0.00340721  0.19917022  0.80258426  1
  Pd  Pd175  1  0.58692051  0.01093448  -0.01099926  1
  Pd  Pd176  1  0.60036600  0.59129648  0.80133364  1
  Pd  Pd177  1  0.80890613  0.59607032  0.19544517  1
  Pd  Pd178  1  0.80619360  0.79607924  0.59091724  1
  Pd  Pd179  1  0.80508418  0.79211732  0.80625297  1
  Pd  Pd180  1  0.19656652  -0.00205627  0.59972431  1
  Pd  Pd181  1  0.40427234  0.40627019  0.80209071  1
  Pd  Pd182  1  0.39211870  0.40747017  0.00048084  1
  Pd  Pd183  1  0.20306925  0.20593252  0.60646310  1
  Pd  Pd184  1  0.80253410  0.19123694  0.39179937  1
  Pd  Pd185  1  0.19167920  0.40212984  0.80691516  1
  Pd  Pd186  1  0.19021539  -0.00792422  0.00372649  1
  Pd  Pd187  1  0.80330495  0.39808523  0.59255836  1
  Pd  Pd188  1  0.60738388  0.80906752  0.19583329  1
  Pd  Pd189  1  0.61115537  0.40627719  0.39309262  1
  Pd  Pd190  1  0.39530800  0.39564716  0.59938768  1
  Pd  Pd191  1  0.80698128  0.80123885  0.40827710  1
  Pd  Pd192  1  0.79747885  0.60800737  0.80259187  1
  Pd  Pd193  1  0.59331838  0.59597367  0.59054568  1
  Pd  Pd194  1  0.80120331  0.39506824  0.01099952  1
  Pd  Pd195  1  0.40269080  0.59115430  0.80374360  1
  Pd  Pd196  1  -0.00030935  0.39740356  0.59783098  1
  Pd  Pd197  1  0.79893681  0.59990501  0.59560448  1
  Pd  Pd198  1  0.00791304  -0.00835358  0.39521425  1
  Pd  Pd199  1  0.19847919  0.40170848  0.00007335  1
  Rh  Rh200  1  0.40135115  0.79134838  0.00662978  1
  Rh  Rh201  1  0.40797938  0.38624843  0.21266028  1
  Rh  Rh202  1  0.78959050  0.59401868  0.40571968  1
  Rh  Rh203  1  0.59571087  0.19995522  0.40506744  1
  Rh  Rh204  1  0.00817129  -0.00205105  0.60070172  1
  Rh  Rh205  1  0.61013020  0.19841860  0.81449939  1
  Rh  Rh206  1  0.60027846  0.79680856  0.59551766  1
  Rh  Rh207  1  0.20495009  0.20687340  0.01283786  1
  Rh  Rh208  1  0.38719647  0.19700180  0.79234272  1
  Rh  Rh209  1  0.19245396  0.19481843  0.39386792  1
  Rh  Rh210  1  0.39456585  0.38935525  0.39639427  1
  Rh  Rh211  1  0.00030631  0.20270008  0.39923026  1
  Rh  Rh212  1  0.79477114  0.00460191  0.59742177  1
  Rh  Rh213  1  0.80000641  0.39579195  0.19911511  1
  Rh  Rh214  1  0.40395660  0.00394030  -0.00854372  1
  Rh  Rh215  1  0.00235503  0.60447677  0.60095146  1
  Rh  Rh216  1  0.59469178  0.20045256  0.58703669  1
  Rh  Rh217  1  0.60029048  0.78893940  0.39806869  1
  Rh  Rh218  1  0.81217955  -0.00692677  0.01245631  1
  Rh  Rh219  1  0.39408874  0.80025130  0.19861969  1
  Rh  Rh220  1  0.00109826  0.60479376  0.38691911  1
  Rh  Rh221  1  0.78519635  0.01125722  0.78468896  1
  Rh  Rh222  1  0.59790373  0.21170342  0.19611252  1
  Rh  Rh223  1  0.39981162  0.60124944  0.39363617  1
  Rh  Rh224  1  0.20221076  0.59849882  0.59718130  1
  Rh  Rh225  1  0.20850240  0.79734958  0.20129324  1
  Rh  Rh226  1  0.00064554  0.79463830  0.20254746  1
  Rh  Rh227  1  0.18772060  0.00736486  0.20445059  1
  Rh  Rh228  1  0.60858782  0.78863025  0.00598714  1
  Rh  Rh229  1  0.78770194  0.61164337  0.00089854  1
  Rh  Rh230  1  0.01050167  0.60941772  0.00549174  1
  Rh  Rh231  1  0.19682208  0.79130303  0.60567061  1
  Rh  Rh232  1  0.40326603  0.00349055  0.20202045  1
  Rh  Rh233  1  0.01012783  0.40221379  -0.00443744  1
  Rh  Rh234  1  0.39244194  0.80970769  0.39497796  1
  Rh  Rh235  1  0.39819878  0.80956390  0.78952265  1
  Rh  Rh236  1  0.59906237  0.58972480  0.20476163  1
  Rh  Rh237  1  0.59618206  0.80836987  0.79119606  1
  Rh  Rh238  1  0.20849995  0.00592722  0.79787123  1
  Rh  Rh239  1  0.00224944  0.39487248  0.40052418  1
  Rh  Rh240  1  0.00180179  0.19586185  0.59375893  1
  Rh  Rh241  1  0.59816176  0.40565548  0.60696277  1
  Rh  Rh242  1  0.40100493  0.59640884  0.59663222  1
  Rh  Rh243  1  0.20762476  0.79220505  0.79482704  1
  Rh  Rh244  1  0.60693786  -0.00456870  0.60222719  1
  Rh  Rh245  1  0.39775861  0.79743664  0.60231194  1
  Rh  Rh246  1  -0.00349207  0.79371834  0.79998301  1
  Rh  Rh247  1  0.21091247  0.60144101  -0.00158053  1
  Rh  Rh248  1  0.79531871  0.00611694  0.39450380  1
  Rh  Rh249  1  -0.00071664  -0.00062607  0.20094514  1
