# generated using pymatgen
data_ZrScNbPdRh
_symmetry_space_group_name_H-M   'P 1'
_cell_length_a   16.55533259
_cell_length_b   16.55777994
_cell_length_c   16.55245068
_cell_angle_alpha   89.99302337
_cell_angle_beta   89.99757994
_cell_angle_gamma   89.98029617
_symmetry_Int_Tables_number   1
_chemical_formula_structural   ZrScNbPdRh
_chemical_formula_sum   'Zr50 Sc50 Nb50 Pd50 Rh50'
_cell_volume   4537.35008861
_cell_formula_units_Z   50
loop_
 _symmetry_equiv_pos_site_id
 _symmetry_equiv_pos_as_xyz
  1  'x, y, z'
loop_
 _atom_site_type_symbol
 _atom_site_label
 _atom_site_symmetry_multiplicity
 _atom_site_fract_x
 _atom_site_fract_y
 _atom_site_fract_z
 _atom_site_occupancy
  Zr  Zr0  1  0.90554133  0.91310096  0.30142867  1
  Zr  Zr1  1  0.70315288  0.69731283  0.50944033  1
  Zr  Zr2  1  0.30389038  0.90204802  0.70587119  1
  Zr  Zr3  1  0.30471555  0.50033344  0.30658975  1
  Zr  Zr4  1  0.49718180  0.69058869  0.29927025  1
  Zr  Zr5  1  0.09289391  0.70249016  0.30456356  1
  Zr  Zr6  1  0.90140439  0.09207987  0.09597731  1
  Zr  Zr7  1  0.29999168  0.09450471  0.11194592  1
  Zr  Zr8  1  0.69309807  0.90366748  0.89153316  1
  Zr  Zr9  1  0.10269971  0.10210625  0.50293712  1
  Zr  Zr10  1  0.50425220  0.30417669  0.50636689  1
  Zr  Zr11  1  0.30164745  0.10089987  0.50501346  1
  Zr  Zr12  1  0.09585837  0.69863305  0.50790315  1
  Zr  Zr13  1  0.10682312  0.29492770  0.90150658  1
  Zr  Zr14  1  0.09714057  0.30703318  0.31083157  1
  Zr  Zr15  1  0.49469478  0.69622159  0.90184110  1
  Zr  Zr16  1  0.70384810  0.09494594  0.89480963  1
  Zr  Zr17  1  0.09688987  0.50623289  0.29351512  1
  Zr  Zr18  1  0.90602002  0.69921813  0.49947551  1
  Zr  Zr19  1  0.70231312  0.29900404  0.30191394  1
  Zr  Zr20  1  0.29582086  0.69612979  0.70332615  1
  Zr  Zr21  1  0.89474273  0.30299718  0.30613775  1
  Zr  Zr22  1  0.50472967  0.68729424  0.70002177  1
  Zr  Zr23  1  0.70077159  0.29982027  0.49863019  1
  Zr  Zr24  1  0.70337364  0.90328008  0.69113871  1
  Zr  Zr25  1  0.50112165  0.09525533  0.89512793  1
  Zr  Zr26  1  0.08619946  0.10150602  0.90166532  1
  Zr  Zr27  1  0.30352399  0.50291850  0.89548982  1
  Zr  Zr28  1  0.10813009  0.89147747  0.68741727  1
  Zr  Zr29  1  0.70817296  0.49574525  0.89955295  1
  Zr  Zr30  1  0.09627030  0.09655154  0.30049789  1
  Zr  Zr31  1  0.10167567  0.49349882  0.89381193  1
  Zr  Zr32  1  0.30515351  0.09809386  0.30107279  1
  Zr  Zr33  1  0.29992943  0.69936268  0.28842273  1
  Zr  Zr34  1  0.49476218  0.10642051  0.10305238  1
  Zr  Zr35  1  0.10092978  0.69844226  0.89240224  1
  Zr  Zr36  1  0.89985389  0.30696692  0.50145540  1
  Zr  Zr37  1  0.49397926  0.29591940  0.90154417  1
  Zr  Zr38  1  0.51234272  0.50707557  0.89209852  1
  Zr  Zr39  1  0.89778918  0.90852278  0.90184237  1
  Zr  Zr40  1  0.50186495  0.10848078  0.49605177  1
  Zr  Zr41  1  0.70278573  0.30353941  0.89654038  1
  Zr  Zr42  1  0.30425253  0.70816622  0.09408341  1
  Zr  Zr43  1  0.29971374  0.89493706  0.11138503  1
  Zr  Zr44  1  0.29709223  0.30108015  0.30503739  1
  Zr  Zr45  1  0.09016205  0.89157705  0.49672619  1
  Zr  Zr46  1  0.49983364  0.29401771  0.30723680  1
  Zr  Zr47  1  0.28975955  0.90416119  0.51375672  1
  Zr  Zr48  1  0.49586459  0.49868262  0.50234125  1
  Zr  Zr49  1  0.89773664  0.10215826  0.71426426  1
  Sc  Sc50  1  0.90017324  0.50416965  0.50174623  1
  Sc  Sc51  1  0.49066065  0.10430320  0.69699604  1
  Sc  Sc52  1  0.70226981  0.50598451  0.09929732  1
  Sc  Sc53  1  0.09919661  0.70418588  0.11257289  1
  Sc  Sc54  1  0.29978461  0.49333834  0.50437078  1
  Sc  Sc55  1  0.09522557  0.10069393  0.09286978  1
  Sc  Sc56  1  0.50589526  0.90267730  0.70731875  1
  Sc  Sc57  1  0.70148974  0.68823554  0.89757039  1
  Sc  Sc58  1  0.69225494  0.70247468  0.29962489  1
  Sc  Sc59  1  0.90162632  0.69828496  0.30112408  1
  Sc  Sc60  1  0.70473056  0.30437888  0.69468132  1
  Sc  Sc61  1  0.49695923  0.89939985  0.89183948  1
  Sc  Sc62  1  0.49685424  0.09879126  0.30101418  1
  Sc  Sc63  1  0.30097120  0.29470385  0.69712013  1
  Sc  Sc64  1  0.90510441  0.49551222  0.69875873  1
  Sc  Sc65  1  0.69823067  0.09679171  0.50533134  1
  Sc  Sc66  1  0.51318402  0.90812990  0.49796081  1
  Sc  Sc67  1  0.50478204  0.51038324  0.09395653  1
  Sc  Sc68  1  0.70018951  0.50602558  0.30172126  1
  Sc  Sc69  1  0.30464780  0.68576837  0.50435017  1
  Sc  Sc70  1  0.09935656  0.30137865  0.50440659  1
  Sc  Sc71  1  0.69311968  0.09758231  0.10259663  1
  Sc  Sc72  1  0.70786498  0.09913183  0.29721112  1
  Sc  Sc73  1  0.30206599  0.10065678  0.69660703  1
  Sc  Sc74  1  0.30289964  0.11031006  0.88763594  1
  Sc  Sc75  1  0.50281588  0.70014169  0.10360167  1
  Sc  Sc76  1  0.90032089  0.68802311  0.68795130  1
  Sc  Sc77  1  0.09428594  0.89647636  0.90430232  1
  Sc  Sc78  1  0.69812376  0.90175107  0.29698724  1
  Sc  Sc79  1  0.89997382  0.30176891  0.89418000  1
  Sc  Sc80  1  0.70165170  0.70022288  0.10694484  1
  Sc  Sc81  1  0.49927278  0.89528648  0.10402816  1
  Sc  Sc82  1  0.50792375  0.69280427  0.49850292  1
  Sc  Sc83  1  0.90028714  0.89648844  0.09983225  1
  Sc  Sc84  1  0.10474169  0.50098704  0.69615942  1
  Sc  Sc85  1  0.90171484  0.49832460  0.30619414  1
  Sc  Sc86  1  0.50360087  0.89771686  0.29954522  1
  Sc  Sc87  1  0.30328576  0.29960275  0.08668564  1
  Sc  Sc88  1  0.09523905  0.10800239  0.70458913  1
  Sc  Sc89  1  0.69526777  0.50149254  0.70437016  1
  Sc  Sc90  1  0.29596952  0.50100910  0.09539101  1
  Sc  Sc91  1  0.89010727  0.30932418  0.10305611  1
  Sc  Sc92  1  0.10013938  0.49377449  0.50316762  1
  Sc  Sc93  1  0.70149956  0.89731815  0.10617231  1
  Sc  Sc94  1  0.90145769  0.29250750  0.69304833  1
  Sc  Sc95  1  0.09610803  0.30191279  0.70016799  1
  Sc  Sc96  1  0.29203159  0.30369685  0.50008749  1
  Sc  Sc97  1  0.29603119  0.30222978  0.89622989  1
  Sc  Sc98  1  0.89789559  0.10469598  0.49845176  1
  Sc  Sc99  1  0.89249315  0.50194421  0.10546465  1
  Nb  Nb100  1  0.70890835  0.89811019  0.50361269  1
  Nb  Nb101  1  0.90273402  0.10351840  0.29234225  1
  Nb  Nb102  1  0.30022699  0.70552357  0.90244354  1
  Nb  Nb103  1  0.70494318  0.10562365  0.70564642  1
  Nb  Nb104  1  0.29892007  0.90138701  0.29796221  1
  Nb  Nb105  1  0.90142009  0.70358724  0.90068023  1
  Nb  Nb106  1  0.70140262  0.49937168  0.50182296  1
  Nb  Nb107  1  0.70336148  0.70261393  0.69485469  1
  Nb  Nb108  1  0.50203405  0.29664833  0.10146119  1
  Nb  Nb109  1  0.10269776  0.89883010  0.29667010  1
  Nb  Nb110  1  0.69617645  0.30032324  0.09829674  1
  Nb  Nb111  1  0.10186007  0.30432986  0.09626534  1
  Nb  Nb112  1  0.89749604  0.70457870  0.08865789  1
  Nb  Nb113  1  0.89518725  0.89814708  0.50635037  1
  Nb  Nb114  1  0.09921954  0.69865494  0.69429751  1
  Nb  Nb115  1  0.09865619  0.50318689  0.09765016  1
  Nb  Nb116  1  0.89889192  0.89822381  0.69901023  1
  Nb  Nb117  1  0.49582512  0.49608854  0.29951019  1
  Nb  Nb118  1  0.90115434  0.50351471  0.90498094  1
  Nb  Nb119  1  0.10155025  0.90571551  0.11060978  1
  Nb  Nb120  1  0.50038265  0.49500213  0.69663557  1
  Nb  Nb121  1  0.30867221  0.50289617  0.69099010  1
  Nb  Nb122  1  0.30076786  0.89074265  0.90582018  1
  Nb  Nb123  1  0.89892701  0.09954423  0.90214367  1
  Nb  Nb124  1  0.50514638  0.30772862  0.69733561  1
  Nb  Nb125  1  0.59426961  0.39634705  0.19691482  1
  Nb  Nb126  1  0.60099488  0.20278126  0.79613434  1
  Nb  Nb127  1  0.80484831  0.79647521  0.79504177  1
  Nb  Nb128  1  0.79908877  0.19791842  -0.00201378  1
  Nb  Nb129  1  0.60056060  0.79795291  -0.00496719  1
  Nb  Nb130  1  0.19529791  0.60483687  -0.00422484  1
  Nb  Nb131  1  0.80036570  0.80710727  0.40816315  1
  Nb  Nb132  1  0.19915234  -0.00693002  0.39614883  1
  Nb  Nb133  1  0.40539077  0.40585923  0.79198891  1
  Nb  Nb134  1  0.19862908  0.39790807  0.19662291  1
  Nb  Nb135  1  0.39164276  -0.00383378  -0.00209863  1
  Nb  Nb136  1  -0.00606656  -0.00438140  0.60288540  1
  Nb  Nb137  1  -0.00076587  0.20492492  0.20092667  1
  Nb  Nb138  1  0.00154736  0.40710072  0.00012852  1
  Nb  Nb139  1  0.20488783  0.80031130  0.39710334  1
  Nb  Nb140  1  0.20028085  -0.00446826  0.80657402  1
  Nb  Nb141  1  0.40311692  0.79876616  0.59835813  1
  Nb  Nb142  1  0.20494866  -0.00497036  -0.00299805  1
  Nb  Nb143  1  -0.00269344  0.60120573  -0.00168911  1
  Nb  Nb144  1  0.19254790  0.20736074  0.19949688  1
  Nb  Nb145  1  0.60050063  0.39387540  0.00425740  1
  Nb  Nb146  1  0.39419400  0.80174236  0.40379120  1
  Nb  Nb147  1  0.19784626  0.60395764  0.39641233  1
  Nb  Nb148  1  -0.00576972  0.79482164  0.79481569  1
  Nb  Nb149  1  0.40525796  0.39766151  0.19773976  1
  Pd  Pd150  1  0.59754065  0.00767373  0.60501577  1
  Pd  Pd151  1  0.59114954  -0.00942188  0.00510637  1
  Pd  Pd152  1  0.78725141  0.80143047  -0.00921659  1
  Pd  Pd153  1  0.00968670  -0.01008019  0.79167359  1
  Pd  Pd154  1  -0.00376975  0.20082632  0.40003631  1
  Pd  Pd155  1  0.80368447  0.60562211  0.20410509  1
  Pd  Pd156  1  0.00137081  0.39679091  0.19431914  1
  Pd  Pd157  1  0.59634619  0.00157831  0.20243596  1
  Pd  Pd158  1  0.60277028  0.80133101  0.40332629  1
  Pd  Pd159  1  0.59194497  0.80133055  0.59768202  1
  Pd  Pd160  1  0.79202139  0.00045825  0.00640416  1
  Pd  Pd161  1  0.21114730  0.39895857  0.78825703  1
  Pd  Pd162  1  -0.01244160  0.60468045  0.19147252  1
  Pd  Pd163  1  0.60207904  0.19937294  0.20718913  1
  Pd  Pd164  1  0.39774716  -0.00942891  0.40436741  1
  Pd  Pd165  1  0.80671705  0.01165936  0.60357576  1
  Pd  Pd166  1  0.79729853  -0.00001246  0.39930386  1
  Pd  Pd167  1  0.20278008  0.59669375  0.79846821  1
  Pd  Pd168  1  0.80399777  0.60239010  0.79279884  1
  Pd  Pd169  1  0.18812320  0.79980880  0.00743577  1
  Pd  Pd170  1  0.60244924  0.59389965  0.40174926  1
  Pd  Pd171  1  0.40220428  0.79431285  0.79426999  1
  Pd  Pd172  1  0.19739811  0.20173812  0.60676000  1
  Pd  Pd173  1  0.39570165  0.59871194  0.00293421  1
  Pd  Pd174  1  0.39813200  0.59239642  0.18977094  1
  Pd  Pd175  1  0.39501832  0.20695995  0.40907824  1
  Pd  Pd176  1  0.41170240  -0.00634858  0.59892262  1
  Pd  Pd177  1  0.40966927  0.40738855  -0.00175374  1
  Pd  Pd178  1  0.79897239  0.40572647  0.60322120  1
  Pd  Pd179  1  0.60849203  0.00420090  0.39603459  1
  Pd  Pd180  1  -0.01331827  0.21449757  0.00671785  1
  Pd  Pd181  1  0.80488954  0.19715884  0.19031097  1
  Pd  Pd182  1  0.00543510  0.79939287  0.00104999  1
  Pd  Pd183  1  0.00056062  0.00199939  0.40852584  1
  Pd  Pd184  1  0.20658134  0.18897411  0.00306688  1
  Pd  Pd185  1  0.80123248  0.60234209  0.00210879  1
  Pd  Pd186  1  0.80895598  0.39906851  0.79195998  1
  Pd  Pd187  1  0.79738366  0.19369918  0.40500552  1
  Pd  Pd188  1  -0.00848276  0.80186285  0.20171064  1
  Pd  Pd189  1  0.60660250  0.20058198  -0.00778554  1
  Pd  Pd190  1  0.60276516  0.40613174  0.39618760  1
  Pd  Pd191  1  0.39237806  0.19145642  -0.00097628  1
  Pd  Pd192  1  0.19483165  0.80505638  0.80088243  1
  Pd  Pd193  1  0.80469137  0.80114940  0.21105467  1
  Pd  Pd194  1  0.60711186  0.78934251  0.80225114  1
  Pd  Pd195  1  0.78899344  0.40699624  0.20391814  1
  Pd  Pd196  1  0.60417559  0.19801527  0.60835985  1
  Pd  Pd197  1  -0.00497932  0.60160237  0.79834523  1
  Pd  Pd198  1  -0.00337325  0.39526903  0.80093983  1
  Pd  Pd199  1  0.79848607  0.60710528  0.39843712  1
  Rh  Rh200  1  0.59386694  0.39293281  0.80556975  1
  Rh  Rh201  1  0.00580879  0.59404034  0.40419157  1
  Rh  Rh202  1  0.60747583  0.40639305  0.59584484  1
  Rh  Rh203  1  0.39755029  0.60207465  0.40293238  1
  Rh  Rh204  1  0.20149119  0.39913376  0.60443649  1
  Rh  Rh205  1  0.79975086  0.39630920  0.00011099  1
  Rh  Rh206  1  0.20332929  0.18823591  0.39735749  1
  Rh  Rh207  1  0.39602856  0.39450657  0.60295804  1
  Rh  Rh208  1  0.60714084  0.60224500  0.79513934  1
  Rh  Rh209  1  0.40476191  0.60204803  0.59918359  1
  Rh  Rh210  1  0.79989513  0.19821933  0.59743276  1
  Rh  Rh211  1  -0.00314048  0.19475941  0.59917414  1
  Rh  Rh212  1  -0.00196768  0.40502329  0.40577370  1
  Rh  Rh213  1  -0.00173548  0.20706068  0.80410591  1
  Rh  Rh214  1  0.19537121  0.19507873  0.79891403  1
  Rh  Rh215  1  0.20434960  0.59520181  0.19635858  1
  Rh  Rh216  1  0.59981553  0.59410471  0.20333659  1
  Rh  Rh217  1  0.19481936  0.41361619  0.39648286  1
  Rh  Rh218  1  0.40224392  0.39597629  0.40265933  1
  Rh  Rh219  1  0.40119557  0.20751244  0.59578354  1
  Rh  Rh220  1  0.79760577  0.40677881  0.40253665  1
  Rh  Rh221  1  0.79957210  -0.00739567  0.79590009  1
  Rh  Rh222  1  0.80135063  -0.00053327  0.19714496  1
  Rh  Rh223  1  0.19844598  0.59697453  0.59594238  1
  Rh  Rh224  1  0.19642650  0.79815820  0.20287240  1
  Rh  Rh225  1  0.40969891  -0.00612187  0.19807774  1
  Rh  Rh226  1  -0.00963292  0.80088082  0.60876870  1
  Rh  Rh227  1  0.41144065  0.80488947  -0.00277791  1
  Rh  Rh228  1  0.59931420  0.79656935  0.19469617  1
  Rh  Rh229  1  0.21157523  0.78451230  0.59348086  1
  Rh  Rh230  1  0.39019018  0.21134503  0.19827926  1
  Rh  Rh231  1  0.60872312  0.60304142  0.00231172  1
  Rh  Rh232  1  0.40777679  0.21241520  0.79074691  1
  Rh  Rh233  1  0.00075217  0.39816936  0.59945447  1
  Rh  Rh234  1  0.60603950  0.59234432  0.60191025  1
  Rh  Rh235  1  0.40821084  0.80067000  0.21040681  1
  Rh  Rh236  1  0.80442890  0.79482631  0.60124448  1
  Rh  Rh237  1  0.59890589  0.01278249  0.78721878  1
  Rh  Rh238  1  0.19287001  0.00666667  0.20178335  1
  Rh  Rh239  1  0.79682045  0.20345872  0.80497670  1
  Rh  Rh240  1  0.60726048  0.19168947  0.39686586  1
  Rh  Rh241  1  0.00566705  -0.01002223  0.00552389  1
  Rh  Rh242  1  0.18836730  0.01248712  0.60889366  1
  Rh  Rh243  1  0.19452197  0.40891936  0.00327737  1
  Rh  Rh244  1  0.79610303  0.59078843  0.60222952  1
  Rh  Rh245  1  0.00101395  0.00379005  0.19467730  1
  Rh  Rh246  1  0.39723508  0.59739138  0.79703550  1
  Rh  Rh247  1  -0.00810821  0.80499463  0.39339187  1
  Rh  Rh248  1  0.39134665  -0.00168703  0.80716518  1
  Rh  Rh249  1  0.00511407  0.59177289  0.60118179  1
