# generated using pymatgen
data_ZrScNbPdRh
_symmetry_space_group_name_H-M   'P 1'
_cell_length_a   16.55314303
_cell_length_b   16.55802409
_cell_length_c   16.55844580
_cell_angle_alpha   90.02320437
_cell_angle_beta   89.99090638
_cell_angle_gamma   90.02209389
_symmetry_Int_Tables_number   1
_chemical_formula_structural   ZrScNbPdRh
_chemical_formula_sum   'Zr50 Sc50 Nb50 Pd50 Rh50'
_cell_volume   4538.45961555
_cell_formula_units_Z   50
loop_
 _symmetry_equiv_pos_site_id
 _symmetry_equiv_pos_as_xyz
  1  'x, y, z'
loop_
 _atom_site_type_symbol
 _atom_site_label
 _atom_site_symmetry_multiplicity
 _atom_site_fract_x
 _atom_site_fract_y
 _atom_site_fract_z
 _atom_site_occupancy
  Zr  Zr0  1  0.69057892  0.70140548  0.10226061  1
  Zr  Zr1  1  0.10237892  0.09813422  0.50646584  1
  Zr  Zr2  1  0.50226332  0.69519900  0.09269557  1
  Zr  Zr3  1  0.49691240  0.28414635  0.09680563  1
  Zr  Zr4  1  0.29850443  0.09055751  0.89104232  1
  Zr  Zr5  1  0.49476876  0.69861403  0.49899501  1
  Zr  Zr6  1  0.70101106  0.10383785  0.69681976  1
  Zr  Zr7  1  0.09750521  0.69286885  0.30169161  1
  Zr  Zr8  1  0.69261557  0.10645337  0.49615320  1
  Zr  Zr9  1  0.89371065  0.50783885  0.51318288  1
  Zr  Zr10  1  0.90006917  0.91209850  0.09876336  1
  Zr  Zr11  1  0.70214833  0.90594097  0.29668984  1
  Zr  Zr12  1  0.49421114  0.49710777  0.69524988  1
  Zr  Zr13  1  0.88088521  0.49177098  0.10478586  1
  Zr  Zr14  1  0.30399719  0.89704165  0.71577025  1
  Zr  Zr15  1  0.90724268  0.10546649  0.09547594  1
  Zr  Zr16  1  0.09975422  0.90199546  0.30009773  1
  Zr  Zr17  1  0.89788992  0.09774121  0.69734266  1
  Zr  Zr18  1  0.70341911  0.30146715  0.09443008  1
  Zr  Zr19  1  0.69729939  0.29679734  0.69877682  1
  Zr  Zr20  1  0.88883683  0.30281490  0.70451350  1
  Zr  Zr21  1  0.70066398  0.90044130  0.09133589  1
  Zr  Zr22  1  0.10180689  0.09728040  0.69914279  1
  Zr  Zr23  1  0.50293079  0.09906230  0.30595489  1
  Zr  Zr24  1  0.90174519  0.30425767  0.29103449  1
  Zr  Zr25  1  0.70418582  0.69631424  0.50195235  1
  Zr  Zr26  1  0.49695539  0.29290050  0.29692081  1
  Zr  Zr27  1  0.49781966  0.09660328  0.90868785  1
  Zr  Zr28  1  0.90161703  0.69912686  0.49258072  1
  Zr  Zr29  1  0.69859585  0.30324680  0.50307997  1
  Zr  Zr30  1  0.10473028  0.50553576  0.90507060  1
  Zr  Zr31  1  0.70315234  0.70557912  0.30192876  1
  Zr  Zr32  1  0.89094582  0.50058545  0.90601446  1
  Zr  Zr33  1  0.09811923  0.49102587  0.51415675  1
  Zr  Zr34  1  0.89483643  0.69968903  0.08807024  1
  Zr  Zr35  1  0.69344261  0.09689310  0.09463363  1
  Zr  Zr36  1  0.30480474  0.69825039  0.50482297  1
  Zr  Zr37  1  0.50375408  0.50137499  0.30350926  1
  Zr  Zr38  1  0.30297661  0.50123799  0.89683945  1
  Zr  Zr39  1  0.50343189  0.89843507  0.09747430  1
  Zr  Zr40  1  0.70882663  0.49801888  0.69193575  1
  Zr  Zr41  1  0.10191030  0.30129913  0.69569046  1
  Zr  Zr42  1  0.50425925  0.50015100  0.50354425  1
  Zr  Zr43  1  0.70715177  0.89944035  0.70333515  1
  Zr  Zr44  1  0.30462289  0.09833630  0.50120663  1
  Zr  Zr45  1  0.69628369  0.49834874  0.50139712  1
  Zr  Zr46  1  0.90163511  0.69876434  0.30367543  1
  Zr  Zr47  1  0.70263235  0.70701616  0.90442519  1
  Zr  Zr48  1  0.29723479  0.69915671  0.70160820  1
  Zr  Zr49  1  0.09956446  0.70108612  0.09516429  1
  Sc  Sc50  1  0.30224613  0.69529142  0.31537822  1
  Sc  Sc51  1  0.70264218  0.29564227  0.89766715  1
  Sc  Sc52  1  0.10087914  0.10342164  0.29546000  1
  Sc  Sc53  1  0.48893435  0.89505763  0.89564733  1
  Sc  Sc54  1  0.10825682  0.50005561  0.10679119  1
  Sc  Sc55  1  0.10654308  0.70635888  0.70201241  1
  Sc  Sc56  1  0.09682814  0.30013722  0.11181804  1
  Sc  Sc57  1  0.29634203  0.49430099  0.09043166  1
  Sc  Sc58  1  0.70080516  0.10320169  0.90128209  1
  Sc  Sc59  1  0.29289991  0.29375647  0.29918827  1
  Sc  Sc60  1  0.89981543  0.50914228  0.30172743  1
  Sc  Sc61  1  0.90583964  0.10269517  0.49897412  1
  Sc  Sc62  1  0.29115793  0.49995225  0.30206222  1
  Sc  Sc63  1  0.50447834  0.70872158  0.69734930  1
  Sc  Sc64  1  0.89155926  0.29338951  0.90295088  1
  Sc  Sc65  1  0.10487968  0.89816152  0.89919909  1
  Sc  Sc66  1  0.30378051  0.70349310  0.08762739  1
  Sc  Sc67  1  0.30316981  0.50457673  0.50868283  1
  Sc  Sc68  1  0.90426621  0.70970138  0.69288478  1
  Sc  Sc69  1  0.90423316  0.09231305  0.29667218  1
  Sc  Sc70  1  0.29907792  0.09883195  0.70214372  1
  Sc  Sc71  1  0.30869727  0.89075988  0.49983214  1
  Sc  Sc72  1  0.10340509  0.89515138  0.69022757  1
  Sc  Sc73  1  0.10395171  0.30026442  0.30096385  1
  Sc  Sc74  1  0.09998422  0.50341330  0.30090702  1
  Sc  Sc75  1  0.10015164  0.09520212  0.89849472  1
  Sc  Sc76  1  0.49833082  0.49946533  0.91486162  1
  Sc  Sc77  1  0.90764848  0.89951495  0.49938137  1
  Sc  Sc78  1  0.50444765  0.69812644  0.29903340  1
  Sc  Sc79  1  0.49383134  0.29489038  0.89550870  1
  Sc  Sc80  1  0.49834157  0.29819400  0.69776630  1
  Sc  Sc81  1  0.10102585  0.29275415  0.50183706  1
  Sc  Sc82  1  0.29192346  0.29992116  0.49947477  1
  Sc  Sc83  1  0.29718029  0.09179707  0.10198895  1
  Sc  Sc84  1  0.29728214  0.89698066  0.90650776  1
  Sc  Sc85  1  0.48997116  0.10563874  0.70092525  1
  Sc  Sc86  1  0.30921800  0.30191817  0.70563641  1
  Sc  Sc87  1  0.69628950  0.70814953  0.69752660  1
  Sc  Sc88  1  0.10669458  0.91231623  0.09243819  1
  Sc  Sc89  1  0.09440481  0.29130882  0.89774078  1
  Sc  Sc90  1  0.70252866  0.50365133  0.29570493  1
  Sc  Sc91  1  0.70052073  0.30318234  0.30934699  1
  Sc  Sc92  1  0.29398358  0.70837987  0.89796462  1
  Sc  Sc93  1  0.30619300  0.30444806  0.90336174  1
  Sc  Sc94  1  0.70767506  0.90183928  0.49644755  1
  Sc  Sc95  1  0.29979468  0.10465722  0.29919990  1
  Sc  Sc96  1  0.90605160  0.10472482  0.90443364  1
  Sc  Sc97  1  0.09995852  0.70881000  0.50063690  1
  Sc  Sc98  1  0.69996650  0.09649388  0.30136052  1
  Sc  Sc99  1  0.89419509  0.89153323  0.90041971  1
  Nb  Nb100  1  0.89702550  0.30396639  0.49145300  1
  Nb  Nb101  1  0.69546213  0.90094357  0.89446703  1
  Nb  Nb102  1  0.29858650  0.29891214  0.10599869  1
  Nb  Nb103  1  0.29459211  0.50351208  0.70243892  1
  Nb  Nb104  1  0.49467423  0.69594562  0.89857667  1
  Nb  Nb105  1  0.09696403  0.09960527  0.09021596  1
  Nb  Nb106  1  0.50599721  0.89960383  0.70133482  1
  Nb  Nb107  1  0.50150327  0.09779354  0.49884614  1
  Nb  Nb108  1  0.29709098  0.89695768  0.10447641  1
  Nb  Nb109  1  0.10563115  0.90357562  0.50120357  1
  Nb  Nb110  1  0.09320485  0.70072078  0.90054637  1
  Nb  Nb111  1  0.69973096  0.49787485  0.90236688  1
  Nb  Nb112  1  0.09984749  0.50052436  0.70352116  1
  Nb  Nb113  1  0.69054750  0.49989692  0.09009936  1
  Nb  Nb114  1  0.90205274  0.90596172  0.69787459  1
  Nb  Nb115  1  0.50347187  0.50328952  0.10119901  1
  Nb  Nb116  1  0.30087744  0.89986851  0.29628326  1
  Nb  Nb117  1  0.50151612  0.09895257  0.10358226  1
  Nb  Nb118  1  0.90256214  0.50304388  0.70302520  1
  Nb  Nb119  1  0.89756617  0.89844938  0.29586108  1
  Nb  Nb120  1  0.49895710  0.89902056  0.30472999  1
  Nb  Nb121  1  0.49839936  0.90538452  0.49710478  1
  Nb  Nb122  1  0.90072674  0.29953596  0.10076844  1
  Nb  Nb123  1  0.50878098  0.29868879  0.49610734  1
  Nb  Nb124  1  0.90492594  0.69608793  0.90194964  1
  Nb  Nb125  1  0.39798669  0.80100999  0.20237103  1
  Nb  Nb126  1  -0.00094010  0.40780137  0.80030309  1
  Nb  Nb127  1  -0.00422787  -0.00549451  0.79236936  1
  Nb  Nb128  1  0.60182372  0.40801701  0.80125718  1
  Nb  Nb129  1  0.40207949  0.40021815  0.19835075  1
  Nb  Nb130  1  0.80366715  0.20118261  0.19481366  1
  Nb  Nb131  1  0.59351998  -0.00069440  0.60035309  1
  Nb  Nb132  1  0.20157753  -0.00512894  0.40177944  1
  Nb  Nb133  1  0.60007603  -0.00449657  0.79610627  1
  Nb  Nb134  1  -0.00460531  0.39992115  0.40654142  1
  Nb  Nb135  1  -0.00447161  0.39901010  0.00159971  1
  Nb  Nb136  1  0.80282062  0.60168932  0.80157637  1
  Nb  Nb137  1  0.20058055  0.19823272  0.00552363  1
  Nb  Nb138  1  0.80588799  0.80495094  0.19869029  1
  Nb  Nb139  1  0.40295470  0.59981727  0.79998933  1
  Nb  Nb140  1  0.59549807  0.40180797  0.19162910  1
  Nb  Nb141  1  0.40386376  -0.00513000  0.20125057  1
  Nb  Nb142  1  -0.00154787  0.60128165  0.80324755  1
  Nb  Nb143  1  0.60146236  0.59658242  0.80484367  1
  Nb  Nb144  1  -0.00058490  0.80226597  0.19896585  1
  Nb  Nb145  1  0.40278235  0.59683533  0.19546717  1
  Nb  Nb146  1  0.59592419  0.80689007  0.40192176  1
  Nb  Nb147  1  0.19555197  0.40620282  0.79725423  1
  Nb  Nb148  1  0.40381360  0.39708515  0.39880729  1
  Nb  Nb149  1  0.20173676  0.80103972  0.20140549  1
  Pd  Pd150  1  0.80202798  0.00482090  -0.00971025  1
  Pd  Pd151  1  0.39454045  0.39272340  0.59179807  1
  Pd  Pd152  1  0.40101059  0.20613128  0.59453966  1
  Pd  Pd153  1  0.60185570  0.80925919  0.58897408  1
  Pd  Pd154  1  0.59399974  0.38914450  -0.00434942  1
  Pd  Pd155  1  0.79420779  0.60581945  0.19615610  1
  Pd  Pd156  1  0.40428159  0.39684484  0.00741620  1
  Pd  Pd157  1  0.80429169  0.19424021  0.39046010  1
  Pd  Pd158  1  0.80592970  0.20149389  0.59242739  1
  Pd  Pd159  1  0.19428961  0.59377369  0.41330276  1
  Pd  Pd160  1  0.40133279  -0.00470612  0.60715549  1
  Pd  Pd161  1  -0.00795730  0.39102644  0.60149129  1
  Pd  Pd162  1  0.80482299  0.40949658  0.39775002  1
  Pd  Pd163  1  0.20557215  0.60642312  -0.00100874  1
  Pd  Pd164  1  0.80620852  0.79342031  0.79948531  1
  Pd  Pd165  1  0.39565119  -0.00404658  0.00685264  1
  Pd  Pd166  1  0.00391468  0.81026082  0.00352020  1
  Pd  Pd167  1  -0.00163943  0.58846127  0.00661065  1
  Pd  Pd168  1  0.00370080  0.40912245  0.20214648  1
  Pd  Pd169  1  0.00656082  0.61145823  0.60620969  1
  Pd  Pd170  1  0.20930846  0.20305774  0.60531051  1
  Pd  Pd171  1  0.80235129  0.00496119  0.80882368  1
  Pd  Pd172  1  0.59256656  0.80345845  -0.01108075  1
  Pd  Pd173  1  0.59582156  -0.00140608  0.20027158  1
  Pd  Pd174  1  0.00168315  0.80191122  0.79731940  1
  Pd  Pd175  1  0.19773012  0.40215936  0.40246480  1
  Pd  Pd176  1  0.20711953  0.20901797  0.80622925  1
  Pd  Pd177  1  0.00149314  0.80433905  0.39813454  1
  Pd  Pd178  1  0.39664511  0.20660914  0.40557595  1
  Pd  Pd179  1  0.79745509  0.00245252  0.58980906  1
  Pd  Pd180  1  0.40072098  0.80377809  0.60615704  1
  Pd  Pd181  1  0.00291580  0.20473405  0.39424474  1
  Pd  Pd182  1  -0.00378851  0.19858475  0.79706521  1
  Pd  Pd183  1  0.61217424  0.20387278  0.20499213  1
  Pd  Pd184  1  0.59514996  0.19807967  0.80333829  1
  Pd  Pd185  1  0.38737366  0.19087960  0.00098309  1
  Pd  Pd186  1  0.80659699  0.00371402  0.40468718  1
  Pd  Pd187  1  0.80611949  0.80153593  0.59583346  1
  Pd  Pd188  1  0.18973267  0.38563778  -0.00419737  1
  Pd  Pd189  1  0.19662739  0.19338505  0.19318547  1
  Pd  Pd190  1  -0.00717129  0.20658611  0.60179541  1
  Pd  Pd191  1  0.39266721  0.00092935  0.39451737  1
  Pd  Pd192  1  0.00704655  -0.00001506  0.19760397  1
  Pd  Pd193  1  0.21477676  0.60894237  0.19486868  1
  Pd  Pd194  1  0.20249477  0.80336741  0.39850741  1
  Pd  Pd195  1  0.00512174  0.00037785  0.40208241  1
  Pd  Pd196  1  0.21307647  -0.00911672  0.59873399  1
  Pd  Pd197  1  0.60422642  0.60653035  0.39998777  1
  Pd  Pd198  1  0.19238542  0.60450622  0.59698912  1
  Pd  Pd199  1  -0.00442508  0.59845024  0.19015480  1
  Rh  Rh200  1  0.19058253  -0.00683584  0.79658059  1
  Rh  Rh201  1  0.79909459  0.80260055  0.00154776  1
  Rh  Rh202  1  0.60048809  0.80434594  0.21007813  1
  Rh  Rh203  1  0.59055728  0.19512750  0.59785593  1
  Rh  Rh204  1  0.40235914  0.40913263  0.80019267  1
  Rh  Rh205  1  0.00139834  0.80355353  0.59623544  1
  Rh  Rh206  1  0.80011490  0.61114611  0.60939702  1
  Rh  Rh207  1  0.19958457  0.60095409  0.80326200  1
  Rh  Rh208  1  0.20311828  -0.00004585  0.20497991  1
  Rh  Rh209  1  0.39525020  0.60108821  -0.00251941  1
  Rh  Rh210  1  0.79666800  0.59465905  0.40177909  1
  Rh  Rh211  1  0.00741985  0.58811704  0.41265873  1
  Rh  Rh212  1  0.79825802  0.80470059  0.39577663  1
  Rh  Rh213  1  0.39776199  0.58849763  0.39560869  1
  Rh  Rh214  1  0.40306635  0.60556195  0.61055142  1
  Rh  Rh215  1  0.39720259  0.19692039  0.80323931  1
  Rh  Rh216  1  0.79833000  0.19727243  0.00537836  1
  Rh  Rh217  1  0.59878159  0.39536297  0.60755927  1
  Rh  Rh218  1  0.20304966  0.00604376  -0.00246667  1
  Rh  Rh219  1  0.80356864  0.39485671  0.59705719  1
  Rh  Rh220  1  0.80082698  0.19228286  0.80324568  1
  Rh  Rh221  1  0.60020655  0.59377954  0.20086577  1
  Rh  Rh222  1  -0.00198048  0.19664232  0.20046138  1
  Rh  Rh223  1  0.78959883  0.60294130  -0.00160427  1
  Rh  Rh224  1  0.59899997  0.19887403  -0.00591293  1
  Rh  Rh225  1  0.19458618  0.80045883  0.00296067  1
  Rh  Rh226  1  0.19463827  0.80044665  0.80379426  1
  Rh  Rh227  1  0.59827393  -0.00326363  -0.01048713  1
  Rh  Rh228  1  0.80069582  0.39373071  -0.00321337  1
  Rh  Rh229  1  0.79643402  0.40457733  0.80190176  1
  Rh  Rh230  1  0.60076520  0.20212037  0.39818481  1
  Rh  Rh231  1  0.01030152  0.20915967  0.00441865  1
  Rh  Rh232  1  0.59693461  0.80088545  0.80565351  1
  Rh  Rh233  1  0.20762887  0.39706189  0.60970072  1
  Rh  Rh234  1  0.40050132  0.80067617  0.00159044  1
  Rh  Rh235  1  0.39449829  0.19289653  0.19536636  1
  Rh  Rh236  1  0.40734347  -0.00025914  0.79686916  1
  Rh  Rh237  1  0.20693395  0.40051777  0.20351108  1
  Rh  Rh238  1  0.20665674  0.80176459  0.59865085  1
  Rh  Rh239  1  0.59488742  0.39675404  0.39444296  1
  Rh  Rh240  1  0.60402784  0.60187561  -0.00780048  1
  Rh  Rh241  1  0.60137475  -0.00466169  0.40761957  1
  Rh  Rh242  1  0.78582050  0.39454079  0.20045175  1
  Rh  Rh243  1  0.60019386  0.60275470  0.60531807  1
  Rh  Rh244  1  0.40295764  0.79199288  0.79940911  1
  Rh  Rh245  1  0.79857999  0.00433444  0.19691844  1
  Rh  Rh246  1  0.00102147  -0.00382747  0.60322136  1
  Rh  Rh247  1  0.19715828  0.18795501  0.40414320  1
  Rh  Rh248  1  -0.00034448  -0.00396108  -0.01505745  1
  Rh  Rh249  1  0.40638189  0.79794361  0.39548004  1
