# generated using pymatgen
data_ZrScNbPdRh
_symmetry_space_group_name_H-M   'P 1'
_cell_length_a   16.56149531
_cell_length_b   16.56354634
_cell_length_c   16.56022539
_cell_angle_alpha   89.98332778
_cell_angle_beta   90.00539038
_cell_angle_gamma   89.97802813
_symmetry_Int_Tables_number   1
_chemical_formula_structural   ZrScNbPdRh
_chemical_formula_sum   'Zr50 Sc50 Nb50 Pd50 Rh50'
_cell_volume   4542.75237595
_cell_formula_units_Z   50
loop_
 _symmetry_equiv_pos_site_id
 _symmetry_equiv_pos_as_xyz
  1  'x, y, z'
loop_
 _atom_site_type_symbol
 _atom_site_label
 _atom_site_symmetry_multiplicity
 _atom_site_fract_x
 _atom_site_fract_y
 _atom_site_fract_z
 _atom_site_occupancy
  Zr  Zr0  1  0.68764943  0.09109367  0.49346235  1
  Zr  Zr1  1  0.49889941  0.09900011  0.31313009  1
  Zr  Zr2  1  0.69946885  0.10484008  0.30048578  1
  Zr  Zr3  1  0.89436830  0.31177324  0.10791562  1
  Zr  Zr4  1  0.08743689  0.50530809  0.09459836  1
  Zr  Zr5  1  0.10018949  0.90002079  0.29304964  1
  Zr  Zr6  1  0.70441885  0.28966160  0.50002473  1
  Zr  Zr7  1  0.29768343  0.69996841  0.50080649  1
  Zr  Zr8  1  0.10763160  0.49024050  0.70367000  1
  Zr  Zr9  1  0.29818738  0.10035565  0.49760580  1
  Zr  Zr10  1  0.69527648  0.70247198  0.69700748  1
  Zr  Zr11  1  0.29997573  0.30077327  0.30373279  1
  Zr  Zr12  1  0.09548594  0.70132644  0.29695677  1
  Zr  Zr13  1  0.30278627  0.49893803  0.69825312  1
  Zr  Zr14  1  0.49945930  0.50259612  0.09908414  1
  Zr  Zr15  1  0.89702061  0.49455260  0.70103314  1
  Zr  Zr16  1  0.10231906  0.30246519  0.29860974  1
  Zr  Zr17  1  0.50485515  0.09812281  0.89599792  1
  Zr  Zr18  1  0.09572825  0.30189284  0.48953070  1
  Zr  Zr19  1  0.69757114  0.90778133  0.89887283  1
  Zr  Zr20  1  0.09745255  0.70548846  0.70096224  1
  Zr  Zr21  1  0.10751073  0.70354064  0.10112021  1
  Zr  Zr22  1  0.89342628  0.09978378  0.90302353  1
  Zr  Zr23  1  0.29916352  0.10079375  0.70208092  1
  Zr  Zr24  1  0.69597661  0.89487769  0.10309406  1
  Zr  Zr25  1  0.10118292  0.10579537  0.89392173  1
  Zr  Zr26  1  0.50367727  0.69138630  0.30503972  1
  Zr  Zr27  1  0.69806697  0.89230457  0.69670372  1
  Zr  Zr28  1  0.09994708  0.30579715  0.89346885  1
  Zr  Zr29  1  0.89502615  0.09774271  0.10241452  1
  Zr  Zr30  1  0.89574400  0.69970250  0.29839853  1
  Zr  Zr31  1  0.69851682  0.30179198  0.69856705  1
  Zr  Zr32  1  0.08989167  0.89241333  0.90717278  1
  Zr  Zr33  1  0.88964243  0.89838188  0.50175832  1
  Zr  Zr34  1  0.30643199  0.49859486  0.29271733  1
  Zr  Zr35  1  0.70180008  0.49531355  0.70328962  1
  Zr  Zr36  1  0.90448459  0.49027524  0.90350212  1
  Zr  Zr37  1  0.70066519  0.50249160  0.29641854  1
  Zr  Zr38  1  0.30231977  0.89495735  0.09879055  1
  Zr  Zr39  1  0.10038766  0.69749100  0.49136559  1
  Zr  Zr40  1  0.90163590  0.10363568  0.70339626  1
  Zr  Zr41  1  0.30216525  0.30367844  0.70416363  1
  Zr  Zr42  1  0.70095451  0.10497405  0.89792072  1
  Zr  Zr43  1  0.10363459  0.70020949  0.90896776  1
  Zr  Zr44  1  0.50630907  0.50317108  0.91383338  1
  Zr  Zr45  1  0.50341654  0.30681285  0.49549478  1
  Zr  Zr46  1  0.89377338  0.29980958  0.69343225  1
  Zr  Zr47  1  0.49659964  0.29693406  0.29510797  1
  Zr  Zr48  1  0.09908467  0.89740110  0.10384234  1
  Zr  Zr49  1  0.90180724  0.69971688  0.49761185  1
  Sc  Sc50  1  0.89857861  0.29716979  0.88776432  1
  Sc  Sc51  1  0.30858615  0.90488648  0.70425935  1
  Sc  Sc52  1  0.30983643  0.90262541  0.90438438  1
  Sc  Sc53  1  0.30075399  0.09608286  0.89560817  1
  Sc  Sc54  1  0.29086054  0.29668649  0.49855673  1
  Sc  Sc55  1  0.31384977  0.90925711  0.50258882  1
  Sc  Sc56  1  0.70152168  0.49246037  0.09817096  1
  Sc  Sc57  1  0.70520819  0.10886771  0.09729570  1
  Sc  Sc58  1  0.89748527  0.89756761  0.69381814  1
  Sc  Sc59  1  0.69882283  0.29367540  0.29555797  1
  Sc  Sc60  1  0.08650882  0.90238989  0.69672129  1
  Sc  Sc61  1  0.91153387  0.71502906  0.89635173  1
  Sc  Sc62  1  0.29958189  0.89801878  0.30044317  1
  Sc  Sc63  1  0.49475010  0.49368813  0.30780060  1
  Sc  Sc64  1  0.50400244  0.30791938  0.89926429  1
  Sc  Sc65  1  0.89639823  0.70846423  0.69492927  1
  Sc  Sc66  1  0.69173123  0.71459919  0.90026742  1
  Sc  Sc67  1  0.09996497  0.50577498  0.30285378  1
  Sc  Sc68  1  0.91028394  0.49097643  0.50050678  1
  Sc  Sc69  1  0.90615870  0.50045317  0.28816877  1
  Sc  Sc70  1  0.30867344  0.49670742  0.90594090  1
  Sc  Sc71  1  0.49820287  0.89623225  0.69858948  1
  Sc  Sc72  1  0.29500077  0.69707180  0.29004122  1
  Sc  Sc73  1  0.10378074  0.29464743  0.70237730  1
  Sc  Sc74  1  0.89689279  0.09147565  0.49197252  1
  Sc  Sc75  1  0.89553155  0.09792569  0.29905469  1
  Sc  Sc76  1  0.70537000  0.70222269  0.11253067  1
  Sc  Sc77  1  0.10097551  0.08858533  0.30554824  1
  Sc  Sc78  1  0.50274050  0.10454256  0.09096826  1
  Sc  Sc79  1  0.30981898  0.70987893  0.70088333  1
  Sc  Sc80  1  0.90604833  0.69945780  0.11158444  1
  Sc  Sc81  1  0.69623618  0.29945358  0.10225305  1
  Sc  Sc82  1  0.10662324  0.09102957  0.10624656  1
  Sc  Sc83  1  0.29774331  0.49517612  0.49908120  1
  Sc  Sc84  1  0.29477101  0.29546514  0.11291553  1
  Sc  Sc85  1  0.90082344  0.90103116  0.29737418  1
  Sc  Sc86  1  0.69281377  0.10337835  0.70185803  1
  Sc  Sc87  1  0.69496277  0.70033996  0.50133967  1
  Sc  Sc88  1  0.50629353  0.48704016  0.69601829  1
  Sc  Sc89  1  0.30268505  0.50988381  0.10391121  1
  Sc  Sc90  1  0.69013595  0.49978560  0.50328516  1
  Sc  Sc91  1  0.70069327  0.70639007  0.30193007  1
  Sc  Sc92  1  0.50737609  0.88808234  0.30101880  1
  Sc  Sc93  1  0.30003595  0.09814079  0.30481620  1
  Sc  Sc94  1  0.50715942  0.29995309  0.70353685  1
  Sc  Sc95  1  0.29728411  0.09470043  0.09656873  1
  Sc  Sc96  1  0.08398784  0.90441230  0.49607162  1
  Sc  Sc97  1  0.69500088  0.30284552  0.89727402  1
  Sc  Sc98  1  0.49594435  0.70768536  0.09419790  1
  Sc  Sc99  1  0.70069570  0.88949082  0.30300030  1
  Nb  Nb100  1  0.69964663  0.50631613  0.90070517  1
  Nb  Nb101  1  0.90368890  0.29552415  0.49204567  1
  Nb  Nb102  1  0.50010361  0.50631662  0.49399618  1
  Nb  Nb103  1  0.90204456  0.90709674  0.09694236  1
  Nb  Nb104  1  0.09845899  0.50573574  0.50086399  1
  Nb  Nb105  1  0.50336225  0.29962010  0.09344327  1
  Nb  Nb106  1  0.90277097  0.29836241  0.30763897  1
  Nb  Nb107  1  0.50342200  0.69719674  0.50157944  1
  Nb  Nb108  1  0.09922299  0.49959275  0.89722793  1
  Nb  Nb109  1  0.29790671  0.69997342  0.09472952  1
  Nb  Nb110  1  0.30370737  0.70173748  0.90246786  1
  Nb  Nb111  1  0.50465778  0.89196671  0.91601583  1
  Nb  Nb112  1  0.29966995  0.30023209  0.90322809  1
  Nb  Nb113  1  0.49823875  0.90271909  0.09496021  1
  Nb  Nb114  1  0.09831415  0.09994164  0.69741135  1
  Nb  Nb115  1  0.10190120  0.10184131  0.50483802  1
  Nb  Nb116  1  0.49403663  0.08788186  0.50087929  1
  Nb  Nb117  1  0.50232396  0.70340320  0.70327323  1
  Nb  Nb118  1  0.49441808  0.10290285  0.69779875  1
  Nb  Nb119  1  0.69326490  0.89636013  0.50059884  1
  Nb  Nb120  1  0.10021105  0.29598627  0.10044499  1
  Nb  Nb121  1  0.89855667  0.90685401  0.90840733  1
  Nb  Nb122  1  0.89121019  0.50435636  0.10107559  1
  Nb  Nb123  1  0.50634329  0.90659867  0.49754995  1
  Nb  Nb124  1  0.49848423  0.70583347  0.89857125  1
  Nb  Nb125  1  0.00712846  0.59603844  0.60288811  1
  Nb  Nb126  1  0.80558101  0.80517894  0.00252112  1
  Nb  Nb127  1  0.20414501  0.60380312  0.80510512  1
  Nb  Nb128  1  0.19494425  0.39707552  0.00077680  1
  Nb  Nb129  1  0.80591532  0.39656709  0.39753855  1
  Nb  Nb130  1  0.00113566  0.19789476  0.59297064  1
  Nb  Nb131  1  0.20083381  0.79876725  0.80189783  1
  Nb  Nb132  1  -0.00417226  0.00238399  0.80542820  1
  Nb  Nb133  1  0.40948356  0.60180121  0.59972475  1
  Nb  Nb134  1  0.41012108  -0.00424657  0.19621160  1
  Nb  Nb135  1  0.39830518  0.20680724  -0.00320439  1
  Nb  Nb136  1  0.19480167  0.00229078  0.60162526  1
  Nb  Nb137  1  0.80242347  0.59379442  0.40038445  1
  Nb  Nb138  1  0.00227771  0.59603876  0.79904124  1
  Nb  Nb139  1  0.00013412  0.20398935  0.19847772  1
  Nb  Nb140  1  0.79935587  0.60123709  0.80835771  1
  Nb  Nb141  1  0.59835996  0.60327266  0.80245020  1
  Nb  Nb142  1  0.40397794  0.19483604  0.59970924  1
  Nb  Nb143  1  0.40688230  0.79352001  0.40718514  1
  Nb  Nb144  1  0.59538827  -0.00092384  0.19934033  1
  Nb  Nb145  1  0.19904146  0.80723441  0.60051769  1
  Nb  Nb146  1  0.59573426  0.59874577  0.20047574  1
  Nb  Nb147  1  0.80254918  0.60370317  -0.00384180  1
  Nb  Nb148  1  0.40779134  0.60499916  0.79957043  1
  Nb  Nb149  1  0.00264742  0.20429634  0.00738397  1
  Pd  Pd150  1  0.40203367  0.39663777  0.19265753  1
  Pd  Pd151  1  0.40208647  0.79898855  0.20585315  1
  Pd  Pd152  1  0.20712654  0.81044222  0.40747956  1
  Pd  Pd153  1  0.19523791  0.18947943  0.20862552  1
  Pd  Pd154  1  0.18993962  -0.01294241  0.79533783  1
  Pd  Pd155  1  0.79350953  -0.00683002  0.39371792  1
  Pd  Pd156  1  0.59248633  -0.00600760  0.79368081  1
  Pd  Pd157  1  0.61125922  0.61280999  0.00538314  1
  Pd  Pd158  1  0.40218534  0.18892218  0.19126206  1
  Pd  Pd159  1  0.41051438  -0.00737710  0.80563113  1
  Pd  Pd160  1  0.39969501  0.20481319  0.40958559  1
  Pd  Pd161  1  -0.00493609  0.80596368  0.39603407  1
  Pd  Pd162  1  0.20356926  0.60704579  0.60840684  1
  Pd  Pd163  1  0.59135721  0.19709294  0.59600027  1
  Pd  Pd164  1  0.19886234  -0.00867940  0.40919657  1
  Pd  Pd165  1  0.80509342  0.18687400  0.59175142  1
  Pd  Pd166  1  0.00686363  0.01202613  -0.00039444  1
  Pd  Pd167  1  0.00353860  0.39988005  0.20252595  1
  Pd  Pd168  1  0.60630114  0.00681853  0.00733231  1
  Pd  Pd169  1  0.40496333  0.20582219  0.80341835  1
  Pd  Pd170  1  0.20680589  0.59009099  -0.00324380  1
  Pd  Pd171  1  0.40216881  0.39777668  0.59293285  1
  Pd  Pd172  1  0.00263372  0.18716064  0.39567131  1
  Pd  Pd173  1  0.40254738  0.79965440  0.59383741  1
  Pd  Pd174  1  0.20683546  0.59444139  0.39292319  1
  Pd  Pd175  1  0.59837462  -0.00217775  0.60862555  1
  Pd  Pd176  1  0.80544082  0.21325062  -0.00060515  1
  Pd  Pd177  1  0.59363983  0.19272376  0.19724058  1
  Pd  Pd178  1  0.19945721  0.40830728  0.39877151  1
  Pd  Pd179  1  0.19526066  0.39232923  0.59416061  1
  Pd  Pd180  1  0.20329310  0.20247596  0.79864816  1
  Pd  Pd181  1  0.38999229  0.39149261  0.01195998  1
  Pd  Pd182  1  0.79397887  0.39889582  -0.00532322  1
  Pd  Pd183  1  0.80325716  -0.00253143  0.79177193  1
  Pd  Pd184  1  0.19440485  0.41102663  0.19100107  1
  Pd  Pd185  1  0.79035984  -0.00472044  0.20362312  1
  Pd  Pd186  1  0.60875300  0.39665063  0.39707574  1
  Pd  Pd187  1  0.59409772  0.59630718  0.60747851  1
  Pd  Pd188  1  0.40612752  0.40579531  0.80420047  1
  Pd  Pd189  1  0.80243934  0.79918904  0.80624349  1
  Pd  Pd190  1  0.79717546  0.40259934  0.58608292  1
  Pd  Pd191  1  0.80702270  0.59774188  0.59620185  1
  Pd  Pd192  1  0.79348147  0.00541467  0.60313757  1
  Pd  Pd193  1  0.19963487  -0.00522300  -0.00496552  1
  Pd  Pd194  1  0.00114340  0.39180404  0.00167935  1
  Pd  Pd195  1  0.00710630  0.39405264  0.60276053  1
  Pd  Pd196  1  0.39147753  0.60148996  0.40351315  1
  Pd  Pd197  1  0.20187824  0.20299760  -0.00063805  1
  Pd  Pd198  1  -0.01187175  0.60753403  -0.00386400  1
  Pd  Pd199  1  0.59688202  0.40356129  0.20000149  1
  Rh  Rh200  1  -0.00092587  0.40745436  0.39477998  1
  Rh  Rh201  1  0.79791433  0.79485435  0.40549840  1
  Rh  Rh202  1  0.21271450  -0.00281780  0.20203182  1
  Rh  Rh203  1  0.79366399  0.59645423  0.19936648  1
  Rh  Rh204  1  0.79488361  0.40019521  0.80499491  1
  Rh  Rh205  1  0.39772596  0.00592893  0.60470467  1
  Rh  Rh206  1  -0.00058764  0.01000164  0.60355104  1
  Rh  Rh207  1  0.60229023  -0.00799270  0.39055659  1
  Rh  Rh208  1  0.20914202  0.80602326  -0.00493369  1
  Rh  Rh209  1  0.60079591  0.39819021  0.59360350  1
  Rh  Rh210  1  0.39571798  0.39797090  0.40355512  1
  Rh  Rh211  1  0.40717115  0.60700590  0.19508444  1
  Rh  Rh212  1  0.59849776  0.20123798  0.80012362  1
  Rh  Rh213  1  0.00328173  0.79196659  0.59241321  1
  Rh  Rh214  1  0.39669427  0.79625140  -0.00124903  1
  Rh  Rh215  1  0.60528971  0.79656712  0.00572318  1
  Rh  Rh216  1  0.59283831  0.79674399  0.19444446  1
  Rh  Rh217  1  0.80683741  0.20552032  0.20329909  1
  Rh  Rh218  1  0.59553736  0.20049459  0.40439322  1
  Rh  Rh219  1  0.60081163  0.40797676  0.80593576  1
  Rh  Rh220  1  -0.00924672  0.79829877  0.01370871  1
  Rh  Rh221  1  0.20073319  0.19629147  0.60178954  1
  Rh  Rh222  1  -0.00171657  0.80956655  0.79786162  1
  Rh  Rh223  1  0.81013708  0.80812760  0.19387947  1
  Rh  Rh224  1  -0.00257653  0.80428705  0.19910848  1
  Rh  Rh225  1  0.19652232  0.19758666  0.39338730  1
  Rh  Rh226  1  0.00312974  0.60054516  0.19857722  1
  Rh  Rh227  1  0.60895193  0.59933097  0.39451149  1
  Rh  Rh228  1  0.79963734  0.20070136  0.39955423  1
  Rh  Rh229  1  -0.00188595  0.39827684  0.79193103  1
  Rh  Rh230  1  -0.00033509  0.19815173  0.79735449  1
  Rh  Rh231  1  0.40176329  0.80226009  0.80907894  1
  Rh  Rh232  1  -0.00295006  0.00611649  0.20071215  1
  Rh  Rh233  1  -0.00331720  -0.00032496  0.39836205  1
  Rh  Rh234  1  0.59546194  0.20463553  -0.00538387  1
  Rh  Rh235  1  0.79008255  0.20404648  0.79786944  1
  Rh  Rh236  1  0.19638329  0.59946260  0.19829505  1
  Rh  Rh237  1  0.39737282  0.60815193  -0.00117458  1
  Rh  Rh238  1  0.40625683  -0.01372319  0.38773613  1
  Rh  Rh239  1  0.79296778  0.79905992  0.59374531  1
  Rh  Rh240  1  0.59242108  0.80523091  0.80166300  1
  Rh  Rh241  1  0.59752824  0.79862126  0.40956305  1
  Rh  Rh242  1  0.60582732  0.39649308  0.00247633  1
  Rh  Rh243  1  0.40204956  0.01012544  0.00092015  1
  Rh  Rh244  1  0.79054029  -0.00547356  0.00656283  1
  Rh  Rh245  1  0.21162336  0.40661422  0.81048733  1
  Rh  Rh246  1  -0.00760656  0.59424366  0.40394610  1
  Rh  Rh247  1  0.20271866  0.79915378  0.19940250  1
  Rh  Rh248  1  0.79821672  0.39776986  0.20890280  1
  Rh  Rh249  1  0.59495229  0.80292502  0.59476960  1
