# generated using pymatgen
data_ZrScNbPdRh
_symmetry_space_group_name_H-M   'P 1'
_cell_length_a   16.55986496
_cell_length_b   16.55974704
_cell_length_c   16.55644723
_cell_angle_alpha   89.91511020
_cell_angle_beta   89.98710310
_cell_angle_gamma   90.01952842
_symmetry_Int_Tables_number   1
_chemical_formula_structural   ZrScNbPdRh
_chemical_formula_sum   'Zr50 Sc50 Nb50 Pd50 Rh50'
_cell_volume   4540.22238463
_cell_formula_units_Z   50
loop_
 _symmetry_equiv_pos_site_id
 _symmetry_equiv_pos_as_xyz
  1  'x, y, z'
loop_
 _atom_site_type_symbol
 _atom_site_label
 _atom_site_symmetry_multiplicity
 _atom_site_fract_x
 _atom_site_fract_y
 _atom_site_fract_z
 _atom_site_occupancy
  Zr  Zr0  1  0.30198967  0.50357640  0.71209137  1
  Zr  Zr1  1  0.30878343  0.10287463  0.29700820  1
  Zr  Zr2  1  0.49022399  0.89325004  0.70600449  1
  Zr  Zr3  1  0.49608825  0.29937689  0.50137890  1
  Zr  Zr4  1  0.10839677  0.50139340  0.29984472  1
  Zr  Zr5  1  0.10741097  0.72116135  0.09068178  1
  Zr  Zr6  1  0.30952619  0.90557434  0.89541226  1
  Zr  Zr7  1  0.88891071  0.89845625  0.89772183  1
  Zr  Zr8  1  0.49831473  0.49383100  0.50014644  1
  Zr  Zr9  1  0.89921553  0.69765553  0.89676244  1
  Zr  Zr10  1  0.09998768  0.89275828  0.90719098  1
  Zr  Zr11  1  0.49863090  0.69039152  0.50563311  1
  Zr  Zr12  1  0.69717089  0.29185062  0.29576698  1
  Zr  Zr13  1  0.89932079  0.50484057  0.70513415  1
  Zr  Zr14  1  0.48727557  0.49733171  0.90230299  1
  Zr  Zr15  1  0.69803687  0.50011584  0.30325161  1
  Zr  Zr16  1  0.10518362  0.09914134  0.89449811  1
  Zr  Zr17  1  0.69589571  0.10427122  0.88762504  1
  Zr  Zr18  1  0.69803104  0.90441118  0.29802156  1
  Zr  Zr19  1  0.30606975  0.70377209  0.69600763  1
  Zr  Zr20  1  0.10185507  0.50759975  0.49358366  1
  Zr  Zr21  1  0.89482756  0.50517422  0.49562256  1
  Zr  Zr22  1  0.91243310  0.30714652  0.08776026  1
  Zr  Zr23  1  0.89939330  0.29316556  0.49784082  1
  Zr  Zr24  1  0.89430644  0.70067061  0.30176995  1
  Zr  Zr25  1  0.89485711  0.89895276  0.69140237  1
  Zr  Zr26  1  0.29530148  0.10768340  0.70334469  1
  Zr  Zr27  1  0.70086149  0.70045250  0.88991178  1
  Zr  Zr28  1  0.90096675  0.50376454  0.30347818  1
  Zr  Zr29  1  0.08933857  0.10091264  0.49717041  1
  Zr  Zr30  1  0.69969644  0.50202173  0.10083494  1
  Zr  Zr31  1  0.29731522  0.68657715  0.90636507  1
  Zr  Zr32  1  0.50532515  0.09799047  0.30447090  1
  Zr  Zr33  1  0.49809836  0.90633872  0.50231721  1
  Zr  Zr34  1  0.30750348  0.30304667  0.90489138  1
  Zr  Zr35  1  0.90215941  0.88685440  0.10384914  1
  Zr  Zr36  1  0.49378538  0.10466153  0.49665677  1
  Zr  Zr37  1  0.70058991  0.70148152  0.10112498  1
  Zr  Zr38  1  0.69921561  0.89799224  0.10191139  1
  Zr  Zr39  1  0.68725860  0.90085758  0.90386678  1
  Zr  Zr40  1  0.30192919  0.10255118  0.90202774  1
  Zr  Zr41  1  0.31069209  0.29805507  0.49901567  1
  Zr  Zr42  1  0.90448374  0.49448280  0.90572642  1
  Zr  Zr43  1  0.30494526  0.49551947  0.49980679  1
  Zr  Zr44  1  0.90093914  0.29369539  0.30080620  1
  Zr  Zr45  1  0.10388907  0.10360452  0.69708301  1
  Zr  Zr46  1  0.51216482  0.30290912  0.89957876  1
  Zr  Zr47  1  0.29818455  0.49902344  0.29306905  1
  Zr  Zr48  1  0.31279277  0.50840045  0.09884699  1
  Zr  Zr49  1  0.29957689  0.11028851  0.10117686  1
  Sc  Sc50  1  0.11315534  0.69571065  0.30260259  1
  Sc  Sc51  1  0.50383356  0.49784069  0.29437191  1
  Sc  Sc52  1  0.89302524  0.09659270  0.89378567  1
  Sc  Sc53  1  0.69822959  0.10196737  0.11378305  1
  Sc  Sc54  1  0.69672662  0.69798547  0.29726634  1
  Sc  Sc55  1  0.50663146  0.10005444  0.69465015  1
  Sc  Sc56  1  0.69317243  0.28591795  0.70440894  1
  Sc  Sc57  1  0.70579161  0.69245380  0.50117394  1
  Sc  Sc58  1  0.10994817  0.50205120  0.10277310  1
  Sc  Sc59  1  0.89423762  0.09498643  0.69579765  1
  Sc  Sc60  1  0.49799618  0.09805290  0.10560952  1
  Sc  Sc61  1  0.29251052  0.30016127  0.69552808  1
  Sc  Sc62  1  0.69723790  0.09835650  0.69597768  1
  Sc  Sc63  1  0.09447644  0.90662539  0.69619554  1
  Sc  Sc64  1  0.09524257  0.30587404  0.90882951  1
  Sc  Sc65  1  0.10685939  0.50738350  0.89209726  1
  Sc  Sc66  1  0.50106900  0.08665740  0.90387470  1
  Sc  Sc67  1  0.29724089  0.89774187  0.29446840  1
  Sc  Sc68  1  0.69176504  0.50474025  0.49841431  1
  Sc  Sc69  1  0.08774864  0.10343931  0.29890744  1
  Sc  Sc70  1  0.09842410  0.89685694  0.50332805  1
  Sc  Sc71  1  0.70203722  0.89788862  0.70022971  1
  Sc  Sc72  1  0.89912678  0.10235661  0.30545941  1
  Sc  Sc73  1  0.50631222  0.69700520  0.89693462  1
  Sc  Sc74  1  0.49767298  0.30369094  0.30146108  1
  Sc  Sc75  1  0.50379891  0.90720138  0.29044536  1
  Sc  Sc76  1  0.90089157  0.10424363  0.10594717  1
  Sc  Sc77  1  0.09972416  0.29942247  0.51167597  1
  Sc  Sc78  1  0.68897188  0.30116999  0.09774042  1
  Sc  Sc79  1  0.09902813  0.90315185  0.29655103  1
  Sc  Sc80  1  0.69496397  0.29538621  0.49806787  1
  Sc  Sc81  1  0.68715331  0.49956783  0.90321940  1
  Sc  Sc82  1  0.10170829  0.49067458  0.69946841  1
  Sc  Sc83  1  0.49985642  0.30355600  0.10321171  1
  Sc  Sc84  1  0.10768291  0.69666148  0.69512161  1
  Sc  Sc85  1  0.30223608  0.89214421  0.50665378  1
  Sc  Sc86  1  0.29080668  0.70259335  0.50776814  1
  Sc  Sc87  1  0.50161182  0.29901728  0.69267846  1
  Sc  Sc88  1  0.88257169  0.69887825  0.70025537  1
  Sc  Sc89  1  0.50290541  0.69620143  0.11104894  1
  Sc  Sc90  1  0.29131640  0.89207215  0.10815079  1
  Sc  Sc91  1  0.90021316  0.29701888  0.69784506  1
  Sc  Sc92  1  0.89975610  0.90283404  0.50434633  1
  Sc  Sc93  1  0.70844422  0.90418957  0.50316494  1
  Sc  Sc94  1  0.50069057  0.50196423  0.69701994  1
  Sc  Sc95  1  0.09830365  0.11182552  0.10567854  1
  Sc  Sc96  1  0.49730618  0.69082092  0.70357012  1
  Sc  Sc97  1  0.50412996  0.49562816  0.10005187  1
  Sc  Sc98  1  0.89873397  0.90229399  0.30217382  1
  Sc  Sc99  1  0.90186534  0.30297615  0.89905829  1
  Nb  Nb100  1  0.30209250  0.10496293  0.49794220  1
  Nb  Nb101  1  0.29701699  0.30103896  0.10759086  1
  Nb  Nb102  1  0.09946826  0.70022593  0.49932417  1
  Nb  Nb103  1  0.70435935  0.51139151  0.69825867  1
  Nb  Nb104  1  0.90091491  0.69977770  0.49893040  1
  Nb  Nb105  1  0.69715040  0.69266332  0.69906090  1
  Nb  Nb106  1  0.30339507  0.70116978  0.10565392  1
  Nb  Nb107  1  0.70047915  0.29533371  0.89475104  1
  Nb  Nb108  1  0.10495247  0.30176922  0.10609589  1
  Nb  Nb109  1  0.10256493  0.29197105  0.70225298  1
  Nb  Nb110  1  0.31029072  0.70158714  0.28411515  1
  Nb  Nb111  1  0.69212373  0.09719929  0.49537626  1
  Nb  Nb112  1  0.51216411  0.89646184  0.08728335  1
  Nb  Nb113  1  0.30390876  0.49846564  0.90561616  1
  Nb  Nb114  1  0.90022789  0.69799795  0.10139494  1
  Nb  Nb115  1  0.89902714  0.09518817  0.49749866  1
  Nb  Nb116  1  0.10456346  0.30213885  0.29465850  1
  Nb  Nb117  1  0.29485912  0.30457554  0.29564033  1
  Nb  Nb118  1  0.50255020  0.89765071  0.90704176  1
  Nb  Nb119  1  0.50261367  0.70040389  0.30171459  1
  Nb  Nb120  1  0.29873862  0.89559581  0.69797777  1
  Nb  Nb121  1  0.69121814  0.09747110  0.30396396  1
  Nb  Nb122  1  0.90169296  0.50119827  0.09772036  1
  Nb  Nb123  1  0.09855604  0.90270039  0.09782270  1
  Nb  Nb124  1  0.10153681  0.70486437  0.89934013  1
  Nb  Nb125  1  0.40124117  0.20061032  0.80388364  1
  Nb  Nb126  1  0.00084474  0.60720562  0.00501883  1
  Nb  Nb127  1  0.00169116  0.40390654  0.20081266  1
  Nb  Nb128  1  0.80724661  0.40099215  0.19639966  1
  Nb  Nb129  1  0.79276572  0.40105787  0.79717357  1
  Nb  Nb130  1  0.19605939  -0.00047484  0.00530087  1
  Nb  Nb131  1  0.40370874  0.79247457  0.39443190  1
  Nb  Nb132  1  0.79404332  0.20306538  -0.00458236  1
  Nb  Nb133  1  0.00577142  0.19931836  0.79681711  1
  Nb  Nb134  1  0.00005331  0.79058263  0.40557145  1
  Nb  Nb135  1  0.79570749  0.40297420  0.60515092  1
  Nb  Nb136  1  0.21094742  0.40091300  0.00439945  1
  Nb  Nb137  1  0.20258402  0.20138009  0.39650446  1
  Nb  Nb138  1  0.00147947  0.79757135  0.80065133  1
  Nb  Nb139  1  0.00361214  0.39799098  0.39605889  1
  Nb  Nb140  1  0.20568069  0.00548821  0.59643044  1
  Nb  Nb141  1  -0.00116382  0.60409089  0.19285086  1
  Nb  Nb142  1  0.59460881  0.79964259  0.40451202  1
  Nb  Nb143  1  0.00194619  -0.00482034  0.00295386  1
  Nb  Nb144  1  0.20043823  0.80012535  0.80122244  1
  Nb  Nb145  1  0.20390000  0.00812901  0.40546306  1
  Nb  Nb146  1  0.59953067  0.79510066  0.59911150  1
  Nb  Nb147  1  0.39915348  0.60583641  0.39311211  1
  Nb  Nb148  1  0.40503436  0.80093438  0.00283078  1
  Nb  Nb149  1  -0.00217031  0.60454251  0.59264339  1
  Pd  Pd150  1  0.41226821  0.20487154  -0.00182099  1
  Pd  Pd151  1  0.00699929  0.60832026  0.79453022  1
  Pd  Pd152  1  0.19459729  0.59682661  0.00513460  1
  Pd  Pd153  1  0.79707360  0.80014842  0.40340501  1
  Pd  Pd154  1  0.20003205  -0.00964120  0.79693894  1
  Pd  Pd155  1  0.39626332  0.78987189  0.81114067  1
  Pd  Pd156  1  0.60004660  0.80010798  0.79181498  1
  Pd  Pd157  1  0.59307033  0.60264355  0.00175787  1
  Pd  Pd158  1  0.80204180  0.01031625  0.00766731  1
  Pd  Pd159  1  0.79922719  0.39753587  0.40304104  1
  Pd  Pd160  1  0.40253694  0.39151230  0.79161584  1
  Pd  Pd161  1  0.60266173  -0.00755452  0.60404574  1
  Pd  Pd162  1  0.60113261  0.19265027  0.00256794  1
  Pd  Pd163  1  0.19853656  0.39453596  0.80855624  1
  Pd  Pd164  1  0.60813632  0.01220070  0.00636531  1
  Pd  Pd165  1  0.00704555  0.79267099  0.21279450  1
  Pd  Pd166  1  -0.00007912  0.79168983  0.60385888  1
  Pd  Pd167  1  0.20202235  0.80425993  0.39571006  1
  Pd  Pd168  1  0.80145459  0.20897110  0.18896681  1
  Pd  Pd169  1  0.80096394  0.59690712  0.20134097  1
  Pd  Pd170  1  0.39238554  0.00514588  0.60615731  1
  Pd  Pd171  1  0.60555782  0.40532580  0.78996563  1
  Pd  Pd172  1  0.39241063  -0.00870284  0.01471777  1
  Pd  Pd173  1  0.19662246  0.38955977  0.40820165  1
  Pd  Pd174  1  0.19451769  0.00887992  0.20162571  1
  Pd  Pd175  1  0.40712589  0.20755401  0.20439378  1
  Pd  Pd176  1  0.40179866  -0.00833657  0.19010399  1
  Pd  Pd177  1  0.80189338  0.59949124  -0.00582051  1
  Pd  Pd178  1  0.21574392  0.60940993  0.39825244  1
  Pd  Pd179  1  0.80538959  0.00061669  0.20169996  1
  Pd  Pd180  1  0.19637762  0.20452219  -0.00108271  1
  Pd  Pd181  1  -0.00717954  0.18848136  -0.00951751  1
  Pd  Pd182  1  -0.00093183  0.39208474  0.79652724  1
  Pd  Pd183  1  -0.00687041  0.19463185  0.60617964  1
  Pd  Pd184  1  0.60926184  0.39950679  0.60656859  1
  Pd  Pd185  1  0.79602749  0.79646964  -0.00134142  1
  Pd  Pd186  1  -0.00364660  -0.00184921  0.80314847  1
  Pd  Pd187  1  0.80068896  0.00462114  0.39994465  1
  Pd  Pd188  1  0.59874689  0.39505848  0.39895976  1
  Pd  Pd189  1  0.79474920  0.19936378  0.59696453  1
  Pd  Pd190  1  0.78835756  0.39422437  -0.00194248  1
  Pd  Pd191  1  0.20239140  0.40134145  0.59859918  1
  Pd  Pd192  1  0.79293120  0.19009063  0.40309076  1
  Pd  Pd193  1  0.39131169  -0.01222229  0.39762718  1
  Pd  Pd194  1  -0.00616679  0.40670828  0.59521138  1
  Pd  Pd195  1  0.41228631  0.80944052  0.19594521  1
  Pd  Pd196  1  0.19795909  0.59249886  0.60513352  1
  Pd  Pd197  1  0.40620499  0.00935260  0.79136832  1
  Pd  Pd198  1  0.79216119  -0.00259834  0.79405134  1
  Pd  Pd199  1  -0.00427609  0.00108922  0.19602062  1
  Rh  Rh200  1  0.39459615  0.59419236  0.59670141  1
  Rh  Rh201  1  0.79563585  0.80009126  0.20212240  1
  Rh  Rh202  1  -0.01124934  0.80020750  -0.00686670  1
  Rh  Rh203  1  -0.00071887  0.20773101  0.20060565  1
  Rh  Rh204  1  0.79762235  0.80350666  0.79558504  1
  Rh  Rh205  1  0.60108292  0.59708187  0.20123290  1
  Rh  Rh206  1  0.59862544  0.00027717  0.19455234  1
  Rh  Rh207  1  0.79121777  0.79412119  0.60010516  1
  Rh  Rh208  1  0.20100750  0.60429104  0.79572021  1
  Rh  Rh209  1  0.19970751  0.21321288  0.81056190  1
  Rh  Rh210  1  0.39903148  0.39508858  0.00918046  1
  Rh  Rh211  1  0.60228645  -0.00554753  0.40337037  1
  Rh  Rh212  1  0.60894609  0.39991881  0.20093369  1
  Rh  Rh213  1  0.00207289  -0.01213835  0.40284127  1
  Rh  Rh214  1  0.19944983  0.19572928  0.20894386  1
  Rh  Rh215  1  0.19258906  0.80920912  0.60843842  1
  Rh  Rh216  1  0.00616973  0.20838616  0.39995527  1
  Rh  Rh217  1  0.39590827  0.40203839  0.60875728  1
  Rh  Rh218  1  0.19427177  0.79896080  0.20683148  1
  Rh  Rh219  1  -0.00074393  0.00427578  0.59679845  1
  Rh  Rh220  1  0.20170097  0.19785544  0.58837933  1
  Rh  Rh221  1  0.39801602  0.20632029  0.39118903  1
  Rh  Rh222  1  0.40897135  0.61024255  0.00432395  1
  Rh  Rh223  1  0.79660240  0.00852155  0.59456393  1
  Rh  Rh224  1  0.80318843  0.59798372  0.59554297  1
  Rh  Rh225  1  0.60061889  0.60122507  0.60328702  1
  Rh  Rh226  1  0.60128750  0.80198633  0.20536627  1
  Rh  Rh227  1  0.00182454  0.60391316  0.39851145  1
  Rh  Rh228  1  0.59603275  -0.00666376  0.79654475  1
  Rh  Rh229  1  0.39776813  0.39873434  0.19989640  1
  Rh  Rh230  1  0.40112235  0.19817436  0.60937467  1
  Rh  Rh231  1  0.59749614  0.20166983  0.40011672  1
  Rh  Rh232  1  0.81097461  0.20755762  0.80432880  1
  Rh  Rh233  1  0.40877463  0.59615909  0.20266130  1
  Rh  Rh234  1  0.20152282  0.40287663  0.19132508  1
  Rh  Rh235  1  0.59530206  0.60376994  0.39735391  1
  Rh  Rh236  1  0.40109348  0.60064720  0.80374222  1
  Rh  Rh237  1  0.59334639  0.19896770  0.20442427  1
  Rh  Rh238  1  0.19719035  0.61108062  0.19092087  1
  Rh  Rh239  1  0.40788643  0.79783282  0.59514593  1
  Rh  Rh240  1  0.01986796  0.41513204  0.00629193  1
  Rh  Rh241  1  0.60016481  0.19646831  0.59084973  1
  Rh  Rh242  1  0.79248309  0.60390916  0.39870248  1
  Rh  Rh243  1  0.40064744  0.40681996  0.39005493  1
  Rh  Rh244  1  0.21869560  0.80792005  -0.00780730  1
  Rh  Rh245  1  0.58806649  0.19477612  0.80008942  1
  Rh  Rh246  1  0.59711081  0.59291840  0.79899407  1
  Rh  Rh247  1  0.79204135  0.58901215  0.81150695  1
  Rh  Rh248  1  0.60049922  0.40054828  -0.00084987  1
  Rh  Rh249  1  0.59686203  0.78816777  0.00022613  1
