# generated using pymatgen
data_ZrScNbPdRh
_symmetry_space_group_name_H-M   'P 1'
_cell_length_a   16.55814330
_cell_length_b   16.55728382
_cell_length_c   16.55615002
_cell_angle_alpha   89.97084733
_cell_angle_beta   89.97154634
_cell_angle_gamma   90.00812582
_symmetry_Int_Tables_number   1
_chemical_formula_structural   ZrScNbPdRh
_chemical_formula_sum   'Zr50 Sc50 Nb50 Pd50 Rh50'
_cell_volume   4538.99776588
_cell_formula_units_Z   50
loop_
 _symmetry_equiv_pos_site_id
 _symmetry_equiv_pos_as_xyz
  1  'x, y, z'
loop_
 _atom_site_type_symbol
 _atom_site_label
 _atom_site_symmetry_multiplicity
 _atom_site_fract_x
 _atom_site_fract_y
 _atom_site_fract_z
 _atom_site_occupancy
  Zr  Zr0  1  0.09847300  0.09771554  0.50656857  1
  Zr  Zr1  1  0.49512584  0.50795682  0.69063562  1
  Zr  Zr2  1  0.29488192  0.30415478  0.29252642  1
  Zr  Zr3  1  0.50690167  0.10593008  0.69888784  1
  Zr  Zr4  1  0.30005670  0.70010933  0.10371336  1
  Zr  Zr5  1  0.70360934  0.09824215  0.49893270  1
  Zr  Zr6  1  0.10481544  0.90140888  0.50737378  1
  Zr  Zr7  1  0.30285009  0.70606422  0.30099447  1
  Zr  Zr8  1  0.69975782  0.50326827  0.90034496  1
  Zr  Zr9  1  0.50076172  0.69350559  0.10312109  1
  Zr  Zr10  1  0.69799671  0.88987522  0.89659952  1
  Zr  Zr11  1  0.69865995  0.69707945  0.30236170  1
  Zr  Zr12  1  0.50367570  0.29678525  0.89519463  1
  Zr  Zr13  1  0.29012044  0.90214049  0.89948201  1
  Zr  Zr14  1  0.29545665  0.09960400  0.09194456  1
  Zr  Zr15  1  0.50145338  0.29116387  0.50005952  1
  Zr  Zr16  1  0.50512492  0.69450310  0.49971112  1
  Zr  Zr17  1  0.10448440  0.69394366  0.70306152  1
  Zr  Zr18  1  0.69081572  0.49446766  0.30088128  1
  Zr  Zr19  1  0.89910185  0.09297331  0.11161228  1
  Zr  Zr20  1  0.10240228  0.89484023  0.70596947  1
  Zr  Zr21  1  0.89687918  0.09145414  0.89565942  1
  Zr  Zr22  1  0.09787151  0.30527482  0.49743351  1
  Zr  Zr23  1  0.50254874  0.29786819  0.69646934  1
  Zr  Zr24  1  0.50304219  0.70476261  0.90027851  1
  Zr  Zr25  1  0.69501158  0.69553589  0.69627241  1
  Zr  Zr26  1  0.89955601  0.30014539  0.50235139  1
  Zr  Zr27  1  0.30596336  0.50294571  0.09842914  1
  Zr  Zr28  1  0.89263238  0.68975194  0.50624122  1
  Zr  Zr29  1  0.29511349  0.51224472  0.70102220  1
  Zr  Zr30  1  0.50316124  0.89971378  0.11292179  1
  Zr  Zr31  1  0.29252834  0.10591332  0.89408396  1
  Zr  Zr32  1  0.89986938  0.49558384  0.50717845  1
  Zr  Zr33  1  0.89528295  0.49884060  0.90848431  1
  Zr  Zr34  1  0.70007175  0.30522820  0.89927575  1
  Zr  Zr35  1  0.89590368  0.29498269  0.30485140  1
  Zr  Zr36  1  0.70252002  0.51055209  0.49911109  1
  Zr  Zr37  1  0.09860121  0.50476364  0.70203622  1
  Zr  Zr38  1  0.09349161  0.09969852  0.28622280  1
  Zr  Zr39  1  0.49325279  0.70040968  0.70745818  1
  Zr  Zr40  1  0.29855694  0.89841836  0.70007356  1
  Zr  Zr41  1  0.10209962  0.09287223  0.89980952  1
  Zr  Zr42  1  0.89253174  0.90660668  0.70486755  1
  Zr  Zr43  1  0.30407116  0.90475226  0.49782494  1
  Zr  Zr44  1  0.70061820  0.49915734  0.70287007  1
  Zr  Zr45  1  0.69699168  0.29562994  0.10611309  1
  Zr  Zr46  1  0.09515605  0.70697279  0.89550904  1
  Zr  Zr47  1  0.09746303  0.30616958  0.29971754  1
  Zr  Zr48  1  0.90673970  0.49889680  0.70359116  1
  Zr  Zr49  1  0.69862479  0.29299779  0.69901282  1
  Sc  Sc50  1  0.89549462  0.69723064  0.30152469  1
  Sc  Sc51  1  0.09782684  0.90124751  0.29769084  1
  Sc  Sc52  1  0.10170279  0.49630704  0.51056460  1
  Sc  Sc53  1  0.70889244  0.10793358  0.29566379  1
  Sc  Sc54  1  0.70025262  0.90200426  0.10207970  1
  Sc  Sc55  1  0.90137430  0.30818974  0.89753767  1
  Sc  Sc56  1  0.29927910  0.50428006  0.91461729  1
  Sc  Sc57  1  0.09668594  0.89945152  0.08984072  1
  Sc  Sc58  1  0.50639351  0.30826983  0.09638509  1
  Sc  Sc59  1  0.50746082  0.09664133  0.30404946  1
  Sc  Sc60  1  0.09230349  0.90010221  0.89886448  1
  Sc  Sc61  1  0.30204490  0.70992194  0.49765307  1
  Sc  Sc62  1  0.90140305  0.89465874  0.89929833  1
  Sc  Sc63  1  0.89362018  0.90028956  0.09445967  1
  Sc  Sc64  1  0.50255892  0.50327290  0.91239270  1
  Sc  Sc65  1  0.30166440  0.49966552  0.50623202  1
  Sc  Sc66  1  0.09896819  0.69925273  0.09687099  1
  Sc  Sc67  1  0.09425685  0.09902917  0.09058747  1
  Sc  Sc68  1  0.69915153  0.29412682  0.30306851  1
  Sc  Sc69  1  0.89217206  0.30166498  0.69608879  1
  Sc  Sc70  1  0.90180290  0.30124285  0.08835387  1
  Sc  Sc71  1  0.10210774  0.69630223  0.28767334  1
  Sc  Sc72  1  0.10190915  0.09234519  0.69882141  1
  Sc  Sc73  1  0.90014767  0.50165807  0.31163089  1
  Sc  Sc74  1  0.51451139  0.29914118  0.29679396  1
  Sc  Sc75  1  0.69279407  0.89653491  0.30015614  1
  Sc  Sc76  1  0.10866924  0.70373834  0.50949701  1
  Sc  Sc77  1  0.69309476  0.70654089  0.10276062  1
  Sc  Sc78  1  0.09619542  0.50443246  0.89679642  1
  Sc  Sc79  1  0.50023769  0.70296042  0.30060790  1
  Sc  Sc80  1  0.09291879  0.30433746  0.69540794  1
  Sc  Sc81  1  0.29704172  0.31118916  0.09246050  1
  Sc  Sc82  1  0.29829156  0.49777940  0.29013518  1
  Sc  Sc83  1  0.49670444  0.09709033  0.49532127  1
  Sc  Sc84  1  0.70741608  0.10206952  0.69863449  1
  Sc  Sc85  1  0.10309061  0.51276833  0.10049240  1
  Sc  Sc86  1  0.89633716  0.70262735  0.90500573  1
  Sc  Sc87  1  0.30536964  0.29120505  0.69124127  1
  Sc  Sc88  1  0.29662325  0.09972154  0.69300109  1
  Sc  Sc89  1  0.09872996  0.29684910  0.90340507  1
  Sc  Sc90  1  0.31210561  0.89344675  0.29780097  1
  Sc  Sc91  1  0.90421990  0.69427862  0.70562355  1
  Sc  Sc92  1  0.10331940  0.29357403  0.10020250  1
  Sc  Sc93  1  0.70523840  0.29785937  0.49837163  1
  Sc  Sc94  1  0.69022007  0.50039468  0.09170468  1
  Sc  Sc95  1  0.51671813  0.09856433  0.10015821  1
  Sc  Sc96  1  0.10293924  0.49858066  0.29629505  1
  Sc  Sc97  1  0.31185784  0.09761665  0.30025982  1
  Sc  Sc98  1  0.69107687  0.09796127  0.89673339  1
  Sc  Sc99  1  0.29958855  0.69765914  0.89674911  1
  Nb  Nb100  1  0.89847889  0.50401154  0.09845285  1
  Nb  Nb101  1  0.89584970  0.10359606  0.70122616  1
  Nb  Nb102  1  0.69608872  0.89952855  0.68944557  1
  Nb  Nb103  1  0.90236603  0.09310693  0.30427992  1
  Nb  Nb104  1  0.50365685  0.49534863  0.30158375  1
  Nb  Nb105  1  0.49875471  0.50150221  0.10537693  1
  Nb  Nb106  1  0.69151757  0.69377459  0.89820025  1
  Nb  Nb107  1  0.89755282  0.90604634  0.49899287  1
  Nb  Nb108  1  0.90246974  0.90407095  0.30273549  1
  Nb  Nb109  1  0.29962086  0.70267192  0.70418008  1
  Nb  Nb110  1  0.50186127  0.49669151  0.49485027  1
  Nb  Nb111  1  0.90353910  0.69452933  0.10599518  1
  Nb  Nb112  1  0.30077175  0.10445202  0.49456199  1
  Nb  Nb113  1  0.70781441  0.10394428  0.10102301  1
  Nb  Nb114  1  0.49734149  0.90020248  0.30823204  1
  Nb  Nb115  1  0.50577543  0.90136881  0.50035219  1
  Nb  Nb116  1  0.70389187  0.70156613  0.50125912  1
  Nb  Nb117  1  0.49823188  0.09656109  0.89877198  1
  Nb  Nb118  1  0.49894498  0.90118489  0.89554167  1
  Nb  Nb119  1  0.89760714  0.09192456  0.50067057  1
  Nb  Nb120  1  0.30228968  0.30273104  0.89846231  1
  Nb  Nb121  1  0.30441102  0.90100016  0.09953773  1
  Nb  Nb122  1  0.70284630  0.89625427  0.51245057  1
  Nb  Nb123  1  0.50144994  0.90158092  0.70046907  1
  Nb  Nb124  1  0.30308874  0.29188708  0.49340440  1
  Nb  Nb125  1  0.00654105  0.60454752  0.40501994  1
  Nb  Nb126  1  -0.00861740  0.40628932  0.19617355  1
  Nb  Nb127  1  0.80064070  0.59368174  0.19611452  1
  Nb  Nb128  1  0.80379410  0.40495484  0.19570054  1
  Nb  Nb129  1  0.40240151  0.20089397  0.19068258  1
  Nb  Nb130  1  0.40147475  0.80863242  0.00010537  1
  Nb  Nb131  1  -0.00676844  0.80100442  0.40365998  1
  Nb  Nb132  1  0.40244201  0.19726890  -0.00342660  1
  Nb  Nb133  1  0.40601873  0.39979149  0.40061463  1
  Nb  Nb134  1  0.20251326  0.00620780  0.39589155  1
  Nb  Nb135  1  0.39462432  0.40054013  0.80155913  1
  Nb  Nb136  1  0.79681837  0.19379415  0.00116079  1
  Nb  Nb137  1  -0.01002156  0.80061771  0.20261837  1
  Nb  Nb138  1  0.40644673  -0.00135981  0.80162960  1
  Nb  Nb139  1  0.20493802  -0.00288686  0.19755217  1
  Nb  Nb140  1  -0.00688722  0.80433032  0.59689199  1
  Nb  Nb141  1  0.40479015  -0.00021242  -0.00470015  1
  Nb  Nb142  1  0.40767182  0.80617812  0.60451415  1
  Nb  Nb143  1  -0.00202201  0.18892368  0.40109466  1
  Nb  Nb144  1  0.20856513  0.39842269  0.80099241  1
  Nb  Nb145  1  -0.00597046  0.19364490  0.79608253  1
  Nb  Nb146  1  0.19891327  0.60142211  0.39918435  1
  Nb  Nb147  1  0.80022763  0.80554827  0.41019900  1
  Nb  Nb148  1  0.59713886  0.40395045  0.59459388  1
  Nb  Nb149  1  0.19909964  0.19686429  0.39978015  1
  Pd  Pd150  1  0.78745108  -0.00282491  0.80088412  1
  Pd  Pd151  1  0.80652705  0.79788362  0.60466498  1
  Pd  Pd152  1  0.01132796  0.40543416  0.00686868  1
  Pd  Pd153  1  0.18850234  0.20969432  0.79321624  1
  Pd  Pd154  1  -0.00569333  0.19887738  0.60195276  1
  Pd  Pd155  1  -0.00967317  0.19458654  -0.00870126  1
  Pd  Pd156  1  0.80379548  0.60482059  0.80165511  1
  Pd  Pd157  1  0.39998567  0.39667848  0.59835812  1
  Pd  Pd158  1  0.60229777  0.00587592  0.59927341  1
  Pd  Pd159  1  -0.00500298  -0.00401247  0.60938758  1
  Pd  Pd160  1  0.58819901  0.40962493  0.79421105  1
  Pd  Pd161  1  0.20370537  0.79619869  0.00017462  1
  Pd  Pd162  1  0.60699439  -0.00067880  0.39991842  1
  Pd  Pd163  1  0.79467172  -0.00602884  0.20742955  1
  Pd  Pd164  1  0.40178059  0.00224588  0.60334100  1
  Pd  Pd165  1  0.20964441  0.40513304  0.40330408  1
  Pd  Pd166  1  0.60342357  0.80217311  0.40300422  1
  Pd  Pd167  1  0.60333810  -0.00012534  0.79487539  1
  Pd  Pd168  1  0.59340120  0.79645137  0.60194664  1
  Pd  Pd169  1  0.59785524  0.60207464  0.39717490  1
  Pd  Pd170  1  0.19110003  0.80854002  0.19722673  1
  Pd  Pd171  1  0.20740483  0.19326808  0.20046675  1
  Pd  Pd172  1  0.20702619  0.39358012  0.60661310  1
  Pd  Pd173  1  0.40082460  0.20768799  0.38642049  1
  Pd  Pd174  1  0.78973111  -0.00586966  0.39509144  1
  Pd  Pd175  1  0.00223250  0.60438787  -0.00449149  1
  Pd  Pd176  1  0.40014516  0.00782534  0.19560720  1
  Pd  Pd177  1  0.00856756  -0.00103014  0.40011853  1
  Pd  Pd178  1  0.60214933  -0.00621022  0.00083420  1
  Pd  Pd179  1  -0.00824652  0.20888224  0.19906957  1
  Pd  Pd180  1  0.79483974  0.40008207  0.39654162  1
  Pd  Pd181  1  0.40295647  0.59958750  0.20936388  1
  Pd  Pd182  1  0.19185385  0.40253646  -0.00344182  1
  Pd  Pd183  1  0.80306862  0.39859053  0.79782795  1
  Pd  Pd184  1  0.39216814  0.59200555  0.39600668  1
  Pd  Pd185  1  0.60144158  0.19957076  -0.00151074  1
  Pd  Pd186  1  0.80272687  0.79726689  0.20534076  1
  Pd  Pd187  1  0.39884363  0.19836941  0.79957007  1
  Pd  Pd188  1  0.39964286  0.59114230  0.81246039  1
  Pd  Pd189  1  0.79588428  0.79336297  0.79616022  1
  Pd  Pd190  1  0.19857580  0.20385887  0.59728702  1
  Pd  Pd191  1  0.79034173  0.61109575  0.00820857  1
  Pd  Pd192  1  0.79744614  0.79237552  0.00232957  1
  Pd  Pd193  1  0.40919141  0.39182067  0.20350733  1
  Pd  Pd194  1  0.39305342  0.61185321  0.59279474  1
  Pd  Pd195  1  0.79369469  0.00139143  -0.00475128  1
  Pd  Pd196  1  0.60896158  0.00444979  0.20778236  1
  Pd  Pd197  1  0.19033881  0.80055207  0.39262405  1
  Pd  Pd198  1  0.59565918  0.80488129  0.00479416  1
  Pd  Pd199  1  0.60388287  0.80037429  0.79368969  1
  Rh  Rh200  1  0.40674742  0.79840272  0.19777190  1
  Rh  Rh201  1  0.20711490  0.60710721  0.59287865  1
  Rh  Rh202  1  0.80744384  0.19314344  0.40537057  1
  Rh  Rh203  1  -0.00446457  -0.00355825  -0.00089644  1
  Rh  Rh204  1  0.60347732  0.40302169  0.19590124  1
  Rh  Rh205  1  0.60465597  0.19991085  0.59395979  1
  Rh  Rh206  1  0.80511798  0.20192014  0.81105728  1
  Rh  Rh207  1  0.59488172  0.59758640  0.80270836  1
  Rh  Rh208  1  0.00723097  0.39335546  0.79954132  1
  Rh  Rh209  1  0.59593668  0.80086608  0.20552544  1
  Rh  Rh210  1  0.20776928  0.60141839  0.20253045  1
  Rh  Rh211  1  0.40098408  0.19046103  0.59730420  1
  Rh  Rh212  1  0.59621997  0.19435688  0.20194531  1
  Rh  Rh213  1  0.60118585  0.59769972  0.59775539  1
  Rh  Rh214  1  0.20692093  0.00281846  0.59435154  1
  Rh  Rh215  1  0.60629195  0.19536842  0.40119155  1
  Rh  Rh216  1  0.59990111  0.60251526  0.00219669  1
  Rh  Rh217  1  0.18774748  0.40593817  0.18656520  1
  Rh  Rh218  1  0.79130158  0.40298466  0.60203678  1
  Rh  Rh219  1  0.00552014  0.60516667  0.59451560  1
  Rh  Rh220  1  0.60596736  0.19543055  0.79980456  1
  Rh  Rh221  1  0.00384208  -0.01185773  0.19225719  1
  Rh  Rh222  1  0.39673677  0.80801582  0.80012446  1
  Rh  Rh223  1  -0.00497663  0.80016343  0.79347042  1
  Rh  Rh224  1  -0.00774999  0.79751631  0.00839223  1
  Rh  Rh225  1  0.19747847  0.60741098  -0.00226278  1
  Rh  Rh226  1  0.80826952  0.20672646  0.19313290  1
  Rh  Rh227  1  0.40754769  0.39452494  -0.00511354  1
  Rh  Rh228  1  0.00006433  0.00308376  0.79688847  1
  Rh  Rh229  1  0.20124213  0.59729280  0.80813242  1
  Rh  Rh230  1  0.19919491  0.79681139  0.80225953  1
  Rh  Rh231  1  -0.00305635  0.40021533  0.60401357  1
  Rh  Rh232  1  0.60185397  0.59662846  0.20094229  1
  Rh  Rh233  1  0.19881272  -0.00397321  0.00438627  1
  Rh  Rh234  1  0.80105157  0.60342743  0.39423413  1
  Rh  Rh235  1  0.41269652  0.80360651  0.40903595  1
  Rh  Rh236  1  0.20445651  0.20561398  -0.00218379  1
  Rh  Rh237  1  0.20559125  0.79599573  0.60799345  1
  Rh  Rh238  1  0.40218053  0.60937553  0.00154158  1
  Rh  Rh239  1  0.59815747  0.39452381  0.40854988  1
  Rh  Rh240  1  0.59891481  0.40171815  0.00114107  1
  Rh  Rh241  1  0.79906548  0.00254988  0.60301331  1
  Rh  Rh242  1  -0.00917711  0.59972976  0.20920923  1
  Rh  Rh243  1  -0.00628644  0.59977617  0.81091735  1
  Rh  Rh244  1  0.79207696  0.39272655  0.00661719  1
  Rh  Rh245  1  0.79888599  0.59644965  0.61074262  1
  Rh  Rh246  1  0.39994545  -0.00388499  0.39969842  1
  Rh  Rh247  1  0.00252308  0.40583242  0.39600540  1
  Rh  Rh248  1  0.80394484  0.19435655  0.59382694  1
  Rh  Rh249  1  0.20226613  -0.00105231  0.79607995  1
