# generated using pymatgen
data_ZrScNbPdRh
_symmetry_space_group_name_H-M   'P 1'
_cell_length_a   16.56479561
_cell_length_b   16.56453640
_cell_length_c   16.56546209
_cell_angle_alpha   90.01927548
_cell_angle_beta   90.05512362
_cell_angle_gamma   90.04132340
_symmetry_Int_Tables_number   1
_chemical_formula_structural   ZrScNbPdRh
_chemical_formula_sum   'Zr50 Sc50 Nb50 Pd50 Rh50'
_cell_volume   4545.36311589
_cell_formula_units_Z   50
loop_
 _symmetry_equiv_pos_site_id
 _symmetry_equiv_pos_as_xyz
  1  'x, y, z'
loop_
 _atom_site_type_symbol
 _atom_site_label
 _atom_site_symmetry_multiplicity
 _atom_site_fract_x
 _atom_site_fract_y
 _atom_site_fract_z
 _atom_site_occupancy
  Zr  Zr0  1  0.69254706  0.30669406  0.09586896  1
  Zr  Zr1  1  0.10558617  0.69909999  0.10362959  1
  Zr  Zr2  1  0.50883002  0.49256694  0.50158078  1
  Zr  Zr3  1  0.89571881  0.49862913  0.90322417  1
  Zr  Zr4  1  0.70282587  0.29460128  0.70396096  1
  Zr  Zr5  1  0.89639324  0.50345542  0.09953225  1
  Zr  Zr6  1  0.50567239  0.49468768  0.10501535  1
  Zr  Zr7  1  0.49999481  0.69528478  0.90134161  1
  Zr  Zr8  1  0.69836143  0.89671407  0.89826616  1
  Zr  Zr9  1  0.30592624  0.30210990  0.09317494  1
  Zr  Zr10  1  0.49494142  0.30448094  0.90576714  1
  Zr  Zr11  1  0.30956760  0.10437370  0.69934374  1
  Zr  Zr12  1  0.89741728  0.49881833  0.29885238  1
  Zr  Zr13  1  0.49713042  0.28928468  0.70558893  1
  Zr  Zr14  1  0.90090587  0.30471763  0.30110263  1
  Zr  Zr15  1  0.30222845  0.70473037  0.49711608  1
  Zr  Zr16  1  0.09736034  0.30719606  0.50103312  1
  Zr  Zr17  1  0.90121566  0.70601850  0.69247313  1
  Zr  Zr18  1  0.70703034  0.10254051  0.09923610  1
  Zr  Zr19  1  0.70161744  0.91084666  0.09808916  1
  Zr  Zr20  1  0.89969482  0.29679392  0.70172085  1
  Zr  Zr21  1  0.50309346  0.50840348  0.90419454  1
  Zr  Zr22  1  0.08496744  0.09592818  0.49716576  1
  Zr  Zr23  1  0.30255360  0.08797543  0.89926457  1
  Zr  Zr24  1  0.09760055  0.48871034  0.90141657  1
  Zr  Zr25  1  0.89867319  0.50615306  0.49452675  1
  Zr  Zr26  1  0.90127241  0.10118351  0.29747287  1
  Zr  Zr27  1  0.90030767  0.70006779  0.30509486  1
  Zr  Zr28  1  0.09668548  0.29601593  0.29980434  1
  Zr  Zr29  1  0.49994091  0.89542495  0.09670925  1
  Zr  Zr30  1  0.49459938  0.30044417  0.09864214  1
  Zr  Zr31  1  0.69919418  0.70144621  0.29751281  1
  Zr  Zr32  1  0.29561625  0.30625455  0.49837277  1
  Zr  Zr33  1  0.09903094  0.70072911  0.68839235  1
  Zr  Zr34  1  0.30241574  0.70213206  0.30026631  1
  Zr  Zr35  1  0.29867461  0.30267041  0.29947691  1
  Zr  Zr36  1  0.50195151  0.90575844  0.90337328  1
  Zr  Zr37  1  0.89774538  0.10469613  0.69750916  1
  Zr  Zr38  1  0.09968265  0.88850558  0.10211310  1
  Zr  Zr39  1  0.69269655  0.29780817  0.50575868  1
  Zr  Zr40  1  0.29490446  0.70249298  0.10438488  1
  Zr  Zr41  1  0.89991371  0.49917954  0.70702929  1
  Zr  Zr42  1  0.90557919  0.30133066  0.89514296  1
  Zr  Zr43  1  0.70258372  0.09379181  0.30087156  1
  Zr  Zr44  1  0.69704659  0.69220086  0.90147112  1
  Zr  Zr45  1  0.09858494  0.50263969  0.09743670  1
  Zr  Zr46  1  0.10138825  0.30179262  0.89932235  1
  Zr  Zr47  1  0.90115243  0.70531300  0.50032785  1
  Zr  Zr48  1  0.29840315  0.89941161  0.30802102  1
  Zr  Zr49  1  0.69863470  0.09634935  0.90672366  1
  Sc  Sc50  1  0.89831450  0.29146237  0.09822657  1
  Sc  Sc51  1  0.50336840  0.09654664  0.50282818  1
  Sc  Sc52  1  0.70036043  0.10357891  0.69127345  1
  Sc  Sc53  1  0.70130072  0.70298419  0.69736312  1
  Sc  Sc54  1  0.89669920  0.89465584  0.69544624  1
  Sc  Sc55  1  0.49824976  0.50796284  0.70752893  1
  Sc  Sc56  1  0.50079643  0.29372126  0.48878234  1
  Sc  Sc57  1  0.10197584  0.50081760  0.50469312  1
  Sc  Sc58  1  0.09741240  0.09986666  0.89951961  1
  Sc  Sc59  1  0.30749836  0.49225484  0.89553773  1
  Sc  Sc60  1  0.08843576  0.10343846  0.70297220  1
  Sc  Sc61  1  0.49894243  0.70735001  0.51090054  1
  Sc  Sc62  1  0.31411156  0.09491255  0.48971168  1
  Sc  Sc63  1  0.10367735  0.69978764  0.29280567  1
  Sc  Sc64  1  0.69388404  0.90374171  0.49956118  1
  Sc  Sc65  1  0.50539957  0.70365546  0.28637874  1
  Sc  Sc66  1  0.30723506  0.91476489  0.70443256  1
  Sc  Sc67  1  0.30799248  0.69191273  0.69429488  1
  Sc  Sc68  1  0.30283448  0.30613726  0.70427457  1
  Sc  Sc69  1  0.91529074  0.69781273  0.10062645  1
  Sc  Sc70  1  0.70489497  0.49849410  0.28761038  1
  Sc  Sc71  1  0.48794208  0.10664729  0.31295811  1
  Sc  Sc72  1  0.10062374  0.70276941  0.91966974  1
  Sc  Sc73  1  0.89563850  0.69537655  0.90488424  1
  Sc  Sc74  1  0.29007606  0.50242875  0.50099855  1
  Sc  Sc75  1  0.09438787  0.90558339  0.70100514  1
  Sc  Sc76  1  0.49934246  0.89032976  0.30516767  1
  Sc  Sc77  1  0.50125991  0.69931046  0.70166904  1
  Sc  Sc78  1  0.10432484  0.29957529  0.09018181  1
  Sc  Sc79  1  0.29187856  0.09235278  0.29796099  1
  Sc  Sc80  1  0.30349221  0.69229417  0.91115821  1
  Sc  Sc81  1  0.30086805  0.50084757  0.10021131  1
  Sc  Sc82  1  0.70053513  0.30493712  0.29678465  1
  Sc  Sc83  1  0.50312969  0.69229609  0.09753724  1
  Sc  Sc84  1  0.49724795  0.10213719  0.89948000  1
  Sc  Sc85  1  0.29600370  0.49635690  0.29661147  1
  Sc  Sc86  1  0.29906390  0.49730543  0.70153430  1
  Sc  Sc87  1  0.69804353  0.89359975  0.70068260  1
  Sc  Sc88  1  0.70260058  0.50228299  0.09793790  1
  Sc  Sc89  1  0.10861587  0.09908744  0.10207752  1
  Sc  Sc90  1  0.69482423  0.89614186  0.30301457  1
  Sc  Sc91  1  0.90455243  0.30429851  0.50127991  1
  Sc  Sc92  1  0.29920137  0.10178156  0.09507822  1
  Sc  Sc93  1  0.50555793  0.90274483  0.69504069  1
  Sc  Sc94  1  0.10768289  0.90355885  0.30230180  1
  Sc  Sc95  1  0.10653793  0.90381461  0.90607752  1
  Sc  Sc96  1  0.09494119  0.69501999  0.50043910  1
  Sc  Sc97  1  0.49397744  0.90045210  0.50180924  1
  Sc  Sc98  1  0.49469683  0.30968015  0.29838434  1
  Sc  Sc99  1  0.09516358  0.30874772  0.69890213  1
  Nb  Nb100  1  0.89921405  0.89990803  0.10182595  1
  Nb  Nb101  1  0.89936971  0.89397250  0.90164038  1
  Nb  Nb102  1  0.29733039  0.90138373  0.49518723  1
  Nb  Nb103  1  0.69805510  0.50205615  0.50924483  1
  Nb  Nb104  1  0.09968208  0.09924929  0.29729850  1
  Nb  Nb105  1  0.10360677  0.90202067  0.50104130  1
  Nb  Nb106  1  0.91168077  0.90131763  0.49450826  1
  Nb  Nb107  1  0.50420068  0.50383746  0.29969371  1
  Nb  Nb108  1  0.70228386  0.70019309  0.10517550  1
  Nb  Nb109  1  0.90096044  0.89638207  0.29697479  1
  Nb  Nb110  1  0.10390376  0.50513803  0.69907703  1
  Nb  Nb111  1  0.69949077  0.49934882  0.70433075  1
  Nb  Nb112  1  0.48970156  0.09669670  0.70191972  1
  Nb  Nb113  1  0.88936255  0.08945733  0.09948996  1
  Nb  Nb114  1  0.30159754  0.30258540  0.89605331  1
  Nb  Nb115  1  0.69677303  0.30506738  0.89993002  1
  Nb  Nb116  1  0.70809674  0.10103164  0.49796659  1
  Nb  Nb117  1  0.90107592  0.09837010  0.90201530  1
  Nb  Nb118  1  0.70443904  0.49974563  0.89609985  1
  Nb  Nb119  1  0.10192346  0.49331949  0.29851532  1
  Nb  Nb120  1  0.30151564  0.90126130  0.90367537  1
  Nb  Nb121  1  0.29467047  0.90629026  0.09413819  1
  Nb  Nb122  1  0.49554790  0.10176672  0.09947258  1
  Nb  Nb123  1  0.88995347  0.09532259  0.50345276  1
  Nb  Nb124  1  0.70144164  0.69464912  0.49915520  1
  Nb  Nb125  1  0.39484738  0.80374271  0.80735125  1
  Nb  Nb126  1  0.40550474  0.39843837  0.59881568  1
  Nb  Nb127  1  0.20385551  0.79752624  0.79901232  1
  Nb  Nb128  1  -0.01028417  -0.00125449  0.00641034  1
  Nb  Nb129  1  0.20335088  0.81082380  0.59879216  1
  Nb  Nb130  1  0.20032541  0.00285024  0.59228411  1
  Nb  Nb131  1  0.00458809  0.79457283  0.80339653  1
  Nb  Nb132  1  0.80022649  0.80054042  0.00692097  1
  Nb  Nb133  1  0.80445739  0.00093077  0.80398936  1
  Nb  Nb134  1  0.60115376  0.59804286  0.40316992  1
  Nb  Nb135  1  0.19217957  0.60315911  0.79944059  1
  Nb  Nb136  1  0.60622461  0.40093126  0.80445163  1
  Nb  Nb137  1  0.20434939  0.20180114  0.79761645  1
  Nb  Nb138  1  0.00203408  0.40048540  0.20077593  1
  Nb  Nb139  1  0.19898485  0.19564183  0.59727497  1
  Nb  Nb140  1  0.80456326  0.80188878  0.19669855  1
  Nb  Nb141  1  0.41054053  0.59843609  0.39734735  1
  Nb  Nb142  1  0.79236197  0.40591806  0.60216063  1
  Nb  Nb143  1  0.59547660  0.19501827  0.19725708  1
  Nb  Nb144  1  0.19278997  0.19627987  0.40191044  1
  Nb  Nb145  1  0.40148559  -0.00309693  0.19596163  1
  Nb  Nb146  1  0.59060217  0.00720728  0.19875065  1
  Nb  Nb147  1  0.79986804  0.19422252  0.40592487  1
  Nb  Nb148  1  -0.00475403  0.00019871  0.19834739  1
  Nb  Nb149  1  0.00696327  0.60307340  0.79948950  1
  Pd  Pd150  1  -0.00067103  -0.00442240  0.38992405  1
  Pd  Pd151  1  0.59152154  0.79694102  0.79721594  1
  Pd  Pd152  1  0.00880281  0.59690733  0.39642336  1
  Pd  Pd153  1  0.80210631  0.39472281  0.00159580  1
  Pd  Pd154  1  0.60556233  0.79499814  0.00435260  1
  Pd  Pd155  1  0.00217626  0.19693941  0.18713219  1
  Pd  Pd156  1  0.59899118  0.19695577  0.80409760  1
  Pd  Pd157  1  0.59733264  0.19709066  0.00281226  1
  Pd  Pd158  1  0.79813993  0.19237328  0.80870914  1
  Pd  Pd159  1  -0.00613103  0.19919611  0.40524565  1
  Pd  Pd160  1  0.80314550  -0.00559767  0.39997564  1
  Pd  Pd161  1  0.79827552  0.80895324  0.40213043  1
  Pd  Pd162  1  0.80181934  0.20749787  -0.00731790  1
  Pd  Pd163  1  0.39686300  0.79645159  -0.00074262  1
  Pd  Pd164  1  0.60597592  0.19853847  0.39141159  1
  Pd  Pd165  1  0.39789677  0.20592590  0.59002335  1
  Pd  Pd166  1  0.79798449  -0.00983081  0.60468391  1
  Pd  Pd167  1  0.80148412  0.59782433  0.60552304  1
  Pd  Pd168  1  0.19087896  0.79329554  0.40462895  1
  Pd  Pd169  1  0.59372685  0.19136081  0.59983747  1
  Pd  Pd170  1  0.19544532  0.39746744  0.19175189  1
  Pd  Pd171  1  0.20443053  0.58947777  -0.00659110  1
  Pd  Pd172  1  0.61055808  0.40616073  0.39143723  1
  Pd  Pd173  1  0.39310107  0.81056142  0.61112273  1
  Pd  Pd174  1  0.01056426  0.80140444  0.39677937  1
  Pd  Pd175  1  0.40051251  0.58910783  0.59202889  1
  Pd  Pd176  1  0.20134050  0.59951793  0.39593020  1
  Pd  Pd177  1  0.39803978  0.59614624  0.20278998  1
  Pd  Pd178  1  0.59938728  0.60642116  0.60233072  1
  Pd  Pd179  1  0.79467130  0.80783064  0.58645763  1
  Pd  Pd180  1  -0.00319024  -0.00360615  0.60314210  1
  Pd  Pd181  1  0.59595133  0.39661412  0.61461913  1
  Pd  Pd182  1  0.59528790  0.79121267  0.40870664  1
  Pd  Pd183  1  0.78935285  0.59655625  0.39669894  1
  Pd  Pd184  1  0.80345573  0.60914930  0.79526279  1
  Pd  Pd185  1  0.20424318  0.20080230  0.20241838  1
  Pd  Pd186  1  0.19611902  0.00289369  0.79188111  1
  Pd  Pd187  1  -0.00033613  0.19052809  0.00565677  1
  Pd  Pd188  1  0.60427030  0.00803376  0.79159728  1
  Pd  Pd189  1  0.39520152  0.80708273  0.19633096  1
  Pd  Pd190  1  0.20598633  0.19700485  -0.01073942  1
  Pd  Pd191  1  0.59199300  0.00111262  0.39640795  1
  Pd  Pd192  1  0.39578302  0.41030184  0.40417539  1
  Pd  Pd193  1  -0.00668972  -0.00809826  0.80765873  1
  Pd  Pd194  1  0.79319535  0.20714139  0.20454687  1
  Pd  Pd195  1  -0.00689025  0.40808682  0.60102989  1
  Pd  Pd196  1  0.79091733  0.39584561  0.40862394  1
  Pd  Pd197  1  0.60033060  0.00371685  0.60185768  1
  Pd  Pd198  1  0.39780624  0.19363711  0.20501674  1
  Pd  Pd199  1  0.00262945  0.59582481  0.20580771  1
  Rh  Rh200  1  0.20472893  0.60597897  0.60179351  1
  Rh  Rh201  1  0.40145733  0.00182106  0.00590497  1
  Rh  Rh202  1  0.00206345  0.40398407  0.79572019  1
  Rh  Rh203  1  0.39924492  -0.00177973  0.59610247  1
  Rh  Rh204  1  0.19724306  0.01096363  0.40673063  1
  Rh  Rh205  1  0.19753259  0.40011606  0.79803104  1
  Rh  Rh206  1  0.00571106  0.20318114  0.80174589  1
  Rh  Rh207  1  0.39822951  0.40535721  0.00052281  1
  Rh  Rh208  1  0.00017271  0.59572440  -0.00693548  1
  Rh  Rh209  1  0.19176163  -0.00078333  0.00378241  1
  Rh  Rh210  1  0.60867807  0.80875842  0.19247552  1
  Rh  Rh211  1  -0.00135061  0.20023843  0.59859168  1
  Rh  Rh212  1  0.20062278  -0.00422323  0.19551151  1
  Rh  Rh213  1  0.60319547  0.40935011  -0.00799324  1
  Rh  Rh214  1  -0.00792410  0.39807274  0.01058843  1
  Rh  Rh215  1  0.20760990  0.80327013  -0.00375681  1
  Rh  Rh216  1  0.39115445  0.60889577  0.80440592  1
  Rh  Rh217  1  0.41214624  0.40046469  0.79454743  1
  Rh  Rh218  1  0.20660639  0.80498201  0.20296165  1
  Rh  Rh219  1  -0.00495143  0.80406152  -0.00486335  1
  Rh  Rh220  1  0.60403317  0.59828087  0.20248357  1
  Rh  Rh221  1  0.40990771  -0.00658922  0.80152197  1
  Rh  Rh222  1  0.40022120  0.59506382  0.00760772  1
  Rh  Rh223  1  0.39493195  0.19677556  -0.00607267  1
  Rh  Rh224  1  0.59230649  0.00773788  0.00607818  1
  Rh  Rh225  1  0.59782298  0.39453983  0.20137140  1
  Rh  Rh226  1  0.19363531  0.39800592  0.39828334  1
  Rh  Rh227  1  0.60484338  0.79845198  0.59738296  1
  Rh  Rh228  1  0.79886039  -0.00990062  0.21116152  1
  Rh  Rh229  1  -0.00783457  0.59370244  0.60072010  1
  Rh  Rh230  1  0.20088357  0.59739382  0.20337421  1
  Rh  Rh231  1  0.60545593  0.59726147  0.79732704  1
  Rh  Rh232  1  0.80412298  0.61096797  0.19801189  1
  Rh  Rh233  1  0.80548299  0.20926484  0.59037016  1
  Rh  Rh234  1  0.00455622  0.40855715  0.39541466  1
  Rh  Rh235  1  0.80616325  -0.00746846  -0.01279082  1
  Rh  Rh236  1  0.79384803  0.39660158  0.79709361  1
  Rh  Rh237  1  0.20618691  0.39622611  0.60661509  1
  Rh  Rh238  1  0.40017781  0.40521433  0.20028393  1
  Rh  Rh239  1  0.60732207  0.59625240  0.00577351  1
  Rh  Rh240  1  0.39403772  0.19854195  0.80933991  1
  Rh  Rh241  1  0.40644662  0.79119381  0.39990620  1
  Rh  Rh242  1  0.80857388  0.39492403  0.19117007  1
  Rh  Rh243  1  0.40532736  -0.00701890  0.39348575  1
  Rh  Rh244  1  0.20852040  0.40172034  -0.00062929  1
  Rh  Rh245  1  0.79812767  0.60792950  0.00626670  1
  Rh  Rh246  1  0.00582115  0.81021614  0.59877322  1
  Rh  Rh247  1  0.80582295  0.80121416  0.80806563  1
  Rh  Rh248  1  -0.00208096  0.80342963  0.20690506  1
  Rh  Rh249  1  0.38887790  0.20519722  0.39568335  1
