# generated using pymatgen
data_ZrScNbPdRh
_symmetry_space_group_name_H-M   'P 1'
_cell_length_a   16.56153707
_cell_length_b   16.56100799
_cell_length_c   16.56005786
_cell_angle_alpha   89.98856273
_cell_angle_beta   90.02735108
_cell_angle_gamma   89.97625961
_symmetry_Int_Tables_number   1
_chemical_formula_structural   ZrScNbPdRh
_chemical_formula_sum   'Zr50 Sc50 Nb50 Pd50 Rh50'
_cell_volume   4542.02125238
_cell_formula_units_Z   50
loop_
 _symmetry_equiv_pos_site_id
 _symmetry_equiv_pos_as_xyz
  1  'x, y, z'
loop_
 _atom_site_type_symbol
 _atom_site_label
 _atom_site_symmetry_multiplicity
 _atom_site_fract_x
 _atom_site_fract_y
 _atom_site_fract_z
 _atom_site_occupancy
  Zr  Zr0  1  0.49399322  0.49424292  0.10962251  1
  Zr  Zr1  1  0.30245604  0.69535947  0.10761113  1
  Zr  Zr2  1  0.49420312  0.88509173  0.90133085  1
  Zr  Zr3  1  0.50589821  0.09974342  0.90462904  1
  Zr  Zr4  1  0.69664079  0.49924973  0.70253180  1
  Zr  Zr5  1  0.89841756  0.09673616  0.89712942  1
  Zr  Zr6  1  0.70195909  0.91128952  0.70440565  1
  Zr  Zr7  1  0.68372289  0.69916572  0.90232166  1
  Zr  Zr8  1  0.90123136  0.89928096  0.90288995  1
  Zr  Zr9  1  0.50273400  0.90725140  0.49698553  1
  Zr  Zr10  1  0.09254174  0.70062512  0.69068224  1
  Zr  Zr11  1  0.30109974  0.70523266  0.90725635  1
  Zr  Zr12  1  0.90581801  0.09962275  0.49302749  1
  Zr  Zr13  1  0.50063026  0.10461780  0.49409999  1
  Zr  Zr14  1  0.29205398  0.30507043  0.90576209  1
  Zr  Zr15  1  0.69853402  0.89901969  0.90635917  1
  Zr  Zr16  1  0.88671033  0.30123240  0.10515892  1
  Zr  Zr17  1  0.70274800  0.90373929  0.50216218  1
  Zr  Zr18  1  0.90126152  0.50080259  0.90701212  1
  Zr  Zr19  1  0.49800146  0.10571426  0.30181510  1
  Zr  Zr20  1  0.69927436  0.69988435  0.50653666  1
  Zr  Zr21  1  0.70199463  0.89718259  0.10519373  1
  Zr  Zr22  1  0.08845580  0.69604718  0.50113251  1
  Zr  Zr23  1  0.29575212  0.50430242  0.29878285  1
  Zr  Zr24  1  0.48585828  0.30030484  0.10529315  1
  Zr  Zr25  1  0.30491810  0.30578810  0.70036165  1
  Zr  Zr26  1  0.10666680  0.68734674  0.30820070  1
  Zr  Zr27  1  0.09501354  0.49430218  0.90109526  1
  Zr  Zr28  1  0.50051157  0.10560479  0.70867484  1
  Zr  Zr29  1  0.09376950  0.89266115  0.89880440  1
  Zr  Zr30  1  0.29797927  0.89601851  0.89169933  1
  Zr  Zr31  1  0.71345438  0.30622787  0.69449979  1
  Zr  Zr32  1  0.29613201  0.89937460  0.50166821  1
  Zr  Zr33  1  0.29715393  0.49223377  0.69689858  1
  Zr  Zr34  1  0.49963962  0.30402483  0.70708399  1
  Zr  Zr35  1  0.89873516  0.10568278  0.29662485  1
  Zr  Zr36  1  0.90279361  0.50333674  0.09684050  1
  Zr  Zr37  1  0.89818827  0.10014721  0.09965433  1
  Zr  Zr38  1  0.90306215  0.90059673  0.50052260  1
  Zr  Zr39  1  0.10497947  0.10255635  0.10328571  1
  Zr  Zr40  1  0.90340661  0.31302442  0.89451312  1
  Zr  Zr41  1  0.09990996  0.69357059  0.09904703  1
  Zr  Zr42  1  0.89835508  0.48184800  0.70363643  1
  Zr  Zr43  1  0.11325224  0.28924894  0.09297967  1
  Zr  Zr44  1  0.69759147  0.09491440  0.89169972  1
  Zr  Zr45  1  0.69791764  0.70601637  0.70099014  1
  Zr  Zr46  1  0.71005622  0.30165174  0.29925612  1
  Zr  Zr47  1  0.30080191  0.09395841  0.89535647  1
  Zr  Zr48  1  0.50886742  0.50642030  0.89783379  1
  Zr  Zr49  1  0.09843141  0.30043059  0.29491307  1
  Sc  Sc50  1  0.69920392  0.49500370  0.49780230  1
  Sc  Sc51  1  0.09872677  0.10236597  0.29313975  1
  Sc  Sc52  1  0.29962384  0.29574727  0.30351888  1
  Sc  Sc53  1  0.10460622  0.50280116  0.69310304  1
  Sc  Sc54  1  0.48874579  0.30254599  0.48698125  1
  Sc  Sc55  1  0.49447155  0.29744118  0.89984584  1
  Sc  Sc56  1  0.89940833  0.70002680  0.09829999  1
  Sc  Sc57  1  0.09973857  0.89831775  0.50273774  1
  Sc  Sc58  1  0.09951535  0.50269811  0.10247588  1
  Sc  Sc59  1  0.50646204  0.90012053  0.10210010  1
  Sc  Sc60  1  0.50183054  0.90428546  0.29443333  1
  Sc  Sc61  1  0.09398245  0.10434928  0.91019540  1
  Sc  Sc62  1  0.10243544  0.31320007  0.69297024  1
  Sc  Sc63  1  0.90497926  0.49583925  0.29588468  1
  Sc  Sc64  1  0.70260246  0.50026076  0.90515870  1
  Sc  Sc65  1  0.09271373  0.90455901  0.29958462  1
  Sc  Sc66  1  0.70492890  0.48849858  0.30383168  1
  Sc  Sc67  1  0.10129583  0.08942129  0.68986830  1
  Sc  Sc68  1  0.09603979  0.49995164  0.30095761  1
  Sc  Sc69  1  0.29327872  0.50175002  0.89631125  1
  Sc  Sc70  1  0.10760960  0.89845252  0.69480332  1
  Sc  Sc71  1  0.90851525  0.49823934  0.49714343  1
  Sc  Sc72  1  0.49769338  0.69260546  0.51174286  1
  Sc  Sc73  1  0.70083962  0.09914043  0.29943645  1
  Sc  Sc74  1  0.89921337  0.90424792  0.29215169  1
  Sc  Sc75  1  0.69776089  0.29501551  0.90173539  1
  Sc  Sc76  1  0.69777401  0.09900404  0.09500572  1
  Sc  Sc77  1  0.90717446  0.90031302  0.69835805  1
  Sc  Sc78  1  0.09218357  0.89718506  0.10214276  1
  Sc  Sc79  1  0.30773081  0.90072961  0.10015651  1
  Sc  Sc80  1  0.48990945  0.50123962  0.69908308  1
  Sc  Sc81  1  0.10131413  0.30131932  0.49402479  1
  Sc  Sc82  1  0.09877660  0.09516888  0.49503567  1
  Sc  Sc83  1  0.71038178  0.50269290  0.09926947  1
  Sc  Sc84  1  0.28821341  0.70261862  0.49286511  1
  Sc  Sc85  1  0.90976309  0.69630120  0.29513232  1
  Sc  Sc86  1  0.70260921  0.70741516  0.28755097  1
  Sc  Sc87  1  0.90440569  0.09713268  0.68941832  1
  Sc  Sc88  1  0.69758613  0.90459589  0.29034467  1
  Sc  Sc89  1  0.49949246  0.69639465  0.71581543  1
  Sc  Sc90  1  0.49552252  0.09736111  0.10171239  1
  Sc  Sc91  1  0.10528578  0.50514408  0.49650398  1
  Sc  Sc92  1  0.29402181  0.69745916  0.70409990  1
  Sc  Sc93  1  0.29719441  0.49635577  0.10220360  1
  Sc  Sc94  1  0.70020123  0.09545387  0.49436464  1
  Sc  Sc95  1  0.71147257  0.30064750  0.49133716  1
  Sc  Sc96  1  0.70129032  0.70475116  0.09695185  1
  Sc  Sc97  1  0.29999110  0.10747341  0.10917286  1
  Sc  Sc98  1  0.10147933  0.70162340  0.90641533  1
  Sc  Sc99  1  0.48798998  0.71198467  0.29104479  1
  Nb  Nb100  1  0.31066664  0.48814099  0.50264296  1
  Nb  Nb101  1  0.50159015  0.69954824  0.90863279  1
  Nb  Nb102  1  0.90042041  0.70196650  0.50808942  1
  Nb  Nb103  1  0.49733112  0.49695451  0.49533952  1
  Nb  Nb104  1  0.30603308  0.10608774  0.49579179  1
  Nb  Nb105  1  0.90478001  0.70563054  0.89565060  1
  Nb  Nb106  1  0.29820380  0.90734520  0.69899834  1
  Nb  Nb107  1  0.89102553  0.89345189  0.09729393  1
  Nb  Nb108  1  0.89659925  0.29718614  0.50819035  1
  Nb  Nb109  1  0.69631984  0.10427907  0.70625605  1
  Nb  Nb110  1  0.69976888  0.30136465  0.10250406  1
  Nb  Nb111  1  0.10337366  0.29693986  0.89616020  1
  Nb  Nb112  1  0.89998891  0.70209930  0.69465858  1
  Nb  Nb113  1  0.49960301  0.48929978  0.30615044  1
  Nb  Nb114  1  0.29774631  0.09756728  0.69849000  1
  Nb  Nb115  1  0.50363367  0.30956430  0.29731053  1
  Nb  Nb116  1  0.89381740  0.29990920  0.30829653  1
  Nb  Nb117  1  0.50433512  0.69980835  0.09688515  1
  Nb  Nb118  1  0.30062746  0.29707969  0.10162940  1
  Nb  Nb119  1  0.29907969  0.70319482  0.30175535  1
  Nb  Nb120  1  0.30169221  0.09502683  0.30107579  1
  Nb  Nb121  1  0.49483909  0.89682568  0.70001058  1
  Nb  Nb122  1  0.30671785  0.88937430  0.30326006  1
  Nb  Nb123  1  0.30037826  0.29949457  0.50192434  1
  Nb  Nb124  1  0.90095985  0.29891602  0.69437722  1
  Nb  Nb125  1  0.80588691  0.60028444  0.60276040  1
  Nb  Nb126  1  0.59506973  0.39538740  0.59479659  1
  Nb  Nb127  1  0.39583277  0.00383722  0.60483656  1
  Nb  Nb128  1  0.21112288  0.00060304  0.39300212  1
  Nb  Nb129  1  0.19635239  0.19998949  0.79462692  1
  Nb  Nb130  1  0.80698018  0.20089364  0.79295667  1
  Nb  Nb131  1  0.19996643  -0.00203515  -0.00012414  1
  Nb  Nb132  1  0.59377316  0.59617246  0.20595255  1
  Nb  Nb133  1  -0.00773124  0.60237504  0.79767686  1
  Nb  Nb134  1  0.59828190  0.39589281  0.00976078  1
  Nb  Nb135  1  0.59546211  0.60054470  0.39293409  1
  Nb  Nb136  1  0.40294917  0.59509822  0.39880862  1
  Nb  Nb137  1  0.80061169  0.79585156  0.40345284  1
  Nb  Nb138  1  0.59459254  0.80833366  0.60302045  1
  Nb  Nb139  1  0.80550084  0.60688949  0.79817804  1
  Nb  Nb140  1  0.79971277  0.60822177  0.40489168  1
  Nb  Nb141  1  0.40601479  0.60381024  0.00164080  1
  Nb  Nb142  1  0.60286917  0.79543884  0.40463950  1
  Nb  Nb143  1  0.80370648  0.79702840  0.80206887  1
  Nb  Nb144  1  0.20480086  0.79749644  0.20871881  1
  Nb  Nb145  1  0.39881167  0.80746872  0.60624389  1
  Nb  Nb146  1  0.59841631  0.21180880  0.20060739  1
  Nb  Nb147  1  0.60170818  0.20446128  0.60192370  1
  Nb  Nb148  1  0.21065336  0.19794684  0.59883079  1
  Nb  Nb149  1  0.00155281  0.20745712  0.79437472  1
  Pd  Pd150  1  0.39336798  0.19554161  -0.00185688  1
  Pd  Pd151  1  0.40730649  -0.00262109  0.79906054  1
  Pd  Pd152  1  0.79672067  0.00027137  0.00386789  1
  Pd  Pd153  1  0.39623466  0.60042202  0.80795750  1
  Pd  Pd154  1  -0.00551534  0.00011557  0.19399523  1
  Pd  Pd155  1  0.39119133  0.20296911  0.80710868  1
  Pd  Pd156  1  0.39583362  0.00018641  0.00246331  1
  Pd  Pd157  1  0.79458467  0.18919787  0.59802235  1
  Pd  Pd158  1  0.19658475  0.40619679  0.00511100  1
  Pd  Pd159  1  0.20036925  0.80799734  0.01293160  1
  Pd  Pd160  1  0.80011519  0.20205685  -0.00887377  1
  Pd  Pd161  1  0.00608203  0.40178609  0.59025390  1
  Pd  Pd162  1  0.59923488  0.59345221  0.60027055  1
  Pd  Pd163  1  0.60406972  0.39694271  0.80479626  1
  Pd  Pd164  1  0.18593743  0.00602337  0.80731871  1
  Pd  Pd165  1  0.40227429  0.40948237  -0.00771914  1
  Pd  Pd166  1  0.00461859  0.79535836  0.20009533  1
  Pd  Pd167  1  0.39829179  -0.00170205  0.40034242  1
  Pd  Pd168  1  0.19570238  0.79462399  0.79352631  1
  Pd  Pd169  1  0.40413899  0.20025582  0.59961515  1
  Pd  Pd170  1  0.20098111  0.40303042  0.40153231  1
  Pd  Pd171  1  0.60490436  0.20927540  0.39946862  1
  Pd  Pd172  1  0.00108428  0.20428706  0.39938767  1
  Pd  Pd173  1  -0.00415660  0.20812897  0.19725694  1
  Pd  Pd174  1  0.58970874  -0.00923304  0.80481130  1
  Pd  Pd175  1  0.20173068  0.39674362  0.19892473  1
  Pd  Pd176  1  0.40014529  -0.00234749  0.20063846  1
  Pd  Pd177  1  0.19765571  0.19296621  0.40095230  1
  Pd  Pd178  1  0.00310235  -0.00291541  0.00759820  1
  Pd  Pd179  1  0.38954566  0.60683300  0.59588039  1
  Pd  Pd180  1  0.40447952  0.59814094  0.20465629  1
  Pd  Pd181  1  -0.00815801  0.20829768  -0.00249737  1
  Pd  Pd182  1  0.80022986  0.61162506  -0.00660325  1
  Pd  Pd183  1  -0.00015970  0.39332346  0.19332462  1
  Pd  Pd184  1  0.80289830  0.00761880  0.60206447  1
  Pd  Pd185  1  0.79641990  0.59711816  0.20901705  1
  Pd  Pd186  1  0.59623921  0.20520473  0.00989477  1
  Pd  Pd187  1  0.01393252  0.20281309  0.60180069  1
  Pd  Pd188  1  0.00596280  0.39039438  0.01195386  1
  Pd  Pd189  1  -0.00217155  0.39637450  0.40279706  1
  Pd  Pd190  1  0.59389058  0.00795478  0.60407565  1
  Pd  Pd191  1  0.18865177  0.60311324  0.80381632  1
  Pd  Pd192  1  0.60856868  0.40268591  0.19650286  1
  Pd  Pd193  1  0.20762752  0.59966065  0.59187182  1
  Pd  Pd194  1  -0.00501385  0.79984232  0.39616230  1
  Pd  Pd195  1  0.40970322  0.79052193  0.41195840  1
  Pd  Pd196  1  0.18839223  0.80799167  0.39469898  1
  Pd  Pd197  1  0.80027942  -0.00640124  0.39163229  1
  Pd  Pd198  1  0.00518793  0.00540587  0.79569803  1
  Pd  Pd199  1  0.20501308  -0.01151882  0.20097921  1
  Rh  Rh200  1  0.00274237  0.80788082  0.60093211  1
  Rh  Rh201  1  0.80482365  0.40573206  0.20042463  1
  Rh  Rh202  1  0.59700744  -0.00429621  -0.00021727  1
  Rh  Rh203  1  0.39359442  0.79456264  0.79411298  1
  Rh  Rh204  1  -0.00771213  0.59968373  0.40069083  1
  Rh  Rh205  1  0.80469952  0.19663714  0.40279424  1
  Rh  Rh206  1  0.39736981  0.40633871  0.80742424  1
  Rh  Rh207  1  0.40209843  0.79484378  0.00825383  1
  Rh  Rh208  1  0.80624052  0.80073518  0.20380456  1
  Rh  Rh209  1  -0.00769890  0.58933605  0.60715435  1
  Rh  Rh210  1  0.39835057  0.80422794  0.19337746  1
  Rh  Rh211  1  0.00629273  0.00142996  0.39666080  1
  Rh  Rh212  1  0.80879184  0.00202175  0.79388312  1
  Rh  Rh213  1  0.60170662  0.39883155  0.40736188  1
  Rh  Rh214  1  0.59676704  0.79269974  0.20201666  1
  Rh  Rh215  1  0.20660836  0.59486932  -0.00056807  1
  Rh  Rh216  1  0.39154534  0.39962899  0.39375870  1
  Rh  Rh217  1  0.59902392  0.01567865  0.19932086  1
  Rh  Rh218  1  0.00158350  0.59769806  0.19858026  1
  Rh  Rh219  1  0.20088083  0.39606596  0.58930797  1
  Rh  Rh220  1  0.80091120  0.79546711  -0.00631224  1
  Rh  Rh221  1  0.61007195  0.20935025  0.79443636  1
  Rh  Rh222  1  0.60234231  0.59764537  0.79735913  1
  Rh  Rh223  1  0.81288889  0.40547249  0.40338324  1
  Rh  Rh224  1  0.59954413  0.80548343  0.00793190  1
  Rh  Rh225  1  0.60323766  0.80646344  0.79673665  1
  Rh  Rh226  1  0.20939118  0.19020615  -0.00663854  1
  Rh  Rh227  1  0.40055964  0.20341865  0.20828298  1
  Rh  Rh228  1  0.00072174  0.60514032  -0.00643189  1
  Rh  Rh229  1  0.00046206  0.79625509  0.79318720  1
  Rh  Rh230  1  0.20690922  0.00880094  0.58604876  1
  Rh  Rh231  1  0.60267319  -0.00541736  0.38991082  1
  Rh  Rh232  1  0.80155711  0.00373450  0.19459261  1
  Rh  Rh233  1  0.19632314  0.39731068  0.79916250  1
  Rh  Rh234  1  0.38622902  0.39418920  0.20924068  1
  Rh  Rh235  1  0.20968759  0.59184055  0.40623280  1
  Rh  Rh236  1  0.79277454  0.39898057  0.80928888  1
  Rh  Rh237  1  0.79949009  0.40679493  0.58829325  1
  Rh  Rh238  1  -0.00467626  0.79770773  0.00706770  1
  Rh  Rh239  1  0.59364956  0.58746376  0.01660261  1
  Rh  Rh240  1  0.39867661  0.20612726  0.39168542  1
  Rh  Rh241  1  0.79116875  0.39625976  -0.00053500  1
  Rh  Rh242  1  0.79627542  0.80251486  0.60351282  1
  Rh  Rh243  1  0.40882882  0.39521922  0.59896433  1
  Rh  Rh244  1  0.00889926  0.40045169  0.79587580  1
  Rh  Rh245  1  0.00137362  -0.00539440  0.59465699  1
  Rh  Rh246  1  0.20390503  0.79517901  0.60339887  1
  Rh  Rh247  1  0.19670597  0.60250249  0.20026972  1
  Rh  Rh248  1  0.20549890  0.20263215  0.20729186  1
  Rh  Rh249  1  0.79139310  0.19474451  0.20083882  1
