# generated using pymatgen
data_ZrScNbPdRh
_symmetry_space_group_name_H-M   'P 1'
_cell_length_a   16.55511308
_cell_length_b   16.55349498
_cell_length_c   16.55554791
_cell_angle_alpha   90.00038920
_cell_angle_beta   90.00412661
_cell_angle_gamma   90.00440059
_symmetry_Int_Tables_number   1
_chemical_formula_structural   ZrScNbPdRh
_chemical_formula_sum   'Zr50 Sc50 Nb50 Pd50 Rh50'
_cell_volume   4536.96479092
_cell_formula_units_Z   50
loop_
 _symmetry_equiv_pos_site_id
 _symmetry_equiv_pos_as_xyz
  1  'x, y, z'
loop_
 _atom_site_type_symbol
 _atom_site_label
 _atom_site_symmetry_multiplicity
 _atom_site_fract_x
 _atom_site_fract_y
 _atom_site_fract_z
 _atom_site_occupancy
  Zr  Zr0  1  0.10064049  0.89524997  0.10511280  1
  Zr  Zr1  1  0.90148972  0.11737249  0.70277085  1
  Zr  Zr2  1  0.29267213  0.70269660  0.09603369  1
  Zr  Zr3  1  0.90117268  0.90035239  0.89870910  1
  Zr  Zr4  1  0.70407591  0.29768905  0.30211220  1
  Zr  Zr5  1  0.09701923  0.90093412  0.29799784  1
  Zr  Zr6  1  0.29754841  0.49545869  0.70511084  1
  Zr  Zr7  1  0.49859447  0.49723269  0.10259119  1
  Zr  Zr8  1  0.10791663  0.69424477  0.90049607  1
  Zr  Zr9  1  0.69207673  0.29899036  0.90274898  1
  Zr  Zr10  1  0.09917813  0.49347371  0.30100299  1
  Zr  Zr11  1  0.69783034  0.10315044  0.89621313  1
  Zr  Zr12  1  0.30225650  0.30167460  0.89345793  1
  Zr  Zr13  1  0.29314472  0.30378075  0.49853310  1
  Zr  Zr14  1  0.89981110  0.90375890  0.30128591  1
  Zr  Zr15  1  0.69637904  0.29695871  0.50114305  1
  Zr  Zr16  1  0.69106368  0.50129901  0.10186116  1
  Zr  Zr17  1  0.49989689  0.49661935  0.30311904  1
  Zr  Zr18  1  0.10943933  0.30021401  0.30087929  1
  Zr  Zr19  1  0.70080823  0.69658222  0.09987873  1
  Zr  Zr20  1  0.89084564  0.90532187  0.49958804  1
  Zr  Zr21  1  0.68983303  0.89599223  0.10403751  1
  Zr  Zr22  1  0.48788229  0.70824512  0.89292973  1
  Zr  Zr23  1  0.89531440  0.29563815  0.90248717  1
  Zr  Zr24  1  0.29448074  0.89850010  0.09080837  1
  Zr  Zr25  1  0.90309587  0.29719288  0.29786473  1
  Zr  Zr26  1  0.70439173  0.70294029  0.89859115  1
  Zr  Zr27  1  0.90056025  0.50176361  0.89979758  1
  Zr  Zr28  1  0.90305851  0.50028008  0.50026632  1
  Zr  Zr29  1  0.10795265  0.10120409  0.30228944  1
  Zr  Zr30  1  0.50143042  0.69410332  0.50649171  1
  Zr  Zr31  1  0.10623663  0.10600595  0.50656583  1
  Zr  Zr32  1  0.30600079  0.11143089  0.30374534  1
  Zr  Zr33  1  0.69729028  0.70757898  0.50275458  1
  Zr  Zr34  1  0.49779163  0.09511378  0.49998972  1
  Zr  Zr35  1  0.89944263  0.69427006  0.09478488  1
  Zr  Zr36  1  0.69788557  0.69701238  0.29634225  1
  Zr  Zr37  1  0.69682342  0.10567774  0.69948316  1
  Zr  Zr38  1  0.50207131  0.69356215  0.31189514  1
  Zr  Zr39  1  0.10182835  0.70291343  0.29153969  1
  Zr  Zr40  1  0.69806975  0.90336568  0.49881029  1
  Zr  Zr41  1  0.70273793  0.50225393  0.70017183  1
  Zr  Zr42  1  0.70074490  0.89790087  0.30611374  1
  Zr  Zr43  1  0.69593023  0.50065721  0.30204477  1
  Zr  Zr44  1  0.10286616  0.50026045  0.09776632  1
  Zr  Zr45  1  0.89773290  0.69862575  0.29593959  1
  Zr  Zr46  1  0.10328880  0.09428645  0.09138779  1
  Zr  Zr47  1  0.70717223  0.89640329  0.69292897  1
  Zr  Zr48  1  0.30493893  0.49390674  0.50740991  1
  Zr  Zr49  1  0.49998970  0.29765174  0.90228019  1
  Sc  Sc50  1  0.70488131  0.90033285  0.89245216  1
  Sc  Sc51  1  0.09995549  0.28984710  0.69564784  1
  Sc  Sc52  1  0.49855829  0.49850725  0.90825302  1
  Sc  Sc53  1  0.89713922  0.09963774  0.10205589  1
  Sc  Sc54  1  0.09609821  0.49319262  0.50233654  1
  Sc  Sc55  1  0.90003122  0.49439489  0.08908926  1
  Sc  Sc56  1  0.49630459  0.90549543  0.71109111  1
  Sc  Sc57  1  0.29926471  0.11198132  0.09357500  1
  Sc  Sc58  1  0.29257942  0.70068334  0.30377935  1
  Sc  Sc59  1  0.11087638  0.49289558  0.89827880  1
  Sc  Sc60  1  0.10833402  0.29468806  0.89458007  1
  Sc  Sc61  1  0.50612990  0.89737917  0.49930656  1
  Sc  Sc62  1  0.49995308  0.10122405  0.69711063  1
  Sc  Sc63  1  0.30165572  0.09674470  0.49747588  1
  Sc  Sc64  1  0.69510127  0.11078853  0.10304300  1
  Sc  Sc65  1  0.30203878  0.49610604  0.09763530  1
  Sc  Sc66  1  0.70367046  0.70527509  0.69341498  1
  Sc  Sc67  1  0.69728012  0.50062013  0.90320711  1
  Sc  Sc68  1  0.29575764  0.89905108  0.31127315  1
  Sc  Sc69  1  0.70257283  0.09924493  0.50631373  1
  Sc  Sc70  1  0.10586405  0.30068867  0.10864987  1
  Sc  Sc71  1  0.10864982  0.89905704  0.50351130  1
  Sc  Sc72  1  0.30588943  0.29959672  0.10371441  1
  Sc  Sc73  1  0.69514807  0.10153101  0.30077873  1
  Sc  Sc74  1  0.29935932  0.90265727  0.50506896  1
  Sc  Sc75  1  0.48999085  0.50389179  0.68817848  1
  Sc  Sc76  1  0.30116463  0.50609343  0.89535620  1
  Sc  Sc77  1  0.90619320  0.90663481  0.09877682  1
  Sc  Sc78  1  0.09787483  0.69707514  0.50312467  1
  Sc  Sc79  1  0.89588080  0.09820954  0.89860997  1
  Sc  Sc80  1  0.89727289  0.09881049  0.30479492  1
  Sc  Sc81  1  0.10286128  0.10457927  0.89944946  1
  Sc  Sc82  1  0.49614373  0.30994650  0.50652288  1
  Sc  Sc83  1  0.29852139  0.49049359  0.30510311  1
  Sc  Sc84  1  0.10171024  0.49180681  0.69680452  1
  Sc  Sc85  1  0.89397655  0.70105849  0.89559132  1
  Sc  Sc86  1  0.50224514  0.70261653  0.08806066  1
  Sc  Sc87  1  0.51250012  0.90620004  0.30530201  1
  Sc  Sc88  1  0.10528144  0.90751662  0.91315575  1
  Sc  Sc89  1  0.49708746  0.10559884  0.88895059  1
  Sc  Sc90  1  0.89527759  0.30166973  0.50738286  1
  Sc  Sc91  1  0.50157407  0.11569130  0.10409178  1
  Sc  Sc92  1  0.31099172  0.09421573  0.69143239  1
  Sc  Sc93  1  0.30980641  0.68828640  0.71255699  1
  Sc  Sc94  1  0.90179638  0.50560006  0.68570607  1
  Sc  Sc95  1  0.90068715  0.70360795  0.69222809  1
  Sc  Sc96  1  0.29897943  0.70333285  0.49803249  1
  Sc  Sc97  1  0.69161134  0.29685922  0.69463129  1
  Sc  Sc98  1  0.69732341  0.49012009  0.49990173  1
  Sc  Sc99  1  0.29695261  0.10555843  0.90278889  1
  Nb  Nb100  1  0.89387130  0.29688362  0.10080277  1
  Nb  Nb101  1  0.50487414  0.30146377  0.10060927  1
  Nb  Nb102  1  0.90203589  0.29983288  0.70522571  1
  Nb  Nb103  1  0.48519578  0.29615581  0.28924589  1
  Nb  Nb104  1  0.49163417  0.90032804  0.90290211  1
  Nb  Nb105  1  0.50126382  0.69838568  0.69790314  1
  Nb  Nb106  1  0.90126241  0.69207351  0.50153550  1
  Nb  Nb107  1  0.10261646  0.70195963  0.10437862  1
  Nb  Nb108  1  0.90035330  0.49473159  0.30227567  1
  Nb  Nb109  1  0.69826169  0.29765624  0.10030321  1
  Nb  Nb110  1  0.90765492  0.89639245  0.70191403  1
  Nb  Nb111  1  0.10245494  0.89294809  0.69733637  1
  Nb  Nb112  1  0.30077761  0.30259893  0.29891712  1
  Nb  Nb113  1  0.29973016  0.89791902  0.69814197  1
  Nb  Nb114  1  0.90368784  0.10028604  0.50274804  1
  Nb  Nb115  1  0.30330875  0.70420195  0.89950237  1
  Nb  Nb116  1  0.49657198  0.90033505  0.09971634  1
  Nb  Nb117  1  0.30631388  0.89671107  0.89488729  1
  Nb  Nb118  1  0.49460190  0.50479257  0.49338780  1
  Nb  Nb119  1  0.09570331  0.09916624  0.70157937  1
  Nb  Nb120  1  0.49782281  0.10632779  0.30120382  1
  Nb  Nb121  1  0.10126147  0.29797853  0.50371567  1
  Nb  Nb122  1  0.30548646  0.31039739  0.69821952  1
  Nb  Nb123  1  0.10192003  0.70514439  0.69785166  1
  Nb  Nb124  1  0.49554262  0.29658213  0.70390673  1
  Nb  Nb125  1  0.20111962  0.60072634  0.60634575  1
  Nb  Nb126  1  0.00626411  -0.00390830  0.79210432  1
  Nb  Nb127  1  0.80324069  0.59742203  0.40055249  1
  Nb  Nb128  1  0.20379642  0.80232923  0.79866359  1
  Nb  Nb129  1  0.00540693  0.59883962  0.79636571  1
  Nb  Nb130  1  0.58764506  0.20215269  0.39642282  1
  Nb  Nb131  1  0.19938192  -0.00593231  0.79191293  1
  Nb  Nb132  1  0.40168653  0.79724550  0.60846603  1
  Nb  Nb133  1  0.59044112  -0.00268136  -0.00177870  1
  Nb  Nb134  1  -0.00535105  0.79878671  0.40075347  1
  Nb  Nb135  1  0.00077976  0.00029179  0.60773309  1
  Nb  Nb136  1  -0.00290569  0.20466192  0.00443055  1
  Nb  Nb137  1  0.40101047  -0.00145258  0.19716741  1
  Nb  Nb138  1  0.20728872  0.00215865  0.19988242  1
  Nb  Nb139  1  0.80309927  0.39741181  0.79781325  1
  Nb  Nb140  1  0.40145421  0.80261576  0.20073963  1
  Nb  Nb141  1  0.59534644  0.60575208  0.79513569  1
  Nb  Nb142  1  -0.00676436  0.39763912  0.79814408  1
  Nb  Nb143  1  0.00612742  0.79427144  0.00319682  1
  Nb  Nb144  1  0.79996493  0.39475492  0.19659812  1
  Nb  Nb145  1  0.00401447  0.20003546  0.40749631  1
  Nb  Nb146  1  0.79311567  -0.00285870  0.20250145  1
  Nb  Nb147  1  0.00241226  0.59613349  0.19844923  1
  Nb  Nb148  1  0.40493084  -0.00234283  0.00050977  1
  Nb  Nb149  1  0.40082520  0.60452837  0.20069060  1
  Pd  Pd150  1  0.59657396  0.60449997  -0.00998299  1
  Pd  Pd151  1  0.00091427  0.19286052  0.19948822  1
  Pd  Pd152  1  0.00831082  0.38867718  -0.00563270  1
  Pd  Pd153  1  0.80807280  0.58605784  0.20003850  1
  Pd  Pd154  1  0.19880302  0.59414934  0.41055074  1
  Pd  Pd155  1  0.80022972  0.39540336  0.60681634  1
  Pd  Pd156  1  0.80835591  0.00644178  0.60969206  1
  Pd  Pd157  1  0.80611365  0.80652796  0.00457124  1
  Pd  Pd158  1  -0.00358612  0.80421165  0.58830779  1
  Pd  Pd159  1  0.20660517  0.59624347  -0.00083659  1
  Pd  Pd160  1  0.58903269  0.79223017  0.20460011  1
  Pd  Pd161  1  0.80472834  0.79185960  0.40419077  1
  Pd  Pd162  1  0.80515073  0.80817613  0.19141780  1
  Pd  Pd163  1  0.60131978  0.80539745  -0.01008517  1
  Pd  Pd164  1  0.21202173  0.20039126  0.60882253  1
  Pd  Pd165  1  0.40146514  -0.00779587  0.39549020  1
  Pd  Pd166  1  0.20415990  0.59008791  0.20148538  1
  Pd  Pd167  1  0.00040913  0.60397692  0.39406557  1
  Pd  Pd168  1  0.19121725  0.79860401  0.40462227  1
  Pd  Pd169  1  0.59943636  -0.00193029  0.80342358  1
  Pd  Pd170  1  0.59018741  0.39042417  0.39748790  1
  Pd  Pd171  1  0.59759351  0.40897927  0.79471630  1
  Pd  Pd172  1  0.40321191  0.21007236  0.41060952  1
  Pd  Pd173  1  0.60160573  0.79985211  0.79703669  1
  Pd  Pd174  1  0.00770825  0.79754156  0.81063704  1
  Pd  Pd175  1  0.80100409  0.19249530  0.00263929  1
  Pd  Pd176  1  0.80745660  0.00095009  0.79150884  1
  Pd  Pd177  1  0.39547373  0.39630978  -0.00072947  1
  Pd  Pd178  1  0.39278784  0.19612483  0.79550217  1
  Pd  Pd179  1  -0.00111327  0.38875112  0.40709454  1
  Pd  Pd180  1  0.38802278  0.59823147  0.39680016  1
  Pd  Pd181  1  0.20582693  0.39380717  -0.00031187  1
  Pd  Pd182  1  0.60481633  0.59315799  0.60033003  1
  Pd  Pd183  1  0.41085577  0.40767854  0.80076637  1
  Pd  Pd184  1  0.19817285  0.00255226  0.60392077  1
  Pd  Pd185  1  0.00396351  0.60307191  -0.00413263  1
  Pd  Pd186  1  0.80320965  0.59883586  0.79468658  1
  Pd  Pd187  1  0.39959562  0.20500607  0.59633119  1
  Pd  Pd188  1  0.00624456  0.00134707  0.41150852  1
  Pd  Pd189  1  -0.00131299  0.01082866  0.20000567  1
  Pd  Pd190  1  0.78777832  0.00202667  0.01004209  1
  Pd  Pd191  1  0.80197920  0.19446316  0.40613556  1
  Pd  Pd192  1  0.79116708  0.40246764  0.00051236  1
  Pd  Pd193  1  0.59755304  0.00832198  0.19445756  1
  Pd  Pd194  1  0.60192583  0.39173280  0.20315337  1
  Pd  Pd195  1  0.21030933  0.19320143  0.78836059  1
  Pd  Pd196  1  -0.00581389  0.40407362  0.19224979  1
  Pd  Pd197  1  0.59515662  -0.00289010  0.60476005  1
  Pd  Pd198  1  0.59169065  0.40451267  0.60416271  1
  Pd  Pd199  1  0.40373262  0.80527584  0.40305081  1
  Rh  Rh200  1  0.59864811  0.79834047  0.39987322  1
  Rh  Rh201  1  0.40157932  0.39661685  0.39896238  1
  Rh  Rh202  1  0.59913795  0.39676758  0.00427568  1
  Rh  Rh203  1  0.19576689  0.40039496  0.60166554  1
  Rh  Rh204  1  0.19946255  0.20392917  0.40336305  1
  Rh  Rh205  1  0.60343759  0.01149261  0.40400776  1
  Rh  Rh206  1  0.40496533  0.20074415  -0.00138872  1
  Rh  Rh207  1  0.80823842  0.79983386  0.59746308  1
  Rh  Rh208  1  0.59006633  0.80903269  0.60819878  1
  Rh  Rh209  1  0.80308586  0.40466379  0.39512064  1
  Rh  Rh210  1  0.21109283  0.80897915  0.20603358  1
  Rh  Rh211  1  0.00202326  0.20034536  0.81250937  1
  Rh  Rh212  1  0.80131925  0.79891486  0.79255811  1
  Rh  Rh213  1  0.19550931  0.79786182  -0.01003385  1
  Rh  Rh214  1  0.78815740  0.20933675  0.79701255  1
  Rh  Rh215  1  0.19381739  0.60581671  0.79306722  1
  Rh  Rh216  1  0.58660045  0.60771592  0.19508801  1
  Rh  Rh217  1  0.39573002  0.60306698  0.00388774  1
  Rh  Rh218  1  0.21134619  0.00473404  -0.00400691  1
  Rh  Rh219  1  0.00183307  0.39087377  0.60486002  1
  Rh  Rh220  1  0.39163337  0.00518484  0.80539936  1
  Rh  Rh221  1  0.21469835  0.78630254  0.60934025  1
  Rh  Rh222  1  0.19832941  0.40019909  0.40285950  1
  Rh  Rh223  1  0.41035066  0.59323684  0.80616472  1
  Rh  Rh224  1  -0.00732511  0.79097091  0.19600267  1
  Rh  Rh225  1  0.79177321  0.00926101  0.39547575  1
  Rh  Rh226  1  0.19519638  0.39086070  0.79390577  1
  Rh  Rh227  1  0.59843434  0.20764937  0.20854852  1
  Rh  Rh228  1  0.39845571  0.40534588  0.20010079  1
  Rh  Rh229  1  0.39740428  0.80067436  0.00516760  1
  Rh  Rh230  1  0.39615876  0.19892220  0.19480052  1
  Rh  Rh231  1  0.80000301  0.20297490  0.59980797  1
  Rh  Rh232  1  0.39103337  0.60620947  0.59461438  1
  Rh  Rh233  1  0.79371328  0.60314612  0.58858862  1
  Rh  Rh234  1  0.20236484  0.00242863  0.39810506  1
  Rh  Rh235  1  0.60992310  0.59747282  0.41183759  1
  Rh  Rh236  1  0.20622137  0.19723259  0.19930461  1
  Rh  Rh237  1  -0.00292390  0.20124049  0.59289034  1
  Rh  Rh238  1  0.79295359  0.59669929  -0.00039202  1
  Rh  Rh239  1  -0.00368068  0.00425314  -0.00951334  1
  Rh  Rh240  1  0.59758221  0.20313138  0.79558311  1
  Rh  Rh241  1  0.79841126  0.19852089  0.19845114  1
  Rh  Rh242  1  0.40321234  0.39853382  0.60190404  1
  Rh  Rh243  1  0.01105750  0.60224295  0.60766017  1
  Rh  Rh244  1  0.59491557  0.19626730  -0.00325786  1
  Rh  Rh245  1  0.20761857  0.40178308  0.19911067  1
  Rh  Rh246  1  0.39569821  0.80274653  0.79160280  1
  Rh  Rh247  1  0.40537542  -0.01076876  0.59740899  1
  Rh  Rh248  1  0.59073694  0.20004090  0.59306199  1
  Rh  Rh249  1  0.19269463  0.20778208  0.00376396  1
