# generated using pymatgen
data_ZrScNbPdRh
_symmetry_space_group_name_H-M   'P 1'
_cell_length_a   16.55696128
_cell_length_b   16.55608647
_cell_length_c   16.55943090
_cell_angle_alpha   89.98492248
_cell_angle_beta   89.99446345
_cell_angle_gamma   89.98780917
_symmetry_Int_Tables_number   1
_chemical_formula_structural   ZrScNbPdRh
_chemical_formula_sum   'Zr50 Sc50 Nb50 Pd50 Rh50'
_cell_volume   4539.24579093
_cell_formula_units_Z   50
loop_
 _symmetry_equiv_pos_site_id
 _symmetry_equiv_pos_as_xyz
  1  'x, y, z'
loop_
 _atom_site_type_symbol
 _atom_site_label
 _atom_site_symmetry_multiplicity
 _atom_site_fract_x
 _atom_site_fract_y
 _atom_site_fract_z
 _atom_site_occupancy
  Zr  Zr0  1  0.10410337  0.09745172  0.30151266  1
  Zr  Zr1  1  0.89838955  0.29201354  0.30087115  1
  Zr  Zr2  1  0.89510627  0.90323417  0.30048443  1
  Zr  Zr3  1  0.69840119  0.52002282  0.90047095  1
  Zr  Zr4  1  0.30182376  0.69740001  0.90413064  1
  Zr  Zr5  1  0.49679362  0.50105922  0.49259649  1
  Zr  Zr6  1  0.10566786  0.50986694  0.50194678  1
  Zr  Zr7  1  0.70642611  0.09910849  0.69967900  1
  Zr  Zr8  1  0.30307655  0.50747276  0.49925850  1
  Zr  Zr9  1  0.69903257  0.69446042  0.70392604  1
  Zr  Zr10  1  0.89269019  0.09512058  0.70612426  1
  Zr  Zr11  1  0.89252914  0.89521837  0.69326451  1
  Zr  Zr12  1  0.09903725  0.50220224  0.69548154  1
  Zr  Zr13  1  0.10192431  0.09457487  0.89804428  1
  Zr  Zr14  1  0.69840865  0.70386325  0.49513307  1
  Zr  Zr15  1  0.10818407  0.70146779  0.29410692  1
  Zr  Zr16  1  0.29886098  0.89931363  0.10345047  1
  Zr  Zr17  1  0.49585574  0.50100282  0.69879370  1
  Zr  Zr18  1  0.10063328  0.30195620  0.90488348  1
  Zr  Zr19  1  0.49596339  0.49688153  0.10019142  1
  Zr  Zr20  1  0.30040400  0.90854391  0.89889636  1
  Zr  Zr21  1  0.70316869  0.49810597  0.09858424  1
  Zr  Zr22  1  0.30528280  0.89420762  0.69998620  1
  Zr  Zr23  1  0.90472047  0.09558968  0.30668400  1
  Zr  Zr24  1  0.49810840  0.89954986  0.89475544  1
  Zr  Zr25  1  0.69421302  0.89570906  0.90013073  1
  Zr  Zr26  1  0.31168132  0.31402556  0.10614454  1
  Zr  Zr27  1  0.89633347  0.70388931  0.29344837  1
  Zr  Zr28  1  0.89960657  0.49524628  0.09637134  1
  Zr  Zr29  1  0.11572446  0.10189151  0.09449409  1
  Zr  Zr30  1  0.30463457  0.30176395  0.70653807  1
  Zr  Zr31  1  0.10256097  0.89960747  0.29884626  1
  Zr  Zr32  1  0.10426342  0.89345957  0.49691694  1
  Zr  Zr33  1  0.70352823  0.70276894  0.09309124  1
  Zr  Zr34  1  0.49539629  0.90825350  0.09856660  1
  Zr  Zr35  1  0.49885232  0.90061644  0.70037652  1
  Zr  Zr36  1  0.70145005  0.50250663  0.69958403  1
  Zr  Zr37  1  0.71268544  0.90851899  0.09614069  1
  Zr  Zr38  1  0.30437175  0.49835528  0.29848534  1
  Zr  Zr39  1  0.49334128  0.89523380  0.29595857  1
  Zr  Zr40  1  0.69931786  0.89464084  0.29986477  1
  Zr  Zr41  1  0.10433940  0.29855032  0.29660006  1
  Zr  Zr42  1  0.10309509  0.70499654  0.91341424  1
  Zr  Zr43  1  0.30821749  0.10010390  0.30124023  1
  Zr  Zr44  1  0.89022671  0.09315431  0.49577348  1
  Zr  Zr45  1  0.30580758  0.30188817  0.49555423  1
  Zr  Zr46  1  0.89888150  0.51125662  0.70065310  1
  Zr  Zr47  1  0.90216437  0.50244201  0.50899270  1
  Zr  Zr48  1  0.51006677  0.69760792  0.90421555  1
  Zr  Zr49  1  0.29626485  0.10223459  0.90456007  1
  Sc  Sc50  1  0.49780767  0.10409228  0.90695624  1
  Sc  Sc51  1  0.09386330  0.29354588  0.69436327  1
  Sc  Sc52  1  0.11209975  0.50252812  0.29455028  1
  Sc  Sc53  1  0.29811547  0.69564091  0.10321219  1
  Sc  Sc54  1  0.49838522  0.30088789  0.90424053  1
  Sc  Sc55  1  0.48890998  0.70648361  0.70129006  1
  Sc  Sc56  1  0.49873866  0.30242093  0.50276115  1
  Sc  Sc57  1  0.89682178  0.50727132  0.28443014  1
  Sc  Sc58  1  0.08971609  0.10072211  0.69605494  1
  Sc  Sc59  1  0.69745199  0.28806073  0.69721833  1
  Sc  Sc60  1  0.09890914  0.89402263  0.69727826  1
  Sc  Sc61  1  0.09464929  0.69904699  0.69539461  1
  Sc  Sc62  1  0.09904798  0.09593579  0.49633660  1
  Sc  Sc63  1  0.29316037  0.89831753  0.50356673  1
  Sc  Sc64  1  0.70578269  0.09795554  0.90033132  1
  Sc  Sc65  1  0.49088559  0.69584487  0.49236568  1
  Sc  Sc66  1  0.50155035  0.50514429  0.90655102  1
  Sc  Sc67  1  0.69846778  0.29645932  0.50651600  1
  Sc  Sc68  1  0.29183284  0.69838721  0.50076689  1
  Sc  Sc69  1  0.71314543  0.09617230  0.30686605  1
  Sc  Sc70  1  0.90621294  0.70362082  0.10505924  1
  Sc  Sc71  1  0.10447475  0.50308855  0.09664097  1
  Sc  Sc72  1  0.10196323  0.50355708  0.90503664  1
  Sc  Sc73  1  0.50199208  0.89510747  0.49530827  1
  Sc  Sc74  1  0.30305823  0.30420431  0.30167836  1
  Sc  Sc75  1  0.49550916  0.69698262  0.10916322  1
  Sc  Sc76  1  0.49346820  0.09908198  0.49624441  1
  Sc  Sc77  1  0.89697059  0.28878953  0.69635743  1
  Sc  Sc78  1  0.90593107  0.69687445  0.89483481  1
  Sc  Sc79  1  0.90389911  0.50189122  0.90823787  1
  Sc  Sc80  1  0.69087271  0.69824434  0.29159898  1
  Sc  Sc81  1  0.87854906  0.09095588  0.09739353  1
  Sc  Sc82  1  0.89879689  0.90189518  0.89672768  1
  Sc  Sc83  1  0.50167318  0.10867220  0.70132772  1
  Sc  Sc84  1  0.30003842  0.50375169  0.90132359  1
  Sc  Sc85  1  0.09893777  0.29405624  0.50230886  1
  Sc  Sc86  1  0.30200526  0.50758423  0.70691146  1
  Sc  Sc87  1  0.30444427  0.30504144  0.89930036  1
  Sc  Sc88  1  0.11136804  0.30377774  0.09515230  1
  Sc  Sc89  1  0.30812381  0.09850043  0.09744693  1
  Sc  Sc90  1  0.49714322  0.29793584  0.70439171  1
  Sc  Sc91  1  0.30272141  0.09638186  0.69724054  1
  Sc  Sc92  1  0.29786743  0.89725045  0.30275548  1
  Sc  Sc93  1  0.89516413  0.29740933  0.90318594  1
  Sc  Sc94  1  0.70699381  0.29614609  0.30134152  1
  Sc  Sc95  1  0.69514417  0.29440414  0.91065222  1
  Sc  Sc96  1  0.70523820  0.89528127  0.49761122  1
  Sc  Sc97  1  0.29763942  0.09916291  0.49897640  1
  Sc  Sc98  1  0.69024648  0.49589071  0.49907637  1
  Sc  Sc99  1  0.90013420  0.29232970  0.50378392  1
  Nb  Nb100  1  0.90387860  0.09720456  0.89588413  1
  Nb  Nb101  1  0.49251212  0.69385530  0.29851416  1
  Nb  Nb102  1  0.09947887  0.88905447  0.09808623  1
  Nb  Nb103  1  0.49691881  0.30067894  0.29912927  1
  Nb  Nb104  1  0.69871503  0.70145024  0.89855663  1
  Nb  Nb105  1  0.51154182  0.30291676  0.09967673  1
  Nb  Nb106  1  0.69773095  0.50148425  0.30278822  1
  Nb  Nb107  1  0.10114279  0.69916587  0.49880396  1
  Nb  Nb108  1  0.69109112  0.10209341  0.09922482  1
  Nb  Nb109  1  0.90099374  0.90131063  0.10527841  1
  Nb  Nb110  1  0.10722248  0.71304212  0.10254534  1
  Nb  Nb111  1  0.69819777  0.29636848  0.10092970  1
  Nb  Nb112  1  0.30382467  0.50546832  0.10475800  1
  Nb  Nb113  1  0.29759174  0.70335128  0.70274608  1
  Nb  Nb114  1  0.49816034  0.09968940  0.29932970  1
  Nb  Nb115  1  0.50861939  0.50546610  0.30516110  1
  Nb  Nb116  1  0.10477963  0.89941327  0.90627614  1
  Nb  Nb117  1  0.89782901  0.70224139  0.69340498  1
  Nb  Nb118  1  0.69562403  0.10162855  0.50381676  1
  Nb  Nb119  1  0.50083516  0.10275764  0.10520761  1
  Nb  Nb120  1  0.89685497  0.89068467  0.49791301  1
  Nb  Nb121  1  0.30540881  0.69870322  0.29616423  1
  Nb  Nb122  1  0.89681044  0.30160959  0.09933549  1
  Nb  Nb123  1  0.69979062  0.90304059  0.70082245  1
  Nb  Nb124  1  0.89797805  0.70634090  0.50401283  1
  Nb  Nb125  1  -0.00534693  0.40117900  0.79821819  1
  Nb  Nb126  1  0.80088293  0.59761235  0.39865474  1
  Nb  Nb127  1  0.60685658  0.40461692  0.80230061  1
  Nb  Nb128  1  0.79482509  0.79522682  0.79610589  1
  Nb  Nb129  1  -0.00300889  0.19627712  0.18911615  1
  Nb  Nb130  1  0.59807886  0.19968922  0.19994564  1
  Nb  Nb131  1  0.00205279  -0.00196918  0.00331421  1
  Nb  Nb132  1  -0.00156870  0.79406748  0.40293798  1
  Nb  Nb133  1  0.20365596  0.40155286  0.59997311  1
  Nb  Nb134  1  0.00224539  0.00061924  0.18876620  1
  Nb  Nb135  1  -0.00360621  0.60372098  0.40160486  1
  Nb  Nb136  1  0.80484543  0.40733339  0.39826687  1
  Nb  Nb137  1  0.19822760  0.19920572  0.80215531  1
  Nb  Nb138  1  0.59430979  0.60138366  0.59961985  1
  Nb  Nb139  1  0.59501961  0.19636434  0.39240667  1
  Nb  Nb140  1  0.79802914  0.40279558  0.79990470  1
  Nb  Nb141  1  -0.00375395  0.40699647  0.39496038  1
  Nb  Nb142  1  -0.00198229  0.39166914  0.19772683  1
  Nb  Nb143  1  0.59909112  0.00839376  0.20122425  1
  Nb  Nb144  1  -0.00585425  0.19218351  0.00538350  1
  Nb  Nb145  1  0.60501719  -0.00083529  0.60173838  1
  Nb  Nb146  1  0.40073649  0.80159510  -0.00134098  1
  Nb  Nb147  1  -0.01019365  -0.01015023  0.59272712  1
  Nb  Nb148  1  0.60113050  0.39592392  0.20327943  1
  Nb  Nb149  1  0.20095125  0.80070950  0.80505954  1
  Pd  Pd150  1  0.60152485  0.20515044  0.80727522  1
  Pd  Pd151  1  0.60148921  0.79620315  0.79349972  1
  Pd  Pd152  1  0.39696736  0.79679514  0.58956775  1
  Pd  Pd153  1  0.00070258  0.80234627  0.80058764  1
  Pd  Pd154  1  0.00486282  0.59757344  0.80255171  1
  Pd  Pd155  1  0.60160191  0.59527931  0.19472601  1
  Pd  Pd156  1  0.81058818  0.61019230  0.00085657  1
  Pd  Pd157  1  0.20939759  0.20454388  0.19845319  1
  Pd  Pd158  1  0.59883718  0.80748377  0.19114998  1
  Pd  Pd159  1  0.79932449  0.39278099  0.60187222  1
  Pd  Pd160  1  0.59776351  0.00418150  -0.00003467  1
  Pd  Pd161  1  0.19287053  0.60939093  0.80031289  1
  Pd  Pd162  1  0.00387093  0.39515085  0.59970809  1
  Pd  Pd163  1  0.39414347  0.40258193  0.60257576  1
  Pd  Pd164  1  0.80177558  0.19541520  -0.00229906  1
  Pd  Pd165  1  0.79855573  0.19298804  0.19787812  1
  Pd  Pd166  1  0.40754985  -0.00037159  0.59539892  1
  Pd  Pd167  1  0.59766029  0.40007161  0.60779799  1
  Pd  Pd168  1  0.19077688  0.00026320  0.60328668  1
  Pd  Pd169  1  0.39562442  -0.00713746  0.40499359  1
  Pd  Pd170  1  0.00371278  0.60554181  0.00990867  1
  Pd  Pd171  1  0.00322946  0.20390519  0.40235020  1
  Pd  Pd172  1  0.40455818  0.01173829  0.79840637  1
  Pd  Pd173  1  0.19340499  0.39957618  0.40750709  1
  Pd  Pd174  1  0.40132385  0.20371614  0.19674135  1
  Pd  Pd175  1  0.59922743  0.00948937  0.79689853  1
  Pd  Pd176  1  0.59370128  0.79338344  0.39481853  1
  Pd  Pd177  1  0.59952898  0.79952927  0.60008851  1
  Pd  Pd178  1  0.40430906  0.60166178  0.80388313  1
  Pd  Pd179  1  0.19496491  -0.00008977  0.78695976  1
  Pd  Pd180  1  0.81120082  0.79647618  -0.00800168  1
  Pd  Pd181  1  0.20411348  0.20335842  0.60648053  1
  Pd  Pd182  1  0.20090050  -0.00217702  0.19903554  1
  Pd  Pd183  1  0.39984954  0.20531728  0.00497959  1
  Pd  Pd184  1  0.40102551  0.19751599  0.59852209  1
  Pd  Pd185  1  0.79332943  0.39981636  -0.00956146  1
  Pd  Pd186  1  0.00894496  0.59548503  0.19769813  1
  Pd  Pd187  1  0.60362326  0.00455888  0.40069584  1
  Pd  Pd188  1  0.79819984  0.39855313  0.20565719  1
  Pd  Pd189  1  0.20401534  0.19860636  0.40088746  1
  Pd  Pd190  1  0.19051412  0.39440401  0.79278018  1
  Pd  Pd191  1  0.39097454  0.79858013  0.40292691  1
  Pd  Pd192  1  0.40058518  0.40458835  -0.00593024  1
  Pd  Pd193  1  0.00148719  -0.01160793  0.79663316  1
  Pd  Pd194  1  -0.01003829  0.80476418  -0.00079388  1
  Pd  Pd195  1  0.59315631  0.80010681  0.01073072  1
  Pd  Pd196  1  0.20805450  0.40691134  0.00210011  1
  Pd  Pd197  1  0.00095531  0.20757241  0.80712048  1
  Pd  Pd198  1  0.60662584  0.38749357  0.39548548  1
  Pd  Pd199  1  0.79101223  0.60273019  0.59019111  1
  Rh  Rh200  1  0.59018479  0.59903371  0.79227116  1
  Rh  Rh201  1  0.79650462  0.00348098  0.20441693  1
  Rh  Rh202  1  0.79080690  0.79641120  0.60705315  1
  Rh  Rh203  1  0.79769549  0.20452031  0.80571997  1
  Rh  Rh204  1  0.41311128  0.40588158  0.80681687  1
  Rh  Rh205  1  0.40135800  0.00013102  0.20384465  1
  Rh  Rh206  1  0.59774288  0.19605161  0.00257697  1
  Rh  Rh207  1  0.20775702  0.20989151  -0.00512053  1
  Rh  Rh208  1  0.20086631  0.59842124  0.00830384  1
  Rh  Rh209  1  -0.00121328  0.61157504  0.59568797  1
  Rh  Rh210  1  0.19848494  -0.00923137  0.00639404  1
  Rh  Rh211  1  0.80091319  0.79248213  0.39242098  1
  Rh  Rh212  1  0.79682726  -0.00933900  0.80593121  1
  Rh  Rh213  1  0.79269554  -0.00690337  0.40507602  1
  Rh  Rh214  1  0.20898710  0.79902602  0.20203861  1
  Rh  Rh215  1  0.20683718  0.00282233  0.40024113  1
  Rh  Rh216  1  0.00209785  -0.01356413  0.40267748  1
  Rh  Rh217  1  0.80239541  0.19622327  0.59810389  1
  Rh  Rh218  1  0.39326277  0.79620709  0.80960053  1
  Rh  Rh219  1  0.41045892  0.40645249  0.20718682  1
  Rh  Rh220  1  0.39496708  0.60140589  0.39358272  1
  Rh  Rh221  1  0.80405819  -0.00125776  -0.00991596  1
  Rh  Rh222  1  0.20085663  0.79422245  0.39599609  1
  Rh  Rh223  1  0.80810455  0.60520478  0.80456717  1
  Rh  Rh224  1  0.39683928  0.79671977  0.19701023  1
  Rh  Rh225  1  0.20320195  0.60085447  0.19549281  1
  Rh  Rh226  1  0.20325737  0.60648251  0.39290315  1
  Rh  Rh227  1  0.78985181  0.20714828  0.41048544  1
  Rh  Rh228  1  0.00065927  0.80713098  0.20575450  1
  Rh  Rh229  1  0.59172438  0.19182849  0.58991639  1
  Rh  Rh230  1  0.60599087  0.40432630  -0.00036280  1
  Rh  Rh231  1  0.00335363  0.79982493  0.59317542  1
  Rh  Rh232  1  0.59848306  0.60325076  0.01039162  1
  Rh  Rh233  1  0.40058874  0.59471648  0.20467157  1
  Rh  Rh234  1  0.20556495  0.60024417  0.60801955  1
  Rh  Rh235  1  0.60259340  0.60625098  0.40395187  1
  Rh  Rh236  1  0.39958105  0.60463105  0.00430904  1
  Rh  Rh237  1  0.40400841  0.40194869  0.39428045  1
  Rh  Rh238  1  0.19903643  0.40284799  0.19461822  1
  Rh  Rh239  1  0.19975333  0.79381294  0.60930014  1
  Rh  Rh240  1  -0.00020180  0.39193367  0.00157537  1
  Rh  Rh241  1  0.79517865  0.79915319  0.19656805  1
  Rh  Rh242  1  0.40047270  0.60683916  0.60132907  1
  Rh  Rh243  1  0.40431175  0.20257389  0.40106701  1
  Rh  Rh244  1  -0.00671914  0.18191512  0.59342666  1
  Rh  Rh245  1  0.39168826  0.19842199  0.80408589  1
  Rh  Rh246  1  0.21069852  0.80354598  -0.00283270  1
  Rh  Rh247  1  0.79598965  -0.00354331  0.59177375  1
  Rh  Rh248  1  0.79271026  0.60469810  0.19928824  1
  Rh  Rh249  1  0.40153329  0.00050494  -0.00078035  1
