# generated using pymatgen
data_ZrScNbPdRh
_symmetry_space_group_name_H-M   'P 1'
_cell_length_a   16.56321009
_cell_length_b   16.55400801
_cell_length_c   16.56281452
_cell_angle_alpha   90.00161486
_cell_angle_beta   89.97788152
_cell_angle_gamma   90.02071978
_symmetry_Int_Tables_number   1
_chemical_formula_structural   ZrScNbPdRh
_chemical_formula_sum   'Zr50 Sc50 Nb50 Pd50 Rh50'
_cell_volume   4541.31627836
_cell_formula_units_Z   50
loop_
 _symmetry_equiv_pos_site_id
 _symmetry_equiv_pos_as_xyz
  1  'x, y, z'
loop_
 _atom_site_type_symbol
 _atom_site_label
 _atom_site_symmetry_multiplicity
 _atom_site_fract_x
 _atom_site_fract_y
 _atom_site_fract_z
 _atom_site_occupancy
  Zr  Zr0  1  0.09537112  0.10424042  0.30836257  1
  Zr  Zr1  1  0.70189980  0.50633691  0.89447997  1
  Zr  Zr2  1  0.29664826  0.30304957  0.90201467  1
  Zr  Zr3  1  0.50774362  0.30636680  0.69371958  1
  Zr  Zr4  1  0.29868250  0.09886273  0.69059904  1
  Zr  Zr5  1  0.09849541  0.89512786  0.09222920  1
  Zr  Zr6  1  0.90605560  0.50432566  0.09681840  1
  Zr  Zr7  1  0.09843253  0.49825097  0.50493089  1
  Zr  Zr8  1  0.70054023  0.29742863  0.30338082  1
  Zr  Zr9  1  0.70047559  0.08805624  0.30196429  1
  Zr  Zr10  1  0.70002605  0.49291876  0.29826144  1
  Zr  Zr11  1  0.89826018  0.69381347  0.50122797  1
  Zr  Zr12  1  0.29963370  0.49549468  0.30746285  1
  Zr  Zr13  1  0.90962422  0.70690812  0.70157185  1
  Zr  Zr14  1  0.90374751  0.89579081  0.89611289  1
  Zr  Zr15  1  0.70438645  0.70149049  0.89935137  1
  Zr  Zr16  1  0.29397625  0.69510216  0.70907732  1
  Zr  Zr17  1  0.90791903  0.30049509  0.10382751  1
  Zr  Zr18  1  0.49996465  0.29672468  0.09871084  1
  Zr  Zr19  1  0.29889055  0.90704024  0.10183078  1
  Zr  Zr20  1  0.10391249  0.90821822  0.49326794  1
  Zr  Zr21  1  0.69845662  0.09644054  0.90900809  1
  Zr  Zr22  1  0.10534550  0.29790066  0.90203269  1
  Zr  Zr23  1  0.50940705  0.90104324  0.29022123  1
  Zr  Zr24  1  0.70169709  0.90209351  0.48389593  1
  Zr  Zr25  1  0.50026934  0.70337783  0.10587519  1
  Zr  Zr26  1  0.50108688  0.09971957  0.91229000  1
  Zr  Zr27  1  0.90665389  0.90576114  0.70489979  1
  Zr  Zr28  1  0.09448983  0.89525363  0.70660851  1
  Zr  Zr29  1  0.50262453  0.50012238  0.10274933  1
  Zr  Zr30  1  0.69563579  0.70941872  0.29871731  1
  Zr  Zr31  1  0.91005826  0.30688244  0.88795897  1
  Zr  Zr32  1  0.10108617  0.51030202  0.70158666  1
  Zr  Zr33  1  0.90127873  0.49976963  0.50688905  1
  Zr  Zr34  1  0.50381580  0.09720000  0.30023020  1
  Zr  Zr35  1  0.10149414  0.30334194  0.09564656  1
  Zr  Zr36  1  0.29239739  0.29683126  0.09919184  1
  Zr  Zr37  1  0.90287826  0.29922099  0.51502501  1
  Zr  Zr38  1  0.49746041  0.70176446  0.29931846  1
  Zr  Zr39  1  0.69462540  0.49533133  0.69787650  1
  Zr  Zr40  1  0.70619615  0.89684504  0.70913070  1
  Zr  Zr41  1  0.09812413  0.70027387  0.09433200  1
  Zr  Zr42  1  0.10164269  0.50099707  0.30391450  1
  Zr  Zr43  1  0.50318947  0.69649288  0.49974791  1
  Zr  Zr44  1  0.70278235  0.50101561  0.50874529  1
  Zr  Zr45  1  0.69384252  0.30176627  0.50330262  1
  Zr  Zr46  1  0.29873724  0.70254436  0.09753184  1
  Zr  Zr47  1  0.91236315  0.10214958  0.49647420  1
  Zr  Zr48  1  0.90306120  0.90177559  0.49776874  1
  Zr  Zr49  1  0.70390924  0.90083715  0.10470452  1
  Sc  Sc50  1  0.50508032  0.10313049  0.50068965  1
  Sc  Sc51  1  0.90057270  0.69608897  0.90445866  1
  Sc  Sc52  1  0.69663101  0.69578424  0.49955209  1
  Sc  Sc53  1  0.70274499  0.50773452  0.10319117  1
  Sc  Sc54  1  0.29947010  0.50355532  0.08484540  1
  Sc  Sc55  1  0.69484528  0.29455217  0.88413402  1
  Sc  Sc56  1  0.89847550  0.69771655  0.09969949  1
  Sc  Sc57  1  0.50860214  0.30411422  0.30448739  1
  Sc  Sc58  1  0.49778201  0.30313328  0.89109874  1
  Sc  Sc59  1  0.70064722  0.69089064  0.70269860  1
  Sc  Sc60  1  0.49827623  0.08480431  0.10326868  1
  Sc  Sc61  1  0.90070146  0.49325285  0.70251231  1
  Sc  Sc62  1  0.70504502  0.11406070  0.70694545  1
  Sc  Sc63  1  0.07674931  0.29910144  0.70546993  1
  Sc  Sc64  1  0.70186121  0.30201622  0.10774783  1
  Sc  Sc65  1  0.90138514  0.49670377  0.29137135  1
  Sc  Sc66  1  0.10285698  0.70379019  0.89901731  1
  Sc  Sc67  1  0.11045904  0.29877618  0.29503938  1
  Sc  Sc68  1  0.50035835  0.50310732  0.30468074  1
  Sc  Sc69  1  0.90180842  0.09992904  0.28727896  1
  Sc  Sc70  1  0.28532217  0.90234700  0.90423257  1
  Sc  Sc71  1  0.70593201  0.89504965  0.90434480  1
  Sc  Sc72  1  0.70429466  0.90053340  0.29721849  1
  Sc  Sc73  1  0.28463469  0.89347513  0.29733795  1
  Sc  Sc74  1  0.29613781  0.10356235  0.28824994  1
  Sc  Sc75  1  0.29523971  0.90515686  0.50654650  1
  Sc  Sc76  1  0.30746741  0.50728185  0.69874096  1
  Sc  Sc77  1  0.29900219  0.90205094  0.69756232  1
  Sc  Sc78  1  0.90572881  0.90504578  0.09828567  1
  Sc  Sc79  1  0.09414035  0.09220363  0.10559244  1
  Sc  Sc80  1  0.49312790  0.49931754  0.89269326  1
  Sc  Sc81  1  0.89690076  0.69774512  0.28894422  1
  Sc  Sc82  1  0.49551591  0.49979983  0.69875488  1
  Sc  Sc83  1  0.50334183  0.70428037  0.89488997  1
  Sc  Sc84  1  0.10193273  0.09777955  0.70141648  1
  Sc  Sc85  1  0.29713184  0.29771596  0.50168791  1
  Sc  Sc86  1  0.48751082  0.89601380  0.70108678  1
  Sc  Sc87  1  0.49199380  0.90211182  0.50622122  1
  Sc  Sc88  1  0.31759248  0.29787684  0.69962658  1
  Sc  Sc89  1  0.70294199  0.69937522  0.09816672  1
  Sc  Sc90  1  0.09662342  0.49758186  0.09724563  1
  Sc  Sc91  1  0.09914643  0.90286643  0.28941627  1
  Sc  Sc92  1  0.49194836  0.10585084  0.69278559  1
  Sc  Sc93  1  0.09736687  0.68709766  0.50051904  1
  Sc  Sc94  1  0.90264805  0.29815903  0.29314606  1
  Sc  Sc95  1  0.90219198  0.08508504  0.89753618  1
  Sc  Sc96  1  0.49043486  0.69802821  0.70000439  1
  Sc  Sc97  1  0.09341848  0.50332498  0.90489153  1
  Sc  Sc98  1  0.30497941  0.49760885  0.50366587  1
  Sc  Sc99  1  0.29601516  0.69608016  0.50149840  1
  Nb  Nb100  1  0.10699605  0.10088211  0.90057419  1
  Nb  Nb101  1  0.71063960  0.09992884  0.10346971  1
  Nb  Nb102  1  0.11208094  0.70743847  0.30308926  1
  Nb  Nb103  1  0.29617023  0.10093900  0.50158220  1
  Nb  Nb104  1  0.89684670  0.10299304  0.09892943  1
  Nb  Nb105  1  0.70313600  0.30419757  0.69768988  1
  Nb  Nb106  1  0.89019863  0.28758661  0.69685418  1
  Nb  Nb107  1  0.30335856  0.29929554  0.29730628  1
  Nb  Nb108  1  0.29736996  0.50291398  0.89588984  1
  Nb  Nb109  1  0.09127791  0.90807262  0.90268054  1
  Nb  Nb110  1  0.29191021  0.10636550  0.89809590  1
  Nb  Nb111  1  0.89826689  0.49823782  0.90665835  1
  Nb  Nb112  1  0.69982591  0.09427011  0.48994642  1
  Nb  Nb113  1  0.29762860  0.69209287  0.90547873  1
  Nb  Nb114  1  0.30693853  0.09899748  0.09555892  1
  Nb  Nb115  1  0.49848359  0.29837290  0.50265869  1
  Nb  Nb116  1  0.29529750  0.70264477  0.29956286  1
  Nb  Nb117  1  0.11411999  0.11078105  0.50034994  1
  Nb  Nb118  1  0.10289741  0.69788678  0.70020544  1
  Nb  Nb119  1  0.09750416  0.29355346  0.50225495  1
  Nb  Nb120  1  0.49643205  0.90493387  0.90487784  1
  Nb  Nb121  1  0.89510595  0.89724303  0.29907421  1
  Nb  Nb122  1  0.90209714  0.10393495  0.69379404  1
  Nb  Nb123  1  0.49845695  0.50030600  0.51080623  1
  Nb  Nb124  1  0.49384122  0.90108903  0.09630814  1
  Nb  Nb125  1  0.60490384  0.19279810  0.19953412  1
  Nb  Nb126  1  0.39492201  0.39564131  0.20094554  1
  Nb  Nb127  1  0.39250628  0.19512776  0.00056619  1
  Nb  Nb128  1  0.39494924  0.00248140  0.39709165  1
  Nb  Nb129  1  0.59285085  -0.00114905  0.80054735  1
  Nb  Nb130  1  -0.00099791  0.19460568  -0.00234668  1
  Nb  Nb131  1  0.20137256  0.40307311  0.79661846  1
  Nb  Nb132  1  0.60597749  0.40153366  -0.00284685  1
  Nb  Nb133  1  0.79983587  0.39756336  -0.00538880  1
  Nb  Nb134  1  0.79887355  0.80652949  0.59920880  1
  Nb  Nb135  1  0.79800380  0.19713031  0.40394022  1
  Nb  Nb136  1  0.39805628  0.00528591  0.81086508  1
  Nb  Nb137  1  0.80642125  0.20258830  0.00134865  1
  Nb  Nb138  1  0.20175952  0.60529009  0.20452931  1
  Nb  Nb139  1  0.79948971  0.00372122  0.59830765  1
  Nb  Nb140  1  0.39651048  0.19980527  0.39914117  1
  Nb  Nb141  1  0.79770785  0.59517858  0.39742627  1
  Nb  Nb142  1  0.19157968  0.79467368  0.60541127  1
  Nb  Nb143  1  0.19434224  0.39707524  0.60697712  1
  Nb  Nb144  1  0.00477433  0.39576597  0.40628682  1
  Nb  Nb145  1  0.39580180  0.80148249  0.39549504  1
  Nb  Nb146  1  0.60605195  0.80574554  0.60156541  1
  Nb  Nb147  1  0.40050451  0.80554785  -0.00068934  1
  Nb  Nb148  1  0.61041738  -0.00279238  0.60521917  1
  Nb  Nb149  1  0.00323490  0.79671808  0.39344191  1
  Pd  Pd150  1  0.59516348  0.80447295  0.79480103  1
  Pd  Pd151  1  0.79950172  0.39949333  0.79852124  1
  Pd  Pd152  1  0.19721347  0.00619833  0.00365786  1
  Pd  Pd153  1  0.00673920  0.00790107  0.60013848  1
  Pd  Pd154  1  0.19978390  0.21134111  0.78603609  1
  Pd  Pd155  1  0.40490603  0.39525507  0.00109513  1
  Pd  Pd156  1  0.39213209  0.79373921  0.59276803  1
  Pd  Pd157  1  0.79498509  0.00814101  0.79654559  1
  Pd  Pd158  1  0.60593939  0.19308004  0.60143018  1
  Pd  Pd159  1  0.19594232  0.39116233  0.41015387  1
  Pd  Pd160  1  0.40857931  0.20302396  0.20095579  1
  Pd  Pd161  1  0.59143123  0.59989654  0.79591774  1
  Pd  Pd162  1  0.80849744  0.79986870  0.00488084  1
  Pd  Pd163  1  0.19632641  0.00531876  0.19918737  1
  Pd  Pd164  1  -0.00192388  -0.00585539  0.38887579  1
  Pd  Pd165  1  0.01014013  0.60510903  0.20389336  1
  Pd  Pd166  1  0.20693103  0.00613166  0.39336199  1
  Pd  Pd167  1  0.20237417  -0.00118049  0.79585244  1
  Pd  Pd168  1  0.19582187  0.21251700  0.61166769  1
  Pd  Pd169  1  0.39703422  0.60526049  0.40401586  1
  Pd  Pd170  1  0.81248119  0.39709981  0.40227987  1
  Pd  Pd171  1  0.40357474  0.19472926  0.80614074  1
  Pd  Pd172  1  0.60398464  0.60256017  0.20346525  1
  Pd  Pd173  1  0.20490168  0.60019666  0.40212894  1
  Pd  Pd174  1  0.20623534  0.41189604  0.19319092  1
  Pd  Pd175  1  0.59135385  0.19361091  0.79375467  1
  Pd  Pd176  1  -0.00498796  0.20991618  0.39543517  1
  Pd  Pd177  1  0.39037122  0.58974374  0.20102425  1
  Pd  Pd178  1  0.80231029  0.40231020  0.19181089  1
  Pd  Pd179  1  -0.00341068  0.18742189  0.80518957  1
  Pd  Pd180  1  0.59296149  0.40752455  0.40870062  1
  Pd  Pd181  1  -0.00227831  0.79952024  0.20291553  1
  Pd  Pd182  1  0.19965745  0.80210044  0.80318147  1
  Pd  Pd183  1  0.40973847  0.60762435  -0.00622358  1
  Pd  Pd184  1  0.80791108  0.78938251  0.39949511  1
  Pd  Pd185  1  0.00531375  0.79677445  0.58796489  1
  Pd  Pd186  1  0.19384161  0.19252666  0.19524663  1
  Pd  Pd187  1  0.59571569  0.80268678  0.00316757  1
  Pd  Pd188  1  0.60568790  0.20722225  0.00838246  1
  Pd  Pd189  1  0.39473320  0.80744215  0.20151073  1
  Pd  Pd190  1  -0.00818349  0.60076935  0.38879731  1
  Pd  Pd191  1  0.40545610  0.39283413  0.40118361  1
  Pd  Pd192  1  0.59545757  0.59649873  -0.00445004  1
  Pd  Pd193  1  0.38979600  0.80669038  0.81237867  1
  Pd  Pd194  1  0.60718250  -0.00859549  0.00338228  1
  Pd  Pd195  1  -0.00333483  0.60002265  0.80623336  1
  Pd  Pd196  1  0.60584803  0.59196795  0.39960981  1
  Pd  Pd197  1  0.80925301  0.60187460  0.79431779  1
  Pd  Pd198  1  0.79045856  0.19212525  0.59154116  1
  Pd  Pd199  1  0.80696794  0.19394745  0.80975373  1
  Rh  Rh200  1  0.80168052  0.60522808  0.60257947  1
  Rh  Rh201  1  0.60006758  0.20062701  0.39674384  1
  Rh  Rh202  1  0.79359685  0.19765946  0.20458329  1
  Rh  Rh203  1  0.20223360  0.80076382  -0.00385990  1
  Rh  Rh204  1  0.59987574  0.40154856  0.80089085  1
  Rh  Rh205  1  -0.00359438  0.39551877  -0.00243784  1
  Rh  Rh206  1  0.80151712  0.39752580  0.60839595  1
  Rh  Rh207  1  0.59468264  0.60508798  0.60576589  1
  Rh  Rh208  1  0.59663606  0.40207416  0.59717213  1
  Rh  Rh209  1  0.19873810  0.79721379  0.41434350  1
  Rh  Rh210  1  0.58580180  0.80648595  0.40794144  1
  Rh  Rh211  1  0.00756371  0.19248605  0.60406574  1
  Rh  Rh212  1  0.58498740  -0.00815003  0.40899723  1
  Rh  Rh213  1  0.00559960  0.00664826  0.80009859  1
  Rh  Rh214  1  0.40327240  0.00783073  0.59760172  1
  Rh  Rh215  1  -0.00213046  0.79959875  -0.00412039  1
  Rh  Rh216  1  0.80419278  0.79071363  0.79919869  1
  Rh  Rh217  1  0.00248534  0.39874251  0.60279627  1
  Rh  Rh218  1  0.80356522  0.00099364  0.00307064  1
  Rh  Rh219  1  0.19896385  0.59582418  0.80753222  1
  Rh  Rh220  1  0.00785391  0.39841061  0.20982693  1
  Rh  Rh221  1  0.19790782  0.41075180  -0.00945183  1
  Rh  Rh222  1  0.00481646  0.79502968  0.80947723  1
  Rh  Rh223  1  0.00067097  0.00510552  -0.00121292  1
  Rh  Rh224  1  0.38954098  0.00007118  -0.00705247  1
  Rh  Rh225  1  0.39936254  0.60251499  0.80497463  1
  Rh  Rh226  1  0.19635326  0.79569570  0.19041278  1
  Rh  Rh227  1  0.39281234  0.40524743  0.79662806  1
  Rh  Rh228  1  0.40123934  0.20086064  0.58694647  1
  Rh  Rh229  1  0.20403921  0.59855854  0.59951414  1
  Rh  Rh230  1  0.19691230  0.18789036  0.00957649  1
  Rh  Rh231  1  0.19482591  0.59908219  0.00090704  1
  Rh  Rh232  1  0.80253867  0.80167060  0.19499212  1
  Rh  Rh233  1  0.80744311  -0.00607358  0.19924744  1
  Rh  Rh234  1  0.39328678  -0.00630901  0.20978566  1
  Rh  Rh235  1  0.20765457  0.20176766  0.39858199  1
  Rh  Rh236  1  0.00548061  0.41027318  0.79982751  1
  Rh  Rh237  1  0.60352597  0.80137514  0.19121630  1
  Rh  Rh238  1  -0.00102981  0.60333006  -0.00231577  1
  Rh  Rh239  1  0.79247630  0.60159799  0.20690170  1
  Rh  Rh240  1  0.00841902  0.20064362  0.19368875  1
  Rh  Rh241  1  0.80171825  0.59515656  0.00079291  1
  Rh  Rh242  1  0.60567927  0.00135479  0.18941331  1
  Rh  Rh243  1  0.81518682  0.01039040  0.39793623  1
  Rh  Rh244  1  0.39752252  0.39884039  0.59683631  1
  Rh  Rh245  1  0.19354981  -0.00607035  0.60332971  1
  Rh  Rh246  1  -0.00387353  0.60006804  0.60888666  1
  Rh  Rh247  1  0.39951221  0.60289230  0.59872979  1
  Rh  Rh248  1  -0.00424725  -0.00221848  0.20087060  1
  Rh  Rh249  1  0.59152915  0.39483034  0.19184385  1
