# generated using pymatgen
data_ZrScNbPdRh
_symmetry_space_group_name_H-M   'P 1'
_cell_length_a   16.56112676
_cell_length_b   16.56559121
_cell_length_c   16.56107612
_cell_angle_alpha   90.00075249
_cell_angle_beta   90.02504607
_cell_angle_gamma   90.01384573
_symmetry_Int_Tables_number   1
_chemical_formula_structural   ZrScNbPdRh
_chemical_formula_sum   'Zr50 Sc50 Nb50 Pd50 Rh50'
_cell_volume   4543.44547530
_cell_formula_units_Z   50
loop_
 _symmetry_equiv_pos_site_id
 _symmetry_equiv_pos_as_xyz
  1  'x, y, z'
loop_
 _atom_site_type_symbol
 _atom_site_label
 _atom_site_symmetry_multiplicity
 _atom_site_fract_x
 _atom_site_fract_y
 _atom_site_fract_z
 _atom_site_occupancy
  Zr  Zr0  1  0.10598775  0.89968792  0.69863527  1
  Zr  Zr1  1  0.89943823  0.10125913  0.30046532  1
  Zr  Zr2  1  0.49989823  0.90216681  0.70726311  1
  Zr  Zr3  1  0.91946728  0.10661649  0.69817139  1
  Zr  Zr4  1  0.88883357  0.10965451  0.10977890  1
  Zr  Zr5  1  0.89400292  0.69788872  0.90129394  1
  Zr  Zr6  1  0.09299664  0.89481495  0.09725842  1
  Zr  Zr7  1  0.90079199  0.29885846  0.69497940  1
  Zr  Zr8  1  0.70979257  0.09227919  0.69794007  1
  Zr  Zr9  1  0.49346167  0.30055850  0.30899836  1
  Zr  Zr10  1  0.10164787  0.70548742  0.68884872  1
  Zr  Zr11  1  0.88868182  0.50207062  0.89797365  1
  Zr  Zr12  1  0.30019515  0.49522118  0.50647563  1
  Zr  Zr13  1  0.89517206  0.91214653  0.70520234  1
  Zr  Zr14  1  0.69800120  0.29860227  0.70303876  1
  Zr  Zr15  1  0.90451977  0.69413446  0.49599867  1
  Zr  Zr16  1  0.30780579  0.30019545  0.49304209  1
  Zr  Zr17  1  0.29506100  0.69635429  0.29302313  1
  Zr  Zr18  1  0.10440158  0.71220333  0.90518817  1
  Zr  Zr19  1  0.30388795  0.49324864  0.89481310  1
  Zr  Zr20  1  0.49868002  0.09353322  0.70389151  1
  Zr  Zr21  1  0.69932150  0.90144828  0.69259393  1
  Zr  Zr22  1  0.29532535  0.29924919  0.29632562  1
  Zr  Zr23  1  0.10711317  0.70184423  0.11146878  1
  Zr  Zr24  1  0.10497041  0.69611730  0.30485999  1
  Zr  Zr25  1  0.50045087  0.70691515  0.90742772  1
  Zr  Zr26  1  0.10303744  0.11239762  0.29517661  1
  Zr  Zr27  1  0.11092380  0.29604493  0.90258092  1
  Zr  Zr28  1  0.89410265  0.30129769  0.09896882  1
  Zr  Zr29  1  0.30593268  0.10233815  0.50420385  1
  Zr  Zr30  1  0.89552598  0.88617810  0.49636443  1
  Zr  Zr31  1  0.89225170  0.90215342  0.30037177  1
  Zr  Zr32  1  0.90003157  0.49620232  0.09180637  1
  Zr  Zr33  1  0.30172344  0.30340538  0.90585153  1
  Zr  Zr34  1  0.10300006  0.89141221  0.29992072  1
  Zr  Zr35  1  0.69432215  0.29558269  0.49756119  1
  Zr  Zr36  1  0.09295072  0.29024928  0.70428289  1
  Zr  Zr37  1  0.09908474  0.30421667  0.10917517  1
  Zr  Zr38  1  0.49876383  0.90052598  0.90660947  1
  Zr  Zr39  1  0.10194406  0.49442404  0.90434996  1
  Zr  Zr40  1  0.30615724  0.50083369  0.30523651  1
  Zr  Zr41  1  0.69381161  0.09642481  0.49726472  1
  Zr  Zr42  1  0.69181683  0.30397431  0.31058181  1
  Zr  Zr43  1  0.49176280  0.50150995  0.69815218  1
  Zr  Zr44  1  0.49718299  0.50506591  0.29959057  1
  Zr  Zr45  1  0.90763405  0.49896641  0.49903533  1
  Zr  Zr46  1  0.90540916  0.10483529  0.50551312  1
  Zr  Zr47  1  0.09437175  0.69757843  0.49828142  1
  Zr  Zr48  1  0.49552290  0.29364628  0.09466252  1
  Zr  Zr49  1  0.69733574  0.68289477  0.29184981  1
  Sc  Sc50  1  0.69569034  0.69043158  0.69851426  1
  Sc  Sc51  1  0.69299153  0.10620793  0.10537217  1
  Sc  Sc52  1  0.30373947  0.89836559  0.11025124  1
  Sc  Sc53  1  0.29895823  0.30761388  0.69958314  1
  Sc  Sc54  1  0.90175360  0.49237451  0.70508983  1
  Sc  Sc55  1  0.09829607  0.10192163  0.88716392  1
  Sc  Sc56  1  0.49675938  0.50398128  0.10198795  1
  Sc  Sc57  1  0.50523044  0.49628153  0.89702337  1
  Sc  Sc58  1  0.69425770  0.30771810  0.90267749  1
  Sc  Sc59  1  0.50031792  0.70414611  0.09693458  1
  Sc  Sc60  1  0.88931172  0.51238958  0.30672310  1
  Sc  Sc61  1  0.10384487  0.90706157  0.90187171  1
  Sc  Sc62  1  0.90480633  0.28774048  0.29004812  1
  Sc  Sc63  1  0.90814962  0.90251526  0.90531946  1
  Sc  Sc64  1  0.11062716  0.09657459  0.09299050  1
  Sc  Sc65  1  0.90156674  0.69446914  0.69053094  1
  Sc  Sc66  1  0.69529410  0.90964402  0.31296364  1
  Sc  Sc67  1  0.10522855  0.50022129  0.49974007  1
  Sc  Sc68  1  0.10844047  0.50291956  0.29659651  1
  Sc  Sc69  1  0.70220937  0.29318484  0.08958817  1
  Sc  Sc70  1  0.69192839  0.70470906  0.50163752  1
  Sc  Sc71  1  0.09791087  0.48913056  0.68923713  1
  Sc  Sc72  1  0.30295972  0.90029017  0.70136749  1
  Sc  Sc73  1  0.70390595  0.90256852  0.90476798  1
  Sc  Sc74  1  0.69852242  0.10758033  0.90550989  1
  Sc  Sc75  1  0.30185768  0.70273856  0.69898884  1
  Sc  Sc76  1  0.69220359  0.50560340  0.71106835  1
  Sc  Sc77  1  0.69317719  0.91003623  0.10191028  1
  Sc  Sc78  1  0.09683742  0.49892171  0.10271902  1
  Sc  Sc79  1  0.11162324  0.30329604  0.50447511  1
  Sc  Sc80  1  0.30011967  0.10398793  0.11036283  1
  Sc  Sc81  1  0.90340512  0.70027760  0.30716270  1
  Sc  Sc82  1  0.28830961  0.10691308  0.90852946  1
  Sc  Sc83  1  0.30445082  0.49282997  0.10811875  1
  Sc  Sc84  1  0.30997312  0.89976027  0.30138454  1
  Sc  Sc85  1  0.49271038  0.69509612  0.30406593  1
  Sc  Sc86  1  0.30249982  0.88822540  0.89500669  1
  Sc  Sc87  1  0.10430207  0.88572061  0.50568982  1
  Sc  Sc88  1  0.89903632  0.29394655  0.49953481  1
  Sc  Sc89  1  0.90475732  0.09373730  0.88967340  1
  Sc  Sc90  1  0.69144601  0.51439201  0.09533196  1
  Sc  Sc91  1  0.88664569  0.30932654  0.90185715  1
  Sc  Sc92  1  0.90761559  0.70404450  0.09576266  1
  Sc  Sc93  1  0.30707438  0.89881537  0.49249704  1
  Sc  Sc94  1  0.50834080  0.90032623  0.48445835  1
  Sc  Sc95  1  0.49960868  0.09675257  0.29868113  1
  Sc  Sc96  1  0.69794310  0.49503602  0.47740803  1
  Sc  Sc97  1  0.29251461  0.69840409  0.49355829  1
  Sc  Sc98  1  0.69962439  0.09975645  0.29684399  1
  Sc  Sc99  1  0.50788065  0.68532801  0.69532047  1
  Nb  Nb100  1  0.30118767  0.69873758  0.09772651  1
  Nb  Nb101  1  0.49400835  0.50375279  0.50237314  1
  Nb  Nb102  1  0.49871941  0.10285930  0.90349986  1
  Nb  Nb103  1  0.70396428  0.51353186  0.89816436  1
  Nb  Nb104  1  0.49853049  0.29426580  0.89537167  1
  Nb  Nb105  1  0.09888103  0.30296105  0.29955059  1
  Nb  Nb106  1  0.69811838  0.69493352  0.90310707  1
  Nb  Nb107  1  0.30371192  0.09524329  0.69524211  1
  Nb  Nb108  1  0.69171665  0.70738924  0.09556742  1
  Nb  Nb109  1  0.49809909  0.68961083  0.50688648  1
  Nb  Nb110  1  0.49852643  0.90378799  0.29310736  1
  Nb  Nb111  1  0.29870030  0.09785627  0.30332168  1
  Nb  Nb112  1  0.50105699  0.90495603  0.10366125  1
  Nb  Nb113  1  0.30319130  0.50367716  0.70260075  1
  Nb  Nb114  1  0.50396615  0.29991614  0.70485012  1
  Nb  Nb115  1  0.29955821  0.70158220  0.90165083  1
  Nb  Nb116  1  0.69488145  0.49861059  0.29191966  1
  Nb  Nb117  1  0.50010169  0.29858480  0.49889638  1
  Nb  Nb118  1  0.49298258  0.10832107  0.49658380  1
  Nb  Nb119  1  0.50282899  0.09296033  0.09975393  1
  Nb  Nb120  1  0.89734692  0.90426038  0.10241281  1
  Nb  Nb121  1  0.10566923  0.09552252  0.68917273  1
  Nb  Nb122  1  0.29899037  0.30020984  0.09717057  1
  Nb  Nb123  1  0.10457262  0.09483882  0.50616999  1
  Nb  Nb124  1  0.69808849  0.89983489  0.50101502  1
  Nb  Nb125  1  0.60127949  0.40002840  0.20137380  1
  Nb  Nb126  1  0.59412754  0.39751347  0.59569868  1
  Nb  Nb127  1  -0.00222579  0.20274363  0.00093987  1
  Nb  Nb128  1  0.79740555  0.58901479  0.59378271  1
  Nb  Nb129  1  0.59949183  0.80388913  0.20229760  1
  Nb  Nb130  1  0.19707201  0.00683153  0.40056864  1
  Nb  Nb131  1  0.00726194  0.00238006  0.40055666  1
  Nb  Nb132  1  0.79111839  0.40451678  0.20099826  1
  Nb  Nb133  1  0.79808752  0.79621876  0.80086779  1
  Nb  Nb134  1  0.41057826  0.79487389  0.59415184  1
  Nb  Nb135  1  0.40631685  0.00262868  0.00476814  1
  Nb  Nb136  1  0.60621757  0.79736105  0.80406795  1
  Nb  Nb137  1  -0.00258406  0.79752020  0.79785279  1
  Nb  Nb138  1  0.79097864  0.79965142  0.19580054  1
  Nb  Nb139  1  0.19977862  0.59973528  0.80233516  1
  Nb  Nb140  1  0.39172976  0.60461418  -0.00396032  1
  Nb  Nb141  1  0.40374142  0.19960368  0.80102677  1
  Nb  Nb142  1  0.79079815  0.40209849  0.59772415  1
  Nb  Nb143  1  0.00803014  0.60303918  0.80227755  1
  Nb  Nb144  1  0.00525883  0.39452268  0.39258690  1
  Nb  Nb145  1  0.20751089  0.60233137  -0.00203636  1
  Nb  Nb146  1  -0.00166777  0.00001469  0.20234913  1
  Nb  Nb147  1  0.80519331  0.00416859  0.00739836  1
  Nb  Nb148  1  0.80120115  0.19893004  0.79474452  1
  Nb  Nb149  1  0.59078683  0.19960013  0.60092608  1
  Pd  Pd150  1  0.19701877  -0.00470691  0.20599857  1
  Pd  Pd151  1  0.60001821  0.40503142  0.80070795  1
  Pd  Pd152  1  0.00962793  0.20319567  0.40836638  1
  Pd  Pd153  1  -0.01080617  0.80127986  0.20461056  1
  Pd  Pd154  1  0.78480436  0.79070122  0.39136820  1
  Pd  Pd155  1  0.20684353  0.80628935  0.00711726  1
  Pd  Pd156  1  0.80585167  0.60344636  0.18803001  1
  Pd  Pd157  1  0.59763923  0.20728849  0.20186875  1
  Pd  Pd158  1  0.39980788  0.60622648  0.80460894  1
  Pd  Pd159  1  0.60809330  -0.00290655  0.80959549  1
  Pd  Pd160  1  0.00063089  -0.01118360  0.59162074  1
  Pd  Pd161  1  0.20108195  0.19880366  0.40336239  1
  Pd  Pd162  1  0.59331714  0.80126739  0.60520292  1
  Pd  Pd163  1  0.59953829  0.79417706  0.39153451  1
  Pd  Pd164  1  0.40041172  0.19769896  0.20311472  1
  Pd  Pd165  1  0.20332389  0.59901298  0.60501385  1
  Pd  Pd166  1  -0.01374316  0.41243748  0.21242752  1
  Pd  Pd167  1  0.01034095  0.60459080  -0.00253658  1
  Pd  Pd168  1  -0.00509618  0.59582713  0.20503714  1
  Pd  Pd169  1  0.40631058  0.40627180  0.00181381  1
  Pd  Pd170  1  0.79725730  0.60426716  0.01014476  1
  Pd  Pd171  1  -0.00595652  0.01343429  0.00933112  1
  Pd  Pd172  1  0.58824314  0.00247610  0.59088647  1
  Pd  Pd173  1  0.60033736  0.40392871  0.00458861  1
  Pd  Pd174  1  0.20310395  0.40392841  0.20117458  1
  Pd  Pd175  1  0.60263399  0.19428077  0.79925789  1
  Pd  Pd176  1  0.21475320  -0.00957145  0.00081587  1
  Pd  Pd177  1  0.00032252  0.39939096  0.80716255  1
  Pd  Pd178  1  0.80661937  0.00007216  0.58881554  1
  Pd  Pd179  1  0.20540767  0.00314501  0.80118326  1
  Pd  Pd180  1  0.20403603  0.20491036  0.60515491  1
  Pd  Pd181  1  0.20845721  -0.00959796  0.59315565  1
  Pd  Pd182  1  0.79840278  0.19867166  0.39714635  1
  Pd  Pd183  1  0.81275675  0.39374633  0.39398636  1
  Pd  Pd184  1  0.60347876  0.00461737  -0.00205935  1
  Pd  Pd185  1  0.38622667  0.01008357  0.81491620  1
  Pd  Pd186  1  0.40759067  -0.01284387  0.59190574  1
  Pd  Pd187  1  0.79698604  0.80794995  0.00285414  1
  Pd  Pd188  1  0.00085186  0.39088240  -0.00601796  1
  Pd  Pd189  1  0.40198387  0.20591436  0.61143959  1
  Pd  Pd190  1  0.40354234  0.39437037  0.60263543  1
  Pd  Pd191  1  0.80452829  0.00461722  0.40927211  1
  Pd  Pd192  1  0.59830558  0.60055413  0.40256774  1
  Pd  Pd193  1  0.21088529  0.19430367  0.78814213  1
  Pd  Pd194  1  0.79844141  0.79037270  0.60522829  1
  Pd  Pd195  1  0.41018981  0.78863011  0.78898289  1
  Pd  Pd196  1  0.39701907  0.19167417  -0.00132016  1
  Pd  Pd197  1  0.19779390  0.40429492  0.79026819  1
  Pd  Pd198  1  0.40686497  0.79502076  0.19863691  1
  Pd  Pd199  1  0.40469359  0.79277408  0.40276592  1
  Rh  Rh200  1  0.59445853  0.19048851  0.40176208  1
  Rh  Rh201  1  0.78953513  0.39871955  0.79633483  1
  Rh  Rh202  1  0.40104660  0.40394213  0.40229275  1
  Rh  Rh203  1  0.19715757  0.40071476  0.39639081  1
  Rh  Rh204  1  0.79062289  0.20341231  0.60562396  1
  Rh  Rh205  1  -0.00171795  0.80182132  -0.00284186  1
  Rh  Rh206  1  0.59314632  0.60491897  0.81162683  1
  Rh  Rh207  1  0.39852237  0.00550738  0.39569270  1
  Rh  Rh208  1  0.78574345  0.41245686  0.00689894  1
  Rh  Rh209  1  0.58415892  0.40875460  0.39940527  1
  Rh  Rh210  1  0.00371153  0.80270553  0.39828764  1
  Rh  Rh211  1  0.79337879  0.60685221  0.40758776  1
  Rh  Rh212  1  -0.00431587  0.39276402  0.58787612  1
  Rh  Rh213  1  0.79548531  0.00065956  0.81087494  1
  Rh  Rh214  1  0.39726139  0.19507405  0.39272960  1
  Rh  Rh215  1  0.40301489  0.39225006  0.79784100  1
  Rh  Rh216  1  0.39967548  0.60586027  0.19146652  1
  Rh  Rh217  1  0.38896694  0.60703120  0.59685624  1
  Rh  Rh218  1  0.40182991  0.00568283  0.19811392  1
  Rh  Rh219  1  0.19480132  0.79683595  0.79454554  1
  Rh  Rh220  1  0.59457542  0.00526399  0.39953186  1
  Rh  Rh221  1  0.81148613  0.18932138  -0.01471956  1
  Rh  Rh222  1  0.20578451  0.59398774  0.19210387  1
  Rh  Rh223  1  0.60452049  0.80604105  0.00108661  1
  Rh  Rh224  1  0.39477024  0.80535595  0.00853131  1
  Rh  Rh225  1  0.20306029  0.40381926  0.01134142  1
  Rh  Rh226  1  0.20357159  0.80407134  0.39812590  1
  Rh  Rh227  1  0.20317127  0.20477177  0.19660859  1
  Rh  Rh228  1  0.01354736  0.20415434  0.59097311  1
  Rh  Rh229  1  0.20169200  0.59499813  0.40129785  1
  Rh  Rh230  1  0.61122578  0.58183048  0.58764316  1
  Rh  Rh231  1  0.01281542  -0.00728849  0.79343533  1
  Rh  Rh232  1  -0.01002034  0.80694436  0.60781482  1
  Rh  Rh233  1  0.59090904  0.59957431  -0.00305360  1
  Rh  Rh234  1  0.58981307  0.60329988  0.19393983  1
  Rh  Rh235  1  0.19465410  0.20525246  0.00957530  1
  Rh  Rh236  1  0.80735251  0.60492878  0.79019545  1
  Rh  Rh237  1  0.01033795  0.59002128  0.39473073  1
  Rh  Rh238  1  0.39474518  0.60164086  0.40805100  1
  Rh  Rh239  1  -0.00796025  0.21152369  0.81339250  1
  Rh  Rh240  1  0.01074705  0.19127504  0.18642369  1
  Rh  Rh241  1  0.21921651  0.80415364  0.59750490  1
  Rh  Rh242  1  0.79756674  -0.00623762  0.19573740  1
  Rh  Rh243  1  0.20452202  0.39805248  0.60371662  1
  Rh  Rh244  1  0.59959621  -0.00265239  0.20606924  1
  Rh  Rh245  1  0.20602055  0.80274943  0.20141493  1
  Rh  Rh246  1  -0.00537259  0.58982775  0.60620870  1
  Rh  Rh247  1  0.78317335  0.21450670  0.20921807  1
  Rh  Rh248  1  0.40705661  0.39075205  0.19758617  1
  Rh  Rh249  1  0.59411613  0.20049809  -0.00085638  1
