# generated using pymatgen
data_ZrScNbPdRh
_symmetry_space_group_name_H-M   'P 1'
_cell_length_a   16.56071116
_cell_length_b   16.56016825
_cell_length_c   16.55738085
_cell_angle_alpha   90.02769289
_cell_angle_beta   90.00994198
_cell_angle_gamma   90.00250053
_symmetry_Int_Tables_number   1
_chemical_formula_structural   ZrScNbPdRh
_chemical_formula_sum   'Zr50 Sc50 Nb50 Pd50 Rh50'
_cell_volume   4540.83068251
_cell_formula_units_Z   50
loop_
 _symmetry_equiv_pos_site_id
 _symmetry_equiv_pos_as_xyz
  1  'x, y, z'
loop_
 _atom_site_type_symbol
 _atom_site_label
 _atom_site_symmetry_multiplicity
 _atom_site_fract_x
 _atom_site_fract_y
 _atom_site_fract_z
 _atom_site_occupancy
  Zr  Zr0  1  0.30220599  0.30167949  0.50988924  1
  Zr  Zr1  1  0.09107057  0.50035181  0.30099626  1
  Zr  Zr2  1  0.09799489  0.49474305  0.50967222  1
  Zr  Zr3  1  0.09588952  0.69595262  0.30214060  1
  Zr  Zr4  1  0.29941744  0.09879495  0.50924954  1
  Zr  Zr5  1  0.70572059  0.10458916  0.89745742  1
  Zr  Zr6  1  0.50673605  0.10012609  0.09153561  1
  Zr  Zr7  1  0.30397455  0.49643325  0.68821894  1
  Zr  Zr8  1  0.10379773  0.29924224  0.70209320  1
  Zr  Zr9  1  0.30107958  0.29592087  0.09601221  1
  Zr  Zr10  1  0.29970385  0.29848598  0.29912535  1
  Zr  Zr11  1  0.50163536  0.69016959  0.10085314  1
  Zr  Zr12  1  0.51342462  0.30449221  0.50888902  1
  Zr  Zr13  1  0.89258312  0.70255038  0.89858548  1
  Zr  Zr14  1  0.10124500  0.89671267  0.89795080  1
  Zr  Zr15  1  0.69856531  0.70467597  0.29496571  1
  Zr  Zr16  1  0.30018116  0.09921094  0.69887556  1
  Zr  Zr17  1  0.70235005  0.90273601  0.69767377  1
  Zr  Zr18  1  0.70210670  0.89664464  0.10206214  1
  Zr  Zr19  1  0.70116799  0.90076329  0.31007110  1
  Zr  Zr20  1  0.09957048  0.50500915  0.10351996  1
  Zr  Zr21  1  0.89882762  0.49387463  0.30585583  1
  Zr  Zr22  1  0.89878549  0.29654704  0.30178471  1
  Zr  Zr23  1  0.09527783  0.70384395  0.10648852  1
  Zr  Zr24  1  0.49607552  0.90621483  0.30231606  1
  Zr  Zr25  1  0.10741568  0.50231829  0.70306536  1
  Zr  Zr26  1  0.29360207  0.70448761  0.89728481  1
  Zr  Zr27  1  0.49962231  0.89909973  0.69676774  1
  Zr  Zr28  1  0.70434974  0.10502485  0.09933658  1
  Zr  Zr29  1  0.50424864  0.69678300  0.68754983  1
  Zr  Zr30  1  0.89970602  0.30016183  0.89520293  1
  Zr  Zr31  1  0.30949872  0.50333058  0.09867855  1
  Zr  Zr32  1  0.09920306  0.70130213  0.89949958  1
  Zr  Zr33  1  0.70711927  0.29475918  0.30435342  1
  Zr  Zr34  1  0.08974195  0.49855058  0.90056500  1
  Zr  Zr35  1  0.49303524  0.50858342  0.50678436  1
  Zr  Zr36  1  0.89857267  0.51079965  0.49296387  1
  Zr  Zr37  1  0.69808282  0.88994968  0.90498325  1
  Zr  Zr38  1  0.29544778  0.89397075  0.10352999  1
  Zr  Zr39  1  0.09562484  0.70588237  0.69860311  1
  Zr  Zr40  1  0.70176248  0.70594798  0.49044503  1
  Zr  Zr41  1  0.89764738  0.68973801  0.30871635  1
  Zr  Zr42  1  0.50707024  0.89917768  0.09629518  1
  Zr  Zr43  1  0.89321306  0.10126634  0.29781098  1
  Zr  Zr44  1  0.30058001  0.50217259  0.29605789  1
  Zr  Zr45  1  0.50256705  0.29352842  0.89519764  1
  Zr  Zr46  1  0.09756518  0.30171498  0.89241759  1
  Zr  Zr47  1  0.89810469  0.30814966  0.49198234  1
  Zr  Zr48  1  0.10082635  0.89114627  0.30044595  1
  Zr  Zr49  1  0.30287486  0.90455016  0.71097256  1
  Sc  Sc50  1  0.30500814  0.29178681  0.89871266  1
  Sc  Sc51  1  0.90745855  0.49355213  0.09349097  1
  Sc  Sc52  1  0.89272142  0.51502921  0.69172283  1
  Sc  Sc53  1  0.50740317  0.50773399  0.29773460  1
  Sc  Sc54  1  0.50895512  0.30084407  0.09016634  1
  Sc  Sc55  1  0.69600338  0.69973039  0.89662609  1
  Sc  Sc56  1  0.29973168  0.69731156  0.10751437  1
  Sc  Sc57  1  0.90064523  0.90959385  0.50158950  1
  Sc  Sc58  1  0.08550540  0.09615887  0.31260005  1
  Sc  Sc59  1  0.69495931  0.29949325  0.89870769  1
  Sc  Sc60  1  0.52047835  0.30114612  0.29795415  1
  Sc  Sc61  1  0.69729222  0.30577114  0.10625172  1
  Sc  Sc62  1  0.30609295  0.10042594  0.08874454  1
  Sc  Sc63  1  0.50316465  0.49805452  0.90656629  1
  Sc  Sc64  1  0.69206221  0.71043154  0.09442379  1
  Sc  Sc65  1  0.10074648  0.29671420  0.10037060  1
  Sc  Sc66  1  0.09882987  0.90300489  0.50326818  1
  Sc  Sc67  1  0.90351014  0.90599576  0.69675258  1
  Sc  Sc68  1  0.30210190  0.89348336  0.30700993  1
  Sc  Sc69  1  0.30892459  0.50681148  0.88967623  1
  Sc  Sc70  1  0.29603494  0.70116722  0.70240307  1
  Sc  Sc71  1  0.89843262  0.91232068  0.89641342  1
  Sc  Sc72  1  0.90939734  0.09567977  0.49397554  1
  Sc  Sc73  1  0.10360806  0.70838333  0.51065314  1
  Sc  Sc74  1  0.49234514  0.10107643  0.70083942  1
  Sc  Sc75  1  0.50645839  0.89786501  0.50568603  1
  Sc  Sc76  1  0.69566826  0.49067591  0.29312176  1
  Sc  Sc77  1  0.89133236  0.90136762  0.30376271  1
  Sc  Sc78  1  0.50652240  0.09623415  0.50586009  1
  Sc  Sc79  1  0.29759807  0.89578944  0.49797912  1
  Sc  Sc80  1  0.69673992  0.50008870  0.48865270  1
  Sc  Sc81  1  0.89584601  0.28871618  0.10554218  1
  Sc  Sc82  1  0.31412299  0.09838820  0.89219178  1
  Sc  Sc83  1  0.30591397  0.70363583  0.50118388  1
  Sc  Sc84  1  0.70435983  0.10011773  0.70053471  1
  Sc  Sc85  1  0.30612856  0.29496384  0.70410740  1
  Sc  Sc86  1  0.90352813  0.29440726  0.70046481  1
  Sc  Sc87  1  0.09071236  0.29880087  0.29940749  1
  Sc  Sc88  1  0.09748121  0.90142141  0.69705133  1
  Sc  Sc89  1  0.69127271  0.50933613  0.70731687  1
  Sc  Sc90  1  0.30376348  0.70603365  0.30400578  1
  Sc  Sc91  1  0.69979641  0.70143275  0.70664235  1
  Sc  Sc92  1  0.30831344  0.08388932  0.30635057  1
  Sc  Sc93  1  0.50060884  0.70399348  0.30174328  1
  Sc  Sc94  1  0.49781784  0.69388028  0.90111096  1
  Sc  Sc95  1  0.49672462  0.90296071  0.90160273  1
  Sc  Sc96  1  0.89413001  0.09390371  0.70653951  1
  Sc  Sc97  1  0.09008803  0.10180778  0.89561236  1
  Sc  Sc98  1  0.09286598  0.10242117  0.08672194  1
  Sc  Sc99  1  0.09173810  0.29507504  0.51058363  1
  Nb  Nb100  1  0.70317740  0.90772277  0.50335966  1
  Nb  Nb101  1  0.50569794  0.50228068  0.09948660  1
  Nb  Nb102  1  0.90001572  0.70195040  0.69079289  1
  Nb  Nb103  1  0.69793324  0.29741746  0.50272906  1
  Nb  Nb104  1  0.70098832  0.09450385  0.49947349  1
  Nb  Nb105  1  0.89923079  0.69744790  0.50479442  1
  Nb  Nb106  1  0.10361319  0.10430745  0.68435166  1
  Nb  Nb107  1  0.51432138  0.30850962  0.70006974  1
  Nb  Nb108  1  0.68894119  0.50231988  0.09346891  1
  Nb  Nb109  1  0.50466059  0.10107648  0.29826367  1
  Nb  Nb110  1  0.50745081  0.09939301  0.90291939  1
  Nb  Nb111  1  0.89982807  0.69777674  0.10021908  1
  Nb  Nb112  1  0.09846579  0.89671185  0.10053588  1
  Nb  Nb113  1  0.29469818  0.89568038  0.89958608  1
  Nb  Nb114  1  0.30063483  0.49499597  0.49962392  1
  Nb  Nb115  1  0.89831701  0.09021751  0.08945092  1
  Nb  Nb116  1  0.10161310  0.09906895  0.50353017  1
  Nb  Nb117  1  0.50151333  0.70228770  0.50188146  1
  Nb  Nb118  1  0.69332338  0.10038628  0.30339945  1
  Nb  Nb119  1  0.89614444  0.10264263  0.90643558  1
  Nb  Nb120  1  0.69834880  0.30085718  0.69736503  1
  Nb  Nb121  1  0.89811221  0.50085224  0.90022952  1
  Nb  Nb122  1  0.89757305  0.90002020  0.09580425  1
  Nb  Nb123  1  0.49529527  0.49598680  0.69791382  1
  Nb  Nb124  1  0.70791615  0.50264725  0.90359713  1
  Nb  Nb125  1  0.40644500  0.39742092  0.19968909  1
  Nb  Nb126  1  0.40418142  0.19966903  0.20453278  1
  Nb  Nb127  1  0.40407061  0.20259298  0.39854256  1
  Nb  Nb128  1  0.59951259  0.00167338  0.80541140  1
  Nb  Nb129  1  -0.00481043  0.80433710  0.00661235  1
  Nb  Nb130  1  0.79224382  0.39664134  0.60226327  1
  Nb  Nb131  1  0.20276457  0.39965585  0.40369487  1
  Nb  Nb132  1  0.79828824  0.40399593  0.79777246  1
  Nb  Nb133  1  -0.00357180  -0.00495475  0.18918076  1
  Nb  Nb134  1  0.79903883  0.59725790  0.00201903  1
  Nb  Nb135  1  0.40161092  0.39818938  0.39942173  1
  Nb  Nb136  1  0.19889287  -0.00780606  -0.00201961  1
  Nb  Nb137  1  0.39325965  0.80047853  -0.00059203  1
  Nb  Nb138  1  0.80153815  0.79913501  0.59587403  1
  Nb  Nb139  1  0.60326507  0.00427595  0.20515325  1
  Nb  Nb140  1  0.19279474  0.00187480  0.19461996  1
  Nb  Nb141  1  -0.00621899  0.60393183  0.79904918  1
  Nb  Nb142  1  0.20356930  0.18749652  0.20637762  1
  Nb  Nb143  1  0.20323329  0.19869772  0.40231660  1
  Nb  Nb144  1  -0.00698625  0.79467790  0.40463952  1
  Nb  Nb145  1  0.20175184  0.59303082  0.40550003  1
  Nb  Nb146  1  0.79780503  0.59777505  0.18974633  1
  Nb  Nb147  1  0.20067768  0.40577599  -0.00284371  1
  Nb  Nb148  1  0.79324077  0.20427111  0.59371664  1
  Nb  Nb149  1  0.19679633  0.59672761  -0.00041666  1
  Pd  Pd150  1  0.40054209  0.00566623  0.19312667  1
  Pd  Pd151  1  -0.00495443  0.39595387  0.19421980  1
  Pd  Pd152  1  0.40659860  0.79609071  0.80487279  1
  Pd  Pd153  1  0.20085877  0.39186135  0.19728132  1
  Pd  Pd154  1  -0.01449232  0.80457629  0.20532652  1
  Pd  Pd155  1  0.59117509  0.80360335  0.80155874  1
  Pd  Pd156  1  0.60484232  0.40833376  0.80566810  1
  Pd  Pd157  1  0.59642409  0.19611345  0.40647287  1
  Pd  Pd158  1  0.59224310  0.59609026  0.80516134  1
  Pd  Pd159  1  0.79800676  0.39830564  -0.00061576  1
  Pd  Pd160  1  0.41099233  0.20490415  0.60135932  1
  Pd  Pd161  1  -0.01292205  0.40597703  0.60856251  1
  Pd  Pd162  1  0.20164823  -0.00942223  0.60174067  1
  Pd  Pd163  1  0.40736519  0.00202005  0.41307674  1
  Pd  Pd164  1  0.20573925  0.60687115  0.59493599  1
  Pd  Pd165  1  0.59968403  0.00618663  0.60989133  1
  Pd  Pd166  1  0.19296763  0.00852215  0.80445126  1
  Pd  Pd167  1  0.40468991  0.79711908  0.19641304  1
  Pd  Pd168  1  0.79367649  -0.00332727  -0.00568547  1
  Pd  Pd169  1  0.39995494  0.39813579  0.00038493  1
  Pd  Pd170  1  0.00468881  0.00691779  0.79430987  1
  Pd  Pd171  1  0.20161806  0.60595629  0.20402440  1
  Pd  Pd172  1  0.20080732  0.19119811  0.80264624  1
  Pd  Pd173  1  0.39733927  0.60091051  0.39912927  1
  Pd  Pd174  1  0.39529281  0.80222223  0.59951312  1
  Pd  Pd175  1  0.80655538  0.80643495  0.79056160  1
  Pd  Pd176  1  0.19470229  0.00332706  0.39649135  1
  Pd  Pd177  1  0.40520040  0.60225165  0.79178169  1
  Pd  Pd178  1  0.60847024  0.59944903  0.59585588  1
  Pd  Pd179  1  0.80044318  0.19199309  0.40777394  1
  Pd  Pd180  1  0.78512819  0.60179242  0.59819830  1
  Pd  Pd181  1  0.60823155  0.41580345  0.59972978  1
  Pd  Pd182  1  -0.00781954  0.80032266  0.80318149  1
  Pd  Pd183  1  0.00306922  0.38873226  0.00645255  1
  Pd  Pd184  1  -0.00375388  0.19026851  0.79373901  1
  Pd  Pd185  1  0.80067939  0.40603744  0.19318040  1
  Pd  Pd186  1  0.60133041  0.60111167  0.39601363  1
  Pd  Pd187  1  0.21177877  0.40064516  0.80599930  1
  Pd  Pd188  1  0.40120480  0.39586591  0.79778537  1
  Pd  Pd189  1  -0.01287652  0.19312274  0.59987523  1
  Pd  Pd190  1  0.79653341  0.21055817  0.00090939  1
  Pd  Pd191  1  -0.01341016  0.41180036  0.78570506  1
  Pd  Pd192  1  0.80477789  0.79347793  0.19938241  1
  Pd  Pd193  1  0.39402744  -0.00693549  -0.00477017  1
  Pd  Pd194  1  0.59417376  0.80515852  0.40243942  1
  Pd  Pd195  1  0.19959863  0.19502258  -0.00607814  1
  Pd  Pd196  1  0.59831926  0.19163661  0.79165658  1
  Pd  Pd197  1  0.79796965  0.00269847  0.20103243  1
  Pd  Pd198  1  -0.00478369  0.20576866  -0.00058701  1
  Pd  Pd199  1  0.00435799  0.18685436  0.19727828  1
  Rh  Rh200  1  0.00209824  0.00659024  0.60265991  1
  Rh  Rh201  1  0.79321148  0.40128124  0.40318086  1
  Rh  Rh202  1  0.80767717  0.80640978  0.41149620  1
  Rh  Rh203  1  0.60674051  0.20438222  -0.00033810  1
  Rh  Rh204  1  0.80348176  0.20794891  0.79523596  1
  Rh  Rh205  1  0.39185608  0.60881743  0.00053987  1
  Rh  Rh206  1  0.20434829  0.80064431  0.20758112  1
  Rh  Rh207  1  0.60546203  0.19243139  0.60552313  1
  Rh  Rh208  1  0.59503520  0.40218911  0.19470833  1
  Rh  Rh209  1  0.40820620  0.20052562  -0.00034166  1
  Rh  Rh210  1  0.40794347  0.59642700  0.20392908  1
  Rh  Rh211  1  0.19235275  0.59926103  0.80496867  1
  Rh  Rh212  1  0.39604899  0.60552677  0.60300209  1
  Rh  Rh213  1  0.61144600  0.79557340  0.59614567  1
  Rh  Rh214  1  0.61056583  0.00058336  -0.00245413  1
  Rh  Rh215  1  0.00316344  -0.00577025  0.00041963  1
  Rh  Rh216  1  0.00490456  0.20507334  0.40535009  1
  Rh  Rh217  1  0.60061300  0.19492434  0.19640588  1
  Rh  Rh218  1  0.78728834  0.59336948  0.38585734  1
  Rh  Rh219  1  0.59622960  0.40124880  0.40086645  1
  Rh  Rh220  1  0.59465908  0.80957979  0.20552445  1
  Rh  Rh221  1  0.80502112  0.79503326  0.00258750  1
  Rh  Rh222  1  0.80585509  0.59718301  0.80528783  1
  Rh  Rh223  1  0.40700028  0.39506914  0.60240153  1
  Rh  Rh224  1  0.00833561  0.39522859  0.40145329  1
  Rh  Rh225  1  -0.01364379  0.59237630  0.19853253  1
  Rh  Rh226  1  -0.00972556  0.80585028  0.59229743  1
  Rh  Rh227  1  0.60003145  0.00031305  0.39949480  1
  Rh  Rh228  1  0.80181294  0.00422497  0.59474265  1
  Rh  Rh229  1  0.19207394  0.78960783  0.40094793  1
  Rh  Rh230  1  0.79806807  0.19538316  0.19988869  1
  Rh  Rh231  1  0.00186897  -0.01268678  0.39430503  1
  Rh  Rh232  1  0.79852782  0.00605859  0.40336813  1
  Rh  Rh233  1  0.60683774  0.60228365  0.19958209  1
  Rh  Rh234  1  0.39725929  -0.00653998  0.59880843  1
  Rh  Rh235  1  0.58669186  0.79398019  -0.00550242  1
  Rh  Rh236  1  0.40868592  -0.00025368  0.80330804  1
  Rh  Rh237  1  0.19964796  0.39213362  0.60286370  1
  Rh  Rh238  1  0.60153193  0.40050533  -0.00473441  1
  Rh  Rh239  1  0.19716839  0.80339510  0.78963776  1
  Rh  Rh240  1  -0.00403056  0.61082332  -0.00647597  1
  Rh  Rh241  1  0.19841761  0.20393148  0.59774771  1
  Rh  Rh242  1  0.60634509  0.60141704  -0.00461472  1
  Rh  Rh243  1  0.01432620  0.60853645  0.41769281  1
  Rh  Rh244  1  0.40820099  0.80037388  0.40684992  1
  Rh  Rh245  1  0.79341535  -0.00255210  0.80639052  1
  Rh  Rh246  1  0.19874224  0.79558795  0.00350181  1
  Rh  Rh247  1  0.00490244  0.59917261  0.60365445  1
  Rh  Rh248  1  0.41009706  0.20222877  0.79554146  1
  Rh  Rh249  1  0.20548681  0.80538287  0.60548804  1
