# generated using pymatgen
data_ZrScNbPdRh
_symmetry_space_group_name_H-M   'P 1'
_cell_length_a   16.56613840
_cell_length_b   16.55839320
_cell_length_c   16.56097176
_cell_angle_alpha   90.01359729
_cell_angle_beta   90.04391711
_cell_angle_gamma   89.99054549
_symmetry_Int_Tables_number   1
_chemical_formula_structural   ZrScNbPdRh
_chemical_formula_sum   'Zr50 Sc50 Nb50 Pd50 Rh50'
_cell_volume   4542.81600679
_cell_formula_units_Z   50
loop_
 _symmetry_equiv_pos_site_id
 _symmetry_equiv_pos_as_xyz
  1  'x, y, z'
loop_
 _atom_site_type_symbol
 _atom_site_label
 _atom_site_symmetry_multiplicity
 _atom_site_fract_x
 _atom_site_fract_y
 _atom_site_fract_z
 _atom_site_occupancy
  Zr  Zr0  1  0.50530943  0.09485458  0.70383733  1
  Zr  Zr1  1  0.29676873  0.69932048  0.10149350  1
  Zr  Zr2  1  0.69225016  0.30485167  0.50125013  1
  Zr  Zr3  1  0.50360241  0.69774822  0.30191570  1
  Zr  Zr4  1  0.10450910  0.70671507  0.10803383  1
  Zr  Zr5  1  0.09097140  0.29920347  0.10056702  1
  Zr  Zr6  1  0.89647529  0.30308774  0.90803201  1
  Zr  Zr7  1  0.49599180  0.09052151  0.89817103  1
  Zr  Zr8  1  0.70132771  0.30184950  0.30744594  1
  Zr  Zr9  1  0.70215263  0.29675120  0.69668365  1
  Zr  Zr10  1  0.69555898  0.09771844  0.30616772  1
  Zr  Zr11  1  0.30508423  0.09726568  0.29470887  1
  Zr  Zr12  1  0.09635540  0.09668851  0.50343681  1
  Zr  Zr13  1  0.29552927  0.09921753  0.50437895  1
  Zr  Zr14  1  0.70108349  0.88690537  0.09668090  1
  Zr  Zr15  1  0.50895141  0.71215390  0.50583082  1
  Zr  Zr16  1  0.50547024  0.09949189  0.30262363  1
  Zr  Zr17  1  0.09425348  0.89175095  0.49462647  1
  Zr  Zr18  1  0.69989051  0.90044726  0.89783282  1
  Zr  Zr19  1  0.90404612  0.90052079  0.30411646  1
  Zr  Zr20  1  0.49837493  0.50419212  0.30009870  1
  Zr  Zr21  1  0.49318344  0.09771726  0.11044840  1
  Zr  Zr22  1  0.50273009  0.69755271  0.90385463  1
  Zr  Zr23  1  0.89874802  0.49222924  0.10429360  1
  Zr  Zr24  1  0.49207187  0.88920299  0.69169368  1
  Zr  Zr25  1  0.90079287  0.30128245  0.09603092  1
  Zr  Zr26  1  0.89747682  0.51023173  0.70800437  1
  Zr  Zr27  1  0.29614258  0.90904831  0.90220452  1
  Zr  Zr28  1  0.49575966  0.29579071  0.30655460  1
  Zr  Zr29  1  0.30334494  0.30826816  0.29621328  1
  Zr  Zr30  1  0.29646524  0.89646016  0.70728380  1
  Zr  Zr31  1  0.30114332  0.50119775  0.10455353  1
  Zr  Zr32  1  0.09989234  0.51034537  0.69596545  1
  Zr  Zr33  1  0.10058123  0.50558657  0.49224700  1
  Zr  Zr34  1  0.51164799  0.70514371  0.10178585  1
  Zr  Zr35  1  0.89418867  0.91025383  0.89799968  1
  Zr  Zr36  1  0.89998718  0.30687044  0.29036524  1
  Zr  Zr37  1  0.10066088  0.31243485  0.30088758  1
  Zr  Zr38  1  0.09688722  0.08736403  0.30000399  1
  Zr  Zr39  1  0.30181112  0.30490763  0.49239695  1
  Zr  Zr40  1  0.89255116  0.89629906  0.10469549  1
  Zr  Zr41  1  0.29944139  0.30258873  0.10200350  1
  Zr  Zr42  1  0.49360850  0.50226570  0.08961122  1
  Zr  Zr43  1  0.29691059  0.09331953  0.70002025  1
  Zr  Zr44  1  0.89526660  0.09343842  0.30000938  1
  Zr  Zr45  1  0.70429329  0.30239072  0.90034940  1
  Zr  Zr46  1  0.29893544  0.30219390  0.70088442  1
  Zr  Zr47  1  0.09662446  0.10497224  0.69136552  1
  Zr  Zr48  1  0.30479881  0.70746289  0.29756805  1
  Zr  Zr49  1  0.09520581  0.70110238  0.69800409  1
  Sc  Sc50  1  0.70362712  0.90272234  0.70271653  1
  Sc  Sc51  1  0.29660034  0.08811279  0.09411410  1
  Sc  Sc52  1  0.29801059  0.89100453  0.50820236  1
  Sc  Sc53  1  0.51437908  0.50013542  0.49198016  1
  Sc  Sc54  1  0.89821241  0.09264898  0.50298006  1
  Sc  Sc55  1  0.10091659  0.90058548  0.89982475  1
  Sc  Sc56  1  0.90268153  0.89345374  0.69919849  1
  Sc  Sc57  1  0.71026746  0.30202029  0.10028430  1
  Sc  Sc58  1  0.30163323  0.49937745  0.29905771  1
  Sc  Sc59  1  0.29985858  0.30979270  0.89779694  1
  Sc  Sc60  1  0.29497310  0.70961333  0.69334352  1
  Sc  Sc61  1  0.10338579  0.50735596  0.10800516  1
  Sc  Sc62  1  0.70180416  0.89576149  0.49558558  1
  Sc  Sc63  1  0.90056934  0.09838846  0.09743435  1
  Sc  Sc64  1  0.29326437  0.70122456  0.49761218  1
  Sc  Sc65  1  0.90137944  0.70428486  0.50355243  1
  Sc  Sc66  1  0.51091065  0.30548145  0.70152676  1
  Sc  Sc67  1  0.48776599  0.89668824  0.89492813  1
  Sc  Sc68  1  0.70576493  0.90255006  0.30024027  1
  Sc  Sc69  1  0.89050018  0.29698251  0.49553157  1
  Sc  Sc70  1  0.69994371  0.69430422  0.69366038  1
  Sc  Sc71  1  0.10780869  0.70251587  0.90042794  1
  Sc  Sc72  1  0.30424864  0.50252236  0.90319815  1
  Sc  Sc73  1  0.50820876  0.89511658  0.30018528  1
  Sc  Sc74  1  0.70511272  0.10579096  0.49942950  1
  Sc  Sc75  1  0.90304296  0.70156894  0.88190880  1
  Sc  Sc76  1  0.90186131  0.09217670  0.69480126  1
  Sc  Sc77  1  0.69631348  0.70253295  0.90633771  1
  Sc  Sc78  1  0.89846802  0.89774011  0.50122475  1
  Sc  Sc79  1  0.10651965  0.51117816  0.89654340  1
  Sc  Sc80  1  0.70225900  0.50499620  0.30867599  1
  Sc  Sc81  1  0.70215884  0.69718213  0.49648124  1
  Sc  Sc82  1  0.29903604  0.89548956  0.10091421  1
  Sc  Sc83  1  0.70523160  0.09369889  0.10801255  1
  Sc  Sc84  1  0.09442901  0.09625742  0.91103147  1
  Sc  Sc85  1  0.90060650  0.51062203  0.49345212  1
  Sc  Sc86  1  0.89930158  0.70180312  0.29183566  1
  Sc  Sc87  1  0.29622102  0.71209101  0.90126531  1
  Sc  Sc88  1  0.89915024  0.50027586  0.30032151  1
  Sc  Sc89  1  0.29766831  0.50479076  0.49368209  1
  Sc  Sc90  1  0.10001993  0.89438756  0.29736516  1
  Sc  Sc91  1  0.90031113  0.29173348  0.70223714  1
  Sc  Sc92  1  0.69666523  0.08788318  0.89080959  1
  Sc  Sc93  1  0.29745172  0.49740158  0.70950547  1
  Sc  Sc94  1  0.09294272  0.29245786  0.90640748  1
  Sc  Sc95  1  0.70127600  0.49708797  0.89697357  1
  Sc  Sc96  1  0.70351891  0.50197223  0.10573499  1
  Sc  Sc97  1  0.49910425  0.31534262  0.90286941  1
  Sc  Sc98  1  0.49471389  0.30325128  0.10352535  1
  Sc  Sc99  1  0.69491782  0.50106084  0.70255930  1
  Nb  Nb100  1  0.50086645  0.09881254  0.49710308  1
  Nb  Nb101  1  0.90718678  0.69548801  0.69581408  1
  Nb  Nb102  1  0.09934457  0.50007073  0.30366211  1
  Nb  Nb103  1  0.09872804  0.29871657  0.69695128  1
  Nb  Nb104  1  0.10277970  0.70154142  0.30245445  1
  Nb  Nb105  1  0.50556960  0.90202125  0.50109821  1
  Nb  Nb106  1  0.89824758  0.49921582  0.90013871  1
  Nb  Nb107  1  0.50280742  0.50554446  0.70260479  1
  Nb  Nb108  1  0.10434595  0.69445084  0.50604147  1
  Nb  Nb109  1  0.49983590  0.50372689  0.89518343  1
  Nb  Nb110  1  0.70476162  0.49384353  0.49560350  1
  Nb  Nb111  1  0.69604045  0.69771841  0.28344356  1
  Nb  Nb112  1  0.09996725  0.90162800  0.09781253  1
  Nb  Nb113  1  0.89855744  0.70088679  0.10394607  1
  Nb  Nb114  1  0.09880567  0.89736016  0.69616684  1
  Nb  Nb115  1  0.10235001  0.10156659  0.10013816  1
  Nb  Nb116  1  0.50397695  0.69865690  0.69836602  1
  Nb  Nb117  1  0.10230981  0.29772689  0.50242561  1
  Nb  Nb118  1  0.50032880  0.30140936  0.50066652  1
  Nb  Nb119  1  0.69849547  0.09980426  0.70242904  1
  Nb  Nb120  1  0.89550823  0.09906142  0.89845414  1
  Nb  Nb121  1  0.50274016  0.90017829  0.09437215  1
  Nb  Nb122  1  0.70942269  0.70155624  0.10449518  1
  Nb  Nb123  1  0.29967419  0.09905890  0.89832211  1
  Nb  Nb124  1  0.29808941  0.89640595  0.30745070  1
  Nb  Nb125  1  0.40897800  0.60419180  0.79576772  1
  Nb  Nb126  1  0.40496550  0.40339813  0.59865174  1
  Nb  Nb127  1  0.19492193  0.20051553  0.39586977  1
  Nb  Nb128  1  -0.00759215  0.60681025  0.00277947  1
  Nb  Nb129  1  0.59750311  0.40090752  0.20471963  1
  Nb  Nb130  1  0.59453479  -0.00208761  0.00384070  1
  Nb  Nb131  1  0.40379515  -0.00539778  0.40419603  1
  Nb  Nb132  1  0.39710308  0.19878267  0.79981751  1
  Nb  Nb133  1  0.39927966  0.19658609  -0.00644435  1
  Nb  Nb134  1  0.40677971  0.59749197  0.60535076  1
  Nb  Nb135  1  0.80929210  0.60406791  0.00341646  1
  Nb  Nb136  1  0.79874230  0.19262190  0.80098372  1
  Nb  Nb137  1  -0.00441097  0.79765128  0.00550963  1
  Nb  Nb138  1  0.40584331  0.20328001  0.59979157  1
  Nb  Nb139  1  0.19386401  0.19592199  0.20072870  1
  Nb  Nb140  1  0.19804479  0.40167820  0.00476696  1
  Nb  Nb141  1  0.59416037  0.79481416  0.79551502  1
  Nb  Nb142  1  -0.00109880  0.40194708  0.79726094  1
  Nb  Nb143  1  0.00537194  0.20107220  0.39771085  1
  Nb  Nb144  1  0.80236578  0.40533347  0.60018134  1
  Nb  Nb145  1  0.59524939  0.19385518  0.00006068  1
  Nb  Nb146  1  0.00103303  0.39948481  0.60171190  1
  Nb  Nb147  1  0.59796392  0.00124818  0.59756078  1
  Nb  Nb148  1  0.19556285  0.39834460  0.59855527  1
  Nb  Nb149  1  0.19994643  0.19742223  0.79961592  1
  Pd  Pd150  1  0.60167082  0.59472710  0.59296283  1
  Pd  Pd151  1  0.40511369  0.80471198  0.19731870  1
  Pd  Pd152  1  0.81042291  0.79135083  -0.01040825  1
  Pd  Pd153  1  0.18610718  0.39338075  0.80660301  1
  Pd  Pd154  1  0.20620718  -0.00382944  0.40393760  1
  Pd  Pd155  1  -0.00254956  -0.00439328  0.00558346  1
  Pd  Pd156  1  0.79829269  0.19899133  0.20131888  1
  Pd  Pd157  1  0.79304068  0.79184018  0.79264259  1
  Pd  Pd158  1  0.79735924  0.79275626  0.39301578  1
  Pd  Pd159  1  0.21337480  0.61047551  0.79737646  1
  Pd  Pd160  1  -0.00009451  0.78976872  0.39894566  1
  Pd  Pd161  1  0.00330128  0.00030130  0.79518723  1
  Pd  Pd162  1  0.40363376  0.00094957  0.59578452  1
  Pd  Pd163  1  0.79196749  -0.00249601  0.59988345  1
  Pd  Pd164  1  0.39331994  0.60728450  -0.00521730  1
  Pd  Pd165  1  0.60112765  0.40169870  0.79966321  1
  Pd  Pd166  1  0.00480995  0.80403080  0.80480804  1
  Pd  Pd167  1  -0.00173393  0.61115355  0.39386687  1
  Pd  Pd168  1  0.79000596  0.18680725  -0.00620393  1
  Pd  Pd169  1  -0.01166525  0.20566434  0.59078737  1
  Pd  Pd170  1  0.01137649  0.41465894  -0.00768548  1
  Pd  Pd171  1  0.61083912  0.79817177  0.39383679  1
  Pd  Pd172  1  0.00164968  0.19578268  0.20475084  1
  Pd  Pd173  1  0.20085012  -0.00513633  0.19539029  1
  Pd  Pd174  1  0.60008327  0.59232279  0.19477527  1
  Pd  Pd175  1  0.79919799  0.59521641  0.59709575  1
  Pd  Pd176  1  0.80615509  0.19801039  0.39833139  1
  Pd  Pd177  1  0.59683993  0.19335182  0.59519761  1
  Pd  Pd178  1  0.59893561  0.20450285  0.81110239  1
  Pd  Pd179  1  -0.00793112  0.39621455  0.40765705  1
  Pd  Pd180  1  0.20205681  0.59989426  0.21137283  1
  Pd  Pd181  1  0.61273226  0.59463384  0.00091967  1
  Pd  Pd182  1  0.20331198  0.60521570  0.39124847  1
  Pd  Pd183  1  0.79874987  0.79823101  0.60471541  1
  Pd  Pd184  1  -0.00227083  0.19989449  0.80610862  1
  Pd  Pd185  1  0.60619850  0.39722104  0.00914302  1
  Pd  Pd186  1  0.20607112  0.20462474  -0.00106760  1
  Pd  Pd187  1  0.40434643  0.60224598  0.41098452  1
  Pd  Pd188  1  0.39563902  0.19268779  0.40481069  1
  Pd  Pd189  1  0.40083299  0.80543717  0.40598779  1
  Pd  Pd190  1  -0.00069309  0.59851504  0.20135976  1
  Pd  Pd191  1  0.19372175  -0.01200091  0.59736886  1
  Pd  Pd192  1  0.18589684  0.00653450  0.80208636  1
  Pd  Pd193  1  0.39796120  0.80017886  0.00256256  1
  Pd  Pd194  1  0.60498213  0.20992938  0.19222537  1
  Pd  Pd195  1  0.60505200  -0.00858598  0.19585628  1
  Pd  Pd196  1  0.80007525  0.60913996  0.39355910  1
  Pd  Pd197  1  0.78998029  0.60777053  0.80623732  1
  Pd  Pd198  1  0.40006831  -0.01553703  0.20874656  1
  Pd  Pd199  1  -0.00225202  -0.00340664  0.19229053  1
  Rh  Rh200  1  0.40190545  0.00019713  0.00362048  1
  Rh  Rh201  1  0.00100507  -0.01158209  0.60040080  1
  Rh  Rh202  1  -0.00734517  0.19095374  0.00040585  1
  Rh  Rh203  1  0.00481528  0.41018962  0.20192886  1
  Rh  Rh204  1  0.59992969  0.00043726  0.40707475  1
  Rh  Rh205  1  0.40609552  0.40908169  0.40494452  1
  Rh  Rh206  1  0.79470776  0.41113458  0.00100731  1
  Rh  Rh207  1  -0.00297618  0.60104517  0.59411838  1
  Rh  Rh208  1  0.00342911  0.80285482  0.19813367  1
  Rh  Rh209  1  0.19708840  -0.00279373  0.00196752  1
  Rh  Rh210  1  0.00065602  0.59788767  0.80798515  1
  Rh  Rh211  1  0.19113299  0.80107507  0.59896040  1
  Rh  Rh212  1  0.60235873  0.80318398  0.20182868  1
  Rh  Rh213  1  0.20856120  0.20761251  0.59932960  1
  Rh  Rh214  1  0.59608222  0.80829661  -0.00891520  1
  Rh  Rh215  1  0.80505540  0.40281283  0.40453160  1
  Rh  Rh216  1  0.19944064  0.59734729  0.00215369  1
  Rh  Rh217  1  0.80151523  0.59827969  0.19926953  1
  Rh  Rh218  1  0.40247647  0.60672885  0.19692919  1
  Rh  Rh219  1  0.38829505  0.19802681  0.19082369  1
  Rh  Rh220  1  0.61111216  0.80920282  0.60579013  1
  Rh  Rh221  1  0.59446528  -0.01781051  0.79450006  1
  Rh  Rh222  1  0.19307457  0.80652339  0.00196627  1
  Rh  Rh223  1  0.39751425  -0.00136552  0.79502841  1
  Rh  Rh224  1  0.19956604  0.40203072  0.40234823  1
  Rh  Rh225  1  0.79165097  0.00263631  0.00105942  1
  Rh  Rh226  1  0.59698128  0.39864763  0.39354015  1
  Rh  Rh227  1  0.79903980  -0.00193300  0.40426883  1
  Rh  Rh228  1  0.21045173  0.59415903  0.60255613  1
  Rh  Rh229  1  0.00114743  0.79723586  0.59945088  1
  Rh  Rh230  1  0.39704076  0.79110003  0.59363503  1
  Rh  Rh231  1  0.59967935  0.60519970  0.80564686  1
  Rh  Rh232  1  0.79924771  -0.00387461  0.20152100  1
  Rh  Rh233  1  0.40167301  0.79122546  0.80101200  1
  Rh  Rh234  1  0.79025381  0.40239467  0.20686660  1
  Rh  Rh235  1  0.19388728  0.40047170  0.19437748  1
  Rh  Rh236  1  0.59965255  0.20009680  0.40577616  1
  Rh  Rh237  1  0.80771705  0.39133773  0.79287177  1
  Rh  Rh238  1  0.79868065  0.80138309  0.20890414  1
  Rh  Rh239  1  0.80188636  0.20111085  0.60771953  1
  Rh  Rh240  1  0.19447705  0.80256488  0.79871081  1
  Rh  Rh241  1  0.39232156  0.39880637  -0.00274775  1
  Rh  Rh242  1  0.40988504  0.40549114  0.20237801  1
  Rh  Rh243  1  0.40868941  0.40652471  0.79579846  1
  Rh  Rh244  1  0.19605172  0.79469819  0.39932737  1
  Rh  Rh245  1  -0.00505827  0.00163017  0.40460496  1
  Rh  Rh246  1  0.60678906  0.60763475  0.40100802  1
  Rh  Rh247  1  0.80628600  0.00533261  0.79242491  1
  Rh  Rh248  1  0.20155475  0.80661767  0.20489496  1
  Rh  Rh249  1  0.60281970  0.40827796  0.59985318  1
