# generated using pymatgen
data_ZrScNbPdRh
_symmetry_space_group_name_H-M   'P 1'
_cell_length_a   16.55185114
_cell_length_b   16.55203602
_cell_length_c   16.55300751
_cell_angle_alpha   90.01650262
_cell_angle_beta   89.99922275
_cell_angle_gamma   90.00685211
_symmetry_Int_Tables_number   1
_chemical_formula_structural   ZrScNbPdRh
_chemical_formula_sum   'Zr50 Sc50 Nb50 Pd50 Rh50'
_cell_volume   4534.97487677
_cell_formula_units_Z   50
loop_
 _symmetry_equiv_pos_site_id
 _symmetry_equiv_pos_as_xyz
  1  'x, y, z'
loop_
 _atom_site_type_symbol
 _atom_site_label
 _atom_site_symmetry_multiplicity
 _atom_site_fract_x
 _atom_site_fract_y
 _atom_site_fract_z
 _atom_site_occupancy
  Zr  Zr0  1  0.71292362  0.50372653  0.90028044  1
  Zr  Zr1  1  0.09629446  0.30999475  0.09741288  1
  Zr  Zr2  1  0.09575959  0.49880939  0.91380862  1
  Zr  Zr3  1  0.49630477  0.90020014  0.29752957  1
  Zr  Zr4  1  0.50831014  0.10211852  0.69327546  1
  Zr  Zr5  1  0.70443957  0.10388071  0.10045982  1
  Zr  Zr6  1  0.50200509  0.49312824  0.11071055  1
  Zr  Zr7  1  0.29692050  0.89446552  0.48926685  1
  Zr  Zr8  1  0.30114010  0.49612909  0.30544165  1
  Zr  Zr9  1  0.09203006  0.09213248  0.50014108  1
  Zr  Zr10  1  0.51005204  0.90305328  0.70295548  1
  Zr  Zr11  1  0.71207777  0.30238362  0.49864928  1
  Zr  Zr12  1  0.69852811  0.50546897  0.70237068  1
  Zr  Zr13  1  0.89873525  0.30037936  0.49777947  1
  Zr  Zr14  1  0.49469004  0.50075087  0.90059903  1
  Zr  Zr15  1  0.29387364  0.50701951  0.09184655  1
  Zr  Zr16  1  0.69731579  0.70210545  0.49242196  1
  Zr  Zr17  1  0.29984571  0.09869951  0.09759797  1
  Zr  Zr18  1  0.90244517  0.09200426  0.69693726  1
  Zr  Zr19  1  0.09721487  0.09909125  0.29992480  1
  Zr  Zr20  1  0.28857572  0.70612768  0.70051276  1
  Zr  Zr21  1  0.10533546  0.69843068  0.50171649  1
  Zr  Zr22  1  0.69517947  0.90394100  0.10916620  1
  Zr  Zr23  1  0.09498883  0.68435324  0.29683633  1
  Zr  Zr24  1  0.29878664  0.30004000  0.90040394  1
  Zr  Zr25  1  0.70884818  0.29158767  0.89948008  1
  Zr  Zr26  1  0.29639727  0.90726458  0.70470395  1
  Zr  Zr27  1  0.49890278  0.49981006  0.50000074  1
  Zr  Zr28  1  0.49874573  0.49663541  0.69994988  1
  Zr  Zr29  1  0.11290242  0.69499105  0.10538948  1
  Zr  Zr30  1  0.90755584  0.10834876  0.49082376  1
  Zr  Zr31  1  0.50133989  0.89866451  0.49600113  1
  Zr  Zr32  1  0.29662806  0.89535622  0.10393753  1
  Zr  Zr33  1  0.49551108  0.70236059  0.49226008  1
  Zr  Zr34  1  0.09292530  0.89991768  0.90432752  1
  Zr  Zr35  1  0.70814005  0.71404485  0.70697077  1
  Zr  Zr36  1  0.49641937  0.29504533  0.09850648  1
  Zr  Zr37  1  0.70344941  0.49721612  0.28877611  1
  Zr  Zr38  1  0.90978792  0.50871999  0.29710237  1
  Zr  Zr39  1  0.70276465  0.49705694  0.50383248  1
  Zr  Zr40  1  0.71043509  0.70913208  0.29592561  1
  Zr  Zr41  1  0.29522674  0.50136174  0.50139100  1
  Zr  Zr42  1  0.50015155  0.30400313  0.29671209  1
  Zr  Zr43  1  0.90589884  0.91181016  0.50371256  1
  Zr  Zr44  1  0.29510807  0.09003928  0.29575564  1
  Zr  Zr45  1  0.70763103  0.29318861  0.69970919  1
  Zr  Zr46  1  0.89760161  0.49505507  0.09066062  1
  Zr  Zr47  1  0.50351137  0.70309688  0.29846384  1
  Zr  Zr48  1  0.70016963  0.09642337  0.28931675  1
  Zr  Zr49  1  0.08702553  0.69946948  0.70152467  1
  Sc  Sc50  1  0.30465729  0.90046912  0.90158871  1
  Sc  Sc51  1  0.09347537  0.30664779  0.50358408  1
  Sc  Sc52  1  0.89333467  0.70333136  0.09538693  1
  Sc  Sc53  1  0.90837364  0.90214490  0.09920150  1
  Sc  Sc54  1  0.08549254  0.70533507  0.89956469  1
  Sc  Sc55  1  0.89298736  0.29690905  0.09133497  1
  Sc  Sc56  1  0.10636473  0.90648730  0.29658249  1
  Sc  Sc57  1  0.90042987  0.50869496  0.70296812  1
  Sc  Sc58  1  0.29246539  0.29352736  0.10050195  1
  Sc  Sc59  1  0.30025592  0.09505892  0.90420393  1
  Sc  Sc60  1  0.49490421  0.49597153  0.29838716  1
  Sc  Sc61  1  0.50401095  0.89468701  0.09720624  1
  Sc  Sc62  1  0.89959321  0.29470509  0.89917893  1
  Sc  Sc63  1  0.09896641  0.90009676  0.09729073  1
  Sc  Sc64  1  0.10302957  0.30460080  0.70361068  1
  Sc  Sc65  1  0.10292293  0.29903331  0.90018132  1
  Sc  Sc66  1  0.09566371  0.89962986  0.70393655  1
  Sc  Sc67  1  0.69787659  0.70564093  0.10309557  1
  Sc  Sc68  1  0.70727694  0.29422305  0.29641562  1
  Sc  Sc69  1  0.09443544  0.10011034  0.89348271  1
  Sc  Sc70  1  0.69699757  0.10319263  0.89460796  1
  Sc  Sc71  1  0.50562153  0.09189957  0.09315780  1
  Sc  Sc72  1  0.29739345  0.30424922  0.29827647  1
  Sc  Sc73  1  0.69712399  0.89581215  0.50796832  1
  Sc  Sc74  1  0.90319888  0.10542966  0.90031295  1
  Sc  Sc75  1  0.10143811  0.09574297  0.10018795  1
  Sc  Sc76  1  0.50973378  0.70093305  0.70558826  1
  Sc  Sc77  1  0.90525744  0.89518176  0.90393876  1
  Sc  Sc78  1  0.29792567  0.09002899  0.50324847  1
  Sc  Sc79  1  0.69147146  0.10893397  0.50816247  1
  Sc  Sc80  1  0.70467527  0.70143463  0.90399338  1
  Sc  Sc81  1  0.10542716  0.31013701  0.29724174  1
  Sc  Sc82  1  0.29465843  0.70617993  0.30420527  1
  Sc  Sc83  1  0.50030910  0.70876363  0.90682752  1
  Sc  Sc84  1  0.89941281  0.30105237  0.69424613  1
  Sc  Sc85  1  0.89970353  0.49032568  0.49835957  1
  Sc  Sc86  1  0.90244355  0.69542498  0.49577228  1
  Sc  Sc87  1  0.29764449  0.31019226  0.70363866  1
  Sc  Sc88  1  0.90168003  0.09829424  0.30009559  1
  Sc  Sc89  1  0.69705584  0.90043776  0.90269795  1
  Sc  Sc90  1  0.30781508  0.70307513  0.91141515  1
  Sc  Sc91  1  0.89692891  0.69900200  0.89711945  1
  Sc  Sc92  1  0.09809776  0.49785742  0.69116038  1
  Sc  Sc93  1  0.89306683  0.90284598  0.29224952  1
  Sc  Sc94  1  0.49968572  0.90492110  0.90870744  1
  Sc  Sc95  1  0.09875358  0.49719769  0.49386159  1
  Sc  Sc96  1  0.29937878  0.30474767  0.50586597  1
  Sc  Sc97  1  0.29453454  0.49147321  0.89798592  1
  Sc  Sc98  1  0.49326544  0.29899444  0.69075209  1
  Sc  Sc99  1  0.10202167  0.90648030  0.50016934  1
  Nb  Nb100  1  0.90154584  0.50591273  0.89964344  1
  Nb  Nb101  1  0.90267155  0.09554311  0.10350080  1
  Nb  Nb102  1  0.90108093  0.70204130  0.30005326  1
  Nb  Nb103  1  0.70092302  0.49146195  0.09789998  1
  Nb  Nb104  1  0.70372817  0.30676053  0.09679953  1
  Nb  Nb105  1  0.69965395  0.08852296  0.70374658  1
  Nb  Nb106  1  0.69628090  0.90047898  0.29937412  1
  Nb  Nb107  1  0.50638141  0.28745774  0.50190050  1
  Nb  Nb108  1  0.30026916  0.69819454  0.50071657  1
  Nb  Nb109  1  0.30371939  0.10009230  0.69842763  1
  Nb  Nb110  1  0.29867359  0.90315873  0.29794790  1
  Nb  Nb111  1  0.49612993  0.10733597  0.90616152  1
  Nb  Nb112  1  0.70942486  0.91167294  0.70198462  1
  Nb  Nb113  1  0.89967438  0.29295964  0.31505612  1
  Nb  Nb114  1  0.90054147  0.70644969  0.70290904  1
  Nb  Nb115  1  0.09457103  0.50233520  0.11061370  1
  Nb  Nb116  1  0.49388617  0.69760464  0.09523768  1
  Nb  Nb117  1  0.30484133  0.70031559  0.10164227  1
  Nb  Nb118  1  0.50045953  0.10196940  0.30220398  1
  Nb  Nb119  1  0.88530863  0.89250421  0.69880176  1
  Nb  Nb120  1  0.49990183  0.10538184  0.50427651  1
  Nb  Nb121  1  0.09919870  0.50261138  0.28443454  1
  Nb  Nb122  1  0.29848189  0.49739692  0.70416186  1
  Nb  Nb123  1  0.10711725  0.09489733  0.69658256  1
  Nb  Nb124  1  0.49978380  0.29632905  0.89998942  1
  Nb  Nb125  1  0.40370480  -0.00315084  0.60118928  1
  Nb  Nb126  1  0.39259626  0.59864662  0.79395116  1
  Nb  Nb127  1  0.39273883  0.60504493  0.60325466  1
  Nb  Nb128  1  0.20136209  0.19762283  0.40527332  1
  Nb  Nb129  1  0.80196870  0.00556213  0.00610973  1
  Nb  Nb130  1  0.00158999  0.79230254  0.20576141  1
  Nb  Nb131  1  -0.00333112  0.40730187  0.80676583  1
  Nb  Nb132  1  0.19940725  0.59917486  0.79950999  1
  Nb  Nb133  1  0.79767741  0.60670672  0.60331232  1
  Nb  Nb134  1  -0.00050596  0.79781511  0.39263414  1
  Nb  Nb135  1  0.40085938  0.19289830  0.20576372  1
  Nb  Nb136  1  0.60023263  0.59261375  0.00758307  1
  Nb  Nb137  1  0.60195077  0.39806107  0.40278280  1
  Nb  Nb138  1  0.39688703  0.60460915  0.19549460  1
  Nb  Nb139  1  0.40169318  0.19577840  0.40195447  1
  Nb  Nb140  1  0.40257555  0.19660799  0.80170681  1
  Nb  Nb141  1  0.19914964  0.19256738  0.60193462  1
  Nb  Nb142  1  0.39613368  0.80021302  0.60104428  1
  Nb  Nb143  1  0.40357349  0.39604537  -0.00071047  1
  Nb  Nb144  1  -0.00152137  0.20355860  0.20071339  1
  Nb  Nb145  1  0.60350719  0.59509006  0.39569676  1
  Nb  Nb146  1  0.79018249  0.00107215  0.39865474  1
  Nb  Nb147  1  0.60067876  0.39510141  0.80560572  1
  Nb  Nb148  1  0.60342406  0.39777570  -0.00222422  1
  Nb  Nb149  1  0.59870898  0.00395246  0.39740326  1
  Pd  Pd150  1  0.80634304  -0.00081203  0.81400451  1
  Pd  Pd151  1  0.19966663  0.59590531  0.60527796  1
  Pd  Pd152  1  0.79954006  0.59347414  0.40292667  1
  Pd  Pd153  1  0.81188161  0.20473102  0.20046294  1
  Pd  Pd154  1  0.79583353  0.00904963  0.58899203  1
  Pd  Pd155  1  0.80881041  0.81231971  0.40538104  1
  Pd  Pd156  1  0.39891667  0.79681271  0.20100266  1
  Pd  Pd157  1  0.60272554  0.38942937  0.60172362  1
  Pd  Pd158  1  0.40556372  0.00210450  0.19048809  1
  Pd  Pd159  1  0.40488546  0.38863911  0.40983193  1
  Pd  Pd160  1  0.81242448  0.39331960  0.20504225  1
  Pd  Pd161  1  0.79807421  0.81117205  0.00257834  1
  Pd  Pd162  1  0.59674746  0.20165611  0.19355249  1
  Pd  Pd163  1  0.19720229  0.59461293  0.39547178  1
  Pd  Pd164  1  0.19832397  0.00266230  0.80803186  1
  Pd  Pd165  1  0.59701120  0.00125535  0.81008243  1
  Pd  Pd166  1  0.40781973  0.00781486  0.80010314  1
  Pd  Pd167  1  -0.01266977  0.38920467  0.20305634  1
  Pd  Pd168  1  0.40247424  0.79512326  0.79754247  1
  Pd  Pd169  1  0.59882091  0.79907937  0.60397655  1
  Pd  Pd170  1  0.20696831  0.19624514  0.79547413  1
  Pd  Pd171  1  0.80162428  0.18922898  0.60157806  1
  Pd  Pd172  1  -0.00275894  0.60829895  0.00653013  1
  Pd  Pd173  1  0.00435234  0.40167029  0.39354150  1
  Pd  Pd174  1  0.19931064  0.79753567  -0.00448601  1
  Pd  Pd175  1  0.60587684  0.20183456  0.00346238  1
  Pd  Pd176  1  0.20545164  0.40304457  0.19469611  1
  Pd  Pd177  1  0.19707414  0.00003032  -0.00446006  1
  Pd  Pd178  1  0.19187813  0.19571241  -0.00257879  1
  Pd  Pd179  1  0.59725712  0.60527622  0.19906395  1
  Pd  Pd180  1  0.18953400  0.79959969  0.39208460  1
  Pd  Pd181  1  0.19832830  0.80937943  0.59946118  1
  Pd  Pd182  1  0.80489123  0.79491979  0.59018630  1
  Pd  Pd183  1  0.80430302  0.60091516  0.19006865  1
  Pd  Pd184  1  -0.00622946  -0.00594670  0.79735993  1
  Pd  Pd185  1  0.59561433  0.60047286  0.81142162  1
  Pd  Pd186  1  -0.00835247  0.59486631  0.59321555  1
  Pd  Pd187  1  0.19534280  0.79524825  0.81180950  1
  Pd  Pd188  1  0.00397333  0.19788600  0.00718538  1
  Pd  Pd189  1  0.60357352  0.20060082  0.39687322  1
  Pd  Pd190  1  0.60436431  0.80630190  0.80786586  1
  Pd  Pd191  1  0.19859886  0.60774795  -0.01073989  1
  Pd  Pd192  1  0.59540187  0.20448250  0.79306933  1
  Pd  Pd193  1  0.40413778  0.00557734  0.40570622  1
  Pd  Pd194  1  0.59999896  0.61039054  0.59644788  1
  Pd  Pd195  1  0.80533314  0.40000407  0.79809711  1
  Pd  Pd196  1  0.39833184  0.40194770  0.59499264  1
  Pd  Pd197  1  -0.00053957  0.80546173  0.59364489  1
  Pd  Pd198  1  -0.00139328  0.20702203  0.79143144  1
  Pd  Pd199  1  0.00806773  0.20375929  0.60759659  1
  Rh  Rh200  1  0.19720382  0.19757337  0.20940839  1
  Rh  Rh201  1  0.01515591  0.21085069  0.39089336  1
  Rh  Rh202  1  0.21278699  0.59617034  0.20558669  1
  Rh  Rh203  1  0.19895609  0.39524012  0.59953033  1
  Rh  Rh204  1  0.80173562  0.39779069  -0.00804613  1
  Rh  Rh205  1  -0.00885305  -0.01181524  0.38955817  1
  Rh  Rh206  1  0.60061474  -0.00267910  0.59447672  1
  Rh  Rh207  1  0.59183449  -0.00121469  0.20361015  1
  Rh  Rh208  1  -0.00409917  0.40083413  0.60747515  1
  Rh  Rh209  1  0.39535614  0.20115212  0.00059931  1
  Rh  Rh210  1  0.80572229  0.18890258  0.79175408  1
  Rh  Rh211  1  0.39852568  0.80868202  0.00490108  1
  Rh  Rh212  1  0.80264432  -0.00412711  0.19706024  1
  Rh  Rh213  1  0.80566430  0.60859454  0.79369052  1
  Rh  Rh214  1  0.00100970  0.59928656  0.40424788  1
  Rh  Rh215  1  0.39041067  0.19421716  0.59965762  1
  Rh  Rh216  1  0.79338784  0.18838348  0.39952779  1
  Rh  Rh217  1  0.60777095  0.00483000  -0.00390753  1
  Rh  Rh218  1  0.00252452  0.00027088  0.20058539  1
  Rh  Rh219  1  0.80634453  0.80545330  0.19642664  1
  Rh  Rh220  1  -0.00749818  0.39676874  -0.00643803  1
  Rh  Rh221  1  0.19708238  -0.00486809  0.19339682  1
  Rh  Rh222  1  0.60382145  0.80221072  0.39221854  1
  Rh  Rh223  1  0.80147580  0.80646948  0.80876775  1
  Rh  Rh224  1  0.60113576  0.79317467  0.00361304  1
  Rh  Rh225  1  0.79924547  0.40411207  0.38952899  1
  Rh  Rh226  1  -0.00504019  0.00479970  -0.00276057  1
  Rh  Rh227  1  0.39368851  0.79746848  0.39732788  1
  Rh  Rh228  1  0.40209358  0.60464803  0.39582304  1
  Rh  Rh229  1  -0.00990828  0.60525499  0.18729547  1
  Rh  Rh230  1  0.59715300  0.79813652  0.19786040  1
  Rh  Rh231  1  0.00361498  0.79487537  0.01251382  1
  Rh  Rh232  1  0.00455353  0.59436306  0.80156722  1
  Rh  Rh233  1  -0.00856413  0.80617206  0.79589878  1
  Rh  Rh234  1  0.79334408  0.60163934  0.00510947  1
  Rh  Rh235  1  0.00091401  -0.00624315  0.61230380  1
  Rh  Rh236  1  0.80092519  0.19208955  0.00128806  1
  Rh  Rh237  1  0.40626027  0.39568495  0.80478009  1
  Rh  Rh238  1  0.18410014  0.41115383  0.80136245  1
  Rh  Rh239  1  0.60808894  0.20408175  0.60761435  1
  Rh  Rh240  1  0.60908250  0.38887027  0.20203305  1
  Rh  Rh241  1  0.19613494  0.39943342  0.40095266  1
  Rh  Rh242  1  0.40052301  -0.00317464  0.00308676  1
  Rh  Rh243  1  0.20259204  0.39846502  0.00579694  1
  Rh  Rh244  1  0.38628324  0.40011969  0.18780493  1
  Rh  Rh245  1  0.40489968  0.59430338  0.00125557  1
  Rh  Rh246  1  0.20311915  -0.00082794  0.60147856  1
  Rh  Rh247  1  0.19638729  0.80187628  0.20364876  1
  Rh  Rh248  1  0.80444440  0.41130960  0.60968551  1
  Rh  Rh249  1  0.19906155  0.00322945  0.39999363  1
