# generated using pymatgen
data_ZrScNbPdRh
_symmetry_space_group_name_H-M   'P 1'
_cell_length_a   16.55554897
_cell_length_b   16.55683170
_cell_length_c   16.55931167
_cell_angle_alpha   89.96452547
_cell_angle_beta   89.98635564
_cell_angle_gamma   89.98042137
_symmetry_Int_Tables_number   1
_chemical_formula_structural   ZrScNbPdRh
_chemical_formula_sum   'Zr50 Sc50 Nb50 Pd50 Rh50'
_cell_volume   4539.02923199
_cell_formula_units_Z   50
loop_
 _symmetry_equiv_pos_site_id
 _symmetry_equiv_pos_as_xyz
  1  'x, y, z'
loop_
 _atom_site_type_symbol
 _atom_site_label
 _atom_site_symmetry_multiplicity
 _atom_site_fract_x
 _atom_site_fract_y
 _atom_site_fract_z
 _atom_site_occupancy
  Zr  Zr0  1  0.89492136  0.69913717  0.10313047  1
  Zr  Zr1  1  0.09574749  0.49879362  0.49349324  1
  Zr  Zr2  1  0.48651414  0.70838649  0.50334849  1
  Zr  Zr3  1  0.50148955  0.48980323  0.90617260  1
  Zr  Zr4  1  0.30216364  0.29129403  0.29794245  1
  Zr  Zr5  1  0.30577737  0.50734538  0.49933584  1
  Zr  Zr6  1  0.50596245  0.29303495  0.90495266  1
  Zr  Zr7  1  0.50805015  0.49866739  0.10047120  1
  Zr  Zr8  1  0.89820610  0.50819058  0.09749272  1
  Zr  Zr9  1  0.89928344  0.70765669  0.29712096  1
  Zr  Zr10  1  0.49742411  0.30229721  0.70889798  1
  Zr  Zr11  1  0.29868870  0.49917374  0.29437603  1
  Zr  Zr12  1  0.09449417  0.49751851  0.90512615  1
  Zr  Zr13  1  0.30302488  0.70707660  0.70915240  1
  Zr  Zr14  1  0.30281947  0.89879286  0.49967761  1
  Zr  Zr15  1  0.69911463  0.29507315  0.29899165  1
  Zr  Zr16  1  0.90279875  0.88927089  0.90061432  1
  Zr  Zr17  1  0.89718136  0.29325386  0.30838270  1
  Zr  Zr18  1  0.29796493  0.50292075  0.09635086  1
  Zr  Zr19  1  0.30587550  0.49957143  0.70724230  1
  Zr  Zr20  1  0.10696947  0.09672707  0.70058727  1
  Zr  Zr21  1  0.09797729  0.30128774  0.09859430  1
  Zr  Zr22  1  0.90026702  0.09664315  0.10487102  1
  Zr  Zr23  1  0.49548995  0.90274232  0.10695776  1
  Zr  Zr24  1  0.08907211  0.70039243  0.50102733  1
  Zr  Zr25  1  0.09307468  0.30198463  0.90131817  1
  Zr  Zr26  1  0.30024264  0.29301401  0.70165335  1
  Zr  Zr27  1  0.70424140  0.29735794  0.48999533  1
  Zr  Zr28  1  0.30407529  0.70469457  0.89927145  1
  Zr  Zr29  1  0.69553927  0.09089254  0.89769003  1
  Zr  Zr30  1  0.68295698  0.50054164  0.30347528  1
  Zr  Zr31  1  0.10205842  0.90276199  0.49444790  1
  Zr  Zr32  1  0.69765596  0.08681555  0.50285438  1
  Zr  Zr33  1  0.11053863  0.09531788  0.10334171  1
  Zr  Zr34  1  0.29908733  0.70185897  0.09675694  1
  Zr  Zr35  1  0.10621434  0.71361864  0.89231373  1
  Zr  Zr36  1  0.09246595  0.50161841  0.70772414  1
  Zr  Zr37  1  0.90234419  0.50299534  0.48815005  1
  Zr  Zr38  1  0.30089133  0.70689131  0.49977242  1
  Zr  Zr39  1  0.70061860  0.29640400  0.89844424  1
  Zr  Zr40  1  0.70005454  0.29651540  0.70195879  1
  Zr  Zr41  1  0.89667035  0.30537674  0.90398830  1
  Zr  Zr42  1  0.49624539  0.30329140  0.29164136  1
  Zr  Zr43  1  0.70093959  0.91024555  0.69725885  1
  Zr  Zr44  1  0.69952439  0.52204181  0.68931077  1
  Zr  Zr45  1  0.89571781  0.70433058  0.69655828  1
  Zr  Zr46  1  0.90179864  0.50757186  0.29167243  1
  Zr  Zr47  1  0.89524659  0.09795631  0.69806998  1
  Zr  Zr48  1  0.90024792  0.49809458  0.90212183  1
  Zr  Zr49  1  0.49693299  0.30031979  0.09053042  1
  Sc  Sc50  1  0.50198088  0.70108958  0.70954423  1
  Sc  Sc51  1  0.30647047  0.70609485  0.30692785  1
  Sc  Sc52  1  0.50037490  0.90598792  0.50326500  1
  Sc  Sc53  1  0.29322510  0.09684500  0.50279905  1
  Sc  Sc54  1  0.31377693  0.29728732  0.90014983  1
  Sc  Sc55  1  0.70479442  0.09205656  0.30268704  1
  Sc  Sc56  1  0.10591928  0.29505305  0.30616553  1
  Sc  Sc57  1  0.09494580  0.49440348  0.29623856  1
  Sc  Sc58  1  0.29487465  0.28948766  0.49246690  1
  Sc  Sc59  1  0.30111185  0.09849691  0.69557242  1
  Sc  Sc60  1  0.29480301  0.89427094  0.29692878  1
  Sc  Sc61  1  0.10392540  0.29503992  0.70226392  1
  Sc  Sc62  1  0.30558416  0.29683820  0.10221056  1
  Sc  Sc63  1  0.89448658  0.50811550  0.71011772  1
  Sc  Sc64  1  0.09200335  0.90027798  0.70843637  1
  Sc  Sc65  1  0.50392034  0.50386089  0.70291182  1
  Sc  Sc66  1  0.89464298  0.89146467  0.09871780  1
  Sc  Sc67  1  0.89104296  0.29940214  0.70913901  1
  Sc  Sc68  1  0.30419616  0.90319819  0.69747532  1
  Sc  Sc69  1  0.89742017  0.69983082  0.90763232  1
  Sc  Sc70  1  0.69498974  0.70125256  0.09485246  1
  Sc  Sc71  1  0.70578416  0.69918352  0.50909175  1
  Sc  Sc72  1  0.30294301  0.09796797  0.89548250  1
  Sc  Sc73  1  0.49224432  0.09127485  0.09556626  1
  Sc  Sc74  1  0.70438064  0.09636156  0.70424511  1
  Sc  Sc75  1  0.30099876  0.89822828  0.89392502  1
  Sc  Sc76  1  0.89984393  0.70640030  0.50151515  1
  Sc  Sc77  1  0.70261676  0.50438029  0.90220485  1
  Sc  Sc78  1  0.49386607  0.90585911  0.70052144  1
  Sc  Sc79  1  0.89420497  0.10001689  0.90658987  1
  Sc  Sc80  1  0.69640641  0.89881326  0.10276146  1
  Sc  Sc81  1  0.89950001  0.09935385  0.49321707  1
  Sc  Sc82  1  0.50563511  0.51656319  0.49514527  1
  Sc  Sc83  1  0.10112873  0.09534931  0.49020759  1
  Sc  Sc84  1  0.50891100  0.89934026  0.29774858  1
  Sc  Sc85  1  0.89668989  0.09522947  0.30414531  1
  Sc  Sc86  1  0.89965870  0.89917904  0.50195596  1
  Sc  Sc87  1  0.30253670  0.08957050  0.10451474  1
  Sc  Sc88  1  0.30297626  0.50501068  0.90564229  1
  Sc  Sc89  1  0.49689561  0.28666406  0.48795633  1
  Sc  Sc90  1  0.10792406  0.70185948  0.09250303  1
  Sc  Sc91  1  0.10301652  0.50066469  0.09874204  1
  Sc  Sc92  1  0.70307681  0.29744739  0.09041426  1
  Sc  Sc93  1  0.90208264  0.89978828  0.69529478  1
  Sc  Sc94  1  0.09527011  0.71235500  0.30222378  1
  Sc  Sc95  1  0.89391110  0.29503278  0.09572106  1
  Sc  Sc96  1  0.71335056  0.09755403  0.10322692  1
  Sc  Sc97  1  0.49608882  0.09705810  0.29791118  1
  Sc  Sc98  1  0.50719195  0.70381203  0.30332386  1
  Sc  Sc99  1  0.49749514  0.09469368  0.49712432  1
  Nb  Nb100  1  0.70137379  0.49952396  0.09979608  1
  Nb  Nb101  1  0.10251508  0.09813948  0.89680189  1
  Nb  Nb102  1  0.69840860  0.89863729  0.49980569  1
  Nb  Nb103  1  0.09158271  0.30303972  0.49667133  1
  Nb  Nb104  1  0.68845035  0.70921773  0.89705562  1
  Nb  Nb105  1  0.70035060  0.50175343  0.50147598  1
  Nb  Nb106  1  0.90635181  0.89297002  0.30112769  1
  Nb  Nb107  1  0.09831910  0.70225436  0.69890161  1
  Nb  Nb108  1  0.50984642  0.70897434  0.91004234  1
  Nb  Nb109  1  0.70211404  0.71198118  0.30471620  1
  Nb  Nb110  1  0.50276117  0.09625290  0.69520711  1
  Nb  Nb111  1  0.10346520  0.09498091  0.29783890  1
  Nb  Nb112  1  0.11856839  0.90188524  0.09918289  1
  Nb  Nb113  1  0.09738320  0.90484189  0.30216309  1
  Nb  Nb114  1  0.70110844  0.89087603  0.31221542  1
  Nb  Nb115  1  0.69239305  0.89586502  0.90116012  1
  Nb  Nb116  1  0.30189930  0.89931449  0.09913457  1
  Nb  Nb117  1  0.50396898  0.70304171  0.09659458  1
  Nb  Nb118  1  0.49682294  0.50179166  0.29597223  1
  Nb  Nb119  1  0.50590472  0.90572246  0.90570882  1
  Nb  Nb120  1  0.09906195  0.90095632  0.90257967  1
  Nb  Nb121  1  0.28925868  0.10300244  0.30009233  1
  Nb  Nb122  1  0.70169200  0.70228970  0.70158085  1
  Nb  Nb123  1  0.49929392  0.09206384  0.90260813  1
  Nb  Nb124  1  0.90214028  0.29957108  0.49594965  1
  Nb  Nb125  1  0.60520352  0.80179602  0.60367093  1
  Nb  Nb126  1  0.19796154  0.60212554  0.40453068  1
  Nb  Nb127  1  0.60135692  0.39648077  0.59430009  1
  Nb  Nb128  1  0.79278755  0.60317878  0.39386450  1
  Nb  Nb129  1  0.78773258  0.79935864  0.80152795  1
  Nb  Nb130  1  0.00130562  0.19366354  0.79906176  1
  Nb  Nb131  1  0.39213866  0.00038688  0.39481753  1
  Nb  Nb132  1  0.79901459  0.40259399  0.59221875  1
  Nb  Nb133  1  0.19737612  0.19585361  -0.00270519  1
  Nb  Nb134  1  0.59970417  0.20028183  0.60252403  1
  Nb  Nb135  1  0.00680532  -0.00671036  0.19964867  1
  Nb  Nb136  1  0.40172522  0.40481873  0.39736696  1
  Nb  Nb137  1  -0.00493578  0.39410920  0.59752392  1
  Nb  Nb138  1  0.01167699  -0.00624601  0.00285236  1
  Nb  Nb139  1  0.79496518  0.40670801  0.20020824  1
  Nb  Nb140  1  0.40707251  0.80400914  0.00214813  1
  Nb  Nb141  1  0.59965471  0.19956779  0.19727753  1
  Nb  Nb142  1  -0.00180520  0.20467526  0.59833466  1
  Nb  Nb143  1  0.19940722  0.40299179  0.60031293  1
  Nb  Nb144  1  0.19691686  0.60224248  0.60323341  1
  Nb  Nb145  1  0.40727292  0.60149667  0.19627108  1
  Nb  Nb146  1  0.19525003  0.79505215  0.60372217  1
  Nb  Nb147  1  0.20127966  0.39901566  0.79952362  1
  Nb  Nb148  1  0.40260058  0.39778681  0.59328585  1
  Nb  Nb149  1  0.00400428  0.19076174  0.20246466  1
  Pd  Pd150  1  0.20904495  0.39106767  -0.00722576  1
  Pd  Pd151  1  0.41221530  0.60140716  0.80991794  1
  Pd  Pd152  1  0.00367957  0.18913587  0.00081203  1
  Pd  Pd153  1  0.59701603  0.81048321  0.79002083  1
  Pd  Pd154  1  0.79139874  0.80525515  0.19807703  1
  Pd  Pd155  1  0.19035051  0.20286318  0.59096807  1
  Pd  Pd156  1  0.58658771  0.40025425  0.40874144  1
  Pd  Pd157  1  0.40256946  0.00308471  0.79971356  1
  Pd  Pd158  1  0.79010293  0.41003041  0.79256350  1
  Pd  Pd159  1  -0.00499817  0.59356079  0.60370899  1
  Pd  Pd160  1  -0.00750583  0.00458293  0.80785901  1
  Pd  Pd161  1  0.00647224  0.80209669  0.00946091  1
  Pd  Pd162  1  0.80716288  -0.00893458  0.80607954  1
  Pd  Pd163  1  0.60414929  0.00250873  0.01065720  1
  Pd  Pd164  1  0.40161615  0.59947034  0.60936991  1
  Pd  Pd165  1  0.20054829  0.60991035  0.21114747  1
  Pd  Pd166  1  0.01368444  0.60828276  0.19872020  1
  Pd  Pd167  1  0.00898942  0.80630241  0.18728573  1
  Pd  Pd168  1  0.60402397  0.18568525  0.00862764  1
  Pd  Pd169  1  0.60032215  0.61060405  0.19903324  1
  Pd  Pd170  1  0.60575359  0.00569411  0.20224167  1
  Pd  Pd171  1  0.79071128  0.60740634  -0.00531553  1
  Pd  Pd172  1  0.40411864  0.79507711  0.20048777  1
  Pd  Pd173  1  0.59666960  0.18773195  0.79596926  1
  Pd  Pd174  1  0.60971473  0.41023485  0.79376029  1
  Pd  Pd175  1  0.20036548  0.39360890  0.19731603  1
  Pd  Pd176  1  0.78366661  0.60128352  0.20612650  1
  Pd  Pd177  1  0.79986986  0.20145572  0.59278608  1
  Pd  Pd178  1  0.80500277  -0.01407913  0.20765767  1
  Pd  Pd179  1  0.19889914  0.79652179  0.20359304  1
  Pd  Pd180  1  0.59659866  0.79884870  0.41283892  1
  Pd  Pd181  1  0.80049392  0.40955712  0.39321435  1
  Pd  Pd182  1  0.59635925  0.59791399  0.80909308  1
  Pd  Pd183  1  0.20416140  -0.00673288  0.79729991  1
  Pd  Pd184  1  0.80433432  -0.00990723  0.40011845  1
  Pd  Pd185  1  0.60034967  0.18670092  0.39555020  1
  Pd  Pd186  1  0.80341272  -0.00918852  -0.00130881  1
  Pd  Pd187  1  0.40439958  0.18975744  0.19469786  1
  Pd  Pd188  1  0.60626930  0.39033141  0.19066454  1
  Pd  Pd189  1  0.40638716  0.18926155  0.80272396  1
  Pd  Pd190  1  0.00654896  0.60789516  -0.00090523  1
  Pd  Pd191  1  0.00216461  0.00665841  0.59461727  1
  Pd  Pd192  1  -0.00963150  0.38837939  0.19851700  1
  Pd  Pd193  1  0.60460201  0.61546673  0.40719221  1
  Pd  Pd194  1  0.19871371  0.59569750  0.80262377  1
  Pd  Pd195  1  0.40697938  0.19936481  0.59606579  1
  Pd  Pd196  1  -0.00453273  0.61259002  0.80764094  1
  Pd  Pd197  1  0.20711328  0.40321738  0.40285225  1
  Pd  Pd198  1  0.20692483  0.00161040  -0.00894324  1
  Pd  Pd199  1  0.40756739  0.60554371  0.00184306  1
  Rh  Rh200  1  0.59801140  0.00043751  0.60223108  1
  Rh  Rh201  1  0.39223614  0.19161860  0.39608198  1
  Rh  Rh202  1  0.41272452  0.80559354  0.81121221  1
  Rh  Rh203  1  0.20762446  -0.00215640  0.39396591  1
  Rh  Rh204  1  0.19375557  0.19634156  0.40229225  1
  Rh  Rh205  1  0.40321234  0.80210749  0.61052355  1
  Rh  Rh206  1  0.59323512  0.61131289  0.59595679  1
  Rh  Rh207  1  0.39024994  0.00017786  0.21202760  1
  Rh  Rh208  1  0.60266147  0.59656268  -0.00188680  1
  Rh  Rh209  1  0.39646343  -0.00830117  -0.00586721  1
  Rh  Rh210  1  0.39702798  0.40900621  0.19788221  1
  Rh  Rh211  1  0.20988670  0.80619261  -0.00422430  1
  Rh  Rh212  1  -0.00194038  0.60731646  0.38690817  1
  Rh  Rh213  1  0.39551650  0.59592882  0.38508366  1
  Rh  Rh214  1  0.79226708  0.80702340  0.60460799  1
  Rh  Rh215  1  0.60836902  0.40107705  -0.00058525  1
  Rh  Rh216  1  -0.00127616  0.39669473  0.39190715  1
  Rh  Rh217  1  0.79730970  0.18942457  0.40312005  1
  Rh  Rh218  1  0.59649611  0.80966694  0.00845131  1
  Rh  Rh219  1  -0.00399146  0.80529422  0.40443982  1
  Rh  Rh220  1  0.79879861  0.40387356  0.00631491  1
  Rh  Rh221  1  0.19833032  0.80905991  0.79266624  1
  Rh  Rh222  1  0.19480302  0.60269449  -0.00995424  1
  Rh  Rh223  1  0.39738638  0.00547102  0.59249341  1
  Rh  Rh224  1  0.78928470  0.79835447  -0.00619091  1
  Rh  Rh225  1  0.39662459  0.40018061  0.00189897  1
  Rh  Rh226  1  0.00235979  0.38814206  0.79087365  1
  Rh  Rh227  1  0.60476705  0.79891431  0.20010137  1
  Rh  Rh228  1  0.39392559  0.19010383  -0.00014843  1
  Rh  Rh229  1  0.19691254  0.20358777  0.19434703  1
  Rh  Rh230  1  0.19615971  0.20677773  0.81322710  1
  Rh  Rh231  1  0.59443562  -0.00264229  0.39623567  1
  Rh  Rh232  1  0.00617079  0.80754615  0.60137159  1
  Rh  Rh233  1  0.19659827  -0.01024836  0.60476008  1
  Rh  Rh234  1  0.81104510  0.59580813  0.58913020  1
  Rh  Rh235  1  -0.00745906  0.40517370  0.01132617  1
  Rh  Rh236  1  0.39733383  0.40028389  0.80087300  1
  Rh  Rh237  1  0.40821969  0.81538393  0.39373927  1
  Rh  Rh238  1  0.79877265  0.61256779  0.80948997  1
  Rh  Rh239  1  0.79455341  0.19585691  -0.00635813  1
  Rh  Rh240  1  -0.00809800  0.79609294  0.79742604  1
  Rh  Rh241  1  0.59235669  0.00092912  0.79986823  1
  Rh  Rh242  1  0.80489985  0.19489126  0.80915252  1
  Rh  Rh243  1  0.80470414  -0.00123129  0.59372160  1
  Rh  Rh244  1  0.00442016  0.19559279  0.39819831  1
  Rh  Rh245  1  -0.00411969  -0.00266609  0.39344055  1
  Rh  Rh246  1  0.80361745  0.79858783  0.40411456  1
  Rh  Rh247  1  0.79978666  0.20739640  0.20209364  1
  Rh  Rh248  1  0.20376776  -0.00834116  0.20785706  1
  Rh  Rh249  1  0.19309966  0.79711192  0.40482208  1
