# generated using pymatgen
data_ZrScNbPdRh
_symmetry_space_group_name_H-M   'P 1'
_cell_length_a   16.55613456
_cell_length_b   16.56009976
_cell_length_c   16.56066821
_cell_angle_alpha   90.00446902
_cell_angle_beta   90.01314109
_cell_angle_gamma   90.04718239
_symmetry_Int_Tables_number   1
_chemical_formula_structural   ZrScNbPdRh
_chemical_formula_sum   'Zr50 Sc50 Nb50 Pd50 Rh50'
_cell_volume   4540.45726671
_cell_formula_units_Z   50
loop_
 _symmetry_equiv_pos_site_id
 _symmetry_equiv_pos_as_xyz
  1  'x, y, z'
loop_
 _atom_site_type_symbol
 _atom_site_label
 _atom_site_symmetry_multiplicity
 _atom_site_fract_x
 _atom_site_fract_y
 _atom_site_fract_z
 _atom_site_occupancy
  Zr  Zr0  1  0.90388598  0.90248991  0.49650522  1
  Zr  Zr1  1  0.08939402  0.89378775  0.50437136  1
  Zr  Zr2  1  0.08911518  0.09904108  0.50513478  1
  Zr  Zr3  1  0.49110645  0.49997461  0.90370437  1
  Zr  Zr4  1  0.29991505  0.89678903  0.30376778  1
  Zr  Zr5  1  0.89857824  0.90006197  0.09670088  1
  Zr  Zr6  1  0.09590537  0.29643188  0.10134433  1
  Zr  Zr7  1  0.48745946  0.49634793  0.49250955  1
  Zr  Zr8  1  0.51083102  0.30374828  0.90365586  1
  Zr  Zr9  1  0.89944439  0.49306506  0.10613520  1
  Zr  Zr10  1  0.10003580  0.69793815  0.69184762  1
  Zr  Zr11  1  0.90150328  0.29818819  0.70240343  1
  Zr  Zr12  1  0.30239542  0.50319253  0.89514820  1
  Zr  Zr13  1  0.89966450  0.89657185  0.89520646  1
  Zr  Zr14  1  0.09796215  0.90245683  0.10015495  1
  Zr  Zr15  1  0.69109009  0.69604756  0.69660205  1
  Zr  Zr16  1  0.69098605  0.48757894  0.89817920  1
  Zr  Zr17  1  0.70653911  0.89444495  0.30154632  1
  Zr  Zr18  1  0.50601766  0.49391029  0.10057095  1
  Zr  Zr19  1  0.49559032  0.90102822  0.69522007  1
  Zr  Zr20  1  0.29989928  0.09718163  0.30001329  1
  Zr  Zr21  1  0.09431673  0.90504202  0.30417884  1
  Zr  Zr22  1  0.10139661  0.89446865  0.70898005  1
  Zr  Zr23  1  0.50579804  0.29696842  0.49648621  1
  Zr  Zr24  1  0.50421372  0.09695747  0.69308953  1
  Zr  Zr25  1  0.30196897  0.10309280  0.11382442  1
  Zr  Zr26  1  0.30532509  0.70388534  0.29746766  1
  Zr  Zr27  1  0.70796630  0.29624691  0.70238104  1
  Zr  Zr28  1  0.29483628  0.30374533  0.69123234  1
  Zr  Zr29  1  0.89668909  0.10118327  0.50140944  1
  Zr  Zr30  1  0.50177511  0.89795526  0.10029168  1
  Zr  Zr31  1  0.50715632  0.09950354  0.10341173  1
  Zr  Zr32  1  0.29985708  0.10431152  0.50615436  1
  Zr  Zr33  1  0.29686204  0.49780707  0.50447202  1
  Zr  Zr34  1  0.89309785  0.10865546  0.09506621  1
  Zr  Zr35  1  0.10423814  0.10577001  0.29600081  1
  Zr  Zr36  1  0.29226361  0.28892281  0.29670432  1
  Zr  Zr37  1  0.30177193  0.69454042  0.90393591  1
  Zr  Zr38  1  0.29713145  0.50097252  0.31504131  1
  Zr  Zr39  1  0.09272128  0.90392385  0.90155354  1
  Zr  Zr40  1  0.09198743  0.29969053  0.69711701  1
  Zr  Zr41  1  0.50436051  0.51158319  0.70201423  1
  Zr  Zr42  1  0.30475244  0.31170209  0.50053008  1
  Zr  Zr43  1  0.31260266  0.09430863  0.70186063  1
  Zr  Zr44  1  0.90735421  0.69420620  0.70577533  1
  Zr  Zr45  1  0.89726550  0.89438298  0.30654019  1
  Zr  Zr46  1  0.90349568  0.70024803  0.90180340  1
  Zr  Zr47  1  0.69816968  0.10804341  0.89491282  1
  Zr  Zr48  1  0.50656966  0.10707274  0.29418754  1
  Zr  Zr49  1  0.50671135  0.70293094  0.69976073  1
  Sc  Sc50  1  0.69406915  0.89696767  0.10014191  1
  Sc  Sc51  1  0.50121521  0.70111245  0.50184949  1
  Sc  Sc52  1  0.69754798  0.70847867  0.89289669  1
  Sc  Sc53  1  0.90436637  0.49828624  0.70227190  1
  Sc  Sc54  1  0.70723278  0.29870375  0.49569706  1
  Sc  Sc55  1  0.69665696  0.10514636  0.49354238  1
  Sc  Sc56  1  0.70006069  0.50442453  0.69946432  1
  Sc  Sc57  1  0.89487966  0.30240485  0.50390436  1
  Sc  Sc58  1  0.88948153  0.09998776  0.29417821  1
  Sc  Sc59  1  0.70668681  0.30599778  0.09778784  1
  Sc  Sc60  1  0.29865198  0.69516430  0.50596847  1
  Sc  Sc61  1  0.49847532  0.69352553  0.89284385  1
  Sc  Sc62  1  0.29882471  0.70883358  0.69838576  1
  Sc  Sc63  1  0.30884126  0.09515628  0.89113815  1
  Sc  Sc64  1  0.70302216  0.29867540  0.29899490  1
  Sc  Sc65  1  0.30772747  0.89001154  0.51015167  1
  Sc  Sc66  1  0.50463456  0.89659458  0.50052907  1
  Sc  Sc67  1  0.09853126  0.68154771  0.29803306  1
  Sc  Sc68  1  0.49988455  0.69883899  0.30945089  1
  Sc  Sc69  1  0.70314249  0.50043948  0.49392982  1
  Sc  Sc70  1  0.90333566  0.49612025  0.48457404  1
  Sc  Sc71  1  0.90334673  0.50250230  0.89174991  1
  Sc  Sc72  1  0.50372623  0.69992442  0.10612531  1
  Sc  Sc73  1  0.90253719  0.10223977  0.69805859  1
  Sc  Sc74  1  0.51073041  0.89974398  0.89777183  1
  Sc  Sc75  1  0.09248686  0.49653686  0.69885759  1
  Sc  Sc76  1  0.50913177  0.30293483  0.29756726  1
  Sc  Sc77  1  0.29514077  0.89407896  0.11549228  1
  Sc  Sc78  1  0.69841489  0.49379234  0.30016455  1
  Sc  Sc79  1  0.90565039  0.10322972  0.89983499  1
  Sc  Sc80  1  0.89963725  0.69828260  0.30806063  1
  Sc  Sc81  1  0.09870875  0.30650737  0.89479181  1
  Sc  Sc82  1  0.10351281  0.30529677  0.50535170  1
  Sc  Sc83  1  0.08623254  0.09742525  0.09846051  1
  Sc  Sc84  1  0.09613971  0.70797710  0.90031416  1
  Sc  Sc85  1  0.70293368  0.90368096  0.49473683  1
  Sc  Sc86  1  0.49810418  0.89146949  0.30408303  1
  Sc  Sc87  1  0.29643283  0.89584145  0.88508989  1
  Sc  Sc88  1  0.29897482  0.31844832  0.90372273  1
  Sc  Sc89  1  0.69310410  0.70229367  0.49542633  1
  Sc  Sc90  1  0.50561367  0.29890304  0.10529993  1
  Sc  Sc91  1  0.30270880  0.50009800  0.69343299  1
  Sc  Sc92  1  0.70191437  0.70872015  0.10830412  1
  Sc  Sc93  1  0.10531238  0.69900808  0.09780557  1
  Sc  Sc94  1  0.70108313  0.70126438  0.30570471  1
  Sc  Sc95  1  0.90518603  0.70050902  0.09962835  1
  Sc  Sc96  1  0.50325758  0.10431227  0.89021526  1
  Sc  Sc97  1  0.49740267  0.29220794  0.70101962  1
  Sc  Sc98  1  0.29778485  0.49892537  0.07963569  1
  Sc  Sc99  1  0.09611182  0.50615773  0.10282514  1
  Nb  Nb100  1  0.90604380  0.31936319  0.29480491  1
  Nb  Nb101  1  0.70252451  0.09831990  0.69838943  1
  Nb  Nb102  1  0.09590839  0.30160812  0.29791691  1
  Nb  Nb103  1  0.88471513  0.29581377  0.90497118  1
  Nb  Nb104  1  0.09308723  0.70085038  0.50514593  1
  Nb  Nb105  1  0.90660041  0.70863736  0.50277736  1
  Nb  Nb106  1  0.49404820  0.49797072  0.29692986  1
  Nb  Nb107  1  0.89539074  0.89951489  0.70119365  1
  Nb  Nb108  1  0.29734232  0.30094147  0.09884624  1
  Nb  Nb109  1  0.30323445  0.69770638  0.09998075  1
  Nb  Nb110  1  0.69895921  0.10499237  0.28906732  1
  Nb  Nb111  1  0.90940518  0.49826394  0.29753359  1
  Nb  Nb112  1  0.70570183  0.90139646  0.71193263  1
  Nb  Nb113  1  0.08575095  0.49338024  0.30367332  1
  Nb  Nb114  1  0.30041488  0.89971408  0.69732871  1
  Nb  Nb115  1  0.10172318  0.49478676  0.89892858  1
  Nb  Nb116  1  0.10202396  0.09552830  0.89778704  1
  Nb  Nb117  1  0.70063663  0.50154907  0.10311862  1
  Nb  Nb118  1  0.70293091  0.10320006  0.10877245  1
  Nb  Nb119  1  0.10476493  0.51019099  0.49293472  1
  Nb  Nb120  1  0.50147234  0.09788560  0.49832746  1
  Nb  Nb121  1  0.70426436  0.29658786  0.89555486  1
  Nb  Nb122  1  0.70551705  0.90440179  0.89752433  1
  Nb  Nb123  1  0.09826749  0.10184227  0.70655717  1
  Nb  Nb124  1  0.89709148  0.29990164  0.09817831  1
  Nb  Nb125  1  0.19293569  0.79884791  0.40515169  1
  Nb  Nb126  1  0.59847236  0.40020234  0.59819723  1
  Nb  Nb127  1  -0.00786433  0.39490360  -0.00021956  1
  Nb  Nb128  1  0.80693939  0.60955448  0.59452128  1
  Nb  Nb129  1  0.19881134  0.19646740  0.80043626  1
  Nb  Nb130  1  0.40409207  0.19604971  0.40109635  1
  Nb  Nb131  1  0.80395969  0.80063143  0.60542676  1
  Nb  Nb132  1  0.39813606  0.59188961  0.19943484  1
  Nb  Nb133  1  0.19895559  -0.00201649  0.60606027  1
  Nb  Nb134  1  0.19725299  0.59760790  0.80224344  1
  Nb  Nb135  1  0.20296379  0.19452299  -0.00535200  1
  Nb  Nb136  1  0.39724486  0.80111989  0.00384233  1
  Nb  Nb137  1  0.39727303  -0.00170081  0.00313780  1
  Nb  Nb138  1  0.00060129  0.80176330  0.20322311  1
  Nb  Nb139  1  0.60764169  0.59622605  0.00373492  1
  Nb  Nb140  1  0.20498557  0.00523225  -0.00110084  1
  Nb  Nb141  1  0.80239776  0.59351967  0.19942662  1
  Nb  Nb142  1  0.19828470  0.40018483  0.20309297  1
  Nb  Nb143  1  0.20090934  -0.00350915  0.41016681  1
  Nb  Nb144  1  0.39550014  0.19880194  0.00388870  1
  Nb  Nb145  1  0.79089623  0.00110498  -0.00418465  1
  Nb  Nb146  1  -0.00148569  0.20902866  0.39304887  1
  Nb  Nb147  1  0.39167946  0.40303380  0.20098270  1
  Nb  Nb148  1  0.79318738  0.59587791  0.00326198  1
  Nb  Nb149  1  0.40020638  0.00592358  0.40462005  1
  Pd  Pd150  1  0.80411011  0.60095721  0.39938952  1
  Pd  Pd151  1  0.00201836  -0.00337392  0.61357522  1
  Pd  Pd152  1  0.79326215  -0.00169180  0.59884737  1
  Pd  Pd153  1  0.79896551  0.79248203  0.79480724  1
  Pd  Pd154  1  -0.00602062  0.58872100  0.59138873  1
  Pd  Pd155  1  0.80695514  0.01106024  0.80462661  1
  Pd  Pd156  1  0.59754359  0.79592005  0.20939423  1
  Pd  Pd157  1  0.20830170  0.58874826  0.19646726  1
  Pd  Pd158  1  0.19127218  0.39738651  0.39733351  1
  Pd  Pd159  1  0.59518757  0.79055149  -0.00625642  1
  Pd  Pd160  1  0.60885141  0.20412491  0.60018686  1
  Pd  Pd161  1  0.39092743  0.21432908  0.81081188  1
  Pd  Pd162  1  0.19658137  0.19416237  0.60768683  1
  Pd  Pd163  1  0.19182206  0.59988684  -0.00595212  1
  Pd  Pd164  1  0.40001087  0.60607754  0.60214198  1
  Pd  Pd165  1  -0.00262856  0.59343678  -0.00250966  1
  Pd  Pd166  1  0.79627192  -0.00556608  0.19309717  1
  Pd  Pd167  1  0.20217256  0.00370415  0.79901364  1
  Pd  Pd168  1  0.60258817  0.60223659  0.20192268  1
  Pd  Pd169  1  0.00528505  0.20661166  -0.01101252  1
  Pd  Pd170  1  0.20761841  0.80914053  -0.00148194  1
  Pd  Pd171  1  -0.00004562  0.40644506  0.58991564  1
  Pd  Pd172  1  0.60194251  0.20311217  0.00546470  1
  Pd  Pd173  1  0.59873337  -0.00071926  0.79704325  1
  Pd  Pd174  1  0.40624589  -0.00762380  0.20451229  1
  Pd  Pd175  1  0.79578709  0.79842290  0.00179576  1
  Pd  Pd176  1  0.19982400  0.60964776  0.40435647  1
  Pd  Pd177  1  0.40410867  0.20345575  0.59536213  1
  Pd  Pd178  1  0.80256854  0.40642717  -0.00376595  1
  Pd  Pd179  1  0.19485594  0.19884921  0.40884600  1
  Pd  Pd180  1  0.59642152  0.39501311  0.78772942  1
  Pd  Pd181  1  -0.01171679  0.20086767  0.20627601  1
  Pd  Pd182  1  0.60240512  0.00437410  -0.00282937  1
  Pd  Pd183  1  0.60990132  -0.00463078  0.59950077  1
  Pd  Pd184  1  0.80387773  0.40374064  0.79843107  1
  Pd  Pd185  1  0.80781479  0.20631586  0.39039828  1
  Pd  Pd186  1  0.19793704  0.40336100  0.79008759  1
  Pd  Pd187  1  0.79624122  0.00716817  0.39842358  1
  Pd  Pd188  1  -0.00823073  0.00017975  0.20385850  1
  Pd  Pd189  1  0.00133977  0.20309936  0.80764820  1
  Pd  Pd190  1  0.18772040  0.79307456  0.20936318  1
  Pd  Pd191  1  0.59590540  0.59547146  0.40040752  1
  Pd  Pd192  1  0.79387683  0.59813061  0.80254307  1
  Pd  Pd193  1  0.61032914  0.81105507  0.59924610  1
  Pd  Pd194  1  0.40437418  0.80076042  0.80473774  1
  Pd  Pd195  1  0.79565935  0.41179374  0.59944396  1
  Pd  Pd196  1  0.60415327  -0.00830070  0.20794073  1
  Pd  Pd197  1  0.60356877  0.40187692  0.40220577  1
  Pd  Pd198  1  0.40348678  0.39738054  0.79305362  1
  Pd  Pd199  1  0.59790898  0.00036706  0.39279695  1
  Rh  Rh200  1  0.41307403  0.61104819  0.01002822  1
  Rh  Rh201  1  0.19667238  0.59624452  0.60430968  1
  Rh  Rh202  1  0.40965968  -0.00955448  0.80357707  1
  Rh  Rh203  1  0.80142060  0.39900509  0.39339924  1
  Rh  Rh204  1  0.19057548  0.41023482  0.60073603  1
  Rh  Rh205  1  0.19835953  0.80433767  0.59648206  1
  Rh  Rh206  1  0.40491802  0.79527802  0.60198303  1
  Rh  Rh207  1  0.00517208  0.39429624  0.40756412  1
  Rh  Rh208  1  0.60396420  0.59874553  0.81181642  1
  Rh  Rh209  1  0.79772268  0.19369677  0.60245579  1
  Rh  Rh210  1  0.40054595  0.38590585  0.38768859  1
  Rh  Rh211  1  0.60002293  0.80583213  0.79900893  1
  Rh  Rh212  1  0.80271229  0.19452611  0.79623208  1
  Rh  Rh213  1  0.01318726  0.59963870  0.80611533  1
  Rh  Rh214  1  0.38923798  0.60376226  0.78939881  1
  Rh  Rh215  1  0.61122490  0.20796234  0.19517570  1
  Rh  Rh216  1  0.00711643  0.39994660  0.19106340  1
  Rh  Rh217  1  0.00211671  0.79986869  0.00950515  1
  Rh  Rh218  1  -0.00917064  0.39257874  0.80968757  1
  Rh  Rh219  1  -0.00830790  0.60741975  0.20138316  1
  Rh  Rh220  1  0.39903613  -0.00372383  0.59415067  1
  Rh  Rh221  1  0.79045574  0.19463597  0.00071233  1
  Rh  Rh222  1  0.60534143  0.58758404  0.58825805  1
  Rh  Rh223  1  0.18504193  0.39758144  0.00879386  1
  Rh  Rh224  1  -0.00097645  0.79937854  0.79717978  1
  Rh  Rh225  1  0.60098550  0.19656601  0.39657385  1
  Rh  Rh226  1  0.40467002  0.79110803  0.19446955  1
  Rh  Rh227  1  0.19833930  0.79053871  0.79923406  1
  Rh  Rh228  1  0.19369579  0.00361361  0.19738301  1
  Rh  Rh229  1  -0.00168907  0.60268936  0.40505239  1
  Rh  Rh230  1  0.60477948  0.39748976  0.00401012  1
  Rh  Rh231  1  0.41261320  0.40092323  0.60766084  1
  Rh  Rh232  1  -0.00791599  0.80442365  0.61067921  1
  Rh  Rh233  1  -0.00630550  -0.00031628  0.79762478  1
  Rh  Rh234  1  0.40869834  0.38857141  0.00774107  1
  Rh  Rh235  1  0.79881594  0.79663538  0.41120634  1
  Rh  Rh236  1  0.39911025  0.60582802  0.39814820  1
  Rh  Rh237  1  0.79760875  0.40239904  0.20582917  1
  Rh  Rh238  1  0.80946764  0.79211610  0.20252283  1
  Rh  Rh239  1  0.60449206  0.20125040  0.79073458  1
  Rh  Rh240  1  0.80182203  0.21152930  0.20166935  1
  Rh  Rh241  1  0.60188006  0.80211983  0.39946511  1
  Rh  Rh242  1  0.60079414  0.39914934  0.20186457  1
  Rh  Rh243  1  0.40621511  0.21130907  0.20151158  1
  Rh  Rh244  1  0.19200657  0.20077666  0.19060825  1
  Rh  Rh245  1  0.39420395  0.80121738  0.40716680  1
  Rh  Rh246  1  0.01039937  0.78596280  0.38929354  1
  Rh  Rh247  1  -0.00515155  0.20456730  0.59329596  1
  Rh  Rh248  1  -0.00575109  0.00023623  -0.00428188  1
  Rh  Rh249  1  -0.00135828  0.01830173  0.39107696  1
