# generated using pymatgen
data_ZrScNbPdRh
_symmetry_space_group_name_H-M   'P 1'
_cell_length_a   16.55098036
_cell_length_b   16.55295831
_cell_length_c   16.55022788
_cell_angle_alpha   89.97195629
_cell_angle_beta   90.02717705
_cell_angle_gamma   89.98988381
_symmetry_Int_Tables_number   1
_chemical_formula_structural   ZrScNbPdRh
_chemical_formula_sum   'Zr50 Sc50 Nb50 Pd50 Rh50'
_cell_volume   4534.22654214
_cell_formula_units_Z   50
loop_
 _symmetry_equiv_pos_site_id
 _symmetry_equiv_pos_as_xyz
  1  'x, y, z'
loop_
 _atom_site_type_symbol
 _atom_site_label
 _atom_site_symmetry_multiplicity
 _atom_site_fract_x
 _atom_site_fract_y
 _atom_site_fract_z
 _atom_site_occupancy
  Zr  Zr0  1  0.91319907  0.88852935  0.49898149  1
  Zr  Zr1  1  0.50031330  0.30675364  0.69985831  1
  Zr  Zr2  1  0.69525132  0.49768828  0.70317151  1
  Zr  Zr3  1  0.89958667  0.69406092  0.29758585  1
  Zr  Zr4  1  0.89651812  0.30395600  0.09728352  1
  Zr  Zr5  1  0.10407031  0.29693236  0.29981766  1
  Zr  Zr6  1  0.69093367  0.89714974  0.69695688  1
  Zr  Zr7  1  0.50130908  0.70268434  0.30220776  1
  Zr  Zr8  1  0.69925022  0.69569619  0.30605859  1
  Zr  Zr9  1  0.30440425  0.90632863  0.49441100  1
  Zr  Zr10  1  0.69376808  0.90514969  0.29400839  1
  Zr  Zr11  1  0.30377028  0.70478701  0.30200602  1
  Zr  Zr12  1  0.68859931  0.10286002  0.90142057  1
  Zr  Zr13  1  0.70600057  0.69695540  0.10143832  1
  Zr  Zr14  1  0.50407832  0.90511852  0.10416446  1
  Zr  Zr15  1  0.28710871  0.30001313  0.90228222  1
  Zr  Zr16  1  0.70687715  0.50424408  0.09547313  1
  Zr  Zr17  1  0.09351516  0.70189101  0.50570651  1
  Zr  Zr18  1  0.49692574  0.50065672  0.89525423  1
  Zr  Zr19  1  0.89985926  0.10014307  0.09904259  1
  Zr  Zr20  1  0.48993911  0.89549854  0.31612510  1
  Zr  Zr21  1  0.89796892  0.89349049  0.69890091  1
  Zr  Zr22  1  0.51011432  0.49944911  0.30129754  1
  Zr  Zr23  1  0.69435603  0.89225981  0.50831739  1
  Zr  Zr24  1  0.69999372  0.10219062  0.30628156  1
  Zr  Zr25  1  0.29853080  0.10004422  0.09988694  1
  Zr  Zr26  1  0.29966331  0.08990730  0.90441355  1
  Zr  Zr27  1  0.89310887  0.11063690  0.50802161  1
  Zr  Zr28  1  0.90478302  0.49805437  0.50332925  1
  Zr  Zr29  1  0.49663220  0.90827005  0.88739883  1
  Zr  Zr30  1  0.49981425  0.50125906  0.09093509  1
  Zr  Zr31  1  0.89589885  0.29805168  0.69423157  1
  Zr  Zr32  1  0.49799451  0.30608212  0.09854265  1
  Zr  Zr33  1  0.10722620  0.50605630  0.50210271  1
  Zr  Zr34  1  0.29830869  0.70968306  0.88853722  1
  Zr  Zr35  1  0.10810140  0.69115256  0.70897708  1
  Zr  Zr36  1  0.50522776  0.09472525  0.30495112  1
  Zr  Zr37  1  0.69582691  0.89432353  0.89629172  1
  Zr  Zr38  1  0.29005954  0.50786339  0.29439161  1
  Zr  Zr39  1  0.69375202  0.10083316  0.50452396  1
  Zr  Zr40  1  0.09763459  0.10059935  0.88987400  1
  Zr  Zr41  1  0.90487705  0.70425780  0.09935928  1
  Zr  Zr42  1  0.89819468  0.10050326  0.89789013  1
  Zr  Zr43  1  0.90781118  0.30230044  0.29910613  1
  Zr  Zr44  1  0.50403007  0.09872736  0.69546393  1
  Zr  Zr45  1  0.28682001  0.10546830  0.70014803  1
  Zr  Zr46  1  0.70165042  0.69224455  0.90386712  1
  Zr  Zr47  1  0.90000527  0.10266038  0.70390734  1
  Zr  Zr48  1  0.70896946  0.50656603  0.30221807  1
  Zr  Zr49  1  0.69943485  0.30734617  0.30543241  1
  Sc  Sc50  1  0.30152403  0.49988897  0.69526986  1
  Sc  Sc51  1  0.69476483  0.69306169  0.49766515  1
  Sc  Sc52  1  0.29689036  0.31219728  0.09826341  1
  Sc  Sc53  1  0.30814097  0.89749679  0.70227740  1
  Sc  Sc54  1  0.48910374  0.69753118  0.90133573  1
  Sc  Sc55  1  0.90876868  0.90026341  0.29122394  1
  Sc  Sc56  1  0.91154138  0.69476482  0.90193657  1
  Sc  Sc57  1  0.69840441  0.29679103  0.49985557  1
  Sc  Sc58  1  0.11016493  0.50053743  0.70149242  1
  Sc  Sc59  1  0.30226651  0.49557820  0.89644014  1
  Sc  Sc60  1  0.49863031  0.70404828  0.49641789  1
  Sc  Sc61  1  0.70236894  0.30927221  0.09127721  1
  Sc  Sc62  1  0.89815732  0.50749498  0.89811182  1
  Sc  Sc63  1  0.90983872  0.10044629  0.30118175  1
  Sc  Sc64  1  0.49396233  0.49362614  0.69626597  1
  Sc  Sc65  1  0.48799334  0.70459778  0.69843873  1
  Sc  Sc66  1  0.29704388  0.09898752  0.50341290  1
  Sc  Sc67  1  0.68961515  0.08528533  0.10325223  1
  Sc  Sc68  1  0.30787289  0.71284950  0.09198835  1
  Sc  Sc69  1  0.09734799  0.68951270  0.29730092  1
  Sc  Sc70  1  0.50127508  0.10189119  0.08600576  1
  Sc  Sc71  1  0.10449807  0.50320484  0.10628952  1
  Sc  Sc72  1  0.69891013  0.70391323  0.69448262  1
  Sc  Sc73  1  0.69577645  0.50411755  0.50221946  1
  Sc  Sc74  1  0.30201746  0.68783657  0.49856110  1
  Sc  Sc75  1  0.28997620  0.29547199  0.50865734  1
  Sc  Sc76  1  0.28447754  0.09770760  0.30876860  1
  Sc  Sc77  1  0.10990126  0.09975590  0.49513443  1
  Sc  Sc78  1  0.10460072  0.50580764  0.89400817  1
  Sc  Sc79  1  0.70227847  0.30148745  0.89679656  1
  Sc  Sc80  1  0.90038241  0.50157523  0.10201449  1
  Sc  Sc81  1  0.10699844  0.09507966  0.10668924  1
  Sc  Sc82  1  0.69933100  0.30373810  0.70401939  1
  Sc  Sc83  1  0.90590482  0.88874427  0.89507925  1
  Sc  Sc84  1  0.29617410  0.30457912  0.69850341  1
  Sc  Sc85  1  0.28930021  0.90862340  0.09018717  1
  Sc  Sc86  1  0.10972199  0.29395380  0.70107210  1
  Sc  Sc87  1  0.09526993  0.30169205  0.50442631  1
  Sc  Sc88  1  0.09979018  0.89896479  0.70666568  1
  Sc  Sc89  1  0.90490490  0.69527115  0.50421009  1
  Sc  Sc90  1  0.89203338  0.49912354  0.70189095  1
  Sc  Sc91  1  0.10588121  0.89371719  0.90157389  1
  Sc  Sc92  1  0.50629291  0.30089487  0.50558660  1
  Sc  Sc93  1  0.50771169  0.30934127  0.30466531  1
  Sc  Sc94  1  0.70839603  0.49680513  0.90061875  1
  Sc  Sc95  1  0.09208679  0.91437061  0.30416597  1
  Sc  Sc96  1  0.50585936  0.29997134  0.90461934  1
  Sc  Sc97  1  0.10882684  0.29975146  0.09824856  1
  Sc  Sc98  1  0.08872716  0.70126076  0.09841317  1
  Sc  Sc99  1  0.89153056  0.28904954  0.90053274  1
  Nb  Nb100  1  0.09817872  0.49906459  0.29842101  1
  Nb  Nb101  1  0.70281078  0.89729653  0.09861432  1
  Nb  Nb102  1  0.10251774  0.10199084  0.30008951  1
  Nb  Nb103  1  0.10358159  0.69194652  0.90027626  1
  Nb  Nb104  1  0.29964664  0.49734502  0.49801678  1
  Nb  Nb105  1  0.89963197  0.30320597  0.50230634  1
  Nb  Nb106  1  0.91060997  0.69958838  0.70134777  1
  Nb  Nb107  1  0.49558220  0.49379137  0.50189130  1
  Nb  Nb108  1  0.30192806  0.30278796  0.30324392  1
  Nb  Nb109  1  0.10182271  0.30628054  0.89944309  1
  Nb  Nb110  1  0.29869360  0.70208041  0.70002789  1
  Nb  Nb111  1  0.09486801  0.09453691  0.70158155  1
  Nb  Nb112  1  0.90467956  0.49797509  0.29917926  1
  Nb  Nb113  1  0.49553611  0.90211911  0.50990057  1
  Nb  Nb114  1  0.70640209  0.09667217  0.69625832  1
  Nb  Nb115  1  0.29861289  0.90012978  0.30054142  1
  Nb  Nb116  1  0.90491465  0.89676008  0.09874175  1
  Nb  Nb117  1  0.50358820  0.70056989  0.09775981  1
  Nb  Nb118  1  0.49616698  0.09848780  0.49663656  1
  Nb  Nb119  1  0.09143402  0.90059712  0.10541038  1
  Nb  Nb120  1  0.29940841  0.49946247  0.09846011  1
  Nb  Nb121  1  0.29813541  0.89816310  0.89909491  1
  Nb  Nb122  1  0.09938304  0.89381270  0.49968919  1
  Nb  Nb123  1  0.49727991  0.10407016  0.89853905  1
  Nb  Nb124  1  0.50192786  0.89490214  0.68724072  1
  Nb  Nb125  1  0.20135308  0.40517068  0.39603780  1
  Nb  Nb126  1  0.40139122  0.20050367  0.20673599  1
  Nb  Nb127  1  0.00145154  0.39478481  0.80399890  1
  Nb  Nb128  1  0.20150989  0.79834986  0.59704762  1
  Nb  Nb129  1  0.80237814  -0.00918330  -0.00087871  1
  Nb  Nb130  1  0.59693591  0.59833307  0.79956949  1
  Nb  Nb131  1  0.19713374  0.80866469  0.20438394  1
  Nb  Nb132  1  0.59934618  0.79930355  0.19628907  1
  Nb  Nb133  1  0.80192336  -0.00568840  0.40626693  1
  Nb  Nb134  1  0.00373355  0.00070572  0.60127935  1
  Nb  Nb135  1  0.59932813  0.20233913  0.20016095  1
  Nb  Nb136  1  0.81158878  0.40121942  0.40158642  1
  Nb  Nb137  1  0.79542171  -0.00059657  0.80007500  1
  Nb  Nb138  1  0.39997268  0.20385660  0.39857560  1
  Nb  Nb139  1  0.20329640  0.60539236  -0.00210673  1
  Nb  Nb140  1  0.80073721  0.80361973  0.39833955  1
  Nb  Nb141  1  0.40258173  0.60085232  0.19285961  1
  Nb  Nb142  1  -0.00248190  -0.00443449  0.00212629  1
  Nb  Nb143  1  0.79469705  0.20182192  0.20171480  1
  Nb  Nb144  1  0.59929012  0.79968296  0.00429294  1
  Nb  Nb145  1  0.19638599  0.80293627  0.39952475  1
  Nb  Nb146  1  0.00485233  0.39778105  -0.00821202  1
  Nb  Nb147  1  0.39235367  0.40076577  0.40283145  1
  Nb  Nb148  1  0.40079650  0.19470631  0.80469477  1
  Nb  Nb149  1  0.39501733  0.00394619  0.20470112  1
  Pd  Pd150  1  0.39707757  0.00377713  0.60584597  1
  Pd  Pd151  1  0.00763795  0.40259567  0.61304892  1
  Pd  Pd152  1  0.80172265  0.78787830  0.59366383  1
  Pd  Pd153  1  0.60312666  0.20260668  0.60422580  1
  Pd  Pd154  1  0.59780015  0.20315246  0.79474180  1
  Pd  Pd155  1  0.40044272  0.59921323  0.60207336  1
  Pd  Pd156  1  0.39800727  0.20330170  0.59984225  1
  Pd  Pd157  1  0.00904982  0.19504395  0.59872516  1
  Pd  Pd158  1  0.19384494  0.19268244  -0.00080416  1
  Pd  Pd159  1  0.80115928  0.79986083  -0.00514926  1
  Pd  Pd160  1  0.19118938  0.79544702  0.00736810  1
  Pd  Pd161  1  0.39789714  0.00445801  0.78919747  1
  Pd  Pd162  1  0.00012687  0.59062335  0.61227028  1
  Pd  Pd163  1  0.79138760  0.39876132  0.59301097  1
  Pd  Pd164  1  0.39622560  0.20915699  -0.00170235  1
  Pd  Pd165  1  0.39051931  0.60037339  0.00106497  1
  Pd  Pd166  1  0.79750489  0.60771487  0.79278904  1
  Pd  Pd167  1  0.00215863  0.21059161  0.79759823  1
  Pd  Pd168  1  0.40651098  0.81158217  -0.00383435  1
  Pd  Pd169  1  0.59730896  0.60253764  0.19683305  1
  Pd  Pd170  1  0.00552716  0.40140809  0.40316871  1
  Pd  Pd171  1  0.20120569  -0.00809548  0.80083622  1
  Pd  Pd172  1  0.00514298  0.19671277  0.40685939  1
  Pd  Pd173  1  0.19365734  -0.00897290  0.60258023  1
  Pd  Pd174  1  0.79771406  0.80142511  0.20690850  1
  Pd  Pd175  1  0.58814942  0.60244173  0.60573497  1
  Pd  Pd176  1  0.80217004  0.79335861  0.79945685  1
  Pd  Pd177  1  0.80672437  -0.00452051  0.59925179  1
  Pd  Pd178  1  0.40239970  -0.00611640  0.00403112  1
  Pd  Pd179  1  0.80469851  0.20295454  0.39641787  1
  Pd  Pd180  1  0.00786672  0.79505697  0.80140663  1
  Pd  Pd181  1  0.20698265  0.61686562  0.18502883  1
  Pd  Pd182  1  0.80074388  0.60438709  0.60188614  1
  Pd  Pd183  1  0.39477746  0.38978520  0.80398963  1
  Pd  Pd184  1  0.60857887  0.40047834  0.19369766  1
  Pd  Pd185  1  0.59000097  0.78714743  0.80300174  1
  Pd  Pd186  1  0.20907911  0.20345163  0.20053995  1
  Pd  Pd187  1  0.01014305  0.19887451  0.00378745  1
  Pd  Pd188  1  -0.00336178  0.00971909  0.41007234  1
  Pd  Pd189  1  0.60255404  -0.00742191  0.41081513  1
  Pd  Pd190  1  0.78585708  0.19012366  0.00996081  1
  Pd  Pd191  1  0.00078986  0.19877666  0.19338320  1
  Pd  Pd192  1  0.60449934  0.40300805  -0.00729654  1
  Pd  Pd193  1  0.40625013  0.59294625  0.39465793  1
  Pd  Pd194  1  0.39802186  0.40499093  0.20512946  1
  Pd  Pd195  1  0.00708227  0.40074728  0.18939429  1
  Pd  Pd196  1  0.00029957  0.59968609  0.39944418  1
  Pd  Pd197  1  0.60153053  0.00358991  0.79353077  1
  Pd  Pd198  1  0.39852054  0.80623139  0.19408407  1
  Pd  Pd199  1  0.80703095  0.00423188  0.20166148  1
  Rh  Rh200  1  0.19303541  0.19712233  0.60069772  1
  Rh  Rh201  1  0.19906637  0.40162175  0.59478510  1
  Rh  Rh202  1  0.60448312  0.40654152  0.41086114  1
  Rh  Rh203  1  0.60179867  -0.00763390  -0.00829339  1
  Rh  Rh204  1  0.20120622  0.80425328  0.79269898  1
  Rh  Rh205  1  0.21265708  0.59592151  0.80561924  1
  Rh  Rh206  1  0.59481659  0.00199103  0.59775609  1
  Rh  Rh207  1  0.80759357  0.59774627  0.19723528  1
  Rh  Rh208  1  0.39636312  0.39533737  0.59138222  1
  Rh  Rh209  1  0.19337459  0.60139304  0.40117783  1
  Rh  Rh210  1  0.39232503  0.79780981  0.59457419  1
  Rh  Rh211  1  0.40180176  0.80539406  0.79739578  1
  Rh  Rh212  1  -0.00189757  0.59241614  0.79598074  1
  Rh  Rh213  1  0.60504085  0.80461536  0.39916767  1
  Rh  Rh214  1  0.59660400  0.60247948  -0.01028410  1
  Rh  Rh215  1  0.59360832  0.59451796  0.40805274  1
  Rh  Rh216  1  0.60164392  0.40100673  0.59936721  1
  Rh  Rh217  1  0.20031245  -0.00549166  0.20616068  1
  Rh  Rh218  1  0.58847046  0.20362269  0.40003617  1
  Rh  Rh219  1  0.19615797  -0.00484989  0.39908253  1
  Rh  Rh220  1  0.20836172  0.60551413  0.60085355  1
  Rh  Rh221  1  0.00091852  0.00725996  0.19510686  1
  Rh  Rh222  1  0.80961442  0.59630880  0.40609828  1
  Rh  Rh223  1  0.81222766  0.40327628  -0.00746319  1
  Rh  Rh224  1  0.60068269  0.40696811  0.80338541  1
  Rh  Rh225  1  0.00605068  0.80367454  -0.00359748  1
  Rh  Rh226  1  0.39149151  0.79776153  0.41185415  1
  Rh  Rh227  1  0.19306412  0.41520080  0.00116297  1
  Rh  Rh228  1  0.59021774  -0.00007942  0.20196631  1
  Rh  Rh229  1  0.60153010  0.20292399  0.00690068  1
  Rh  Rh230  1  0.00877927  0.59142986  0.00080709  1
  Rh  Rh231  1  -0.00805100  -0.00355383  0.80011432  1
  Rh  Rh232  1  0.79160774  0.20827836  0.60289798  1
  Rh  Rh233  1  0.40064096  0.59942343  0.79251224  1
  Rh  Rh234  1  0.59218043  0.79075134  0.59803825  1
  Rh  Rh235  1  0.18797687  -0.00068976  -0.00574769  1
  Rh  Rh236  1  0.20153352  0.19923369  0.80226051  1
  Rh  Rh237  1  0.39416185  0.01166123  0.39773181  1
  Rh  Rh238  1  0.00787949  0.79956685  0.20655520  1
  Rh  Rh239  1  0.19785084  0.39895303  0.20376964  1
  Rh  Rh240  1  0.00998261  0.80081105  0.61345571  1
  Rh  Rh241  1  0.00196568  0.79272401  0.38924373  1
  Rh  Rh242  1  0.81072410  0.60139422  0.00363819  1
  Rh  Rh243  1  0.19632412  0.40139717  0.79741387  1
  Rh  Rh244  1  0.80060063  0.39767113  0.20793891  1
  Rh  Rh245  1  -0.00366121  0.59461068  0.19807783  1
  Rh  Rh246  1  0.80975677  0.39421363  0.80256236  1
  Rh  Rh247  1  0.39697430  0.39746967  -0.00531255  1
  Rh  Rh248  1  0.79029402  0.19521326  0.79425239  1
  Rh  Rh249  1  0.20088509  0.20768114  0.40186555  1
