# generated using pymatgen
data_ZrScNbPdRh
_symmetry_space_group_name_H-M   'P 1'
_cell_length_a   16.55326038
_cell_length_b   16.55575509
_cell_length_c   16.55455334
_cell_angle_alpha   90.01512587
_cell_angle_beta   90.01322776
_cell_angle_gamma   90.01950207
_symmetry_Int_Tables_number   1
_chemical_formula_structural   ZrScNbPdRh
_chemical_formula_sum   'Zr50 Sc50 Nb50 Pd50 Rh50'
_cell_volume   4536.80335499
_cell_formula_units_Z   50
loop_
 _symmetry_equiv_pos_site_id
 _symmetry_equiv_pos_as_xyz
  1  'x, y, z'
loop_
 _atom_site_type_symbol
 _atom_site_label
 _atom_site_symmetry_multiplicity
 _atom_site_fract_x
 _atom_site_fract_y
 _atom_site_fract_z
 _atom_site_occupancy
  Zr  Zr0  1  0.30648245  0.10082297  0.50812948  1
  Zr  Zr1  1  0.70281897  0.50382408  0.69218008  1
  Zr  Zr2  1  0.48074590  0.30086722  0.49316203  1
  Zr  Zr3  1  0.49659669  0.10005261  0.49853607  1
  Zr  Zr4  1  0.09742625  0.09897002  0.29713178  1
  Zr  Zr5  1  0.69303090  0.09539196  0.49944024  1
  Zr  Zr6  1  0.10633730  0.30040438  0.30149985  1
  Zr  Zr7  1  0.30110585  0.09448177  0.89434497  1
  Zr  Zr8  1  0.69539426  0.30316747  0.29741068  1
  Zr  Zr9  1  0.29976444  0.69306457  0.09922632  1
  Zr  Zr10  1  0.10558265  0.50597102  0.70134586  1
  Zr  Zr11  1  0.49322701  0.09134341  0.69952083  1
  Zr  Zr12  1  0.90552781  0.29611923  0.89859065  1
  Zr  Zr13  1  0.89769722  0.51332870  0.30266511  1
  Zr  Zr14  1  0.69954363  0.28935789  0.89446748  1
  Zr  Zr15  1  0.09554862  0.49904049  0.49671809  1
  Zr  Zr16  1  0.09499252  0.50671624  0.29859957  1
  Zr  Zr17  1  0.89157715  0.70617770  0.50058899  1
  Zr  Zr18  1  0.30062359  0.09551631  0.10001130  1
  Zr  Zr19  1  0.90448515  0.49749195  0.89896256  1
  Zr  Zr20  1  0.89542306  0.29729990  0.09695079  1
  Zr  Zr21  1  0.10286505  0.89449575  0.50274605  1
  Zr  Zr22  1  0.29531118  0.70712450  0.49621725  1
  Zr  Zr23  1  0.69640225  0.50972041  0.10502321  1
  Zr  Zr24  1  0.90051903  0.50391090  0.69571007  1
  Zr  Zr25  1  0.69374353  0.89766060  0.70098731  1
  Zr  Zr26  1  0.10228820  0.70154402  0.69905836  1
  Zr  Zr27  1  0.88877824  0.50098638  0.49861386  1
  Zr  Zr28  1  0.09596281  0.09703438  0.88938029  1
  Zr  Zr29  1  0.09806646  0.69698276  0.09936628  1
  Zr  Zr30  1  0.30583490  0.89262483  0.10258599  1
  Zr  Zr31  1  0.49811500  0.69916616  0.09697467  1
  Zr  Zr32  1  0.10393079  0.30776649  0.09566674  1
  Zr  Zr33  1  0.89269812  0.09929371  0.90359818  1
  Zr  Zr34  1  0.50331700  0.50641453  0.70184896  1
  Zr  Zr35  1  0.50210162  0.89306402  0.09222974  1
  Zr  Zr36  1  0.49968662  0.29831361  0.29468715  1
  Zr  Zr37  1  0.30434155  0.89544605  0.30016785  1
  Zr  Zr38  1  0.49957857  0.09932748  0.89572872  1
  Zr  Zr39  1  0.31117717  0.30746215  0.89541635  1
  Zr  Zr40  1  0.49111167  0.30103486  0.10373317  1
  Zr  Zr41  1  0.49562226  0.30043095  0.71542884  1
  Zr  Zr42  1  0.69892503  0.50481009  0.89768584  1
  Zr  Zr43  1  0.50321785  0.50889075  0.49683023  1
  Zr  Zr44  1  0.90510538  0.50318997  0.10105005  1
  Zr  Zr45  1  0.71188253  0.30967351  0.49914853  1
  Zr  Zr46  1  0.30083367  0.89787131  0.89886502  1
  Zr  Zr47  1  0.29572115  0.69588786  0.70484932  1
  Zr  Zr48  1  0.89458136  0.90302028  0.29686553  1
  Zr  Zr49  1  0.90028479  0.09329531  0.10573052  1
  Sc  Sc50  1  0.10105951  0.89453895  0.70729389  1
  Sc  Sc51  1  0.29992738  0.90785596  0.70431467  1
  Sc  Sc52  1  0.30352167  0.69770410  0.89825651  1
  Sc  Sc53  1  0.10126270  0.09841519  0.10984778  1
  Sc  Sc54  1  0.49632927  0.09965185  0.10420281  1
  Sc  Sc55  1  0.89713789  0.70043103  0.09356961  1
  Sc  Sc56  1  0.10376601  0.49190240  0.90075630  1
  Sc  Sc57  1  0.50601916  0.70411119  0.71052136  1
  Sc  Sc58  1  0.10504913  0.69723081  0.50409764  1
  Sc  Sc59  1  0.90795017  0.29764276  0.69657823  1
  Sc  Sc60  1  0.70175003  0.69708013  0.69455930  1
  Sc  Sc61  1  0.90732859  0.30961670  0.50495555  1
  Sc  Sc62  1  0.70104383  0.09043593  0.09020121  1
  Sc  Sc63  1  0.29821271  0.50618959  0.89929939  1
  Sc  Sc64  1  0.30274249  0.30223796  0.30252388  1
  Sc  Sc65  1  0.30150789  0.70303929  0.29741375  1
  Sc  Sc66  1  0.49925765  0.70196309  0.30575890  1
  Sc  Sc67  1  0.29871371  0.49848568  0.70656585  1
  Sc  Sc68  1  0.90756359  0.70477929  0.90451039  1
  Sc  Sc69  1  0.70088610  0.09407878  0.90128649  1
  Sc  Sc70  1  0.49625893  0.50809901  0.29542732  1
  Sc  Sc71  1  0.90882954  0.10033708  0.50250318  1
  Sc  Sc72  1  0.68510278  0.10049765  0.30290102  1
  Sc  Sc73  1  0.10945843  0.09566368  0.50069487  1
  Sc  Sc74  1  0.49456936  0.50629044  0.89555181  1
  Sc  Sc75  1  0.90405194  0.69990251  0.69515978  1
  Sc  Sc76  1  0.89518727  0.89782542  0.09815533  1
  Sc  Sc77  1  0.49556319  0.70324039  0.90381754  1
  Sc  Sc78  1  0.10122630  0.09474686  0.69853646  1
  Sc  Sc79  1  0.10616836  0.69191530  0.30765976  1
  Sc  Sc80  1  0.10921970  0.50359319  0.09260646  1
  Sc  Sc81  1  0.10059518  0.89282781  0.89497996  1
  Sc  Sc82  1  0.70302830  0.89137760  0.09645003  1
  Sc  Sc83  1  0.50484003  0.90457574  0.49520893  1
  Sc  Sc84  1  0.10219121  0.90733472  0.30136602  1
  Sc  Sc85  1  0.69170456  0.09761933  0.71121790  1
  Sc  Sc86  1  0.89833275  0.30877664  0.30159466  1
  Sc  Sc87  1  0.90924414  0.09809944  0.71303123  1
  Sc  Sc88  1  0.69676074  0.88782586  0.49668474  1
  Sc  Sc89  1  0.10367323  0.70290508  0.89851205  1
  Sc  Sc90  1  0.69408772  0.29816109  0.10903477  1
  Sc  Sc91  1  0.10329463  0.89432881  0.09481601  1
  Sc  Sc92  1  0.70299286  0.70000216  0.90997644  1
  Sc  Sc93  1  0.69462358  0.90515196  0.90847941  1
  Sc  Sc94  1  0.49605244  0.10619836  0.30512024  1
  Sc  Sc95  1  0.30059518  0.90671179  0.50036744  1
  Sc  Sc96  1  0.30139189  0.49158392  0.50381110  1
  Sc  Sc97  1  0.49432266  0.50768833  0.10196651  1
  Sc  Sc98  1  0.29841685  0.50493280  0.29051572  1
  Sc  Sc99  1  0.69323159  0.69611023  0.49612795  1
  Nb  Nb100  1  0.69874842  0.50106821  0.49927232  1
  Nb  Nb101  1  0.10411920  0.30153257  0.89888671  1
  Nb  Nb102  1  0.90287713  0.69988953  0.30252883  1
  Nb  Nb103  1  0.69642525  0.30090226  0.69890619  1
  Nb  Nb104  1  0.10724319  0.30065442  0.70239139  1
  Nb  Nb105  1  0.29233220  0.29650016  0.50522726  1
  Nb  Nb106  1  0.29754675  0.30011674  0.69652382  1
  Nb  Nb107  1  0.90459565  0.89876220  0.89621208  1
  Nb  Nb108  1  0.30109107  0.30872533  0.09655674  1
  Nb  Nb109  1  0.50073386  0.29999455  0.90131330  1
  Nb  Nb110  1  0.30147659  0.49834326  0.09817809  1
  Nb  Nb111  1  0.50372239  0.89680109  0.29774702  1
  Nb  Nb112  1  0.70220436  0.50505382  0.30650848  1
  Nb  Nb113  1  0.70659337  0.70326747  0.30142069  1
  Nb  Nb114  1  0.90010674  0.89194358  0.69727696  1
  Nb  Nb115  1  0.89597595  0.89578003  0.50307010  1
  Nb  Nb116  1  0.49952983  0.89591202  0.70704469  1
  Nb  Nb117  1  0.69606834  0.89080412  0.30309807  1
  Nb  Nb118  1  0.49770335  0.69702900  0.50111106  1
  Nb  Nb119  1  0.49916705  0.89693610  0.89451607  1
  Nb  Nb120  1  0.10871657  0.29895103  0.50162551  1
  Nb  Nb121  1  0.29333713  0.09598592  0.29895410  1
  Nb  Nb122  1  0.90582684  0.09678961  0.29890382  1
  Nb  Nb123  1  0.69383558  0.70145634  0.09546722  1
  Nb  Nb124  1  0.30020921  0.09773977  0.70034864  1
  Nb  Nb125  1  0.20455472  0.20596339  0.79692309  1
  Nb  Nb126  1  0.80396801  0.80545760  0.80083271  1
  Nb  Nb127  1  0.80138689  0.19223642  0.20863560  1
  Nb  Nb128  1  0.00351807  0.20166252  0.39967063  1
  Nb  Nb129  1  0.40562901  0.79862652  0.60228235  1
  Nb  Nb130  1  -0.00280673  0.00197103  -0.00499522  1
  Nb  Nb131  1  0.59929196  0.20887258  0.60168623  1
  Nb  Nb132  1  0.59665897  -0.01149950  0.20356977  1
  Nb  Nb133  1  -0.00561657  -0.01142770  0.60065663  1
  Nb  Nb134  1  0.20221487  0.20474966  -0.00454986  1
  Nb  Nb135  1  -0.00361483  0.79484072  0.20802632  1
  Nb  Nb136  1  0.80661659  0.19323277  0.39900224  1
  Nb  Nb137  1  -0.00657482  0.80114407  0.39850743  1
  Nb  Nb138  1  0.59837718  0.39711507  -0.00328726  1
  Nb  Nb139  1  0.80101957  0.00005366  0.40097643  1
  Nb  Nb140  1  0.00226255  0.40449839  0.19879540  1
  Nb  Nb141  1  0.59276947  0.20563026  -0.00250685  1
  Nb  Nb142  1  0.59819313  0.39743838  0.59613511  1
  Nb  Nb143  1  0.79333241  0.40025759  -0.00356307  1
  Nb  Nb144  1  0.00750497  0.19775960  -0.00184815  1
  Nb  Nb145  1  0.40157071  0.60882869  0.59899609  1
  Nb  Nb146  1  0.79539047  0.19433519  0.59889211  1
  Nb  Nb147  1  0.60176085  0.40722063  0.40143156  1
  Nb  Nb148  1  0.79849834  0.39890182  0.79995902  1
  Nb  Nb149  1  0.80338933  -0.00179968  0.59950753  1
  Pd  Pd150  1  0.20408477  0.79413521  -0.00405826  1
  Pd  Pd151  1  0.78324196  0.00394348  0.20935330  1
  Pd  Pd152  1  0.00869984  0.39984131  0.60477589  1
  Pd  Pd153  1  0.19870631  -0.00794127  0.19623510  1
  Pd  Pd154  1  0.39807314  0.19765533  0.00056851  1
  Pd  Pd155  1  0.19824057  0.40574810  0.20088215  1
  Pd  Pd156  1  0.00334356  0.60518218  0.80555456  1
  Pd  Pd157  1  0.80240468  0.79177701  0.19618503  1
  Pd  Pd158  1  -0.00058727  0.39621615  0.39613010  1
  Pd  Pd159  1  0.80241788  0.20168203  0.78771430  1
  Pd  Pd160  1  0.40303869  0.40642402  0.60794231  1
  Pd  Pd161  1  0.00421183  0.19426039  0.59691204  1
  Pd  Pd162  1  0.59886443  0.79686265  0.19999559  1
  Pd  Pd163  1  0.20505287  0.00058502  0.40183334  1
  Pd  Pd164  1  0.59947118  0.60899050  0.20696324  1
  Pd  Pd165  1  0.40494520  0.80401254  0.40626014  1
  Pd  Pd166  1  0.60017221  -0.00073643  0.60193626  1
  Pd  Pd167  1  0.60202679  0.21302457  0.41003734  1
  Pd  Pd168  1  0.40447862  -0.00409447  -0.00203188  1
  Pd  Pd169  1  -0.00571422  0.21037652  0.20240117  1
  Pd  Pd170  1  -0.00053700  0.39848125  0.79212954  1
  Pd  Pd171  1  0.59400579  0.79508705  0.59708587  1
  Pd  Pd172  1  0.19092746  0.00394673  0.00041162  1
  Pd  Pd173  1  0.40682854  -0.00063519  0.20610892  1
  Pd  Pd174  1  0.21007774  0.80793053  0.60620117  1
  Pd  Pd175  1  0.60236629  0.61185358  0.80684170  1
  Pd  Pd176  1  0.80626246  0.60840341  0.80133404  1
  Pd  Pd177  1  0.39976938  0.00205593  0.39393860  1
  Pd  Pd178  1  0.20190388  0.19614907  0.40162333  1
  Pd  Pd179  1  0.20980164  0.20421993  0.19347546  1
  Pd  Pd180  1  0.20892064  0.59346970  0.40415919  1
  Pd  Pd181  1  0.79897061  0.61071899  0.19771181  1
  Pd  Pd182  1  0.60407330  0.40385932  0.80130988  1
  Pd  Pd183  1  0.19047778  0.79784540  0.20701839  1
  Pd  Pd184  1  0.61130413  0.79551464  0.81032807  1
  Pd  Pd185  1  0.40556644  0.41132632  -0.00211006  1
  Pd  Pd186  1  0.19735033  0.40442986  0.60071085  1
  Pd  Pd187  1  0.40042279  0.40815487  0.38967093  1
  Pd  Pd188  1  0.38915128  0.19790876  0.20494616  1
  Pd  Pd189  1  0.79877850  -0.00766119  0.79553692  1
  Pd  Pd190  1  0.20547818  0.40523597  0.39909471  1
  Pd  Pd191  1  0.80344234  0.40123003  0.19806750  1
  Pd  Pd192  1  0.40389055  0.20272109  0.60805314  1
  Pd  Pd193  1  0.39015511  0.59791256  0.40250657  1
  Pd  Pd194  1  0.80291861  0.59825394  -0.00039647  1
  Pd  Pd195  1  0.00743450  0.59951977  -0.00680524  1
  Pd  Pd196  1  0.19743671  0.19462486  0.60632130  1
  Pd  Pd197  1  -0.00325500  -0.00218891  0.40802226  1
  Pd  Pd198  1  -0.00123216  0.60332581  0.59315482  1
  Pd  Pd199  1  0.59295572  0.41146785  0.19989314  1
  Rh  Rh200  1  0.60000722  0.79736047  -0.00388135  1
  Rh  Rh201  1  0.38539723  0.19469662  0.39494869  1
  Rh  Rh202  1  0.39744859  0.60531851  0.19902032  1
  Rh  Rh203  1  0.80002516  0.80129577  0.39675397  1
  Rh  Rh204  1  -0.00187240  0.80758552  0.00761559  1
  Rh  Rh205  1  0.40422130  0.79519878  0.20081674  1
  Rh  Rh206  1  0.79146005  0.80273652  0.60788443  1
  Rh  Rh207  1  0.20884061  0.59329572  0.59543588  1
  Rh  Rh208  1  0.20460280  0.79889471  0.80064617  1
  Rh  Rh209  1  0.00036332  -0.01023382  0.79825522  1
  Rh  Rh210  1  0.60771994  0.18272608  0.18677199  1
  Rh  Rh211  1  0.79830025  0.60591767  0.59385130  1
  Rh  Rh212  1  0.79019689  0.20509320  0.01184156  1
  Rh  Rh213  1  -0.00568757  0.39622264  0.00659568  1
  Rh  Rh214  1  0.59671580  0.79427505  0.39937438  1
  Rh  Rh215  1  0.39790408  0.40267447  0.20048516  1
  Rh  Rh216  1  0.00641744  -0.01527460  0.18888002  1
  Rh  Rh217  1  0.60542034  0.60225391  0.39211574  1
  Rh  Rh218  1  0.39778270  0.40655752  0.79817106  1
  Rh  Rh219  1  0.39303116  0.19734144  0.79544670  1
  Rh  Rh220  1  0.59527104  0.59748205  -0.00094188  1
  Rh  Rh221  1  0.19454724  0.59913957  0.80594928  1
  Rh  Rh222  1  0.59659788  0.19329241  0.80011734  1
  Rh  Rh223  1  0.01010919  0.20715860  0.80057193  1
  Rh  Rh224  1  0.79929013  0.80134177  -0.00720426  1
  Rh  Rh225  1  0.59063023  0.00439989  0.00474718  1
  Rh  Rh226  1  0.00311594  0.60274587  0.19646539  1
  Rh  Rh227  1  0.79385319  0.60571122  0.40275219  1
  Rh  Rh228  1  0.79816077  0.40256021  0.39241055  1
  Rh  Rh229  1  0.19314406  0.80264126  0.39517777  1
  Rh  Rh230  1  0.39647919  0.79952098  -0.00322523  1
  Rh  Rh231  1  0.79954444  0.39582909  0.61208856  1
  Rh  Rh232  1  0.21164231  0.39979251  -0.00463330  1
  Rh  Rh233  1  0.19434681  -0.00274221  0.60519031  1
  Rh  Rh234  1  0.20304737  0.39732100  0.79961495  1
  Rh  Rh235  1  0.20154567  0.60003320  0.19621438  1
  Rh  Rh236  1  0.40030596  0.60275949  0.79447397  1
  Rh  Rh237  1  0.60175850  -0.00934320  0.39096490  1
  Rh  Rh238  1  0.40279087  -0.01122313  0.60290939  1
  Rh  Rh239  1  0.39707655  0.80220979  0.79622538  1
  Rh  Rh240  1  0.00447505  0.80028267  0.59565714  1
  Rh  Rh241  1  0.39822946  0.59933624  0.00014813  1
  Rh  Rh242  1  0.59605000  0.60083697  0.60036155  1
  Rh  Rh243  1  0.59543045  -0.00343433  0.80506154  1
  Rh  Rh244  1  0.80714871  -0.01021808  -0.00517333  1
  Rh  Rh245  1  0.40210096  -0.00601651  0.79986966  1
  Rh  Rh246  1  -0.00473573  0.79449034  0.79614587  1
  Rh  Rh247  1  -0.00374029  0.60953326  0.41016616  1
  Rh  Rh248  1  0.20172488  0.60023987  -0.00259849  1
  Rh  Rh249  1  0.19948354  0.00270003  0.79623935  1
