# generated using pymatgen
data_ZrScNbPdRh
_symmetry_space_group_name_H-M   'P 1'
_cell_length_a   16.56453155
_cell_length_b   16.56164226
_cell_length_c   16.56427325
_cell_angle_alpha   89.98280025
_cell_angle_beta   90.00255920
_cell_angle_gamma   90.00606918
_symmetry_Int_Tables_number   1
_chemical_formula_structural   ZrScNbPdRh
_chemical_formula_sum   'Zr50 Sc50 Nb50 Pd50 Rh50'
_cell_volume   4544.17367848
_cell_formula_units_Z   50
loop_
 _symmetry_equiv_pos_site_id
 _symmetry_equiv_pos_as_xyz
  1  'x, y, z'
loop_
 _atom_site_type_symbol
 _atom_site_label
 _atom_site_symmetry_multiplicity
 _atom_site_fract_x
 _atom_site_fract_y
 _atom_site_fract_z
 _atom_site_occupancy
  Zr  Zr0  1  0.10348787  0.49171492  0.68862433  1
  Zr  Zr1  1  0.90257953  0.90250712  0.70072828  1
  Zr  Zr2  1  0.30597035  0.90425749  0.90481580  1
  Zr  Zr3  1  0.70088657  0.48822245  0.89997869  1
  Zr  Zr4  1  0.30604324  0.70847361  0.10394239  1
  Zr  Zr5  1  0.49802815  0.49771751  0.69900124  1
  Zr  Zr6  1  0.09855115  0.29378000  0.91349730  1
  Zr  Zr7  1  0.10276903  0.89863701  0.50036037  1
  Zr  Zr8  1  0.30610193  0.90447438  0.69742339  1
  Zr  Zr9  1  0.50023357  0.10245217  0.09621394  1
  Zr  Zr10  1  0.50346321  0.69680692  0.28787539  1
  Zr  Zr11  1  0.69441938  0.70718967  0.11072975  1
  Zr  Zr12  1  0.90201165  0.89406618  0.50328291  1
  Zr  Zr13  1  0.10063764  0.11029817  0.10054707  1
  Zr  Zr14  1  0.88878200  0.29190462  0.30232773  1
  Zr  Zr15  1  0.89436049  0.50182370  0.70187416  1
  Zr  Zr16  1  0.89622912  0.10371369  0.48480455  1
  Zr  Zr17  1  0.11043361  0.70331590  0.10727485  1
  Zr  Zr18  1  0.89879429  0.29598829  0.69794718  1
  Zr  Zr19  1  0.10440382  0.70631487  0.49917554  1
  Zr  Zr20  1  0.29858250  0.90726767  0.50089242  1
  Zr  Zr21  1  0.50651011  0.28996193  0.89930727  1
  Zr  Zr22  1  0.49592689  0.29828573  0.69755755  1
  Zr  Zr23  1  0.10420417  0.70132208  0.89991162  1
  Zr  Zr24  1  0.30148339  0.50191581  0.90181153  1
  Zr  Zr25  1  0.69707877  0.29301315  0.49693729  1
  Zr  Zr26  1  0.70133289  0.90250532  0.09400121  1
  Zr  Zr27  1  0.50086493  0.49939165  0.10370806  1
  Zr  Zr28  1  0.30167344  0.29817057  0.69668759  1
  Zr  Zr29  1  0.90103665  0.29551282  0.08901874  1
  Zr  Zr30  1  0.90328067  0.69368142  0.90076019  1
  Zr  Zr31  1  0.30293251  0.49412389  0.09917937  1
  Zr  Zr32  1  0.70574687  0.29209259  0.90274272  1
  Zr  Zr33  1  0.09437930  0.30786983  0.50643593  1
  Zr  Zr34  1  0.49959899  0.30100001  0.29570015  1
  Zr  Zr35  1  0.69712618  0.50084379  0.29696487  1
  Zr  Zr36  1  0.49935291  0.49913984  0.91048437  1
  Zr  Zr37  1  0.69371751  0.09506759  0.49887401  1
  Zr  Zr38  1  0.89469739  0.10099024  0.10327075  1
  Zr  Zr39  1  0.09900617  0.49911690  0.09938804  1
  Zr  Zr40  1  0.10652856  0.09630449  0.90169202  1
  Zr  Zr41  1  0.30257173  0.69621354  0.29915049  1
  Zr  Zr42  1  0.69546701  0.69347417  0.30864173  1
  Zr  Zr43  1  0.49882851  0.91430905  0.50391346  1
  Zr  Zr44  1  0.30217671  0.29846533  0.90870348  1
  Zr  Zr45  1  0.29879664  0.10440867  0.69929442  1
  Zr  Zr46  1  0.10395598  0.29039592  0.69311936  1
  Zr  Zr47  1  0.69140870  0.89788704  0.70268243  1
  Zr  Zr48  1  0.89941450  0.70152242  0.69502648  1
  Zr  Zr49  1  0.70080118  0.69981744  0.68901638  1
  Sc  Sc50  1  0.30504342  0.30030279  0.29731141  1
  Sc  Sc51  1  0.08909271  0.10166071  0.29933446  1
  Sc  Sc52  1  0.69228225  0.30068541  0.70744956  1
  Sc  Sc53  1  0.88753859  0.90790843  0.90344876  1
  Sc  Sc54  1  0.10267319  0.30250017  0.09894976  1
  Sc  Sc55  1  0.11571544  0.70222769  0.30063518  1
  Sc  Sc56  1  0.10366240  0.69909492  0.70058058  1
  Sc  Sc57  1  0.89362548  0.70690550  0.31100263  1
  Sc  Sc58  1  0.08974510  0.50305876  0.90623549  1
  Sc  Sc59  1  0.70225240  0.70197592  0.90767101  1
  Sc  Sc60  1  0.89479366  0.48966513  0.30450526  1
  Sc  Sc61  1  0.49653627  0.10409563  0.49736066  1
  Sc  Sc62  1  0.11422609  0.90736680  0.89432770  1
  Sc  Sc63  1  0.09828162  0.09873160  0.50379243  1
  Sc  Sc64  1  0.49482070  0.10762617  0.70384658  1
  Sc  Sc65  1  0.29862228  0.90539299  0.30632120  1
  Sc  Sc66  1  0.49685629  0.29654205  0.50523723  1
  Sc  Sc67  1  0.29786781  0.69630545  0.69837888  1
  Sc  Sc68  1  0.10270833  0.90004961  0.30617202  1
  Sc  Sc69  1  0.69796139  0.29592017  0.10218909  1
  Sc  Sc70  1  0.30238098  0.90314798  0.09577639  1
  Sc  Sc71  1  0.69996442  0.09933433  0.09774646  1
  Sc  Sc72  1  0.50150957  0.68865243  0.50078202  1
  Sc  Sc73  1  0.30023859  0.50107522  0.49677592  1
  Sc  Sc74  1  0.49650441  0.49813399  0.50044969  1
  Sc  Sc75  1  0.49793679  0.50640385  0.29873945  1
  Sc  Sc76  1  0.30034980  0.29762305  0.10021653  1
  Sc  Sc77  1  0.89197287  0.70235843  0.09019326  1
  Sc  Sc78  1  0.49188635  0.09774210  0.30231965  1
  Sc  Sc79  1  0.88820159  0.70512075  0.50283995  1
  Sc  Sc80  1  0.88825349  0.90455281  0.10393493  1
  Sc  Sc81  1  0.29890421  0.50199589  0.69456751  1
  Sc  Sc82  1  0.50193290  0.70126925  0.69876469  1
  Sc  Sc83  1  0.70157766  0.49897662  0.69889041  1
  Sc  Sc84  1  0.30624646  0.30066272  0.50240035  1
  Sc  Sc85  1  0.30474689  0.09711709  0.90180254  1
  Sc  Sc86  1  0.30572800  0.10060483  0.09623233  1
  Sc  Sc87  1  0.30715383  0.50116955  0.29909676  1
  Sc  Sc88  1  0.10408051  0.29965606  0.29209415  1
  Sc  Sc89  1  0.69873457  0.90016398  0.28904023  1
  Sc  Sc90  1  0.11009839  0.49676009  0.29944048  1
  Sc  Sc91  1  0.90374186  0.49735498  0.08971906  1
  Sc  Sc92  1  0.50177963  0.29806647  0.09762421  1
  Sc  Sc93  1  0.09846607  0.90962279  0.69617273  1
  Sc  Sc94  1  0.49614340  0.90460169  0.10736920  1
  Sc  Sc95  1  0.50184975  0.90168227  0.70069882  1
  Sc  Sc96  1  0.89369013  0.49589092  0.90049062  1
  Sc  Sc97  1  0.89933360  0.91017605  0.30257107  1
  Sc  Sc98  1  0.69563202  0.48919064  0.09696438  1
  Sc  Sc99  1  0.70552813  0.10634742  0.30040080  1
  Nb  Nb100  1  0.50451055  0.10006884  0.90342901  1
  Nb  Nb101  1  0.09433743  0.09751209  0.70816135  1
  Nb  Nb102  1  0.50127443  0.89666137  0.30550101  1
  Nb  Nb103  1  0.69769380  0.30603481  0.29656826  1
  Nb  Nb104  1  0.89947577  0.30058208  0.50076069  1
  Nb  Nb105  1  0.70206079  0.69857957  0.49702585  1
  Nb  Nb106  1  0.89805810  0.09262305  0.70820901  1
  Nb  Nb107  1  0.70309355  0.09417352  0.89460609  1
  Nb  Nb108  1  0.69573095  0.89811644  0.50779135  1
  Nb  Nb109  1  0.30544038  0.09465317  0.48893884  1
  Nb  Nb110  1  0.89309372  0.09995155  0.89648031  1
  Nb  Nb111  1  0.10318424  0.90396156  0.10136640  1
  Nb  Nb112  1  0.50598051  0.89775950  0.89669860  1
  Nb  Nb113  1  0.49664752  0.69968031  0.90556257  1
  Nb  Nb114  1  0.09502194  0.49504453  0.49795319  1
  Nb  Nb115  1  0.69197167  0.90053143  0.89647821  1
  Nb  Nb116  1  0.50007047  0.70291750  0.09790976  1
  Nb  Nb117  1  0.30439671  0.70361805  0.90117519  1
  Nb  Nb118  1  0.70609305  0.51396503  0.49077825  1
  Nb  Nb119  1  0.90438676  0.49252365  0.49782662  1
  Nb  Nb120  1  0.89835928  0.29524294  0.89861505  1
  Nb  Nb121  1  0.71139275  0.10151705  0.70762758  1
  Nb  Nb122  1  0.89494655  0.10108065  0.29638669  1
  Nb  Nb123  1  0.29255033  0.10117595  0.30452592  1
  Nb  Nb124  1  0.30171345  0.70915229  0.49412164  1
  Nb  Nb125  1  0.40608347  0.80083612  0.40227948  1
  Nb  Nb126  1  0.80228223  0.19569496  0.60029990  1
  Nb  Nb127  1  -0.00288796  0.19329424  0.80113279  1
  Nb  Nb128  1  0.80106575  0.39663325  0.58970677  1
  Nb  Nb129  1  0.79765268  0.00248629  0.60153790  1
  Nb  Nb130  1  0.20242183  0.19750130  0.40109084  1
  Nb  Nb131  1  0.59218031  0.80181781  -0.00079209  1
  Nb  Nb132  1  0.00169314  0.59590010  0.40341757  1
  Nb  Nb133  1  0.19769084  0.39593603  0.80304737  1
  Nb  Nb134  1  0.00274175  0.38932010  0.79889566  1
  Nb  Nb135  1  0.39704073  0.39764877  0.80274091  1
  Nb  Nb136  1  0.00039216  0.59475571  0.59018223  1
  Nb  Nb137  1  0.19782883  0.00537467  0.20008047  1
  Nb  Nb138  1  0.60556511  0.40034909  0.39814023  1
  Nb  Nb139  1  0.79814691  0.80055243  0.79996594  1
  Nb  Nb140  1  -0.00449189  0.60550268  0.20569762  1
  Nb  Nb141  1  0.40229570  0.79730310  0.80967970  1
  Nb  Nb142  1  0.00411410  0.80962914  0.00085654  1
  Nb  Nb143  1  0.00152241  0.79950604  0.19503944  1
  Nb  Nb144  1  0.80244313  0.59876490  0.20174691  1
  Nb  Nb145  1  0.00025377  0.00020936  0.00202977  1
  Nb  Nb146  1  0.20630627  0.60519153  0.00027548  1
  Nb  Nb147  1  -0.00392179  0.80356911  0.80611431  1
  Nb  Nb148  1  0.59709798  0.60175558  0.80726778  1
  Nb  Nb149  1  0.59891297  0.80261733  0.40494565  1
  Pd  Pd150  1  0.00168851  -0.00579434  0.19673461  1
  Pd  Pd151  1  0.39482763  0.60294173  0.00801685  1
  Pd  Pd152  1  -0.00816624  0.18624901  0.60236468  1
  Pd  Pd153  1  0.20595838  0.39852156  0.20069892  1
  Pd  Pd154  1  0.20002129  0.00796106  0.60116801  1
  Pd  Pd155  1  0.59980361  0.01225196  0.61176902  1
  Pd  Pd156  1  0.19914931  0.59616110  0.40381538  1
  Pd  Pd157  1  0.00266807  -0.00099306  0.40027487  1
  Pd  Pd158  1  0.19963117  0.80297057  0.60807463  1
  Pd  Pd159  1  0.78770930  0.60645747  0.80332176  1
  Pd  Pd160  1  0.40570922  0.79631639  0.59960338  1
  Pd  Pd161  1  0.60364305  0.19351841  0.60883815  1
  Pd  Pd162  1  0.19553566  0.59181141  0.80548308  1
  Pd  Pd163  1  0.39450959  0.60193551  0.59731062  1
  Pd  Pd164  1  0.60118448  0.00582474  0.20490369  1
  Pd  Pd165  1  0.60438602  -0.00305534  0.39078837  1
  Pd  Pd166  1  0.79050532  0.59416350  0.00922355  1
  Pd  Pd167  1  0.59581750  0.20370116  0.39224933  1
  Pd  Pd168  1  0.00801584  0.20852783  0.39566519  1
  Pd  Pd169  1  -0.00374619  0.20776025  0.20248860  1
  Pd  Pd170  1  0.39732567  0.80831518  0.20720632  1
  Pd  Pd171  1  0.60961817  0.40774210  0.58809217  1
  Pd  Pd172  1  0.40810807  0.39931029  0.39956204  1
  Pd  Pd173  1  0.78829709  0.81147924  0.39789002  1
  Pd  Pd174  1  0.19968901  0.60000721  0.58914895  1
  Pd  Pd175  1  0.20541931  0.19104332  0.58732246  1
  Pd  Pd176  1  0.79281937  0.39738877  0.40456545  1
  Pd  Pd177  1  0.59298501  0.40321214  0.80249477  1
  Pd  Pd178  1  0.19878175  0.20146304  0.80537363  1
  Pd  Pd179  1  0.59678018  -0.00286245  0.00029316  1
  Pd  Pd180  1  0.60666526  0.60531897  0.00194649  1
  Pd  Pd181  1  0.00405646  0.39608290  0.38782704  1
  Pd  Pd182  1  0.80773421  0.79675240  0.20481330  1
  Pd  Pd183  1  0.40538808  0.60207493  0.79677720  1
  Pd  Pd184  1  0.59004570  0.79665972  0.59068014  1
  Pd  Pd185  1  0.39673641  0.19920459  0.19944833  1
  Pd  Pd186  1  -0.00573825  0.40218181  0.20275943  1
  Pd  Pd187  1  0.20477344  0.39059487  0.40177324  1
  Pd  Pd188  1  0.20409676  0.80597633  0.79310290  1
  Pd  Pd189  1  0.40572198  -0.00147395  0.80144477  1
  Pd  Pd190  1  0.60194168  0.59259294  0.60213155  1
  Pd  Pd191  1  0.60138221  0.19396224  0.20245681  1
  Pd  Pd192  1  0.00356145  0.79442177  0.39257454  1
  Pd  Pd193  1  0.19988671  0.80085699  -0.00080020  1
  Pd  Pd194  1  0.79226527  -0.00825984  0.40112477  1
  Pd  Pd195  1  -0.00680468  0.00728989  0.59414049  1
  Pd  Pd196  1  0.59501064  0.01083210  0.79435800  1
  Pd  Pd197  1  0.00630705  0.59567141  0.79060836  1
  Pd  Pd198  1  0.39228023  0.00061992  0.20484214  1
  Pd  Pd199  1  0.80474177  0.40289767  0.18989090  1
  Rh  Rh200  1  -0.00415043  0.39696586  -0.00675650  1
  Rh  Rh201  1  0.40255579  0.19696825  -0.00054994  1
  Rh  Rh202  1  0.00252573  0.00004843  0.81312142  1
  Rh  Rh203  1  0.80401977  0.39328845  0.79448778  1
  Rh  Rh204  1  0.59334476  0.59779655  0.40401835  1
  Rh  Rh205  1  0.20919582  0.19612874  0.00513738  1
  Rh  Rh206  1  0.20113824  0.58943636  0.19367113  1
  Rh  Rh207  1  0.79606997  0.00607502  0.20404915  1
  Rh  Rh208  1  0.20717494  0.00052509  0.79138986  1
  Rh  Rh209  1  0.79438548  0.80963328  0.60473981  1
  Rh  Rh210  1  0.59470062  0.80742207  0.19834990  1
  Rh  Rh211  1  0.79623178  0.19374158  0.00025768  1
  Rh  Rh212  1  0.80682257  0.59173554  0.58950630  1
  Rh  Rh213  1  0.59985734  0.78739105  0.81037339  1
  Rh  Rh214  1  0.40116633  0.00954032  0.60218722  1
  Rh  Rh215  1  0.20852934  0.40083355  0.59606646  1
  Rh  Rh216  1  0.60708709  0.19381524  -0.00278380  1
  Rh  Rh217  1  0.80188122  0.20331384  0.79926378  1
  Rh  Rh218  1  0.00865197  0.79142128  0.60720277  1
  Rh  Rh219  1  -0.00980274  0.40509137  0.60753013  1
  Rh  Rh220  1  0.20159770  0.81681414  0.20541431  1
  Rh  Rh221  1  0.39959992  0.20255444  0.80702149  1
  Rh  Rh222  1  0.40276240  0.39911646  0.19783477  1
  Rh  Rh223  1  0.20345054  0.19439632  0.20498886  1
  Rh  Rh224  1  0.60325086  0.19251904  0.80061744  1
  Rh  Rh225  1  0.39708704  0.40309702  0.60464079  1
  Rh  Rh226  1  0.00937843  0.61390959  0.01447488  1
  Rh  Rh227  1  0.60573152  0.59472696  0.18987760  1
  Rh  Rh228  1  0.40782427  0.80737344  -0.00351955  1
  Rh  Rh229  1  0.39421742  0.20168308  0.39974287  1
  Rh  Rh230  1  0.19722498  0.00639487  0.01111614  1
  Rh  Rh231  1  0.79363431  0.80805281  -0.00819259  1
  Rh  Rh232  1  0.59528816  0.39880926  0.20431641  1
  Rh  Rh233  1  0.79855202  0.00541751  -0.00278471  1
  Rh  Rh234  1  0.40789232  0.39145291  -0.00165107  1
  Rh  Rh235  1  0.59979309  0.38960720  0.00233886  1
  Rh  Rh236  1  -0.00706680  0.18831175  -0.00700265  1
  Rh  Rh237  1  0.19036223  0.00949483  0.39583365  1
  Rh  Rh238  1  0.79610809  0.20211176  0.19804090  1
  Rh  Rh239  1  0.41021840  0.00032453  -0.00244501  1
  Rh  Rh240  1  0.39918419  0.59871967  0.19412328  1
  Rh  Rh241  1  0.39924149  0.60759839  0.40172932  1
  Rh  Rh242  1  0.80058682  0.39516966  0.00074895  1
  Rh  Rh243  1  0.21035827  0.80315473  0.39880141  1
  Rh  Rh244  1  0.40225749  -0.00317203  0.39576541  1
  Rh  Rh245  1  0.39620090  0.19337828  0.59319093  1
  Rh  Rh246  1  0.19482351  0.40914395  -0.00288173  1
  Rh  Rh247  1  0.79283625  -0.01048826  0.79831196  1
  Rh  Rh248  1  0.81127286  0.59885529  0.39732973  1
  Rh  Rh249  1  0.79476249  0.20123682  0.40027332  1
