# generated using pymatgen
data_ZrScNbPdRh
_symmetry_space_group_name_H-M   'P 1'
_cell_length_a   16.55793663
_cell_length_b   16.56554212
_cell_length_c   16.55961403
_cell_angle_alpha   90.01882520
_cell_angle_beta   89.98548702
_cell_angle_gamma   89.97374308
_symmetry_Int_Tables_number   1
_chemical_formula_structural   ZrScNbPdRh
_chemical_formula_sum   'Zr50 Sc50 Nb50 Pd50 Rh50'
_cell_volume   4542.15548049
_cell_formula_units_Z   50
loop_
 _symmetry_equiv_pos_site_id
 _symmetry_equiv_pos_as_xyz
  1  'x, y, z'
loop_
 _atom_site_type_symbol
 _atom_site_label
 _atom_site_symmetry_multiplicity
 _atom_site_fract_x
 _atom_site_fract_y
 _atom_site_fract_z
 _atom_site_occupancy
  Zr  Zr0  1  0.90150312  0.69269885  0.49886469  1
  Zr  Zr1  1  0.49609776  0.90387389  0.49426359  1
  Zr  Zr2  1  0.90642640  0.49937583  0.09815442  1
  Zr  Zr3  1  0.49649664  0.30959362  0.49982609  1
  Zr  Zr4  1  0.70002131  0.29108835  0.10589952  1
  Zr  Zr5  1  0.50259190  0.30209347  0.29955457  1
  Zr  Zr6  1  0.90011683  0.90160387  0.88925517  1
  Zr  Zr7  1  0.11164565  0.89836251  0.51166085  1
  Zr  Zr8  1  0.89598040  0.70071780  0.09507638  1
  Zr  Zr9  1  0.69892364  0.50280682  0.10116968  1
  Zr  Zr10  1  0.30081439  0.09717533  0.09860399  1
  Zr  Zr11  1  0.50046739  0.29630801  0.70134534  1
  Zr  Zr12  1  0.09603350  0.50362164  0.29912845  1
  Zr  Zr13  1  0.49495641  0.69888431  0.89595396  1
  Zr  Zr14  1  0.49467253  0.49139770  0.30476819  1
  Zr  Zr15  1  0.09557966  0.49692148  0.49581647  1
  Zr  Zr16  1  0.10265987  0.09925327  0.69621384  1
  Zr  Zr17  1  0.70632912  0.89679309  0.70654078  1
  Zr  Zr18  1  0.29501882  0.49012745  0.10025452  1
  Zr  Zr19  1  0.90158728  0.69751414  0.29944494  1
  Zr  Zr20  1  0.10359756  0.09578962  0.90321556  1
  Zr  Zr21  1  0.90300406  0.90588604  0.49764104  1
  Zr  Zr22  1  0.70839776  0.49331696  0.49573740  1
  Zr  Zr23  1  0.70052679  0.10888150  0.29461701  1
  Zr  Zr24  1  0.89300383  0.89933810  0.09494135  1
  Zr  Zr25  1  0.49863380  0.90240712  0.89839126  1
  Zr  Zr26  1  0.69558367  0.69934738  0.50441244  1
  Zr  Zr27  1  0.69820649  0.31066114  0.29919694  1
  Zr  Zr28  1  0.90398148  0.50037918  0.50082082  1
  Zr  Zr29  1  0.09444213  0.90062259  0.70788933  1
  Zr  Zr30  1  0.49193828  0.69854427  0.09503435  1
  Zr  Zr31  1  0.49547963  0.50753752  0.69264844  1
  Zr  Zr32  1  0.29657924  0.70157352  0.49307843  1
  Zr  Zr33  1  0.89822720  0.30090238  0.09712542  1
  Zr  Zr34  1  0.29550805  0.30044849  0.70857252  1
  Zr  Zr35  1  0.10974384  0.89896372  0.09536561  1
  Zr  Zr36  1  0.10031618  0.10496276  0.30063019  1
  Zr  Zr37  1  0.29771701  0.89528146  0.90292480  1
  Zr  Zr38  1  0.10156251  0.70020518  0.49600031  1
  Zr  Zr39  1  0.50015786  0.90350133  0.70460175  1
  Zr  Zr40  1  0.48042641  0.69606973  0.30063530  1
  Zr  Zr41  1  0.10595214  0.69644404  0.10495115  1
  Zr  Zr42  1  0.29431935  0.89941857  0.69147418  1
  Zr  Zr43  1  0.31183926  0.31116804  0.29119871  1
  Zr  Zr44  1  0.50195758  0.29725397  0.89659748  1
  Zr  Zr45  1  0.69751866  0.50179027  0.89623343  1
  Zr  Zr46  1  0.69864099  0.70004433  0.09447224  1
  Zr  Zr47  1  0.89421884  0.49892151  0.30406751  1
  Zr  Zr48  1  0.09822057  0.29550358  0.70350151  1
  Zr  Zr49  1  0.69893795  0.70257530  0.69781105  1
  Sc  Sc50  1  0.89210031  0.29732640  0.51329243  1
  Sc  Sc51  1  0.50084487  0.49762541  0.90000891  1
  Sc  Sc52  1  0.89463810  0.10490625  0.90380224  1
  Sc  Sc53  1  0.90369872  0.49706142  0.70577694  1
  Sc  Sc54  1  0.10244416  0.09799331  0.10197456  1
  Sc  Sc55  1  0.30808650  0.08543655  0.29894690  1
  Sc  Sc56  1  0.69734992  0.09991170  0.90623108  1
  Sc  Sc57  1  0.11209962  0.90545050  0.30040409  1
  Sc  Sc58  1  0.09225375  0.30439557  0.30234479  1
  Sc  Sc59  1  0.30060187  0.69179550  0.70797677  1
  Sc  Sc60  1  0.70416821  0.10557328  0.50062855  1
  Sc  Sc61  1  0.89667984  0.91309192  0.29780908  1
  Sc  Sc62  1  0.48661829  0.50369473  0.50234426  1
  Sc  Sc63  1  0.91163262  0.10297910  0.70691934  1
  Sc  Sc64  1  0.90180103  0.10272699  0.30704824  1
  Sc  Sc65  1  0.30004445  0.49878331  0.70461977  1
  Sc  Sc66  1  0.30024637  0.50489316  0.30369742  1
  Sc  Sc67  1  0.51010813  0.09902635  0.89106038  1
  Sc  Sc68  1  0.29608658  0.30819609  0.51335074  1
  Sc  Sc69  1  0.09718291  0.49733998  0.71404640  1
  Sc  Sc70  1  0.71069825  0.29845892  0.69884940  1
  Sc  Sc71  1  0.89373960  0.10643844  0.10002439  1
  Sc  Sc72  1  0.69462816  0.29339276  0.89380480  1
  Sc  Sc73  1  0.90115952  0.69525908  0.89539488  1
  Sc  Sc74  1  0.49511364  0.90373769  0.10167869  1
  Sc  Sc75  1  0.49851487  0.09689319  0.51034734  1
  Sc  Sc76  1  0.10358777  0.30425201  0.89991428  1
  Sc  Sc77  1  0.90831843  0.50453516  0.89492444  1
  Sc  Sc78  1  0.30548774  0.10151866  0.69672287  1
  Sc  Sc79  1  0.10110482  0.29937103  0.50625065  1
  Sc  Sc80  1  0.09747372  0.09835303  0.50350368  1
  Sc  Sc81  1  0.70508045  0.90664607  0.90293152  1
  Sc  Sc82  1  0.30101771  0.70018339  0.89978094  1
  Sc  Sc83  1  0.09467034  0.49641676  0.09969805  1
  Sc  Sc84  1  0.50237887  0.50679461  0.09259576  1
  Sc  Sc85  1  0.29877833  0.90568653  0.49471198  1
  Sc  Sc86  1  0.29879578  0.89116139  0.09979367  1
  Sc  Sc87  1  0.70413576  0.90760892  0.09550346  1
  Sc  Sc88  1  0.50065460  0.29908663  0.10455814  1
  Sc  Sc89  1  0.10241120  0.70032047  0.89264084  1
  Sc  Sc90  1  0.89549912  0.29636646  0.28960114  1
  Sc  Sc91  1  0.49850246  0.09441493  0.70198184  1
  Sc  Sc92  1  0.10316395  0.70089039  0.70695048  1
  Sc  Sc93  1  0.49882764  0.09027255  0.29052057  1
  Sc  Sc94  1  0.69873529  0.91348048  0.30073109  1
  Sc  Sc95  1  0.70536510  0.68944976  0.29349807  1
  Sc  Sc96  1  0.09814002  0.30660014  0.09731028  1
  Sc  Sc97  1  0.29949049  0.49210103  0.89513907  1
  Sc  Sc98  1  0.70986622  0.70143644  0.89743184  1
  Sc  Sc99  1  0.69933406  0.90723090  0.49900487  1
  Nb  Nb100  1  0.30026890  0.10157914  0.49991176  1
  Nb  Nb101  1  0.49486772  0.89670181  0.29922534  1
  Nb  Nb102  1  0.10104214  0.89476764  0.89962109  1
  Nb  Nb103  1  0.70242525  0.50227911  0.69651228  1
  Nb  Nb104  1  0.28961475  0.70509034  0.29191014  1
  Nb  Nb105  1  0.89629741  0.70478749  0.70279479  1
  Nb  Nb106  1  0.29811573  0.09927742  0.90177528  1
  Nb  Nb107  1  0.29802603  0.50035050  0.50697982  1
  Nb  Nb108  1  0.29697382  0.69977777  0.10302344  1
  Nb  Nb109  1  0.10151142  0.50576748  0.90243594  1
  Nb  Nb110  1  0.90438023  0.30300532  0.71313919  1
  Nb  Nb111  1  0.50319218  0.69786546  0.69175337  1
  Nb  Nb112  1  0.90315149  0.90031333  0.70081288  1
  Nb  Nb113  1  0.10926409  0.70340687  0.29922606  1
  Nb  Nb114  1  0.68923434  0.10369761  0.09405728  1
  Nb  Nb115  1  0.29947571  0.30053877  0.09681628  1
  Nb  Nb116  1  0.69385324  0.09781785  0.69965696  1
  Nb  Nb117  1  0.50477313  0.10046118  0.09126407  1
  Nb  Nb118  1  0.69767943  0.49658180  0.30328920  1
  Nb  Nb119  1  0.50144108  0.69347796  0.50633913  1
  Nb  Nb120  1  0.89841832  0.09374647  0.50081660  1
  Nb  Nb121  1  0.89304902  0.29912046  0.89857020  1
  Nb  Nb122  1  0.31761145  0.89369123  0.29968085  1
  Nb  Nb123  1  0.29939983  0.29688167  0.90676283  1
  Nb  Nb124  1  0.69633080  0.30182014  0.50236113  1
  Nb  Nb125  1  0.39612867  0.19898685  -0.00235052  1
  Nb  Nb126  1  0.00323174  0.80079913  0.20036998  1
  Nb  Nb127  1  0.80173834  0.59926541  0.60373261  1
  Nb  Nb128  1  0.19736245  0.59556467  0.59549135  1
  Nb  Nb129  1  0.59776835  0.79847276  0.00369432  1
  Nb  Nb130  1  0.39788149  0.19971657  0.40208875  1
  Nb  Nb131  1  0.60482856  0.40127348  0.59919487  1
  Nb  Nb132  1  0.80086344  0.39630764  -0.00308410  1
  Nb  Nb133  1  0.59522169  0.79948906  0.20338958  1
  Nb  Nb134  1  0.19976829  0.59712186  0.00213248  1
  Nb  Nb135  1  -0.00426058  0.80047626  0.60154820  1
  Nb  Nb136  1  0.40577825  0.79385030  0.59970225  1
  Nb  Nb137  1  0.79996115  0.79895954  0.39974691  1
  Nb  Nb138  1  0.00195731  0.80208520  0.00060310  1
  Nb  Nb139  1  0.59658250  0.79393184  0.39418662  1
  Nb  Nb140  1  0.20759982  0.20435466  0.20369318  1
  Nb  Nb141  1  0.00122808  -0.00735767  -0.00224818  1
  Nb  Nb142  1  0.21051501  0.19990964  0.39633201  1
  Nb  Nb143  1  0.20122811  -0.00169085  0.80453610  1
  Nb  Nb144  1  0.60014206  0.60274551  0.78993832  1
  Nb  Nb145  1  0.80681198  0.00346143  0.60541597  1
  Nb  Nb146  1  0.39897944  0.00718380  -0.00386828  1
  Nb  Nb147  1  0.00175436  0.80058158  0.39735745  1
  Nb  Nb148  1  0.59709381  0.59861084  0.40045808  1
  Nb  Nb149  1  0.59591311  0.20660695  0.40165188  1
  Pd  Pd150  1  0.20077747  0.19465086  0.80075102  1
  Pd  Pd151  1  0.59980217  0.20455005  0.59921812  1
  Pd  Pd152  1  -0.00015518  0.60340541  0.20207237  1
  Pd  Pd153  1  0.40081230  0.40130469  0.79882724  1
  Pd  Pd154  1  -0.00065539  0.39710512  0.60722883  1
  Pd  Pd155  1  0.60634417  -0.00305183  0.60179755  1
  Pd  Pd156  1  0.59423260  0.81216396  0.59425245  1
  Pd  Pd157  1  0.80987715  0.38815942  0.40045388  1
  Pd  Pd158  1  0.00271317  0.20165672  0.81091048  1
  Pd  Pd159  1  0.20262047  0.00369537  0.39919610  1
  Pd  Pd160  1  0.79680693  0.20573728  0.40100028  1
  Pd  Pd161  1  -0.01016156  0.38612889  0.40176038  1
  Pd  Pd162  1  -0.00432213  0.39786575  -0.00955246  1
  Pd  Pd163  1  0.20230616  0.59440193  0.40149948  1
  Pd  Pd164  1  0.00660962  0.20110296  0.19412638  1
  Pd  Pd165  1  0.00221267  0.19573999  -0.00118930  1
  Pd  Pd166  1  0.80110815  0.40251190  0.80427352  1
  Pd  Pd167  1  0.59623568  0.00936016  0.39931741  1
  Pd  Pd168  1  0.00952616  -0.00361392  0.40010244  1
  Pd  Pd169  1  0.59514106  0.40579371  0.19124536  1
  Pd  Pd170  1  0.38727171  0.59420582  -0.00527132  1
  Pd  Pd171  1  0.20409701  0.39351530  0.39874356  1
  Pd  Pd172  1  0.39267660  0.59266325  0.19683088  1
  Pd  Pd173  1  0.60331862  0.79601513  0.80901768  1
  Pd  Pd174  1  0.19246356  0.39609121  0.20411472  1
  Pd  Pd175  1  0.79916789  0.01060377  0.19575600  1
  Pd  Pd176  1  0.40052008  0.19517526  0.19819887  1
  Pd  Pd177  1  0.79901504  0.01205700  0.79445111  1
  Pd  Pd178  1  0.40013302  0.79699130  0.40790644  1
  Pd  Pd179  1  -0.00112748  -0.00277661  0.19285392  1
  Pd  Pd180  1  0.60577825  0.39353087  0.00373369  1
  Pd  Pd181  1  0.80648014  0.19184455  0.61066038  1
  Pd  Pd182  1  0.19224647  0.40840850  0.61014062  1
  Pd  Pd183  1  0.40467870  0.39350060  0.00084722  1
  Pd  Pd184  1  0.39623353  0.79864431  0.79019427  1
  Pd  Pd185  1  -0.00566082  0.19975789  0.59776763  1
  Pd  Pd186  1  0.00283241  0.60407257  0.61407415  1
  Pd  Pd187  1  0.19821731  0.20383227  0.00771959  1
  Pd  Pd188  1  0.60023190  0.40421870  0.78901735  1
  Pd  Pd189  1  0.79407641  0.80636551  0.20958554  1
  Pd  Pd190  1  0.59317652  0.60341602  0.20868004  1
  Pd  Pd191  1  0.59962179  -0.00475793  0.19370145  1
  Pd  Pd192  1  0.80288196  0.59129963  -0.00572609  1
  Pd  Pd193  1  0.79543559  0.19241723  0.79597356  1
  Pd  Pd194  1  0.39723264  0.20203430  0.59796889  1
  Pd  Pd195  1  0.00104693  0.20433157  0.40954627  1
  Pd  Pd196  1  0.80181094  0.59347057  0.19773738  1
  Pd  Pd197  1  0.80714025  0.80370517  0.59386709  1
  Pd  Pd198  1  0.20803005  -0.00096457  0.20282553  1
  Pd  Pd199  1  0.39986425  0.19327246  0.80552204  1
  Rh  Rh200  1  0.39731595  -0.00709530  0.59788635  1
  Rh  Rh201  1  0.79315284  0.20595094  -0.00102931  1
  Rh  Rh202  1  0.40495039  0.00838656  0.40216068  1
  Rh  Rh203  1  0.59428027  0.19581784  0.20492144  1
  Rh  Rh204  1  0.59965932  0.40503888  0.40884149  1
  Rh  Rh205  1  0.20008972  0.59438388  0.80427928  1
  Rh  Rh206  1  0.38387820  0.60774129  0.59838750  1
  Rh  Rh207  1  0.79937033  0.19488893  0.19840813  1
  Rh  Rh208  1  0.20389993  0.59354684  0.19565807  1
  Rh  Rh209  1  0.38827391  0.39850738  0.40818424  1
  Rh  Rh210  1  0.79684946  0.00268547  0.40666501  1
  Rh  Rh211  1  0.80156793  0.40241276  0.60848136  1
  Rh  Rh212  1  -0.00503341  -0.00231124  0.60203100  1
  Rh  Rh213  1  0.00202981  0.39566516  0.80732692  1
  Rh  Rh214  1  0.01111497  0.60971388  -0.00561786  1
  Rh  Rh215  1  0.60493315  0.19587652  0.79217803  1
  Rh  Rh216  1  -0.00310714  0.40056476  0.20487126  1
  Rh  Rh217  1  0.80466696  0.00879153  0.00171818  1
  Rh  Rh218  1  0.19705602  0.78464196  -0.00340156  1
  Rh  Rh219  1  -0.00468630  0.79450487  0.79969362  1
  Rh  Rh220  1  0.80020257  0.80147694  -0.00773843  1
  Rh  Rh221  1  0.60857239  0.58734838  0.59551991  1
  Rh  Rh222  1  0.20526620  0.80425494  0.79805257  1
  Rh  Rh223  1  0.79801711  0.59941831  0.79193467  1
  Rh  Rh224  1  0.40099639  0.39865410  0.60846666  1
  Rh  Rh225  1  0.40752321  0.59631524  0.80188378  1
  Rh  Rh226  1  0.59431261  -0.00637918  -0.00005023  1
  Rh  Rh227  1  0.20160739  0.80832546  0.39031105  1
  Rh  Rh228  1  0.20265205  0.78542913  0.60715394  1
  Rh  Rh229  1  0.39651568  0.59810962  0.40328676  1
  Rh  Rh230  1  0.20210537  0.19749969  0.59319929  1
  Rh  Rh231  1  0.80025250  0.40754985  0.19276521  1
  Rh  Rh232  1  0.00713258  0.60580843  0.39005403  1
  Rh  Rh233  1  0.40056088  -0.00476047  0.18976276  1
  Rh  Rh234  1  0.39125937  0.00285058  0.80649120  1
  Rh  Rh235  1  -0.00039041  0.60373819  0.79830090  1
  Rh  Rh236  1  0.40332039  0.80550976  0.00374874  1
  Rh  Rh237  1  0.39972106  0.79972633  0.19372566  1
  Rh  Rh238  1  0.78921824  0.60390249  0.40485451  1
  Rh  Rh239  1  0.19867382  0.39759573  0.80458581  1
  Rh  Rh240  1  0.80305675  0.79961828  0.80383647  1
  Rh  Rh241  1  0.59336986  0.20306400  -0.00116776  1
  Rh  Rh242  1  0.20218151  -0.00282454  -0.00550652  1
  Rh  Rh243  1  0.19699625  0.40518278  -0.00570402  1
  Rh  Rh244  1  0.40739837  0.40775944  0.18801799  1
  Rh  Rh245  1  0.20172143  0.80789347  0.20510268  1
  Rh  Rh246  1  0.20473986  0.00975588  0.60500522  1
  Rh  Rh247  1  0.60770756  0.00038346  0.79961510  1
  Rh  Rh248  1  0.60195141  0.60901608  -0.01492696  1
  Rh  Rh249  1  0.00597552  0.00442705  0.80793145  1
