# generated using pymatgen
data_ZrScNbPdRh
_symmetry_space_group_name_H-M   'P 1'
_cell_length_a   16.56202049
_cell_length_b   16.56496690
_cell_length_c   16.56039056
_cell_angle_alpha   89.98502451
_cell_angle_beta   90.01854722
_cell_angle_gamma   90.02496840
_symmetry_Int_Tables_number   1
_chemical_formula_structural   ZrScNbPdRh
_chemical_formula_sum   'Zr50 Sc50 Nb50 Pd50 Rh50'
_cell_volume   4543.33108419
_cell_formula_units_Z   50
loop_
 _symmetry_equiv_pos_site_id
 _symmetry_equiv_pos_as_xyz
  1  'x, y, z'
loop_
 _atom_site_type_symbol
 _atom_site_label
 _atom_site_symmetry_multiplicity
 _atom_site_fract_x
 _atom_site_fract_y
 _atom_site_fract_z
 _atom_site_occupancy
  Zr  Zr0  1  0.30271937  0.10658046  0.29758294  1
  Zr  Zr1  1  0.09951205  0.49752312  0.70663342  1
  Zr  Zr2  1  0.49859203  0.29750272  0.10005633  1
  Zr  Zr3  1  0.69984598  0.70088913  0.70268800  1
  Zr  Zr4  1  0.69066885  0.89741535  0.30406418  1
  Zr  Zr5  1  0.28708792  0.68969965  0.10216818  1
  Zr  Zr6  1  0.89516285  0.70316419  0.30009727  1
  Zr  Zr7  1  0.10324884  0.69643570  0.90154501  1
  Zr  Zr8  1  0.09494028  0.90872824  0.50193783  1
  Zr  Zr9  1  0.09205347  0.29714097  0.69754882  1
  Zr  Zr10  1  0.30767318  0.29924407  0.48957192  1
  Zr  Zr11  1  0.29582326  0.48823502  0.90165194  1
  Zr  Zr12  1  0.69312551  0.69585953  0.90564251  1
  Zr  Zr13  1  0.50287453  0.29651350  0.70499065  1
  Zr  Zr14  1  0.48525074  0.69935629  0.49521679  1
  Zr  Zr15  1  0.90969421  0.50055584  0.10240109  1
  Zr  Zr16  1  0.68079405  0.49346856  0.49895065  1
  Zr  Zr17  1  0.49813383  0.30390997  0.50051265  1
  Zr  Zr18  1  0.49783414  0.69313333  0.70544540  1
  Zr  Zr19  1  0.49416596  0.10855310  0.90639875  1
  Zr  Zr20  1  0.09369808  0.49348377  0.29626590  1
  Zr  Zr21  1  0.70199638  0.89675595  0.90280258  1
  Zr  Zr22  1  0.70001819  0.90050635  0.50189101  1
  Zr  Zr23  1  0.10620136  0.69254694  0.31119392  1
  Zr  Zr24  1  0.89440779  0.90009415  0.90223599  1
  Zr  Zr25  1  0.10904632  0.69006701  0.69764656  1
  Zr  Zr26  1  0.30317140  0.29596939  0.91140527  1
  Zr  Zr27  1  0.90301149  0.48791683  0.70291840  1
  Zr  Zr28  1  0.90370810  0.10710786  0.69928982  1
  Zr  Zr29  1  0.10300612  0.90833677  0.70213757  1
  Zr  Zr30  1  0.69756000  0.70195264  0.29272679  1
  Zr  Zr31  1  0.10329850  0.30544282  0.30276295  1
  Zr  Zr32  1  0.50985940  0.69540471  0.09730690  1
  Zr  Zr33  1  0.70975524  0.30462715  0.69616474  1
  Zr  Zr34  1  0.10728752  0.08614399  0.10327963  1
  Zr  Zr35  1  0.68922475  0.10575058  0.49472040  1
  Zr  Zr36  1  0.69078681  0.09515126  0.29589523  1
  Zr  Zr37  1  0.69148596  0.51458939  0.10434895  1
  Zr  Zr38  1  0.29594382  0.90031724  0.90021599  1
  Zr  Zr39  1  0.10221015  0.89685675  0.91116679  1
  Zr  Zr40  1  0.89368240  0.90310817  0.69642451  1
  Zr  Zr41  1  0.29829867  0.50435374  0.69665380  1
  Zr  Zr42  1  0.70418299  0.90022089  0.70524633  1
  Zr  Zr43  1  0.90212117  0.29878287  0.50730489  1
  Zr  Zr44  1  0.49585323  0.10127808  0.69409396  1
  Zr  Zr45  1  0.10596719  0.10501147  0.50610022  1
  Zr  Zr46  1  0.90162631  0.10219060  0.50223528  1
  Zr  Zr47  1  0.30285563  0.70386173  0.31473064  1
  Zr  Zr48  1  0.10376547  0.10300312  0.70227862  1
  Zr  Zr49  1  0.30673556  0.89041112  0.50434402  1
  Sc  Sc50  1  0.29414494  0.49586653  0.29821829  1
  Sc  Sc51  1  0.89867924  0.10032901  0.29425232  1
  Sc  Sc52  1  0.89346660  0.09723469  0.90363794  1
  Sc  Sc53  1  0.50027516  0.49414712  0.69077225  1
  Sc  Sc54  1  0.30024150  0.30323986  0.71123826  1
  Sc  Sc55  1  0.89637528  0.70232526  0.09421717  1
  Sc  Sc56  1  0.89911169  0.30238097  0.89281993  1
  Sc  Sc57  1  0.11070960  0.30240776  0.89661737  1
  Sc  Sc58  1  0.11069385  0.30808415  0.09845299  1
  Sc  Sc59  1  0.89751030  0.71070902  0.48845307  1
  Sc  Sc60  1  0.50522685  0.69797538  0.89683454  1
  Sc  Sc61  1  0.49589404  0.29822201  0.90185396  1
  Sc  Sc62  1  0.90925278  0.30212301  0.30161021  1
  Sc  Sc63  1  0.30103038  0.09656984  0.70151528  1
  Sc  Sc64  1  0.49983479  0.70823363  0.30142529  1
  Sc  Sc65  1  0.69777113  0.10936236  0.10287494  1
  Sc  Sc66  1  0.89265147  0.09289793  0.10086743  1
  Sc  Sc67  1  0.70616103  0.10306909  0.90514299  1
  Sc  Sc68  1  0.11022635  0.50068681  0.09812322  1
  Sc  Sc69  1  0.90152412  0.90224990  0.09486647  1
  Sc  Sc70  1  0.50408615  0.90095453  0.29680115  1
  Sc  Sc71  1  0.49676175  0.10091748  0.10425876  1
  Sc  Sc72  1  0.91094267  0.49804526  0.89839801  1
  Sc  Sc73  1  0.30150228  0.10486133  0.09768031  1
  Sc  Sc74  1  0.50001341  0.49171394  0.10597910  1
  Sc  Sc75  1  0.49190701  0.89535378  0.90120181  1
  Sc  Sc76  1  0.10142144  0.91373858  0.30072977  1
  Sc  Sc77  1  0.30457278  0.90034988  0.30010735  1
  Sc  Sc78  1  0.29739304  0.09854877  0.90692722  1
  Sc  Sc79  1  0.90846264  0.69499563  0.90597830  1
  Sc  Sc80  1  0.30144785  0.30073211  0.29220141  1
  Sc  Sc81  1  0.70163124  0.10366129  0.69746929  1
  Sc  Sc82  1  0.69223061  0.28984618  0.29363352  1
  Sc  Sc83  1  0.49275444  0.30160674  0.29241463  1
  Sc  Sc84  1  0.29993261  0.90945408  0.10059088  1
  Sc  Sc85  1  0.50234378  0.90338780  0.50095681  1
  Sc  Sc86  1  0.30074859  0.89857445  0.70266674  1
  Sc  Sc87  1  0.69919297  0.29363653  0.89612013  1
  Sc  Sc88  1  0.09829484  0.50047862  0.48877483  1
  Sc  Sc89  1  0.48816404  0.89982985  0.69824337  1
  Sc  Sc90  1  0.69888350  0.89806246  0.10032545  1
  Sc  Sc91  1  0.49790150  0.89909922  0.10423677  1
  Sc  Sc92  1  0.69474217  0.70316395  0.49136455  1
  Sc  Sc93  1  0.90396336  0.30232631  0.10111158  1
  Sc  Sc94  1  0.09948213  0.69463428  0.08781291  1
  Sc  Sc95  1  0.69921720  0.70504532  0.09622284  1
  Sc  Sc96  1  0.50269555  0.50436343  0.88959000  1
  Sc  Sc97  1  0.10709870  0.09844606  0.30115515  1
  Sc  Sc98  1  0.90049452  0.90093224  0.30215333  1
  Sc  Sc99  1  0.69211072  0.49515602  0.69979206  1
  Nb  Nb100  1  0.10340109  0.29972231  0.50015943  1
  Nb  Nb101  1  0.69592587  0.49936751  0.29750962  1
  Nb  Nb102  1  0.29975382  0.69851421  0.68858938  1
  Nb  Nb103  1  0.31417963  0.49502849  0.50587639  1
  Nb  Nb104  1  0.50403844  0.10137475  0.30076115  1
  Nb  Nb105  1  0.90102731  0.49650080  0.30256009  1
  Nb  Nb106  1  0.09634583  0.50168885  0.89605367  1
  Nb  Nb107  1  0.70530880  0.49986762  0.89920092  1
  Nb  Nb108  1  0.89659606  0.49921670  0.49497405  1
  Nb  Nb109  1  0.50583628  0.49834232  0.30008818  1
  Nb  Nb110  1  0.49157676  0.49103761  0.49317893  1
  Nb  Nb111  1  0.31026303  0.10352085  0.49891548  1
  Nb  Nb112  1  0.10382605  0.09943916  0.90468032  1
  Nb  Nb113  1  0.70394268  0.29811582  0.49781635  1
  Nb  Nb114  1  0.90254669  0.69675248  0.69737104  1
  Nb  Nb115  1  0.69680104  0.30482669  0.09952893  1
  Nb  Nb116  1  0.90070582  0.30138543  0.69777168  1
  Nb  Nb117  1  0.29477396  0.70217443  0.90398296  1
  Nb  Nb118  1  0.89954802  0.90558762  0.50180372  1
  Nb  Nb119  1  0.49296005  0.10467380  0.49990449  1
  Nb  Nb120  1  0.09940193  0.89629954  0.10415829  1
  Nb  Nb121  1  0.28894638  0.69404366  0.51208513  1
  Nb  Nb122  1  0.30788366  0.31453656  0.09571835  1
  Nb  Nb123  1  0.10438486  0.70128002  0.50377508  1
  Nb  Nb124  1  0.30193005  0.49435157  0.09961414  1
  Nb  Nb125  1  0.40428529  0.01073956  0.40376900  1
  Nb  Nb126  1  0.59717126  0.00200685  -0.00479485  1
  Nb  Nb127  1  0.39397190  0.59816744  0.00235275  1
  Nb  Nb128  1  0.00855473  0.19467695  0.00256020  1
  Nb  Nb129  1  0.39800139  0.59786396  0.19896861  1
  Nb  Nb130  1  0.79630350  0.58769598  0.39780674  1
  Nb  Nb131  1  0.80459446  0.59694104  0.59541163  1
  Nb  Nb132  1  0.59781539  0.79727976  0.60351346  1
  Nb  Nb133  1  0.00087464  0.60344234  0.20558989  1
  Nb  Nb134  1  0.79467751  0.40097351  0.39768819  1
  Nb  Nb135  1  0.00786563  0.79712109  0.20021547  1
  Nb  Nb136  1  0.00806573  0.19781576  0.19279551  1
  Nb  Nb137  1  0.60747768  0.40141729  0.00006152  1
  Nb  Nb138  1  0.79293268  0.40399398  0.00521475  1
  Nb  Nb139  1  0.19333937  0.79882901  0.20027100  1
  Nb  Nb140  1  0.00107862  0.80056034  0.79370185  1
  Nb  Nb141  1  0.79692782  0.00115001  0.40514001  1
  Nb  Nb142  1  0.59745548  0.00245568  0.80429879  1
  Nb  Nb143  1  0.39178269  0.78868348  0.00229640  1
  Nb  Nb144  1  -0.00442577  0.60324395  0.59365299  1
  Nb  Nb145  1  0.00030618  0.79800811  0.59939767  1
  Nb  Nb146  1  0.00262004  -0.00059159  0.80387574  1
  Nb  Nb147  1  0.79509442  0.40598196  0.20240943  1
  Nb  Nb148  1  0.80272691  0.59763035  0.79490644  1
  Nb  Nb149  1  0.20092875  0.39770553  0.59260320  1
  Pd  Pd150  1  0.21150566  0.00135609  0.59690068  1
  Pd  Pd151  1  0.59674724  0.60540866  0.59578096  1
  Pd  Pd152  1  0.39451642  0.79121385  0.80292824  1
  Pd  Pd153  1  0.80863946  0.20993438  0.20065851  1
  Pd  Pd154  1  0.20094070  0.20078644  0.39905440  1
  Pd  Pd155  1  0.40381818  0.40068169  0.80046962  1
  Pd  Pd156  1  0.40588216  0.59774270  0.59994057  1
  Pd  Pd157  1  0.00499341  0.19691692  0.39374823  1
  Pd  Pd158  1  0.59152424  0.80925007  0.79560658  1
  Pd  Pd159  1  0.40198552  0.00500683  0.80419333  1
  Pd  Pd160  1  0.20967234  0.58846943  0.40828817  1
  Pd  Pd161  1  0.80919006  0.78608641  0.81000286  1
  Pd  Pd162  1  0.80652437  0.59483546  -0.00658558  1
  Pd  Pd163  1  0.79525995  0.40696663  0.59251210  1
  Pd  Pd164  1  0.21224303  0.20872926  0.60195255  1
  Pd  Pd165  1  0.00873127  0.40735887  0.59134820  1
  Pd  Pd166  1  0.60022554  0.38819753  0.39048060  1
  Pd  Pd167  1  0.39245337  0.20822446  0.60802149  1
  Pd  Pd168  1  0.19498125  0.81055602  0.39798973  1
  Pd  Pd169  1  0.00203994  0.39163878  -0.00480473  1
  Pd  Pd170  1  0.79541225  -0.00720507  0.20438992  1
  Pd  Pd171  1  0.79474580  0.01065719  0.59544782  1
  Pd  Pd172  1  0.19928048  0.79683347  0.79407674  1
  Pd  Pd173  1  0.80893013  0.20904777  0.00368629  1
  Pd  Pd174  1  0.20707816  0.40467756  0.40472962  1
  Pd  Pd175  1  0.60163626  0.39770720  0.80556193  1
  Pd  Pd176  1  0.80026060  0.20069810  0.39237448  1
  Pd  Pd177  1  0.39753695  0.59013990  0.39184162  1
  Pd  Pd178  1  0.80692130  0.59720875  0.20221301  1
  Pd  Pd179  1  0.39048455  0.79094477  0.19301371  1
  Pd  Pd180  1  0.60320895  0.19343138  0.80149595  1
  Pd  Pd181  1  -0.00692498  0.60322113  0.40179291  1
  Pd  Pd182  1  0.79909181  0.79202466  0.59153844  1
  Pd  Pd183  1  0.40237077  0.00408631  0.20620904  1
  Pd  Pd184  1  0.21267376  -0.00054664  0.40519282  1
  Pd  Pd185  1  0.20876186  0.59840623  0.80575397  1
  Pd  Pd186  1  0.39013219  0.60307670  0.80602254  1
  Pd  Pd187  1  0.19986779  0.20582435  0.19225449  1
  Pd  Pd188  1  0.80106530  0.19981844  0.79992691  1
  Pd  Pd189  1  0.59108830  0.20859937  0.39656276  1
  Pd  Pd190  1  -0.00717826  0.00778325  0.39544838  1
  Pd  Pd191  1  0.60285738  0.20706756  0.60041283  1
  Pd  Pd192  1  0.19514581  0.80637292  0.60326669  1
  Pd  Pd193  1  0.00615070  0.80645682  0.39928620  1
  Pd  Pd194  1  0.80614567  0.80869164  0.19519155  1
  Pd  Pd195  1  0.59550856  -0.00545853  0.60816469  1
  Pd  Pd196  1  -0.00086019  0.19731823  0.81195578  1
  Pd  Pd197  1  0.59809606  0.60540189  0.39617376  1
  Pd  Pd198  1  0.20609772  0.19832897  0.80350797  1
  Pd  Pd199  1  -0.00211566  0.00459707  -0.00101386  1
  Rh  Rh200  1  0.40010241  0.40247205  0.38969319  1
  Rh  Rh201  1  0.40313390  0.79377967  0.60254346  1
  Rh  Rh202  1  0.39662196  0.20078985  0.00782095  1
  Rh  Rh203  1  0.39882698  0.40782929  0.20382459  1
  Rh  Rh204  1  -0.00040368  0.39825515  0.19693906  1
  Rh  Rh205  1  -0.00023217  0.00104736  0.60664950  1
  Rh  Rh206  1  0.80141212  0.40326063  0.80577518  1
  Rh  Rh207  1  0.41365863  0.40783918  -0.00411064  1
  Rh  Rh208  1  0.79758301  0.80947616  0.39967396  1
  Rh  Rh209  1  0.20388414  0.39829912  0.19799863  1
  Rh  Rh210  1  0.19731769  0.00414204  0.80589502  1
  Rh  Rh211  1  0.59293081  0.79858716  0.40704575  1
  Rh  Rh212  1  0.59544040  0.39068582  0.59950382  1
  Rh  Rh213  1  0.39637181  0.00008361  0.59390034  1
  Rh  Rh214  1  0.80085581  0.79694326  -0.00159424  1
  Rh  Rh215  1  -0.00451474  0.60492720  0.79561275  1
  Rh  Rh216  1  0.58928199  0.60485379  0.20948565  1
  Rh  Rh217  1  0.59975539  0.20146533  0.00249434  1
  Rh  Rh218  1  0.40613730  0.19852044  0.39138938  1
  Rh  Rh219  1  0.40520190  0.81196973  0.40077370  1
  Rh  Rh220  1  0.59525555  0.00358580  0.40144381  1
  Rh  Rh221  1  -0.00247967  0.79904925  0.00087511  1
  Rh  Rh222  1  0.79783495  0.19958463  0.60045069  1
  Rh  Rh223  1  0.39653540  0.39359384  0.60541068  1
  Rh  Rh224  1  0.40534404  -0.00603403  -0.00052211  1
  Rh  Rh225  1  0.39855453  0.20072679  0.19768581  1
  Rh  Rh226  1  0.19515621  0.58534958  0.59015257  1
  Rh  Rh227  1  0.39494761  0.19652260  0.80099465  1
  Rh  Rh228  1  0.19856770  0.20269784  0.00528285  1
  Rh  Rh229  1  0.00498301  0.59560118  0.00559655  1
  Rh  Rh230  1  0.20690212  0.80633218  0.01115446  1
  Rh  Rh231  1  0.20392278  -0.00309861  0.00211344  1
  Rh  Rh232  1  0.59067028  0.80970540  0.00170785  1
  Rh  Rh233  1  0.20695469  -0.00581434  0.20226954  1
  Rh  Rh234  1  0.59036509  0.58957045  -0.00603603  1
  Rh  Rh235  1  0.78694377  0.00029252  0.00572003  1
  Rh  Rh236  1  0.60929851  0.59392527  0.79838914  1
  Rh  Rh237  1  0.59864998  0.00186954  0.18975749  1
  Rh  Rh238  1  0.20148562  0.58722751  -0.00985274  1
  Rh  Rh239  1  0.60121202  0.80018310  0.19653231  1
  Rh  Rh240  1  0.79947619  0.00885328  0.79885039  1
  Rh  Rh241  1  -0.00081812  0.00054047  0.19988009  1
  Rh  Rh242  1  0.59389756  0.19952962  0.19755076  1
  Rh  Rh243  1  -0.00471314  0.39195957  0.40684090  1
  Rh  Rh244  1  0.00411422  0.38986933  0.80541119  1
  Rh  Rh245  1  0.19554437  0.40277379  -0.00224085  1
  Rh  Rh246  1  0.19649267  0.39928532  0.79512715  1
  Rh  Rh247  1  0.19800198  0.60246600  0.20832851  1
  Rh  Rh248  1  0.60323884  0.39778781  0.19807662  1
  Rh  Rh249  1  0.00147947  0.19964189  0.59740129  1
