# generated using pymatgen
data_ZrScNbPdRh
_symmetry_space_group_name_H-M   'P 1'
_cell_length_a   16.56439928
_cell_length_b   16.56543492
_cell_length_c   16.55815489
_cell_angle_alpha   90.04182207
_cell_angle_beta   89.99045829
_cell_angle_gamma   90.01979339
_symmetry_Int_Tables_number   1
_chemical_formula_structural   ZrScNbPdRh
_chemical_formula_sum   'Zr50 Sc50 Nb50 Pd50 Rh50'
_cell_volume   4543.49784305
_cell_formula_units_Z   50
loop_
 _symmetry_equiv_pos_site_id
 _symmetry_equiv_pos_as_xyz
  1  'x, y, z'
loop_
 _atom_site_type_symbol
 _atom_site_label
 _atom_site_symmetry_multiplicity
 _atom_site_fract_x
 _atom_site_fract_y
 _atom_site_fract_z
 _atom_site_occupancy
  Zr  Zr0  1  0.49230484  0.50156488  0.10049744  1
  Zr  Zr1  1  0.29584685  0.09996149  0.09537010  1
  Zr  Zr2  1  0.69923798  0.49533590  0.10275957  1
  Zr  Zr3  1  0.49732042  0.69707513  0.09847152  1
  Zr  Zr4  1  0.10201162  0.89059699  0.69679281  1
  Zr  Zr5  1  0.50105751  0.50417961  0.50199530  1
  Zr  Zr6  1  0.90266134  0.69886334  0.30512000  1
  Zr  Zr7  1  0.49966456  0.10882247  0.09884118  1
  Zr  Zr8  1  0.69811547  0.30529810  0.10055486  1
  Zr  Zr9  1  0.10450644  0.30983963  0.90338883  1
  Zr  Zr10  1  0.29918810  0.30347801  0.70126087  1
  Zr  Zr11  1  0.10480869  0.49932724  0.29971594  1
  Zr  Zr12  1  0.49127780  0.89964344  0.29911083  1
  Zr  Zr13  1  0.89177808  0.30379564  0.10092896  1
  Zr  Zr14  1  0.30103441  0.50655624  0.70948786  1
  Zr  Zr15  1  0.90211582  0.89793703  0.89833814  1
  Zr  Zr16  1  0.49966038  0.69531621  0.50268872  1
  Zr  Zr17  1  0.50786868  0.09938978  0.30570075  1
  Zr  Zr18  1  0.88703903  0.30363400  0.69884110  1
  Zr  Zr19  1  0.29948863  0.10323254  0.49892712  1
  Zr  Zr20  1  0.29977997  0.30848163  0.30777956  1
  Zr  Zr21  1  0.30931587  0.09866123  0.69504363  1
  Zr  Zr22  1  0.69934714  0.29154187  0.50528347  1
  Zr  Zr23  1  0.49650163  0.29803466  0.49047774  1
  Zr  Zr24  1  0.89723526  0.49870660  0.08642643  1
  Zr  Zr25  1  0.11097589  0.69873461  0.69843390  1
  Zr  Zr26  1  0.89959824  0.29028833  0.29652466  1
  Zr  Zr27  1  0.11362638  0.70148491  0.30018002  1
  Zr  Zr28  1  0.09299555  0.49736796  0.50843988  1
  Zr  Zr29  1  0.09652534  0.30790542  0.69059038  1
  Zr  Zr30  1  0.70273524  0.50420904  0.50110414  1
  Zr  Zr31  1  0.90003739  0.09558145  0.90248210  1
  Zr  Zr32  1  0.30937585  0.30048108  0.10447718  1
  Zr  Zr33  1  0.29519999  0.89270088  0.30416395  1
  Zr  Zr34  1  0.49988429  0.09189534  0.89160190  1
  Zr  Zr35  1  0.30152820  0.50628143  0.09720242  1
  Zr  Zr36  1  0.70650749  0.51167338  0.90035063  1
  Zr  Zr37  1  0.10422020  0.50161670  0.69773113  1
  Zr  Zr38  1  0.69795377  0.89546330  0.10233247  1
  Zr  Zr39  1  0.89220135  0.09713430  0.69908026  1
  Zr  Zr40  1  0.89514445  0.30722014  0.90545198  1
  Zr  Zr41  1  0.10023303  0.09428797  0.90908465  1
  Zr  Zr42  1  0.70262612  0.69715345  0.30522083  1
  Zr  Zr43  1  0.30157301  0.10196958  0.89819439  1
  Zr  Zr44  1  0.50371287  0.68954294  0.70195286  1
  Zr  Zr45  1  0.09524550  0.09549238  0.49253001  1
  Zr  Zr46  1  0.71045706  0.90269005  0.50573114  1
  Zr  Zr47  1  0.89833871  0.70124044  0.69879470  1
  Zr  Zr48  1  0.70488291  0.49878012  0.69707331  1
  Zr  Zr49  1  0.70211353  0.29811877  0.29522101  1
  Sc  Sc50  1  0.89512849  0.69920814  0.90828629  1
  Sc  Sc51  1  0.49833363  0.90183327  0.49886670  1
  Sc  Sc52  1  0.10473788  0.49844351  0.09193527  1
  Sc  Sc53  1  0.68959849  0.89352656  0.89590059  1
  Sc  Sc54  1  0.69657710  0.89647869  0.30695599  1
  Sc  Sc55  1  0.09231271  0.09738404  0.68630731  1
  Sc  Sc56  1  0.89192799  0.50038362  0.69395800  1
  Sc  Sc57  1  0.30384823  0.50260015  0.48925413  1
  Sc  Sc58  1  0.49351395  0.10145633  0.49833342  1
  Sc  Sc59  1  0.69743978  0.70174353  0.08992777  1
  Sc  Sc60  1  0.29461360  0.69684094  0.89939012  1
  Sc  Sc61  1  0.89915944  0.89915397  0.69503560  1
  Sc  Sc62  1  0.90031869  0.50908669  0.50413538  1
  Sc  Sc63  1  0.10506038  0.29561014  0.49758105  1
  Sc  Sc64  1  0.69471288  0.10890759  0.08896175  1
  Sc  Sc65  1  0.09091669  0.90189166  0.90547842  1
  Sc  Sc66  1  0.49698614  0.10129416  0.70353052  1
  Sc  Sc67  1  0.29950628  0.09193329  0.29854639  1
  Sc  Sc68  1  0.29788622  0.90309389  0.69700298  1
  Sc  Sc69  1  0.70140418  0.70132165  0.70375806  1
  Sc  Sc70  1  0.30593046  0.50547309  0.29688040  1
  Sc  Sc71  1  0.49960946  0.90817585  0.70139136  1
  Sc  Sc72  1  0.09999140  0.70527425  0.90052662  1
  Sc  Sc73  1  0.90718603  0.29887321  0.50025242  1
  Sc  Sc74  1  0.50073649  0.29431049  0.69651643  1
  Sc  Sc75  1  0.90437885  0.89281755  0.09525069  1
  Sc  Sc76  1  0.70580128  0.29604057  0.89983065  1
  Sc  Sc77  1  0.90324132  0.50036570  0.30946475  1
  Sc  Sc78  1  0.48850680  0.29622557  0.89179645  1
  Sc  Sc79  1  0.49481474  0.70439576  0.30554325  1
  Sc  Sc80  1  0.69580936  0.09901881  0.89470585  1
  Sc  Sc81  1  0.51035535  0.69664042  0.90283894  1
  Sc  Sc82  1  0.10581427  0.69677825  0.50978641  1
  Sc  Sc83  1  0.50092800  0.88852657  0.09938200  1
  Sc  Sc84  1  0.69707656  0.69841941  0.50849332  1
  Sc  Sc85  1  0.69838631  0.70161434  0.89336671  1
  Sc  Sc86  1  0.90254293  0.10484943  0.10472108  1
  Sc  Sc87  1  0.10839222  0.69280846  0.09705336  1
  Sc  Sc88  1  0.29970970  0.30571199  0.89910048  1
  Sc  Sc89  1  0.89548470  0.09505618  0.49693500  1
  Sc  Sc90  1  0.10372135  0.30537709  0.10625740  1
  Sc  Sc91  1  0.09619758  0.30042670  0.30351817  1
  Sc  Sc92  1  0.30613945  0.90033258  0.10853817  1
  Sc  Sc93  1  0.29717298  0.90048240  0.89772889  1
  Sc  Sc94  1  0.30465431  0.69476461  0.10682791  1
  Sc  Sc95  1  0.10382133  0.09172814  0.10072228  1
  Sc  Sc96  1  0.29697651  0.90972651  0.49946216  1
  Sc  Sc97  1  0.70743694  0.89252277  0.70212851  1
  Sc  Sc98  1  0.49733631  0.29979921  0.28927607  1
  Sc  Sc99  1  0.09096760  0.09521004  0.29952242  1
  Nb  Nb100  1  0.70105210  0.09988811  0.49271178  1
  Nb  Nb101  1  0.29950524  0.69783234  0.30581958  1
  Nb  Nb102  1  0.09454482  0.90749189  0.49700681  1
  Nb  Nb103  1  0.89394987  0.09814205  0.30390707  1
  Nb  Nb104  1  0.70845839  0.09902557  0.31547169  1
  Nb  Nb105  1  0.49768354  0.89782423  0.89496781  1
  Nb  Nb106  1  0.90174007  0.50076527  0.89919399  1
  Nb  Nb107  1  0.50442985  0.30327775  0.10108161  1
  Nb  Nb108  1  0.29537917  0.49228015  0.89954797  1
  Nb  Nb109  1  0.10254629  0.49808557  0.90423175  1
  Nb  Nb110  1  0.10063977  0.89926594  0.09758416  1
  Nb  Nb111  1  0.70251189  0.30087689  0.69698513  1
  Nb  Nb112  1  0.90259077  0.90307911  0.30215390  1
  Nb  Nb113  1  0.90189104  0.70019089  0.10486074  1
  Nb  Nb114  1  0.29891563  0.70007964  0.50307498  1
  Nb  Nb115  1  0.49981555  0.50032807  0.89286740  1
  Nb  Nb116  1  0.49953302  0.49896987  0.30171082  1
  Nb  Nb117  1  0.90286008  0.89867098  0.50210149  1
  Nb  Nb118  1  0.09767024  0.90029594  0.30078260  1
  Nb  Nb119  1  0.70395987  0.11183279  0.68905983  1
  Nb  Nb120  1  0.29340443  0.70586193  0.69830515  1
  Nb  Nb121  1  0.49986403  0.49852434  0.70389913  1
  Nb  Nb122  1  0.70097603  0.49671133  0.29734583  1
  Nb  Nb123  1  0.30781025  0.29855474  0.50113449  1
  Nb  Nb124  1  0.89987376  0.69953337  0.50014974  1
  Nb  Nb125  1  0.60289255  0.40278972  0.39427006  1
  Nb  Nb126  1  0.19178140  0.19740925  0.79633745  1
  Nb  Nb127  1  0.60583573  0.00350189  0.20303255  1
  Nb  Nb128  1  0.40042727  0.40231543  0.60007653  1
  Nb  Nb129  1  0.00053114  0.59228179  0.80431718  1
  Nb  Nb130  1  0.61106076  0.00897304  0.59765386  1
  Nb  Nb131  1  0.79356311  0.39884855  0.39866621  1
  Nb  Nb132  1  0.39498695  0.79246830  0.60389935  1
  Nb  Nb133  1  0.00031279  0.20441778  -0.00214097  1
  Nb  Nb134  1  0.60123863  0.40223629  0.79816239  1
  Nb  Nb135  1  0.39901334  0.79561074  0.79467708  1
  Nb  Nb136  1  -0.00159347  0.40486301  0.80345050  1
  Nb  Nb137  1  0.00158877  0.20568335  0.80278923  1
  Nb  Nb138  1  0.19952498  0.80500763  0.00568129  1
  Nb  Nb139  1  0.80119943  0.60015067  0.19967842  1
  Nb  Nb140  1  0.81010639  0.80083312  0.40571079  1
  Nb  Nb141  1  0.79673342  0.00093555  0.20439726  1
  Nb  Nb142  1  0.19605598  0.00578749  0.79906995  1
  Nb  Nb143  1  0.79746111  -0.00404591  0.00407382  1
  Nb  Nb144  1  0.00207874  0.80620279  0.40143000  1
  Nb  Nb145  1  0.40605759  -0.00108242  -0.00351520  1
  Nb  Nb146  1  0.59152220  0.40220356  -0.00650055  1
  Nb  Nb147  1  0.60158965  0.59572225  0.20447147  1
  Nb  Nb148  1  0.00589944  0.80024349  0.20414869  1
  Nb  Nb149  1  -0.00292492  0.60340872  0.19821818  1
  Pd  Pd150  1  0.19894091  0.40231815  0.40651304  1
  Pd  Pd151  1  0.19458582  0.60066757  0.80929535  1
  Pd  Pd152  1  -0.00776249  0.19777912  0.60003245  1
  Pd  Pd153  1  0.79115893  0.18837413  0.19566313  1
  Pd  Pd154  1  0.01161737  0.60602662  0.40042012  1
  Pd  Pd155  1  0.60824961  0.19218749  0.20466275  1
  Pd  Pd156  1  0.59460226  0.39962074  0.60081514  1
  Pd  Pd157  1  0.20034942  0.19783357  0.60142883  1
  Pd  Pd158  1  0.19860653  0.19567866  0.39248479  1
  Pd  Pd159  1  0.19854546  -0.00230147  0.20400808  1
  Pd  Pd160  1  0.39532294  0.19696823  0.20778503  1
  Pd  Pd161  1  0.39730904  0.60723053  0.80768979  1
  Pd  Pd162  1  0.59624879  0.79463864  0.20320421  1
  Pd  Pd163  1  0.00289586  0.79668067  0.59496711  1
  Pd  Pd164  1  0.59874703  -0.00598749  0.40331877  1
  Pd  Pd165  1  -0.00472312  0.39740465  0.40282637  1
  Pd  Pd166  1  -0.00202646  0.79142219  0.80182475  1
  Pd  Pd167  1  0.40395253  0.19905716  -0.00407441  1
  Pd  Pd168  1  -0.00287768  0.40911875  0.19809478  1
  Pd  Pd169  1  0.39526531  0.79949127  0.41035197  1
  Pd  Pd170  1  0.20572005  0.40415422  0.19814368  1
  Pd  Pd171  1  0.19602334  0.20874243  0.00010840  1
  Pd  Pd172  1  0.39686629  0.19596525  0.38940637  1
  Pd  Pd173  1  0.20155059  0.79908938  0.19228104  1
  Pd  Pd174  1  0.80137099  0.19839030  0.80326414  1
  Pd  Pd175  1  0.79047261  -0.00441671  0.80431598  1
  Pd  Pd176  1  0.59796993  -0.00572486  0.00609901  1
  Pd  Pd177  1  -0.00716161  -0.00527593  0.19437274  1
  Pd  Pd178  1  0.19729992  -0.00106179  0.60207795  1
  Pd  Pd179  1  0.00512744  0.00237658  0.79098291  1
  Pd  Pd180  1  0.59168994  0.19289270  0.59777831  1
  Pd  Pd181  1  0.59273260  0.80900977  0.60509865  1
  Pd  Pd182  1  0.79652351  0.80223656  -0.00489222  1
  Pd  Pd183  1  0.60493053  0.80190315  0.40786623  1
  Pd  Pd184  1  0.21303956  0.40517778  0.58919644  1
  Pd  Pd185  1  0.80584598  0.80071701  0.20614826  1
  Pd  Pd186  1  0.19859334  0.59607261  0.40680591  1
  Pd  Pd187  1  0.61016122  -0.00020794  0.78610670  1
  Pd  Pd188  1  0.59292171  0.21134229  -0.01237884  1
  Pd  Pd189  1  0.00336182  0.60627051  -0.00145946  1
  Pd  Pd190  1  0.40889818  0.00253633  0.19296102  1
  Pd  Pd191  1  0.19524720  0.80389149  0.41246093  1
  Pd  Pd192  1  0.39672199  0.60129672  -0.01268596  1
  Pd  Pd193  1  0.39168493  0.59790253  0.60059462  1
  Pd  Pd194  1  0.59869424  0.59747503  0.39513349  1
  Pd  Pd195  1  0.40165884  0.39859915  -0.00352561  1
  Pd  Pd196  1  0.39391760  0.80250486  -0.00881295  1
  Pd  Pd197  1  0.19643463  0.19874328  0.20818560  1
  Pd  Pd198  1  0.60250743  0.20723696  0.79950390  1
  Pd  Pd199  1  0.00749956  0.19804924  0.19461206  1
  Rh  Rh200  1  0.40991512  -0.00491545  0.59629434  1
  Rh  Rh201  1  0.39493331  0.79196814  0.20681495  1
  Rh  Rh202  1  0.59890860  0.59382033  0.00590734  1
  Rh  Rh203  1  0.21156694  -0.01239109  0.00219515  1
  Rh  Rh204  1  -0.00556146  -0.00097998  0.40047875  1
  Rh  Rh205  1  0.81559669  0.40874927  0.21014789  1
  Rh  Rh206  1  0.40658506  0.40260927  0.40127637  1
  Rh  Rh207  1  0.60049048  0.20683317  0.39558667  1
  Rh  Rh208  1  -0.00457764  -0.00285899  0.60038797  1
  Rh  Rh209  1  0.79851820  0.59912445  0.40064489  1
  Rh  Rh210  1  0.80815196  0.60445703  0.79924324  1
  Rh  Rh211  1  0.20535286  0.60281446  -0.00469778  1
  Rh  Rh212  1  0.40229284  0.20640020  0.59987748  1
  Rh  Rh213  1  0.78734179  0.40329978  -0.00774744  1
  Rh  Rh214  1  0.20546047  0.80825423  0.59049688  1
  Rh  Rh215  1  0.60546030  0.59776007  0.60742578  1
  Rh  Rh216  1  0.59744777  0.79889111  -0.00477600  1
  Rh  Rh217  1  0.39596951  0.00043470  0.39989652  1
  Rh  Rh218  1  0.00118650  0.39511944  0.00014070  1
  Rh  Rh219  1  0.80169514  0.39663710  0.58616801  1
  Rh  Rh220  1  0.60496549  0.59317127  0.79565948  1
  Rh  Rh221  1  0.80262146  0.79450575  0.59626860  1
  Rh  Rh222  1  0.58829849  0.40609662  0.19889730  1
  Rh  Rh223  1  0.79933691  0.60774460  0.60080352  1
  Rh  Rh224  1  0.80492076  0.79987326  0.80358237  1
  Rh  Rh225  1  0.58977993  0.79928922  0.79519569  1
  Rh  Rh226  1  0.79695557  0.00418210  0.60104965  1
  Rh  Rh227  1  0.39878664  0.40033641  0.20148514  1
  Rh  Rh228  1  0.39312066  -0.00896068  0.80392947  1
  Rh  Rh229  1  0.80629390  0.20784416  0.40614553  1
  Rh  Rh230  1  0.19786169  0.00165217  0.39582044  1
  Rh  Rh231  1  0.20837183  0.59261370  0.59546790  1
  Rh  Rh232  1  0.19918502  0.59502467  0.20116245  1
  Rh  Rh233  1  0.80475782  0.19846643  0.59202626  1
  Rh  Rh234  1  0.80600208  0.19076559  0.00130867  1
  Rh  Rh235  1  -0.00178772  0.19537540  0.39903085  1
  Rh  Rh236  1  -0.01140053  0.00470666  0.01124755  1
  Rh  Rh237  1  0.80533767  -0.00780388  0.39695996  1
  Rh  Rh238  1  0.40691447  0.60458982  0.21028425  1
  Rh  Rh239  1  0.79847284  0.60597457  0.00468673  1
  Rh  Rh240  1  0.39965438  0.60607046  0.39638519  1
  Rh  Rh241  1  0.00915708  0.79288219  0.00838170  1
  Rh  Rh242  1  0.40531684  0.40049601  0.79365976  1
  Rh  Rh243  1  -0.00870314  0.40468569  0.60424143  1
  Rh  Rh244  1  0.19542112  0.39843297  0.79852503  1
  Rh  Rh245  1  0.21037988  0.40063006  0.00761916  1
  Rh  Rh246  1  0.79561954  0.40362010  0.80367381  1
  Rh  Rh247  1  0.20171967  0.80890175  0.80754504  1
  Rh  Rh248  1  0.39150215  0.20249530  0.79652414  1
  Rh  Rh249  1  -0.00142037  0.60353210  0.60888242  1
