# generated using pymatgen
data_ZrScNbPdRh
_symmetry_space_group_name_H-M   'P 1'
_cell_length_a   16.55138392
_cell_length_b   16.55600224
_cell_length_c   16.55633350
_cell_angle_alpha   89.96130908
_cell_angle_beta   90.03253217
_cell_angle_gamma   90.02150593
_symmetry_Int_Tables_number   1
_chemical_formula_structural   ZrScNbPdRh
_chemical_formula_sum   'Zr50 Sc50 Nb50 Pd50 Rh50'
_cell_volume   4536.84305265
_cell_formula_units_Z   50
loop_
 _symmetry_equiv_pos_site_id
 _symmetry_equiv_pos_as_xyz
  1  'x, y, z'
loop_
 _atom_site_type_symbol
 _atom_site_label
 _atom_site_symmetry_multiplicity
 _atom_site_fract_x
 _atom_site_fract_y
 _atom_site_fract_z
 _atom_site_occupancy
  Zr  Zr0  1  0.30096512  0.29615466  0.09769129  1
  Zr  Zr1  1  0.10486429  0.49290162  0.89855985  1
  Zr  Zr2  1  0.90336394  0.50511260  0.70916098  1
  Zr  Zr3  1  0.49778822  0.69910240  0.49119929  1
  Zr  Zr4  1  0.29555123  0.10267783  0.70011959  1
  Zr  Zr5  1  0.70708000  0.49495323  0.89965789  1
  Zr  Zr6  1  0.09940807  0.49902413  0.50349378  1
  Zr  Zr7  1  0.69797505  0.70094025  0.30188657  1
  Zr  Zr8  1  0.89942409  0.29970828  0.70412982  1
  Zr  Zr9  1  0.89912865  0.50284997  0.09588783  1
  Zr  Zr10  1  0.69027310  0.30238073  0.09654118  1
  Zr  Zr11  1  0.69437780  0.49356761  0.48847660  1
  Zr  Zr12  1  0.89845273  0.70895408  0.70260569  1
  Zr  Zr13  1  0.89265306  0.70116922  0.29824154  1
  Zr  Zr14  1  0.89107108  0.10196093  0.50800532  1
  Zr  Zr15  1  0.69444105  0.30766656  0.30270115  1
  Zr  Zr16  1  0.10701973  0.10405934  0.70284383  1
  Zr  Zr17  1  0.89631933  0.69659312  0.89072390  1
  Zr  Zr18  1  0.70407907  0.70938220  0.70510797  1
  Zr  Zr19  1  0.49293872  0.31179790  0.49773038  1
  Zr  Zr20  1  0.29588148  0.08647718  0.90171913  1
  Zr  Zr21  1  0.09558109  0.69664417  0.70013566  1
  Zr  Zr22  1  0.30322185  0.50582418  0.29892584  1
  Zr  Zr23  1  0.50167229  0.10662003  0.70534010  1
  Zr  Zr24  1  0.10553885  0.49677792  0.09350748  1
  Zr  Zr25  1  0.50069515  0.90757952  0.90175291  1
  Zr  Zr26  1  0.89289239  0.89605034  0.30231035  1
  Zr  Zr27  1  0.50172308  0.89942410  0.10408771  1
  Zr  Zr28  1  0.70660579  0.09425868  0.09534045  1
  Zr  Zr29  1  0.30267676  0.70351478  0.70326435  1
  Zr  Zr30  1  0.71165725  0.09862198  0.69576550  1
  Zr  Zr31  1  0.70037538  0.29756064  0.90353671  1
  Zr  Zr32  1  0.30187661  0.90573101  0.09759586  1
  Zr  Zr33  1  0.68996716  0.90537359  0.50209147  1
  Zr  Zr34  1  0.49456782  0.69200423  0.90351363  1
  Zr  Zr35  1  0.29960932  0.09688685  0.10656851  1
  Zr  Zr36  1  0.30542094  0.50756689  0.90553379  1
  Zr  Zr37  1  0.29646377  0.11835731  0.49923226  1
  Zr  Zr38  1  0.90330280  0.70770419  0.49712386  1
  Zr  Zr39  1  0.30822666  0.69445630  0.50267902  1
  Zr  Zr40  1  0.90439687  0.49390604  0.50238451  1
  Zr  Zr41  1  0.30303773  0.90058301  0.70936311  1
  Zr  Zr42  1  0.89537761  0.09914042  0.70250887  1
  Zr  Zr43  1  0.50569764  0.29796623  0.90306864  1
  Zr  Zr44  1  0.90175468  0.10730009  0.29725169  1
  Zr  Zr45  1  0.30219785  0.29545410  0.69167405  1
  Zr  Zr46  1  0.10226054  0.10427552  0.89760029  1
  Zr  Zr47  1  0.10525694  0.29048262  0.09533391  1
  Zr  Zr48  1  0.70057332  0.49593748  0.70277490  1
  Zr  Zr49  1  0.49306873  0.70277308  0.69395358  1
  Sc  Sc50  1  0.69378381  0.69761783  0.10880351  1
  Sc  Sc51  1  0.49959810  0.89313331  0.50057512  1
  Sc  Sc52  1  0.10250395  0.90018863  0.69213023  1
  Sc  Sc53  1  0.69762338  0.10156130  0.90315547  1
  Sc  Sc54  1  0.90729263  0.28873693  0.08871815  1
  Sc  Sc55  1  0.69549413  0.50006065  0.10057796  1
  Sc  Sc56  1  0.30283320  0.49458011  0.70011086  1
  Sc  Sc57  1  0.68920221  0.10867978  0.30824847  1
  Sc  Sc58  1  0.10228450  0.29844879  0.89960329  1
  Sc  Sc59  1  0.49903779  0.89167153  0.29972862  1
  Sc  Sc60  1  0.89451634  0.49966982  0.30320856  1
  Sc  Sc61  1  0.29337114  0.70148976  0.30195505  1
  Sc  Sc62  1  0.90620125  0.90101555  0.90636696  1
  Sc  Sc63  1  0.50501185  0.10096695  0.90276213  1
  Sc  Sc64  1  0.30322431  0.49809288  0.09782871  1
  Sc  Sc65  1  0.89911957  0.69228190  0.09977090  1
  Sc  Sc66  1  0.89860667  0.09541797  0.09401360  1
  Sc  Sc67  1  0.10244567  0.90486339  0.90082306  1
  Sc  Sc68  1  0.10868015  0.88852794  0.30223646  1
  Sc  Sc69  1  0.49784068  0.30398652  0.70419228  1
  Sc  Sc70  1  0.69470374  0.90330067  0.90112585  1
  Sc  Sc71  1  0.29873220  0.30678137  0.89873876  1
  Sc  Sc72  1  0.30952876  0.49865526  0.49900469  1
  Sc  Sc73  1  0.29790160  0.89625327  0.28752377  1
  Sc  Sc74  1  0.09225781  0.70187743  0.90090869  1
  Sc  Sc75  1  0.89465970  0.10451121  0.90583470  1
  Sc  Sc76  1  0.29869384  0.88995737  0.49883244  1
  Sc  Sc77  1  0.09601364  0.49446170  0.69873111  1
  Sc  Sc78  1  0.10233926  0.89755354  0.09729772  1
  Sc  Sc79  1  0.69825385  0.70382938  0.89821809  1
  Sc  Sc80  1  0.09742605  0.89316613  0.49835721  1
  Sc  Sc81  1  0.70096716  0.29864111  0.71157350  1
  Sc  Sc82  1  0.29998730  0.68923532  0.10525940  1
  Sc  Sc83  1  0.89939047  0.30188657  0.48861086  1
  Sc  Sc84  1  0.10378514  0.10369352  0.50687503  1
  Sc  Sc85  1  0.49945739  0.49895577  0.29682441  1
  Sc  Sc86  1  0.09730538  0.30093046  0.50243227  1
  Sc  Sc87  1  0.10043200  0.69360102  0.10068657  1
  Sc  Sc88  1  0.70223555  0.89957808  0.10322706  1
  Sc  Sc89  1  0.69712481  0.50393846  0.29646360  1
  Sc  Sc90  1  0.90452747  0.89836317  0.50745998  1
  Sc  Sc91  1  0.10790822  0.70585222  0.50163262  1
  Sc  Sc92  1  0.49408695  0.10069750  0.09682571  1
  Sc  Sc93  1  0.10118476  0.30608835  0.71144870  1
  Sc  Sc94  1  0.10107061  0.50621447  0.29947135  1
  Sc  Sc95  1  0.90290217  0.29771439  0.89738887  1
  Sc  Sc96  1  0.31307875  0.28213609  0.30524484  1
  Sc  Sc97  1  0.51105531  0.09507936  0.49544132  1
  Sc  Sc98  1  0.49830919  0.30354213  0.10242175  1
  Sc  Sc99  1  0.10724923  0.10396165  0.09811654  1
  Nb  Nb100  1  0.30297466  0.69990407  0.89758015  1
  Nb  Nb101  1  0.50317276  0.29010085  0.29277248  1
  Nb  Nb102  1  0.50148213  0.69558642  0.29124549  1
  Nb  Nb103  1  0.69512692  0.69316093  0.49910388  1
  Nb  Nb104  1  0.29707351  0.30025010  0.49632632  1
  Nb  Nb105  1  0.30126220  0.09842920  0.30056442  1
  Nb  Nb106  1  0.49759548  0.50615368  0.50422243  1
  Nb  Nb107  1  0.50397890  0.69807719  0.10477074  1
  Nb  Nb108  1  0.10212097  0.10660188  0.29708471  1
  Nb  Nb109  1  0.09738749  0.70341854  0.30138642  1
  Nb  Nb110  1  0.70284145  0.89960403  0.70296558  1
  Nb  Nb111  1  0.90490847  0.29911619  0.29474452  1
  Nb  Nb112  1  0.49078413  0.10687894  0.29744427  1
  Nb  Nb113  1  0.89886266  0.50425964  0.89715074  1
  Nb  Nb114  1  0.88880522  0.90165592  0.70090563  1
  Nb  Nb115  1  0.70531454  0.90311017  0.29203913  1
  Nb  Nb116  1  0.89289405  0.90239965  0.10752093  1
  Nb  Nb117  1  0.70423221  0.10519341  0.50306733  1
  Nb  Nb118  1  0.09447262  0.28916053  0.29420147  1
  Nb  Nb119  1  0.49860593  0.51360616  0.10066686  1
  Nb  Nb120  1  0.70066753  0.29984445  0.49865904  1
  Nb  Nb121  1  0.49607108  0.50466200  0.89646184  1
  Nb  Nb122  1  0.30157237  0.89566821  0.90059261  1
  Nb  Nb123  1  0.49876652  0.50047763  0.69506394  1
  Nb  Nb124  1  0.50550522  0.90308999  0.69711416  1
  Nb  Nb125  1  -0.00498540  0.80178824  0.20083415  1
  Nb  Nb126  1  0.00186218  0.00411407  0.39414358  1
  Nb  Nb127  1  0.39410264  0.00540429  0.39816285  1
  Nb  Nb128  1  0.40025024  0.00111503  0.59994134  1
  Nb  Nb129  1  -0.00011008  -0.00320258  0.20552126  1
  Nb  Nb130  1  -0.00330568  0.00335418  0.79286991  1
  Nb  Nb131  1  0.20143473  0.00769016  0.39467042  1
  Nb  Nb132  1  0.59989352  0.00195822  0.20643704  1
  Nb  Nb133  1  0.59277697  0.59459736  0.79593888  1
  Nb  Nb134  1  0.19774269  0.39075469  0.20772315  1
  Nb  Nb135  1  0.20425567  0.60359544  0.80256348  1
  Nb  Nb136  1  0.00171959  0.60641052  0.39985818  1
  Nb  Nb137  1  0.79465749  0.60070807  0.59609991  1
  Nb  Nb138  1  0.00183520  0.39396532  0.19936071  1
  Nb  Nb139  1  0.60089028  0.59778456  0.59895545  1
  Nb  Nb140  1  0.39892779  0.79625565  -0.00054325  1
  Nb  Nb141  1  0.21130860  0.79676253  -0.00491560  1
  Nb  Nb142  1  0.60831235  0.20431405  0.59470739  1
  Nb  Nb143  1  -0.00466411  0.19983062  0.60639458  1
  Nb  Nb144  1  0.20272068  0.39094685  0.39370507  1
  Nb  Nb145  1  0.79734448  0.00260508  0.40123927  1
  Nb  Nb146  1  0.79658464  0.40201815  0.59731278  1
  Nb  Nb147  1  0.80632009  0.39147012  0.19786926  1
  Nb  Nb148  1  0.80459931  0.80063140  0.00428192  1
  Nb  Nb149  1  0.79834516  0.20654527  0.20053732  1
  Pd  Pd150  1  0.39384101  0.80315395  0.39143195  1
  Pd  Pd151  1  0.39953448  0.39992239  0.80040692  1
  Pd  Pd152  1  0.58857457  0.40232624  0.39303806  1
  Pd  Pd153  1  0.00262725  0.60073596  -0.00656888  1
  Pd  Pd154  1  0.59753742  0.00749214  0.60646400  1
  Pd  Pd155  1  0.80761485  0.39426968  0.00489059  1
  Pd  Pd156  1  0.60662522  0.00563629  0.79604069  1
  Pd  Pd157  1  0.18996725  0.79803493  0.80508820  1
  Pd  Pd158  1  -0.00188903  0.39685181  -0.00116556  1
  Pd  Pd159  1  0.00954216  0.40466376  0.38909841  1
  Pd  Pd160  1  0.80527177  0.59747574  0.40439082  1
  Pd  Pd161  1  0.20880051  -0.00473026  0.58863122  1
  Pd  Pd162  1  -0.00165871  0.79765145  0.00991373  1
  Pd  Pd163  1  0.39728408  0.19618825  -0.00493173  1
  Pd  Pd164  1  0.00252825  0.00341351  0.00313945  1
  Pd  Pd165  1  0.20609120  0.59529426  0.60641103  1
  Pd  Pd166  1  0.39436895  0.20024368  0.81105626  1
  Pd  Pd167  1  0.58895808  0.41099739  0.00267986  1
  Pd  Pd168  1  0.60345117  0.39615072  0.60186521  1
  Pd  Pd169  1  0.60203301  0.79879559  0.00321977  1
  Pd  Pd170  1  0.80363877  -0.00383908  0.81214306  1
  Pd  Pd171  1  -0.00028747  0.59853775  0.20696668  1
  Pd  Pd172  1  0.39634156  0.79164479  0.19579863  1
  Pd  Pd173  1  0.79517256  0.80086261  0.59160179  1
  Pd  Pd174  1  0.20278143  0.80024333  0.60123817  1
  Pd  Pd175  1  0.20219454  0.39822827  0.59449395  1
  Pd  Pd176  1  0.19011746  -0.00224650  0.20457653  1
  Pd  Pd177  1  0.59296266  0.79751415  0.80111815  1
  Pd  Pd178  1  0.19803970  0.59631888  0.19959475  1
  Pd  Pd179  1  0.79825261  0.20058425  0.39392323  1
  Pd  Pd180  1  0.59680423  -0.00316832  0.39105612  1
  Pd  Pd181  1  0.40616713  0.40266046  0.00126642  1
  Pd  Pd182  1  0.19646231  0.59680949  0.40447648  1
  Pd  Pd183  1  0.78929096  0.80887113  0.40983632  1
  Pd  Pd184  1  0.59959732  0.79511298  0.59881744  1
  Pd  Pd185  1  0.00248821  0.81369937  0.79651847  1
  Pd  Pd186  1  0.41456148  0.19592708  0.59189606  1
  Pd  Pd187  1  0.40345094  0.00353686  0.79723878  1
  Pd  Pd188  1  0.41106214  0.80348120  0.80570541  1
  Pd  Pd189  1  0.00476186  0.19527439  0.41114736  1
  Pd  Pd190  1  0.60230987  0.80096097  0.39318142  1
  Pd  Pd191  1  0.00189788  0.00246560  0.60022293  1
  Pd  Pd192  1  0.60213780  0.19173396  0.19179059  1
  Pd  Pd193  1  0.39832086  0.39732428  0.20369035  1
  Pd  Pd194  1  0.39853340  0.40003576  0.39078520  1
  Pd  Pd195  1  0.59274508  0.20584555  0.40691928  1
  Pd  Pd196  1  0.79046170  0.60909902  0.00190896  1
  Pd  Pd197  1  0.59495289  0.40212775  0.80367611  1
  Pd  Pd198  1  0.60603653  0.59690044  -0.00528420  1
  Pd  Pd199  1  -0.00478228  0.60609294  0.59459055  1
  Rh  Rh200  1  0.40496378  0.60289847  0.39195665  1
  Rh  Rh201  1  0.20776947  0.20652240  0.80216092  1
  Rh  Rh202  1  0.20920834  0.20392708  0.20443725  1
  Rh  Rh203  1  0.39956051  0.19885476  0.19346058  1
  Rh  Rh204  1  0.01086772  0.59342665  0.80594293  1
  Rh  Rh205  1  0.79655819  0.19947596  0.80921911  1
  Rh  Rh206  1  -0.00563447  0.19474050  0.18928885  1
  Rh  Rh207  1  0.39995407  0.81194340  0.60317089  1
  Rh  Rh208  1  0.00494711  0.79973862  0.39470245  1
  Rh  Rh209  1  0.20526194  0.80082762  0.40062509  1
  Rh  Rh210  1  0.40037812  0.59561296  0.60210858  1
  Rh  Rh211  1  0.39682726  0.40082997  0.59945793  1
  Rh  Rh212  1  0.59141308  0.59857449  0.39835289  1
  Rh  Rh213  1  0.19358095  -0.00615042  0.80033839  1
  Rh  Rh214  1  0.60303551  0.80453979  0.20546917  1
  Rh  Rh215  1  0.80074165  0.79059490  0.18981554  1
  Rh  Rh216  1  -0.00320089  0.40351714  0.80791301  1
  Rh  Rh217  1  0.20792180  0.19766064  -0.00867749  1
  Rh  Rh218  1  0.19969258  0.60711976  -0.00900475  1
  Rh  Rh219  1  0.40933390  -0.00013913  0.20920682  1
  Rh  Rh220  1  0.20486801  0.39743886  0.00542097  1
  Rh  Rh221  1  0.79221318  0.59981074  0.79669604  1
  Rh  Rh222  1  0.80752758  0.39904108  0.80121870  1
  Rh  Rh223  1  0.79899288  -0.01185917  -0.00466230  1
  Rh  Rh224  1  -0.00700654  0.38896788  0.60473140  1
  Rh  Rh225  1  0.00022167  0.80134877  0.60833126  1
  Rh  Rh226  1  0.41035830  0.19669911  0.40727619  1
  Rh  Rh227  1  -0.00037290  0.19300063  0.79788795  1
  Rh  Rh228  1  0.79535985  0.59147742  0.19672323  1
  Rh  Rh229  1  0.40052266  0.60321204  0.20121792  1
  Rh  Rh230  1  0.79491848  -0.01241423  0.59389891  1
  Rh  Rh231  1  0.40208656  -0.00305761  -0.00082865  1
  Rh  Rh232  1  0.79540066  0.01458714  0.20964086  1
  Rh  Rh233  1  0.59838661  0.59696345  0.20345761  1
  Rh  Rh234  1  0.59637064  0.40504647  0.19915038  1
  Rh  Rh235  1  0.20604122  0.40579523  0.80108588  1
  Rh  Rh236  1  0.79962747  0.21625809  0.60013338  1
  Rh  Rh237  1  0.80157828  0.81296767  0.81322918  1
  Rh  Rh238  1  0.00422773  0.19224061  -0.00381279  1
  Rh  Rh239  1  0.19235782  0.79314628  0.18887123  1
  Rh  Rh240  1  0.79995981  0.39747877  0.39571643  1
  Rh  Rh241  1  0.60553405  0.19714075  0.79492050  1
  Rh  Rh242  1  0.79645435  0.20473773  0.00325038  1
  Rh  Rh243  1  0.19321079  0.20283029  0.39561248  1
  Rh  Rh244  1  0.39800837  0.59467370  0.79085799  1
  Rh  Rh245  1  0.59906237  0.00186269  0.01088713  1
  Rh  Rh246  1  0.18858324  0.21366766  0.60483626  1
  Rh  Rh247  1  0.40080861  0.60491658  0.00950926  1
  Rh  Rh248  1  0.59632603  0.19670818  0.00322744  1
  Rh  Rh249  1  0.19832366  -0.00589393  0.00076151  1
