# generated using pymatgen
data_ZrScNbPdRh
_symmetry_space_group_name_H-M   'P 1'
_cell_length_a   16.55327267
_cell_length_b   16.55027819
_cell_length_c   16.55310692
_cell_angle_alpha   90.01292875
_cell_angle_beta   90.00626691
_cell_angle_gamma   90.02009561
_symmetry_Int_Tables_number   1
_chemical_formula_structural   ZrScNbPdRh
_chemical_formula_sum   'Zr50 Sc50 Nb50 Pd50 Rh50'
_cell_volume   4534.90973291
_cell_formula_units_Z   50
loop_
 _symmetry_equiv_pos_site_id
 _symmetry_equiv_pos_as_xyz
  1  'x, y, z'
loop_
 _atom_site_type_symbol
 _atom_site_label
 _atom_site_symmetry_multiplicity
 _atom_site_fract_x
 _atom_site_fract_y
 _atom_site_fract_z
 _atom_site_occupancy
  Zr  Zr0  1  0.90673895  0.10342245  0.50340608  1
  Zr  Zr1  1  0.50464347  0.69782128  0.29362258  1
  Zr  Zr2  1  0.09923918  0.08545123  0.49715069  1
  Zr  Zr3  1  0.49832143  0.90094250  0.70215442  1
  Zr  Zr4  1  0.70133547  0.50314648  0.49995740  1
  Zr  Zr5  1  0.29764959  0.29610875  0.09738835  1
  Zr  Zr6  1  0.30185041  0.89889290  0.70270957  1
  Zr  Zr7  1  0.30375158  0.70112155  0.09418350  1
  Zr  Zr8  1  0.69781273  0.29900805  0.29912036  1
  Zr  Zr9  1  0.89545599  0.30265910  0.50409675  1
  Zr  Zr10  1  0.90976530  0.30008978  0.09131711  1
  Zr  Zr11  1  0.29353398  0.90363955  0.29187572  1
  Zr  Zr12  1  0.90405264  0.30170463  0.69456577  1
  Zr  Zr13  1  0.50093819  0.10233954  0.49771483  1
  Zr  Zr14  1  0.30585965  0.30265824  0.69256413  1
  Zr  Zr15  1  0.09692715  0.89839824  0.50591344  1
  Zr  Zr16  1  0.70187688  0.29865629  0.49041125  1
  Zr  Zr17  1  0.89871336  0.51075830  0.30259659  1
  Zr  Zr18  1  0.70286702  0.69813537  0.50794922  1
  Zr  Zr19  1  0.50018460  0.09996203  0.90395771  1
  Zr  Zr20  1  0.70143037  0.89913288  0.49671805  1
  Zr  Zr21  1  0.10109106  0.30484294  0.70522578  1
  Zr  Zr22  1  0.09749282  0.49980674  0.09266701  1
  Zr  Zr23  1  0.90136264  0.89864490  0.48839421  1
  Zr  Zr24  1  0.09765625  0.09501447  0.69516189  1
  Zr  Zr25  1  0.70292635  0.90300167  0.89815669  1
  Zr  Zr26  1  0.29984283  0.30680227  0.50385998  1
  Zr  Zr27  1  0.49814059  0.89818165  0.30034722  1
  Zr  Zr28  1  0.09791045  0.50476447  0.30136028  1
  Zr  Zr29  1  0.49527042  0.30025826  0.50855889  1
  Zr  Zr30  1  0.10427018  0.89869850  0.90116009  1
  Zr  Zr31  1  0.49695249  0.11432192  0.69785410  1
  Zr  Zr32  1  0.69897761  0.50893856  0.69944291  1
  Zr  Zr33  1  0.89855303  0.50839775  0.69794384  1
  Zr  Zr34  1  0.30233254  0.50160779  0.51042560  1
  Zr  Zr35  1  0.50459599  0.89647046  0.89943077  1
  Zr  Zr36  1  0.50083812  0.50194663  0.09584699  1
  Zr  Zr37  1  0.69637245  0.30241967  0.70196653  1
  Zr  Zr38  1  0.50051431  0.29797654  0.10051228  1
  Zr  Zr39  1  0.49630024  0.90240548  0.50395385  1
  Zr  Zr40  1  0.50108311  0.30776851  0.29726919  1
  Zr  Zr41  1  0.90064738  0.50250117  0.09725233  1
  Zr  Zr42  1  0.71096483  0.69542043  0.70137683  1
  Zr  Zr43  1  0.89765884  0.09490805  0.90284825  1
  Zr  Zr44  1  0.09846579  0.29694685  0.90977363  1
  Zr  Zr45  1  0.08493401  0.29665121  0.49954701  1
  Zr  Zr46  1  0.29930736  0.50633565  0.89160691  1
  Zr  Zr47  1  0.11039945  0.10518556  0.89900768  1
  Zr  Zr48  1  0.30131985  0.69691527  0.89470481  1
  Zr  Zr49  1  0.90450560  0.69358638  0.09313565  1
  Sc  Sc50  1  0.09427453  0.70078218  0.09671610  1
  Sc  Sc51  1  0.09990081  0.89353025  0.69343223  1
  Sc  Sc52  1  0.51122197  0.30174446  0.89859110  1
  Sc  Sc53  1  0.70472255  0.10127854  0.70950832  1
  Sc  Sc54  1  0.50245741  0.50357611  0.90080471  1
  Sc  Sc55  1  0.70924967  0.89544967  0.09626838  1
  Sc  Sc56  1  0.69391703  0.49837737  0.30676527  1
  Sc  Sc57  1  0.29325508  0.69610457  0.49969598  1
  Sc  Sc58  1  0.51133024  0.70512888  0.09943216  1
  Sc  Sc59  1  0.69918373  0.68775822  0.29973889  1
  Sc  Sc60  1  0.89611723  0.10400985  0.70340983  1
  Sc  Sc61  1  0.29009420  0.89720894  0.50361728  1
  Sc  Sc62  1  0.29199472  0.50189318  0.69884916  1
  Sc  Sc63  1  0.10042708  0.90018700  0.30127059  1
  Sc  Sc64  1  0.69928271  0.50141159  0.90279292  1
  Sc  Sc65  1  0.30345953  0.08988067  0.10766536  1
  Sc  Sc66  1  0.50181435  0.51106930  0.70150631  1
  Sc  Sc67  1  0.49612770  0.10330872  0.10433156  1
  Sc  Sc68  1  0.90410174  0.08454236  0.29542659  1
  Sc  Sc69  1  0.89617190  0.50208332  0.90954391  1
  Sc  Sc70  1  0.10228599  0.50485015  0.50399650  1
  Sc  Sc71  1  0.29545393  0.70766495  0.30931807  1
  Sc  Sc72  1  0.09743817  0.70239815  0.89240823  1
  Sc  Sc73  1  0.29955159  0.50997867  0.32019816  1
  Sc  Sc74  1  0.70543802  0.09562646  0.89974479  1
  Sc  Sc75  1  0.89506343  0.89936901  0.91337951  1
  Sc  Sc76  1  0.29626021  0.10593233  0.70369604  1
  Sc  Sc77  1  0.09645057  0.10492902  0.10190833  1
  Sc  Sc78  1  0.49947913  0.10408163  0.29332383  1
  Sc  Sc79  1  0.90512847  0.30205614  0.90079864  1
  Sc  Sc80  1  0.49850676  0.70411582  0.89841973  1
  Sc  Sc81  1  0.70114614  0.70770053  0.90158040  1
  Sc  Sc82  1  0.70282652  0.50426217  0.09144695  1
  Sc  Sc83  1  0.70019910  0.89545764  0.70621039  1
  Sc  Sc84  1  0.09831520  0.50119714  0.70020598  1
  Sc  Sc85  1  0.50083880  0.70342355  0.70413170  1
  Sc  Sc86  1  0.90339417  0.29862522  0.31299977  1
  Sc  Sc87  1  0.30178871  0.49980909  0.07766569  1
  Sc  Sc88  1  0.30474385  0.69316038  0.70528416  1
  Sc  Sc89  1  0.49225138  0.89582212  0.10182553  1
  Sc  Sc90  1  0.69690421  0.30669192  0.90529823  1
  Sc  Sc91  1  0.10076563  0.69824561  0.30635757  1
  Sc  Sc92  1  0.90266792  0.89701697  0.69728070  1
  Sc  Sc93  1  0.90386522  0.08375339  0.10396780  1
  Sc  Sc94  1  0.68875376  0.30319146  0.09568060  1
  Sc  Sc95  1  0.29861050  0.89880006  0.90975704  1
  Sc  Sc96  1  0.09790884  0.89680167  0.10083707  1
  Sc  Sc97  1  0.49656364  0.69666162  0.50979250  1
  Sc  Sc98  1  0.28566141  0.29979734  0.89674425  1
  Sc  Sc99  1  0.71228359  0.91000042  0.30877732  1
  Nb  Nb100  1  0.29541625  0.09977765  0.49657926  1
  Nb  Nb101  1  0.89479917  0.49550119  0.49719651  1
  Nb  Nb102  1  0.49935144  0.50310747  0.30060058  1
  Nb  Nb103  1  0.69815920  0.09306676  0.48508693  1
  Nb  Nb104  1  0.09798941  0.70908786  0.50570768  1
  Nb  Nb105  1  0.09924182  0.29991949  0.10064782  1
  Nb  Nb106  1  0.11485944  0.49149979  0.89391168  1
  Nb  Nb107  1  0.07778231  0.70015909  0.69645255  1
  Nb  Nb108  1  0.29784035  0.29612395  0.29559975  1
  Nb  Nb109  1  0.69738492  0.10279222  0.10338000  1
  Nb  Nb110  1  0.50122975  0.30242592  0.69983511  1
  Nb  Nb111  1  0.69972286  0.70079657  0.10327039  1
  Nb  Nb112  1  0.90750446  0.69521120  0.70491044  1
  Nb  Nb113  1  0.90130540  0.69947039  0.49564644  1
  Nb  Nb114  1  0.70061012  0.09687237  0.29980071  1
  Nb  Nb115  1  0.90365008  0.89708098  0.10819197  1
  Nb  Nb116  1  0.10216629  0.29607735  0.29342935  1
  Nb  Nb117  1  0.49767444  0.49671017  0.49605648  1
  Nb  Nb118  1  0.89999803  0.89821375  0.29099800  1
  Nb  Nb119  1  0.30201502  0.90197570  0.10377039  1
  Nb  Nb120  1  0.90146366  0.69750502  0.29890128  1
  Nb  Nb121  1  0.89907890  0.69649656  0.89241966  1
  Nb  Nb122  1  0.29941904  0.09999129  0.90367582  1
  Nb  Nb123  1  0.29847212  0.09857213  0.29753907  1
  Nb  Nb124  1  0.10745526  0.09372354  0.29723994  1
  Nb  Nb125  1  0.79787739  0.19920655  0.19785771  1
  Nb  Nb126  1  0.80046403  0.40381897  0.79550551  1
  Nb  Nb127  1  0.60129204  -0.00003317  0.00682300  1
  Nb  Nb128  1  0.59647126  0.40099615  0.59823678  1
  Nb  Nb129  1  0.60485644  0.00517848  0.59742149  1
  Nb  Nb130  1  0.39192292  0.00530794  0.39807568  1
  Nb  Nb131  1  0.39867245  0.00398597  0.80572032  1
  Nb  Nb132  1  0.59995295  0.80053480  0.40218311  1
  Nb  Nb133  1  0.80904128  0.79510598  0.20170926  1
  Nb  Nb134  1  0.40399406  0.39682079  0.79496932  1
  Nb  Nb135  1  0.00383775  0.39697231  0.20073723  1
  Nb  Nb136  1  0.39045615  0.19938965  0.39628488  1
  Nb  Nb137  1  0.20107600  0.40138224  0.20207466  1
  Nb  Nb138  1  0.60672235  0.00114369  0.19879073  1
  Nb  Nb139  1  0.19627985  0.39085609  0.39490661  1
  Nb  Nb140  1  0.19931339  0.19820203  0.39464106  1
  Nb  Nb141  1  0.80620871  0.39624512  0.19805862  1
  Nb  Nb142  1  0.19591803  0.19944341  0.59160792  1
  Nb  Nb143  1  0.39795193  0.59473534  0.20083254  1
  Nb  Nb144  1  0.39540252  0.19748912  -0.00367436  1
  Nb  Nb145  1  0.00356976  -0.00106784  0.80476211  1
  Nb  Nb146  1  0.20720326  0.59438463  0.19698288  1
  Nb  Nb147  1  0.39151668  0.40847432  0.20555414  1
  Nb  Nb148  1  0.79985356  0.19659721  0.00919015  1
  Nb  Nb149  1  0.79403733  0.00125660  0.59217600  1
  Pd  Pd150  1  0.19799622  0.79700177  0.00342153  1
  Pd  Pd151  1  0.00031006  0.19420537  0.80171969  1
  Pd  Pd152  1  0.79427827  0.59741993  0.19694129  1
  Pd  Pd153  1  0.60504740  0.41025914  0.19579300  1
  Pd  Pd154  1  0.20274759  0.79029248  0.60953968  1
  Pd  Pd155  1  -0.00628721  0.40906324  0.80713881  1
  Pd  Pd156  1  0.00828382  0.59928432  -0.01476795  1
  Pd  Pd157  1  -0.00717171  0.81142141  0.80706602  1
  Pd  Pd158  1  0.39209656  0.79190786  0.59949257  1
  Pd  Pd159  1  0.59479532  0.60676520  0.40683157  1
  Pd  Pd160  1  0.00396696  0.58943822  0.80973348  1
  Pd  Pd161  1  0.20044434  0.19582527  0.19624729  1
  Pd  Pd162  1  0.19700435  0.79179764  0.79141327  1
  Pd  Pd163  1  0.19959071  0.00214549  0.01122133  1
  Pd  Pd164  1  0.00318956  0.18709342  0.38862444  1
  Pd  Pd165  1  0.19255985  0.60665509  -0.00291992  1
  Pd  Pd166  1  0.61884388  0.81094219  0.20944985  1
  Pd  Pd167  1  0.79415665  0.78909430  0.38933186  1
  Pd  Pd168  1  0.00066727  0.79343538  0.20352759  1
  Pd  Pd169  1  0.80378465  0.79352574  0.00513336  1
  Pd  Pd170  1  0.79813565  0.21200244  0.81209279  1
  Pd  Pd171  1  0.60218358  0.60844138  0.80788282  1
  Pd  Pd172  1  0.59082867  0.20152345  0.39282039  1
  Pd  Pd173  1  0.61239211  0.19826490  0.59780769  1
  Pd  Pd174  1  0.39604309  0.20533950  0.80996647  1
  Pd  Pd175  1  0.19392308  0.61065877  0.60791727  1
  Pd  Pd176  1  -0.00431689  0.59622590  0.58956036  1
  Pd  Pd177  1  0.20132185  -0.00298248  0.79650108  1
  Pd  Pd178  1  0.60066528  0.80439849  0.60184856  1
  Pd  Pd179  1  0.00318392  0.60408224  0.41028289  1
  Pd  Pd180  1  0.39576570  0.79150382  0.19982516  1
  Pd  Pd181  1  0.60704046  0.19919407  0.80721454  1
  Pd  Pd182  1  0.19636569  0.79211912  0.19692914  1
  Pd  Pd183  1  0.40127751  0.79932102  -0.00195740  1
  Pd  Pd184  1  0.79345059  0.40254938  0.60419816  1
  Pd  Pd185  1  0.60245134  0.60802269  -0.00334273  1
  Pd  Pd186  1  0.80801512  0.80197304  0.79905794  1
  Pd  Pd187  1  0.39427038  0.39651274  0.39476403  1
  Pd  Pd188  1  0.80684446  0.19009616  0.39120752  1
  Pd  Pd189  1  0.00622545  -0.00116346  -0.00200084  1
  Pd  Pd190  1  0.40222408  0.38961046  -0.01234884  1
  Pd  Pd191  1  0.40524009  0.60841402  0.40086414  1
  Pd  Pd192  1  0.59447720  0.00546758  0.79667476  1
  Pd  Pd193  1  0.40090878  0.80258000  0.40521088  1
  Pd  Pd194  1  0.80877309  0.80129271  0.60379163  1
  Pd  Pd195  1  0.39677200  0.00800168  0.60253707  1
  Pd  Pd196  1  0.00406018  0.80086962  0.39386863  1
  Pd  Pd197  1  0.00173266  0.40428588  0.39783990  1
  Pd  Pd198  1  -0.00915248  0.19864128  0.20478217  1
  Pd  Pd199  1  0.79080845  0.19115886  0.59658092  1
  Rh  Rh200  1  0.00644860  0.40574129  -0.00415424  1
  Rh  Rh201  1  0.79476531  -0.00381956  0.19521410  1
  Rh  Rh202  1  0.20556586  0.19154821  0.00927901  1
  Rh  Rh203  1  0.40098524  0.59926115  0.60199186  1
  Rh  Rh204  1  0.80092687  0.60220006  0.40481122  1
  Rh  Rh205  1  0.18607952  0.39315586  0.59345736  1
  Rh  Rh206  1  0.01120048  -0.00492574  0.20166976  1
  Rh  Rh207  1  0.60500269  0.19511998  0.20652721  1
  Rh  Rh208  1  -0.01205253  -0.00129269  0.60798296  1
  Rh  Rh209  1  0.59278461  0.59398389  0.59470515  1
  Rh  Rh210  1  0.80016014  0.59711177  0.80849919  1
  Rh  Rh211  1  0.19297134  0.80333359  0.40541954  1
  Rh  Rh212  1  0.60073754  0.40456593  0.79254971  1
  Rh  Rh213  1  0.40022978  0.20691271  0.19746980  1
  Rh  Rh214  1  0.39672681  0.80751271  0.80390814  1
  Rh  Rh215  1  0.81379145  0.60618733  0.59317746  1
  Rh  Rh216  1  0.60054465  0.19221081  -0.00315568  1
  Rh  Rh217  1  0.20679146  0.00353851  0.60523867  1
  Rh  Rh218  1  0.20269467  -0.00417984  0.39694205  1
  Rh  Rh219  1  0.79430535  0.00446272  0.00990225  1
  Rh  Rh220  1  0.79821569  0.39154379  0.00007620  1
  Rh  Rh221  1  0.19746095  0.39836531  0.00176339  1
  Rh  Rh222  1  0.80234882  0.40567272  0.39187389  1
  Rh  Rh223  1  0.19395141  0.60056470  0.40471979  1
  Rh  Rh224  1  0.18929591  0.60626019  0.79363815  1
  Rh  Rh225  1  0.41166064  0.41434451  0.61102446  1
  Rh  Rh226  1  0.59711277  0.40105285  0.40835951  1
  Rh  Rh227  1  0.00472514  0.19915163  0.60643069  1
  Rh  Rh228  1  0.40371289  0.00262304  -0.00217699  1
  Rh  Rh229  1  -0.00421351  0.18991909  0.00005657  1
  Rh  Rh230  1  0.00845487  0.60039237  0.19970075  1
  Rh  Rh231  1  0.20594448  0.39844472  0.79580874  1
  Rh  Rh232  1  0.58797197  -0.00485166  0.39630753  1
  Rh  Rh233  1  0.40861610  0.60930812  0.00238259  1
  Rh  Rh234  1  0.60338860  0.80672895  0.00100038  1
  Rh  Rh235  1  0.19511788  -0.00202174  0.19362160  1
  Rh  Rh236  1  -0.00115414  0.40800795  0.59790763  1
  Rh  Rh237  1  0.81257655  0.00675202  0.40304033  1
  Rh  Rh238  1  0.40669063  -0.00393072  0.20532216  1
  Rh  Rh239  1  -0.00053276  -0.00422752  0.39320636  1
  Rh  Rh240  1  -0.00384229  0.79873215  -0.00553181  1
  Rh  Rh241  1  0.19921741  0.20418726  0.79261424  1
  Rh  Rh242  1  0.40321197  0.59364894  0.80061315  1
  Rh  Rh243  1  0.81181924  -0.00718244  0.79133016  1
  Rh  Rh244  1  0.79602294  0.61060853  -0.00492588  1
  Rh  Rh245  1  0.38973444  0.19388207  0.59402139  1
  Rh  Rh246  1  -0.00899528  0.79607669  0.59497192  1
  Rh  Rh247  1  0.60463294  0.79400987  0.79663211  1
  Rh  Rh248  1  0.59798938  0.40578825  -0.00060589  1
  Rh  Rh249  1  0.59822348  0.59344146  0.19522355  1
