# generated using pymatgen
data_ZrScNbPdRh
_symmetry_space_group_name_H-M   'P 1'
_cell_length_a   16.55238182
_cell_length_b   16.55292615
_cell_length_c   16.55262555
_cell_angle_alpha   90.03687503
_cell_angle_beta   90.02118698
_cell_angle_gamma   90.00323955
_symmetry_Int_Tables_number   1
_chemical_formula_structural   ZrScNbPdRh
_chemical_formula_sum   'Zr50 Sc50 Nb50 Pd50 Rh50'
_cell_volume   4535.25847619
_cell_formula_units_Z   50
loop_
 _symmetry_equiv_pos_site_id
 _symmetry_equiv_pos_as_xyz
  1  'x, y, z'
loop_
 _atom_site_type_symbol
 _atom_site_label
 _atom_site_symmetry_multiplicity
 _atom_site_fract_x
 _atom_site_fract_y
 _atom_site_fract_z
 _atom_site_occupancy
  Zr  Zr0  1  0.89555636  0.29909965  0.50226420  1
  Zr  Zr1  1  0.69724868  0.69540954  0.30509959  1
  Zr  Zr2  1  0.69092707  0.29938053  0.09927985  1
  Zr  Zr3  1  0.49843334  0.90460945  0.29426514  1
  Zr  Zr4  1  0.09956896  0.70533261  0.30800333  1
  Zr  Zr5  1  0.69841576  0.69858102  0.89586911  1
  Zr  Zr6  1  0.50224829  0.89279204  0.70352591  1
  Zr  Zr7  1  0.49174891  0.10742464  0.69857689  1
  Zr  Zr8  1  0.89399631  0.10227510  0.90041843  1
  Zr  Zr9  1  0.30494902  0.69462694  0.30222054  1
  Zr  Zr10  1  0.70558493  0.89158003  0.69234840  1
  Zr  Zr11  1  0.69557733  0.70740830  0.10488740  1
  Zr  Zr12  1  0.68782785  0.30195730  0.29780937  1
  Zr  Zr13  1  0.30063921  0.68966796  0.09803742  1
  Zr  Zr14  1  0.09599419  0.10734179  0.89605827  1
  Zr  Zr15  1  0.50523866  0.69821049  0.50619422  1
  Zr  Zr16  1  0.09068691  0.89892755  0.69055183  1
  Zr  Zr17  1  0.89862600  0.70389985  0.30067492  1
  Zr  Zr18  1  0.10654402  0.29738774  0.29957478  1
  Zr  Zr19  1  0.29749618  0.70163143  0.90051969  1
  Zr  Zr20  1  0.89318435  0.30755652  0.30166076  1
  Zr  Zr21  1  0.89451322  0.49605768  0.30544830  1
  Zr  Zr22  1  0.09657264  0.90166183  0.30509618  1
  Zr  Zr23  1  0.30328392  0.89647768  0.30404912  1
  Zr  Zr24  1  0.89887478  0.71003206  0.69834035  1
  Zr  Zr25  1  0.30611573  0.10058702  0.10307559  1
  Zr  Zr26  1  0.10930400  0.49710698  0.50313941  1
  Zr  Zr27  1  0.90143019  0.69401867  0.09683894  1
  Zr  Zr28  1  0.30558954  0.50141425  0.90100476  1
  Zr  Zr29  1  0.90060221  0.90318664  0.29691422  1
  Zr  Zr30  1  0.89577910  0.89828808  0.89594502  1
  Zr  Zr31  1  0.10575457  0.69694109  0.09521582  1
  Zr  Zr32  1  0.30240874  0.30401116  0.49040887  1
  Zr  Zr33  1  0.29864840  0.69631003  0.49795117  1
  Zr  Zr34  1  0.50925235  0.49741635  0.89552076  1
  Zr  Zr35  1  0.30493754  0.89884376  0.50320256  1
  Zr  Zr36  1  0.70330754  0.90904084  0.29382543  1
  Zr  Zr37  1  0.90072821  0.49310453  0.10582072  1
  Zr  Zr38  1  0.89756905  0.09646281  0.29224643  1
  Zr  Zr39  1  0.30047089  0.49850588  0.31005481  1
  Zr  Zr40  1  0.50550935  0.90152578  0.09768926  1
  Zr  Zr41  1  0.89301693  0.30351569  0.69646227  1
  Zr  Zr42  1  0.89730708  0.49825190  0.70519139  1
  Zr  Zr43  1  0.30349820  0.12004644  0.30332784  1
  Zr  Zr44  1  0.50512394  0.10554422  0.30204685  1
  Zr  Zr45  1  0.90080061  0.50369726  0.90177164  1
  Zr  Zr46  1  0.50179771  0.69960811  0.30103493  1
  Zr  Zr47  1  0.69133073  0.10007354  0.49531669  1
  Zr  Zr48  1  0.29949066  0.50039203  0.69312978  1
  Zr  Zr49  1  0.30766147  0.30291372  0.10828493  1
  Sc  Sc50  1  0.89572465  0.90574088  0.51610635  1
  Sc  Sc51  1  0.09825192  0.70582119  0.50497020  1
  Sc  Sc52  1  0.90359462  0.69312857  0.49591517  1
  Sc  Sc53  1  0.50686345  0.69653076  0.10655720  1
  Sc  Sc54  1  0.69594386  0.90677700  0.09819092  1
  Sc  Sc55  1  0.69767374  0.70030939  0.69940617  1
  Sc  Sc56  1  0.69206556  0.49918561  0.09821023  1
  Sc  Sc57  1  0.10141153  0.89953387  0.10243956  1
  Sc  Sc58  1  0.10009524  0.49737330  0.69502470  1
  Sc  Sc59  1  0.69044972  0.10758910  0.70547080  1
  Sc  Sc60  1  0.10326036  0.30205734  0.89173871  1
  Sc  Sc61  1  0.30445123  0.89815654  0.90125404  1
  Sc  Sc62  1  0.30983704  0.29707011  0.70025450  1
  Sc  Sc63  1  0.50521108  0.70191760  0.89205885  1
  Sc  Sc64  1  0.50576566  0.49877784  0.30879342  1
  Sc  Sc65  1  0.50522318  0.69770054  0.69884941  1
  Sc  Sc66  1  0.29480565  0.30193447  0.88759928  1
  Sc  Sc67  1  0.50180116  0.30048443  0.50569687  1
  Sc  Sc68  1  0.10346892  0.89466202  0.90234747  1
  Sc  Sc69  1  0.90119304  0.10368460  0.49933377  1
  Sc  Sc70  1  0.88974383  0.90516945  0.11163868  1
  Sc  Sc71  1  0.30606875  0.90165554  0.09972261  1
  Sc  Sc72  1  0.50695221  0.49480246  0.50861839  1
  Sc  Sc73  1  0.09045173  0.10374457  0.30707473  1
  Sc  Sc74  1  0.09384273  0.11064969  0.11136638  1
  Sc  Sc75  1  0.69014446  0.90262493  0.90185365  1
  Sc  Sc76  1  0.90438405  0.09847985  0.69451720  1
  Sc  Sc77  1  0.49367618  0.48715576  0.08606681  1
  Sc  Sc78  1  0.09830589  0.69406835  0.90134511  1
  Sc  Sc79  1  0.70040840  0.49977014  0.89200749  1
  Sc  Sc80  1  0.89683178  0.69036874  0.89156179  1
  Sc  Sc81  1  0.69930073  0.49467396  0.31003830  1
  Sc  Sc82  1  0.69469385  0.49193720  0.70502902  1
  Sc  Sc83  1  0.31027907  0.69752495  0.69621504  1
  Sc  Sc84  1  0.50398178  0.09577689  0.10123242  1
  Sc  Sc85  1  0.50528189  0.89879968  0.89611545  1
  Sc  Sc86  1  0.90264153  0.49186119  0.49698598  1
  Sc  Sc87  1  0.69757733  0.69766571  0.50757612  1
  Sc  Sc88  1  0.89844030  0.29530291  0.89192903  1
  Sc  Sc89  1  0.89735080  0.29400609  0.10952897  1
  Sc  Sc90  1  0.09561087  0.30023727  0.49921665  1
  Sc  Sc91  1  0.30639845  0.89885733  0.69536718  1
  Sc  Sc92  1  0.10565736  0.49658712  0.89214841  1
  Sc  Sc93  1  0.50829403  0.30032219  0.69523925  1
  Sc  Sc94  1  0.69939158  0.29596721  0.89071668  1
  Sc  Sc95  1  0.09111973  0.09914980  0.50420016  1
  Sc  Sc96  1  0.69853221  0.09856035  0.90126078  1
  Sc  Sc97  1  0.50161943  0.09383038  0.89037416  1
  Sc  Sc98  1  0.70108871  0.10024442  0.09683496  1
  Sc  Sc99  1  0.09601551  0.09896543  0.69873156  1
  Nb  Nb100  1  0.29516293  0.49960423  0.09924124  1
  Nb  Nb101  1  0.69764598  0.50126222  0.49562073  1
  Nb  Nb102  1  0.30285831  0.10774010  0.70661052  1
  Nb  Nb103  1  0.49236530  0.10074798  0.50163099  1
  Nb  Nb104  1  0.09831765  0.49546547  0.29715110  1
  Nb  Nb105  1  0.10971191  0.90083597  0.50142536  1
  Nb  Nb106  1  0.09857256  0.70146948  0.69463086  1
  Nb  Nb107  1  0.50208691  0.49628555  0.70004188  1
  Nb  Nb108  1  0.29811165  0.49677102  0.50401408  1
  Nb  Nb109  1  0.89941737  0.09566958  0.09384930  1
  Nb  Nb110  1  0.30872568  0.10300732  0.50746670  1
  Nb  Nb111  1  0.10152215  0.49723850  0.10084861  1
  Nb  Nb112  1  0.48947883  0.29883912  0.29206469  1
  Nb  Nb113  1  0.69585482  0.10382102  0.30023984  1
  Nb  Nb114  1  0.89551898  0.89733151  0.70157120  1
  Nb  Nb115  1  0.69872550  0.89975730  0.50168795  1
  Nb  Nb116  1  0.10632312  0.30202887  0.70266114  1
  Nb  Nb117  1  0.69617488  0.30315907  0.50666480  1
  Nb  Nb118  1  0.10438371  0.30455370  0.10217416  1
  Nb  Nb119  1  0.49950351  0.90308512  0.50125163  1
  Nb  Nb120  1  0.49968286  0.30039614  0.09390843  1
  Nb  Nb121  1  0.30529319  0.30081595  0.29915321  1
  Nb  Nb122  1  0.70233430  0.29786211  0.69529560  1
  Nb  Nb123  1  0.29877337  0.10821771  0.89369947  1
  Nb  Nb124  1  0.49838588  0.30987624  0.90905931  1
  Nb  Nb125  1  0.79399965  0.80696707  0.40324084  1
  Nb  Nb126  1  0.20433947  0.40430814  0.20036619  1
  Nb  Nb127  1  0.60196671  0.80937908  0.40380723  1
  Nb  Nb128  1  0.19699690  0.80016416  0.79230267  1
  Nb  Nb129  1  0.79922380  0.59356171  0.59989418  1
  Nb  Nb130  1  0.19860602  0.01072567  -0.00125469  1
  Nb  Nb131  1  0.80086694  0.79766919  0.00022825  1
  Nb  Nb132  1  0.00139422  0.39861939  0.00440016  1
  Nb  Nb133  1  0.80249202  0.59836902  0.20325002  1
  Nb  Nb134  1  0.20250772  0.00218674  0.20708378  1
  Nb  Nb135  1  0.20278757  0.00191740  0.79958085  1
  Nb  Nb136  1  0.40257889  0.79508766  0.00086112  1
  Nb  Nb137  1  0.20467450  0.00326811  0.40622497  1
  Nb  Nb138  1  0.78957214  0.20043317  0.39643671  1
  Nb  Nb139  1  0.80416082  0.39921591  -0.00053679  1
  Nb  Nb140  1  -0.00849393  0.80229164  0.00107743  1
  Nb  Nb141  1  0.59366094  -0.00052253  0.59445001  1
  Nb  Nb142  1  -0.00155939  0.00167970  0.00196511  1
  Nb  Nb143  1  0.20364427  0.79900807  0.20379338  1
  Nb  Nb144  1  0.20684679  0.19639996  0.60210008  1
  Nb  Nb145  1  0.39941034  0.20369399  -0.00473910  1
  Nb  Nb146  1  0.80124886  -0.00474545  0.79417216  1
  Nb  Nb147  1  0.00329667  0.59368751  0.20276002  1
  Nb  Nb148  1  0.20406517  0.20037493  0.00232972  1
  Nb  Nb149  1  0.40816639  0.40447456  0.79827158  1
  Pd  Pd150  1  0.79819942  0.20909446  0.00057855  1
  Pd  Pd151  1  0.60006421  0.58754193  0.20123935  1
  Pd  Pd152  1  0.39505018  -0.00418176  0.80036528  1
  Pd  Pd153  1  0.40454775  -0.00144200  0.60743082  1
  Pd  Pd154  1  0.79130560  0.59740693  0.00577458  1
  Pd  Pd155  1  0.00717409  0.59395453  0.39912491  1
  Pd  Pd156  1  0.00528629  0.39750420  0.40276766  1
  Pd  Pd157  1  0.00623666  0.79595286  0.19181732  1
  Pd  Pd158  1  0.19520399  0.59162555  -0.00683781  1
  Pd  Pd159  1  0.39588494  0.00656866  0.39611248  1
  Pd  Pd160  1  0.40858297  0.58653935  0.19650080  1
  Pd  Pd161  1  0.80408838  0.00292307  0.40295592  1
  Pd  Pd162  1  0.19365364  0.60036700  0.40438601  1
  Pd  Pd163  1  0.41129242  0.60546761  -0.00063482  1
  Pd  Pd164  1  -0.00016982  -0.00477095  0.41088741  1
  Pd  Pd165  1  0.79451029  0.19698183  0.20115308  1
  Pd  Pd166  1  0.40102001  0.41103385  0.20291116  1
  Pd  Pd167  1  0.79379262  0.40951859  0.59716361  1
  Pd  Pd168  1  0.41083442  0.40119988  0.40488723  1
  Pd  Pd169  1  0.00515523  0.20622264  0.00364654  1
  Pd  Pd170  1  0.59480072  0.20964707  0.40442673  1
  Pd  Pd171  1  0.79339252  0.19179548  0.59763367  1
  Pd  Pd172  1  0.19601479  0.59888410  0.20663591  1
  Pd  Pd173  1  0.19562291  0.19397743  0.41338182  1
  Pd  Pd174  1  0.59192447  0.19438610  -0.00669998  1
  Pd  Pd175  1  -0.01041471  0.81167930  0.41448343  1
  Pd  Pd176  1  0.00535920  0.60130102  0.79437362  1
  Pd  Pd177  1  -0.00411555  0.20475907  0.20417565  1
  Pd  Pd178  1  0.59775266  0.60042040  -0.00069270  1
  Pd  Pd179  1  0.59562683  -0.00344486  0.40213989  1
  Pd  Pd180  1  0.59331700  0.20599154  0.80423123  1
  Pd  Pd181  1  -0.00464882  0.59580368  0.60042534  1
  Pd  Pd182  1  -0.00027073  -0.00260717  0.80342727  1
  Pd  Pd183  1  0.40406117  0.59548606  0.59532094  1
  Pd  Pd184  1  0.00755821  0.20668536  0.60528586  1
  Pd  Pd185  1  0.59230995  0.40604502  0.20001628  1
  Pd  Pd186  1  -0.00438708  0.20453972  0.78972515  1
  Pd  Pd187  1  0.40601644  0.59735118  0.79849324  1
  Pd  Pd188  1  0.00757457  0.79628952  0.80569533  1
  Pd  Pd189  1  0.20174853  0.00897791  0.60198856  1
  Pd  Pd190  1  0.40080565  0.00089983  -0.00937140  1
  Pd  Pd191  1  0.79091730  0.01212200  0.60772639  1
  Pd  Pd192  1  0.40856342  0.79674085  0.40590414  1
  Pd  Pd193  1  0.40744943  0.59027569  0.41057303  1
  Pd  Pd194  1  0.20400279  0.38795670  0.60283521  1
  Pd  Pd195  1  0.19651768  0.60579159  0.79146929  1
  Pd  Pd196  1  0.20023596  0.39431492  0.00063542  1
  Pd  Pd197  1  0.39737883  0.79632585  0.19044018  1
  Pd  Pd198  1  0.20587167  0.79396073  0.60607391  1
  Pd  Pd199  1  0.00103613  0.39723563  0.80187985  1
  Rh  Rh200  1  0.19870225  0.39989895  0.39547934  1
  Rh  Rh201  1  0.39996080  0.40094551  0.60428614  1
  Rh  Rh202  1  0.80300641  -0.00639075  -0.00548343  1
  Rh  Rh203  1  0.39674197  0.00967319  0.21066178  1
  Rh  Rh204  1  0.59528548  0.80645689  0.59635973  1
  Rh  Rh205  1  0.59689572  0.00451921  -0.00233018  1
  Rh  Rh206  1  0.61464784  0.39771201  -0.00682596  1
  Rh  Rh207  1  0.38774693  0.39404234  -0.00782152  1
  Rh  Rh208  1  0.60087976  0.80633964  0.20735953  1
  Rh  Rh209  1  -0.01271394  0.20504093  0.39495818  1
  Rh  Rh210  1  0.59417737  0.20038088  0.19520621  1
  Rh  Rh211  1  0.60879709  0.59024000  0.60479502  1
  Rh  Rh212  1  0.79748192  0.39562318  0.80512316  1
  Rh  Rh213  1  0.78952281  0.38982850  0.40694304  1
  Rh  Rh214  1  0.59827956  0.19485373  0.59761911  1
  Rh  Rh215  1  0.60397597  0.79917258  0.79790153  1
  Rh  Rh216  1  0.39441441  0.79699398  0.80700507  1
  Rh  Rh217  1  0.79562391  0.60550105  0.40543232  1
  Rh  Rh218  1  0.79153249  0.80419378  0.80788586  1
  Rh  Rh219  1  0.79690928  0.59985103  0.78732461  1
  Rh  Rh220  1  0.39698687  0.20704159  0.59692373  1
  Rh  Rh221  1  0.60858119  -0.00520001  0.78801523  1
  Rh  Rh222  1  0.19969146  0.20324900  0.19743622  1
  Rh  Rh223  1  0.60098217  0.60023131  0.79334898  1
  Rh  Rh224  1  0.59738745  0.39135684  0.79744254  1
  Rh  Rh225  1  0.60389142  0.00652976  0.19768078  1
  Rh  Rh226  1  0.20132073  0.80372120  0.40042177  1
  Rh  Rh227  1  0.20874490  0.40375621  0.79084940  1
  Rh  Rh228  1  0.41180047  0.19838036  0.19168520  1
  Rh  Rh229  1  0.80070394  0.19061129  0.79209874  1
  Rh  Rh230  1  0.78460871  0.40432065  0.19264034  1
  Rh  Rh231  1  0.79298660  0.79548562  0.20135526  1
  Rh  Rh232  1  0.40838251  0.20665963  0.40460749  1
  Rh  Rh233  1  0.59795824  0.60322509  0.40593827  1
  Rh  Rh234  1  0.60657727  0.40086307  0.60207271  1
  Rh  Rh235  1  0.00854835  0.59442664  0.00244685  1
  Rh  Rh236  1  0.80614726  0.78757160  0.58891834  1
  Rh  Rh237  1  0.01036225  0.39885776  0.19804195  1
  Rh  Rh238  1  0.41141612  0.21225483  0.80802942  1
  Rh  Rh239  1  0.19994973  0.60447353  0.59871676  1
  Rh  Rh240  1  0.20476035  0.80801191  0.00221749  1
  Rh  Rh241  1  -0.00127785  -0.00306578  0.59827115  1
  Rh  Rh242  1  0.40362147  0.79580779  0.59746801  1
  Rh  Rh243  1  0.00163174  0.39651097  0.60279066  1
  Rh  Rh244  1  0.19355322  0.19664544  0.79195705  1
  Rh  Rh245  1  0.79364888  0.01094437  0.19636724  1
  Rh  Rh246  1  0.00528681  0.00277349  0.19149206  1
  Rh  Rh247  1  -0.00304389  0.80256761  0.59421590  1
  Rh  Rh248  1  0.59840344  0.79914038  0.00071160  1
  Rh  Rh249  1  0.59705166  0.39348405  0.40414254  1
