# generated using pymatgen
data_ZrScNbPdRh
_symmetry_space_group_name_H-M   'P 1'
_cell_length_a   16.55857105
_cell_length_b   16.55846629
_cell_length_c   16.55842783
_cell_angle_alpha   90.00093558
_cell_angle_beta   89.97491040
_cell_angle_gamma   89.99018266
_symmetry_Int_Tables_number   1
_chemical_formula_structural   ZrScNbPdRh
_chemical_formula_sum   'Zr50 Sc50 Nb50 Pd50 Rh50'
_cell_volume   4540.06442297
_cell_formula_units_Z   50
loop_
 _symmetry_equiv_pos_site_id
 _symmetry_equiv_pos_as_xyz
  1  'x, y, z'
loop_
 _atom_site_type_symbol
 _atom_site_label
 _atom_site_symmetry_multiplicity
 _atom_site_fract_x
 _atom_site_fract_y
 _atom_site_fract_z
 _atom_site_occupancy
  Zr  Zr0  1  0.69794110  0.89576043  0.50339160  1
  Zr  Zr1  1  0.70010619  0.30524943  0.70056972  1
  Zr  Zr2  1  0.69602667  0.50316409  0.29891120  1
  Zr  Zr3  1  0.30589987  0.31413301  0.69658714  1
  Zr  Zr4  1  0.50725367  0.09995327  0.09842200  1
  Zr  Zr5  1  0.89906534  0.90412648  0.29941400  1
  Zr  Zr6  1  0.30052419  0.69979355  0.89727686  1
  Zr  Zr7  1  0.50636862  0.90546342  0.70123732  1
  Zr  Zr8  1  0.09945805  0.70066901  0.30700257  1
  Zr  Zr9  1  0.69469903  0.89879505  0.30915751  1
  Zr  Zr10  1  0.51271878  0.30246386  0.90024301  1
  Zr  Zr11  1  0.89982950  0.30829555  0.90501771  1
  Zr  Zr12  1  0.69349770  0.69838136  0.09677331  1
  Zr  Zr13  1  0.29617164  0.89241184  0.89946704  1
  Zr  Zr14  1  0.50161664  0.49865577  0.90480742  1
  Zr  Zr15  1  0.90168268  0.29634528  0.10362455  1
  Zr  Zr16  1  0.29534659  0.09282369  0.89627916  1
  Zr  Zr17  1  0.10046709  0.89590117  0.89581748  1
  Zr  Zr18  1  0.49319341  0.49638878  0.70552521  1
  Zr  Zr19  1  0.30309261  0.50085742  0.70020394  1
  Zr  Zr20  1  0.49834703  0.10363434  0.30816038  1
  Zr  Zr21  1  0.29957006  0.70109674  0.09151954  1
  Zr  Zr22  1  0.30341933  0.89801070  0.31533552  1
  Zr  Zr23  1  0.50352529  0.70356947  0.91003762  1
  Zr  Zr24  1  0.90469825  0.89968804  0.90080605  1
  Zr  Zr25  1  0.09005585  0.10245077  0.69695394  1
  Zr  Zr26  1  0.70141573  0.29850112  0.49741600  1
  Zr  Zr27  1  0.30188834  0.50666673  0.89063151  1
  Zr  Zr28  1  0.90580897  0.49197890  0.10186201  1
  Zr  Zr29  1  0.10326835  0.49499055  0.10080781  1
  Zr  Zr30  1  0.69811013  0.70203968  0.49500499  1
  Zr  Zr31  1  0.49766248  0.50470499  0.29328006  1
  Zr  Zr32  1  0.30664000  0.70069706  0.30036610  1
  Zr  Zr33  1  0.90275777  0.90439225  0.09708134  1
  Zr  Zr34  1  0.89975405  0.30017145  0.49426460  1
  Zr  Zr35  1  0.29848785  0.10200185  0.10069301  1
  Zr  Zr36  1  0.10241254  0.89900539  0.69985538  1
  Zr  Zr37  1  0.69244547  0.90754717  0.10494554  1
  Zr  Zr38  1  0.69926318  0.69191767  0.29800250  1
  Zr  Zr39  1  0.89633703  0.50095507  0.29852479  1
  Zr  Zr40  1  0.69214209  0.89895031  0.89309550  1
  Zr  Zr41  1  0.50424224  0.89988081  0.49333829  1
  Zr  Zr42  1  0.29605846  0.09875872  0.30968739  1
  Zr  Zr43  1  0.10202566  0.50547564  0.70034171  1
  Zr  Zr44  1  0.30461070  0.70128223  0.49348695  1
  Zr  Zr45  1  0.29535452  0.89661305  0.70388352  1
  Zr  Zr46  1  0.70285248  0.29643474  0.30281901  1
  Zr  Zr47  1  0.90454304  0.30185822  0.29722184  1
  Zr  Zr48  1  0.49596599  0.50368472  0.10225240  1
  Zr  Zr49  1  0.91068902  0.70068742  0.90109122  1
  Sc  Sc50  1  0.09922601  0.10429150  0.49957152  1
  Sc  Sc51  1  0.90264917  0.68977785  0.09924594  1
  Sc  Sc52  1  0.69912906  0.70591459  0.68639955  1
  Sc  Sc53  1  0.90141273  0.50666442  0.69561956  1
  Sc  Sc54  1  0.49973649  0.30548821  0.29812206  1
  Sc  Sc55  1  0.10201981  0.49943506  0.89534181  1
  Sc  Sc56  1  0.69579702  0.10346357  0.90927862  1
  Sc  Sc57  1  0.49876777  0.69646313  0.69888323  1
  Sc  Sc58  1  0.30757919  0.08374642  0.69294589  1
  Sc  Sc59  1  0.50534961  0.69861625  0.49796763  1
  Sc  Sc60  1  0.70446053  0.49960679  0.49930269  1
  Sc  Sc61  1  0.90009957  0.69337672  0.30930102  1
  Sc  Sc62  1  0.89887440  0.89072284  0.50042320  1
  Sc  Sc63  1  0.49324831  0.09661867  0.50098901  1
  Sc  Sc64  1  0.49834646  0.70372475  0.10090473  1
  Sc  Sc65  1  0.09983616  0.89772774  0.50549868  1
  Sc  Sc66  1  0.50263934  0.50782758  0.50233721  1
  Sc  Sc67  1  0.10293483  0.50103435  0.49046932  1
  Sc  Sc68  1  0.29324311  0.30464922  0.10396499  1
  Sc  Sc69  1  0.10132316  0.69640486  0.08934000  1
  Sc  Sc70  1  0.09594349  0.90349552  0.08863094  1
  Sc  Sc71  1  0.29910264  0.30427542  0.50025883  1
  Sc  Sc72  1  0.09376419  0.10620888  0.09611938  1
  Sc  Sc73  1  0.09802090  0.30644258  0.70629981  1
  Sc  Sc74  1  0.90553917  0.30136061  0.70087946  1
  Sc  Sc75  1  0.30045992  0.50183010  0.09820883  1
  Sc  Sc76  1  0.50884590  0.09609976  0.89521601  1
  Sc  Sc77  1  0.09773721  0.10407282  0.90210937  1
  Sc  Sc78  1  0.09305696  0.30002291  0.90136863  1
  Sc  Sc79  1  0.09964413  0.90224526  0.31160494  1
  Sc  Sc80  1  0.50163355  0.30589405  0.69800099  1
  Sc  Sc81  1  0.10197612  0.69912739  0.89700097  1
  Sc  Sc82  1  0.29543725  0.29412802  0.29718393  1
  Sc  Sc83  1  0.08998298  0.69908578  0.49930146  1
  Sc  Sc84  1  0.10177474  0.30001088  0.48429500  1
  Sc  Sc85  1  0.70181229  0.49204810  0.69333678  1
  Sc  Sc86  1  0.29645534  0.30841658  0.89873322  1
  Sc  Sc87  1  0.90241474  0.10708233  0.29162640  1
  Sc  Sc88  1  0.70059086  0.50715887  0.10371353  1
  Sc  Sc89  1  0.89769163  0.09933344  0.09842846  1
  Sc  Sc90  1  0.89927131  0.89678746  0.69624455  1
  Sc  Sc91  1  0.09582576  0.49762622  0.30023818  1
  Sc  Sc92  1  0.29775627  0.50854831  0.29323659  1
  Sc  Sc93  1  0.89812208  0.69345345  0.50553984  1
  Sc  Sc94  1  0.09112020  0.69910205  0.70455138  1
  Sc  Sc95  1  0.49590508  0.30907793  0.10120875  1
  Sc  Sc96  1  0.90267166  0.10158253  0.90147422  1
  Sc  Sc97  1  0.49979244  0.29560787  0.49744600  1
  Sc  Sc98  1  0.70385678  0.09639371  0.30641244  1
  Sc  Sc99  1  0.69185190  0.08581292  0.71545641  1
  Nb  Nb100  1  0.49691971  0.89234069  0.90577374  1
  Nb  Nb101  1  0.30075316  0.09231123  0.49799411  1
  Nb  Nb102  1  0.69875808  0.69891538  0.90454291  1
  Nb  Nb103  1  0.10233876  0.10435747  0.30666167  1
  Nb  Nb104  1  0.09578022  0.28719904  0.29916407  1
  Nb  Nb105  1  0.30291743  0.90729872  0.50405991  1
  Nb  Nb106  1  0.49854468  0.10180750  0.69951857  1
  Nb  Nb107  1  0.90528777  0.09921341  0.51152368  1
  Nb  Nb108  1  0.90188837  0.10336748  0.69814136  1
  Nb  Nb109  1  0.70200052  0.49711892  0.89971579  1
  Nb  Nb110  1  0.49669818  0.70008942  0.30513513  1
  Nb  Nb111  1  0.70294100  0.28485400  0.09246978  1
  Nb  Nb112  1  0.69876433  0.10551281  0.10222917  1
  Nb  Nb113  1  0.30354832  0.49895726  0.50133005  1
  Nb  Nb114  1  0.09189585  0.30435024  0.10216251  1
  Nb  Nb115  1  0.49729295  0.89989470  0.10263940  1
  Nb  Nb116  1  0.89869845  0.69608255  0.70568419  1
  Nb  Nb117  1  0.69938050  0.09941340  0.49755884  1
  Nb  Nb118  1  0.29818779  0.89975250  0.10115949  1
  Nb  Nb119  1  0.29926385  0.69670280  0.70236249  1
  Nb  Nb120  1  0.70177775  0.89705237  0.69758368  1
  Nb  Nb121  1  0.70212983  0.30571417  0.89814238  1
  Nb  Nb122  1  0.49954898  0.89588582  0.29706435  1
  Nb  Nb123  1  0.89303385  0.50020111  0.90391538  1
  Nb  Nb124  1  0.90569246  0.49911806  0.49754599  1
  Nb  Nb125  1  0.79797351  0.20323614  0.79934565  1
  Nb  Nb126  1  0.00113741  0.80099525  0.20163559  1
  Nb  Nb127  1  0.61014340  0.59893504  0.80667750  1
  Nb  Nb128  1  0.40212062  -0.00553875  0.00358712  1
  Nb  Nb129  1  0.39364078  0.80512696  0.59934331  1
  Nb  Nb130  1  0.20698894  0.59999480  0.59930666  1
  Nb  Nb131  1  0.79759682  0.79371707  0.80160482  1
  Nb  Nb132  1  0.39978002  -0.00625430  0.19996810  1
  Nb  Nb133  1  -0.00233901  0.00016765  0.79480838  1
  Nb  Nb134  1  -0.00381835  0.00628880  0.40391821  1
  Nb  Nb135  1  0.39630428  0.40866954  0.39983080  1
  Nb  Nb136  1  0.20569975  0.19952352  0.60336411  1
  Nb  Nb137  1  0.79706959  0.60245999  0.80609727  1
  Nb  Nb138  1  0.80198016  0.80071646  0.19681548  1
  Nb  Nb139  1  0.20262244  -0.00268237  0.20340817  1
  Nb  Nb140  1  0.60590863  0.19955065  0.19729530  1
  Nb  Nb141  1  0.79755416  0.00470269  0.60078864  1
  Nb  Nb142  1  0.39946058  0.19780377  0.79885885  1
  Nb  Nb143  1  0.20772124  0.19843219  0.79109012  1
  Nb  Nb144  1  0.19871533  0.80579887  0.19930109  1
  Nb  Nb145  1  0.79643962  0.19184183  0.60433979  1
  Nb  Nb146  1  0.79616696  0.79971469  -0.00113916  1
  Nb  Nb147  1  0.60671752  0.19220067  0.60098898  1
  Nb  Nb148  1  0.39995999  0.19554750  -0.00616652  1
  Nb  Nb149  1  -0.00037846  0.40539577  0.59084950  1
  Pd  Pd150  1  0.61009369  0.40261869  0.01024162  1
  Pd  Pd151  1  0.79640871  0.00167792  0.20101188  1
  Pd  Pd152  1  0.60206284  0.79519914  0.20342871  1
  Pd  Pd153  1  -0.00429661  0.40844501  0.79561874  1
  Pd  Pd154  1  0.20177973  0.20919177  -0.00605393  1
  Pd  Pd155  1  0.59583036  0.00735408  0.21127309  1
  Pd  Pd156  1  0.39542768  0.80116871  0.19876353  1
  Pd  Pd157  1  0.19704837  0.60907513  0.19721815  1
  Pd  Pd158  1  0.00687418  0.59042951  -0.00466801  1
  Pd  Pd159  1  0.19796765  0.40149104  -0.00451440  1
  Pd  Pd160  1  0.40485391  0.79586645  0.79323628  1
  Pd  Pd161  1  0.39458054  0.39500760  -0.00144170  1
  Pd  Pd162  1  0.80177394  0.60153734  -0.00004435  1
  Pd  Pd163  1  0.59083752  0.40407018  0.40369813  1
  Pd  Pd164  1  0.80983553  0.00564201  0.40848478  1
  Pd  Pd165  1  0.80536474  0.19730902  -0.00789065  1
  Pd  Pd166  1  0.39948227  0.19999641  0.60407835  1
  Pd  Pd167  1  0.80701115  0.00086456  0.79663423  1
  Pd  Pd168  1  0.40766119  0.20028323  0.19408308  1
  Pd  Pd169  1  0.19629229  0.80149347  0.40481458  1
  Pd  Pd170  1  0.20660072  0.40096746  0.38924686  1
  Pd  Pd171  1  0.79208554  0.39781829  0.19337750  1
  Pd  Pd172  1  0.19158390  0.19510196  0.19689645  1
  Pd  Pd173  1  0.80679569  0.40334423  0.79328643  1
  Pd  Pd174  1  0.60268190  0.79134033  0.79253936  1
  Pd  Pd175  1  0.39485226  0.21025566  0.40347216  1
  Pd  Pd176  1  0.20126587  0.59976152  0.40434756  1
  Pd  Pd177  1  0.01293104  -0.00126925  0.20729941  1
  Pd  Pd178  1  0.19727049  0.39794870  0.20770422  1
  Pd  Pd179  1  0.60388833  0.59746616  0.60714019  1
  Pd  Pd180  1  0.79239045  0.40014125  0.01059138  1
  Pd  Pd181  1  0.19868171  -0.00114472  0.00371279  1
  Pd  Pd182  1  0.79777212  0.59906927  0.60254634  1
  Pd  Pd183  1  0.18894216  0.40074694  0.59532919  1
  Pd  Pd184  1  0.79543606  -0.00067693  -0.00167437  1
  Pd  Pd185  1  0.00380501  0.60528377  0.20179717  1
  Pd  Pd186  1  0.00597850  0.21607034  0.59631341  1
  Pd  Pd187  1  0.39838421  0.60637665  0.59793993  1
  Pd  Pd188  1  0.60292771  0.00564949  0.59734762  1
  Pd  Pd189  1  0.80416560  0.79450342  0.39610777  1
  Pd  Pd190  1  -0.00487820  0.79607378  0.60352463  1
  Pd  Pd191  1  0.20321553  0.78854099  0.59756535  1
  Pd  Pd192  1  0.60973237  0.39143091  0.19209178  1
  Pd  Pd193  1  0.80852588  0.19150509  0.40225529  1
  Pd  Pd194  1  0.40739053  0.00048900  0.80703699  1
  Pd  Pd195  1  0.59390535  0.39657500  0.59200540  1
  Pd  Pd196  1  0.19583396  0.00681762  0.59573357  1
  Pd  Pd197  1  0.79914845  0.40565276  0.39891130  1
  Pd  Pd198  1  0.60206481  0.20099640  0.79345313  1
  Pd  Pd199  1  0.59694473  -0.00388325  -0.00486900  1
  Rh  Rh200  1  0.40730736  0.80038107  0.40833081  1
  Rh  Rh201  1  0.39928114  0.59987355  -0.00043100  1
  Rh  Rh202  1  0.00420509  0.19844863  0.19606627  1
  Rh  Rh203  1  0.40550393  -0.00771630  0.59843549  1
  Rh  Rh204  1  -0.00436486  0.19256764  0.39768751  1
  Rh  Rh205  1  0.79395008  0.19753914  0.20135590  1
  Rh  Rh206  1  0.80467009  0.60346241  0.19830067  1
  Rh  Rh207  1  0.41148858  0.60791707  0.80622863  1
  Rh  Rh208  1  0.19762251  0.39537003  0.80308619  1
  Rh  Rh209  1  -0.00243667  0.79618272  0.00994373  1
  Rh  Rh210  1  0.20088285  0.59419198  -0.00531463  1
  Rh  Rh211  1  0.19849274  0.60520680  0.79387560  1
  Rh  Rh212  1  0.59122989  0.80010218  0.60139984  1
  Rh  Rh213  1  -0.00322846  0.80617115  0.79299790  1
  Rh  Rh214  1  -0.00411143  0.20407634  0.00333592  1
  Rh  Rh215  1  0.19703370  0.79990706  0.00142342  1
  Rh  Rh216  1  0.59797041  0.59304040  -0.00077711  1
  Rh  Rh217  1  0.40588001  -0.00173688  0.39867108  1
  Rh  Rh218  1  0.60338514  0.80749599  0.00612554  1
  Rh  Rh219  1  0.59604334  0.00201708  0.39910116  1
  Rh  Rh220  1  0.38982595  0.40063174  0.20890185  1
  Rh  Rh221  1  0.40513309  0.39163012  0.80826759  1
  Rh  Rh222  1  -0.00315061  0.80675528  0.39654247  1
  Rh  Rh223  1  -0.00865984  0.59222778  0.80589667  1
  Rh  Rh224  1  0.00327448  0.40324079  -0.00136589  1
  Rh  Rh225  1  0.40885916  0.40257364  0.58674323  1
  Rh  Rh226  1  0.80261637  0.80283421  0.60493691  1
  Rh  Rh227  1  0.39872536  0.80468773  0.00294439  1
  Rh  Rh228  1  0.18971842  0.00247636  0.40551494  1
  Rh  Rh229  1  0.00717260  0.39663068  0.20630526  1
  Rh  Rh230  1  0.79932148  0.59522559  0.40568537  1
  Rh  Rh231  1  0.40027724  0.60715826  0.19584090  1
  Rh  Rh232  1  -0.00181450  0.19572532  0.80586028  1
  Rh  Rh233  1  0.19666410  0.79067320  0.79825938  1
  Rh  Rh234  1  0.00224666  0.00598226  -0.00936988  1
  Rh  Rh235  1  0.59510581  -0.00409740  0.80441999  1
  Rh  Rh236  1  -0.00571780  -0.00884123  0.59933699  1
  Rh  Rh237  1  0.00808946  0.59461044  0.59569855  1
  Rh  Rh238  1  0.00111875  0.39987728  0.39674308  1
  Rh  Rh239  1  0.60209448  0.40985578  0.79938421  1
  Rh  Rh240  1  0.20692574  0.19836604  0.41078010  1
  Rh  Rh241  1  0.59934384  0.19800644  0.39949875  1
  Rh  Rh242  1  0.59465757  0.20548434  0.00462944  1
  Rh  Rh243  1  0.59980706  0.59893047  0.39881777  1
  Rh  Rh244  1  0.18601286  0.00817639  0.79626965  1
  Rh  Rh245  1  0.40399731  0.59400424  0.39784445  1
  Rh  Rh246  1  0.59111562  0.60663643  0.19894706  1
  Rh  Rh247  1  -0.00326816  0.59624549  0.40065275  1
  Rh  Rh248  1  0.81316648  0.39480657  0.59847474  1
  Rh  Rh249  1  0.59607296  0.79429357  0.39417049  1
