# generated using pymatgen
data_ZrScNbPdRh
_symmetry_space_group_name_H-M   'P 1'
_cell_length_a   16.57123307
_cell_length_b   16.56244485
_cell_length_c   16.56901996
_cell_angle_alpha   90.02992856
_cell_angle_beta   90.02921835
_cell_angle_gamma   89.96615040
_symmetry_Int_Tables_number   1
_chemical_formula_structural   ZrScNbPdRh
_chemical_formula_sum   'Zr50 Sc50 Nb50 Pd50 Rh50'
_cell_volume   4547.53343172
_cell_formula_units_Z   50
loop_
 _symmetry_equiv_pos_site_id
 _symmetry_equiv_pos_as_xyz
  1  'x, y, z'
loop_
 _atom_site_type_symbol
 _atom_site_label
 _atom_site_symmetry_multiplicity
 _atom_site_fract_x
 _atom_site_fract_y
 _atom_site_fract_z
 _atom_site_occupancy
  Zr  Zr0  1  0.09842468  0.08760174  0.89778869  1
  Zr  Zr1  1  0.29133222  0.30276325  0.70851420  1
  Zr  Zr2  1  0.08831497  0.50146007  0.49878787  1
  Zr  Zr3  1  0.09754305  0.70503381  0.90365488  1
  Zr  Zr4  1  0.69647147  0.29809123  0.30165595  1
  Zr  Zr5  1  0.29883636  0.29941785  0.90877403  1
  Zr  Zr6  1  0.70086693  0.29113945  0.10275968  1
  Zr  Zr7  1  0.50785007  0.30244782  0.29975914  1
  Zr  Zr8  1  0.30577592  0.09381624  0.91328199  1
  Zr  Zr9  1  0.09967078  0.89440723  0.29430160  1
  Zr  Zr10  1  0.49829223  0.69639298  0.29843752  1
  Zr  Zr11  1  0.69872270  0.09853748  0.70046210  1
  Zr  Zr12  1  0.30017151  0.50528956  0.29971535  1
  Zr  Zr13  1  0.50730623  0.51185356  0.50879446  1
  Zr  Zr14  1  0.10476414  0.09803704  0.10070465  1
  Zr  Zr15  1  0.90285274  0.10293063  0.49121243  1
  Zr  Zr16  1  0.09561981  0.29954125  0.69936983  1
  Zr  Zr17  1  0.70298397  0.69273046  0.89482679  1
  Zr  Zr18  1  0.10006970  0.90008849  0.70880546  1
  Zr  Zr19  1  0.70059564  0.50213010  0.90179029  1
  Zr  Zr20  1  0.49534747  0.49302337  0.29892882  1
  Zr  Zr21  1  0.50390316  0.30638839  0.49109638  1
  Zr  Zr22  1  0.69124153  0.09417950  0.09920364  1
  Zr  Zr23  1  0.50539583  0.70245836  0.49654869  1
  Zr  Zr24  1  0.29934184  0.70117605  0.10298513  1
  Zr  Zr25  1  0.50785151  0.30594034  0.69956525  1
  Zr  Zr26  1  0.50478573  0.30491674  0.90379046  1
  Zr  Zr27  1  0.29176885  0.70072679  0.30131833  1
  Zr  Zr28  1  0.89547832  0.69735038  0.29316490  1
  Zr  Zr29  1  0.90190741  0.10259761  0.70870876  1
  Zr  Zr30  1  0.09822492  0.30916417  0.30704191  1
  Zr  Zr31  1  0.29243986  0.09955438  0.69273919  1
  Zr  Zr32  1  0.89513100  0.89687605  0.49136689  1
  Zr  Zr33  1  0.09980776  0.50888500  0.30517203  1
  Zr  Zr34  1  0.89975613  0.29155104  0.89257826  1
  Zr  Zr35  1  0.30161171  0.89789130  0.09211093  1
  Zr  Zr36  1  0.50120853  0.69863137  0.68652529  1
  Zr  Zr37  1  0.10720596  0.09722785  0.50395962  1
  Zr  Zr38  1  0.89696276  0.88537655  0.69988287  1
  Zr  Zr39  1  0.89856234  0.70316919  0.09453902  1
  Zr  Zr40  1  0.29346426  0.71111725  0.89969643  1
  Zr  Zr41  1  0.90157515  0.89849110  0.29384543  1
  Zr  Zr42  1  0.49957678  0.09191877  0.70145969  1
  Zr  Zr43  1  0.89558875  0.69020896  0.50516670  1
  Zr  Zr44  1  0.70576262  0.30806147  0.49683151  1
  Zr  Zr45  1  0.90290198  0.29650726  0.30935083  1
  Zr  Zr46  1  0.09814296  0.09910536  0.70098827  1
  Zr  Zr47  1  0.51072519  0.89494319  0.69903441  1
  Zr  Zr48  1  0.50242354  0.10222006  0.30121315  1
  Zr  Zr49  1  0.29895345  0.50102322  0.10326959  1
  Sc  Sc50  1  0.28773817  0.89766793  0.31025549  1
  Sc  Sc51  1  0.89867211  0.69389005  0.90027652  1
  Sc  Sc52  1  0.90117333  0.09970627  0.89491883  1
  Sc  Sc53  1  0.90438393  0.09740592  0.30336267  1
  Sc  Sc54  1  0.30628249  0.89530456  0.70633023  1
  Sc  Sc55  1  0.50735077  0.70505863  0.89352412  1
  Sc  Sc56  1  0.09694767  0.68988256  0.49912180  1
  Sc  Sc57  1  0.50285988  0.89892629  0.10131406  1
  Sc  Sc58  1  0.08869631  0.30153056  0.49770826  1
  Sc  Sc59  1  0.30219784  0.08838815  0.49824219  1
  Sc  Sc60  1  0.09539423  0.50303474  0.70029280  1
  Sc  Sc61  1  0.08772288  0.69310420  0.70242271  1
  Sc  Sc62  1  0.29768818  0.89847826  0.50040359  1
  Sc  Sc63  1  0.10443483  0.09198092  0.29713600  1
  Sc  Sc64  1  0.49743054  0.09787174  0.50079059  1
  Sc  Sc65  1  0.10644451  0.89769826  0.49677815  1
  Sc  Sc66  1  0.31759736  0.30759490  0.30098747  1
  Sc  Sc67  1  0.09059806  0.90034757  0.09972789  1
  Sc  Sc68  1  0.30296716  0.29879075  0.09792177  1
  Sc  Sc69  1  0.28041661  0.50008196  0.89618399  1
  Sc  Sc70  1  0.52015507  0.50542154  0.89161515  1
  Sc  Sc71  1  0.49985483  0.30324840  0.10646118  1
  Sc  Sc72  1  0.68526240  0.88748174  0.89783641  1
  Sc  Sc73  1  0.68761540  0.89517397  0.10016131  1
  Sc  Sc74  1  0.30141761  0.51072857  0.49155560  1
  Sc  Sc75  1  0.70570875  0.29928151  0.69382354  1
  Sc  Sc76  1  0.50978574  0.89174818  0.29454303  1
  Sc  Sc77  1  0.69831983  0.50474179  0.09888402  1
  Sc  Sc78  1  0.90097202  0.50094926  0.69484407  1
  Sc  Sc79  1  0.10393125  0.50097391  0.10740275  1
  Sc  Sc80  1  0.70225177  0.10830119  0.49787417  1
  Sc  Sc81  1  0.70071242  0.89178642  0.29948354  1
  Sc  Sc82  1  0.89804132  0.30899901  0.50055935  1
  Sc  Sc83  1  0.49809735  0.89200402  0.50784705  1
  Sc  Sc84  1  0.69818146  0.10771779  0.29684964  1
  Sc  Sc85  1  0.90231141  0.29979754  0.69625240  1
  Sc  Sc86  1  0.29751900  0.10738062  0.09897377  1
  Sc  Sc87  1  0.90100250  0.09828518  0.09909398  1
  Sc  Sc88  1  0.91101857  0.89287780  0.90332107  1
  Sc  Sc89  1  0.69239395  0.50606134  0.70154325  1
  Sc  Sc90  1  0.11673282  0.30367618  0.09692493  1
  Sc  Sc91  1  0.09132880  0.50766453  0.89541138  1
  Sc  Sc92  1  0.30808236  0.70128352  0.49626535  1
  Sc  Sc93  1  0.50515000  0.50424663  0.11083626  1
  Sc  Sc94  1  0.49919630  0.09443659  0.09292572  1
  Sc  Sc95  1  0.11040791  0.30928425  0.89466050  1
  Sc  Sc96  1  0.10229858  0.70566754  0.10423912  1
  Sc  Sc97  1  0.48952161  0.90635182  0.90008520  1
  Sc  Sc98  1  0.69800642  0.70053898  0.09781373  1
  Sc  Sc99  1  0.69996311  0.50339819  0.29921111  1
  Nb  Nb100  1  0.49823679  0.50351845  0.70043064  1
  Nb  Nb101  1  0.30098762  0.50421009  0.69510959  1
  Nb  Nb102  1  0.89813325  0.50052100  0.10062743  1
  Nb  Nb103  1  0.89536943  0.50012818  0.90793404  1
  Nb  Nb104  1  0.30470493  0.30407702  0.50076565  1
  Nb  Nb105  1  0.48973587  0.70092149  0.10734766  1
  Nb  Nb106  1  0.49940394  0.10118270  0.90170454  1
  Nb  Nb107  1  0.90770101  0.50015765  0.29226365  1
  Nb  Nb108  1  0.71521442  0.50931342  0.50755052  1
  Nb  Nb109  1  0.69610174  0.70622551  0.31013794  1
  Nb  Nb110  1  0.09856837  0.70404618  0.30279567  1
  Nb  Nb111  1  0.90229806  0.29849969  0.10041309  1
  Nb  Nb112  1  0.70087367  0.29850605  0.90146499  1
  Nb  Nb113  1  0.89289777  0.70048249  0.70119122  1
  Nb  Nb114  1  0.10949340  0.89751592  0.90111252  1
  Nb  Nb115  1  0.70031193  0.10212092  0.90297540  1
  Nb  Nb116  1  0.70658916  0.71187312  0.70351122  1
  Nb  Nb117  1  0.89634514  0.89872088  0.10166063  1
  Nb  Nb118  1  0.30006208  0.69688061  0.69757835  1
  Nb  Nb119  1  0.30260406  0.09855969  0.30182086  1
  Nb  Nb120  1  0.69947633  0.89386033  0.49527418  1
  Nb  Nb121  1  0.28901421  0.89546709  0.90309915  1
  Nb  Nb122  1  0.89268140  0.50080569  0.50213362  1
  Nb  Nb123  1  0.69869723  0.69538811  0.49558847  1
  Nb  Nb124  1  0.70150639  0.89742975  0.69769855  1
  Nb  Nb125  1  0.80986563  0.39930845  0.19637973  1
  Nb  Nb126  1  0.39525880  0.00174876  0.20640552  1
  Nb  Nb127  1  0.40008716  0.59969500  -0.00597513  1
  Nb  Nb128  1  0.40041420  0.40713955  0.79915630  1
  Nb  Nb129  1  0.00399128  0.20596565  0.19581304  1
  Nb  Nb130  1  -0.00812973  0.39930419  0.00372351  1
  Nb  Nb131  1  0.20479983  0.40251866  0.59740680  1
  Nb  Nb132  1  0.39708023  0.40402082  0.60352728  1
  Nb  Nb133  1  0.80394244  0.39593594  0.00136734  1
  Nb  Nb134  1  0.20137738  0.79182638  0.60789245  1
  Nb  Nb135  1  0.79386076  -0.00721452  0.80060261  1
  Nb  Nb136  1  0.39650494  0.59748248  0.79774501  1
  Nb  Nb137  1  0.40449269  0.20007185  0.80060646  1
  Nb  Nb138  1  -0.00330300  0.79333081  0.39511239  1
  Nb  Nb139  1  0.79899630  -0.00431621  0.19370845  1
  Nb  Nb140  1  0.40271871  0.41288023  -0.00750605  1
  Nb  Nb141  1  0.20871780  0.20194088  0.39944476  1
  Nb  Nb142  1  0.79468846  -0.00338335  -0.00271326  1
  Nb  Nb143  1  -0.00700718  -0.00378998  0.60152771  1
  Nb  Nb144  1  0.60029427  0.19659835  0.80792270  1
  Nb  Nb145  1  0.39736965  0.20918685  0.60384713  1
  Nb  Nb146  1  0.60335021  -0.00513950  0.40280182  1
  Nb  Nb147  1  0.79976624  -0.00564816  0.60149855  1
  Nb  Nb148  1  0.00388339  0.20599064  0.00200145  1
  Nb  Nb149  1  0.79856724  0.40072750  0.80890243  1
  Pd  Pd150  1  0.00174817  0.39538770  0.19509713  1
  Pd  Pd151  1  0.00469862  0.59659097  0.00687713  1
  Pd  Pd152  1  0.20813020  0.39520601  0.20482125  1
  Pd  Pd153  1  0.59412684  0.19877866  0.59772389  1
  Pd  Pd154  1  0.19943055  0.59995709  0.59453667  1
  Pd  Pd155  1  0.79751076  0.80577844  -0.00669204  1
  Pd  Pd156  1  0.40459358  0.19430303  0.19502554  1
  Pd  Pd157  1  0.21081908  -0.00035194  0.79941172  1
  Pd  Pd158  1  0.20517629  0.39806356  0.40676702  1
  Pd  Pd159  1  0.39224702  0.00139667  0.80109815  1
  Pd  Pd160  1  0.79354341  0.79764976  0.59097737  1
  Pd  Pd161  1  0.40364130  0.79460047  0.79812845  1
  Pd  Pd162  1  0.60441381  0.00063388  0.80882620  1
  Pd  Pd163  1  0.60473043  0.60502520  0.20344191  1
  Pd  Pd164  1  0.80396259  0.59242299  0.79299481  1
  Pd  Pd165  1  -0.00639540  0.00162288  -0.00034604  1
  Pd  Pd166  1  0.40736764  0.79554430  -0.00451752  1
  Pd  Pd167  1  0.00466255  0.60678333  0.19300740  1
  Pd  Pd168  1  0.20868109  -0.00706905  0.19574891  1
  Pd  Pd169  1  0.60211164  0.59444658  0.39593568  1
  Pd  Pd170  1  -0.00092377  0.79414957  0.80528379  1
  Pd  Pd171  1  -0.00606482  0.19688598  0.59571592  1
  Pd  Pd172  1  0.60820276  -0.00208188  0.58781645  1
  Pd  Pd173  1  0.58958449  0.60879849  0.00669633  1
  Pd  Pd174  1  0.20198838  0.19150101  0.81125003  1
  Pd  Pd175  1  0.39816296  -0.00503153  0.60086915  1
  Pd  Pd176  1  0.39659106  0.19699383  0.40768984  1
  Pd  Pd177  1  0.00875701  -0.00650077  0.40300508  1
  Pd  Pd178  1  0.78787706  0.00361343  0.39326167  1
  Pd  Pd179  1  0.59032221  0.79518141  0.00273161  1
  Pd  Pd180  1  0.59362317  0.19931305  0.00190272  1
  Pd  Pd181  1  0.39215655  0.81105346  0.20872617  1
  Pd  Pd182  1  0.60105397  0.40248571  0.01051274  1
  Pd  Pd183  1  0.00919250  0.79956209  0.59045110  1
  Pd  Pd184  1  0.19892780  0.20807856  0.21340384  1
  Pd  Pd185  1  0.19894413  0.60124863  0.00211631  1
  Pd  Pd186  1  0.80679213  0.19401812  -0.00004473  1
  Pd  Pd187  1  0.40230893  0.80580737  0.39504214  1
  Pd  Pd188  1  0.80323815  0.40884244  0.39009375  1
  Pd  Pd189  1  -0.00642911  0.40428049  0.80409925  1
  Pd  Pd190  1  0.79346642  0.59871625  0.19773564  1
  Pd  Pd191  1  0.79070897  0.80246203  0.19540850  1
  Pd  Pd192  1  0.80375742  0.59513559  0.39239184  1
  Pd  Pd193  1  0.80734438  0.19720111  0.59618410  1
  Pd  Pd194  1  0.80960648  0.19467559  0.20380467  1
  Pd  Pd195  1  0.40997835  -0.01250604  0.39347036  1
  Pd  Pd196  1  0.60776144  0.41490470  0.40459485  1
  Pd  Pd197  1  0.20343315  0.20960335  0.58822353  1
  Pd  Pd198  1  0.60554545  0.40653084  0.59758779  1
  Pd  Pd199  1  0.19819071  0.60510618  0.79700983  1
  Rh  Rh200  1  0.39750937  0.60127744  0.59989049  1
  Rh  Rh201  1  0.79873226  0.40582340  0.60814772  1
  Rh  Rh202  1  0.61284977  0.39851136  0.19816649  1
  Rh  Rh203  1  0.19933322  0.00707158  0.39918723  1
  Rh  Rh204  1  0.40041348  -0.00427425  0.00658331  1
  Rh  Rh205  1  0.60176940  0.78702657  0.19807851  1
  Rh  Rh206  1  0.59755003  0.79676287  0.79553418  1
  Rh  Rh207  1  0.80430722  0.79063627  0.39975997  1
  Rh  Rh208  1  0.40387541  0.41129540  0.40907348  1
  Rh  Rh209  1  0.59949868  0.00159211  0.21023725  1
  Rh  Rh210  1  -0.00919266  -0.00951642  0.79607439  1
  Rh  Rh211  1  0.60950596  0.39279830  0.79538596  1
  Rh  Rh212  1  0.19154597  0.80438971  0.00708517  1
  Rh  Rh213  1  0.79907234  0.59966768  0.00594724  1
  Rh  Rh214  1  0.01526703  0.20265275  0.80956463  1
  Rh  Rh215  1  0.19557307  0.79416528  0.79308697  1
  Rh  Rh216  1  0.19884605  -0.00493095  0.00530531  1
  Rh  Rh217  1  -0.00792000  0.59924804  0.60390495  1
  Rh  Rh218  1  0.59931034  0.80310159  0.40296269  1
  Rh  Rh219  1  -0.00971675  0.60172768  0.39605838  1
  Rh  Rh220  1  -0.01088565  0.60184103  0.80005371  1
  Rh  Rh221  1  0.00238821  0.40263216  0.59818290  1
  Rh  Rh222  1  0.40604129  0.60016812  0.39668570  1
  Rh  Rh223  1  0.59152945  0.19808759  0.19544483  1
  Rh  Rh224  1  -0.00099911  0.79544929  0.20083209  1
  Rh  Rh225  1  0.61052481  0.79365658  0.59608855  1
  Rh  Rh226  1  0.59855788  0.61279016  0.78902865  1
  Rh  Rh227  1  0.01656654  0.19191340  0.39123030  1
  Rh  Rh228  1  0.00196708  0.80033535  0.00180019  1
  Rh  Rh229  1  0.60096616  -0.00411916  -0.00816143  1
  Rh  Rh230  1  0.19534059  -0.01575769  0.60470420  1
  Rh  Rh231  1  0.78885852  0.20097669  0.79660348  1
  Rh  Rh232  1  0.61300331  0.60864038  0.60378732  1
  Rh  Rh233  1  0.19065932  0.19397273  -0.00658952  1
  Rh  Rh234  1  0.39877988  0.40287536  0.19058846  1
  Rh  Rh235  1  0.19905055  0.60444054  0.40177926  1
  Rh  Rh236  1  0.79879487  0.20227444  0.40126248  1
  Rh  Rh237  1  0.79917061  0.80304486  0.80984492  1
  Rh  Rh238  1  0.40528556  0.20839002  -0.00038280  1
  Rh  Rh239  1  -0.01177814  0.41204049  0.40341839  1
  Rh  Rh240  1  0.60028753  0.19392815  0.40519960  1
  Rh  Rh241  1  0.20019022  0.80283049  0.19697594  1
  Rh  Rh242  1  0.19441172  0.60475822  0.20443458  1
  Rh  Rh243  1  -0.00875372  0.00624740  0.19627722  1
  Rh  Rh244  1  0.39080134  0.80006269  0.60023388  1
  Rh  Rh245  1  0.19713060  0.41052083  0.00147415  1
  Rh  Rh246  1  0.19556647  0.41112243  0.79012056  1
  Rh  Rh247  1  0.79603789  0.60428044  0.60993459  1
  Rh  Rh248  1  0.19098745  0.78976322  0.41161518  1
  Rh  Rh249  1  0.39774428  0.59977096  0.19773484  1
