# generated using pymatgen
data_ZrScNbPdRh
_symmetry_space_group_name_H-M   'P 1'
_cell_length_a   16.56113445
_cell_length_b   16.56593850
_cell_length_c   16.56097293
_cell_angle_alpha   89.98368200
_cell_angle_beta   89.96799898
_cell_angle_gamma   90.03209042
_symmetry_Int_Tables_number   1
_chemical_formula_structural   ZrScNbPdRh
_chemical_formula_sum   'Zr50 Sc50 Nb50 Pd50 Rh50'
_cell_volume   4543.51348731
_cell_formula_units_Z   50
loop_
 _symmetry_equiv_pos_site_id
 _symmetry_equiv_pos_as_xyz
  1  'x, y, z'
loop_
 _atom_site_type_symbol
 _atom_site_label
 _atom_site_symmetry_multiplicity
 _atom_site_fract_x
 _atom_site_fract_y
 _atom_site_fract_z
 _atom_site_occupancy
  Zr  Zr0  1  0.69632673  0.30721013  0.69751338  1
  Zr  Zr1  1  0.89496641  0.50076426  0.70150003  1
  Zr  Zr2  1  0.09679070  0.49713953  0.89860285  1
  Zr  Zr3  1  0.89916269  0.50424116  0.50636439  1
  Zr  Zr4  1  0.29431478  0.29838976  0.89929208  1
  Zr  Zr5  1  0.69951017  0.70763100  0.30115051  1
  Zr  Zr6  1  0.49950914  0.90420988  0.50590267  1
  Zr  Zr7  1  0.70093549  0.91047381  0.89767779  1
  Zr  Zr8  1  0.29087692  0.49550435  0.70253681  1
  Zr  Zr9  1  0.89492029  0.49930398  0.30747550  1
  Zr  Zr10  1  0.10162812  0.71763398  0.29964652  1
  Zr  Zr11  1  0.09949127  0.71047929  0.50614620  1
  Zr  Zr12  1  0.51331576  0.50156152  0.69742011  1
  Zr  Zr13  1  0.51261944  0.29724207  0.10047053  1
  Zr  Zr14  1  0.89491678  0.10717542  0.09399598  1
  Zr  Zr15  1  0.29926496  0.88759014  0.29912373  1
  Zr  Zr16  1  0.50161242  0.10714658  0.30005722  1
  Zr  Zr17  1  0.90335536  0.69419128  0.68834154  1
  Zr  Zr18  1  0.31648139  0.69820110  0.90266316  1
  Zr  Zr19  1  0.69701968  0.70240372  0.69677377  1
  Zr  Zr20  1  0.69761493  0.11208155  0.09607622  1
  Zr  Zr21  1  0.50320794  0.10297454  0.50115360  1
  Zr  Zr22  1  0.50565138  0.09595899  0.90440860  1
  Zr  Zr23  1  0.70091334  0.90477904  0.50027212  1
  Zr  Zr24  1  0.89475567  0.89211752  0.50386281  1
  Zr  Zr25  1  0.09937427  0.09476667  0.69897175  1
  Zr  Zr26  1  0.90700991  0.49778303  0.10792309  1
  Zr  Zr27  1  0.69447672  0.50017830  0.49600602  1
  Zr  Zr28  1  0.49750552  0.29665427  0.89968887  1
  Zr  Zr29  1  0.50217162  0.69784719  0.70914631  1
  Zr  Zr30  1  0.50099954  0.10842932  0.10214540  1
  Zr  Zr31  1  0.88941620  0.09133194  0.49281149  1
  Zr  Zr32  1  0.09688551  0.30094388  0.89881533  1
  Zr  Zr33  1  0.49865556  0.90267174  0.30319490  1
  Zr  Zr34  1  0.30664955  0.10585008  0.89392804  1
  Zr  Zr35  1  0.09924664  0.50210778  0.09703272  1
  Zr  Zr36  1  0.09523713  0.09148112  0.10712598  1
  Zr  Zr37  1  0.30555221  0.90236947  0.89643809  1
  Zr  Zr38  1  0.89843312  0.09527576  0.89798791  1
  Zr  Zr39  1  0.50502455  0.90769049  0.09170409  1
  Zr  Zr40  1  0.09445930  0.69376600  0.89774434  1
  Zr  Zr41  1  0.08946811  0.70070270  0.09812736  1
  Zr  Zr42  1  0.09421015  0.89045392  0.89358928  1
  Zr  Zr43  1  0.70299283  0.10204488  0.31306916  1
  Zr  Zr44  1  0.49838542  0.89657489  0.70297524  1
  Zr  Zr45  1  0.90783395  0.90624966  0.70862208  1
  Zr  Zr46  1  0.50475695  0.50088770  0.49475909  1
  Zr  Zr47  1  0.89853626  0.31353680  0.49503454  1
  Zr  Zr48  1  0.09279286  0.50764487  0.70630559  1
  Zr  Zr49  1  0.50481093  0.29976267  0.50089907  1
  Sc  Sc50  1  0.49872991  0.49156939  0.09859165  1
  Sc  Sc51  1  0.69793303  0.30378229  0.29709162  1
  Sc  Sc52  1  0.30781448  0.30188520  0.09542790  1
  Sc  Sc53  1  0.50720806  0.29207877  0.69681241  1
  Sc  Sc54  1  0.68954612  0.30343720  0.89566375  1
  Sc  Sc55  1  0.29651126  0.89955276  0.50269036  1
  Sc  Sc56  1  0.10405288  0.29958662  0.70076158  1
  Sc  Sc57  1  0.90345367  0.89881181  0.30612156  1
  Sc  Sc58  1  0.09793117  0.89634541  0.11479552  1
  Sc  Sc59  1  0.69829636  0.90188616  0.69676653  1
  Sc  Sc60  1  0.89560879  0.30756522  0.70026332  1
  Sc  Sc61  1  0.49998462  0.89890421  0.89795380  1
  Sc  Sc62  1  0.90606026  0.09448917  0.70489237  1
  Sc  Sc63  1  0.89482707  0.70150304  0.09783809  1
  Sc  Sc64  1  0.50217802  0.49226987  0.30151527  1
  Sc  Sc65  1  0.70656938  0.49761497  0.70522093  1
  Sc  Sc66  1  0.70071966  0.88522516  0.09148594  1
  Sc  Sc67  1  0.29763655  0.90508783  0.70622343  1
  Sc  Sc68  1  0.29746146  0.28922276  0.69520519  1
  Sc  Sc69  1  0.69700015  0.49830856  0.09363164  1
  Sc  Sc70  1  0.29350059  0.29482627  0.49945477  1
  Sc  Sc71  1  0.51575241  0.69782453  0.50359565  1
  Sc  Sc72  1  0.70184042  0.69312825  0.91204637  1
  Sc  Sc73  1  0.29863656  0.49688045  0.90194801  1
  Sc  Sc74  1  0.30676887  0.10070962  0.30241324  1
  Sc  Sc75  1  0.09564203  0.30754638  0.09096380  1
  Sc  Sc76  1  0.29216942  0.48962367  0.49796253  1
  Sc  Sc77  1  0.30404063  0.10106335  0.50929151  1
  Sc  Sc78  1  0.09958503  0.08527764  0.30084841  1
  Sc  Sc79  1  0.89319891  0.70312110  0.30037112  1
  Sc  Sc80  1  0.69626631  0.30018205  0.49408706  1
  Sc  Sc81  1  0.49327530  0.10254378  0.69482521  1
  Sc  Sc82  1  0.70479143  0.70888257  0.49955697  1
  Sc  Sc83  1  0.90168700  0.09039488  0.29952640  1
  Sc  Sc84  1  0.30529301  0.10496985  0.09948264  1
  Sc  Sc85  1  0.09135273  0.48899413  0.29303502  1
  Sc  Sc86  1  0.49613878  0.29945387  0.29590395  1
  Sc  Sc87  1  0.90268391  0.69705217  0.90958954  1
  Sc  Sc88  1  0.10307746  0.89876627  0.49930322  1
  Sc  Sc89  1  0.09359419  0.11192799  0.89660167  1
  Sc  Sc90  1  0.89536392  0.31414387  0.29529961  1
  Sc  Sc91  1  0.30210377  0.48533586  0.29525083  1
  Sc  Sc92  1  0.11016284  0.09655845  0.49988479  1
  Sc  Sc93  1  0.49700963  0.70232528  0.08104138  1
  Sc  Sc94  1  0.30488969  0.49438111  0.09760263  1
  Sc  Sc95  1  0.30893897  0.89714284  0.10460925  1
  Sc  Sc96  1  0.09550034  0.49250357  0.50574782  1
  Sc  Sc97  1  0.50407856  0.71081954  0.30886188  1
  Sc  Sc98  1  0.50700074  0.50315880  0.90283363  1
  Sc  Sc99  1  0.10693915  0.30147567  0.50060240  1
  Nb  Nb100  1  0.70644262  0.29768648  0.09728127  1
  Nb  Nb101  1  0.10403486  0.70279636  0.70241118  1
  Nb  Nb102  1  0.71031609  0.49167744  0.89914569  1
  Nb  Nb103  1  0.29326010  0.70234491  0.49904781  1
  Nb  Nb104  1  0.69707305  0.89613120  0.29629784  1
  Nb  Nb105  1  0.10225271  0.89324934  0.70411056  1
  Nb  Nb106  1  0.09759405  0.29676252  0.30022511  1
  Nb  Nb107  1  0.89566622  0.89837869  0.90250138  1
  Nb  Nb108  1  0.30100747  0.70257947  0.30030154  1
  Nb  Nb109  1  0.49566635  0.69909811  0.89523891  1
  Nb  Nb110  1  0.30420532  0.09962951  0.69888642  1
  Nb  Nb111  1  0.70294316  0.10522473  0.70030340  1
  Nb  Nb112  1  0.89920409  0.90235173  0.09158472  1
  Nb  Nb113  1  0.30085794  0.69861417  0.69890483  1
  Nb  Nb114  1  0.70069679  0.10136134  0.50213033  1
  Nb  Nb115  1  0.70279439  0.09923669  0.89426084  1
  Nb  Nb116  1  0.10043265  0.90208276  0.29858144  1
  Nb  Nb117  1  0.90510464  0.28713655  0.90490655  1
  Nb  Nb118  1  0.89474775  0.49446422  0.89418645  1
  Nb  Nb119  1  0.69729971  0.50947596  0.30365894  1
  Nb  Nb120  1  0.89213847  0.29381709  0.09608859  1
  Nb  Nb121  1  0.29338186  0.29752260  0.29613579  1
  Nb  Nb122  1  0.29995394  0.70101507  0.10203440  1
  Nb  Nb123  1  0.90470127  0.70411844  0.49856347  1
  Nb  Nb124  1  0.69789744  0.69770656  0.10446130  1
  Nb  Nb125  1  0.79254124  -0.00509371  0.19748618  1
  Nb  Nb126  1  0.60728208  -0.00092589  0.20113537  1
  Nb  Nb127  1  0.40251434  0.40305463  0.60287260  1
  Nb  Nb128  1  0.00058713  0.20501137  0.20279996  1
  Nb  Nb129  1  0.00052665  0.20292150  0.39790660  1
  Nb  Nb130  1  0.39542037  0.78961835  0.60280765  1
  Nb  Nb131  1  -0.00083848  -0.00577689  -0.00187151  1
  Nb  Nb132  1  0.19579552  -0.00473032  -0.00253342  1
  Nb  Nb133  1  0.39344417  0.60007517  0.59602614  1
  Nb  Nb134  1  0.39970304  0.60602457  0.20425405  1
  Nb  Nb135  1  0.20545220  0.60630696  0.20185890  1
  Nb  Nb136  1  0.80370582  0.80227311  0.80322515  1
  Nb  Nb137  1  0.40230090  0.39724262  0.79371886  1
  Nb  Nb138  1  0.20203436  0.60698092  0.00493516  1
  Nb  Nb139  1  0.19470112  0.20456010  0.20439555  1
  Nb  Nb140  1  0.79916710  0.19633701  0.59954591  1
  Nb  Nb141  1  0.20050809  0.60729899  0.59994951  1
  Nb  Nb142  1  0.19897103  0.60354216  0.39680045  1
  Nb  Nb143  1  0.00273974  0.60689663  0.40485991  1
  Nb  Nb144  1  0.20162362  0.79823937  0.00151078  1
  Nb  Nb145  1  0.59939410  0.60641490  0.19833397  1
  Nb  Nb146  1  0.80511712  0.39286030  -0.00217019  1
  Nb  Nb147  1  0.79751907  0.19801621  0.79954085  1
  Nb  Nb148  1  -0.00703055  0.19773438  0.59133275  1
  Nb  Nb149  1  0.39073744  0.60422507  0.40007050  1
  Pd  Pd150  1  0.79134513  0.60086314  0.59334813  1
  Pd  Pd151  1  0.40302503  0.40074140  -0.00775583  1
  Pd  Pd152  1  -0.00938237  0.40100149  -0.00146917  1
  Pd  Pd153  1  0.41386245  0.79306736  0.19355830  1
  Pd  Pd154  1  0.19466648  0.19428581  0.01010396  1
  Pd  Pd155  1  0.59974032  0.00659358  0.60709813  1
  Pd  Pd156  1  0.20833666  -0.00320347  0.39678959  1
  Pd  Pd157  1  0.80606015  0.80664016  0.19660671  1
  Pd  Pd158  1  -0.01033106  0.78802432  0.79796614  1
  Pd  Pd159  1  0.80046932  0.00233783  0.60910242  1
  Pd  Pd160  1  0.79312358  0.59622064  0.19625546  1
  Pd  Pd161  1  0.80327829  0.60745234  0.40659585  1
  Pd  Pd162  1  0.19422160  0.00666613  0.80697460  1
  Pd  Pd163  1  0.00380431  0.60535219  0.21370169  1
  Pd  Pd164  1  0.60066187  0.19556576  0.79939312  1
  Pd  Pd165  1  0.20313930  -0.00547227  0.60464220  1
  Pd  Pd166  1  0.00343271  -0.00084415  0.40791850  1
  Pd  Pd167  1  0.40083721  0.58715266  0.79622800  1
  Pd  Pd168  1  0.39757925  0.39805594  0.40408864  1
  Pd  Pd169  1  0.20783508  0.79306436  0.80485839  1
  Pd  Pd170  1  0.40529923  0.79479901  0.41397525  1
  Pd  Pd171  1  0.59074380  0.79838983  0.19302346  1
  Pd  Pd172  1  -0.01292796  0.80422365  0.20034856  1
  Pd  Pd173  1  0.60657109  0.40636679  0.20104109  1
  Pd  Pd174  1  0.61209059  0.59611908  0.80990063  1
  Pd  Pd175  1  0.59513565  0.00575363  0.79097517  1
  Pd  Pd176  1  0.60034856  0.79747951  -0.01017597  1
  Pd  Pd177  1  0.60150614  -0.00179392  0.39729803  1
  Pd  Pd178  1  0.80608077  0.59033912  0.00692135  1
  Pd  Pd179  1  0.19873879  0.19760716  0.79404669  1
  Pd  Pd180  1  0.79154820  0.40736836  0.19395903  1
  Pd  Pd181  1  0.61034842  0.79678543  0.81028848  1
  Pd  Pd182  1  0.19547301  0.19244262  0.39415623  1
  Pd  Pd183  1  0.19995900  0.39639951  0.19172735  1
  Pd  Pd184  1  0.19279270  0.40435051  0.39619292  1
  Pd  Pd185  1  0.80046583  0.61168753  0.80250631  1
  Pd  Pd186  1  0.40317215  0.00261549  0.20075332  1
  Pd  Pd187  1  0.00169262  0.80749903  0.60490096  1
  Pd  Pd188  1  0.59827010  0.59622009  0.00214465  1
  Pd  Pd189  1  -0.00387611  0.39448087  0.79692249  1
  Pd  Pd190  1  0.21344056  0.00187739  0.19727484  1
  Pd  Pd191  1  0.80557703  0.19565511  0.21330628  1
  Pd  Pd192  1  0.80766803  0.20927083  0.39874604  1
  Pd  Pd193  1  0.00445595  0.00084464  0.59199571  1
  Pd  Pd194  1  0.39404866  0.00348671  0.00013528  1
  Pd  Pd195  1  0.39265082  0.00085305  0.40450486  1
  Pd  Pd196  1  0.39806448  0.20509907  0.40349402  1
  Pd  Pd197  1  0.00469647  0.39310624  0.60674717  1
  Pd  Pd198  1  0.20471449  0.60482375  0.80539630  1
  Pd  Pd199  1  0.79595875  -0.00007790  0.00664932  1
  Rh  Rh200  1  0.20188692  0.40183594  0.60323170  1
  Rh  Rh201  1  0.59446199  0.40478935  0.80362300  1
  Rh  Rh202  1  0.40396927  0.20109677  0.00094304  1
  Rh  Rh203  1  0.60675234  0.19882616  0.20597272  1
  Rh  Rh204  1  -0.00952977  0.20653360  0.78628623  1
  Rh  Rh205  1  0.39909942  0.80125520  0.79540398  1
  Rh  Rh206  1  0.20111098  0.80110226  0.19465604  1
  Rh  Rh207  1  0.39968292  0.59465838  0.00617790  1
  Rh  Rh208  1  0.60190907  0.39608259  0.39188091  1
  Rh  Rh209  1  0.00191087  0.80740112  0.00425227  1
  Rh  Rh210  1  0.40184697  0.20349115  0.79645848  1
  Rh  Rh211  1  0.00413175  0.40271890  0.40039333  1
  Rh  Rh212  1  0.80522260  0.38638841  0.81107276  1
  Rh  Rh213  1  0.60007385  0.40202784  0.59709924  1
  Rh  Rh214  1  0.78967848  0.40541047  0.39839503  1
  Rh  Rh215  1  -0.01074156  0.60239117  0.80164901  1
  Rh  Rh216  1  0.79919714  0.80247649  0.39968975  1
  Rh  Rh217  1  0.40535198  0.00595502  0.79717650  1
  Rh  Rh218  1  0.78728880  0.20842150  -0.01616858  1
  Rh  Rh219  1  0.19333612  0.19340737  0.60263229  1
  Rh  Rh220  1  -0.01500164  -0.00024939  0.19381008  1
  Rh  Rh221  1  0.00964521  0.60198086  0.59451772  1
  Rh  Rh222  1  0.79769107  -0.00086648  0.79465768  1
  Rh  Rh223  1  -0.00100378  0.80168929  0.39976817  1
  Rh  Rh224  1  0.39591536  -0.00723833  0.60404307  1
  Rh  Rh225  1  0.60342891  0.20158381  -0.00688866  1
  Rh  Rh226  1  0.60820935  0.00471020  0.00599938  1
  Rh  Rh227  1  0.39983059  0.80635498  -0.00151692  1
  Rh  Rh228  1  0.59439654  0.80191709  0.59853919  1
  Rh  Rh229  1  -0.00282610  0.39055237  0.19491532  1
  Rh  Rh230  1  0.60750341  0.19608185  0.59628005  1
  Rh  Rh231  1  0.20353147  0.80225716  0.61063215  1
  Rh  Rh232  1  0.19806642  0.80639534  0.39907674  1
  Rh  Rh233  1  0.80257612  0.80287798  0.60945833  1
  Rh  Rh234  1  0.79156914  0.39860103  0.59407046  1
  Rh  Rh235  1  0.60255680  0.80800133  0.40725603  1
  Rh  Rh236  1  0.60760119  0.39902471  -0.00123742  1
  Rh  Rh237  1  0.79754053  0.79664347  -0.00479782  1
  Rh  Rh238  1  0.59897664  0.20385860  0.40006290  1
  Rh  Rh239  1  0.39197399  0.20801280  0.20005356  1
  Rh  Rh240  1  0.59425118  0.60207941  0.38770009  1
  Rh  Rh241  1  -0.00371635  0.58989098  -0.00489521  1
  Rh  Rh242  1  0.40157775  0.39706258  0.20027096  1
  Rh  Rh243  1  0.00774683  0.19369945  0.00989109  1
  Rh  Rh244  1  0.39869028  0.20593465  0.59693961  1
  Rh  Rh245  1  0.79421413  -0.01177355  0.39276944  1
  Rh  Rh246  1  0.60696072  0.60122912  0.60056690  1
  Rh  Rh247  1  0.20112581  0.40674651  -0.00065940  1
  Rh  Rh248  1  0.00839439  -0.00057517  0.80857117  1
  Rh  Rh249  1  0.20307853  0.39249099  0.80015063  1
