# generated using pymatgen
data_ZrScNbPdRh
_symmetry_space_group_name_H-M   'P 1'
_cell_length_a   16.56823794
_cell_length_b   16.56656471
_cell_length_c   16.57417765
_cell_angle_alpha   89.98530247
_cell_angle_beta   89.97322246
_cell_angle_gamma   89.99708873
_symmetry_Int_Tables_number   1
_chemical_formula_structural   ZrScNbPdRh
_chemical_formula_sum   'Zr50 Sc50 Nb50 Pd50 Rh50'
_cell_volume   4549.25950684
_cell_formula_units_Z   50
loop_
 _symmetry_equiv_pos_site_id
 _symmetry_equiv_pos_as_xyz
  1  'x, y, z'
loop_
 _atom_site_type_symbol
 _atom_site_label
 _atom_site_symmetry_multiplicity
 _atom_site_fract_x
 _atom_site_fract_y
 _atom_site_fract_z
 _atom_site_occupancy
  Zr  Zr0  1  0.70282563  0.49771948  0.70258976  1
  Zr  Zr1  1  0.70312602  0.09608429  0.29815874  1
  Zr  Zr2  1  0.09156901  0.29789703  0.89831384  1
  Zr  Zr3  1  0.09630353  0.90219537  0.29713724  1
  Zr  Zr4  1  0.69798930  0.10790321  0.90198431  1
  Zr  Zr5  1  0.09167774  0.30240473  0.10454152  1
  Zr  Zr6  1  0.70593070  0.09352951  0.49986629  1
  Zr  Zr7  1  0.69742757  0.49850960  0.29925660  1
  Zr  Zr8  1  0.89389609  0.49611615  0.90506008  1
  Zr  Zr9  1  0.90361043  0.90738453  0.70773329  1
  Zr  Zr10  1  0.29798659  0.09657830  0.90224795  1
  Zr  Zr11  1  0.49798085  0.49535524  0.48964155  1
  Zr  Zr12  1  0.09384632  0.09748668  0.69612562  1
  Zr  Zr13  1  0.10909993  0.30145111  0.49907614  1
  Zr  Zr14  1  0.49752149  0.69412014  0.30454214  1
  Zr  Zr15  1  0.09851450  0.49916353  0.89994677  1
  Zr  Zr16  1  0.29793378  0.10025498  0.10010404  1
  Zr  Zr17  1  0.09794453  0.88988122  0.09639439  1
  Zr  Zr18  1  0.49604816  0.89889183  0.11015640  1
  Zr  Zr19  1  0.09289584  0.49759190  0.49711295  1
  Zr  Zr20  1  0.50115513  0.50151805  0.09938776  1
  Zr  Zr21  1  0.69605359  0.71250001  0.50056659  1
  Zr  Zr22  1  0.69840730  0.90127958  0.69520501  1
  Zr  Zr23  1  0.50991544  0.30239291  0.89925237  1
  Zr  Zr24  1  0.09762585  0.10013496  0.30373637  1
  Zr  Zr25  1  0.89749305  0.89771999  0.49945241  1
  Zr  Zr26  1  0.89588998  0.09651717  0.89646293  1
  Zr  Zr27  1  0.70279219  0.89705512  0.10480634  1
  Zr  Zr28  1  0.10103868  0.90064753  0.50220426  1
  Zr  Zr29  1  0.90053418  0.70820729  0.09612329  1
  Zr  Zr30  1  0.90078330  0.10605683  0.69844123  1
  Zr  Zr31  1  0.28898817  0.10819946  0.49755020  1
  Zr  Zr32  1  0.30334696  0.49644603  0.69838392  1
  Zr  Zr33  1  0.30435046  0.30716106  0.49666130  1
  Zr  Zr34  1  0.50021806  0.50107343  0.71160710  1
  Zr  Zr35  1  0.89549851  0.30813253  0.09692228  1
  Zr  Zr36  1  0.70087727  0.09262915  0.70283337  1
  Zr  Zr37  1  0.30256449  0.29752524  0.30646731  1
  Zr  Zr38  1  0.28375967  0.90352942  0.90326309  1
  Zr  Zr39  1  0.69773429  0.49499067  0.49756307  1
  Zr  Zr40  1  0.70224289  0.30032634  0.49110782  1
  Zr  Zr41  1  0.89984720  0.49858420  0.68642732  1
  Zr  Zr42  1  0.30736664  0.29964737  0.10245921  1
  Zr  Zr43  1  0.69650738  0.70606788  0.70787860  1
  Zr  Zr44  1  0.10544999  0.50647010  0.30302098  1
  Zr  Zr45  1  0.50713323  0.90302175  0.69648389  1
  Zr  Zr46  1  0.90656389  0.69210741  0.50423954  1
  Zr  Zr47  1  0.29717732  0.89391482  0.49632178  1
  Zr  Zr48  1  0.29612530  0.89452342  0.70718936  1
  Zr  Zr49  1  0.09469608  0.29224737  0.69214880  1
  Sc  Sc50  1  0.10654194  0.70286900  0.29895218  1
  Sc  Sc51  1  0.50573957  0.70225760  0.71197889  1
  Sc  Sc52  1  0.69718661  0.90051571  0.30124758  1
  Sc  Sc53  1  0.29439893  0.69869929  0.29882741  1
  Sc  Sc54  1  0.70127739  0.29729011  0.09389768  1
  Sc  Sc55  1  0.49978519  0.30060758  0.09647614  1
  Sc  Sc56  1  0.29872961  0.70981250  0.90034989  1
  Sc  Sc57  1  0.69810865  0.50674876  0.90409280  1
  Sc  Sc58  1  0.70524644  0.70122418  0.09776892  1
  Sc  Sc59  1  0.09666352  0.09696482  0.11229246  1
  Sc  Sc60  1  0.50472370  0.30622640  0.70581057  1
  Sc  Sc61  1  0.91025533  0.49303147  0.30409596  1
  Sc  Sc62  1  0.09579979  0.10540157  0.50647929  1
  Sc  Sc63  1  0.10394806  0.49323312  0.69427824  1
  Sc  Sc64  1  0.29466357  0.10537890  0.70751011  1
  Sc  Sc65  1  0.69437168  0.70226582  0.30235122  1
  Sc  Sc66  1  0.89738105  0.49761809  0.09388573  1
  Sc  Sc67  1  0.89469033  0.09769030  0.29967416  1
  Sc  Sc68  1  0.50397977  0.50073424  0.29784279  1
  Sc  Sc69  1  0.70108802  0.30387004  0.70611180  1
  Sc  Sc70  1  0.08990852  0.49881738  0.09754808  1
  Sc  Sc71  1  0.29938424  0.09783960  0.29829424  1
  Sc  Sc72  1  0.90769410  0.71078978  0.30690966  1
  Sc  Sc73  1  0.89833083  0.30367813  0.29511528  1
  Sc  Sc74  1  0.09857797  0.09329635  0.89343050  1
  Sc  Sc75  1  0.30955334  0.29574916  0.89346645  1
  Sc  Sc76  1  0.89139635  0.70085255  0.90566509  1
  Sc  Sc77  1  0.10523108  0.69629583  0.49299885  1
  Sc  Sc78  1  0.30531840  0.49742673  0.88795299  1
  Sc  Sc79  1  0.29942809  0.70224041  0.48512700  1
  Sc  Sc80  1  0.50688883  0.89807418  0.49251484  1
  Sc  Sc81  1  0.50350945  0.08713174  0.49136044  1
  Sc  Sc82  1  0.70721343  0.30596909  0.29695131  1
  Sc  Sc83  1  0.50392921  0.10472036  0.89859467  1
  Sc  Sc84  1  0.30589665  0.50843070  0.30215921  1
  Sc  Sc85  1  0.29905268  0.89983957  0.09926269  1
  Sc  Sc86  1  0.89398306  0.09971009  0.50630694  1
  Sc  Sc87  1  0.70158925  0.49607362  0.09945451  1
  Sc  Sc88  1  0.50974270  0.09455282  0.70665262  1
  Sc  Sc89  1  0.29608902  0.71058475  0.10698080  1
  Sc  Sc90  1  0.70239378  0.30108298  0.89746938  1
  Sc  Sc91  1  0.29265969  0.70506558  0.70644431  1
  Sc  Sc92  1  0.29917081  0.30494641  0.69738215  1
  Sc  Sc93  1  0.49614940  0.09525556  0.10297611  1
  Sc  Sc94  1  0.09741663  0.70782251  0.90277051  1
  Sc  Sc95  1  0.71233465  0.89901620  0.89141366  1
  Sc  Sc96  1  0.48784904  0.90356072  0.89726590  1
  Sc  Sc97  1  0.89434663  0.69300267  0.69655588  1
  Sc  Sc98  1  0.09608751  0.30856096  0.30158483  1
  Sc  Sc99  1  0.90030480  0.90000584  0.09573474  1
  Nb  Nb100  1  0.70289869  0.09759568  0.09737075  1
  Nb  Nb101  1  0.50005617  0.70131327  0.09605238  1
  Nb  Nb102  1  0.30256520  0.89553196  0.30090326  1
  Nb  Nb103  1  0.30108755  0.50136736  0.09922037  1
  Nb  Nb104  1  0.10297433  0.69948473  0.10473612  1
  Nb  Nb105  1  0.50007370  0.29867779  0.49154890  1
  Nb  Nb106  1  0.89971348  0.29819076  0.70456621  1
  Nb  Nb107  1  0.91306261  0.89998942  0.90262516  1
  Nb  Nb108  1  0.90882741  0.89882010  0.29991777  1
  Nb  Nb109  1  0.10129699  0.89265202  0.70381729  1
  Nb  Nb110  1  0.50273657  0.50835145  0.90113394  1
  Nb  Nb111  1  0.89425419  0.29639865  0.89460223  1
  Nb  Nb112  1  0.51070484  0.68893245  0.90556858  1
  Nb  Nb113  1  0.90547475  0.50219205  0.50071099  1
  Nb  Nb114  1  0.88759337  0.10640381  0.09429259  1
  Nb  Nb115  1  0.50229939  0.69576345  0.50073879  1
  Nb  Nb116  1  0.69426825  0.69978418  0.90512903  1
  Nb  Nb117  1  0.29850689  0.49775591  0.50044555  1
  Nb  Nb118  1  0.49796662  0.29355440  0.30508726  1
  Nb  Nb119  1  0.49694307  0.91734625  0.29534087  1
  Nb  Nb120  1  0.90192105  0.30250741  0.50252082  1
  Nb  Nb121  1  0.50698427  0.08892987  0.29771968  1
  Nb  Nb122  1  0.10290742  0.70052935  0.69680549  1
  Nb  Nb123  1  0.69677683  0.90065348  0.50764138  1
  Nb  Nb124  1  0.08798798  0.89998145  0.89521881  1
  Nb  Nb125  1  0.80375804  0.59825408  0.40176737  1
  Nb  Nb126  1  0.40294820  0.79709156  0.59773420  1
  Nb  Nb127  1  0.80793531  0.60144045  0.20708478  1
  Nb  Nb128  1  0.40098610  0.60402962  0.59674353  1
  Nb  Nb129  1  0.19482562  0.20389324  0.00308543  1
  Nb  Nb130  1  -0.00211633  0.60631146  0.19816037  1
  Nb  Nb131  1  0.59859051  0.19841204  0.39560511  1
  Nb  Nb132  1  -0.00519576  0.20433103  0.40348417  1
  Nb  Nb133  1  0.59649951  0.79940867  -0.00146076  1
  Nb  Nb134  1  0.00581997  0.79911717  0.60560769  1
  Nb  Nb135  1  -0.00674871  0.19731312  0.00217269  1
  Nb  Nb136  1  0.60460124  -0.00562829  0.00442194  1
  Nb  Nb137  1  0.59515606  0.60087388  0.59886456  1
  Nb  Nb138  1  0.20714959  0.59776499  0.59763408  1
  Nb  Nb139  1  0.59939186  0.19378863  0.20522765  1
  Nb  Nb140  1  0.20626678  0.40544011  0.19361126  1
  Nb  Nb141  1  0.20134546  -0.00645349  0.60483172  1
  Nb  Nb142  1  0.20532563  0.59534362  0.00518275  1
  Nb  Nb143  1  0.39330856  -0.00136529  0.59906196  1
  Nb  Nb144  1  0.00037856  0.59498497  0.79732464  1
  Nb  Nb145  1  0.20403316  0.39878157  0.00290204  1
  Nb  Nb146  1  0.59629290  0.20191912  0.59072642  1
  Nb  Nb147  1  0.40113163  0.60207219  0.00052340  1
  Nb  Nb148  1  -0.00808310  0.39879915  0.79640076  1
  Nb  Nb149  1  0.40885853  0.19799896  0.59412587  1
  Pd  Pd150  1  0.39819744  0.00493504  0.79450309  1
  Pd  Pd151  1  -0.01111967  0.00144313  0.19341382  1
  Pd  Pd152  1  0.80218179  0.60004494  0.80384735  1
  Pd  Pd153  1  0.39840329  0.40700446  -0.00875013  1
  Pd  Pd154  1  0.80081225  -0.00989940  0.39781578  1
  Pd  Pd155  1  -0.01017124  0.19584064  0.20336477  1
  Pd  Pd156  1  0.60494049  0.40292785  -0.00284652  1
  Pd  Pd157  1  0.60927677  0.60554683  0.19401316  1
  Pd  Pd158  1  0.00323181  0.00826068  0.00758494  1
  Pd  Pd159  1  0.39344243  0.00210554  0.40248471  1
  Pd  Pd160  1  0.79233016  0.20757636  0.60445398  1
  Pd  Pd161  1  0.40166357  0.19636963  -0.00270192  1
  Pd  Pd162  1  0.20382177  -0.00818086  0.20040795  1
  Pd  Pd163  1  0.39776714  0.60625580  0.19399030  1
  Pd  Pd164  1  0.59612433  0.79584784  0.20087123  1
  Pd  Pd165  1  0.40341474  0.79605534  -0.00319025  1
  Pd  Pd166  1  0.59588192  0.80925117  0.81321337  1
  Pd  Pd167  1  0.59268045  0.80714213  0.39224707  1
  Pd  Pd168  1  0.19840925  -0.00018075  0.40280289  1
  Pd  Pd169  1  0.40786926  0.80108102  0.39648522  1
  Pd  Pd170  1  0.80832753  0.79842232  0.80302496  1
  Pd  Pd171  1  0.80781065  -0.00704954  0.20151154  1
  Pd  Pd172  1  0.40715505  0.19985628  0.79019590  1
  Pd  Pd173  1  0.40781756  0.19305340  0.20363945  1
  Pd  Pd174  1  0.79511790  0.20425958  0.19963119  1
  Pd  Pd175  1  0.40109465  0.40155543  0.20767128  1
  Pd  Pd176  1  0.18634392  0.00583981  0.00446153  1
  Pd  Pd177  1  0.39558829  0.61082675  0.80219774  1
  Pd  Pd178  1  -0.00637765  0.78595009  0.79557027  1
  Pd  Pd179  1  0.80824137  0.80275147  0.60551871  1
  Pd  Pd180  1  0.80499568  0.79790705  0.20983055  1
  Pd  Pd181  1  0.40913614  0.39783944  0.60004839  1
  Pd  Pd182  1  0.40006824  0.79696279  0.20919790  1
  Pd  Pd183  1  0.59448664  0.39873198  0.60042186  1
  Pd  Pd184  1  0.40495651  0.79598735  0.80099005  1
  Pd  Pd185  1  0.40656899  0.18684149  0.40244346  1
  Pd  Pd186  1  0.59697534  0.38834179  0.20061951  1
  Pd  Pd187  1  0.00766858  0.79720411  0.40663046  1
  Pd  Pd188  1  0.19549773  0.60424922  0.80160517  1
  Pd  Pd189  1  0.40526429  0.00040352  0.00130408  1
  Pd  Pd190  1  0.00445056  0.60766082  -0.00000277  1
  Pd  Pd191  1  0.78611656  0.60247201  0.59170398  1
  Pd  Pd192  1  -0.00509628  0.01030418  0.40645244  1
  Pd  Pd193  1  0.19805229  0.20834161  0.20238085  1
  Pd  Pd194  1  0.79885077  0.79989733  0.39645711  1
  Pd  Pd195  1  0.19497952  0.39245980  0.80236575  1
  Pd  Pd196  1  0.19873054  0.20292891  0.80427157  1
  Pd  Pd197  1  0.80847316  0.40614703  0.39915576  1
  Pd  Pd198  1  0.79685132  -0.00738866  -0.00425102  1
  Pd  Pd199  1  0.80080808  0.39229655  0.59852688  1
  Rh  Rh200  1  0.60287555  -0.00371169  0.81619021  1
  Rh  Rh201  1  0.01343016  0.60492880  0.60517187  1
  Rh  Rh202  1  0.19122347  0.80085785  0.81004466  1
  Rh  Rh203  1  0.60379515  0.40648808  0.80952575  1
  Rh  Rh204  1  0.39866448  0.59917863  0.40216320  1
  Rh  Rh205  1  0.20389686  0.59605190  0.40720978  1
  Rh  Rh206  1  0.80502242  0.20387715  0.39930825  1
  Rh  Rh207  1  0.39968063  0.40535455  0.39180507  1
  Rh  Rh208  1  0.60887841  0.59595226  0.79601387  1
  Rh  Rh209  1  0.61015042  -0.00413554  0.40160928  1
  Rh  Rh210  1  0.59569852  0.18991773  0.01258586  1
  Rh  Rh211  1  -0.00442990  0.60311824  0.39110587  1
  Rh  Rh212  1  0.00183763  0.00257124  0.79781105  1
  Rh  Rh213  1  0.60019497  0.60256535  0.01006320  1
  Rh  Rh214  1  0.19262080  -0.00337080  0.79514335  1
  Rh  Rh215  1  0.79545022  0.19771475  0.79625912  1
  Rh  Rh216  1  0.80255364  0.00054251  0.80167189  1
  Rh  Rh217  1  0.00152816  0.79827853  -0.00109765  1
  Rh  Rh218  1  0.19251371  0.59462557  0.19191287  1
  Rh  Rh219  1  0.00131820  0.79750849  0.19873883  1
  Rh  Rh220  1  0.59714083  0.39264633  0.38905484  1
  Rh  Rh221  1  -0.00673209  0.20515037  0.59116099  1
  Rh  Rh222  1  0.59596521  0.00488193  0.59371616  1
  Rh  Rh223  1  0.80337133  0.40303509  0.80120786  1
  Rh  Rh224  1  -0.00253602  0.39118087  0.40562630  1
  Rh  Rh225  1  0.40730697  0.39577525  0.80621372  1
  Rh  Rh226  1  0.80217586  0.20535899  -0.00230614  1
  Rh  Rh227  1  0.59237197  0.79488792  0.60101853  1
  Rh  Rh228  1  0.00489326  0.41131173  0.20330710  1
  Rh  Rh229  1  -0.00207514  0.39280101  0.60062455  1
  Rh  Rh230  1  0.60858412  0.60082907  0.40589941  1
  Rh  Rh231  1  0.20016462  0.79503734  0.59728340  1
  Rh  Rh232  1  0.79626230  0.80469934  -0.00661317  1
  Rh  Rh233  1  0.80312829  -0.00739356  0.60237949  1
  Rh  Rh234  1  0.80198344  0.40959299  0.19657999  1
  Rh  Rh235  1  0.60400440  0.20181200  0.79095892  1
  Rh  Rh236  1  0.79457382  0.60100514  0.00826664  1
  Rh  Rh237  1  0.60519789  0.00372282  0.19211493  1
  Rh  Rh238  1  0.19476177  0.79713105  -0.00105279  1
  Rh  Rh239  1  0.00304174  -0.00869285  0.60093352  1
  Rh  Rh240  1  -0.00425447  0.39120867  -0.00835575  1
  Rh  Rh241  1  0.20699517  0.40548330  0.39190718  1
  Rh  Rh242  1  0.20071133  0.40371064  0.59757330  1
  Rh  Rh243  1  0.21047189  0.19844466  0.60639125  1
  Rh  Rh244  1  0.38870757  0.00124779  0.20212173  1
  Rh  Rh245  1  -0.00439124  0.20062548  0.80439025  1
  Rh  Rh246  1  0.18886584  0.20274970  0.39103499  1
  Rh  Rh247  1  0.79251314  0.39680210  -0.00407163  1
  Rh  Rh248  1  0.20124266  0.80721999  0.20386467  1
  Rh  Rh249  1  0.19592345  0.80433251  0.38898563  1
