# generated using pymatgen
data_ZrScNbPdRh
_symmetry_space_group_name_H-M   'P 1'
_cell_length_a   16.55942179
_cell_length_b   16.55335622
_cell_length_c   16.55620357
_cell_angle_alpha   89.99634664
_cell_angle_beta   89.98371367
_cell_angle_gamma   89.99568551
_symmetry_Int_Tables_number   1
_chemical_formula_structural   ZrScNbPdRh
_chemical_formula_sum   'Zr50 Sc50 Nb50 Pd50 Rh50'
_cell_volume   4538.28710561
_cell_formula_units_Z   50
loop_
 _symmetry_equiv_pos_site_id
 _symmetry_equiv_pos_as_xyz
  1  'x, y, z'
loop_
 _atom_site_type_symbol
 _atom_site_label
 _atom_site_symmetry_multiplicity
 _atom_site_fract_x
 _atom_site_fract_y
 _atom_site_fract_z
 _atom_site_occupancy
  Zr  Zr0  1  0.68705228  0.69646332  0.70404242  1
  Zr  Zr1  1  0.50011687  0.29849805  0.90079660  1
  Zr  Zr2  1  0.70554670  0.90327946  0.89537542  1
  Zr  Zr3  1  0.50884677  0.10773319  0.89126442  1
  Zr  Zr4  1  0.50268261  0.30580834  0.09512723  1
  Zr  Zr5  1  0.90408351  0.10228860  0.10022535  1
  Zr  Zr6  1  0.30661408  0.29711024  0.69465874  1
  Zr  Zr7  1  0.50182028  0.28905764  0.69467706  1
  Zr  Zr8  1  0.30518681  0.29501628  0.29750370  1
  Zr  Zr9  1  0.89604157  0.31620732  0.50989504  1
  Zr  Zr10  1  0.50194760  0.90309779  0.30471238  1
  Zr  Zr11  1  0.09347511  0.10626074  0.49114619  1
  Zr  Zr12  1  0.89599850  0.89940712  0.09127759  1
  Zr  Zr13  1  0.29810654  0.69353859  0.89296858  1
  Zr  Zr14  1  0.90070021  0.29730997  0.89988550  1
  Zr  Zr15  1  0.10187841  0.30194660  0.09282695  1
  Zr  Zr16  1  0.89144688  0.48606436  0.69876042  1
  Zr  Zr17  1  0.31446284  0.30181987  0.50199083  1
  Zr  Zr18  1  0.88921334  0.49820457  0.89680649  1
  Zr  Zr19  1  0.89604307  0.31553341  0.29733913  1
  Zr  Zr20  1  0.68693789  0.10294572  0.30453807  1
  Zr  Zr21  1  0.10307580  0.69901624  0.70014772  1
  Zr  Zr22  1  0.70816136  0.89280170  0.30259661  1
  Zr  Zr23  1  0.49838471  0.69873569  0.89174484  1
  Zr  Zr24  1  0.69448214  0.09298310  0.70348807  1
  Zr  Zr25  1  0.10129799  0.10897248  0.90519599  1
  Zr  Zr26  1  0.69404424  0.50123315  0.10374177  1
  Zr  Zr27  1  0.30691461  0.49097729  0.29047794  1
  Zr  Zr28  1  0.89400139  0.89928583  0.30170180  1
  Zr  Zr29  1  0.49565948  0.08626717  0.10631881  1
  Zr  Zr30  1  0.30116406  0.90947625  0.70373307  1
  Zr  Zr31  1  0.90156355  0.30681581  0.09805488  1
  Zr  Zr32  1  0.10406389  0.30391657  0.50377674  1
  Zr  Zr33  1  0.50461964  0.70415364  0.09742675  1
  Zr  Zr34  1  0.09444997  0.49865597  0.49889550  1
  Zr  Zr35  1  0.30197942  0.30545460  0.10362583  1
  Zr  Zr36  1  0.89814774  0.69762342  0.70788616  1
  Zr  Zr37  1  0.69842046  0.90430374  0.50064357  1
  Zr  Zr38  1  0.09915372  0.90219716  0.69998539  1
  Zr  Zr39  1  0.88890510  0.90526864  0.49782753  1
  Zr  Zr40  1  0.29611561  0.71581129  0.48849799  1
  Zr  Zr41  1  0.09873032  0.10524877  0.10135569  1
  Zr  Zr42  1  0.09754194  0.69917402  0.49895353  1
  Zr  Zr43  1  0.50276559  0.29812079  0.30535949  1
  Zr  Zr44  1  0.09811823  0.69620438  0.09247985  1
  Zr  Zr45  1  0.69668669  0.09641069  0.09415077  1
  Zr  Zr46  1  0.90245695  0.89846645  0.71395634  1
  Zr  Zr47  1  0.69868781  0.70321759  0.11234988  1
  Zr  Zr48  1  0.50616040  0.89463261  0.69773396  1
  Zr  Zr49  1  0.31211152  0.10316866  0.70033443  1
  Sc  Sc50  1  0.29994977  0.88264821  0.31082600  1
  Sc  Sc51  1  0.70361636  0.29815341  0.68218662  1
  Sc  Sc52  1  0.11000910  0.89509472  0.50175744  1
  Sc  Sc53  1  0.09757335  0.91050583  0.89199829  1
  Sc  Sc54  1  0.69880327  0.10094289  0.89980096  1
  Sc  Sc55  1  0.31018275  0.90580635  0.09279692  1
  Sc  Sc56  1  0.69455595  0.30383710  0.10045276  1
  Sc  Sc57  1  0.49788025  0.69962463  0.70108247  1
  Sc  Sc58  1  0.90570534  0.70339855  0.10255362  1
  Sc  Sc59  1  0.30232246  0.49181473  0.50799719  1
  Sc  Sc60  1  0.49958646  0.49666663  0.10278154  1
  Sc  Sc61  1  0.49783653  0.89316038  0.90017238  1
  Sc  Sc62  1  0.49524643  0.09992851  0.29846141  1
  Sc  Sc63  1  0.30585485  0.70482703  0.10728905  1
  Sc  Sc64  1  0.50488565  0.49936120  0.29772032  1
  Sc  Sc65  1  0.08339065  0.50312466  0.29783103  1
  Sc  Sc66  1  0.09362780  0.70262270  0.29534075  1
  Sc  Sc67  1  0.69588428  0.50167767  0.89782799  1
  Sc  Sc68  1  0.89710875  0.70088467  0.49998536  1
  Sc  Sc69  1  0.11190591  0.29600736  0.70397906  1
  Sc  Sc70  1  0.09836541  0.89973029  0.29705702  1
  Sc  Sc71  1  0.70193430  0.09453675  0.50389289  1
  Sc  Sc72  1  0.09855361  0.49985499  0.09923496  1
  Sc  Sc73  1  0.30221824  0.50288485  0.70067644  1
  Sc  Sc74  1  0.29467135  0.30135513  0.90675754  1
  Sc  Sc75  1  0.50470431  0.50093154  0.90705077  1
  Sc  Sc76  1  0.30793647  0.10279073  0.50459183  1
  Sc  Sc77  1  0.89199117  0.10436085  0.70420980  1
  Sc  Sc78  1  0.10820152  0.09741911  0.70873338  1
  Sc  Sc79  1  0.90579345  0.70617761  0.90746646  1
  Sc  Sc80  1  0.69701862  0.89735970  0.09683032  1
  Sc  Sc81  1  0.69268527  0.69092375  0.89804739  1
  Sc  Sc82  1  0.68053899  0.49946949  0.49816224  1
  Sc  Sc83  1  0.30757487  0.90559458  0.50354466  1
  Sc  Sc84  1  0.49718397  0.50797119  0.68862921  1
  Sc  Sc85  1  0.89365221  0.09689248  0.49566383  1
  Sc  Sc86  1  0.69300819  0.29304544  0.90791798  1
  Sc  Sc87  1  0.09446832  0.89853797  0.09885621  1
  Sc  Sc88  1  0.30318296  0.69834990  0.70492778  1
  Sc  Sc89  1  0.89950521  0.09865859  0.90048309  1
  Sc  Sc90  1  0.30171641  0.50102792  0.90108313  1
  Sc  Sc91  1  0.69109790  0.69650154  0.50091519  1
  Sc  Sc92  1  0.91661468  0.10535676  0.30361397  1
  Sc  Sc93  1  0.50357247  0.69534970  0.50632314  1
  Sc  Sc94  1  0.49718958  0.69981545  0.29214439  1
  Sc  Sc95  1  0.30020497  0.49232333  0.09759255  1
  Sc  Sc96  1  0.50002648  0.09852735  0.70104480  1
  Sc  Sc97  1  0.11377117  0.50415732  0.90904171  1
  Sc  Sc98  1  0.29767370  0.08937498  0.90100786  1
  Sc  Sc99  1  0.11289699  0.49381745  0.69501252  1
  Nb  Nb100  1  0.10631987  0.69133231  0.90453314  1
  Nb  Nb101  1  0.69936811  0.50397016  0.70626103  1
  Nb  Nb102  1  0.50354413  0.89372126  0.10278412  1
  Nb  Nb103  1  0.50859059  0.31116350  0.50247350  1
  Nb  Nb104  1  0.70750819  0.50288114  0.29431431  1
  Nb  Nb105  1  0.90119031  0.89924021  0.90329809  1
  Nb  Nb106  1  0.70053005  0.89703416  0.69822700  1
  Nb  Nb107  1  0.89521897  0.50696306  0.29805919  1
  Nb  Nb108  1  0.89314587  0.69875475  0.30081654  1
  Nb  Nb109  1  0.30053992  0.10834444  0.29100687  1
  Nb  Nb110  1  0.89434723  0.50123257  0.11324594  1
  Nb  Nb111  1  0.29783567  0.89395267  0.89647919  1
  Nb  Nb112  1  0.70350014  0.69936545  0.30369066  1
  Nb  Nb113  1  0.29968010  0.69433248  0.30036235  1
  Nb  Nb114  1  0.69761346  0.30262993  0.30234056  1
  Nb  Nb115  1  0.10337749  0.29166313  0.29792877  1
  Nb  Nb116  1  0.49809184  0.89782640  0.49626899  1
  Nb  Nb117  1  0.49476597  0.49805292  0.49610646  1
  Nb  Nb118  1  0.90397052  0.30256211  0.69885876  1
  Nb  Nb119  1  0.09820436  0.30007957  0.90451167  1
  Nb  Nb120  1  0.90432158  0.50224147  0.49577701  1
  Nb  Nb121  1  0.30415284  0.10135058  0.10169825  1
  Nb  Nb122  1  0.50217487  0.08819983  0.49253110  1
  Nb  Nb123  1  0.10458030  0.11062701  0.29935377  1
  Nb  Nb124  1  0.68843745  0.29760142  0.49176202  1
  Nb  Nb125  1  0.00339318  0.59251926  0.79944493  1
  Nb  Nb126  1  0.79967075  0.59467144  0.39783246  1
  Nb  Nb127  1  0.39918644  0.19255552  0.00579470  1
  Nb  Nb128  1  0.79880750  0.59602389  0.59928074  1
  Nb  Nb129  1  -0.00307944  0.20134734  0.60245321  1
  Nb  Nb130  1  0.80166217  0.00699878  0.20046067  1
  Nb  Nb131  1  0.59876080  0.39887071  0.79015045  1
  Nb  Nb132  1  0.60001916  0.80039536  0.39956100  1
  Nb  Nb133  1  0.79410523  0.79887719  0.60721372  1
  Nb  Nb134  1  0.20382257  0.59526080  0.39409620  1
  Nb  Nb135  1  -0.00737638  0.59376278  0.60416548  1
  Nb  Nb136  1  0.00525280  0.39729202  0.80347865  1
  Nb  Nb137  1  -0.00893245  0.79968461  0.39973044  1
  Nb  Nb138  1  0.20100588  0.79879532  -0.00859323  1
  Nb  Nb139  1  0.79720445  0.20126565  0.20595950  1
  Nb  Nb140  1  0.40266517  0.60564155  0.00280934  1
  Nb  Nb141  1  0.40722670  0.39597654  0.79776795  1
  Nb  Nb142  1  0.79301709  0.21208831  0.39826733  1
  Nb  Nb143  1  0.20459345  0.00857632  0.20399278  1
  Nb  Nb144  1  -0.00087653  0.00245112  0.60166240  1
  Nb  Nb145  1  0.20161561  0.01321377  0.38894502  1
  Nb  Nb146  1  0.39614084  0.59806662  0.39930744  1
  Nb  Nb147  1  0.79993401  0.59685189  0.00942050  1
  Nb  Nb148  1  0.20229426  0.60068077  0.20517243  1
  Nb  Nb149  1  0.19954871  0.39859909  0.39290821  1
  Pd  Pd150  1  0.39754619  0.79856761  0.60334178  1
  Pd  Pd151  1  0.20432159  0.40110725  0.80428327  1
  Pd  Pd152  1  0.00262794  0.00036294  0.20303058  1
  Pd  Pd153  1  0.60700008  -0.00907072  0.20119507  1
  Pd  Pd154  1  0.79262698  0.20627366  0.79865778  1
  Pd  Pd155  1  0.59619775  0.18833473  0.59118482  1
  Pd  Pd156  1  0.79083734  0.40720133  0.40705113  1
  Pd  Pd157  1  0.38782596  0.00268167  0.39320702  1
  Pd  Pd158  1  0.40726113  0.00117173  -0.01000739  1
  Pd  Pd159  1  0.59584035  0.59958806  0.20548164  1
  Pd  Pd160  1  0.20994270  0.19932140  0.80712929  1
  Pd  Pd161  1  0.20043071  0.20158984  0.19037908  1
  Pd  Pd162  1  0.40927733  0.19691946  0.40560454  1
  Pd  Pd163  1  0.20159299  0.80257343  0.19250666  1
  Pd  Pd164  1  0.00659200  0.39870029  0.19924636  1
  Pd  Pd165  1  0.80366066  0.19904187  0.59166366  1
  Pd  Pd166  1  0.00086318  0.41102186  -0.00646988  1
  Pd  Pd167  1  0.19556855  0.00960351  0.59216203  1
  Pd  Pd168  1  0.38927696  -0.01247743  0.21133141  1
  Pd  Pd169  1  0.80225161  0.00373328  0.80210181  1
  Pd  Pd170  1  0.01099699  0.79245508  0.81145700  1
  Pd  Pd171  1  0.79305253  0.79126733  0.80488949  1
  Pd  Pd172  1  0.40773567  -0.00379558  0.80568959  1
  Pd  Pd173  1  0.19831800  -0.00717835  0.00679634  1
  Pd  Pd174  1  0.79273758  0.78960797  -0.00216379  1
  Pd  Pd175  1  0.59391788  -0.00567802  -0.00749566  1
  Pd  Pd176  1  0.20884092  0.20289402  0.40631526  1
  Pd  Pd177  1  0.59454643  0.00070404  0.59966140  1
  Pd  Pd178  1  0.59951394  0.40748131  0.39177929  1
  Pd  Pd179  1  -0.01078251  0.59023236  -0.00338741  1
  Pd  Pd180  1  -0.00620154  0.79896774  0.20398273  1
  Pd  Pd181  1  0.39454051  0.79510385  -0.00291819  1
  Pd  Pd182  1  0.80027225  0.19937198  0.00613180  1
  Pd  Pd183  1  0.20427884  0.60110994  0.59180165  1
  Pd  Pd184  1  0.78242242  0.41060759  0.58931072  1
  Pd  Pd185  1  -0.01344947  0.21526187  0.40770099  1
  Pd  Pd186  1  0.39112996  0.60706262  0.58985354  1
  Pd  Pd187  1  0.00176420  0.20273675  0.79362847  1
  Pd  Pd188  1  0.19618545  0.80175562  0.80148102  1
  Pd  Pd189  1  0.60598030  0.80000555  -0.00735165  1
  Pd  Pd190  1  0.59779281  0.20296435  0.19457609  1
  Pd  Pd191  1  0.78791557  0.38406495  0.80191129  1
  Pd  Pd192  1  0.00173574  0.00003646  -0.00528966  1
  Pd  Pd193  1  0.79153920  0.40466811  0.00283768  1
  Pd  Pd194  1  0.39989797  0.80628950  0.20206856  1
  Pd  Pd195  1  0.19715401  0.19322448  0.59824852  1
  Pd  Pd196  1  0.00988017  -0.01056372  0.40445849  1
  Pd  Pd197  1  0.00535406  0.39472036  0.39438662  1
  Pd  Pd198  1  0.21045698  0.80243563  0.60829991  1
  Pd  Pd199  1  -0.01017584  0.80362322  0.59359698  1
  Rh  Rh200  1  0.39608036  0.59571109  0.19631425  1
  Rh  Rh201  1  0.79525914  0.78634279  0.41154455  1
  Rh  Rh202  1  0.39108091  0.20534924  0.81362689  1
  Rh  Rh203  1  0.18839211  0.40531569  0.20770708  1
  Rh  Rh204  1  0.60286378  0.80225106  0.59307183  1
  Rh  Rh205  1  0.80157881  0.00061923  0.00023176  1
  Rh  Rh206  1  0.60392283  0.40428374  -0.00720368  1
  Rh  Rh207  1  0.01185290  0.80748839  -0.00830027  1
  Rh  Rh208  1  0.20805869  0.19938585  0.00254103  1
  Rh  Rh209  1  0.80827889  -0.00778641  0.61403799  1
  Rh  Rh210  1  0.59855370  0.80485112  0.20908451  1
  Rh  Rh211  1  0.60246661  0.40020863  0.20560270  1
  Rh  Rh212  1  0.00028024  0.60259062  0.19672560  1
  Rh  Rh213  1  -0.00412100  0.21127938  0.19943004  1
  Rh  Rh214  1  0.59785453  0.40538090  0.60451529  1
  Rh  Rh215  1  0.41525207  0.78819897  0.40217890  1
  Rh  Rh216  1  0.59656301  0.60457442  0.39210448  1
  Rh  Rh217  1  0.60087369  0.59503463  0.60234437  1
  Rh  Rh218  1  0.80490981  0.80427363  0.19364181  1
  Rh  Rh219  1  0.80211363  0.60490085  0.20004659  1
  Rh  Rh220  1  0.20542154  0.39693238  0.59601665  1
  Rh  Rh221  1  0.39928807  0.40240211  -0.00737555  1
  Rh  Rh222  1  0.40929681  -0.00068798  0.60035154  1
  Rh  Rh223  1  0.60091026  -0.00521124  0.40072826  1
  Rh  Rh224  1  0.39958272  0.40378581  0.39903292  1
  Rh  Rh225  1  0.19523894  0.59406214  0.79473392  1
  Rh  Rh226  1  0.79856365  0.01937267  0.38467214  1
  Rh  Rh227  1  -0.00296155  0.20125560  0.00003169  1
  Rh  Rh228  1  -0.00592752  0.60949570  0.40297245  1
  Rh  Rh229  1  0.40809137  0.39984299  0.60795707  1
  Rh  Rh230  1  0.61266692  0.20783442  0.78963384  1
  Rh  Rh231  1  0.59933453  -0.00753893  0.80169635  1
  Rh  Rh232  1  0.59598135  0.19579583  0.40802934  1
  Rh  Rh233  1  0.40410830  0.58923517  0.80772789  1
  Rh  Rh234  1  0.60171812  0.80362977  0.80328344  1
  Rh  Rh235  1  -0.00385325  0.00783061  0.79880428  1
  Rh  Rh236  1  0.40937237  0.20528439  0.19209966  1
  Rh  Rh237  1  0.20302344  0.00297208  0.80125314  1
  Rh  Rh238  1  0.58964011  0.58975898  0.79609375  1
  Rh  Rh239  1  0.00951036  0.39789308  0.61363032  1
  Rh  Rh240  1  0.59029171  0.19169357  0.01032206  1
  Rh  Rh241  1  0.39804728  0.80463981  0.79338604  1
  Rh  Rh242  1  0.41511130  0.19398541  0.58722038  1
  Rh  Rh243  1  0.80294562  0.60569311  0.80648961  1
  Rh  Rh244  1  0.59921292  0.60195120  0.00601207  1
  Rh  Rh245  1  0.41169786  0.39428982  0.20099830  1
  Rh  Rh246  1  0.19994492  0.39926259  -0.00054450  1
  Rh  Rh247  1  0.21516633  0.60778174  0.01504356  1
  Rh  Rh248  1  0.18513889  0.79758861  0.39224140  1
  Rh  Rh249  1  0.79181208  0.39627400  0.19728966  1
