# generated using pymatgen
data_ZrScNbPdRh
_symmetry_space_group_name_H-M   'P 1'
_cell_length_a   16.56552038
_cell_length_b   16.56475573
_cell_length_c   16.55901433
_cell_angle_alpha   89.97698100
_cell_angle_beta   89.97833227
_cell_angle_gamma   89.98690322
_symmetry_Int_Tables_number   1
_chemical_formula_structural   ZrScNbPdRh
_chemical_formula_sum   'Zr50 Sc50 Nb50 Pd50 Rh50'
_cell_volume   4543.85562298
_cell_formula_units_Z   50
loop_
 _symmetry_equiv_pos_site_id
 _symmetry_equiv_pos_as_xyz
  1  'x, y, z'
loop_
 _atom_site_type_symbol
 _atom_site_label
 _atom_site_symmetry_multiplicity
 _atom_site_fract_x
 _atom_site_fract_y
 _atom_site_fract_z
 _atom_site_occupancy
  Zr  Zr0  1  0.71393236  0.90349859  0.29834316  1
  Zr  Zr1  1  0.10323960  0.49539482  0.09660338  1
  Zr  Zr2  1  0.50004676  0.69745923  0.30105027  1
  Zr  Zr3  1  0.50777941  0.89686157  0.69675458  1
  Zr  Zr4  1  0.10609564  0.49522748  0.70811749  1
  Zr  Zr5  1  0.09899285  0.90930078  0.29720267  1
  Zr  Zr6  1  0.70357436  0.10314521  0.10333037  1
  Zr  Zr7  1  0.49664098  0.70333134  0.89137379  1
  Zr  Zr8  1  0.70182382  0.50203193  0.89366275  1
  Zr  Zr9  1  0.90194161  0.69439031  0.69214257  1
  Zr  Zr10  1  0.50498480  0.30241942  0.29620293  1
  Zr  Zr11  1  0.30084241  0.49323122  0.69865034  1
  Zr  Zr12  1  0.29844792  0.29992955  0.09720122  1
  Zr  Zr13  1  0.29973279  0.70119251  0.09879266  1
  Zr  Zr14  1  0.70492966  0.30956964  0.70358197  1
  Zr  Zr15  1  0.70182797  0.89439330  0.50075016  1
  Zr  Zr16  1  0.49745739  0.10368383  0.90106447  1
  Zr  Zr17  1  0.29696720  0.10059451  0.70399061  1
  Zr  Zr18  1  0.89638311  0.90339415  0.90023815  1
  Zr  Zr19  1  0.10423170  0.50292021  0.29937727  1
  Zr  Zr20  1  0.29895062  0.30544004  0.30494998  1
  Zr  Zr21  1  0.70806694  0.31091232  0.49831298  1
  Zr  Zr22  1  0.50475096  0.49612828  0.51157961  1
  Zr  Zr23  1  0.29790083  0.89691180  0.89994470  1
  Zr  Zr24  1  0.48907635  0.89650967  0.10217027  1
  Zr  Zr25  1  0.89986933  0.29935594  0.70620819  1
  Zr  Zr26  1  0.50528087  0.09381866  0.49793979  1
  Zr  Zr27  1  0.29643618  0.10436391  0.89934556  1
  Zr  Zr28  1  0.10319137  0.90147515  0.90019907  1
  Zr  Zr29  1  0.71343577  0.10224105  0.90067790  1
  Zr  Zr30  1  0.90122305  0.69793098  0.30048296  1
  Zr  Zr31  1  0.29631283  0.90631565  0.69443947  1
  Zr  Zr32  1  0.70243950  0.30105669  0.30136036  1
  Zr  Zr33  1  0.89876020  0.69527634  0.10194775  1
  Zr  Zr34  1  0.30917891  0.29847355  0.90317678  1
  Zr  Zr35  1  0.49593533  0.89128388  0.50054121  1
  Zr  Zr36  1  0.70658569  0.90867639  0.69756277  1
  Zr  Zr37  1  0.70224943  0.69598759  0.10478040  1
  Zr  Zr38  1  0.89992784  0.90383263  0.69344321  1
  Zr  Zr39  1  0.09763131  0.68864500  0.10120970  1
  Zr  Zr40  1  0.09995785  0.28934016  0.30164570  1
  Zr  Zr41  1  0.29589107  0.89089234  0.30263901  1
  Zr  Zr42  1  0.49370407  0.31568136  0.70295003  1
  Zr  Zr43  1  0.90127519  0.50404276  0.89755635  1
  Zr  Zr44  1  0.90696452  0.28722957  0.90205423  1
  Zr  Zr45  1  0.29329916  0.89903951  0.10548014  1
  Zr  Zr46  1  0.50543003  0.69561873  0.69899629  1
  Zr  Zr47  1  0.09809819  0.89926958  0.10132293  1
  Zr  Zr48  1  0.50236265  0.49620942  0.29400149  1
  Zr  Zr49  1  0.49181247  0.30666212  0.09268584  1
  Sc  Sc50  1  0.10086600  0.69444085  0.90059536  1
  Sc  Sc51  1  0.09044706  0.90286602  0.48944520  1
  Sc  Sc52  1  0.70273711  0.90739363  0.10161182  1
  Sc  Sc53  1  0.29284737  0.09513672  0.50440908  1
  Sc  Sc54  1  0.70245713  0.69050340  0.89062120  1
  Sc  Sc55  1  0.90430164  0.69193074  0.90196345  1
  Sc  Sc56  1  0.50594359  0.30701517  0.49933875  1
  Sc  Sc57  1  0.89557282  0.90407415  0.49836580  1
  Sc  Sc58  1  0.70236157  0.50376255  0.69805196  1
  Sc  Sc59  1  0.09785663  0.69739499  0.31160437  1
  Sc  Sc60  1  0.30643443  0.71217257  0.48503384  1
  Sc  Sc61  1  0.89421155  0.29528143  0.30078356  1
  Sc  Sc62  1  0.09681478  0.10895750  0.49430660  1
  Sc  Sc63  1  0.89282697  0.50426728  0.50229534  1
  Sc  Sc64  1  0.90496588  0.09887430  0.49650330  1
  Sc  Sc65  1  0.10593406  0.10525942  0.70062085  1
  Sc  Sc66  1  0.28838828  0.50118942  0.89626203  1
  Sc  Sc67  1  0.90412805  0.29741477  0.10294756  1
  Sc  Sc68  1  0.29474186  0.69795853  0.29493772  1
  Sc  Sc69  1  0.49366646  0.69722594  0.10703699  1
  Sc  Sc70  1  0.28985664  0.30078678  0.50046196  1
  Sc  Sc71  1  0.50451549  0.09406006  0.10684950  1
  Sc  Sc72  1  0.70390362  0.30846406  0.89468353  1
  Sc  Sc73  1  0.90592247  0.90158897  0.30293664  1
  Sc  Sc74  1  0.29940094  0.69744767  0.71048926  1
  Sc  Sc75  1  0.90010270  0.50214366  0.30037928  1
  Sc  Sc76  1  0.89564777  0.10134584  0.70352362  1
  Sc  Sc77  1  0.70576144  0.30055455  0.10583096  1
  Sc  Sc78  1  0.29337949  0.48573033  0.49754836  1
  Sc  Sc79  1  0.09215674  0.70008118  0.69996810  1
  Sc  Sc80  1  0.70273668  0.09174388  0.48970595  1
  Sc  Sc81  1  0.70340017  0.50269393  0.10545460  1
  Sc  Sc82  1  0.69727503  0.91222081  0.89739436  1
  Sc  Sc83  1  0.10319003  0.11383804  0.89904849  1
  Sc  Sc84  1  0.89513038  0.09864168  0.29932372  1
  Sc  Sc85  1  0.90678814  0.50954344  0.10381287  1
  Sc  Sc86  1  0.51296271  0.70342713  0.49956099  1
  Sc  Sc87  1  0.29551562  0.70075228  0.89862826  1
  Sc  Sc88  1  0.89880418  0.89429605  0.11306128  1
  Sc  Sc89  1  0.29448968  0.49647746  0.10154125  1
  Sc  Sc90  1  0.28178764  0.09794068  0.29926809  1
  Sc  Sc91  1  0.10196417  0.50084592  0.49483973  1
  Sc  Sc92  1  0.50028442  0.49205299  0.10518552  1
  Sc  Sc93  1  0.70363664  0.50228995  0.50322801  1
  Sc  Sc94  1  0.29335709  0.30418161  0.70155121  1
  Sc  Sc95  1  0.89412475  0.11226931  0.09486791  1
  Sc  Sc96  1  0.69639428  0.69551515  0.69722103  1
  Sc  Sc97  1  0.70164172  0.69344064  0.30489918  1
  Sc  Sc98  1  0.09906737  0.90233261  0.69955999  1
  Sc  Sc99  1  0.10664818  0.10398493  0.10829226  1
  Nb  Nb100  1  0.09619544  0.30321255  0.09396900  1
  Nb  Nb101  1  0.69388486  0.10186743  0.29557374  1
  Nb  Nb102  1  0.70702066  0.69698702  0.50241986  1
  Nb  Nb103  1  0.09899197  0.30033820  0.70215444  1
  Nb  Nb104  1  0.69929110  0.10365725  0.70108195  1
  Nb  Nb105  1  0.89986517  0.30098597  0.50075883  1
  Nb  Nb106  1  0.09469805  0.09880938  0.30510318  1
  Nb  Nb107  1  0.09268935  0.29959411  0.50275030  1
  Nb  Nb108  1  0.90852798  0.69713268  0.49607249  1
  Nb  Nb109  1  0.30397822  0.10194645  0.09641046  1
  Nb  Nb110  1  0.10367062  0.49629540  0.90514527  1
  Nb  Nb111  1  0.49884351  0.50169795  0.70081414  1
  Nb  Nb112  1  0.29947079  0.49693012  0.30315188  1
  Nb  Nb113  1  0.89731707  0.49944221  0.69814464  1
  Nb  Nb114  1  0.50208817  0.10040657  0.69726297  1
  Nb  Nb115  1  0.69947965  0.49583547  0.29460414  1
  Nb  Nb116  1  0.50136972  0.48858898  0.89830455  1
  Nb  Nb117  1  0.49533868  0.90083327  0.29628775  1
  Nb  Nb118  1  0.50298724  0.10026902  0.30213337  1
  Nb  Nb119  1  0.09878608  0.30776889  0.89787409  1
  Nb  Nb120  1  0.50065020  0.30578597  0.90244930  1
  Nb  Nb121  1  0.30208377  0.89618396  0.49756256  1
  Nb  Nb122  1  0.90381753  0.10243209  0.90155243  1
  Nb  Nb123  1  0.09655603  0.69929476  0.49891042  1
  Nb  Nb124  1  0.49700708  0.89925124  0.90244796  1
  Nb  Nb125  1  0.79538974  0.20255078  0.59886748  1
  Nb  Nb126  1  0.59671461  0.20183327  0.79849450  1
  Nb  Nb127  1  0.60268904  0.20040625  0.60586871  1
  Nb  Nb128  1  0.39919528  0.19542461  0.20617734  1
  Nb  Nb129  1  0.59222725  0.59990603  -0.00361446  1
  Nb  Nb130  1  0.39628489  0.59856813  0.59546892  1
  Nb  Nb131  1  0.39587889  -0.00195436  -0.00269547  1
  Nb  Nb132  1  0.40082012  -0.00126510  0.39534724  1
  Nb  Nb133  1  -0.00082171  0.00453317  -0.00202552  1
  Nb  Nb134  1  0.80689257  0.40393874  -0.00223459  1
  Nb  Nb135  1  0.59813521  0.20541200  -0.00652059  1
  Nb  Nb136  1  0.59867153  0.80400692  0.20082643  1
  Nb  Nb137  1  0.80354969  0.80146963  0.79913219  1
  Nb  Nb138  1  0.20313883  0.60733107  0.59484506  1
  Nb  Nb139  1  -0.00109446  0.00447935  0.80751921  1
  Nb  Nb140  1  0.40659374  0.19852044  0.59854646  1
  Nb  Nb141  1  0.19891608  0.79765528  0.59054321  1
  Nb  Nb142  1  0.40143328  0.59091222  0.40140502  1
  Nb  Nb143  1  0.59957262  0.79793862  0.00025887  1
  Nb  Nb144  1  0.79491347  0.79727222  -0.00361146  1
  Nb  Nb145  1  0.40511770  0.59617838  -0.00543072  1
  Nb  Nb146  1  0.40307711  0.19257842  0.39791112  1
  Nb  Nb147  1  0.40557810  -0.00132798  0.80071128  1
  Nb  Nb148  1  -0.00206597  0.39321804  0.40595095  1
  Nb  Nb149  1  -0.00018342  0.39593271  0.60060575  1
  Pd  Pd150  1  0.20420559  0.20345340  0.59911976  1
  Pd  Pd151  1  0.40281556  0.39836562  0.40545634  1
  Pd  Pd152  1  -0.00228416  0.19508470  0.19921133  1
  Pd  Pd153  1  0.80827781  0.40385476  0.19494410  1
  Pd  Pd154  1  0.00781936  0.58776724  0.59577368  1
  Pd  Pd155  1  0.59477118  0.20698518  0.19059348  1
  Pd  Pd156  1  0.80024415  0.19416109  0.40351722  1
  Pd  Pd157  1  0.60325415  -0.00648798  0.20364978  1
  Pd  Pd158  1  0.40046126  0.59109778  0.80221433  1
  Pd  Pd159  1  0.00385527  0.80391720  0.59148680  1
  Pd  Pd160  1  0.61247252  0.80310703  0.80462653  1
  Pd  Pd161  1  0.59794749  -0.01190106  0.39339054  1
  Pd  Pd162  1  0.60053384  0.20356653  0.40787749  1
  Pd  Pd163  1  0.19311264  0.79753288  0.79028571  1
  Pd  Pd164  1  -0.00272744  0.40167491  0.79867558  1
  Pd  Pd165  1  0.80706387  0.79601718  0.40256170  1
  Pd  Pd166  1  0.59387940  0.00009476  0.00197293  1
  Pd  Pd167  1  0.19276059  0.20645010  0.00046375  1
  Pd  Pd168  1  0.19570735  0.79221014  0.00065518  1
  Pd  Pd169  1  0.40408243  0.20042054  0.79077687  1
  Pd  Pd170  1  0.18737419  -0.00661951  0.59039429  1
  Pd  Pd171  1  0.60575022  0.80407869  0.39193304  1
  Pd  Pd172  1  0.00592008  0.79343952  0.20751341  1
  Pd  Pd173  1  0.19741648  0.00610742  0.00288692  1
  Pd  Pd174  1  -0.00731736  0.40276092  0.00175311  1
  Pd  Pd175  1  -0.00709092  0.19923499  0.60557051  1
  Pd  Pd176  1  0.39297798  0.59277236  0.19921769  1
  Pd  Pd177  1  0.60566668  0.40925355  0.40047098  1
  Pd  Pd178  1  0.39934949  0.00489065  0.59872029  1
  Pd  Pd179  1  -0.00687074  0.01148182  0.19151370  1
  Pd  Pd180  1  0.19759451  0.39661328  0.20174089  1
  Pd  Pd181  1  0.80038427  0.59486667  0.39882476  1
  Pd  Pd182  1  -0.00713689  0.80283805  0.00024861  1
  Pd  Pd183  1  0.21088581  0.60185121  0.40650423  1
  Pd  Pd184  1  0.59965509  0.59209601  0.40287218  1
  Pd  Pd185  1  0.59673372  0.00549692  0.80135724  1
  Pd  Pd186  1  0.20337899  0.20196770  0.19886367  1
  Pd  Pd187  1  -0.00168112  0.39794888  0.20928000  1
  Pd  Pd188  1  0.20129736  -0.00158537  0.40529913  1
  Pd  Pd189  1  0.00441312  0.59809972  0.80122438  1
  Pd  Pd190  1  0.18787583  0.79167621  0.20453643  1
  Pd  Pd191  1  0.81021443  -0.00513341  0.01122468  1
  Pd  Pd192  1  0.00555555  0.00831055  0.60497958  1
  Pd  Pd193  1  0.39247611  0.78791903  0.60598254  1
  Pd  Pd194  1  0.38877049  0.00759626  0.20472358  1
  Pd  Pd195  1  -0.00480606  0.80539643  0.80131178  1
  Pd  Pd196  1  0.61352163  0.40162005  0.00576294  1
  Pd  Pd197  1  0.80016327  0.79259464  0.60181453  1
  Pd  Pd198  1  0.60712958  0.00150777  0.59620438  1
  Pd  Pd199  1  0.39734391  0.80764733  0.79085166  1
  Rh  Rh200  1  0.80002510  0.59710218  0.20931513  1
  Rh  Rh201  1  0.19674257  0.21165927  0.80166935  1
  Rh  Rh202  1  0.39512588  0.39849995  0.59608155  1
  Rh  Rh203  1  0.20575690  0.60079104  0.00084400  1
  Rh  Rh204  1  0.39356064  0.40481458  0.80611436  1
  Rh  Rh205  1  0.39288451  0.39574562  0.20024960  1
  Rh  Rh206  1  -0.00430586  0.59243806  0.40391486  1
  Rh  Rh207  1  0.79700721  0.19842740  0.20674765  1
  Rh  Rh208  1  0.80520555  0.40668541  0.39420026  1
  Rh  Rh209  1  0.19991721  0.39417861  -0.00402443  1
  Rh  Rh210  1  0.19069085  0.80361492  0.40338707  1
  Rh  Rh211  1  0.80571741  0.60550061  0.78945309  1
  Rh  Rh212  1  0.80921044  0.40482247  0.80652104  1
  Rh  Rh213  1  -0.00380534  0.80038171  0.40058050  1
  Rh  Rh214  1  0.40980943  0.19125926  0.01178744  1
  Rh  Rh215  1  0.79495211  0.79645499  0.19735116  1
  Rh  Rh216  1  0.80807109  0.39886929  0.60260563  1
  Rh  Rh217  1  -0.00491838  0.20221179  0.39522869  1
  Rh  Rh218  1  0.80391134  0.00734680  0.20055742  1
  Rh  Rh219  1  0.79818802  0.01241890  0.59489565  1
  Rh  Rh220  1  0.79253579  0.59858465  0.00262010  1
  Rh  Rh221  1  0.18705751  0.39508721  0.39693386  1
  Rh  Rh222  1  0.80043388  0.60382301  0.59837056  1
  Rh  Rh223  1  0.79165431  0.21366141  -0.00312506  1
  Rh  Rh224  1  0.40153013  0.79645962  -0.00180035  1
  Rh  Rh225  1  0.80078922  0.00239279  0.39675034  1
  Rh  Rh226  1  0.38961321  0.41352260  -0.00575519  1
  Rh  Rh227  1  0.60652031  0.39721309  0.19598121  1
  Rh  Rh228  1  0.20076003  0.59811272  0.20086448  1
  Rh  Rh229  1  0.00771427  0.19522888  0.79649550  1
  Rh  Rh230  1  0.40145987  0.79461282  0.20643796  1
  Rh  Rh231  1  0.19335486  0.60121211  0.79608393  1
  Rh  Rh232  1  0.59968760  0.40328154  0.79435729  1
  Rh  Rh233  1  0.00688566  0.59451472  -0.00163496  1
  Rh  Rh234  1  0.20272872  0.39261911  0.80696995  1
  Rh  Rh235  1  0.19981578  0.00213127  0.19980482  1
  Rh  Rh236  1  0.59958926  0.60040903  0.59939334  1
  Rh  Rh237  1  0.80745880  0.00036335  0.79516110  1
  Rh  Rh238  1  0.00520508  0.59958600  0.20562313  1
  Rh  Rh239  1  0.79683878  0.19824291  0.79713651  1
  Rh  Rh240  1  -0.00294341  0.00563125  0.39686468  1
  Rh  Rh241  1  0.20012602  0.20054894  0.40448989  1
  Rh  Rh242  1  0.60986514  0.79673339  0.59974830  1
  Rh  Rh243  1  0.18820871  0.40205651  0.59957231  1
  Rh  Rh244  1  0.19692395  0.00265439  0.80238231  1
  Rh  Rh245  1  0.60238427  0.60089606  0.19755693  1
  Rh  Rh246  1  0.60698948  0.40142132  0.60670015  1
  Rh  Rh247  1  0.00942244  0.19697690  0.00522880  1
  Rh  Rh248  1  0.40517050  0.79897963  0.39207322  1
  Rh  Rh249  1  0.59482114  0.59025217  0.80122781  1
