# generated using pymatgen
data_ZrScNbPdRh
_symmetry_space_group_name_H-M   'P 1'
_cell_length_a   16.55357782
_cell_length_b   16.55207459
_cell_length_c   16.55341490
_cell_angle_alpha   90.01389589
_cell_angle_beta   90.00511758
_cell_angle_gamma   90.01945796
_symmetry_Int_Tables_number   1
_chemical_formula_structural   ZrScNbPdRh
_chemical_formula_sum   'Zr50 Sc50 Nb50 Pd50 Rh50'
_cell_volume   4535.56995973
_cell_formula_units_Z   50
loop_
 _symmetry_equiv_pos_site_id
 _symmetry_equiv_pos_as_xyz
  1  'x, y, z'
loop_
 _atom_site_type_symbol
 _atom_site_label
 _atom_site_symmetry_multiplicity
 _atom_site_fract_x
 _atom_site_fract_y
 _atom_site_fract_z
 _atom_site_occupancy
  Zr  Zr0  1  0.29323950  0.30150657  0.89865199  1
  Zr  Zr1  1  0.09520563  0.10152615  0.89464384  1
  Zr  Zr2  1  0.09018562  0.51361078  0.09175180  1
  Zr  Zr3  1  0.90386370  0.49971551  0.50059703  1
  Zr  Zr4  1  0.30510637  0.70416309  0.70148156  1
  Zr  Zr5  1  0.30218920  0.11265376  0.49701356  1
  Zr  Zr6  1  0.09835095  0.90395510  0.49877312  1
  Zr  Zr7  1  0.29366095  0.30012789  0.30083727  1
  Zr  Zr8  1  0.89638029  0.70137283  0.70034001  1
  Zr  Zr9  1  0.90288811  0.29828429  0.09791054  1
  Zr  Zr10  1  0.70362987  0.90260704  0.90319935  1
  Zr  Zr11  1  0.70614667  0.70215572  0.90916648  1
  Zr  Zr12  1  0.50451686  0.09682708  0.50039544  1
  Zr  Zr13  1  0.30233702  0.10420007  0.29311651  1
  Zr  Zr14  1  0.69647404  0.50551680  0.90491274  1
  Zr  Zr15  1  0.29910886  0.50838754  0.90352628  1
  Zr  Zr16  1  0.70147504  0.09198400  0.50421681  1
  Zr  Zr17  1  0.30872897  0.89939647  0.89708288  1
  Zr  Zr18  1  0.49891741  0.89638447  0.29350776  1
  Zr  Zr19  1  0.10081136  0.89340154  0.09512232  1
  Zr  Zr20  1  0.49493444  0.69328410  0.89187328  1
  Zr  Zr21  1  0.30676285  0.89465189  0.10020382  1
  Zr  Zr22  1  0.90025751  0.10924498  0.10027652  1
  Zr  Zr23  1  0.69934371  0.90053364  0.50527284  1
  Zr  Zr24  1  0.09267375  0.89420395  0.90215544  1
  Zr  Zr25  1  0.50899117  0.11045196  0.70045773  1
  Zr  Zr26  1  0.09165227  0.90033682  0.30901562  1
  Zr  Zr27  1  0.10178204  0.09428520  0.50264147  1
  Zr  Zr28  1  0.30882230  0.89536100  0.29786097  1
  Zr  Zr29  1  0.10063466  0.68311153  0.69909977  1
  Zr  Zr30  1  0.49061832  0.28934775  0.50899930  1
  Zr  Zr31  1  0.91178482  0.50039053  0.69720921  1
  Zr  Zr32  1  0.50762785  0.70168404  0.10693371  1
  Zr  Zr33  1  0.70441228  0.50101176  0.70152395  1
  Zr  Zr34  1  0.70467779  0.29103493  0.70736014  1
  Zr  Zr35  1  0.89976583  0.29647502  0.89967919  1
  Zr  Zr36  1  0.90052926  0.49960036  0.29923824  1
  Zr  Zr37  1  0.49987946  0.09289398  0.29912368  1
  Zr  Zr38  1  0.10451186  0.29797880  0.29357748  1
  Zr  Zr39  1  0.50145646  0.90635423  0.09829339  1
  Zr  Zr40  1  0.70409983  0.90162695  0.69995021  1
  Zr  Zr41  1  0.69880483  0.30034407  0.10807995  1
  Zr  Zr42  1  0.51088389  0.51023595  0.70535402  1
  Zr  Zr43  1  0.70068477  0.89636748  0.09557359  1
  Zr  Zr44  1  0.69882675  0.10712365  0.30402925  1
  Zr  Zr45  1  0.10708407  0.50122851  0.51365140  1
  Zr  Zr46  1  0.09110687  0.10087031  0.69563469  1
  Zr  Zr47  1  0.90139471  0.29932728  0.69957094  1
  Zr  Zr48  1  0.70178371  0.90854207  0.30223400  1
  Zr  Zr49  1  0.49882269  0.09031118  0.89915632  1
  Sc  Sc50  1  0.69682983  0.09621906  0.88789860  1
  Sc  Sc51  1  0.89605879  0.90140353  0.49073421  1
  Sc  Sc52  1  0.89743451  0.91159594  0.09141497  1
  Sc  Sc53  1  0.09650197  0.90410015  0.69870164  1
  Sc  Sc54  1  0.70435708  0.29269975  0.49177279  1
  Sc  Sc55  1  0.89857148  0.10066503  0.69923369  1
  Sc  Sc56  1  0.30717090  0.10784950  0.90274438  1
  Sc  Sc57  1  0.49568954  0.89884404  0.69952303  1
  Sc  Sc58  1  0.30307542  0.50249780  0.10559595  1
  Sc  Sc59  1  0.49729207  0.28633627  0.89555571  1
  Sc  Sc60  1  0.27582175  0.49903283  0.70343259  1
  Sc  Sc61  1  0.30227655  0.70064726  0.49686268  1
  Sc  Sc62  1  0.50284409  0.50799472  0.90743752  1
  Sc  Sc63  1  0.29511279  0.89690649  0.50198933  1
  Sc  Sc64  1  0.70884859  0.09789811  0.10464661  1
  Sc  Sc65  1  0.29233641  0.29827611  0.69781152  1
  Sc  Sc66  1  0.49410454  0.70182895  0.30445150  1
  Sc  Sc67  1  0.89655279  0.69589281  0.30461266  1
  Sc  Sc68  1  0.69623846  0.51176691  0.10118045  1
  Sc  Sc69  1  0.29533602  0.69443324  0.09334701  1
  Sc  Sc70  1  0.30155507  0.89764754  0.69510238  1
  Sc  Sc71  1  0.91405565  0.49610293  0.90150348  1
  Sc  Sc72  1  0.90078018  0.10362216  0.51052104  1
  Sc  Sc73  1  0.90071419  0.30342727  0.50380700  1
  Sc  Sc74  1  0.50187096  0.89432419  0.49668440  1
  Sc  Sc75  1  0.09171662  0.29922334  0.89723609  1
  Sc  Sc76  1  0.29932273  0.69377984  0.30500896  1
  Sc  Sc77  1  0.50204204  0.50338258  0.10137926  1
  Sc  Sc78  1  0.50660012  0.50458735  0.49338734  1
  Sc  Sc79  1  0.50740722  0.29902568  0.29088063  1
  Sc  Sc80  1  0.29910330  0.28788407  0.10730382  1
  Sc  Sc81  1  0.89942244  0.70907669  0.90403447  1
  Sc  Sc82  1  0.89886029  0.90100514  0.89453015  1
  Sc  Sc83  1  0.50106268  0.50654870  0.29905013  1
  Sc  Sc84  1  0.09382061  0.11159820  0.10581198  1
  Sc  Sc85  1  0.88916057  0.69860992  0.49977954  1
  Sc  Sc86  1  0.30157152  0.50475602  0.30042447  1
  Sc  Sc87  1  0.50348808  0.70373729  0.69406672  1
  Sc  Sc88  1  0.09956721  0.09902343  0.30035238  1
  Sc  Sc89  1  0.10948543  0.70114079  0.49708072  1
  Sc  Sc90  1  0.69774650  0.70210355  0.69464762  1
  Sc  Sc91  1  0.69932668  0.50507983  0.49924848  1
  Sc  Sc92  1  0.10970992  0.50492370  0.29412857  1
  Sc  Sc93  1  0.69387738  0.49198211  0.30197657  1
  Sc  Sc94  1  0.69570603  0.69628789  0.30125926  1
  Sc  Sc95  1  0.29239178  0.10036846  0.69773608  1
  Sc  Sc96  1  0.90290163  0.09840291  0.90130976  1
  Sc  Sc97  1  0.90550195  0.09581491  0.29578083  1
  Sc  Sc98  1  0.49952064  0.70359923  0.50038734  1
  Sc  Sc99  1  0.89279944  0.30282378  0.30241223  1
  Nb  Nb100  1  0.29968129  0.49792276  0.50062033  1
  Nb  Nb101  1  0.09608609  0.49724404  0.70934362  1
  Nb  Nb102  1  0.69875893  0.09294228  0.69285074  1
  Nb  Nb103  1  0.69431411  0.70626173  0.50828802  1
  Nb  Nb104  1  0.89890479  0.50303468  0.09793200  1
  Nb  Nb105  1  0.10948991  0.69701438  0.91793916  1
  Nb  Nb106  1  0.89889121  0.68421862  0.10302609  1
  Nb  Nb107  1  0.10353370  0.50208307  0.89281287  1
  Nb  Nb108  1  0.09592627  0.30427847  0.09993341  1
  Nb  Nb109  1  0.48601813  0.10672173  0.09695697  1
  Nb  Nb110  1  0.50067496  0.30268494  0.70061519  1
  Nb  Nb111  1  0.09822366  0.69508585  0.29487710  1
  Nb  Nb112  1  0.71138273  0.69965120  0.09620142  1
  Nb  Nb113  1  0.30086222  0.70080520  0.90152776  1
  Nb  Nb114  1  0.09684102  0.69873087  0.10123616  1
  Nb  Nb115  1  0.10850864  0.29790027  0.49669485  1
  Nb  Nb116  1  0.29547387  0.30477218  0.49880042  1
  Nb  Nb117  1  0.49895063  0.29762785  0.09511784  1
  Nb  Nb118  1  0.69949253  0.30180930  0.90286935  1
  Nb  Nb119  1  0.89795389  0.89072730  0.70175097  1
  Nb  Nb120  1  0.50403461  0.90226069  0.89858959  1
  Nb  Nb121  1  0.90309248  0.89389942  0.29824058  1
  Nb  Nb122  1  0.70102399  0.29536486  0.29616623  1
  Nb  Nb123  1  0.09894489  0.30608023  0.69901968  1
  Nb  Nb124  1  0.30497783  0.09660410  0.09806184  1
  Nb  Nb125  1  0.59823619  0.20034347  0.00287143  1
  Nb  Nb126  1  0.19854928  0.79652033  0.80829793  1
  Nb  Nb127  1  0.19575855  0.40154582  0.00119381  1
  Nb  Nb128  1  0.19126793  0.79699995  0.20047443  1
  Nb  Nb129  1  -0.00409132  0.79331400  0.19971983  1
  Nb  Nb130  1  0.80332044  0.59856179  0.80105485  1
  Nb  Nb131  1  0.40195754  0.00808309  0.59632882  1
  Nb  Nb132  1  0.40618467  0.79802619  -0.00549362  1
  Nb  Nb133  1  0.40345923  0.40195994  0.79740791  1
  Nb  Nb134  1  0.39890808  0.40379529  0.60226774  1
  Nb  Nb135  1  0.39628826  0.39720804  0.40677256  1
  Nb  Nb136  1  0.19752514  -0.00410183  0.80733954  1
  Nb  Nb137  1  0.59878738  0.39424614  0.80067968  1
  Nb  Nb138  1  0.00511182  0.59772224  0.40025875  1
  Nb  Nb139  1  0.79864253  0.39995733  0.00232499  1
  Nb  Nb140  1  0.00768795  0.20489633  0.40561469  1
  Nb  Nb141  1  0.39751077  0.39386547  -0.00196701  1
  Nb  Nb142  1  0.39656357  0.58899238  0.59969290  1
  Nb  Nb143  1  0.59683967  0.39578190  0.60539415  1
  Nb  Nb144  1  0.60059155  0.80511442  0.80715815  1
  Nb  Nb145  1  -0.00347445  0.79830803  0.60091891  1
  Nb  Nb146  1  0.20278844  0.00245898  0.00109426  1
  Nb  Nb147  1  0.20208634  -0.00485844  0.19423032  1
  Nb  Nb148  1  -0.00057220  0.40355790  0.19294122  1
  Nb  Nb149  1  0.80579351  0.79908309  0.19732997  1
  Pd  Pd150  1  0.19574316  0.20290231  0.60175152  1
  Pd  Pd151  1  0.20256851  0.79761680  0.39293055  1
  Pd  Pd152  1  0.39109009  0.59211650  0.78995555  1
  Pd  Pd153  1  0.61078839  0.20503293  0.59683641  1
  Pd  Pd154  1  0.40418415  0.39689421  0.19981280  1
  Pd  Pd155  1  0.00901106  0.40081353  0.39332767  1
  Pd  Pd156  1  0.78997142  0.19887546  -0.00490371  1
  Pd  Pd157  1  0.59662814  0.19131003  0.19158356  1
  Pd  Pd158  1  0.79903304  0.60002771  0.60269194  1
  Pd  Pd159  1  0.79982044  0.40839650  0.81024572  1
  Pd  Pd160  1  0.39837680  0.60504254  0.20007857  1
  Pd  Pd161  1  0.80201553  0.18959843  0.80101396  1
  Pd  Pd162  1  0.59373305  0.79437359  -0.00482839  1
  Pd  Pd163  1  0.40499541  0.20810119  0.38845836  1
  Pd  Pd164  1  0.19521084  0.40814175  0.18863484  1
  Pd  Pd165  1  0.01014922  0.79134999  0.79498628  1
  Pd  Pd166  1  0.59432721  0.38978051  0.40616780  1
  Pd  Pd167  1  -0.01176616  -0.01060343  0.60025204  1
  Pd  Pd168  1  -0.00273868  0.78717520  0.40523402  1
  Pd  Pd169  1  0.79271763  0.59989815  0.20776144  1
  Pd  Pd170  1  0.19159416  0.79958134  0.60831354  1
  Pd  Pd171  1  -0.01242367  0.79483572  0.01029409  1
  Pd  Pd172  1  0.60518668  0.01258403  0.00652454  1
  Pd  Pd173  1  0.80810535  0.00724057  0.39905394  1
  Pd  Pd174  1  0.60027400  0.60730421  0.40164681  1
  Pd  Pd175  1  0.39635275  0.00409613  0.78789797  1
  Pd  Pd176  1  0.79280000  0.79750578  0.39455012  1
  Pd  Pd177  1  0.61166881  0.79803547  0.20317413  1
  Pd  Pd178  1  0.19525939  0.19604985  0.79622503  1
  Pd  Pd179  1  0.20061382  0.40806046  0.39643887  1
  Pd  Pd180  1  0.59624360  0.40538341  0.19835874  1
  Pd  Pd181  1  0.00430674  0.00740520  0.00307721  1
  Pd  Pd182  1  0.81276097  0.19401004  0.39917950  1
  Pd  Pd183  1  0.00585734  0.39463088  0.59830719  1
  Pd  Pd184  1  0.39701071  -0.00608169  0.40840424  1
  Pd  Pd185  1  0.80118085  0.40416452  0.19453028  1
  Pd  Pd186  1  -0.00268294  0.60973417  0.81254477  1
  Pd  Pd187  1  0.20730533  0.00399557  0.39339563  1
  Pd  Pd188  1  0.80501294  -0.00274068  0.20146170  1
  Pd  Pd189  1  0.19385516  0.20048067  0.00572105  1
  Pd  Pd190  1  0.60259593  0.79978678  0.39777911  1
  Pd  Pd191  1  0.59595346  0.20496136  0.39978620  1
  Pd  Pd192  1  0.79141974  0.39595575  0.59340977  1
  Pd  Pd193  1  0.39453115  0.20285629  0.79295283  1
  Pd  Pd194  1  0.80728651  0.00346981  0.79867053  1
  Pd  Pd195  1  0.79351328  0.40074307  0.40247280  1
  Pd  Pd196  1  0.59578552  0.39458807  -0.00392610  1
  Pd  Pd197  1  0.59976689  0.00757713  0.19274014  1
  Pd  Pd198  1  0.00424339  -0.00604758  0.19552727  1
  Pd  Pd199  1  0.79666337  0.59729683  0.39891271  1
  Rh  Rh200  1  0.59847716  -0.00655334  0.79148522  1
  Rh  Rh201  1  0.61493861  0.61164534  0.80435753  1
  Rh  Rh202  1  -0.00428664  0.60556399  -0.00862580  1
  Rh  Rh203  1  0.20827010  -0.00189440  0.60459326  1
  Rh  Rh204  1  0.80987876  0.80234570  0.01077828  1
  Rh  Rh205  1  0.40368441  0.79971896  0.80302756  1
  Rh  Rh206  1  -0.00389071  0.20300482  0.79411054  1
  Rh  Rh207  1  0.39890892  0.59282125  0.40742200  1
  Rh  Rh208  1  0.00337598  0.39459974  0.79893213  1
  Rh  Rh209  1  0.19941796  0.19228106  0.19509847  1
  Rh  Rh210  1  0.19778163  0.60876716  0.80697689  1
  Rh  Rh211  1  0.79659169  0.19894719  0.60167699  1
  Rh  Rh212  1  0.00147383  0.40069361  0.00309532  1
  Rh  Rh213  1  0.20342224  0.60553702  0.19627328  1
  Rh  Rh214  1  -0.00101690  0.60699752  0.58727681  1
  Rh  Rh215  1  0.59933006  -0.00502219  0.39873717  1
  Rh  Rh216  1  0.79853074  0.00655666  -0.00637791  1
  Rh  Rh217  1  0.00376130  0.19857240  -0.00248482  1
  Rh  Rh218  1  0.39155837  0.19946081  0.60848505  1
  Rh  Rh219  1  0.40226153  0.20537139  -0.00017929  1
  Rh  Rh220  1  0.20955634  0.60399342  0.59740439  1
  Rh  Rh221  1  0.39934842  0.00381844  0.19802657  1
  Rh  Rh222  1  -0.00088917  -0.00159639  0.79542499  1
  Rh  Rh223  1  0.59649769  0.60790622  0.00608263  1
  Rh  Rh224  1  0.80481331  0.80464247  0.59513905  1
  Rh  Rh225  1  0.59149774  -0.00505850  0.60339055  1
  Rh  Rh226  1  0.40547443  0.60228507  0.00685591  1
  Rh  Rh227  1  0.19823865  0.39635632  0.60450322  1
  Rh  Rh228  1  0.40213335  0.20312701  0.20349152  1
  Rh  Rh229  1  0.79010347  0.79489761  0.80076651  1
  Rh  Rh230  1  0.80562038  -0.00443939  0.60402241  1
  Rh  Rh231  1  0.40122126  0.80108796  0.59490584  1
  Rh  Rh232  1  0.39967515  0.80002585  0.40067535  1
  Rh  Rh233  1  0.21072103  0.80252638  -0.00075137  1
  Rh  Rh234  1  0.80301227  0.19989166  0.20884604  1
  Rh  Rh235  1  0.60353856  0.60286583  0.20245400  1
  Rh  Rh236  1  0.20146470  0.59326064  0.00331071  1
  Rh  Rh237  1  0.19676200  0.59733948  0.40257549  1
  Rh  Rh238  1  0.39232822  0.78865868  0.19446186  1
  Rh  Rh239  1  -0.00263477  0.59781709  0.20787691  1
  Rh  Rh240  1  -0.00563645  0.21196170  0.21010811  1
  Rh  Rh241  1  -0.00726324  0.01056864  0.40352136  1
  Rh  Rh242  1  0.00622303  0.20950394  0.59424807  1
  Rh  Rh243  1  0.59915600  0.80421724  0.60630631  1
  Rh  Rh244  1  0.59671414  0.59888588  0.59102726  1
  Rh  Rh245  1  0.39802422  -0.00461788  -0.00051558  1
  Rh  Rh246  1  0.60445468  0.20158811  0.80625987  1
  Rh  Rh247  1  0.19436944  0.19553273  0.39845362  1
  Rh  Rh248  1  0.81042281  0.59199367  -0.00831329  1
  Rh  Rh249  1  0.19555004  0.39736196  0.80593314  1
