# generated using pymatgen
data_ZrScNbPdRh
_symmetry_space_group_name_H-M   'P 1'
_cell_length_a   16.56339961
_cell_length_b   16.56640707
_cell_length_c   16.56245176
_cell_angle_alpha   89.94539639
_cell_angle_beta   90.03669033
_cell_angle_gamma   90.00527698
_symmetry_Int_Tables_number   1
_chemical_formula_structural   ZrScNbPdRh
_chemical_formula_sum   'Zr50 Sc50 Nb50 Pd50 Rh50'
_cell_volume   4544.66783519
_cell_formula_units_Z   50
loop_
 _symmetry_equiv_pos_site_id
 _symmetry_equiv_pos_as_xyz
  1  'x, y, z'
loop_
 _atom_site_type_symbol
 _atom_site_label
 _atom_site_symmetry_multiplicity
 _atom_site_fract_x
 _atom_site_fract_y
 _atom_site_fract_z
 _atom_site_occupancy
  Zr  Zr0  1  0.29630568  0.30020724  0.69681344  1
  Zr  Zr1  1  0.30318623  0.09131451  0.30514369  1
  Zr  Zr2  1  0.10071351  0.51199173  0.49814385  1
  Zr  Zr3  1  0.90823712  0.70036825  0.50732175  1
  Zr  Zr4  1  0.90482030  0.49736885  0.49368727  1
  Zr  Zr5  1  0.69636134  0.69971118  0.70574381  1
  Zr  Zr6  1  0.29259805  0.49588014  0.90238719  1
  Zr  Zr7  1  0.89654544  0.89366104  0.89431245  1
  Zr  Zr8  1  0.10291271  0.69455946  0.69199215  1
  Zr  Zr9  1  0.09263707  0.09741241  0.30048898  1
  Zr  Zr10  1  0.29701878  0.70560270  0.70051950  1
  Zr  Zr11  1  0.70382881  0.10005897  0.09613316  1
  Zr  Zr12  1  0.90957369  0.49765691  0.29602387  1
  Zr  Zr13  1  0.89609534  0.69143170  0.09841236  1
  Zr  Zr14  1  0.10660799  0.70435159  0.30948380  1
  Zr  Zr15  1  0.70304451  0.89531152  0.30901570  1
  Zr  Zr16  1  0.90067704  0.10700246  0.70079486  1
  Zr  Zr17  1  0.09848557  0.29407604  0.50784942  1
  Zr  Zr18  1  0.31030555  0.90082018  0.70029715  1
  Zr  Zr19  1  0.29963019  0.29210854  0.49554071  1
  Zr  Zr20  1  0.10906412  0.30634898  0.90383798  1
  Zr  Zr21  1  0.10975787  0.10053457  0.10253113  1
  Zr  Zr22  1  0.08270114  0.49652568  0.11035231  1
  Zr  Zr23  1  0.10777264  0.10079354  0.49654883  1
  Zr  Zr24  1  0.31086306  0.70009434  0.10411094  1
  Zr  Zr25  1  0.90523786  0.89383046  0.10025709  1
  Zr  Zr26  1  0.10379456  0.90071903  0.90807932  1
  Zr  Zr27  1  0.89519506  0.09718462  0.89960434  1
  Zr  Zr28  1  0.09947441  0.50675052  0.30387957  1
  Zr  Zr29  1  0.30546168  0.09772536  0.90288877  1
  Zr  Zr30  1  0.09433205  0.29857804  0.70350398  1
  Zr  Zr31  1  0.30332733  0.30303707  0.90607772  1
  Zr  Zr32  1  0.89808650  0.70485093  0.89952971  1
  Zr  Zr33  1  0.50610657  0.69904312  0.10400117  1
  Zr  Zr34  1  0.30646106  0.90540180  0.50305627  1
  Zr  Zr35  1  0.70126017  0.71281845  0.49229914  1
  Zr  Zr36  1  0.88947527  0.50692948  0.91606825  1
  Zr  Zr37  1  0.69130390  0.30662294  0.90287366  1
  Zr  Zr38  1  0.69703208  0.30890377  0.49179791  1
  Zr  Zr39  1  0.50063204  0.50838499  0.69584827  1
  Zr  Zr40  1  0.89707837  0.30424327  0.49124579  1
  Zr  Zr41  1  0.50937389  0.49412865  0.89455458  1
  Zr  Zr42  1  0.10399335  0.70188416  0.90029738  1
  Zr  Zr43  1  0.91105118  0.30478998  0.69641180  1
  Zr  Zr44  1  0.49217539  0.10364552  0.49773152  1
  Zr  Zr45  1  0.50142276  0.90635925  0.90161721  1
  Zr  Zr46  1  0.10046224  0.29381877  0.10094683  1
  Zr  Zr47  1  0.29164502  0.29027092  0.09751708  1
  Zr  Zr48  1  0.90248496  0.10003713  0.10688208  1
  Zr  Zr49  1  0.29981687  0.89647805  0.29867358  1
  Sc  Sc50  1  0.50378450  0.29407301  0.49807410  1
  Sc  Sc51  1  0.69013558  0.29542727  0.70344509  1
  Sc  Sc52  1  0.69923172  0.10244404  0.70186620  1
  Sc  Sc53  1  0.71108527  0.69870429  0.89580990  1
  Sc  Sc54  1  0.49078169  0.89343042  0.30656598  1
  Sc  Sc55  1  0.50374928  0.29960287  0.30502478  1
  Sc  Sc56  1  0.69111049  0.49213886  0.29564525  1
  Sc  Sc57  1  0.50459366  0.49639180  0.10585082  1
  Sc  Sc58  1  0.09792695  0.70639826  0.50115497  1
  Sc  Sc59  1  0.31176617  0.48794253  0.09935935  1
  Sc  Sc60  1  0.69270321  0.10077700  0.50873745  1
  Sc  Sc61  1  0.91305248  0.49956473  0.69781687  1
  Sc  Sc62  1  0.90155139  0.69927302  0.29358837  1
  Sc  Sc63  1  0.28525392  0.50798482  0.69670873  1
  Sc  Sc64  1  0.29942429  0.70480080  0.90125480  1
  Sc  Sc65  1  0.50140066  0.30345779  0.09381105  1
  Sc  Sc66  1  0.11429529  0.89826540  0.69649484  1
  Sc  Sc67  1  0.49127069  0.70675580  0.50300666  1
  Sc  Sc68  1  0.70623030  0.91753896  0.69486620  1
  Sc  Sc69  1  0.29756858  0.29637395  0.30063354  1
  Sc  Sc70  1  0.89263153  0.89777931  0.49707532  1
  Sc  Sc71  1  0.89645005  0.89991623  0.69559568  1
  Sc  Sc72  1  0.50108851  0.29175262  0.69712265  1
  Sc  Sc73  1  0.10134812  0.49473551  0.70243272  1
  Sc  Sc74  1  0.29815119  0.48970416  0.30391888  1
  Sc  Sc75  1  0.69863817  0.29994573  0.30192100  1
  Sc  Sc76  1  0.10124843  0.29866031  0.29075076  1
  Sc  Sc77  1  0.49892571  0.70113118  0.29685232  1
  Sc  Sc78  1  0.49436850  0.70237963  0.70108440  1
  Sc  Sc79  1  0.29946359  0.90267456  0.89190009  1
  Sc  Sc80  1  0.69520464  0.88709478  0.09862588  1
  Sc  Sc81  1  0.30629972  0.09170307  0.69671322  1
  Sc  Sc82  1  0.50219736  0.29258136  0.90006118  1
  Sc  Sc83  1  0.70101219  0.70026645  0.10964543  1
  Sc  Sc84  1  0.10079591  0.49540138  0.90045990  1
  Sc  Sc85  1  0.29231826  0.70163152  0.50332723  1
  Sc  Sc86  1  0.90593376  0.29971423  0.89705211  1
  Sc  Sc87  1  0.69630815  0.29914819  0.09252859  1
  Sc  Sc88  1  0.90753798  0.10432905  0.48490453  1
  Sc  Sc89  1  0.10755930  0.09229016  0.90717799  1
  Sc  Sc90  1  0.49633961  0.08658656  0.08588024  1
  Sc  Sc91  1  0.49158243  0.70806789  0.90778596  1
  Sc  Sc92  1  0.69393244  0.10360761  0.89493398  1
  Sc  Sc93  1  0.50326552  0.10099101  0.69539035  1
  Sc  Sc94  1  0.50203698  0.49147791  0.29304525  1
  Sc  Sc95  1  0.90133463  0.70870944  0.70064566  1
  Sc  Sc96  1  0.68264502  0.50733684  0.71053157  1
  Sc  Sc97  1  0.90469987  0.29544324  0.09521978  1
  Sc  Sc98  1  0.69176111  0.70454297  0.29540368  1
  Sc  Sc99  1  0.09428731  0.71260099  0.10510211  1
  Nb  Nb100  1  0.69272741  0.90209672  0.49902771  1
  Nb  Nb101  1  0.89223764  0.09779171  0.29378887  1
  Nb  Nb102  1  0.29730733  0.09209302  0.10779783  1
  Nb  Nb103  1  0.30187749  0.69817419  0.30498117  1
  Nb  Nb104  1  0.09823467  0.10191081  0.69998723  1
  Nb  Nb105  1  0.09439769  0.89846153  0.30186254  1
  Nb  Nb106  1  0.69973730  0.49976965  0.90141002  1
  Nb  Nb107  1  0.50157458  0.89429981  0.10118846  1
  Nb  Nb108  1  0.70248249  0.09209081  0.29153968  1
  Nb  Nb109  1  0.50155205  0.90107092  0.50267152  1
  Nb  Nb110  1  0.89269849  0.29575577  0.30096799  1
  Nb  Nb111  1  0.09387934  0.90079668  0.49826246  1
  Nb  Nb112  1  0.29912254  0.91169663  0.11097337  1
  Nb  Nb113  1  0.49888358  0.09910516  0.89735455  1
  Nb  Nb114  1  0.49956574  0.09556470  0.29955255  1
  Nb  Nb115  1  0.30043688  0.49706044  0.49653822  1
  Nb  Nb116  1  0.30302573  0.10338666  0.49369219  1
  Nb  Nb117  1  0.90221843  0.92345996  0.30214078  1
  Nb  Nb118  1  0.11065115  0.90515852  0.10459289  1
  Nb  Nb119  1  0.70466798  0.49542230  0.09184318  1
  Nb  Nb120  1  0.69726843  0.49969647  0.50028590  1
  Nb  Nb121  1  0.49683704  0.90195678  0.69681031  1
  Nb  Nb122  1  0.70451406  0.90014030  0.89672774  1
  Nb  Nb123  1  0.50274196  0.50069284  0.50248362  1
  Nb  Nb124  1  0.89241856  0.50145120  0.10468480  1
  Nb  Nb125  1  0.39857442  0.40413275  0.79208101  1
  Nb  Nb126  1  0.39630335  0.59533448  0.80137905  1
  Nb  Nb127  1  0.59681574  0.59665124  0.40621820  1
  Nb  Nb128  1  0.60664335  0.59549021  -0.00067233  1
  Nb  Nb129  1  0.59996980  0.81082874  0.79766974  1
  Nb  Nb130  1  0.39882875  0.40614922  0.59647770  1
  Nb  Nb131  1  0.79462570  0.59670223  0.40330958  1
  Nb  Nb132  1  0.20042155  0.59992419  0.01300361  1
  Nb  Nb133  1  0.40415418  0.18761774  0.19892175  1
  Nb  Nb134  1  0.00453575  0.00048627  0.79481032  1
  Nb  Nb135  1  0.00591080  0.00357398  0.59977995  1
  Nb  Nb136  1  0.80430125  0.40138483  0.19411501  1
  Nb  Nb137  1  0.79400689  0.40508930  0.60421839  1
  Nb  Nb138  1  0.59974228  -0.00150461  0.39802349  1
  Nb  Nb139  1  0.79472012  0.59491089  0.59530420  1
  Nb  Nb140  1  0.20481185  0.60279810  0.19934617  1
  Nb  Nb141  1  0.79958147  -0.00631742  -0.00196877  1
  Nb  Nb142  1  0.40019801  0.59308907  0.40434348  1
  Nb  Nb143  1  0.80352886  0.21119565  0.59670595  1
  Nb  Nb144  1  0.79660183  0.40505426  0.79953587  1
  Nb  Nb145  1  0.00059538  0.60500265  0.80604894  1
  Nb  Nb146  1  0.59898446  0.81109542  0.60204991  1
  Nb  Nb147  1  0.20018642  0.19695887  0.79896936  1
  Nb  Nb148  1  0.59707243  -0.00234181  0.20386564  1
  Nb  Nb149  1  0.59619612  0.18698249  0.20056060  1
  Pd  Pd150  1  0.19897841  0.80273231  0.79839807  1
  Pd  Pd151  1  0.20065460  0.00175758  0.59882102  1
  Pd  Pd152  1  0.00996563  0.80333589  0.79054762  1
  Pd  Pd153  1  0.79653284  0.21209064  0.79599753  1
  Pd  Pd154  1  0.60893857  0.78953248  -0.00866039  1
  Pd  Pd155  1  0.40624826  0.39862750  0.40505799  1
  Pd  Pd156  1  0.01055694  0.39020186  0.39556123  1
  Pd  Pd157  1  0.00177105  0.20621133  0.39017879  1
  Pd  Pd158  1  0.19158580  0.39365006  0.40228714  1
  Pd  Pd159  1  -0.00340099  0.80300470  0.20814524  1
  Pd  Pd160  1  0.00770149  0.60230988  -0.00073366  1
  Pd  Pd161  1  0.78937658  0.18962269  0.40244085  1
  Pd  Pd162  1  0.39376989  -0.00864899  0.00018050  1
  Pd  Pd163  1  0.81043285  0.59072884  0.78780875  1
  Pd  Pd164  1  0.80705615  0.80702730  0.20750211  1
  Pd  Pd165  1  0.00135523  0.80148217  0.00229339  1
  Pd  Pd166  1  0.20447544  0.80810340  0.40787168  1
  Pd  Pd167  1  0.78944358  0.59176775  0.21020405  1
  Pd  Pd168  1  0.40396817  0.19767791  0.00918731  1
  Pd  Pd169  1  0.19834799  0.40334650  0.59629685  1
  Pd  Pd170  1  0.20279529  0.79710573  0.19869166  1
  Pd  Pd171  1  0.81088240  0.01440037  0.58958519  1
  Pd  Pd172  1  0.01115659  0.19162006  0.81449623  1
  Pd  Pd173  1  0.79234052  -0.01303888  0.18947121  1
  Pd  Pd174  1  0.40382710  0.80191163  0.20082889  1
  Pd  Pd175  1  0.19757697  -0.00735507  0.39711806  1
  Pd  Pd176  1  0.00637867  -0.00114965  0.19549281  1
  Pd  Pd177  1  -0.00416869  -0.00129774  -0.00152387  1
  Pd  Pd178  1  0.21077432  0.80045429  0.00894225  1
  Pd  Pd179  1  0.59737226  0.00085916  0.79592055  1
  Pd  Pd180  1  0.60873105  -0.00178127  0.00268056  1
  Pd  Pd181  1  -0.00408027  0.39930335  0.00029501  1
  Pd  Pd182  1  0.60699948  0.19027278  0.39395269  1
  Pd  Pd183  1  0.39743630  0.20140561  0.79508786  1
  Pd  Pd184  1  -0.01003337  0.80438647  0.39487758  1
  Pd  Pd185  1  0.59753583  0.39464301  0.60474147  1
  Pd  Pd186  1  0.40434241  0.59105424  -0.00518713  1
  Pd  Pd187  1  0.40038689  0.38338647  0.20056470  1
  Pd  Pd188  1  0.38972917  0.59824387  0.59907194  1
  Pd  Pd189  1  0.39684028  0.59258192  0.21261092  1
  Pd  Pd190  1  0.20162087  0.40652451  0.19674322  1
  Pd  Pd191  1  0.79422676  0.21067274  0.19794304  1
  Pd  Pd192  1  0.79906283  0.20035462  -0.00554055  1
  Pd  Pd193  1  0.00646746  0.19472717  -0.00422252  1
  Pd  Pd194  1  0.79257407  0.79786913  0.60579135  1
  Pd  Pd195  1  0.79284361  0.00884852  0.41017550  1
  Pd  Pd196  1  0.60389313  0.61508821  0.59047009  1
  Pd  Pd197  1  0.81250512  0.79559234  0.39107110  1
  Pd  Pd198  1  0.20590866  0.19114233  0.60622618  1
  Pd  Pd199  1  0.39056566  0.81364810  0.00365450  1
  Rh  Rh200  1  0.79725482  0.79978176  0.00315558  1
  Rh  Rh201  1  0.20369064  0.19254956  -0.00566219  1
  Rh  Rh202  1  0.59352719  0.40642483  0.39866510  1
  Rh  Rh203  1  0.78969343  0.60833115  0.00646880  1
  Rh  Rh204  1  0.00115174  -0.00244877  0.40510990  1
  Rh  Rh205  1  0.60634561  0.20159994  0.59782343  1
  Rh  Rh206  1  0.19231675  -0.00190573  0.21120894  1
  Rh  Rh207  1  0.20138300  0.80515786  0.59430827  1
  Rh  Rh208  1  0.40851186  0.00308550  0.79905671  1
  Rh  Rh209  1  0.59358231  0.80734246  0.20496469  1
  Rh  Rh210  1  0.19169452  0.41065759  0.01674352  1
  Rh  Rh211  1  -0.00615005  0.19227022  0.59175467  1
  Rh  Rh212  1  0.39725677  0.20239730  0.59739531  1
  Rh  Rh213  1  0.40604607  0.79707389  0.79996969  1
  Rh  Rh214  1  0.39525848  0.79338706  0.40441731  1
  Rh  Rh215  1  -0.01199672  0.38550813  0.20120538  1
  Rh  Rh216  1  0.80284648  0.39218311  -0.00079579  1
  Rh  Rh217  1  0.20900440  0.19030506  0.20793662  1
  Rh  Rh218  1  0.40376298  0.00599442  0.59687882  1
  Rh  Rh219  1  0.59366396  -0.00042335  0.59593854  1
  Rh  Rh220  1  0.59786803  0.39348894  0.79522607  1
  Rh  Rh221  1  0.40867516  0.40054044  -0.00809872  1
  Rh  Rh222  1  -0.00706519  0.61139769  0.39750150  1
  Rh  Rh223  1  0.19874118  0.60127997  0.81235924  1
  Rh  Rh224  1  0.01056893  0.61288287  0.20386367  1
  Rh  Rh225  1  0.39854931  0.20213079  0.39112686  1
  Rh  Rh226  1  0.59341088  0.19257416  0.00205168  1
  Rh  Rh227  1  0.19919389  0.19975427  0.39319739  1
  Rh  Rh228  1  -0.01136115  0.41536324  0.81501580  1
  Rh  Rh229  1  0.20904631  -0.00516495  0.00261218  1
  Rh  Rh230  1  0.19899367  0.60109980  0.59326923  1
  Rh  Rh231  1  0.00411253  0.40451871  0.58985282  1
  Rh  Rh232  1  0.60212443  0.59665438  0.19616938  1
  Rh  Rh233  1  0.59433764  0.19497622  0.80312911  1
  Rh  Rh234  1  0.58741859  0.61883955  0.81716224  1
  Rh  Rh235  1  0.40954059  -0.00187856  0.19404880  1
  Rh  Rh236  1  0.78868764  0.80900273  0.78943041  1
  Rh  Rh237  1  -0.00097703  0.60066306  0.60659803  1
  Rh  Rh238  1  -0.00648719  0.19985325  0.20520553  1
  Rh  Rh239  1  0.80518505  -0.00065484  0.80429377  1
  Rh  Rh240  1  0.58906574  0.79982110  0.40478556  1
  Rh  Rh241  1  0.60864781  0.38734238  0.19473098  1
  Rh  Rh242  1  0.40158541  0.80197755  0.59910676  1
  Rh  Rh243  1  0.59571067  0.40636198  0.00362304  1
  Rh  Rh244  1  0.79942678  0.40982778  0.38936815  1
  Rh  Rh245  1  0.21052684  0.59889071  0.39562352  1
  Rh  Rh246  1  0.40505449  -0.00425950  0.40455359  1
  Rh  Rh247  1  0.19691840  0.00734629  0.79846627  1
  Rh  Rh248  1  0.00395251  0.81384756  0.60241275  1
  Rh  Rh249  1  0.20437432  0.39164403  0.79615942  1
