# generated using pymatgen
data_ZrScNbPdRh
_symmetry_space_group_name_H-M   'P 1'
_cell_length_a   16.56402465
_cell_length_b   16.56292860
_cell_length_c   16.56880938
_cell_angle_alpha   90.03185202
_cell_angle_beta   89.99210115
_cell_angle_gamma   90.00506048
_symmetry_Int_Tables_number   1
_chemical_formula_structural   ZrScNbPdRh
_chemical_formula_sum   'Zr50 Sc50 Nb50 Pd50 Rh50'
_cell_volume   4545.63150521
_cell_formula_units_Z   50
loop_
 _symmetry_equiv_pos_site_id
 _symmetry_equiv_pos_as_xyz
  1  'x, y, z'
loop_
 _atom_site_type_symbol
 _atom_site_label
 _atom_site_symmetry_multiplicity
 _atom_site_fract_x
 _atom_site_fract_y
 _atom_site_fract_z
 _atom_site_occupancy
  Zr  Zr0  1  0.30185574  0.90591937  0.49938233  1
  Zr  Zr1  1  0.30063700  0.49072685  0.89896118  1
  Zr  Zr2  1  0.49941743  0.70190591  0.49765018  1
  Zr  Zr3  1  0.50073692  0.10710911  0.90126942  1
  Zr  Zr4  1  0.09631807  0.29368274  0.29786890  1
  Zr  Zr5  1  0.29612099  0.69569592  0.69377635  1
  Zr  Zr6  1  0.90608133  0.69874226  0.09935149  1
  Zr  Zr7  1  0.50923343  0.50056631  0.90691538  1
  Zr  Zr8  1  0.09431251  0.10439626  0.69953096  1
  Zr  Zr9  1  0.49685646  0.90291010  0.30021064  1
  Zr  Zr10  1  0.10194424  0.30107537  0.90210104  1
  Zr  Zr11  1  0.50019205  0.30447886  0.29604597  1
  Zr  Zr12  1  0.70145145  0.30699268  0.30462912  1
  Zr  Zr13  1  0.09843600  0.29817535  0.70031962  1
  Zr  Zr14  1  0.90449181  0.50541093  0.30266125  1
  Zr  Zr15  1  0.70217494  0.49783840  0.49493250  1
  Zr  Zr16  1  0.89614139  0.70930594  0.29620813  1
  Zr  Zr17  1  0.89430531  0.10769302  0.50308683  1
  Zr  Zr18  1  0.49925125  0.10170641  0.28734355  1
  Zr  Zr19  1  0.89799100  0.89335242  0.49961037  1
  Zr  Zr20  1  0.90997188  0.30134841  0.10144449  1
  Zr  Zr21  1  0.90762278  0.89964825  0.89419091  1
  Zr  Zr22  1  0.29306914  0.70364451  0.11045420  1
  Zr  Zr23  1  0.50550630  0.30203594  0.49945533  1
  Zr  Zr24  1  0.10937063  0.71261035  0.30095872  1
  Zr  Zr25  1  0.29721489  0.90294522  0.70502438  1
  Zr  Zr26  1  0.30390573  0.69497067  0.49564482  1
  Zr  Zr27  1  0.71011464  0.70489142  0.10120980  1
  Zr  Zr28  1  0.30028000  0.89743576  0.09236609  1
  Zr  Zr29  1  0.49916709  0.89596261  0.49719547  1
  Zr  Zr30  1  0.09545399  0.29446459  0.50083563  1
  Zr  Zr31  1  0.30460859  0.30053729  0.09255910  1
  Zr  Zr32  1  0.69481664  0.68734006  0.89631921  1
  Zr  Zr33  1  0.89766421  0.50721344  0.50638809  1
  Zr  Zr34  1  0.89678498  0.70130178  0.70205594  1
  Zr  Zr35  1  0.29449413  0.90348237  0.90107791  1
  Zr  Zr36  1  0.10539017  0.49323316  0.30279650  1
  Zr  Zr37  1  0.70724944  0.90253531  0.69915089  1
  Zr  Zr38  1  0.48982693  0.90733667  0.90516846  1
  Zr  Zr39  1  0.09319393  0.48775013  0.10241739  1
  Zr  Zr40  1  0.91169504  0.69795298  0.49692237  1
  Zr  Zr41  1  0.49762075  0.70055711  0.69538546  1
  Zr  Zr42  1  0.89446210  0.29326746  0.29709473  1
  Zr  Zr43  1  0.29356671  0.89062660  0.30426412  1
  Zr  Zr44  1  0.49540485  0.50427151  0.48713314  1
  Zr  Zr45  1  0.50043510  0.69603514  0.90452681  1
  Zr  Zr46  1  0.89649137  0.90064908  0.70488135  1
  Zr  Zr47  1  0.29779668  0.09026256  0.69557538  1
  Zr  Zr48  1  0.29929969  0.10624430  0.10284886  1
  Zr  Zr49  1  0.49287199  0.30475128  0.90644232  1
  Sc  Sc50  1  0.31182993  0.29953673  0.49753376  1
  Sc  Sc51  1  0.70107963  0.69914802  0.49498211  1
  Sc  Sc52  1  0.69813175  0.50255758  0.29222684  1
  Sc  Sc53  1  0.49381568  0.49540388  0.70750734  1
  Sc  Sc54  1  0.30464808  0.09770542  0.30163239  1
  Sc  Sc55  1  0.68988304  0.10331848  0.90539394  1
  Sc  Sc56  1  0.09666668  0.10212879  0.09831916  1
  Sc  Sc57  1  0.69709301  0.89955650  0.50516455  1
  Sc  Sc58  1  0.91122612  0.09659904  0.90003946  1
  Sc  Sc59  1  0.70611712  0.89659497  0.91058836  1
  Sc  Sc60  1  0.50396820  0.10111839  0.69356180  1
  Sc  Sc61  1  0.71433783  0.50137418  0.71363073  1
  Sc  Sc62  1  0.70770367  0.11563529  0.28872900  1
  Sc  Sc63  1  0.49450403  0.10060372  0.50693209  1
  Sc  Sc64  1  0.91021551  0.30016929  0.89140127  1
  Sc  Sc65  1  0.70118879  0.69706194  0.29434037  1
  Sc  Sc66  1  0.50316012  0.29830155  0.70231193  1
  Sc  Sc67  1  0.09809140  0.89640995  0.09654873  1
  Sc  Sc68  1  0.09717371  0.89906549  0.48471575  1
  Sc  Sc69  1  0.09326692  0.49514710  0.89745356  1
  Sc  Sc70  1  0.09481125  0.51203753  0.49008643  1
  Sc  Sc71  1  0.09975706  0.89779888  0.71321707  1
  Sc  Sc72  1  0.70888042  0.29806144  0.50066458  1
  Sc  Sc73  1  0.49531885  0.90427947  0.68674490  1
  Sc  Sc74  1  0.68406349  0.29978713  0.89174869  1
  Sc  Sc75  1  0.29738082  0.50308753  0.70028971  1
  Sc  Sc76  1  0.90787960  0.09886340  0.09567098  1
  Sc  Sc77  1  0.89568233  0.29762983  0.49990900  1
  Sc  Sc78  1  0.30262261  0.29769479  0.28912487  1
  Sc  Sc79  1  0.90941073  0.10650200  0.29795405  1
  Sc  Sc80  1  0.30143230  0.70751431  0.91868896  1
  Sc  Sc81  1  0.30061646  0.08643101  0.90513195  1
  Sc  Sc82  1  0.90172859  0.49245715  0.10449294  1
  Sc  Sc83  1  0.10470578  0.90090225  0.90163996  1
  Sc  Sc84  1  0.89834491  0.29810558  0.69861161  1
  Sc  Sc85  1  0.09652014  0.09536553  0.90375857  1
  Sc  Sc86  1  0.09795124  0.09916948  0.50294743  1
  Sc  Sc87  1  0.49948847  0.49531809  0.09958969  1
  Sc  Sc88  1  0.69879525  0.10307411  0.51354575  1
  Sc  Sc89  1  0.30517971  0.31381943  0.70066850  1
  Sc  Sc90  1  0.11079516  0.50736025  0.70641556  1
  Sc  Sc91  1  0.30519227  0.50045307  0.10905986  1
  Sc  Sc92  1  0.69935078  0.29741390  0.69566223  1
  Sc  Sc93  1  0.09794334  0.69782170  0.70847904  1
  Sc  Sc94  1  0.50372537  0.50054494  0.29768283  1
  Sc  Sc95  1  0.70704255  0.30254876  0.11571355  1
  Sc  Sc96  1  0.10344946  0.29463242  0.10107044  1
  Sc  Sc97  1  0.89783111  0.89366447  0.09449081  1
  Sc  Sc98  1  0.49962039  0.69907796  0.30391487  1
  Sc  Sc99  1  0.48903769  0.69887431  0.09542402  1
  Nb  Nb100  1  0.50291358  0.10104163  0.09614541  1
  Nb  Nb101  1  0.69338126  0.69775961  0.70678290  1
  Nb  Nb102  1  0.48866773  0.29553193  0.10047139  1
  Nb  Nb103  1  0.70172485  0.90309087  0.10051035  1
  Nb  Nb104  1  0.88875205  0.49592974  0.88721923  1
  Nb  Nb105  1  0.29213410  0.09846818  0.50165739  1
  Nb  Nb106  1  0.70845832  0.50311886  0.09793445  1
  Nb  Nb107  1  0.10200250  0.09637495  0.30264269  1
  Nb  Nb108  1  0.09955007  0.69633850  0.09877426  1
  Nb  Nb109  1  0.90915485  0.69256513  0.89981825  1
  Nb  Nb110  1  0.29529946  0.50223020  0.49636168  1
  Nb  Nb111  1  0.30062225  0.29797249  0.89944232  1
  Nb  Nb112  1  0.70160248  0.09753365  0.09811134  1
  Nb  Nb113  1  0.70186463  0.49866803  0.90344704  1
  Nb  Nb114  1  0.70275809  0.90192837  0.29545728  1
  Nb  Nb115  1  0.30077717  0.50624853  0.30704740  1
  Nb  Nb116  1  0.89473107  0.49444373  0.70067321  1
  Nb  Nb117  1  0.50394860  0.90986892  0.10202442  1
  Nb  Nb118  1  0.89397745  0.09497174  0.70189147  1
  Nb  Nb119  1  0.09203730  0.69450824  0.90872858  1
  Nb  Nb120  1  0.09743221  0.90901688  0.30194030  1
  Nb  Nb121  1  0.70131826  0.09642123  0.69940472  1
  Nb  Nb122  1  0.09892712  0.70393745  0.50438124  1
  Nb  Nb123  1  0.29879126  0.69976535  0.29618307  1
  Nb  Nb124  1  0.90098661  0.90287328  0.30096779  1
  Nb  Nb125  1  0.20186610  0.19547766  0.40194669  1
  Nb  Nb126  1  -0.00899599  -0.00152759  0.60414090  1
  Nb  Nb127  1  0.00738346  0.60424371  0.20042588  1
  Nb  Nb128  1  0.60270287  0.40940412  0.59622765  1
  Nb  Nb129  1  0.40136994  0.79864319  0.80035662  1
  Nb  Nb130  1  0.39352969  0.19928071  0.80380447  1
  Nb  Nb131  1  0.79688934  -0.00087878  0.39200884  1
  Nb  Nb132  1  0.79761260  0.19270554  0.80098405  1
  Nb  Nb133  1  0.59676149  0.80380023  0.79957490  1
  Nb  Nb134  1  0.39946534  0.60545431  0.80721877  1
  Nb  Nb135  1  0.60238628  0.59515883  0.60321938  1
  Nb  Nb136  1  0.19542363  -0.00258467  0.20641581  1
  Nb  Nb137  1  0.79656172  0.40036011  -0.00768943  1
  Nb  Nb138  1  0.60597565  0.00636973  0.39318020  1
  Nb  Nb139  1  0.60185099  0.81147775  0.19240871  1
  Nb  Nb140  1  0.19721445  0.79659730  0.59495967  1
  Nb  Nb141  1  0.60237035  -0.00477621  0.79721773  1
  Nb  Nb142  1  0.19106149  0.59952976  0.00608272  1
  Nb  Nb143  1  0.59839815  0.19790059  0.39772913  1
  Nb  Nb144  1  0.00121435  0.40712746  0.60126482  1
  Nb  Nb145  1  0.79899766  0.20470520  -0.00276201  1
  Nb  Nb146  1  0.20752149  0.20148487  0.80178491  1
  Nb  Nb147  1  0.80453077  0.59224619  -0.00645914  1
  Nb  Nb148  1  0.19715712  0.40596689  0.58926023  1
  Nb  Nb149  1  0.79947217  -0.00408843  0.19972469  1
  Pd  Pd150  1  0.60875449  0.00230489  0.20279815  1
  Pd  Pd151  1  0.79420688  0.80290321  0.40037457  1
  Pd  Pd152  1  0.60815813  0.39119844  0.01296324  1
  Pd  Pd153  1  0.19770601  0.60648776  0.39880898  1
  Pd  Pd154  1  0.80575027  0.00955850  0.00051152  1
  Pd  Pd155  1  0.40510928  0.58926341  0.60357134  1
  Pd  Pd156  1  0.19419432  0.59301146  0.19719289  1
  Pd  Pd157  1  0.59526006  0.80249532  0.00229726  1
  Pd  Pd158  1  -0.00401876  0.58510035  0.00317845  1
  Pd  Pd159  1  0.59634809  0.60968844  0.19338341  1
  Pd  Pd160  1  0.59984166  0.20611398  0.19624502  1
  Pd  Pd161  1  -0.00395667  0.59376580  0.79425832  1
  Pd  Pd162  1  0.60524402  0.60053013  0.01438236  1
  Pd  Pd163  1  0.80704409  0.40369509  0.39720291  1
  Pd  Pd164  1  -0.00121053  -0.00257314  0.19421146  1
  Pd  Pd165  1  0.19951881  0.19355564  -0.00773188  1
  Pd  Pd166  1  0.00468108  0.80313528  0.20150423  1
  Pd  Pd167  1  0.20164208  0.40514169  0.00371147  1
  Pd  Pd168  1  0.79246799  0.60608813  0.60452154  1
  Pd  Pd169  1  0.20209565  0.78882802  0.80409316  1
  Pd  Pd170  1  0.00346201  0.80509532  -0.00447008  1
  Pd  Pd171  1  0.40587037  0.00736092  0.40261169  1
  Pd  Pd172  1  0.00301240  0.40463914  0.79178936  1
  Pd  Pd173  1  0.00965554  0.80829037  0.60638689  1
  Pd  Pd174  1  0.79462762  0.79320879  0.80910166  1
  Pd  Pd175  1  0.79166901  0.00806445  0.81596501  1
  Pd  Pd176  1  0.60677223  0.79525624  0.60424601  1
  Pd  Pd177  1  0.40104097  0.40845402  0.59740633  1
  Pd  Pd178  1  0.79652752  0.60306256  0.39466231  1
  Pd  Pd179  1  0.39461102  0.40009077  0.39145796  1
  Pd  Pd180  1  0.60011483  -0.00162716  -0.00582769  1
  Pd  Pd181  1  0.20789705  0.38837590  0.40376852  1
  Pd  Pd182  1  0.59821777  0.40112214  0.19286823  1
  Pd  Pd183  1  0.20724508  0.39750472  0.19987476  1
  Pd  Pd184  1  -0.00953721  0.00672470  0.40778441  1
  Pd  Pd185  1  0.40475721  0.59808215  0.20534951  1
  Pd  Pd186  1  0.20804667  0.60833552  0.81882277  1
  Pd  Pd187  1  -0.00815414  0.39557468  0.40640907  1
  Pd  Pd188  1  0.79557334  0.79021285  0.59783210  1
  Pd  Pd189  1  0.60658353  0.21149334  0.01501914  1
  Pd  Pd190  1  0.18255827  -0.01241454  0.59763034  1
  Pd  Pd191  1  0.80618275  0.78958100  -0.01006453  1
  Pd  Pd192  1  0.00541157  0.59450612  0.61188061  1
  Pd  Pd193  1  0.40050614  0.19508102  0.39825380  1
  Pd  Pd194  1  0.60310879  0.40491468  0.78993542  1
  Pd  Pd195  1  0.38945868  -0.00276496  0.19568777  1
  Pd  Pd196  1  0.21158086  0.21092963  0.60014480  1
  Pd  Pd197  1  0.60599915  0.80424843  0.39026274  1
  Pd  Pd198  1  0.39479995  0.20093711  0.60930706  1
  Pd  Pd199  1  0.40758673  0.80124499  0.19965666  1
  Rh  Rh200  1  -0.00138970  0.19469166  0.79952934  1
  Rh  Rh201  1  0.19420954  0.81012386  0.19636533  1
  Rh  Rh202  1  0.80014351  0.20137733  0.61138663  1
  Rh  Rh203  1  0.39870844  0.40375387  0.20306001  1
  Rh  Rh204  1  0.59132432  0.59807376  0.79127384  1
  Rh  Rh205  1  0.59850426  0.18893322  0.79018831  1
  Rh  Rh206  1  0.40219383  0.40017607  0.80516837  1
  Rh  Rh207  1  0.39550742  0.79341976  0.39580911  1
  Rh  Rh208  1  0.80329393  0.40565203  0.20182769  1
  Rh  Rh209  1  -0.00323400  0.20451915  -0.00181437  1
  Rh  Rh210  1  0.79107907  0.19166564  0.40177119  1
  Rh  Rh211  1  0.00068611  0.79757239  0.39365576  1
  Rh  Rh212  1  0.00633896  0.61310658  0.38758720  1
  Rh  Rh213  1  0.00394810  0.00086622  0.79566368  1
  Rh  Rh214  1  0.40089881  0.20012967  0.19572254  1
  Rh  Rh215  1  0.19377634  0.60005136  0.59129057  1
  Rh  Rh216  1  0.00175216  0.79408850  0.80587547  1
  Rh  Rh217  1  0.60094329  -0.00273332  0.59827965  1
  Rh  Rh218  1  0.00013359  -0.00775964  0.00105961  1
  Rh  Rh219  1  0.80450296  -0.00094538  0.58997703  1
  Rh  Rh220  1  0.60268817  0.20879723  0.59521837  1
  Rh  Rh221  1  0.80959821  0.19019792  0.18501913  1
  Rh  Rh222  1  0.60323892  0.39614403  0.40347346  1
  Rh  Rh223  1  0.00628727  0.19613456  0.40026993  1
  Rh  Rh224  1  0.40022950  0.00116597  0.59516659  1
  Rh  Rh225  1  0.19581170  0.00241877  0.01167534  1
  Rh  Rh226  1  0.41004430  0.00224575  0.79367064  1
  Rh  Rh227  1  -0.00926384  0.40079982  -0.00950917  1
  Rh  Rh228  1  0.39966886  0.40394538  0.00249882  1
  Rh  Rh229  1  0.00381233  0.19766273  0.19827121  1
  Rh  Rh230  1  0.80675251  0.60707506  0.80291212  1
  Rh  Rh231  1  0.20278384  0.79631462  0.40814320  1
  Rh  Rh232  1  0.40461550  0.80616242  0.00209883  1
  Rh  Rh233  1  0.79730287  0.80851753  0.19886668  1
  Rh  Rh234  1  0.60294278  0.60043843  0.40218338  1
  Rh  Rh235  1  0.19299977  0.01128850  0.80256628  1
  Rh  Rh236  1  0.79455335  0.38364581  0.80511299  1
  Rh  Rh237  1  -0.00197067  0.39993517  0.21226375  1
  Rh  Rh238  1  0.39796588  0.19430837  -0.00376937  1
  Rh  Rh239  1  0.19109633  0.79279963  -0.00069423  1
  Rh  Rh240  1  0.20241302  0.00838693  0.39591121  1
  Rh  Rh241  1  -0.01085711  0.19901069  0.60247809  1
  Rh  Rh242  1  0.38810146  0.58908668  -0.00264768  1
  Rh  Rh243  1  0.19674626  0.19090712  0.20885099  1
  Rh  Rh244  1  0.81024333  0.59555964  0.19420572  1
  Rh  Rh245  1  0.39764276  0.60337936  0.39136973  1
  Rh  Rh246  1  0.19702070  0.39227961  0.79298151  1
  Rh  Rh247  1  0.80207011  0.40013680  0.60298436  1
  Rh  Rh248  1  0.40073216  0.00741020  0.01030966  1
  Rh  Rh249  1  0.38489278  0.80580204  0.60311097  1
