# generated using pymatgen
data_ZrScNbPdRh
_symmetry_space_group_name_H-M   'P 1'
_cell_length_a   16.56066071
_cell_length_b   16.55852750
_cell_length_c   16.56177209
_cell_angle_alpha   89.99477462
_cell_angle_beta   90.01430747
_cell_angle_gamma   90.01676626
_symmetry_Int_Tables_number   1
_chemical_formula_structural   ZrScNbPdRh
_chemical_formula_sum   'Zr50 Sc50 Nb50 Pd50 Rh50'
_cell_volume   4541.57137028
_cell_formula_units_Z   50
loop_
 _symmetry_equiv_pos_site_id
 _symmetry_equiv_pos_as_xyz
  1  'x, y, z'
loop_
 _atom_site_type_symbol
 _atom_site_label
 _atom_site_symmetry_multiplicity
 _atom_site_fract_x
 _atom_site_fract_y
 _atom_site_fract_z
 _atom_site_occupancy
  Zr  Zr0  1  0.69840541  0.70773624  0.10092610  1
  Zr  Zr1  1  0.49521211  0.31133021  0.69907640  1
  Zr  Zr2  1  0.70022489  0.90265787  0.29545207  1
  Zr  Zr3  1  0.89931000  0.30095909  0.90751169  1
  Zr  Zr4  1  0.29143724  0.69797997  0.69443359  1
  Zr  Zr5  1  0.29778862  0.89462452  0.90266579  1
  Zr  Zr6  1  0.30166729  0.30626139  0.30280755  1
  Zr  Zr7  1  0.70321892  0.90718668  0.70112084  1
  Zr  Zr8  1  0.29658361  0.50096721  0.28974909  1
  Zr  Zr9  1  0.10823765  0.68987284  0.50910045  1
  Zr  Zr10  1  0.30314773  0.09019718  0.90487467  1
  Zr  Zr11  1  0.89882931  0.08724977  0.69809921  1
  Zr  Zr12  1  0.30299045  0.70479723  0.89933617  1
  Zr  Zr13  1  0.29149671  0.10096294  0.69650977  1
  Zr  Zr14  1  0.09532778  0.29893770  0.90431003  1
  Zr  Zr15  1  0.50151905  0.70424765  0.49345386  1
  Zr  Zr16  1  0.29706538  0.69337672  0.09784875  1
  Zr  Zr17  1  0.89435078  0.90183417  0.50009787  1
  Zr  Zr18  1  0.10155064  0.70078845  0.89757865  1
  Zr  Zr19  1  0.10428890  0.09981104  0.50872695  1
  Zr  Zr20  1  0.70058520  0.89948602  0.10349872  1
  Zr  Zr21  1  0.68541858  0.09398919  0.10102293  1
  Zr  Zr22  1  0.30633080  0.10314806  0.49944639  1
  Zr  Zr23  1  0.69560629  0.48793386  0.30702116  1
  Zr  Zr24  1  0.30223729  0.69882367  0.50007952  1
  Zr  Zr25  1  0.50820336  0.89996901  0.69579538  1
  Zr  Zr26  1  0.89450227  0.50109541  0.70735427  1
  Zr  Zr27  1  0.89759103  0.69422236  0.10453303  1
  Zr  Zr28  1  0.50196660  0.29213792  0.09813899  1
  Zr  Zr29  1  0.09039546  0.90503386  0.70153261  1
  Zr  Zr30  1  0.89286218  0.89774841  0.30253552  1
  Zr  Zr31  1  0.10606185  0.90034862  0.29059162  1
  Zr  Zr32  1  0.10068066  0.89210270  0.49897952  1
  Zr  Zr33  1  0.49754976  0.50393298  0.89361255  1
  Zr  Zr34  1  0.50048565  0.90583530  0.50358967  1
  Zr  Zr35  1  0.70035863  0.09607367  0.70065099  1
  Zr  Zr36  1  0.50274058  0.69534319  0.29763611  1
  Zr  Zr37  1  0.90311273  0.49755759  0.08979886  1
  Zr  Zr38  1  0.30229932  0.50962050  0.90350005  1
  Zr  Zr39  1  0.09072752  0.10092447  0.90094622  1
  Zr  Zr40  1  0.69202350  0.31296438  0.48765031  1
  Zr  Zr41  1  0.30258803  0.30151743  0.10777025  1
  Zr  Zr42  1  0.29362240  0.49941796  0.49286542  1
  Zr  Zr43  1  0.30869344  0.90292717  0.49907387  1
  Zr  Zr44  1  0.51184196  0.49260593  0.50889172  1
  Zr  Zr45  1  0.50191490  0.89959765  0.09957384  1
  Zr  Zr46  1  0.90436190  0.10295742  0.50171330  1
  Zr  Zr47  1  0.10428311  0.50793203  0.10790844  1
  Zr  Zr48  1  0.89139388  0.90112356  0.08998191  1
  Zr  Zr49  1  0.69605122  0.70382756  0.29859617  1
  Sc  Sc50  1  0.10417399  0.90243084  0.09413322  1
  Sc  Sc51  1  0.69871443  0.69137911  0.71671971  1
  Sc  Sc52  1  0.89906922  0.70056110  0.48575423  1
  Sc  Sc53  1  0.69701310  0.69260429  0.90836041  1
  Sc  Sc54  1  0.69601058  0.10251458  0.89722042  1
  Sc  Sc55  1  0.49912350  0.90250751  0.30892935  1
  Sc  Sc56  1  0.51026887  0.29873428  0.30126668  1
  Sc  Sc57  1  0.09868923  0.69639141  0.09577315  1
  Sc  Sc58  1  0.90001841  0.30285249  0.09238774  1
  Sc  Sc59  1  0.69281476  0.69856834  0.48952587  1
  Sc  Sc60  1  0.90264285  0.69772704  0.71786869  1
  Sc  Sc61  1  0.08779564  0.51105804  0.69052368  1
  Sc  Sc62  1  0.49841764  0.50224027  0.29423464  1
  Sc  Sc63  1  0.69563792  0.09069354  0.49531450  1
  Sc  Sc64  1  0.09605055  0.90098925  0.90116260  1
  Sc  Sc65  1  0.50991468  0.69748829  0.09774433  1
  Sc  Sc66  1  0.29306351  0.90039408  0.09470417  1
  Sc  Sc67  1  0.90270307  0.90183909  0.89692154  1
  Sc  Sc68  1  0.90835662  0.30309045  0.50306987  1
  Sc  Sc69  1  0.30871656  0.30852800  0.90057130  1
  Sc  Sc70  1  0.09354710  0.50997626  0.90735752  1
  Sc  Sc71  1  0.30119376  0.89944262  0.70124597  1
  Sc  Sc72  1  0.90752362  0.50029580  0.50308087  1
  Sc  Sc73  1  0.48278455  0.90432770  0.90324433  1
  Sc  Sc74  1  0.09738826  0.29414216  0.09840909  1
  Sc  Sc75  1  0.10452129  0.10944438  0.29164339  1
  Sc  Sc76  1  0.89656332  0.10002541  0.90003496  1
  Sc  Sc77  1  0.89193839  0.69895372  0.29953446  1
  Sc  Sc78  1  0.09630425  0.29319693  0.51095423  1
  Sc  Sc79  1  0.51079786  0.09460792  0.70780909  1
  Sc  Sc80  1  0.09935400  0.70030350  0.70396301  1
  Sc  Sc81  1  0.31853865  0.49899402  0.70286573  1
  Sc  Sc82  1  0.90128091  0.69804046  0.90390527  1
  Sc  Sc83  1  0.09110276  0.10393287  0.69968774  1
  Sc  Sc84  1  0.49897784  0.69210166  0.69385386  1
  Sc  Sc85  1  0.10910958  0.29314894  0.29159345  1
  Sc  Sc86  1  0.09640296  0.68959712  0.29334312  1
  Sc  Sc87  1  0.31272385  0.29517722  0.50269776  1
  Sc  Sc88  1  0.89501941  0.50705856  0.29735043  1
  Sc  Sc89  1  0.69168745  0.29794499  0.70975329  1
  Sc  Sc90  1  0.10558611  0.10517274  0.09702121  1
  Sc  Sc91  1  0.30101612  0.11010272  0.30199142  1
  Sc  Sc92  1  0.69769942  0.30682899  0.10349820  1
  Sc  Sc93  1  0.70102742  0.50220439  0.09633922  1
  Sc  Sc94  1  0.90242404  0.10230503  0.09333100  1
  Sc  Sc95  1  0.90665937  0.29347853  0.69889512  1
  Sc  Sc96  1  0.71207108  0.90207474  0.90740696  1
  Sc  Sc97  1  0.30612165  0.30160008  0.69400341  1
  Sc  Sc98  1  0.69425755  0.89690296  0.49975108  1
  Sc  Sc99  1  0.70109817  0.29367285  0.90210421  1
  Nb  Nb100  1  0.89550188  0.49293077  0.90284155  1
  Nb  Nb101  1  0.90400038  0.29594805  0.29680979  1
  Nb  Nb102  1  0.50821961  0.09985188  0.29576338  1
  Nb  Nb103  1  0.30522441  0.09979626  0.10382121  1
  Nb  Nb104  1  0.09981124  0.49709151  0.49853868  1
  Nb  Nb105  1  0.49946242  0.29717377  0.50393657  1
  Nb  Nb106  1  0.49977173  0.49629740  0.09753675  1
  Nb  Nb107  1  0.70019769  0.49844311  0.50491937  1
  Nb  Nb108  1  0.30415608  0.49904139  0.10200701  1
  Nb  Nb109  1  0.70274499  0.49903929  0.89203092  1
  Nb  Nb110  1  0.49663513  0.09881006  0.09958208  1
  Nb  Nb111  1  0.70468308  0.30114757  0.29699303  1
  Nb  Nb112  1  0.89609939  0.89845019  0.69904206  1
  Nb  Nb113  1  0.51173145  0.49721060  0.70054154  1
  Nb  Nb114  1  0.69881038  0.10252107  0.29466008  1
  Nb  Nb115  1  0.50381951  0.29361851  0.89986623  1
  Nb  Nb116  1  0.10554313  0.49262869  0.30033878  1
  Nb  Nb117  1  0.09999820  0.30310689  0.70339222  1
  Nb  Nb118  1  0.50111016  0.10933817  0.91189283  1
  Nb  Nb119  1  0.30788064  0.69799909  0.29859282  1
  Nb  Nb120  1  0.49394445  0.10424041  0.48661011  1
  Nb  Nb121  1  0.90294431  0.10377291  0.29969074  1
  Nb  Nb122  1  0.29816163  0.90325165  0.29433986  1
  Nb  Nb123  1  0.50217958  0.70506273  0.90183456  1
  Nb  Nb124  1  0.69264897  0.50079339  0.70402671  1
  Nb  Nb125  1  0.39402419  0.80139922  0.20348313  1
  Nb  Nb126  1  0.59358571  0.40374696  -0.00552643  1
  Nb  Nb127  1  0.39951981  0.00278893  0.19968563  1
  Nb  Nb128  1  -0.00467783  0.80572922  0.19837483  1
  Nb  Nb129  1  0.40273526  0.19683015  0.80585705  1
  Nb  Nb130  1  0.79172897  0.40311348  0.60308324  1
  Nb  Nb131  1  0.00063893  0.40180570  0.80363506  1
  Nb  Nb132  1  -0.00372804  -0.00061683  0.20248715  1
  Nb  Nb133  1  0.79764433  0.19906038  0.20721382  1
  Nb  Nb134  1  0.79062136  0.20441567  0.59296539  1
  Nb  Nb135  1  0.19567834  0.40333021  0.60371277  1
  Nb  Nb136  1  0.20832864  0.79860495  0.39208825  1
  Nb  Nb137  1  0.20419102  0.40723087  0.00171972  1
  Nb  Nb138  1  0.59655438  0.20237585  0.59144279  1
  Nb  Nb139  1  0.19401996  0.40091584  0.79913453  1
  Nb  Nb140  1  0.20252614  0.20524550  0.80225452  1
  Nb  Nb141  1  0.79866111  0.20282168  0.39362114  1
  Nb  Nb142  1  0.59524126  0.80105841  0.80557574  1
  Nb  Nb143  1  -0.00876604  0.80072808  0.60182935  1
  Nb  Nb144  1  0.79414024  0.59737817  0.60222366  1
  Nb  Nb145  1  0.20129880  -0.00336785  0.39749138  1
  Nb  Nb146  1  0.80281039  0.79375193  0.60537941  1
  Nb  Nb147  1  0.00754762  0.40061771  0.39237758  1
  Nb  Nb148  1  0.00122276  0.40134064  0.20498478  1
  Nb  Nb149  1  0.00454512  0.00214718  0.39398247  1
  Pd  Pd150  1  0.41015064  0.39772074  0.20402094  1
  Pd  Pd151  1  0.41240141  0.18927435  0.61086985  1
  Pd  Pd152  1  0.60028210  0.80894974  -0.00961132  1
  Pd  Pd153  1  0.80656171  0.00966589  0.19396903  1
  Pd  Pd154  1  0.40830889  0.60621263  0.00510132  1
  Pd  Pd155  1  0.59733024  -0.00574765  -0.00856596  1
  Pd  Pd156  1  0.79918435  0.60023584  -0.00308809  1
  Pd  Pd157  1  0.00836635  0.79744753  0.39563087  1
  Pd  Pd158  1  -0.01447604  0.61280798  0.59963210  1
  Pd  Pd159  1  0.80807961  0.39764856  0.19587789  1
  Pd  Pd160  1  0.19617475  0.58897959  0.79134926  1
  Pd  Pd161  1  0.40289016  0.40073876  -0.00062903  1
  Pd  Pd162  1  0.19696537  0.00162243  0.00146885  1
  Pd  Pd163  1  0.80449216  0.20007666  0.79229325  1
  Pd  Pd164  1  0.79128670  0.19663777  0.01095982  1
  Pd  Pd165  1  0.40479626  0.19752816  0.20884604  1
  Pd  Pd166  1  0.39955327  0.80235428  0.39401878  1
  Pd  Pd167  1  0.40805640  0.40281250  0.39965475  1
  Pd  Pd168  1  0.60355889  0.19840810  0.40039011  1
  Pd  Pd169  1  0.19346693  0.00380471  0.80086203  1
  Pd  Pd170  1  0.19877828  0.78936684  0.19907619  1
  Pd  Pd171  1  0.60062864  -0.00190355  0.39840020  1
  Pd  Pd172  1  0.40565247  0.60838883  0.79638309  1
  Pd  Pd173  1  0.59803722  -0.00868048  0.81742204  1
  Pd  Pd174  1  0.21011203  0.20721856  -0.00498833  1
  Pd  Pd175  1  0.60702504  0.60864113  0.59980238  1
  Pd  Pd176  1  0.80345403  0.38989104  0.79616849  1
  Pd  Pd177  1  0.39239339  0.20152703  -0.00275423  1
  Pd  Pd178  1  0.80157044  0.00705064  0.40090410  1
  Pd  Pd179  1  0.00262382  0.59371038  0.39458444  1
  Pd  Pd180  1  -0.00053449  0.79870669  0.00474055  1
  Pd  Pd181  1  0.19505236  0.80545287  0.79642727  1
  Pd  Pd182  1  0.19331029  0.38551031  0.41201430  1
  Pd  Pd183  1  0.40645912  0.79426866  0.79055225  1
  Pd  Pd184  1  0.20005452  0.20231362  0.40620711  1
  Pd  Pd185  1  0.20128563  -0.00747693  0.59724147  1
  Pd  Pd186  1  0.60001396  0.39648290  0.80912498  1
  Pd  Pd187  1  0.40318694  0.00586875  0.79669108  1
  Pd  Pd188  1  0.79330814  0.79751782  0.80331780  1
  Pd  Pd189  1  0.81478703  0.39831863  0.40604745  1
  Pd  Pd190  1  0.39988655  0.79849198  0.60579103  1
  Pd  Pd191  1  0.40624987  0.58995108  0.40358684  1
  Pd  Pd192  1  0.40219655  0.59364630  0.59409552  1
  Pd  Pd193  1  0.00482820  0.20241252  0.39994830  1
  Pd  Pd194  1  0.79528952  0.59529793  0.40516044  1
  Pd  Pd195  1  0.19816690  0.60593580  0.39133524  1
  Pd  Pd196  1  0.61277904  0.78823254  0.61014598  1
  Pd  Pd197  1  0.60577734  0.59169706  0.19792764  1
  Pd  Pd198  1  0.40679191  0.00870373  0.60756649  1
  Pd  Pd199  1  0.79020310  0.59469502  0.20132435  1
  Rh  Rh200  1  0.00085063  0.80290298  0.79749838  1
  Rh  Rh201  1  0.78460307  0.40148818  -0.00388654  1
  Rh  Rh202  1  0.00097524  0.00235914  0.00462696  1
  Rh  Rh203  1  0.59362208  0.01197405  0.59009998  1
  Rh  Rh204  1  0.40041610  0.39774352  0.80269505  1
  Rh  Rh205  1  0.01121128  0.40587512  0.00334112  1
  Rh  Rh206  1  0.39546890  0.40962891  0.59173205  1
  Rh  Rh207  1  0.20694188  0.20063743  0.19541663  1
  Rh  Rh208  1  0.80088614  0.79349796  -0.00240981  1
  Rh  Rh209  1  0.80219199  0.00163844  0.80531404  1
  Rh  Rh210  1  0.78927148  0.79840945  0.40449110  1
  Rh  Rh211  1  0.80396190  0.79773202  0.19848526  1
  Rh  Rh212  1  0.00176849  0.40091417  0.60140942  1
  Rh  Rh213  1  0.80007742  0.59771761  0.80579873  1
  Rh  Rh214  1  0.79479830  -0.00133617  0.59566926  1
  Rh  Rh215  1  0.00026959  0.20290681  0.80118625  1
  Rh  Rh216  1  0.40317759  0.60465128  0.19145961  1
  Rh  Rh217  1  -0.00695131  0.20117575  0.19201881  1
  Rh  Rh218  1  0.59887489  0.80594107  0.39641568  1
  Rh  Rh219  1  0.40597175  0.20342780  0.39213693  1
  Rh  Rh220  1  0.19743104  0.79656399  -0.00444500  1
  Rh  Rh221  1  -0.00417948  0.59249523  0.80908393  1
  Rh  Rh222  1  0.60453486  0.20196586  0.19721901  1
  Rh  Rh223  1  0.59119908  -0.00388499  0.20338635  1
  Rh  Rh224  1  0.59876557  0.58977057  -0.00509515  1
  Rh  Rh225  1  0.20674888  0.58640023  0.60616269  1
  Rh  Rh226  1  0.59108185  0.80618353  0.20717731  1
  Rh  Rh227  1  0.39518510  0.01015131  0.38995011  1
  Rh  Rh228  1  0.20321660  0.60298618  0.20324060  1
  Rh  Rh229  1  -0.00235615  0.59697342  0.20284926  1
  Rh  Rh230  1  0.58929466  0.40276351  0.39537778  1
  Rh  Rh231  1  -0.00465105  0.19734176  0.60684817  1
  Rh  Rh232  1  0.59294326  0.60571089  0.80600540  1
  Rh  Rh233  1  0.59708465  0.40109655  0.19351598  1
  Rh  Rh234  1  0.59210062  0.20086221  0.79687517  1
  Rh  Rh235  1  0.20154442  0.21100071  0.60881824  1
  Rh  Rh236  1  0.39860480  0.79480541  0.01099233  1
  Rh  Rh237  1  0.20148185  0.59757520  0.00123518  1
  Rh  Rh238  1  0.60580342  0.20505115  0.00459925  1
  Rh  Rh239  1  -0.00058923  -0.00631474  0.59302498  1
  Rh  Rh240  1  0.19361795  0.39604507  0.18927465  1
  Rh  Rh241  1  0.19532864  0.80299209  0.59998251  1
  Rh  Rh242  1  0.60684687  0.39223622  0.60672765  1
  Rh  Rh243  1  0.39917723  0.00032694  0.00962136  1
  Rh  Rh244  1  -0.00465333  -0.00049955  0.80366705  1
  Rh  Rh245  1  0.20366046  0.01357126  0.20044358  1
  Rh  Rh246  1  -0.00441203  0.19639995  0.00195873  1
  Rh  Rh247  1  0.59749683  0.59236254  0.39876813  1
  Rh  Rh248  1  -0.00380037  0.60139246  -0.00185886  1
  Rh  Rh249  1  0.79787632  0.00833183  -0.00171047  1
