# generated using pymatgen
data_ZrScNbPdRh
_symmetry_space_group_name_H-M   'P 1'
_cell_length_a   16.55841023
_cell_length_b   16.56314277
_cell_length_c   16.55650617
_cell_angle_alpha   90.02862437
_cell_angle_beta   90.03532401
_cell_angle_gamma   90.01312100
_symmetry_Int_Tables_number   1
_chemical_formula_structural   ZrScNbPdRh
_chemical_formula_sum   'Zr50 Sc50 Nb50 Pd50 Rh50'
_cell_volume   4540.77445346
_cell_formula_units_Z   50
loop_
 _symmetry_equiv_pos_site_id
 _symmetry_equiv_pos_as_xyz
  1  'x, y, z'
loop_
 _atom_site_type_symbol
 _atom_site_label
 _atom_site_symmetry_multiplicity
 _atom_site_fract_x
 _atom_site_fract_y
 _atom_site_fract_z
 _atom_site_occupancy
  Zr  Zr0  1  0.10768498  0.10623133  0.29969565  1
  Zr  Zr1  1  0.89973425  0.69196903  0.70723564  1
  Zr  Zr2  1  0.30196549  0.50555829  0.89937205  1
  Zr  Zr3  1  0.09320213  0.70034196  0.09676387  1
  Zr  Zr4  1  0.10184722  0.89039226  0.50409528  1
  Zr  Zr5  1  0.70377509  0.50734143  0.10215115  1
  Zr  Zr6  1  0.29784743  0.30255834  0.50354020  1
  Zr  Zr7  1  0.70024650  0.90219568  0.09846511  1
  Zr  Zr8  1  0.49955824  0.11536375  0.10206832  1
  Zr  Zr9  1  0.69587117  0.49520890  0.49286372  1
  Zr  Zr10  1  0.30657268  0.29996833  0.69116907  1
  Zr  Zr11  1  0.69824818  0.69786638  0.89895669  1
  Zr  Zr12  1  0.70515274  0.29933936  0.91211434  1
  Zr  Zr13  1  0.50174176  0.90047937  0.70249490  1
  Zr  Zr14  1  0.69401227  0.69837641  0.29537330  1
  Zr  Zr15  1  0.50214988  0.29532557  0.51384993  1
  Zr  Zr16  1  0.91442548  0.70468555  0.49674954  1
  Zr  Zr17  1  0.09904694  0.49855519  0.70009960  1
  Zr  Zr18  1  0.90722049  0.11784238  0.89281094  1
  Zr  Zr19  1  0.89926685  0.28428315  0.70821288  1
  Zr  Zr20  1  0.10568120  0.90172032  0.70129505  1
  Zr  Zr21  1  0.28551612  0.30089666  0.30110521  1
  Zr  Zr22  1  0.29242722  0.49932451  0.09622115  1
  Zr  Zr23  1  0.69632847  0.29300971  0.68692705  1
  Zr  Zr24  1  0.30283889  0.89581073  0.49993486  1
  Zr  Zr25  1  0.90078633  0.29821119  0.49447174  1
  Zr  Zr26  1  0.69768547  0.70635491  0.69996717  1
  Zr  Zr27  1  0.09302284  0.09152107  0.49873388  1
  Zr  Zr28  1  0.30389340  0.49352253  0.30008050  1
  Zr  Zr29  1  0.09480817  0.49179100  0.29240771  1
  Zr  Zr30  1  0.49867190  0.50292757  0.09964037  1
  Zr  Zr31  1  0.09001802  0.70580035  0.89915432  1
  Zr  Zr32  1  0.49953683  0.89534513  0.10163462  1
  Zr  Zr33  1  0.50016112  0.50279671  0.89848089  1
  Zr  Zr34  1  0.90094567  0.50747904  0.10146467  1
  Zr  Zr35  1  0.69266088  0.89613285  0.49635745  1
  Zr  Zr36  1  0.69978291  0.10668923  0.50202510  1
  Zr  Zr37  1  0.49904640  0.09835213  0.70107581  1
  Zr  Zr38  1  0.30374361  0.90692915  0.70524639  1
  Zr  Zr39  1  0.29960734  0.30742458  0.89250469  1
  Zr  Zr40  1  0.10159957  0.30003855  0.49379806  1
  Zr  Zr41  1  0.89907596  0.70017054  0.89854434  1
  Zr  Zr42  1  0.90932784  0.90456560  0.49997097  1
  Zr  Zr43  1  0.90714165  0.50046399  0.69935901  1
  Zr  Zr44  1  0.49514132  0.10214277  0.91430167  1
  Zr  Zr45  1  0.89797575  0.89963510  0.29814964  1
  Zr  Zr46  1  0.30514177  0.70298061  0.09515079  1
  Zr  Zr47  1  0.71300748  0.09934068  0.70318089  1
  Zr  Zr48  1  0.50483963  0.70033808  0.70494923  1
  Zr  Zr49  1  0.69088503  0.89967234  0.29726928  1
  Sc  Sc50  1  0.70934343  0.49904193  0.68947606  1
  Sc  Sc51  1  0.90073148  0.09370303  0.10096982  1
  Sc  Sc52  1  0.09083308  0.49239118  0.50628872  1
  Sc  Sc53  1  0.30555368  0.30066329  0.10646336  1
  Sc  Sc54  1  0.29493220  0.09338939  0.90448883  1
  Sc  Sc55  1  0.89974200  0.49954364  0.51219570  1
  Sc  Sc56  1  0.69565487  0.90451033  0.70565444  1
  Sc  Sc57  1  0.30185640  0.10024416  0.69876741  1
  Sc  Sc58  1  0.30710149  0.69795555  0.49679832  1
  Sc  Sc59  1  0.10760519  0.30489741  0.10368680  1
  Sc  Sc60  1  0.30579668  0.70216129  0.70019727  1
  Sc  Sc61  1  0.68969033  0.69992368  0.10032632  1
  Sc  Sc62  1  0.30005862  0.48849954  0.70471655  1
  Sc  Sc63  1  0.89912593  0.90579427  0.70271690  1
  Sc  Sc64  1  0.89498683  0.50961085  0.90465074  1
  Sc  Sc65  1  0.89384132  0.29990454  0.09821844  1
  Sc  Sc66  1  0.09829030  0.89838135  0.28264272  1
  Sc  Sc67  1  0.10514936  0.50616504  0.90768685  1
  Sc  Sc68  1  0.90009065  0.49963574  0.28791510  1
  Sc  Sc69  1  0.69824688  0.49996267  0.91372191  1
  Sc  Sc70  1  0.69205396  0.70554604  0.49128338  1
  Sc  Sc71  1  0.69948805  0.90277535  0.90450017  1
  Sc  Sc72  1  0.69942802  0.30065055  0.49175758  1
  Sc  Sc73  1  0.30802334  0.49443339  0.49780032  1
  Sc  Sc74  1  0.50513232  0.90205349  0.49110528  1
  Sc  Sc75  1  0.89723377  0.09821960  0.30105054  1
  Sc  Sc76  1  0.49754714  0.50017751  0.49170891  1
  Sc  Sc77  1  0.11031841  0.10317473  0.70262875  1
  Sc  Sc78  1  0.09170157  0.70506833  0.69888438  1
  Sc  Sc79  1  0.11292147  0.30313827  0.69505400  1
  Sc  Sc80  1  0.49970645  0.09694803  0.29591172  1
  Sc  Sc81  1  0.49381944  0.29474984  0.28791726  1
  Sc  Sc82  1  0.69863030  0.50035200  0.29782500  1
  Sc  Sc83  1  0.49925739  0.50193733  0.30020605  1
  Sc  Sc84  1  0.69990280  0.29489387  0.09749155  1
  Sc  Sc85  1  0.49136798  0.90670434  0.90151331  1
  Sc  Sc86  1  0.30267718  0.09961300  0.50692737  1
  Sc  Sc87  1  0.50144242  0.69856669  0.49032353  1
  Sc  Sc88  1  0.69800415  0.09494016  0.10386748  1
  Sc  Sc89  1  0.70462192  0.09324761  0.90479816  1
  Sc  Sc90  1  0.49271734  0.69714084  0.90279025  1
  Sc  Sc91  1  0.09909078  0.28126785  0.90081910  1
  Sc  Sc92  1  0.30382075  0.10385330  0.10415220  1
  Sc  Sc93  1  0.69550595  0.10398167  0.29710704  1
  Sc  Sc94  1  0.49825189  0.69643090  0.29590361  1
  Sc  Sc95  1  0.48834337  0.50040445  0.70352573  1
  Sc  Sc96  1  0.09826142  0.10053172  0.09066900  1
  Sc  Sc97  1  0.89779807  0.89734893  0.90267678  1
  Sc  Sc98  1  0.91067634  0.69789534  0.29885508  1
  Sc  Sc99  1  0.50334183  0.09573322  0.49392831  1
  Nb  Nb100  1  0.90275931  0.30233356  0.29596049  1
  Nb  Nb101  1  0.50048398  0.69827277  0.09986985  1
  Nb  Nb102  1  0.29512768  0.69937286  0.29846051  1
  Nb  Nb103  1  0.89668792  0.69806024  0.09774315  1
  Nb  Nb104  1  0.50313449  0.29694854  0.09247191  1
  Nb  Nb105  1  0.29623997  0.70016449  0.90565501  1
  Nb  Nb106  1  0.89936335  0.09829049  0.69870016  1
  Nb  Nb107  1  0.09741147  0.50221247  0.10046870  1
  Nb  Nb108  1  0.09911100  0.09334247  0.90154330  1
  Nb  Nb109  1  0.89968548  0.09240765  0.50759226  1
  Nb  Nb110  1  0.30537076  0.90213958  0.29486862  1
  Nb  Nb111  1  0.10023435  0.69479891  0.30489345  1
  Nb  Nb112  1  0.09357818  0.90198524  0.09274546  1
  Nb  Nb113  1  0.90204526  0.30014668  0.90336437  1
  Nb  Nb114  1  0.29461295  0.89324719  0.10421756  1
  Nb  Nb115  1  0.50728182  0.29931654  0.90882587  1
  Nb  Nb116  1  0.29837184  0.89561199  0.90542432  1
  Nb  Nb117  1  0.09364016  0.30306739  0.30282937  1
  Nb  Nb118  1  0.10483218  0.90977210  0.90186806  1
  Nb  Nb119  1  0.10587408  0.70280534  0.49828337  1
  Nb  Nb120  1  0.49325857  0.90433677  0.30303612  1
  Nb  Nb121  1  0.30368203  0.09734465  0.30005095  1
  Nb  Nb122  1  0.70585238  0.30055447  0.29670470  1
  Nb  Nb123  1  0.49872377  0.29816303  0.70501830  1
  Nb  Nb124  1  0.90062050  0.89835918  0.10743869  1
  Nb  Nb125  1  0.40586060  0.39787762  -0.00150308  1
  Nb  Nb126  1  0.20794554  -0.00761829  0.39156708  1
  Nb  Nb127  1  0.79842168  -0.00124899  0.40599701  1
  Nb  Nb128  1  -0.00117168  0.39930279  -0.00135707  1
  Nb  Nb129  1  0.00137897  0.20844653  0.20724712  1
  Nb  Nb130  1  0.20278506  0.80267459  0.80930146  1
  Nb  Nb131  1  0.00506634  0.00723981  0.80428780  1
  Nb  Nb132  1  0.40723192  0.20429165  0.80471121  1
  Nb  Nb133  1  -0.00349446  0.19297075  0.59824245  1
  Nb  Nb134  1  0.60303850  0.39247181  0.80037008  1
  Nb  Nb135  1  0.19594452  0.60157501  0.39872644  1
  Nb  Nb136  1  0.80081594  0.79975721  0.59666876  1
  Nb  Nb137  1  0.59936115  0.60168690  0.59915601  1
  Nb  Nb138  1  0.80351969  0.80047782  0.19408444  1
  Nb  Nb139  1  0.19882449  0.60286026  0.59794744  1
  Nb  Nb140  1  0.80078239  0.39335314  0.80360532  1
  Nb  Nb141  1  0.20071482  0.60837076  0.79974250  1
  Nb  Nb142  1  -0.00384586  0.39520197  0.80798490  1
  Nb  Nb143  1  0.19674411  0.60330628  0.20300835  1
  Nb  Nb144  1  0.39354495  0.19894850  0.39713238  1
  Nb  Nb145  1  0.80252860  0.60241985  0.40017803  1
  Nb  Nb146  1  0.60057695  0.39499558  0.19490659  1
  Nb  Nb147  1  0.40650580  0.80268819  0.60183528  1
  Nb  Nb148  1  0.20268889  0.79837388  0.38998848  1
  Nb  Nb149  1  0.59773057  0.20374637  0.80380555  1
  Pd  Pd150  1  0.20686395  0.19113934  0.40764190  1
  Pd  Pd151  1  0.59252702  0.38916538  0.38690665  1
  Pd  Pd152  1  -0.00832931  0.80035742  0.61089457  1
  Pd  Pd153  1  0.19538946  0.80170027  -0.00011396  1
  Pd  Pd154  1  0.80479731  0.19609861  0.19763598  1
  Pd  Pd155  1  0.80393949  0.19363866  0.39828719  1
  Pd  Pd156  1  0.19927709  0.00098054  0.19387159  1
  Pd  Pd157  1  0.40074751  0.79697315  0.39893216  1
  Pd  Pd158  1  0.00456494  -0.00399036  0.38913924  1
  Pd  Pd159  1  0.59219656  0.00195522  0.19691876  1
  Pd  Pd160  1  0.20660428  -0.00079335  0.01281525  1
  Pd  Pd161  1  -0.00436888  0.80787494  -0.00147783  1
  Pd  Pd162  1  0.80336859  0.79834918  0.39761458  1
  Pd  Pd163  1  0.60172500  0.00353243  0.60013832  1
  Pd  Pd164  1  0.39436518  0.59980053  0.20103869  1
  Pd  Pd165  1  0.40142753  0.60302322  0.59959040  1
  Pd  Pd166  1  0.79265708  0.61254270  0.58684513  1
  Pd  Pd167  1  0.80893991  0.00314831  -0.00282450  1
  Pd  Pd168  1  0.19657284  0.39441851  -0.00548503  1
  Pd  Pd169  1  0.40950902  0.38678534  0.39881143  1
  Pd  Pd170  1  0.80149653  0.18990859  0.00788074  1
  Pd  Pd171  1  0.59902140  0.00631933  0.80893470  1
  Pd  Pd172  1  0.79891932  0.80820269  0.79488886  1
  Pd  Pd173  1  0.79442260  -0.01099678  0.59622625  1
  Pd  Pd174  1  0.79038420  0.58817937  0.80253095  1
  Pd  Pd175  1  -0.00268307  0.79486188  0.19936913  1
  Pd  Pd176  1  0.60989986  0.58434792  0.79128438  1
  Pd  Pd177  1  0.19644443  0.79579824  0.19903775  1
  Pd  Pd178  1  -0.00065446  0.58920140  0.40470926  1
  Pd  Pd179  1  -0.00935480  0.40921331  0.39936578  1
  Pd  Pd180  1  0.79395544  0.39808659  0.19575862  1
  Pd  Pd181  1  0.59000479  0.20540300  0.39186606  1
  Pd  Pd182  1  0.40464826  0.79771450  0.20279357  1
  Pd  Pd183  1  0.59699538  0.80712447  0.81360485  1
  Pd  Pd184  1  0.79734212  0.79627126  0.00673992  1
  Pd  Pd185  1  0.39250005  -0.00595904  0.01145167  1
  Pd  Pd186  1  0.20524468  0.20112175  0.00259151  1
  Pd  Pd187  1  0.59098517  0.41338628  0.60689805  1
  Pd  Pd188  1  0.19661786  0.19992054  0.19482551  1
  Pd  Pd189  1  -0.00898069  -0.00134863  -0.00535276  1
  Pd  Pd190  1  0.00421774  0.01054668  0.20006424  1
  Pd  Pd191  1  0.80657180  0.39098247  0.60371730  1
  Pd  Pd192  1  0.59233986  0.79849319  -0.00669570  1
  Pd  Pd193  1  0.80773882  0.40909249  0.39507686  1
  Pd  Pd194  1  -0.00788146  0.19509166  0.39863269  1
  Pd  Pd195  1  0.40673608  -0.00334813  0.59346839  1
  Pd  Pd196  1  0.39650424  0.79755292  0.80201485  1
  Pd  Pd197  1  0.20084118  0.00311862  0.59451569  1
  Pd  Pd198  1  0.40199831  0.00094416  0.19179612  1
  Pd  Pd199  1  0.20866535  0.19631814  0.80038342  1
  Rh  Rh200  1  0.00674339  0.00653549  0.61591780  1
  Rh  Rh201  1  -0.00275057  0.59629223  -0.00108756  1
  Rh  Rh202  1  0.59705129  0.79343555  0.59852801  1
  Rh  Rh203  1  0.60981637  0.18984354  -0.00031336  1
  Rh  Rh204  1  0.00518099  0.81612433  0.80288739  1
  Rh  Rh205  1  0.40417261  0.19523963  0.59968270  1
  Rh  Rh206  1  -0.00289717  0.39091098  0.18815982  1
  Rh  Rh207  1  0.60544444  0.59843495  0.40177179  1
  Rh  Rh208  1  0.40202487  0.80233101  0.00195992  1
  Rh  Rh209  1  0.01289615  0.19812764  0.78990428  1
  Rh  Rh210  1  0.79650078  0.60962268  0.00117015  1
  Rh  Rh211  1  0.38825601  0.21071811  -0.00635262  1
  Rh  Rh212  1  0.18549640  0.40803144  0.80727136  1
  Rh  Rh213  1  0.01301349  0.80761758  0.39195376  1
  Rh  Rh214  1  0.00893923  0.60759723  0.59637852  1
  Rh  Rh215  1  0.39444193  0.00906384  0.80724330  1
  Rh  Rh216  1  -0.00639706  0.38152261  0.61140989  1
  Rh  Rh217  1  0.41111799  0.39296070  0.80773597  1
  Rh  Rh218  1  0.39361068  0.20095007  0.20682477  1
  Rh  Rh219  1  0.59675353  0.18973835  0.60476916  1
  Rh  Rh220  1  0.59677382  0.40717394  0.00564282  1
  Rh  Rh221  1  0.20509935  0.41029963  0.59288374  1
  Rh  Rh222  1  0.78740881  0.20346036  0.80647107  1
  Rh  Rh223  1  0.40510426  0.40277059  0.59877969  1
  Rh  Rh224  1  0.59766318  0.60698550  0.00154827  1
  Rh  Rh225  1  0.00757758  0.58993433  0.80511778  1
  Rh  Rh226  1  0.59580113  0.59331509  0.19884104  1
  Rh  Rh227  1  0.00201603  0.20826281  0.01494852  1
  Rh  Rh228  1  0.60547041  0.00327084  0.39516276  1
  Rh  Rh229  1  0.19175928  0.19716533  0.59331726  1
  Rh  Rh230  1  0.81024521  0.00062754  0.80767740  1
  Rh  Rh231  1  0.80854313  0.40599713  -0.00027382  1
  Rh  Rh232  1  0.80279965  0.61383992  0.20710787  1
  Rh  Rh233  1  0.79723302  -0.00654001  0.20655344  1
  Rh  Rh234  1  0.19602142  0.60802551  0.00265571  1
  Rh  Rh235  1  0.80692637  0.20266210  0.58964556  1
  Rh  Rh236  1  0.38892111  0.60581588  0.80104507  1
  Rh  Rh237  1  0.59512901  0.80088118  0.20139413  1
  Rh  Rh238  1  0.59653295  0.00045288  0.00525611  1
  Rh  Rh239  1  0.19762588  0.40377110  0.20087345  1
  Rh  Rh240  1  0.39686487  0.00637675  0.39812840  1
  Rh  Rh241  1  0.39333466  0.59981978  0.39336958  1
  Rh  Rh242  1  0.40795169  0.39797223  0.18883302  1
  Rh  Rh243  1  0.00448056  0.60453298  0.19691254  1
  Rh  Rh244  1  0.60608820  0.20818669  0.20225462  1
  Rh  Rh245  1  0.19393179  0.41000053  0.40293600  1
  Rh  Rh246  1  0.40195231  0.59834316  0.00055942  1
  Rh  Rh247  1  0.58661679  0.80053568  0.38817610  1
  Rh  Rh248  1  0.20153744  -0.00278607  0.80398519  1
  Rh  Rh249  1  0.21339108  0.79084758  0.60110520  1
