# generated using pymatgen
data_ZrScNbPdRh
_symmetry_space_group_name_H-M   'P 1'
_cell_length_a   16.55027716
_cell_length_b   16.55201502
_cell_length_c   16.54792622
_cell_angle_alpha   89.99881429
_cell_angle_beta   90.03509334
_cell_angle_gamma   90.02986298
_symmetry_Int_Tables_number   1
_chemical_formula_structural   ZrScNbPdRh
_chemical_formula_sum   'Zr50 Sc50 Nb50 Pd50 Rh50'
_cell_volume   4533.14465665
_cell_formula_units_Z   50
loop_
 _symmetry_equiv_pos_site_id
 _symmetry_equiv_pos_as_xyz
  1  'x, y, z'
loop_
 _atom_site_type_symbol
 _atom_site_label
 _atom_site_symmetry_multiplicity
 _atom_site_fract_x
 _atom_site_fract_y
 _atom_site_fract_z
 _atom_site_occupancy
  Zr  Zr0  1  0.89504723  0.69248623  0.09912598  1
  Zr  Zr1  1  0.69838927  0.70441443  0.70633232  1
  Zr  Zr2  1  0.30301117  0.49212516  0.49620172  1
  Zr  Zr3  1  0.09339704  0.69486858  0.89627773  1
  Zr  Zr4  1  0.90865921  0.10498137  0.70123076  1
  Zr  Zr5  1  0.90213834  0.89385698  0.50536707  1
  Zr  Zr6  1  0.49825496  0.89330034  0.08903527  1
  Zr  Zr7  1  0.69275711  0.09731399  0.30125238  1
  Zr  Zr8  1  0.69705928  0.09729476  0.89887353  1
  Zr  Zr9  1  0.49876587  0.70138422  0.29175929  1
  Zr  Zr10  1  0.09679659  0.29673258  0.49610124  1
  Zr  Zr11  1  0.49819053  0.70029438  0.50342509  1
  Zr  Zr12  1  0.10064039  0.69822606  0.30314773  1
  Zr  Zr13  1  0.30170186  0.49493958  0.70948783  1
  Zr  Zr14  1  0.09297214  0.28830683  0.70572029  1
  Zr  Zr15  1  0.69356402  0.30157115  0.10840789  1
  Zr  Zr16  1  0.89807036  0.49666397  0.50193311  1
  Zr  Zr17  1  0.29911487  0.09953539  0.10202574  1
  Zr  Zr18  1  0.69617887  0.49756792  0.49951179  1
  Zr  Zr19  1  0.50536693  0.29115937  0.29194864  1
  Zr  Zr20  1  0.29491036  0.50007434  0.09635765  1
  Zr  Zr21  1  0.89768053  0.29431633  0.11055900  1
  Zr  Zr22  1  0.88958751  0.90575979  0.69895567  1
  Zr  Zr23  1  0.29726786  0.70629006  0.29839812  1
  Zr  Zr24  1  0.71405708  0.10152907  0.09362257  1
  Zr  Zr25  1  0.69725442  0.29192169  0.91291580  1
  Zr  Zr26  1  0.49573478  0.30373587  0.69574207  1
  Zr  Zr27  1  0.10046720  0.69730723  0.70040476  1
  Zr  Zr28  1  0.69636070  0.69591653  0.29050896  1
  Zr  Zr29  1  0.30767849  0.90268356  0.89877164  1
  Zr  Zr30  1  0.50190224  0.50618830  0.09871041  1
  Zr  Zr31  1  0.89433787  0.91087769  0.09276911  1
  Zr  Zr32  1  0.89829029  0.29620118  0.30877406  1
  Zr  Zr33  1  0.10561058  0.49732406  0.70887810  1
  Zr  Zr34  1  0.49980458  0.09920350  0.90435293  1
  Zr  Zr35  1  0.69625619  0.90769253  0.51086732  1
  Zr  Zr36  1  0.10403905  0.10222994  0.30126249  1
  Zr  Zr37  1  0.49965881  0.89638270  0.69662974  1
  Zr  Zr38  1  0.69983285  0.50996857  0.70245079  1
  Zr  Zr39  1  0.09883664  0.90619425  0.90070058  1
  Zr  Zr40  1  0.11262966  0.49677818  0.90062398  1
  Zr  Zr41  1  0.69777981  0.69804321  0.89728659  1
  Zr  Zr42  1  0.30427486  0.09350499  0.29694507  1
  Zr  Zr43  1  0.10298406  0.30283613  0.90144600  1
  Zr  Zr44  1  0.10684230  0.49196725  0.30103937  1
  Zr  Zr45  1  0.09648552  0.70628546  0.50156254  1
  Zr  Zr46  1  0.10003990  0.50480617  0.49998197  1
  Zr  Zr47  1  0.29671919  0.29964681  0.29742519  1
  Zr  Zr48  1  0.49935481  0.90007470  0.89598075  1
  Zr  Zr49  1  0.29787936  0.90484110  0.49915279  1
  Sc  Sc50  1  0.89460276  0.10746399  0.50134765  1
  Sc  Sc51  1  0.90336685  0.69304755  0.29689746  1
  Sc  Sc52  1  0.89506507  0.10618106  0.29598590  1
  Sc  Sc53  1  0.69677711  0.90500981  0.09259401  1
  Sc  Sc54  1  0.89991595  0.49883173  0.70449762  1
  Sc  Sc55  1  0.09043145  0.90836950  0.69972793  1
  Sc  Sc56  1  0.89712513  0.90158739  0.89533240  1
  Sc  Sc57  1  0.49819764  0.09956941  0.10555138  1
  Sc  Sc58  1  0.69560637  0.10532693  0.50120280  1
  Sc  Sc59  1  0.70049516  0.09034837  0.69655920  1
  Sc  Sc60  1  0.50355572  0.50111617  0.30904172  1
  Sc  Sc61  1  0.31520958  0.69992040  0.10370727  1
  Sc  Sc62  1  0.89603823  0.09389061  0.90925790  1
  Sc  Sc63  1  0.49883846  0.10727746  0.70036426  1
  Sc  Sc64  1  0.50513339  0.29277396  0.09712922  1
  Sc  Sc65  1  0.10491652  0.68757702  0.09746036  1
  Sc  Sc66  1  0.50071011  0.70583341  0.90656099  1
  Sc  Sc67  1  0.29957502  0.29571660  0.90147201  1
  Sc  Sc68  1  0.29730883  0.49976615  0.30219599  1
  Sc  Sc69  1  0.69316378  0.50219592  0.10810702  1
  Sc  Sc70  1  0.50100679  0.91585674  0.29567379  1
  Sc  Sc71  1  0.30008181  0.09685901  0.89890512  1
  Sc  Sc72  1  0.30251770  0.29598574  0.49973724  1
  Sc  Sc73  1  0.29793352  0.09868108  0.49616848  1
  Sc  Sc74  1  0.70523114  0.29830689  0.68566659  1
  Sc  Sc75  1  0.30327590  0.29850302  0.69987927  1
  Sc  Sc76  1  0.91172429  0.29953177  0.89867564  1
  Sc  Sc77  1  0.50231601  0.28836492  0.90361080  1
  Sc  Sc78  1  0.90156136  0.50045565  0.28750233  1
  Sc  Sc79  1  0.11205489  0.89538756  0.29993122  1
  Sc  Sc80  1  0.50492296  0.70369088  0.70357506  1
  Sc  Sc81  1  0.10918789  0.09861980  0.09803742  1
  Sc  Sc82  1  0.10753988  0.10073379  0.50756452  1
  Sc  Sc83  1  0.49737246  0.09508748  0.49102956  1
  Sc  Sc84  1  0.50159713  0.51217332  0.89993546  1
  Sc  Sc85  1  0.49648152  0.50165203  0.70214204  1
  Sc  Sc86  1  0.68896577  0.69923605  0.51002346  1
  Sc  Sc87  1  0.29625443  0.70272194  0.70035019  1
  Sc  Sc88  1  0.30479729  0.90536084  0.70305137  1
  Sc  Sc89  1  0.29389134  0.29031132  0.09638585  1
  Sc  Sc90  1  0.29417765  0.09808618  0.69821448  1
  Sc  Sc91  1  0.31068783  0.69594938  0.89951979  1
  Sc  Sc92  1  0.49665855  0.10251037  0.29964306  1
  Sc  Sc93  1  0.10459962  0.09788496  0.89676436  1
  Sc  Sc94  1  0.49242142  0.29568082  0.49722769  1
  Sc  Sc95  1  0.09724966  0.29928075  0.29473940  1
  Sc  Sc96  1  0.09935890  0.49312019  0.09428604  1
  Sc  Sc97  1  0.89888223  0.89762549  0.29707731  1
  Sc  Sc98  1  0.91551651  0.50153778  0.90047690  1
  Sc  Sc99  1  0.10705265  0.91077396  0.09731286  1
  Nb  Nb100  1  0.69445872  0.90444120  0.89341085  1
  Nb  Nb101  1  0.49764118  0.89696173  0.49634511  1
  Nb  Nb102  1  0.30286160  0.49628844  0.90035497  1
  Nb  Nb103  1  0.70325970  0.90172788  0.30166571  1
  Nb  Nb104  1  0.90190713  0.29884405  0.70026821  1
  Nb  Nb105  1  0.69704399  0.30540154  0.30476506  1
  Nb  Nb106  1  0.69910443  0.90088062  0.70456025  1
  Nb  Nb107  1  0.09972552  0.10581869  0.70063708  1
  Nb  Nb108  1  0.10453890  0.29448910  0.09942668  1
  Nb  Nb109  1  0.09670692  0.90209789  0.49448478  1
  Nb  Nb110  1  0.70446413  0.50041890  0.89576432  1
  Nb  Nb111  1  0.51304954  0.69838946  0.09495223  1
  Nb  Nb112  1  0.69190079  0.70011308  0.09757446  1
  Nb  Nb113  1  0.90099466  0.09925772  0.10178385  1
  Nb  Nb114  1  0.49835465  0.50138985  0.50603339  1
  Nb  Nb115  1  0.29813302  0.90143696  0.10300276  1
  Nb  Nb116  1  0.88886753  0.30176071  0.50857520  1
  Nb  Nb117  1  0.30093572  0.90243877  0.29369153  1
  Nb  Nb118  1  0.89413150  0.50068381  0.09597422  1
  Nb  Nb119  1  0.69607710  0.49681854  0.30135326  1
  Nb  Nb120  1  0.89992350  0.70054186  0.89814830  1
  Nb  Nb121  1  0.89996025  0.70639931  0.70755663  1
  Nb  Nb122  1  0.71635263  0.30668593  0.49287640  1
  Nb  Nb123  1  0.90136751  0.69879080  0.50218204  1
  Nb  Nb124  1  0.29692269  0.70201428  0.50164360  1
  Nb  Nb125  1  0.80710305  0.60792306  0.60035776  1
  Nb  Nb126  1  -0.00195864  0.39344641  0.60088221  1
  Nb  Nb127  1  0.79830818  0.59670239  -0.00292273  1
  Nb  Nb128  1  0.19305213  0.39788987  0.60124972  1
  Nb  Nb129  1  -0.00103822  0.00132826  0.20169365  1
  Nb  Nb130  1  0.00172408  0.19803819  0.00885486  1
  Nb  Nb131  1  0.59948112  0.40107222  0.59647213  1
  Nb  Nb132  1  0.39979323  0.80478606  0.39985886  1
  Nb  Nb133  1  0.39646570  0.59934870  0.59472176  1
  Nb  Nb134  1  0.80038713  -0.00592274  0.40046031  1
  Nb  Nb135  1  0.80266861  0.20439007  0.79962114  1
  Nb  Nb136  1  0.19560839  0.80291162  0.80717931  1
  Nb  Nb137  1  -0.00173005  0.80264969  0.19064819  1
  Nb  Nb138  1  0.79454203  0.79587599  0.39981300  1
  Nb  Nb139  1  0.79697279  0.39548346  0.80540023  1
  Nb  Nb140  1  0.59817196  0.80719985  0.39942570  1
  Nb  Nb141  1  0.79691297  0.60228514  0.40340381  1
  Nb  Nb142  1  0.80005907  0.40456416  0.00024792  1
  Nb  Nb143  1  0.40116634  0.39865924  0.19448899  1
  Nb  Nb144  1  0.00050193  0.79803486  0.00116467  1
  Nb  Nb145  1  0.39895458  0.40348834  0.00224353  1
  Nb  Nb146  1  0.79709417  0.79872217  0.19687006  1
  Nb  Nb147  1  -0.00010185  -0.00338427  0.39977160  1
  Nb  Nb148  1  0.60679356  0.39828710  0.79877407  1
  Nb  Nb149  1  0.20193767  0.80145596  -0.00289851  1
  Pd  Pd150  1  0.79717616  0.40237081  0.20059540  1
  Pd  Pd151  1  0.40315459  0.60700597  0.79395013  1
  Pd  Pd152  1  0.60057044  0.20740409  0.59222313  1
  Pd  Pd153  1  -0.00602868  0.59663694  0.60871069  1
  Pd  Pd154  1  -0.00489592  0.39247030  0.00921960  1
  Pd  Pd155  1  0.39590223  0.19699547  0.80125583  1
  Pd  Pd156  1  0.39511236  0.79516215  0.60001879  1
  Pd  Pd157  1  0.00339886  0.39917963  0.19497102  1
  Pd  Pd158  1  0.19974017  0.59790539  0.19989581  1
  Pd  Pd159  1  0.79138240  0.20053326  0.20906784  1
  Pd  Pd160  1  0.80547821  0.40984699  0.38915418  1
  Pd  Pd161  1  0.39886908  0.00325888  0.00469313  1
  Pd  Pd162  1  0.40139272  0.59215708  0.20335148  1
  Pd  Pd163  1  0.79915819  0.79706469  0.00011558  1
  Pd  Pd164  1  -0.00369295  0.19214875  0.40637420  1
  Pd  Pd165  1  0.59307513  0.00193650  0.79271770  1
  Pd  Pd166  1  0.39580627  0.19183627  0.59631869  1
  Pd  Pd167  1  0.20507301  0.80316641  0.40321065  1
  Pd  Pd168  1  0.40695983  0.80713717  0.20095833  1
  Pd  Pd169  1  0.79831788  0.80522256  0.80525979  1
  Pd  Pd170  1  0.40629820  0.39398158  0.39161496  1
  Pd  Pd171  1  0.59206023  0.39171496  0.40578910  1
  Pd  Pd172  1  0.00318861  0.80155811  0.60890302  1
  Pd  Pd173  1  -0.00280957  0.00585769  0.80426928  1
  Pd  Pd174  1  -0.00301141  0.59666290  0.79581429  1
  Pd  Pd175  1  0.58983941  0.00443443  0.60171195  1
  Pd  Pd176  1  0.79731820  0.19239474  0.60526235  1
  Pd  Pd177  1  0.19561132  0.81133620  0.60874862  1
  Pd  Pd178  1  0.60276214  0.20606943  0.40663232  1
  Pd  Pd179  1  0.20911343  0.59322608  0.59949944  1
  Pd  Pd180  1  0.61021815  0.20662621  0.79033192  1
  Pd  Pd181  1  0.20922366  0.60769267  -0.00455256  1
  Pd  Pd182  1  0.59706092  0.40746870  -0.00671644  1
  Pd  Pd183  1  0.60235020  0.60678769  0.39976282  1
  Pd  Pd184  1  -0.00533021  0.59587480  0.39558008  1
  Pd  Pd185  1  0.79569962  0.79405446  0.59836824  1
  Pd  Pd186  1  -0.00145485  0.00783919  0.59179142  1
  Pd  Pd187  1  0.60246155  0.81175078  0.20127799  1
  Pd  Pd188  1  0.40326234  0.00756964  0.60003249  1
  Pd  Pd189  1  0.60138995  0.00091055  0.19112834  1
  Pd  Pd190  1  0.20653636  0.19873505  0.80066162  1
  Pd  Pd191  1  0.19267110  0.79761215  0.18673930  1
  Pd  Pd192  1  0.19667634  -0.00388445  0.60388283  1
  Pd  Pd193  1  0.39599950  0.60656263  0.40198524  1
  Pd  Pd194  1  0.00853566  0.59625736  0.19599120  1
  Pd  Pd195  1  0.41124412  0.39512602  0.81503488  1
  Pd  Pd196  1  0.20253042  0.60203242  0.40182225  1
  Pd  Pd197  1  0.20406971  0.20098941  0.39948102  1
  Pd  Pd198  1  -0.00509318  0.39959899  0.40242876  1
  Pd  Pd199  1  -0.00550950  0.80265141  0.39026313  1
  Rh  Rh200  1  0.80282145  0.00526933  0.59709589  1
  Rh  Rh201  1  0.60080427  0.00217599  0.00168524  1
  Rh  Rh202  1  0.19911717  0.19919971  0.20256996  1
  Rh  Rh203  1  0.79386361  -0.00422142  -0.01052218  1
  Rh  Rh204  1  0.39652941  0.79856035  0.79743955  1
  Rh  Rh205  1  -0.00522258  0.19096759  0.81356744  1
  Rh  Rh206  1  0.19802451  0.00072244  0.20415845  1
  Rh  Rh207  1  0.81489626  0.20981510  -0.00531456  1
  Rh  Rh208  1  0.79887437  0.00642639  0.80051703  1
  Rh  Rh209  1  0.60188197  0.80617144  0.60120487  1
  Rh  Rh210  1  0.39591962  -0.00506453  0.39718615  1
  Rh  Rh211  1  0.39953202  0.20184291  0.00131678  1
  Rh  Rh212  1  0.39848311  0.40605736  0.59979478  1
  Rh  Rh213  1  0.00847759  0.19283947  0.19332536  1
  Rh  Rh214  1  0.60741696  0.19289628  0.19822001  1
  Rh  Rh215  1  -0.00194039  0.40081852  0.79414658  1
  Rh  Rh216  1  0.40165333  0.59858436  0.00260620  1
  Rh  Rh217  1  0.60579473  0.80300119  -0.00762156  1
  Rh  Rh218  1  0.59354884  0.60042666  0.80224304  1
  Rh  Rh219  1  0.19366881  0.19627436  -0.00498557  1
  Rh  Rh220  1  0.60719858  0.60006733  -0.00280043  1
  Rh  Rh221  1  0.79968450  0.40822673  0.60991417  1
  Rh  Rh222  1  0.39636307  0.79742027  0.00418844  1
  Rh  Rh223  1  0.39717828  0.19604669  0.39606807  1
  Rh  Rh224  1  0.20656091  0.60763841  0.80693832  1
  Rh  Rh225  1  -0.00065095  0.20257433  0.59309370  1
  Rh  Rh226  1  0.59684647  0.59404318  0.20183006  1
  Rh  Rh227  1  0.20337400  0.39557980  0.19590430  1
  Rh  Rh228  1  0.80427710  -0.00281881  0.20747628  1
  Rh  Rh229  1  0.40480168  0.00617259  0.79520776  1
  Rh  Rh230  1  -0.00570231  0.60257695  0.00089380  1
  Rh  Rh231  1  0.79348793  0.19619487  0.39691606  1
  Rh  Rh232  1  0.20387904  0.39061526  0.79777182  1
  Rh  Rh233  1  0.00239722  0.00405702  0.00613951  1
  Rh  Rh234  1  0.19763961  -0.00318117  0.79372429  1
  Rh  Rh235  1  0.20879208  -0.00280291  -0.00309587  1
  Rh  Rh236  1  0.81153191  0.59851664  0.80179909  1
  Rh  Rh237  1  0.60497985  -0.00412336  0.40375277  1
  Rh  Rh238  1  0.40091628  -0.00425714  0.19411425  1
  Rh  Rh239  1  0.59258903  0.40389341  0.20787791  1
  Rh  Rh240  1  0.59318930  0.59545167  0.60728802  1
  Rh  Rh241  1  0.19826572  0.39509840  0.40470549  1
  Rh  Rh242  1  0.59720358  0.18657138  0.01071437  1
  Rh  Rh243  1  0.39610303  0.20543251  0.19857659  1
  Rh  Rh244  1  0.20164881  0.20455834  0.60206719  1
  Rh  Rh245  1  0.20854637  0.39497974  0.00065806  1
  Rh  Rh246  1  0.00115673  0.80152708  0.80107644  1
  Rh  Rh247  1  0.19689406  -0.00263422  0.39804913  1
  Rh  Rh248  1  0.59878637  0.80289747  0.80373331  1
  Rh  Rh249  1  0.79151526  0.59927839  0.19802682  1
