# generated using pymatgen
data_ZrScNbPdRh
_symmetry_space_group_name_H-M   'P 1'
_cell_length_a   16.56098759
_cell_length_b   16.56144108
_cell_length_c   16.56449084
_cell_angle_alpha   90.00067003
_cell_angle_beta   90.06655971
_cell_angle_gamma   90.00322789
_symmetry_Int_Tables_number   1
_chemical_formula_structural   ZrScNbPdRh
_chemical_formula_sum   'Zr50 Sc50 Nb50 Pd50 Rh50'
_cell_volume   4543.20310986
_cell_formula_units_Z   50
loop_
 _symmetry_equiv_pos_site_id
 _symmetry_equiv_pos_as_xyz
  1  'x, y, z'
loop_
 _atom_site_type_symbol
 _atom_site_label
 _atom_site_symmetry_multiplicity
 _atom_site_fract_x
 _atom_site_fract_y
 _atom_site_fract_z
 _atom_site_occupancy
  Zr  Zr0  1  0.09966453  0.90286668  0.29597951  1
  Zr  Zr1  1  0.09265195  0.50265570  0.10085074  1
  Zr  Zr2  1  0.70135789  0.70134536  0.50066887  1
  Zr  Zr3  1  0.51821701  0.90051572  0.10403975  1
  Zr  Zr4  1  0.30381990  0.90863904  0.49843371  1
  Zr  Zr5  1  0.30005795  0.30128687  0.30414117  1
  Zr  Zr6  1  0.70149027  0.50288838  0.89794889  1
  Zr  Zr7  1  0.50211495  0.29174550  0.30474955  1
  Zr  Zr8  1  0.89824227  0.89934384  0.49738796  1
  Zr  Zr9  1  0.89317427  0.10443541  0.90327619  1
  Zr  Zr10  1  0.89607553  0.29323099  0.08878679  1
  Zr  Zr11  1  0.09908679  0.29916210  0.69674969  1
  Zr  Zr12  1  0.89716038  0.70132544  0.10232338  1
  Zr  Zr13  1  0.29667336  0.90252475  0.29705603  1
  Zr  Zr14  1  0.29858439  0.09691302  0.09592438  1
  Zr  Zr15  1  0.29384542  0.89266359  0.10683169  1
  Zr  Zr16  1  0.68619921  0.50660454  0.50041883  1
  Zr  Zr17  1  0.09637314  0.29629955  0.10239766  1
  Zr  Zr18  1  0.30131385  0.90864296  0.69892816  1
  Zr  Zr19  1  0.29750992  0.29377960  0.08858344  1
  Zr  Zr20  1  0.09578329  0.50111108  0.90575959  1
  Zr  Zr21  1  0.88551576  0.29353792  0.69386373  1
  Zr  Zr22  1  0.69818556  0.70312378  0.89596282  1
  Zr  Zr23  1  0.88637812  0.09944323  0.70525211  1
  Zr  Zr24  1  0.30817236  0.70517565  0.90241276  1
  Zr  Zr25  1  0.70443045  0.69997342  0.30511010  1
  Zr  Zr26  1  0.50423201  0.09622363  0.49759283  1
  Zr  Zr27  1  0.09643380  0.90513947  0.50338483  1
  Zr  Zr28  1  0.08951674  0.29836357  0.49539549  1
  Zr  Zr29  1  0.70623213  0.29411622  0.90410100  1
  Zr  Zr30  1  0.49925400  0.29506394  0.70071753  1
  Zr  Zr31  1  0.88823808  0.50058877  0.70821649  1
  Zr  Zr32  1  0.29478745  0.10272328  0.50782445  1
  Zr  Zr33  1  0.51013268  0.70187920  0.50205336  1
  Zr  Zr34  1  0.30364938  0.09962427  0.90303988  1
  Zr  Zr35  1  0.30088320  0.70415316  0.28195529  1
  Zr  Zr36  1  0.09643468  0.30811951  0.30426825  1
  Zr  Zr37  1  0.49625134  0.29892216  0.50767314  1
  Zr  Zr38  1  0.49893233  0.90212976  0.68606787  1
  Zr  Zr39  1  0.09781334  0.90149815  0.90483914  1
  Zr  Zr40  1  0.10485293  0.50185794  0.69776931  1
  Zr  Zr41  1  0.50475342  0.69979814  0.90418305  1
  Zr  Zr42  1  0.50592599  0.48748728  0.69577435  1
  Zr  Zr43  1  0.49954467  0.70020368  0.10043222  1
  Zr  Zr44  1  0.89489709  0.90013231  0.10386818  1
  Zr  Zr45  1  0.30876613  0.50313032  0.10389189  1
  Zr  Zr46  1  0.90056564  0.50712572  0.09603339  1
  Zr  Zr47  1  0.89263218  0.70299065  0.49548947  1
  Zr  Zr48  1  0.50323957  0.10342705  0.90309337  1
  Zr  Zr49  1  0.50908130  0.50471899  0.10089143  1
  Sc  Sc50  1  0.49815878  0.29908871  0.89514552  1
  Sc  Sc51  1  0.51220051  0.09720692  0.09222677  1
  Sc  Sc52  1  0.50829855  0.70109472  0.29177125  1
  Sc  Sc53  1  0.69344567  0.70447112  0.10155949  1
  Sc  Sc54  1  0.51069143  0.29001964  0.09544547  1
  Sc  Sc55  1  0.30883306  0.68930111  0.50293182  1
  Sc  Sc56  1  0.29831054  0.50293997  0.69109950  1
  Sc  Sc57  1  0.89674554  0.10193813  0.10829183  1
  Sc  Sc58  1  0.89934241  0.70148058  0.90555879  1
  Sc  Sc59  1  0.69654201  0.30094496  0.29722305  1
  Sc  Sc60  1  0.09065412  0.09918867  0.29587651  1
  Sc  Sc61  1  0.30508064  0.30806906  0.50319439  1
  Sc  Sc62  1  0.09086904  0.69754367  0.49943685  1
  Sc  Sc63  1  0.69533305  0.10023649  0.50162289  1
  Sc  Sc64  1  0.49334869  0.50236868  0.50185324  1
  Sc  Sc65  1  0.10588180  0.09547746  0.68991523  1
  Sc  Sc66  1  0.87878552  0.49580849  0.48867687  1
  Sc  Sc67  1  0.90520927  0.30330190  0.30033816  1
  Sc  Sc68  1  0.69893488  0.89363756  0.89701952  1
  Sc  Sc69  1  0.30170488  0.69746794  0.70331335  1
  Sc  Sc70  1  0.89644854  0.08907635  0.29823636  1
  Sc  Sc71  1  0.29744866  0.90468250  0.90202443  1
  Sc  Sc72  1  0.70161784  0.90720728  0.29563292  1
  Sc  Sc73  1  0.70477224  0.89028635  0.70201297  1
  Sc  Sc74  1  0.70340369  0.30961097  0.50145905  1
  Sc  Sc75  1  0.90467237  0.10001478  0.49940445  1
  Sc  Sc76  1  0.30717433  0.50262482  0.30273759  1
  Sc  Sc77  1  0.09996317  0.29808260  0.91815615  1
  Sc  Sc78  1  0.10874604  0.69748707  0.69960744  1
  Sc  Sc79  1  0.50634043  0.49910604  0.89410662  1
  Sc  Sc80  1  0.69501491  0.89448964  0.49616225  1
  Sc  Sc81  1  0.69899113  0.49933303  0.30509664  1
  Sc  Sc82  1  0.29138357  0.09630305  0.30097504  1
  Sc  Sc83  1  0.09694574  0.90289244  0.09812230  1
  Sc  Sc84  1  0.09731284  0.09728939  0.09847058  1
  Sc  Sc85  1  0.10916400  0.49267354  0.50005400  1
  Sc  Sc86  1  0.69903400  0.10727433  0.10388275  1
  Sc  Sc87  1  0.89617374  0.88969005  0.90095406  1
  Sc  Sc88  1  0.89360740  0.49967367  0.90957604  1
  Sc  Sc89  1  0.10003569  0.70669949  0.90028606  1
  Sc  Sc90  1  0.09956984  0.89680805  0.70237091  1
  Sc  Sc91  1  0.09852000  0.70173624  0.10407017  1
  Sc  Sc92  1  0.69515553  0.49508765  0.70308506  1
  Sc  Sc93  1  0.89712319  0.89027287  0.70291670  1
  Sc  Sc94  1  0.09242288  0.09832586  0.49988942  1
  Sc  Sc95  1  0.50011739  0.70170310  0.70024187  1
  Sc  Sc96  1  0.50209648  0.90176180  0.90216307  1
  Sc  Sc97  1  0.70260950  0.69867720  0.69631506  1
  Sc  Sc98  1  0.50670100  0.50407027  0.29951785  1
  Sc  Sc99  1  0.30920636  0.49452187  0.90124202  1
  Nb  Nb100  1  0.29706039  0.50196464  0.49632852  1
  Nb  Nb101  1  0.50067267  0.90199138  0.49380343  1
  Nb  Nb102  1  0.89687293  0.89979951  0.30132426  1
  Nb  Nb103  1  0.69184934  0.29003777  0.69950155  1
  Nb  Nb104  1  0.70147740  0.90432961  0.09716991  1
  Nb  Nb105  1  0.70123128  0.09541105  0.89258637  1
  Nb  Nb106  1  0.90329241  0.50688441  0.29406769  1
  Nb  Nb107  1  0.50767760  0.10770593  0.69792091  1
  Nb  Nb108  1  0.89754864  0.69600215  0.69723804  1
  Nb  Nb109  1  0.30475575  0.69876068  0.10023979  1
  Nb  Nb110  1  0.90288272  0.29739971  0.90174071  1
  Nb  Nb111  1  0.09620187  0.50218694  0.29780290  1
  Nb  Nb112  1  0.30532149  0.10725016  0.70280915  1
  Nb  Nb113  1  0.69947865  0.10606261  0.29783682  1
  Nb  Nb114  1  0.30594410  0.29161280  0.70385942  1
  Nb  Nb115  1  0.30089481  0.29473639  0.89881350  1
  Nb  Nb116  1  0.51271694  0.09975133  0.29973354  1
  Nb  Nb117  1  0.09979422  0.09618611  0.90002599  1
  Nb  Nb118  1  0.09448341  0.69497496  0.30238525  1
  Nb  Nb119  1  0.69987905  0.10881597  0.70291878  1
  Nb  Nb120  1  0.50458699  0.91078422  0.30419357  1
  Nb  Nb121  1  0.89583852  0.29644945  0.49650454  1
  Nb  Nb122  1  0.90277463  0.69569730  0.30579144  1
  Nb  Nb123  1  0.70672843  0.29947670  0.10285587  1
  Nb  Nb124  1  0.70280115  0.49708815  0.09835961  1
  Nb  Nb125  1  0.19459395  0.20616450  0.40177366  1
  Nb  Nb126  1  0.40427776  0.19401442  0.20173677  1
  Nb  Nb127  1  0.20152871  0.20098691  0.80251324  1
  Nb  Nb128  1  0.20929921  0.60444281  0.00523516  1
  Nb  Nb129  1  0.79313468  -0.00022134  -0.00015281  1
  Nb  Nb130  1  -0.00384396  0.59705980  0.79536626  1
  Nb  Nb131  1  0.20460953  0.80324609  0.59078670  1
  Nb  Nb132  1  -0.00759049  0.79700137  0.21137932  1
  Nb  Nb133  1  0.20225012  0.79388793  0.39977943  1
  Nb  Nb134  1  -0.00112701  0.39530114  0.79979869  1
  Nb  Nb135  1  0.61147210  0.39971817  0.00372088  1
  Nb  Nb136  1  -0.00927332  0.59269536  0.60278193  1
  Nb  Nb137  1  0.40371433  0.80755583  0.39814077  1
  Nb  Nb138  1  0.40161021  0.39079991  0.19756548  1
  Nb  Nb139  1  0.19701991  0.60179936  0.39290579  1
  Nb  Nb140  1  0.60298983  0.00799107  0.79072210  1
  Nb  Nb141  1  0.20051613  0.40280332  0.20062327  1
  Nb  Nb142  1  0.40977945  0.00347628  0.20381254  1
  Nb  Nb143  1  -0.00196819  0.00561027  0.80472827  1
  Nb  Nb144  1  -0.01125603  0.40162338  0.60154284  1
  Nb  Nb145  1  0.20171872  0.38970430  0.80288656  1
  Nb  Nb146  1  0.80126807  0.40345863  0.19442542  1
  Nb  Nb147  1  0.79650376  0.00137437  0.60455551  1
  Nb  Nb148  1  0.80233552  0.20218086  0.40003751  1
  Nb  Nb149  1  0.00345627  0.19963284  0.80347778  1
  Pd  Pd150  1  0.40104765  0.60978522  0.39199876  1
  Pd  Pd151  1  0.41108831  0.00387743  0.79711705  1
  Pd  Pd152  1  0.39444021  0.40166947  0.79427395  1
  Pd  Pd153  1  0.19835179  0.79507397  0.00355563  1
  Pd  Pd154  1  0.00479631  0.79124959  0.60554850  1
  Pd  Pd155  1  0.59364689  0.80717385  0.79428987  1
  Pd  Pd156  1  0.19744938  0.59528133  0.19942755  1
  Pd  Pd157  1  -0.00555441  0.19884482  0.60525330  1
  Pd  Pd158  1  0.79807937  0.80076035  0.20591495  1
  Pd  Pd159  1  0.40715226  0.40561190  0.39655085  1
  Pd  Pd160  1  0.41379283  0.81047997  0.20309476  1
  Pd  Pd161  1  -0.00570603  0.39906581  0.19306695  1
  Pd  Pd162  1  0.20048448  0.20702376  0.59599591  1
  Pd  Pd163  1  0.61112174  -0.00477988  0.60402859  1
  Pd  Pd164  1  0.40239394  0.59764071  -0.00432107  1
  Pd  Pd165  1  0.79766031  0.39203478  0.80230642  1
  Pd  Pd166  1  0.40038699  0.00709708  0.39363171  1
  Pd  Pd167  1  0.79424723  0.59593724  0.20399927  1
  Pd  Pd168  1  0.41514318  0.39432437  0.00462573  1
  Pd  Pd169  1  0.39214230  0.18917183  0.39809232  1
  Pd  Pd170  1  0.40305538  0.01160329  0.60216585  1
  Pd  Pd171  1  0.40290887  -0.00892919  0.01118198  1
  Pd  Pd172  1  0.20449038  0.39217965  0.60245705  1
  Pd  Pd173  1  -0.00699052  0.19823166  0.20431056  1
  Pd  Pd174  1  0.19443474  0.00512313  0.79700563  1
  Pd  Pd175  1  0.79767655  0.59584594  0.59820450  1
  Pd  Pd176  1  0.61138719  0.20498467  0.40821009  1
  Pd  Pd177  1  0.79477579  0.00614920  0.40684982  1
  Pd  Pd178  1  0.59339696  0.39904816  0.40449472  1
  Pd  Pd179  1  0.20277013  0.40842062  0.00128296  1
  Pd  Pd180  1  0.79223551  0.60989620  0.00092868  1
  Pd  Pd181  1  0.00328406  0.80523271  0.39597607  1
  Pd  Pd182  1  0.59785992  0.80332572  0.39217010  1
  Pd  Pd183  1  0.40548291  0.80988740  0.00319701  1
  Pd  Pd184  1  0.59841826  0.60132300  0.79217045  1
  Pd  Pd185  1  -0.01182470  0.00114525  -0.00245687  1
  Pd  Pd186  1  0.79340567  0.40304516  0.60027002  1
  Pd  Pd187  1  0.20173337  0.59473406  0.81376518  1
  Pd  Pd188  1  0.20532374  0.80248600  0.79440938  1
  Pd  Pd189  1  0.40582883  0.59711021  0.60564975  1
  Pd  Pd190  1  -0.01100691  -0.00003437  0.61266094  1
  Pd  Pd191  1  0.39606225  0.79700812  0.59334682  1
  Pd  Pd192  1  0.18968122  0.00731304  0.40025197  1
  Pd  Pd193  1  0.00166377  0.58744506  0.41137503  1
  Pd  Pd194  1  0.40337505  0.59412194  0.79615780  1
  Pd  Pd195  1  0.40251644  0.80620900  0.80032687  1
  Pd  Pd196  1  0.20180184  0.20208000  0.20615214  1
  Pd  Pd197  1  -0.00111738  0.79563261  0.79663189  1
  Pd  Pd198  1  -0.00829863  0.41157214  0.40792959  1
  Pd  Pd199  1  0.60077510  0.39705310  0.19614242  1
  Rh  Rh200  1  0.18648730  0.79652734  0.20266262  1
  Rh  Rh201  1  0.80312490  0.79131297  0.80025941  1
  Rh  Rh202  1  0.80271315  0.39317300  0.38377026  1
  Rh  Rh203  1  0.79825928  0.80326531  0.39614306  1
  Rh  Rh204  1  0.79946165  0.39952046  0.00341150  1
  Rh  Rh205  1  0.60104037  0.80236968  0.60022577  1
  Rh  Rh206  1  -0.00121523  0.79841106  0.01188755  1
  Rh  Rh207  1  0.60601813  0.80395669  0.20511068  1
  Rh  Rh208  1  0.60720454  0.38910413  0.80627627  1
  Rh  Rh209  1  0.79709542  0.59838218  0.39563824  1
  Rh  Rh210  1  -0.00193715  -0.00181179  0.39727547  1
  Rh  Rh211  1  0.60232498  0.79946000  -0.00042014  1
  Rh  Rh212  1  0.60194735  0.39435634  0.59863124  1
  Rh  Rh213  1  0.40900479  0.59564536  0.20187385  1
  Rh  Rh214  1  0.80368005  0.60767525  0.80601860  1
  Rh  Rh215  1  -0.00307528  -0.00818834  0.19977788  1
  Rh  Rh216  1  0.79279080  0.80439208  0.00093534  1
  Rh  Rh217  1  0.20079972  0.00419186  0.19304101  1
  Rh  Rh218  1  -0.00430494  0.19353699  0.39539136  1
  Rh  Rh219  1  0.60795006  0.60248392  0.19991005  1
  Rh  Rh220  1  0.80058514  0.20646434  0.21249820  1
  Rh  Rh221  1  0.60239943  0.20410416  0.59355290  1
  Rh  Rh222  1  0.79636051  -0.00722202  0.80042894  1
  Rh  Rh223  1  0.40561583  0.20144730  0.00287170  1
  Rh  Rh224  1  0.40027380  0.19462075  0.80242314  1
  Rh  Rh225  1  0.40285459  0.19483753  0.59855924  1
  Rh  Rh226  1  0.60487911  0.59623255  -0.00076582  1
  Rh  Rh227  1  0.00770751  0.61096112  -0.00701610  1
  Rh  Rh228  1  0.79385943  0.18996148  0.00095454  1
  Rh  Rh229  1  0.59645877  0.60222724  0.39941465  1
  Rh  Rh230  1  0.59918614  0.19970199  0.80525670  1
  Rh  Rh231  1  0.80000892  0.80528916  0.59688122  1
  Rh  Rh232  1  0.19597171  0.61085798  0.58439427  1
  Rh  Rh233  1  0.60815740  0.20377538  -0.00477093  1
  Rh  Rh234  1  0.20303522  0.40552652  0.39358791  1
  Rh  Rh235  1  0.20000211  -0.00223986  0.00209416  1
  Rh  Rh236  1  0.79357568  0.00302615  0.19379040  1
  Rh  Rh237  1  -0.00407187  0.60766076  0.20064081  1
  Rh  Rh238  1  0.79150945  0.19408921  0.58696028  1
  Rh  Rh239  1  0.59734787  0.60053026  0.60609422  1
  Rh  Rh240  1  0.60545814  0.00545707  0.20301869  1
  Rh  Rh241  1  0.60740560  0.00071793  0.39899714  1
  Rh  Rh242  1  0.19570664  0.19088924  -0.00576306  1
  Rh  Rh243  1  -0.00729588  0.39833006  -0.00034314  1
  Rh  Rh244  1  0.61118369  -0.00133072  -0.01142035  1
  Rh  Rh245  1  0.20065286  -0.00359347  0.60378405  1
  Rh  Rh246  1  0.59890260  0.19825751  0.19811918  1
  Rh  Rh247  1  0.80064740  0.20704658  0.80426381  1
  Rh  Rh248  1  0.00281157  0.19204254  -0.00042682  1
  Rh  Rh249  1  0.39311417  0.40463285  0.60281195  1
