# generated using pymatgen
data_ZrScNbPdRh
_symmetry_space_group_name_H-M   'P 1'
_cell_length_a   16.55352500
_cell_length_b   16.55446098
_cell_length_c   16.55293688
_cell_angle_alpha   89.96927900
_cell_angle_beta   89.97167994
_cell_angle_gamma   90.01223242
_symmetry_Int_Tables_number   1
_chemical_formula_structural   ZrScNbPdRh
_chemical_formula_sum   'Zr50 Sc50 Nb50 Pd50 Rh50'
_cell_volume   4536.07751160
_cell_formula_units_Z   50
loop_
 _symmetry_equiv_pos_site_id
 _symmetry_equiv_pos_as_xyz
  1  'x, y, z'
loop_
 _atom_site_type_symbol
 _atom_site_label
 _atom_site_symmetry_multiplicity
 _atom_site_fract_x
 _atom_site_fract_y
 _atom_site_fract_z
 _atom_site_occupancy
  Zr  Zr0  1  0.29465934  0.50558393  0.29670056  1
  Zr  Zr1  1  0.69712797  0.69605169  0.70305585  1
  Zr  Zr2  1  0.89649876  0.70347043  0.69734843  1
  Zr  Zr3  1  0.90014741  0.10198041  0.49931247  1
  Zr  Zr4  1  0.49810224  0.89989765  0.09337182  1
  Zr  Zr5  1  0.30376301  0.49892594  0.50216920  1
  Zr  Zr6  1  0.90349782  0.51194738  0.50048326  1
  Zr  Zr7  1  0.30255082  0.69778011  0.89693214  1
  Zr  Zr8  1  0.30779867  0.69471088  0.50198120  1
  Zr  Zr9  1  0.50508160  0.69828953  0.29782511  1
  Zr  Zr10  1  0.69986517  0.29823917  0.90315719  1
  Zr  Zr11  1  0.89646282  0.70431593  0.10397873  1
  Zr  Zr12  1  0.49249384  0.09804420  0.29875484  1
  Zr  Zr13  1  0.69734660  0.70312176  0.09998362  1
  Zr  Zr14  1  0.91111948  0.29525642  0.69537941  1
  Zr  Zr15  1  0.91105551  0.09944941  0.29969889  1
  Zr  Zr16  1  0.50019211  0.89699060  0.30401435  1
  Zr  Zr17  1  0.10112949  0.90378437  0.90397674  1
  Zr  Zr18  1  0.30525197  0.30501757  0.09132351  1
  Zr  Zr19  1  0.10047047  0.90637973  0.70013222  1
  Zr  Zr20  1  0.29559154  0.09913987  0.49817419  1
  Zr  Zr21  1  0.50601631  0.70196590  0.89903134  1
  Zr  Zr22  1  0.29443233  0.49772915  0.10139364  1
  Zr  Zr23  1  0.29425190  0.29041402  0.30134634  1
  Zr  Zr24  1  0.50869263  0.29230762  0.29759670  1
  Zr  Zr25  1  0.10168026  0.49923108  0.50033567  1
  Zr  Zr26  1  0.50341708  0.50223050  0.30159941  1
  Zr  Zr27  1  0.50066298  0.69762500  0.50441790  1
  Zr  Zr28  1  0.89855819  0.69305693  0.89814555  1
  Zr  Zr29  1  0.50297715  0.50298319  0.89546250  1
  Zr  Zr30  1  0.10288727  0.10385067  0.31043596  1
  Zr  Zr31  1  0.30709866  0.10348710  0.89972293  1
  Zr  Zr32  1  0.10034506  0.11035771  0.69360747  1
  Zr  Zr33  1  0.89136551  0.49919899  0.90117150  1
  Zr  Zr34  1  0.89583510  0.90969875  0.10008999  1
  Zr  Zr35  1  0.70806593  0.70570769  0.49257248  1
  Zr  Zr36  1  0.69844447  0.29212337  0.49603179  1
  Zr  Zr37  1  0.89200823  0.90083730  0.49668576  1
  Zr  Zr38  1  0.70536499  0.90308955  0.71699609  1
  Zr  Zr39  1  0.90160120  0.50014837  0.29986232  1
  Zr  Zr40  1  0.29782123  0.90575344  0.91017874  1
  Zr  Zr41  1  0.09438579  0.71308046  0.70520875  1
  Zr  Zr42  1  0.29841531  0.09768304  0.30271929  1
  Zr  Zr43  1  0.30214057  0.10244471  0.69576470  1
  Zr  Zr44  1  0.89993586  0.29827869  0.29872626  1
  Zr  Zr45  1  0.50001283  0.70004050  0.10274109  1
  Zr  Zr46  1  0.30046261  0.30237130  0.89983677  1
  Zr  Zr47  1  0.70020861  0.29023415  0.69879856  1
  Zr  Zr48  1  0.10367358  0.30692772  0.09622070  1
  Zr  Zr49  1  0.90236586  0.69955543  0.30102720  1
  Sc  Sc50  1  0.70545370  0.89799756  0.09492299  1
  Sc  Sc51  1  0.09871133  0.70253848  0.89911459  1
  Sc  Sc52  1  0.70027812  0.09028971  0.09781417  1
  Sc  Sc53  1  0.08042108  0.09608601  0.09001792  1
  Sc  Sc54  1  0.50374618  0.29911911  0.50039619  1
  Sc  Sc55  1  0.09721481  0.30129392  0.52232145  1
  Sc  Sc56  1  0.50278771  0.50077923  0.50378537  1
  Sc  Sc57  1  0.09023585  0.48515426  0.69021973  1
  Sc  Sc58  1  0.49525112  0.90507624  0.49834140  1
  Sc  Sc59  1  0.69742000  0.09866450  0.30971545  1
  Sc  Sc60  1  0.89905967  0.89577348  0.69708857  1
  Sc  Sc61  1  0.30886496  0.08646706  0.09740227  1
  Sc  Sc62  1  0.09451896  0.91021739  0.50527959  1
  Sc  Sc63  1  0.70005424  0.70435595  0.89741931  1
  Sc  Sc64  1  0.69664776  0.30492330  0.30411306  1
  Sc  Sc65  1  0.69881418  0.49100739  0.08846748  1
  Sc  Sc66  1  0.88262413  0.90020837  0.89838397  1
  Sc  Sc67  1  0.90200834  0.29490966  0.09665681  1
  Sc  Sc68  1  0.50683017  0.50548673  0.69462295  1
  Sc  Sc69  1  0.10973889  0.89981910  0.09850650  1
  Sc  Sc70  1  0.09033662  0.69381615  0.50220767  1
  Sc  Sc71  1  0.69676861  0.09345941  0.89108690  1
  Sc  Sc72  1  0.10556594  0.50425939  0.10768218  1
  Sc  Sc73  1  0.10115627  0.10236468  0.89914437  1
  Sc  Sc74  1  0.10072849  0.69524455  0.29042871  1
  Sc  Sc75  1  0.90241141  0.10154338  0.91837169  1
  Sc  Sc76  1  0.49927909  0.29592789  0.69366514  1
  Sc  Sc77  1  0.50000694  0.90544268  0.70150685  1
  Sc  Sc78  1  0.29814600  0.70175437  0.10127326  1
  Sc  Sc79  1  0.69709564  0.30331388  0.10136964  1
  Sc  Sc80  1  0.10108201  0.50649930  0.90473640  1
  Sc  Sc81  1  0.50235695  0.69276211  0.70152259  1
  Sc  Sc82  1  0.30170295  0.69267688  0.29279953  1
  Sc  Sc83  1  0.50432450  0.49945300  0.09394319  1
  Sc  Sc84  1  0.30067610  0.91129501  0.69942571  1
  Sc  Sc85  1  0.70403460  0.10404251  0.70282940  1
  Sc  Sc86  1  0.31531762  0.49281643  0.69798162  1
  Sc  Sc87  1  0.30621667  0.49844502  0.90447627  1
  Sc  Sc88  1  0.89700941  0.29764318  0.89983787  1
  Sc  Sc89  1  0.30219172  0.29746446  0.69105181  1
  Sc  Sc90  1  0.10297414  0.90275679  0.29699144  1
  Sc  Sc91  1  0.49683862  0.09679047  0.10210188  1
  Sc  Sc92  1  0.89202546  0.90842932  0.29615988  1
  Sc  Sc93  1  0.49128649  0.29970739  0.90343602  1
  Sc  Sc94  1  0.49196564  0.09881068  0.49721895  1
  Sc  Sc95  1  0.09482989  0.29667692  0.29377676  1
  Sc  Sc96  1  0.29491499  0.90493218  0.28808865  1
  Sc  Sc97  1  0.89753076  0.50162707  0.09974093  1
  Sc  Sc98  1  0.50056262  0.10178203  0.70359076  1
  Sc  Sc99  1  0.89410902  0.50411621  0.70584105  1
  Nb  Nb100  1  0.30125534  0.30484585  0.49986108  1
  Nb  Nb101  1  0.69548824  0.70182277  0.30109202  1
  Nb  Nb102  1  0.09978803  0.09817238  0.49772074  1
  Nb  Nb103  1  0.30438047  0.70264705  0.69990748  1
  Nb  Nb104  1  0.89434546  0.09625878  0.10820178  1
  Nb  Nb105  1  0.50431326  0.09646094  0.90334061  1
  Nb  Nb106  1  0.69864365  0.49528706  0.50061267  1
  Nb  Nb107  1  0.51253154  0.90318384  0.89838826  1
  Nb  Nb108  1  0.10135816  0.29714161  0.70996634  1
  Nb  Nb109  1  0.29955550  0.90022581  0.09707220  1
  Nb  Nb110  1  0.70404875  0.49178011  0.89426076  1
  Nb  Nb111  1  0.09979606  0.49821906  0.30106529  1
  Nb  Nb112  1  0.09212780  0.70366023  0.10494136  1
  Nb  Nb113  1  0.70501194  0.09599897  0.50310302  1
  Nb  Nb114  1  0.68562519  0.89636012  0.89897616  1
  Nb  Nb115  1  0.69760683  0.89480930  0.31377770  1
  Nb  Nb116  1  0.50216293  0.29907138  0.09889270  1
  Nb  Nb117  1  0.30311322  0.89927685  0.50410778  1
  Nb  Nb118  1  0.69866558  0.50023331  0.69947221  1
  Nb  Nb119  1  0.89570181  0.30181662  0.49996537  1
  Nb  Nb120  1  0.69974103  0.50198277  0.30782398  1
  Nb  Nb121  1  0.10068187  0.29680608  0.89609048  1
  Nb  Nb122  1  0.70040662  0.90336719  0.49012605  1
  Nb  Nb123  1  0.90407167  0.70560021  0.50027807  1
  Nb  Nb124  1  0.89773245  0.09876581  0.70183692  1
  Nb  Nb125  1  0.79553519  0.40048416  0.59619250  1
  Nb  Nb126  1  0.19780103  0.39711806  0.40170230  1
  Nb  Nb127  1  -0.00533092  0.79881313  0.00498017  1
  Nb  Nb128  1  0.40058355  0.80283381  0.80447182  1
  Nb  Nb129  1  0.39387656  0.79948989  0.40098034  1
  Nb  Nb130  1  0.19689016  0.39765323  0.79701270  1
  Nb  Nb131  1  -0.00044491  0.79964786  0.40104693  1
  Nb  Nb132  1  0.20237923  0.20132781  0.00129635  1
  Nb  Nb133  1  0.00193680  0.40195375  0.40241553  1
  Nb  Nb134  1  0.61011622  -0.00287754  0.59509817  1
  Nb  Nb135  1  0.60106008  -0.00728628  0.20701222  1
  Nb  Nb136  1  0.39624734  0.39780205  0.39401542  1
  Nb  Nb137  1  0.00287106  0.39981472  -0.00386729  1
  Nb  Nb138  1  0.20242330  0.59654403  0.78881874  1
  Nb  Nb139  1  -0.00453866  0.00451912  0.79711436  1
  Nb  Nb140  1  0.20197343  0.79864726  0.40705478  1
  Nb  Nb141  1  0.59404269  0.19759414  0.00004695  1
  Nb  Nb142  1  0.20290239  0.60453865  0.61012958  1
  Nb  Nb143  1  0.19831667  0.19624464  0.18925103  1
  Nb  Nb144  1  0.40271821  0.39547656  0.20259568  1
  Nb  Nb145  1  0.60735537  0.80831376  0.59669230  1
  Nb  Nb146  1  0.78858849  0.59928116  0.20845940  1
  Nb  Nb147  1  0.80287587  0.19320579  0.20085740  1
  Nb  Nb148  1  0.60691502  0.39979813  0.79868781  1
  Nb  Nb149  1  0.20444853  0.79836412  0.59680558  1
  Pd  Pd150  1  0.59589647  0.18654274  0.59502841  1
  Pd  Pd151  1  0.60982152  0.18899273  0.19284532  1
  Pd  Pd152  1  0.00858214  -0.00417702  0.20076093  1
  Pd  Pd153  1  0.20285047  0.20320308  0.59544739  1
  Pd  Pd154  1  0.60737858  0.58945446  0.19420618  1
  Pd  Pd155  1  0.79933344  0.19554358  0.39321564  1
  Pd  Pd156  1  0.00426311  0.60253311  0.61138868  1
  Pd  Pd157  1  0.80772472  0.19470066  0.80486522  1
  Pd  Pd158  1  0.79285340  0.80479483  0.60236423  1
  Pd  Pd159  1  0.40069868  0.59748540  0.00479259  1
  Pd  Pd160  1  0.59536189  0.00708892  0.40294006  1
  Pd  Pd161  1  0.00734417  0.59264812  0.79359297  1
  Pd  Pd162  1  0.19377670  0.79090758  0.00465676  1
  Pd  Pd163  1  -0.00972061  0.81230779  0.81155080  1
  Pd  Pd164  1  0.21034846  0.80185599  0.79535929  1
  Pd  Pd165  1  0.79261077  0.80051532  0.20746836  1
  Pd  Pd166  1  0.40241056  0.80106783  -0.00638748  1
  Pd  Pd167  1  0.40287912  0.20545205  0.40644735  1
  Pd  Pd168  1  0.00332856  0.40602377  0.80887703  1
  Pd  Pd169  1  0.79517350  0.59672840  0.59878683  1
  Pd  Pd170  1  0.40629488  0.39610537  0.79496748  1
  Pd  Pd171  1  0.20106551  -0.01103751  0.40461506  1
  Pd  Pd172  1  0.79617911  0.39949629  0.19619894  1
  Pd  Pd173  1  0.60292747  0.39739291  0.60409197  1
  Pd  Pd174  1  0.59932341  0.40583176  0.19990332  1
  Pd  Pd175  1  0.79858711  0.39291868  0.78991122  1
  Pd  Pd176  1  0.80360771  0.40197465  0.40574288  1
  Pd  Pd177  1  0.00261939  0.81089138  0.20143942  1
  Pd  Pd178  1  0.79209264  0.60053251  0.00509603  1
  Pd  Pd179  1  0.19373201  0.60473690  0.40392797  1
  Pd  Pd180  1  0.60826632  0.60013666  -0.00618272  1
  Pd  Pd181  1  0.79133182  0.00110098  -0.00848460  1
  Pd  Pd182  1  -0.00743290  0.19049655  0.80748507  1
  Pd  Pd183  1  0.60049769  0.59886466  0.40795439  1
  Pd  Pd184  1  0.78940388  0.19768063  0.00869823  1
  Pd  Pd185  1  0.40499952  0.20386473  0.79634904  1
  Pd  Pd186  1  0.79670947  -0.00151247  0.60484944  1
  Pd  Pd187  1  0.40483269  0.80524384  0.60538360  1
  Pd  Pd188  1  0.60599581  0.80976665  0.19728143  1
  Pd  Pd189  1  -0.00575387  0.00451233  0.60402066  1
  Pd  Pd190  1  0.79905322  0.60279152  0.39720407  1
  Pd  Pd191  1  0.19238370  0.01123899  0.18955644  1
  Pd  Pd192  1  0.00843638  0.21268206  0.41176909  1
  Pd  Pd193  1  0.39322152  0.80227175  0.20436175  1
  Pd  Pd194  1  0.00250949  0.59940059  0.00828856  1
  Pd  Pd195  1  0.19693630  0.60712779  -0.00146179  1
  Pd  Pd196  1  0.19501775  0.00865333  0.80018274  1
  Pd  Pd197  1  0.40456349  -0.00441293  0.80449377  1
  Pd  Pd198  1  0.39298525  0.20173997  0.19234023  1
  Pd  Pd199  1  -0.00008116  0.40367498  0.19582895  1
  Rh  Rh200  1  0.19038178  0.20784271  0.40822605  1
  Rh  Rh201  1  0.20669041  0.20474150  0.80435270  1
  Rh  Rh202  1  0.60129735  0.79933994  0.00293662  1
  Rh  Rh203  1  -0.00087238  0.19733553  0.19264678  1
  Rh  Rh204  1  0.19156985  0.39840824  -0.01433859  1
  Rh  Rh205  1  0.80970203  0.39688432  0.00263188  1
  Rh  Rh206  1  0.40580025  -0.00326373  -0.00458992  1
  Rh  Rh207  1  0.39687864  0.60479468  0.79628500  1
  Rh  Rh208  1  -0.00279746  0.19519801  0.59599309  1
  Rh  Rh209  1  0.20587552  0.40322146  0.60621624  1
  Rh  Rh210  1  0.59040644  0.80009127  0.79042471  1
  Rh  Rh211  1  0.20008177  0.01065506  0.00323553  1
  Rh  Rh212  1  0.80033286  0.79871402  -0.00552926  1
  Rh  Rh213  1  0.00416385  0.80253923  0.59015061  1
  Rh  Rh214  1  0.40035272  0.59552560  0.60629705  1
  Rh  Rh215  1  -0.00570874  -0.01241269  -0.00645127  1
  Rh  Rh216  1  0.80805465  0.79895779  0.39328666  1
  Rh  Rh217  1  -0.00441138  0.59388710  0.19835319  1
  Rh  Rh218  1  0.40898928  0.39716890  0.59252569  1
  Rh  Rh219  1  0.39895897  0.19781386  0.59492895  1
  Rh  Rh220  1  0.80779812  0.00736581  0.80422640  1
  Rh  Rh221  1  0.40578127  -0.00868655  0.20079181  1
  Rh  Rh222  1  -0.00007135  -0.00650992  0.40028930  1
  Rh  Rh223  1  0.40374258  0.19332962  0.00357274  1
  Rh  Rh224  1  0.59176021  0.79657325  0.40827386  1
  Rh  Rh225  1  0.59972403  0.00347813  0.00414330  1
  Rh  Rh226  1  0.59561006  0.40063555  0.40094764  1
  Rh  Rh227  1  0.78597628  0.00500669  0.21016822  1
  Rh  Rh228  1  0.59448042  0.39187238  -0.01087012  1
  Rh  Rh229  1  0.20477975  0.39388242  0.21140730  1
  Rh  Rh230  1  0.60682578  0.59137618  0.80443678  1
  Rh  Rh231  1  0.59815860  0.00456374  0.79158565  1
  Rh  Rh232  1  0.59886569  0.19416506  0.40518028  1
  Rh  Rh233  1  0.40489836  0.00585847  0.60066917  1
  Rh  Rh234  1  0.20240827  0.00007372  0.59655396  1
  Rh  Rh235  1  0.80416647  0.00571932  0.39542394  1
  Rh  Rh236  1  0.00516838  0.20939020  0.00032225  1
  Rh  Rh237  1  0.40272022  0.59259224  0.19270319  1
  Rh  Rh238  1  0.80111565  0.79435355  0.80349293  1
  Rh  Rh239  1  0.38992292  -0.00743951  0.39679659  1
  Rh  Rh240  1  0.59343281  0.20718010  0.81048047  1
  Rh  Rh241  1  0.80613360  0.20317146  0.59797449  1
  Rh  Rh242  1  -0.01489939  0.40070171  0.59432999  1
  Rh  Rh243  1  0.79587469  0.60265170  0.79983361  1
  Rh  Rh244  1  0.00396653  0.60318842  0.39358013  1
  Rh  Rh245  1  0.40734617  0.40795478  0.00642581  1
  Rh  Rh246  1  0.61007010  0.60699237  0.59272173  1
  Rh  Rh247  1  0.20303702  0.79732699  0.20103988  1
  Rh  Rh248  1  0.19571008  0.60701173  0.19403552  1
  Rh  Rh249  1  0.40937241  0.60103647  0.39575250  1
