# generated using pymatgen
data_ZrScNbPdRh
_symmetry_space_group_name_H-M   'P 1'
_cell_length_a   16.56117629
_cell_length_b   16.55915078
_cell_length_c   16.55850837
_cell_angle_alpha   90.01417392
_cell_angle_beta   89.97543989
_cell_angle_gamma   89.99557861
_symmetry_Int_Tables_number   1
_chemical_formula_structural   ZrScNbPdRh
_chemical_formula_sum   'Zr50 Sc50 Nb50 Pd50 Rh50'
_cell_volume   4540.98845860
_cell_formula_units_Z   50
loop_
 _symmetry_equiv_pos_site_id
 _symmetry_equiv_pos_as_xyz
  1  'x, y, z'
loop_
 _atom_site_type_symbol
 _atom_site_label
 _atom_site_symmetry_multiplicity
 _atom_site_fract_x
 _atom_site_fract_y
 _atom_site_fract_z
 _atom_site_occupancy
  Zr  Zr0  1  0.30130685  0.50143710  0.49494284  1
  Zr  Zr1  1  0.89544135  0.70610635  0.89816167  1
  Zr  Zr2  1  0.90554354  0.49116889  0.30747834  1
  Zr  Zr3  1  0.49436885  0.09156591  0.90471637  1
  Zr  Zr4  1  0.90001923  0.50053298  0.10402915  1
  Zr  Zr5  1  0.29619164  0.69845661  0.69475207  1
  Zr  Zr6  1  0.89648895  0.49896554  0.49541734  1
  Zr  Zr7  1  0.50425232  0.50152950  0.89621548  1
  Zr  Zr8  1  0.30328001  0.69522356  0.10200469  1
  Zr  Zr9  1  0.49952324  0.10133817  0.10026492  1
  Zr  Zr10  1  0.90284667  0.90534072  0.70477811  1
  Zr  Zr11  1  0.89077266  0.29154636  0.90430547  1
  Zr  Zr12  1  0.09914486  0.90197484  0.09773043  1
  Zr  Zr13  1  0.90187835  0.89734415  0.49493960  1
  Zr  Zr14  1  0.50427947  0.29916817  0.69563845  1
  Zr  Zr15  1  0.30304969  0.50266989  0.69303297  1
  Zr  Zr16  1  0.89677568  0.49755839  0.69312050  1
  Zr  Zr17  1  0.69753888  0.28430076  0.70360614  1
  Zr  Zr18  1  0.08403507  0.10520538  0.10421284  1
  Zr  Zr19  1  0.29452945  0.89221786  0.09932636  1
  Zr  Zr20  1  0.70166655  0.09592479  0.50609162  1
  Zr  Zr21  1  0.30514850  0.70046173  0.89237004  1
  Zr  Zr22  1  0.10391705  0.49052930  0.09871179  1
  Zr  Zr23  1  0.30360005  0.29608571  0.70362979  1
  Zr  Zr24  1  0.90304550  0.09074083  0.50262441  1
  Zr  Zr25  1  0.10242966  0.29497746  0.49355143  1
  Zr  Zr26  1  0.89741324  0.70147639  0.30270671  1
  Zr  Zr27  1  0.70215875  0.51228852  0.50435858  1
  Zr  Zr28  1  0.69970847  0.30823469  0.90202873  1
  Zr  Zr29  1  0.90554598  0.29100288  0.10120028  1
  Zr  Zr30  1  0.90352485  0.69913846  0.09615919  1
  Zr  Zr31  1  0.09784811  0.49756280  0.90387102  1
  Zr  Zr32  1  0.89696562  0.91469492  0.09883826  1
  Zr  Zr33  1  0.09750844  0.90279602  0.70660197  1
  Zr  Zr34  1  0.29910994  0.49960963  0.29550662  1
  Zr  Zr35  1  0.30189585  0.91364496  0.89296674  1
  Zr  Zr36  1  0.08963101  0.69692222  0.90165211  1
  Zr  Zr37  1  0.29298934  0.09809187  0.49814132  1
  Zr  Zr38  1  0.89513798  0.09446264  0.90467577  1
  Zr  Zr39  1  0.10776676  0.70435432  0.10132212  1
  Zr  Zr40  1  0.29992408  0.90066011  0.49856590  1
  Zr  Zr41  1  0.70452377  0.30124191  0.30182793  1
  Zr  Zr42  1  0.70666856  0.70158693  0.10581203  1
  Zr  Zr43  1  0.29442057  0.69653271  0.29858363  1
  Zr  Zr44  1  0.69238029  0.09975511  0.30523587  1
  Zr  Zr45  1  0.69407664  0.89937138  0.09851400  1
  Zr  Zr46  1  0.09393490  0.90472595  0.50317949  1
  Zr  Zr47  1  0.30483311  0.50116515  0.89841793  1
  Zr  Zr48  1  0.51537507  0.10125943  0.70628129  1
  Zr  Zr49  1  0.89276237  0.69760020  0.49967300  1
  Sc  Sc50  1  0.29792472  0.89653608  0.70905284  1
  Sc  Sc51  1  0.89940097  0.50893303  0.90198141  1
  Sc  Sc52  1  0.69916582  0.50473719  0.70341131  1
  Sc  Sc53  1  0.30590756  0.10583943  0.09132564  1
  Sc  Sc54  1  0.29887782  0.10057856  0.29893272  1
  Sc  Sc55  1  0.89296597  0.29733015  0.69527591  1
  Sc  Sc56  1  0.50794523  0.90719631  0.10318595  1
  Sc  Sc57  1  0.09484869  0.69992394  0.48661946  1
  Sc  Sc58  1  0.71053568  0.30505181  0.08963252  1
  Sc  Sc59  1  0.50082739  0.70607723  0.10375582  1
  Sc  Sc60  1  0.49956481  0.90449836  0.70626152  1
  Sc  Sc61  1  0.69758876  0.29280585  0.50319755  1
  Sc  Sc62  1  0.70633737  0.49486033  0.09178552  1
  Sc  Sc63  1  0.50047973  0.70705550  0.30503078  1
  Sc  Sc64  1  0.49787997  0.49637635  0.69657370  1
  Sc  Sc65  1  0.30828509  0.89841898  0.30781739  1
  Sc  Sc66  1  0.10728330  0.30025265  0.29192183  1
  Sc  Sc67  1  0.50211751  0.90151634  0.30140562  1
  Sc  Sc68  1  0.69805754  0.90804233  0.50006601  1
  Sc  Sc69  1  0.49900920  0.89573869  0.49840915  1
  Sc  Sc70  1  0.70160927  0.91057258  0.70308441  1
  Sc  Sc71  1  0.29721473  0.29552864  0.10085922  1
  Sc  Sc72  1  0.09707902  0.89910593  0.31188229  1
  Sc  Sc73  1  0.29629620  0.30219983  0.49761592  1
  Sc  Sc74  1  0.48954030  0.30487205  0.30154792  1
  Sc  Sc75  1  0.71484057  0.50096956  0.29888539  1
  Sc  Sc76  1  0.10288555  0.90056810  0.89784323  1
  Sc  Sc77  1  0.49158987  0.50079346  0.09547113  1
  Sc  Sc78  1  0.90001286  0.70478743  0.71097287  1
  Sc  Sc79  1  0.10073382  0.09849814  0.50453279  1
  Sc  Sc80  1  0.49701749  0.50512678  0.50554930  1
  Sc  Sc81  1  0.31021518  0.69863967  0.49732303  1
  Sc  Sc82  1  0.10781666  0.49863929  0.30388566  1
  Sc  Sc83  1  0.49636183  0.09127799  0.29963296  1
  Sc  Sc84  1  0.50258606  0.30091859  0.89242330  1
  Sc  Sc85  1  0.09496363  0.70328071  0.70941283  1
  Sc  Sc86  1  0.09277010  0.28868897  0.68840815  1
  Sc  Sc87  1  0.10036128  0.51112429  0.70350818  1
  Sc  Sc88  1  0.09543041  0.49865386  0.49002788  1
  Sc  Sc89  1  0.48738477  0.49670561  0.30190127  1
  Sc  Sc90  1  0.50225779  0.70021496  0.69299245  1
  Sc  Sc91  1  0.70516948  0.09218728  0.10015186  1
  Sc  Sc92  1  0.51221596  0.09060825  0.49544377  1
  Sc  Sc93  1  0.10869006  0.09948996  0.90305418  1
  Sc  Sc94  1  0.69891782  0.70456350  0.30213334  1
  Sc  Sc95  1  0.29809075  0.30340186  0.30371616  1
  Sc  Sc96  1  0.70208862  0.10207433  0.89505036  1
  Sc  Sc97  1  0.90744385  0.30970868  0.50068669  1
  Sc  Sc98  1  0.69879045  0.89916677  0.29683528  1
  Sc  Sc99  1  0.49975955  0.30735438  0.50474104  1
  Nb  Nb100  1  0.90123127  0.10127983  0.10351954  1
  Nb  Nb101  1  0.69325416  0.50193759  0.90154697  1
  Nb  Nb102  1  0.50531784  0.89970855  0.90407622  1
  Nb  Nb103  1  0.88815570  0.90224298  0.89218995  1
  Nb  Nb104  1  0.09862275  0.69442854  0.29685781  1
  Nb  Nb105  1  0.89847652  0.09895116  0.70266683  1
  Nb  Nb106  1  0.10108413  0.29766019  0.08405757  1
  Nb  Nb107  1  0.90874605  0.09943832  0.28234356  1
  Nb  Nb108  1  0.69979689  0.70152911  0.70236393  1
  Nb  Nb109  1  0.70442716  0.89705962  0.90528858  1
  Nb  Nb110  1  0.30297602  0.50129319  0.09680811  1
  Nb  Nb111  1  0.09709662  0.10112735  0.29677728  1
  Nb  Nb112  1  0.10023182  0.29801545  0.90792786  1
  Nb  Nb113  1  0.90471933  0.90217246  0.30457618  1
  Nb  Nb114  1  0.09097482  0.09551333  0.70000261  1
  Nb  Nb115  1  0.29769286  0.09770044  0.70965905  1
  Nb  Nb116  1  0.70016688  0.69834300  0.89469390  1
  Nb  Nb117  1  0.89757691  0.29807734  0.30135383  1
  Nb  Nb118  1  0.50184708  0.69636698  0.90176956  1
  Nb  Nb119  1  0.70709589  0.10096404  0.69352861  1
  Nb  Nb120  1  0.49694732  0.30229975  0.09680326  1
  Nb  Nb121  1  0.51378616  0.70030575  0.50274571  1
  Nb  Nb122  1  0.68961844  0.69846186  0.51441509  1
  Nb  Nb123  1  0.29035760  0.28962858  0.90431318  1
  Nb  Nb124  1  0.30204771  0.10858845  0.89517483  1
  Nb  Nb125  1  0.60319612  0.60325187  -0.00359840  1
  Nb  Nb126  1  0.40559248  0.80302901  -0.00872449  1
  Nb  Nb127  1  0.20429388  0.59795364  0.00132677  1
  Nb  Nb128  1  -0.00110206  0.80016531  0.20386739  1
  Nb  Nb129  1  0.00344600  0.60282867  0.20224645  1
  Nb  Nb130  1  0.19667040  0.80052795  0.59825504  1
  Nb  Nb131  1  0.60245566  0.59367053  0.19633835  1
  Nb  Nb132  1  -0.00342966  0.19550165  0.38936602  1
  Nb  Nb133  1  0.59742587  0.20821795  0.19478618  1
  Nb  Nb134  1  0.59840709  0.39982285  0.19844898  1
  Nb  Nb135  1  0.39916085  0.19551632  0.40842948  1
  Nb  Nb136  1  0.59653947  0.20202818  0.00429343  1
  Nb  Nb137  1  -0.00687895  0.60127368  0.59631463  1
  Nb  Nb138  1  0.39950315  0.19013313  0.60103222  1
  Nb  Nb139  1  0.19553601  0.39112153  0.80118789  1
  Nb  Nb140  1  -0.00166696  0.19701093  0.80070320  1
  Nb  Nb141  1  0.00344157  0.39093026  0.80284970  1
  Nb  Nb142  1  0.81207203  0.19511234  0.39402712  1
  Nb  Nb143  1  0.19975936  0.40238392  0.60523563  1
  Nb  Nb144  1  0.39630296  0.00821859  0.60561871  1
  Nb  Nb145  1  0.79393831  0.79709499  0.60237634  1
  Nb  Nb146  1  0.60355982  0.79736180  0.81083840  1
  Nb  Nb147  1  0.60362319  0.40497107  0.39682242  1
  Nb  Nb148  1  0.19421578  0.00200849  0.19942851  1
  Nb  Nb149  1  0.39512485  0.39568657  -0.00338650  1
  Pd  Pd150  1  0.18692249  0.60385753  0.58809787  1
  Pd  Pd151  1  0.59134227  0.20894235  0.39554500  1
  Pd  Pd152  1  0.19875144  0.59810862  0.80640748  1
  Pd  Pd153  1  0.80906052  0.20264155  0.58948631  1
  Pd  Pd154  1  0.60506671  0.40072953  0.79142799  1
  Pd  Pd155  1  0.20853662  0.79522793  -0.01331978  1
  Pd  Pd156  1  0.40671623  0.19844305  0.79969732  1
  Pd  Pd157  1  0.79180259  0.19752925  0.19781603  1
  Pd  Pd158  1  0.80135850  0.59696592  0.79851588  1
  Pd  Pd159  1  0.19673550  0.00351998  0.39179280  1
  Pd  Pd160  1  0.80698275  0.80919954  0.20087296  1
  Pd  Pd161  1  -0.01102929  0.39860553  -0.00526715  1
  Pd  Pd162  1  0.60830886  -0.00381993  0.80750510  1
  Pd  Pd163  1  0.60434384  0.81128551  0.61086349  1
  Pd  Pd164  1  0.00086590  -0.00103415  -0.00990985  1
  Pd  Pd165  1  0.39582860  0.39519965  0.80497438  1
  Pd  Pd166  1  0.80306710  0.80319567  0.00190969  1
  Pd  Pd167  1  0.00584726  0.39777855  0.20266319  1
  Pd  Pd168  1  0.59755947  0.79384688  0.00039992  1
  Pd  Pd169  1  0.40857866  0.60290418  0.78810109  1
  Pd  Pd170  1  0.60510669  0.80476263  0.40195590  1
  Pd  Pd171  1  0.60806241  0.40492808  0.59650056  1
  Pd  Pd172  1  0.19475593  0.81077817  0.21468264  1
  Pd  Pd173  1  0.80386274  0.40479342  0.80302215  1
  Pd  Pd174  1  0.78865733  0.39421125  0.59720679  1
  Pd  Pd175  1  0.79844336  0.39881496  0.19532256  1
  Pd  Pd176  1  0.38992428  -0.00371708  0.19700635  1
  Pd  Pd177  1  0.39651236  -0.00774971  0.00664455  1
  Pd  Pd178  1  0.79423122  0.59877181  -0.00277561  1
  Pd  Pd179  1  0.18741471  0.20050516  0.79574642  1
  Pd  Pd180  1  0.39747382  0.80587444  0.59923173  1
  Pd  Pd181  1  0.01173602  0.40849837  0.60596622  1
  Pd  Pd182  1  0.40235932  0.20137279  0.20945394  1
  Pd  Pd183  1  0.80332758  0.00501347  0.38959023  1
  Pd  Pd184  1  0.19967894  0.19607868  0.19401487  1
  Pd  Pd185  1  0.40959279  0.60220592  0.20175005  1
  Pd  Pd186  1  0.20231985  0.00948804  0.00617805  1
  Pd  Pd187  1  0.79292323  0.60651525  0.39680983  1
  Pd  Pd188  1  0.20398469  0.20105034  0.60358404  1
  Pd  Pd189  1  0.40837787  0.60672082  0.40202682  1
  Pd  Pd190  1  0.20559828  0.39589293  0.19535561  1
  Pd  Pd191  1  -0.00048058  0.79131007  0.60188249  1
  Pd  Pd192  1  0.20042349  0.79641907  0.40362227  1
  Pd  Pd193  1  0.79538795  -0.00194826  0.20646925  1
  Pd  Pd194  1  0.78818785  0.80024006  0.40823401  1
  Pd  Pd195  1  0.20393167  -0.00612052  0.61028553  1
  Pd  Pd196  1  -0.00736193  0.81138665  -0.00100361  1
  Pd  Pd197  1  0.41021016  0.80024723  0.80119300  1
  Pd  Pd198  1  0.59870529  0.59251868  0.38956987  1
  Pd  Pd199  1  0.40489650  0.80546730  0.19748257  1
  Rh  Rh200  1  0.79094742  0.80566102  0.79473282  1
  Rh  Rh201  1  -0.00590001  0.19132328  0.59890601  1
  Rh  Rh202  1  0.79397396  0.00328875  0.79947257  1
  Rh  Rh203  1  0.59942388  0.79386935  0.20152472  1
  Rh  Rh204  1  0.20322198  0.60124984  0.40043500  1
  Rh  Rh205  1  -0.00224796  0.80791763  0.81102054  1
  Rh  Rh206  1  0.00428886  0.21242811  0.20304086  1
  Rh  Rh207  1  0.59030741  0.40286291  0.00460404  1
  Rh  Rh208  1  0.60035903  -0.00807631  0.39820061  1
  Rh  Rh209  1  0.80407593  0.61042552  0.60925476  1
  Rh  Rh210  1  0.40538050  0.79546731  0.40350988  1
  Rh  Rh211  1  0.60357176  0.19852676  0.80970968  1
  Rh  Rh212  1  0.79366243  0.19199222  0.00757115  1
  Rh  Rh213  1  0.40590531  0.20937787  -0.01092182  1
  Rh  Rh214  1  0.19776805  0.19772010  0.39526555  1
  Rh  Rh215  1  0.60172798  0.00620747  0.20203361  1
  Rh  Rh216  1  0.00933290  0.59819203  0.01188560  1
  Rh  Rh217  1  0.40175580  0.60323309  0.00146162  1
  Rh  Rh218  1  0.19609977  0.79763955  0.79825257  1
  Rh  Rh219  1  0.59565400  0.59620321  0.60947441  1
  Rh  Rh220  1  0.00089500  0.00663543  0.80739765  1
  Rh  Rh221  1  0.39107487  0.39311660  0.59727754  1
  Rh  Rh222  1  0.59502088  -0.00187658  0.60156225  1
  Rh  Rh223  1  0.80877086  0.40709636  -0.00610453  1
  Rh  Rh224  1  0.00797067  0.38735375  0.39124766  1
  Rh  Rh225  1  0.21051018  0.40219548  -0.00441374  1
  Rh  Rh226  1  0.40714599  0.60670763  0.59661819  1
  Rh  Rh227  1  0.59846481  0.60507851  0.79901585  1
  Rh  Rh228  1  0.19417184  0.59166980  0.19469722  1
  Rh  Rh229  1  0.79305048  0.39000460  0.41136371  1
  Rh  Rh230  1  0.00604813  -0.01204344  0.20637029  1
  Rh  Rh231  1  0.39664680  0.39865251  0.19013725  1
  Rh  Rh232  1  0.80286421  0.59757234  0.20229004  1
  Rh  Rh233  1  0.19631375  0.00729586  0.79970606  1
  Rh  Rh234  1  -0.00289950  -0.00059422  0.60249927  1
  Rh  Rh235  1  0.79554880  0.00152409  -0.00040216  1
  Rh  Rh236  1  0.40132808  0.00416807  0.40817536  1
  Rh  Rh237  1  0.00076084  0.00895112  0.39460308  1
  Rh  Rh238  1  0.60718973  0.00768280  -0.00391167  1
  Rh  Rh239  1  -0.01061710  0.59174929  0.79165781  1
  Rh  Rh240  1  0.20005756  0.40134852  0.40473435  1
  Rh  Rh241  1  0.40212749  0.00414552  0.79614217  1
  Rh  Rh242  1  0.80421631  -0.00744091  0.60453343  1
  Rh  Rh243  1  0.80317427  0.19386070  0.79682589  1
  Rh  Rh244  1  0.40241083  0.39496021  0.40740600  1
  Rh  Rh245  1  0.19826571  0.19223858  0.00589960  1
  Rh  Rh246  1  -0.00219393  0.59914456  0.39725437  1
  Rh  Rh247  1  0.59494418  0.19430339  0.59549308  1
  Rh  Rh248  1  -0.00079025  0.79688760  0.39454520  1
  Rh  Rh249  1  -0.00242025  0.19368907  -0.00717655  1
