# generated using pymatgen
data_ZrScNbPdRh
_symmetry_space_group_name_H-M   'P 1'
_cell_length_a   16.56010977
_cell_length_b   16.55773008
_cell_length_c   16.56016735
_cell_angle_alpha   89.98909387
_cell_angle_beta   89.97277955
_cell_angle_gamma   90.00293099
_symmetry_Int_Tables_number   1
_chemical_formula_structural   ZrScNbPdRh
_chemical_formula_sum   'Zr50 Sc50 Nb50 Pd50 Rh50'
_cell_volume   4540.76131321
_cell_formula_units_Z   50
loop_
 _symmetry_equiv_pos_site_id
 _symmetry_equiv_pos_as_xyz
  1  'x, y, z'
loop_
 _atom_site_type_symbol
 _atom_site_label
 _atom_site_symmetry_multiplicity
 _atom_site_fract_x
 _atom_site_fract_y
 _atom_site_fract_z
 _atom_site_occupancy
  Zr  Zr0  1  0.49274615  0.69734339  0.49894130  1
  Zr  Zr1  1  0.29856744  0.10745547  0.89212304  1
  Zr  Zr2  1  0.70131387  0.69731081  0.09432155  1
  Zr  Zr3  1  0.89610796  0.48696924  0.30847589  1
  Zr  Zr4  1  0.10154470  0.88666254  0.10195171  1
  Zr  Zr5  1  0.09827417  0.49722720  0.29798913  1
  Zr  Zr6  1  0.70043264  0.29867511  0.09642482  1
  Zr  Zr7  1  0.09654825  0.90497305  0.89392782  1
  Zr  Zr8  1  0.50383454  0.68682757  0.09561687  1
  Zr  Zr9  1  0.30505681  0.09817987  0.70258594  1
  Zr  Zr10  1  0.89274936  0.69262751  0.89974715  1
  Zr  Zr11  1  0.89743291  0.90206057  0.49793033  1
  Zr  Zr12  1  0.10557161  0.70109787  0.29172783  1
  Zr  Zr13  1  0.69155272  0.89649566  0.70788420  1
  Zr  Zr14  1  0.29857394  0.69224154  0.69281080  1
  Zr  Zr15  1  0.89923351  0.10405412  0.89626183  1
  Zr  Zr16  1  0.50035668  0.30615414  0.29858988  1
  Zr  Zr17  1  0.89681401  0.69354283  0.69900430  1
  Zr  Zr18  1  0.30475195  0.29833684  0.50519777  1
  Zr  Zr19  1  0.09254057  0.09995489  0.10307141  1
  Zr  Zr20  1  0.69391400  0.50154744  0.30397843  1
  Zr  Zr21  1  0.28381267  0.70233132  0.09229347  1
  Zr  Zr22  1  0.50760278  0.49382533  0.50230975  1
  Zr  Zr23  1  0.10642169  0.90398340  0.49983708  1
  Zr  Zr24  1  0.70257197  0.50560612  0.90271857  1
  Zr  Zr25  1  0.89062617  0.69100615  0.50130167  1
  Zr  Zr26  1  0.10951136  0.70158095  0.50457481  1
  Zr  Zr27  1  0.70647325  0.90527090  0.09329786  1
  Zr  Zr28  1  0.50188260  0.69222522  0.29857940  1
  Zr  Zr29  1  0.50214278  0.10146273  0.29982760  1
  Zr  Zr30  1  0.70395808  0.31068112  0.29643735  1
  Zr  Zr31  1  0.30534608  0.89663731  0.89812555  1
  Zr  Zr32  1  0.50633558  0.30003811  0.51002062  1
  Zr  Zr33  1  0.10095758  0.10402092  0.89989100  1
  Zr  Zr34  1  0.09791445  0.09982150  0.30347955  1
  Zr  Zr35  1  0.08711659  0.29674140  0.30240611  1
  Zr  Zr36  1  0.10210467  0.49593482  0.70505960  1
  Zr  Zr37  1  0.10450566  0.90101428  0.69750593  1
  Zr  Zr38  1  0.89712784  0.49017395  0.89200304  1
  Zr  Zr39  1  0.70030323  0.09523656  0.90693762  1
  Zr  Zr40  1  0.69283533  0.30581216  0.50061772  1
  Zr  Zr41  1  0.30720243  0.10120971  0.29355170  1
  Zr  Zr42  1  0.49367715  0.10619943  0.10135375  1
  Zr  Zr43  1  0.50802808  0.09877474  0.50218361  1
  Zr  Zr44  1  0.49553030  0.30605269  0.89353955  1
  Zr  Zr45  1  0.68998691  0.69827486  0.90241397  1
  Zr  Zr46  1  0.30658880  0.69695691  0.89657088  1
  Zr  Zr47  1  0.89769212  0.89860510  0.70480972  1
  Zr  Zr48  1  0.29974770  0.90074018  0.09893190  1
  Zr  Zr49  1  0.89677455  0.90415198  0.10704430  1
  Sc  Sc50  1  0.10398455  0.69444050  0.69781554  1
  Sc  Sc51  1  0.89476561  0.29973943  0.71053795  1
  Sc  Sc52  1  0.69957528  0.10967817  0.50758328  1
  Sc  Sc53  1  0.29696053  0.10062561  0.51102950  1
  Sc  Sc54  1  0.30812948  0.10296874  0.09868919  1
  Sc  Sc55  1  0.10356806  0.48905210  0.90420265  1
  Sc  Sc56  1  0.10300035  0.29573580  0.50258440  1
  Sc  Sc57  1  0.11132079  0.09578715  0.70601421  1
  Sc  Sc58  1  0.50013478  0.10193413  0.89338806  1
  Sc  Sc59  1  0.89787015  0.29650213  0.10462545  1
  Sc  Sc60  1  0.70100933  0.69483601  0.30333059  1
  Sc  Sc61  1  0.69403342  0.90614594  0.50326196  1
  Sc  Sc62  1  0.49541129  0.89755831  0.30241830  1
  Sc  Sc63  1  0.89753792  0.90588729  0.29963275  1
  Sc  Sc64  1  0.31418278  0.29895635  0.09439928  1
  Sc  Sc65  1  0.30330583  0.49915732  0.09364838  1
  Sc  Sc66  1  0.71268830  0.89503505  0.29968556  1
  Sc  Sc67  1  0.90206242  0.30715587  0.49997609  1
  Sc  Sc68  1  0.89579739  0.09538263  0.50429430  1
  Sc  Sc69  1  0.69867547  0.30303708  0.89683950  1
  Sc  Sc70  1  0.09423565  0.30221888  0.09257081  1
  Sc  Sc71  1  0.88544039  0.10254925  0.69994604  1
  Sc  Sc72  1  0.50645306  0.71137963  0.70659024  1
  Sc  Sc73  1  0.49757653  0.89688234  0.89326836  1
  Sc  Sc74  1  0.50100190  0.90691391  0.70325303  1
  Sc  Sc75  1  0.90023391  0.49293752  0.08458810  1
  Sc  Sc76  1  0.49915462  0.30768173  0.09443570  1
  Sc  Sc77  1  0.69507637  0.49576579  0.09698487  1
  Sc  Sc78  1  0.49242960  0.90651047  0.09329038  1
  Sc  Sc79  1  0.10539231  0.50480955  0.09328426  1
  Sc  Sc80  1  0.69443477  0.69903390  0.70944694  1
  Sc  Sc81  1  0.69917783  0.10028108  0.30855598  1
  Sc  Sc82  1  0.89261760  0.09800038  0.10107215  1
  Sc  Sc83  1  0.88695652  0.71149592  0.30281286  1
  Sc  Sc84  1  0.08939769  0.49507751  0.51284893  1
  Sc  Sc85  1  0.09809346  0.29634422  0.89696958  1
  Sc  Sc86  1  0.49911827  0.50025349  0.29170386  1
  Sc  Sc87  1  0.30564503  0.69713961  0.30491444  1
  Sc  Sc88  1  0.90767249  0.09879376  0.29460489  1
  Sc  Sc89  1  0.90082322  0.70837062  0.09234803  1
  Sc  Sc90  1  0.29700664  0.89837479  0.29907955  1
  Sc  Sc91  1  0.10076710  0.90691095  0.29635838  1
  Sc  Sc92  1  0.30176003  0.30187830  0.89957814  1
  Sc  Sc93  1  0.89734569  0.90293719  0.89757697  1
  Sc  Sc94  1  0.10773153  0.30288071  0.70200861  1
  Sc  Sc95  1  0.31728162  0.50444385  0.51637191  1
  Sc  Sc96  1  0.69697724  0.10081825  0.70712388  1
  Sc  Sc97  1  0.10253151  0.69812977  0.91413414  1
  Sc  Sc98  1  0.69802746  0.50441624  0.71024285  1
  Sc  Sc99  1  0.09924098  0.09468570  0.49925262  1
  Nb  Nb100  1  0.30407346  0.49780518  0.71046114  1
  Nb  Nb101  1  0.30099406  0.90017038  0.70068763  1
  Nb  Nb102  1  0.50026245  0.89546039  0.50299776  1
  Nb  Nb103  1  0.49967937  0.49711345  0.09913118  1
  Nb  Nb104  1  0.69841522  0.69480161  0.49867650  1
  Nb  Nb105  1  0.50274699  0.69566633  0.89922714  1
  Nb  Nb106  1  0.70499237  0.50715667  0.49722287  1
  Nb  Nb107  1  0.10058360  0.69858130  0.10235157  1
  Nb  Nb108  1  0.90338480  0.30604721  0.90228921  1
  Nb  Nb109  1  0.30077205  0.89249777  0.50068103  1
  Nb  Nb110  1  0.30916376  0.29741225  0.69833666  1
  Nb  Nb111  1  0.69676572  0.09894763  0.09932194  1
  Nb  Nb112  1  0.89932787  0.29965411  0.30122170  1
  Nb  Nb113  1  0.69485226  0.29750261  0.68692482  1
  Nb  Nb114  1  0.30809860  0.49976612  0.88952307  1
  Nb  Nb115  1  0.89334063  0.50719099  0.51012912  1
  Nb  Nb116  1  0.49557949  0.50402227  0.89576770  1
  Nb  Nb117  1  0.50610065  0.30239572  0.69748393  1
  Nb  Nb118  1  0.30182037  0.70333897  0.49977639  1
  Nb  Nb119  1  0.69633440  0.90692367  0.89712884  1
  Nb  Nb120  1  0.30005628  0.49120818  0.29956007  1
  Nb  Nb121  1  0.30285229  0.30142248  0.30113491  1
  Nb  Nb122  1  0.49357972  0.10902302  0.70220066  1
  Nb  Nb123  1  0.90307569  0.50376806  0.69441592  1
  Nb  Nb124  1  0.49521410  0.49586277  0.69711922  1
  Nb  Nb125  1  -0.00197865  0.59335630  0.79986761  1
  Nb  Nb126  1  0.80337473  0.21073770  0.39656483  1
  Nb  Nb127  1  0.59804002  0.80149268  0.19824874  1
  Nb  Nb128  1  0.20254600  0.59138075  0.40359222  1
  Nb  Nb129  1  0.60357826  0.19802040  0.19583774  1
  Nb  Nb130  1  0.59922710  0.59901504  0.59894926  1
  Nb  Nb131  1  0.39593669  0.80235067  0.59593242  1
  Nb  Nb132  1  0.79774406  0.40927123  0.60118164  1
  Nb  Nb133  1  -0.00464225  0.79982194  0.59732743  1
  Nb  Nb134  1  0.20421923  0.39357872  0.20537216  1
  Nb  Nb135  1  -0.00177755  0.19822202  0.60458337  1
  Nb  Nb136  1  0.40140913  -0.00160740  0.40940654  1
  Nb  Nb137  1  0.60302997  0.00081486  0.19638119  1
  Nb  Nb138  1  0.40301317  0.19902869  0.40224783  1
  Nb  Nb139  1  0.19771233  0.00061790  -0.00187799  1
  Nb  Nb140  1  0.40346965  0.79254503  0.19494385  1
  Nb  Nb141  1  0.20502441  0.79949627  0.79842038  1
  Nb  Nb142  1  0.20001902  0.20749981  0.20375430  1
  Nb  Nb143  1  -0.00521608  0.60214378  0.20064434  1
  Nb  Nb144  1  0.79572175  0.79684719  0.60023543  1
  Nb  Nb145  1  0.80625681  0.59594787  0.19797716  1
  Nb  Nb146  1  0.59776898  0.79671169  0.40213228  1
  Nb  Nb147  1  0.00093973  0.60278689  0.39869144  1
  Nb  Nb148  1  0.20559063  0.40299492  0.39864556  1
  Nb  Nb149  1  0.00216194  0.79668646  0.40653828  1
  Pd  Pd150  1  0.20129372  0.58652917  0.59396920  1
  Pd  Pd151  1  0.80450481  0.20379211  -0.00488710  1
  Pd  Pd152  1  0.20326841  0.59236920  0.20232262  1
  Pd  Pd153  1  0.59303385  0.80846669  0.00138121  1
  Pd  Pd154  1  0.01036279  0.78677248  0.79785254  1
  Pd  Pd155  1  0.20697599  0.39758143  0.00314104  1
  Pd  Pd156  1  0.60172012  0.40324018  0.79706580  1
  Pd  Pd157  1  0.80074265  0.80584966  -0.00805750  1
  Pd  Pd158  1  0.40986488  0.60529191  0.79127815  1
  Pd  Pd159  1  0.79314624  0.79815908  0.80200512  1
  Pd  Pd160  1  0.19870364  0.79643456  0.39188210  1
  Pd  Pd161  1  0.79544369  0.19292142  0.20772403  1
  Pd  Pd162  1  0.19113320  0.60418112  0.80921516  1
  Pd  Pd163  1  0.00330210  0.40403579  0.41075867  1
  Pd  Pd164  1  0.40785025  0.79322181  0.00444679  1
  Pd  Pd165  1  0.79309782  0.39658852  0.79267354  1
  Pd  Pd166  1  -0.00294343  0.80177606  -0.00480501  1
  Pd  Pd167  1  0.40023005  -0.00599575  0.59791941  1
  Pd  Pd168  1  -0.01002403  0.19443509  0.41262676  1
  Pd  Pd169  1  0.00183799  0.40513802  0.18872844  1
  Pd  Pd170  1  -0.00014851  -0.00230369  0.00379870  1
  Pd  Pd171  1  0.59925722  -0.01189895  0.39262924  1
  Pd  Pd172  1  -0.00758824  0.38843015  0.60979326  1
  Pd  Pd173  1  0.59205022  -0.00166550  -0.00033271  1
  Pd  Pd174  1  0.79891796  0.01042969  0.39966220  1
  Pd  Pd175  1  0.19294457  0.19681844  0.60523928  1
  Pd  Pd176  1  0.20098979  0.00821714  0.19189188  1
  Pd  Pd177  1  0.60419792  0.20046608  0.79927000  1
  Pd  Pd178  1  -0.00508281  0.01036292  0.79112992  1
  Pd  Pd179  1  0.59669030  0.40428187  -0.00454433  1
  Pd  Pd180  1  0.59352964  0.20331711  0.00028533  1
  Pd  Pd181  1  0.21068340  0.00401412  0.40317835  1
  Pd  Pd182  1  0.79236134  0.20583986  0.80455806  1
  Pd  Pd183  1  0.38938095  0.60124902  0.19512574  1
  Pd  Pd184  1  0.20614777  0.39262559  0.80323092  1
  Pd  Pd185  1  -0.00880956  0.20314635  0.00221264  1
  Pd  Pd186  1  0.60133988  0.00529963  0.60931438  1
  Pd  Pd187  1  -0.00026959  0.59625235  -0.00099508  1
  Pd  Pd188  1  -0.00030137  0.00481364  0.60731855  1
  Pd  Pd189  1  0.39632650  0.59572941  -0.00045230  1
  Pd  Pd190  1  0.79005798  -0.00584696  0.60564239  1
  Pd  Pd191  1  0.39622591  0.00817576  -0.01090713  1
  Pd  Pd192  1  0.39619706  0.58860287  0.39887242  1
  Pd  Pd193  1  0.20685058  0.20250739  0.39779427  1
  Pd  Pd194  1  0.40070760  0.39854932  0.40462864  1
  Pd  Pd195  1  0.00205205  0.19938375  0.79048900  1
  Pd  Pd196  1  0.20916883  0.40521016  0.59632127  1
  Pd  Pd197  1  0.20320934  0.19854813  0.00930518  1
  Pd  Pd198  1  0.80321347  0.40803224  0.19008189  1
  Pd  Pd199  1  -0.00655031  0.79659221  0.20863348  1
  Rh  Rh200  1  0.39562086  0.79690932  0.79067483  1
  Rh  Rh201  1  0.79257403  0.80505804  0.41262551  1
  Rh  Rh202  1  0.78344837  0.60025929  0.61132228  1
  Rh  Rh203  1  0.40205499  0.00243988  0.79877286  1
  Rh  Rh204  1  -0.00066773  -0.00520272  0.39711137  1
  Rh  Rh205  1  0.00056543  0.39527743  -0.00181317  1
  Rh  Rh206  1  0.59862949  0.80260922  0.81204760  1
  Rh  Rh207  1  0.80592472  0.00203017  -0.00455642  1
  Rh  Rh208  1  0.40177768  0.40852962  -0.00629426  1
  Rh  Rh209  1  0.00143551  0.40152008  0.79776423  1
  Rh  Rh210  1  0.80601890  0.59614045  0.38860241  1
  Rh  Rh211  1  0.80438113  0.59782730  0.79972293  1
  Rh  Rh212  1  0.40570563  0.20198866  -0.01059230  1
  Rh  Rh213  1  0.59468928  0.58868525  -0.00397245  1
  Rh  Rh214  1  0.20848268  0.79860765  0.20463892  1
  Rh  Rh215  1  0.60431609  0.21192904  0.39081377  1
  Rh  Rh216  1  0.80011366  0.59707547  0.00522711  1
  Rh  Rh217  1  0.40281196  0.21090627  0.20356121  1
  Rh  Rh218  1  0.20455198  0.00000650  0.59828969  1
  Rh  Rh219  1  0.59772797  0.19247224  0.60997004  1
  Rh  Rh220  1  0.19543015  0.80786601  -0.00973517  1
  Rh  Rh221  1  0.79881143  0.39255308  -0.00206633  1
  Rh  Rh222  1  0.41000756  0.60642272  0.61012342  1
  Rh  Rh223  1  0.40335263  0.80648342  0.40114827  1
  Rh  Rh224  1  0.59998999  0.79022782  0.59033462  1
  Rh  Rh225  1  0.39941997  0.39642280  0.79397390  1
  Rh  Rh226  1  0.59569572  0.00575085  0.80008929  1
  Rh  Rh227  1  0.79951133  0.39788815  0.41128330  1
  Rh  Rh228  1  0.61155427  0.59900510  0.19398487  1
  Rh  Rh229  1  0.00004176  -0.00299529  0.19896247  1
  Rh  Rh230  1  0.00078579  0.20086654  0.19714973  1
  Rh  Rh231  1  0.20463937  0.20766794  0.79472276  1
  Rh  Rh232  1  0.40150938  0.20805247  0.79703553  1
  Rh  Rh233  1  0.59854110  0.40362593  0.39753442  1
  Rh  Rh234  1  0.00753628  0.60472296  0.60280394  1
  Rh  Rh235  1  0.39745406  0.40206107  0.19237518  1
  Rh  Rh236  1  0.40016032  0.39632344  0.60924673  1
  Rh  Rh237  1  0.59011103  0.59698760  0.79820660  1
  Rh  Rh238  1  0.80576933  0.21398578  0.59115753  1
  Rh  Rh239  1  0.20494482  0.80387497  0.60778937  1
  Rh  Rh240  1  0.79251309  0.79324391  0.19308915  1
  Rh  Rh241  1  0.59575116  0.39842248  0.19444552  1
  Rh  Rh242  1  0.61000351  0.41294471  0.60935104  1
  Rh  Rh243  1  0.79633613  -0.00003040  0.80358728  1
  Rh  Rh244  1  0.40620992  0.20094050  0.59937102  1
  Rh  Rh245  1  0.20728811  -0.00644633  0.80620114  1
  Rh  Rh246  1  0.79313616  0.00679259  0.20276145  1
  Rh  Rh247  1  0.20481121  0.59140600  -0.00839159  1
  Rh  Rh248  1  0.40505800  -0.01215446  0.20798152  1
  Rh  Rh249  1  0.59462299  0.60091074  0.40642245  1
