# generated using pymatgen
data_ZrScNbPdRh
_symmetry_space_group_name_H-M   'P 1'
_cell_length_a   16.56033991
_cell_length_b   16.56435099
_cell_length_c   16.56167943
_cell_angle_alpha   90.02171959
_cell_angle_beta   89.98410706
_cell_angle_gamma   90.01581035
_symmetry_Int_Tables_number   1
_chemical_formula_structural   ZrScNbPdRh
_chemical_formula_sum   'Zr50 Sc50 Nb50 Pd50 Rh50'
_cell_volume   4543.05485524
_cell_formula_units_Z   50
loop_
 _symmetry_equiv_pos_site_id
 _symmetry_equiv_pos_as_xyz
  1  'x, y, z'
loop_
 _atom_site_type_symbol
 _atom_site_label
 _atom_site_symmetry_multiplicity
 _atom_site_fract_x
 _atom_site_fract_y
 _atom_site_fract_z
 _atom_site_occupancy
  Zr  Zr0  1  0.69692636  0.49372662  0.90404739  1
  Zr  Zr1  1  0.89276742  0.89869899  0.91193869  1
  Zr  Zr2  1  0.30094787  0.10221708  0.10057572  1
  Zr  Zr3  1  0.10699660  0.90449683  0.69564397  1
  Zr  Zr4  1  0.89497698  0.10137707  0.49514305  1
  Zr  Zr5  1  0.09092652  0.09737905  0.70249068  1
  Zr  Zr6  1  0.49625294  0.70432504  0.90457337  1
  Zr  Zr7  1  0.09024508  0.90578590  0.10044541  1
  Zr  Zr8  1  0.49920314  0.90056771  0.09091808  1
  Zr  Zr9  1  0.10037331  0.30423693  0.90289861  1
  Zr  Zr10  1  0.29428082  0.30403871  0.31100605  1
  Zr  Zr11  1  0.50646780  0.09859035  0.50430909  1
  Zr  Zr12  1  0.30247782  0.49466474  0.69676520  1
  Zr  Zr13  1  0.09152596  0.30833485  0.10033227  1
  Zr  Zr14  1  0.50801894  0.90319000  0.70283742  1
  Zr  Zr15  1  0.49562773  0.29831849  0.69446691  1
  Zr  Zr16  1  0.29743633  0.30391037  0.10946916  1
  Zr  Zr17  1  0.49964535  0.49852093  0.70403668  1
  Zr  Zr18  1  0.50376349  0.29359710  0.29919469  1
  Zr  Zr19  1  0.50156960  0.69727071  0.49300569  1
  Zr  Zr20  1  0.10273907  0.70670636  0.09393357  1
  Zr  Zr21  1  0.10169549  0.11045479  0.89540404  1
  Zr  Zr22  1  0.49318837  0.09407554  0.29868177  1
  Zr  Zr23  1  0.70993381  0.69134605  0.91009192  1
  Zr  Zr24  1  0.90215249  0.10193462  0.30268730  1
  Zr  Zr25  1  0.89595977  0.70232043  0.50617743  1
  Zr  Zr26  1  0.29846034  0.49388042  0.29893047  1
  Zr  Zr27  1  0.30477608  0.50252041  0.10928699  1
  Zr  Zr28  1  0.70649023  0.49742060  0.70368609  1
  Zr  Zr29  1  0.89748874  0.30011852  0.30572905  1
  Zr  Zr30  1  0.09322701  0.70447052  0.29909110  1
  Zr  Zr31  1  0.10342875  0.69223345  0.90269671  1
  Zr  Zr32  1  0.90515651  0.50062581  0.69650049  1
  Zr  Zr33  1  0.49435411  0.30162284  0.09825534  1
  Zr  Zr34  1  0.10380630  0.50336446  0.10382826  1
  Zr  Zr35  1  0.90425336  0.70076302  0.89847668  1
  Zr  Zr36  1  0.29608190  0.48172907  0.49646194  1
  Zr  Zr37  1  0.29205979  0.10354954  0.29657823  1
  Zr  Zr38  1  0.69382328  0.69381991  0.11024527  1
  Zr  Zr39  1  0.09641262  0.29534585  0.70096053  1
  Zr  Zr40  1  0.70567930  0.29879580  0.29944857  1
  Zr  Zr41  1  0.90654271  0.48954120  0.10323027  1
  Zr  Zr42  1  0.49787563  0.30776028  0.90365338  1
  Zr  Zr43  1  0.71347239  0.29652162  0.50080493  1
  Zr  Zr44  1  0.10476125  0.09834340  0.10154376  1
  Zr  Zr45  1  0.70270575  0.30151181  0.70064662  1
  Zr  Zr46  1  0.29612701  0.10100841  0.90567945  1
  Zr  Zr47  1  0.70376288  0.29754738  0.09981545  1
  Zr  Zr48  1  0.89549250  0.29967041  0.10544556  1
  Zr  Zr49  1  0.90386382  0.90893599  0.70667314  1
  Sc  Sc50  1  0.09749210  0.29163325  0.30233509  1
  Sc  Sc51  1  0.10702260  0.30404482  0.49866508  1
  Sc  Sc52  1  0.69656476  0.50478699  0.29754735  1
  Sc  Sc53  1  0.50103389  0.49788205  0.48955175  1
  Sc  Sc54  1  0.29823729  0.90971225  0.08924341  1
  Sc  Sc55  1  0.70638536  0.90841064  0.69819029  1
  Sc  Sc56  1  0.88661757  0.90296552  0.49246489  1
  Sc  Sc57  1  0.29981209  0.70864065  0.49172407  1
  Sc  Sc58  1  0.90411897  0.69151731  0.70362213  1
  Sc  Sc59  1  0.10009760  0.09827480  0.30115363  1
  Sc  Sc60  1  0.70136385  0.89364784  0.08994200  1
  Sc  Sc61  1  0.49842613  0.69794283  0.71149688  1
  Sc  Sc62  1  0.70154972  0.49200041  0.49499798  1
  Sc  Sc63  1  0.29832621  0.30173856  0.90920141  1
  Sc  Sc64  1  0.90093747  0.09364844  0.89415834  1
  Sc  Sc65  1  0.30520346  0.91677138  0.30437085  1
  Sc  Sc66  1  0.90228943  0.49154758  0.50300161  1
  Sc  Sc67  1  0.90721250  0.89632538  0.29690838  1
  Sc  Sc68  1  0.09890443  0.70730446  0.49952147  1
  Sc  Sc69  1  0.71437093  0.69525903  0.70043839  1
  Sc  Sc70  1  0.88959497  0.50017397  0.90151450  1
  Sc  Sc71  1  0.90265105  0.70496904  0.29746502  1
  Sc  Sc72  1  0.49409533  0.50400496  0.29766914  1
  Sc  Sc73  1  0.50342853  0.30218366  0.50544564  1
  Sc  Sc74  1  0.28979792  0.09966676  0.49683519  1
  Sc  Sc75  1  0.50220377  0.49926673  0.90159122  1
  Sc  Sc76  1  0.50345360  0.50066659  0.09965769  1
  Sc  Sc77  1  0.09835235  0.50277804  0.70038696  1
  Sc  Sc78  1  0.09923344  0.69870577  0.70488123  1
  Sc  Sc79  1  0.29822993  0.90252485  0.49441754  1
  Sc  Sc80  1  0.09659790  0.89099444  0.90850166  1
  Sc  Sc81  1  0.30998518  0.69443105  0.29778274  1
  Sc  Sc82  1  0.50235973  0.90765011  0.48886552  1
  Sc  Sc83  1  0.10593149  0.90346706  0.49085631  1
  Sc  Sc84  1  0.69549666  0.11165018  0.29995519  1
  Sc  Sc85  1  0.08982864  0.49569018  0.50877588  1
  Sc  Sc86  1  0.29277979  0.50033477  0.89901501  1
  Sc  Sc87  1  0.29549758  0.70839534  0.89600271  1
  Sc  Sc88  1  0.70301396  0.50417493  0.09473032  1
  Sc  Sc89  1  0.29468428  0.70072188  0.09350191  1
  Sc  Sc90  1  0.70315921  0.09631605  0.69486710  1
  Sc  Sc91  1  0.88861820  0.29868285  0.89996258  1
  Sc  Sc92  1  0.28308013  0.10018139  0.70067372  1
  Sc  Sc93  1  0.89240025  0.70422859  0.09992681  1
  Sc  Sc94  1  0.88999997  0.29774694  0.69993239  1
  Sc  Sc95  1  0.51021154  0.69409363  0.29679389  1
  Sc  Sc96  1  0.70611215  0.08821106  0.90270167  1
  Sc  Sc97  1  0.90162919  0.09218551  0.09656959  1
  Sc  Sc98  1  0.50350126  0.90333097  0.90811171  1
  Sc  Sc99  1  0.70282133  0.10259987  0.10152861  1
  Nb  Nb100  1  0.30278778  0.70607443  0.69818175  1
  Nb  Nb101  1  0.30280945  0.30420946  0.68002992  1
  Nb  Nb102  1  0.90056762  0.29744711  0.50041208  1
  Nb  Nb103  1  0.50326109  0.09840530  0.70118603  1
  Nb  Nb104  1  0.70201334  0.09073385  0.50101963  1
  Nb  Nb105  1  0.90729146  0.50233696  0.30495346  1
  Nb  Nb106  1  0.31038685  0.89709715  0.89635422  1
  Nb  Nb107  1  0.90560878  0.10070086  0.70033559  1
  Nb  Nb108  1  0.49720443  0.90717713  0.29313238  1
  Nb  Nb109  1  0.09465105  0.10181259  0.49759456  1
  Nb  Nb110  1  0.90241122  0.90312237  0.09956220  1
  Nb  Nb111  1  0.70098643  0.70608272  0.49223588  1
  Nb  Nb112  1  0.69709653  0.88968297  0.30263207  1
  Nb  Nb113  1  0.69707816  0.29874857  0.90130437  1
  Nb  Nb114  1  0.30192720  0.30131993  0.50419378  1
  Nb  Nb115  1  0.49790715  0.70021129  0.09961993  1
  Nb  Nb116  1  0.30481376  0.89515239  0.70437421  1
  Nb  Nb117  1  0.70354518  0.89773607  0.89891717  1
  Nb  Nb118  1  0.09207488  0.50737119  0.30198659  1
  Nb  Nb119  1  0.49984575  0.10033770  0.90016950  1
  Nb  Nb120  1  0.09609851  0.49759245  0.90268295  1
  Nb  Nb121  1  0.50189020  0.09659992  0.09642909  1
  Nb  Nb122  1  0.10258874  0.90043989  0.29145583  1
  Nb  Nb123  1  0.69892630  0.89359057  0.49520614  1
  Nb  Nb124  1  0.70079395  0.69944143  0.30459892  1
  Nb  Nb125  1  -0.00266231  0.80773604  0.60202251  1
  Nb  Nb126  1  0.59751911  0.19858878  -0.00618479  1
  Nb  Nb127  1  0.60921448  0.80132916  0.80293294  1
  Nb  Nb128  1  0.39972466  -0.00151898  0.60953360  1
  Nb  Nb129  1  0.00077266  0.20279555  -0.00161890  1
  Nb  Nb130  1  0.40242498  0.19617911  0.79401623  1
  Nb  Nb131  1  0.20319489  0.80779640  0.20190101  1
  Nb  Nb132  1  0.60144769  0.39366994  0.19844096  1
  Nb  Nb133  1  0.59630591  0.19787899  0.80408545  1
  Nb  Nb134  1  0.19438301  0.59471075  0.39984908  1
  Nb  Nb135  1  0.59973792  0.60550787  0.59694417  1
  Nb  Nb136  1  0.79508548  -0.00746923  0.20311042  1
  Nb  Nb137  1  0.20928520  0.60244308  0.59641285  1
  Nb  Nb138  1  -0.00079607  0.39978286  0.80315763  1
  Nb  Nb139  1  0.40024651  0.00463197  0.79905964  1
  Nb  Nb140  1  0.40238941  0.80554761  0.19715644  1
  Nb  Nb141  1  0.39671618  0.20132038  0.40556541  1
  Nb  Nb142  1  0.39956253  0.60391938  0.00103558  1
  Nb  Nb143  1  0.60165565  -0.00540891  0.20046494  1
  Nb  Nb144  1  -0.00641136  0.19496720  0.59707708  1
  Nb  Nb145  1  0.80060430  0.60503072  0.39809309  1
  Nb  Nb146  1  0.40410055  0.80196656  0.60377403  1
  Nb  Nb147  1  0.00261161  0.59527638  -0.00045872  1
  Nb  Nb148  1  0.60391773  0.79723173  0.59777880  1
  Nb  Nb149  1  0.39799431  0.60449179  0.59997813  1
  Pd  Pd150  1  -0.00263447  0.19486171  0.19388619  1
  Pd  Pd151  1  0.59437987  0.80432659  0.19998989  1
  Pd  Pd152  1  0.20044453  0.61061893  0.20773060  1
  Pd  Pd153  1  0.19436576  0.80340916  0.80284908  1
  Pd  Pd154  1  0.60025954  0.39397453  0.79814378  1
  Pd  Pd155  1  0.39391166  0.18623452  0.59820062  1
  Pd  Pd156  1  0.00513179  -0.00759378  0.81235499  1
  Pd  Pd157  1  0.79506616  0.40971625  0.20623137  1
  Pd  Pd158  1  0.38948638  0.59497715  0.40724738  1
  Pd  Pd159  1  0.39150884  0.60082793  0.80592286  1
  Pd  Pd160  1  0.19524634  -0.00483507  -0.00888086  1
  Pd  Pd161  1  0.19852451  0.39500684  0.79346980  1
  Pd  Pd162  1  0.60732956  0.60741320  0.79794996  1
  Pd  Pd163  1  0.59117565  0.80180387  0.39745340  1
  Pd  Pd164  1  0.18763943  0.39749554  0.20993299  1
  Pd  Pd165  1  0.20207049  -0.00948816  0.80971342  1
  Pd  Pd166  1  0.59978320  0.20111196  0.40908389  1
  Pd  Pd167  1  0.59937559  0.40740680  0.59805659  1
  Pd  Pd168  1  0.40231947  0.19783686  -0.00212589  1
  Pd  Pd169  1  0.00342007  0.39361328  0.40019646  1
  Pd  Pd170  1  0.00391205  -0.00640327  0.39732583  1
  Pd  Pd171  1  -0.00633396  0.60682054  0.19016999  1
  Pd  Pd172  1  0.60201626  -0.00026970  0.80714977  1
  Pd  Pd173  1  0.00494449  0.80366358  0.79570328  1
  Pd  Pd174  1  0.39033081  0.39131244  0.80192074  1
  Pd  Pd175  1  0.79327535  0.59287958  0.58897905  1
  Pd  Pd176  1  0.40439995  0.80498138  0.39206512  1
  Pd  Pd177  1  0.79330328  0.19065841  0.80079286  1
  Pd  Pd178  1  0.61104450  0.19902481  0.60233663  1
  Pd  Pd179  1  0.79813227  0.80192066  0.79662210  1
  Pd  Pd180  1  0.78955901  -0.00062072  0.38745171  1
  Pd  Pd181  1  -0.00293377  0.60253867  0.41012244  1
  Pd  Pd182  1  0.39784166  0.20001834  0.20532482  1
  Pd  Pd183  1  0.20381703  0.59896657  0.79270266  1
  Pd  Pd184  1  0.20070212  0.79747344  0.59826529  1
  Pd  Pd185  1  0.20494452  -0.00109242  0.59529313  1
  Pd  Pd186  1  0.19013183  0.19778981  0.59503417  1
  Pd  Pd187  1  -0.00294227  -0.00268744  0.58815728  1
  Pd  Pd188  1  0.20527697  0.40476110  0.00517574  1
  Pd  Pd189  1  0.80158829  0.80481993  0.60798677  1
  Pd  Pd190  1  0.80110339  -0.00047630  0.59856046  1
  Pd  Pd191  1  -0.00422465  0.80841113  0.40823106  1
  Pd  Pd192  1  0.20594662  0.79736836  0.38589684  1
  Pd  Pd193  1  0.80639905  0.59433212  0.20714441  1
  Pd  Pd194  1  0.60723329  0.79445604  -0.00463469  1
  Pd  Pd195  1  0.21448624  0.21471441  0.79654133  1
  Pd  Pd196  1  0.60975683  0.00171506  0.39174682  1
  Pd  Pd197  1  0.60055928  0.40080841  0.39116363  1
  Pd  Pd198  1  0.79963074  0.80609929  0.20059649  1
  Pd  Pd199  1  0.80204692  0.19175578  -0.00359928  1
  Rh  Rh200  1  0.40848228  0.38831353  0.39926920  1
  Rh  Rh201  1  0.00174312  0.39984935  0.21466291  1
  Rh  Rh202  1  0.20117032  0.59412265  -0.00142152  1
  Rh  Rh203  1  0.60456650  0.39433110  0.00908175  1
  Rh  Rh204  1  0.61167754  0.59671159  0.40309462  1
  Rh  Rh205  1  0.41122887  0.40944397  0.59346496  1
  Rh  Rh206  1  0.60218894  -0.00709610  0.59170848  1
  Rh  Rh207  1  -0.00486681  0.38511500  0.60880662  1
  Rh  Rh208  1  0.39828722  0.00439582  -0.00655942  1
  Rh  Rh209  1  0.00193016  0.00949467  -0.00491245  1
  Rh  Rh210  1  0.80368939  0.40163845  0.80192785  1
  Rh  Rh211  1  0.19335564  0.40407656  0.60457532  1
  Rh  Rh212  1  0.00426438  0.79970564  0.19353309  1
  Rh  Rh213  1  -0.00699925  0.79250592  0.00460240  1
  Rh  Rh214  1  0.80312887  0.40134540  0.59860249  1
  Rh  Rh215  1  0.19317230  0.00368635  0.39708267  1
  Rh  Rh216  1  0.01036795  0.61386138  0.59655226  1
  Rh  Rh217  1  -0.00267825  0.58966409  0.80991041  1
  Rh  Rh218  1  0.40942607  0.80720246  0.79809265  1
  Rh  Rh219  1  0.59179773  0.60306486  0.00156779  1
  Rh  Rh220  1  0.20116393  -0.00546800  0.20081116  1
  Rh  Rh221  1  0.39412985  0.79364886  0.00605189  1
  Rh  Rh222  1  0.59581330  0.19776225  0.18634028  1
  Rh  Rh223  1  0.40285281  0.60958155  0.19184700  1
  Rh  Rh224  1  0.39258340  0.41523354  0.00100618  1
  Rh  Rh225  1  0.79581462  0.19613234  0.40153162  1
  Rh  Rh226  1  0.79861797  0.79674346  0.00520959  1
  Rh  Rh227  1  0.18508225  0.40812636  0.39555288  1
  Rh  Rh228  1  0.40357194  -0.00325898  0.18814059  1
  Rh  Rh229  1  0.20655655  0.80842363  0.00167575  1
  Rh  Rh230  1  0.80322236  0.79549239  0.39110824  1
  Rh  Rh231  1  0.19271459  0.20707992  0.01062352  1
  Rh  Rh232  1  0.59792949  0.59339970  0.19971282  1
  Rh  Rh233  1  0.80105263  0.59477864  0.80278126  1
  Rh  Rh234  1  0.80935783  0.59757940  0.00678139  1
  Rh  Rh235  1  0.19717249  0.20411167  0.19790599  1
  Rh  Rh236  1  0.20160915  0.19963500  0.40515491  1
  Rh  Rh237  1  -0.00968571  0.39871124  -0.01079809  1
  Rh  Rh238  1  0.80164782  0.00239776  0.79872029  1
  Rh  Rh239  1  0.40964542  0.39770244  0.20561241  1
  Rh  Rh240  1  -0.01044511  0.20830408  0.79967997  1
  Rh  Rh241  1  0.80796746  0.18902166  0.20144611  1
  Rh  Rh242  1  0.39734852  0.01120861  0.41116653  1
  Rh  Rh243  1  0.79880260  -0.00310391  0.00811740  1
  Rh  Rh244  1  0.79787454  0.39958112  -0.00007739  1
  Rh  Rh245  1  0.00373999  0.20339492  0.40923837  1
  Rh  Rh246  1  0.80644568  0.40941432  0.39627215  1
  Rh  Rh247  1  0.80241498  0.19267059  0.59907547  1
  Rh  Rh248  1  -0.00721715  0.00166841  0.20433357  1
  Rh  Rh249  1  0.60702263  0.00703953  0.00481046  1
