# generated using pymatgen
data_ZrScNbPdRh
_symmetry_space_group_name_H-M   'P 1'
_cell_length_a   16.55992861
_cell_length_b   16.56174976
_cell_length_c   16.55726635
_cell_angle_alpha   90.00885937
_cell_angle_beta   90.00672666
_cell_angle_gamma   89.98706290
_symmetry_Int_Tables_number   1
_chemical_formula_structural   ZrScNbPdRh
_chemical_formula_sum   'Zr50 Sc50 Nb50 Pd50 Rh50'
_cell_volume   4541.01874288
_cell_formula_units_Z   50
loop_
 _symmetry_equiv_pos_site_id
 _symmetry_equiv_pos_as_xyz
  1  'x, y, z'
loop_
 _atom_site_type_symbol
 _atom_site_label
 _atom_site_symmetry_multiplicity
 _atom_site_fract_x
 _atom_site_fract_y
 _atom_site_fract_z
 _atom_site_occupancy
  Zr  Zr0  1  0.90058339  0.90168001  0.89932201  1
  Zr  Zr1  1  0.69998485  0.89915558  0.69759034  1
  Zr  Zr2  1  0.29903347  0.90079495  0.70611883  1
  Zr  Zr3  1  0.49592238  0.29363191  0.89736071  1
  Zr  Zr4  1  0.69697436  0.69732188  0.69634636  1
  Zr  Zr5  1  0.90130867  0.29733768  0.09779596  1
  Zr  Zr6  1  0.89797739  0.10649602  0.09939094  1
  Zr  Zr7  1  0.49333528  0.89533941  0.89810073  1
  Zr  Zr8  1  0.69784682  0.69742770  0.89955292  1
  Zr  Zr9  1  0.30500752  0.69755631  0.49419388  1
  Zr  Zr10  1  0.49854979  0.30409386  0.30000109  1
  Zr  Zr11  1  0.10063481  0.89592994  0.70466869  1
  Zr  Zr12  1  0.30164970  0.70324082  0.30386817  1
  Zr  Zr13  1  0.29794807  0.49275344  0.70290252  1
  Zr  Zr14  1  0.89788931  0.30463097  0.51340218  1
  Zr  Zr15  1  0.90863364  0.70023531  0.69582410  1
  Zr  Zr16  1  0.10658977  0.50165214  0.09844290  1
  Zr  Zr17  1  0.89740983  0.89358544  0.69759848  1
  Zr  Zr18  1  0.49880452  0.69556089  0.49540392  1
  Zr  Zr19  1  0.50063440  0.10507542  0.50363922  1
  Zr  Zr20  1  0.29869805  0.10682585  0.10090542  1
  Zr  Zr21  1  0.90466678  0.11520632  0.70017463  1
  Zr  Zr22  1  0.89390249  0.29493129  0.90069860  1
  Zr  Zr23  1  0.30433119  0.10242397  0.89806541  1
  Zr  Zr24  1  0.29125842  0.49405487  0.49311277  1
  Zr  Zr25  1  0.10861778  0.09596838  0.70129599  1
  Zr  Zr26  1  0.88511678  0.30179161  0.70473803  1
  Zr  Zr27  1  0.10243170  0.50199690  0.30752144  1
  Zr  Zr28  1  0.89825492  0.70566098  0.30129011  1
  Zr  Zr29  1  0.70213482  0.31836862  0.30329915  1
  Zr  Zr30  1  0.51327961  0.48580651  0.69715080  1
  Zr  Zr31  1  0.50032911  0.31384907  0.50037138  1
  Zr  Zr32  1  0.08480260  0.28012148  0.69821453  1
  Zr  Zr33  1  0.30617296  0.89344867  0.49601018  1
  Zr  Zr34  1  0.70101456  0.89381908  0.30168354  1
  Zr  Zr35  1  0.70470499  0.90767826  0.89308513  1
  Zr  Zr36  1  0.30460013  0.09847843  0.29659319  1
  Zr  Zr37  1  0.90017501  0.09664733  0.30082074  1
  Zr  Zr38  1  0.69580104  0.10184990  0.90339201  1
  Zr  Zr39  1  0.10400908  0.89132217  0.10377126  1
  Zr  Zr40  1  0.69784988  0.09941977  0.70742275  1
  Zr  Zr41  1  0.09449022  0.50033658  0.49449553  1
  Zr  Zr42  1  0.70416130  0.89699991  0.50069889  1
  Zr  Zr43  1  0.50175889  0.49857843  0.30450033  1
  Zr  Zr44  1  0.68976341  0.89892931  0.11410629  1
  Zr  Zr45  1  0.89321081  0.50028391  0.09691749  1
  Zr  Zr46  1  0.30473623  0.70637356  0.89482837  1
  Zr  Zr47  1  0.11404064  0.50244366  0.89619038  1
  Zr  Zr48  1  0.89695595  0.50204999  0.31331900  1
  Zr  Zr49  1  0.70314819  0.08969567  0.29465628  1
  Sc  Sc50  1  0.29790516  0.70559669  0.09456594  1
  Sc  Sc51  1  0.50193387  0.70245647  0.90039442  1
  Sc  Sc52  1  0.69673931  0.49322965  0.90449253  1
  Sc  Sc53  1  0.10783234  0.09603527  0.30363858  1
  Sc  Sc54  1  0.89753912  0.70935307  0.90666624  1
  Sc  Sc55  1  0.69803395  0.29830981  0.90175636  1
  Sc  Sc56  1  0.50060642  0.89886318  0.50183271  1
  Sc  Sc57  1  0.10588171  0.29167717  0.09870887  1
  Sc  Sc58  1  0.09749936  0.70489097  0.29399821  1
  Sc  Sc59  1  0.30573030  0.30535921  0.29392209  1
  Sc  Sc60  1  0.89634844  0.48778086  0.69411406  1
  Sc  Sc61  1  0.89657862  0.30011734  0.29370203  1
  Sc  Sc62  1  0.10369800  0.50416974  0.69375591  1
  Sc  Sc63  1  0.49835307  0.30159743  0.09607089  1
  Sc  Sc64  1  0.29830813  0.09915529  0.70155645  1
  Sc  Sc65  1  0.69608174  0.49642417  0.09976643  1
  Sc  Sc66  1  0.10257668  0.70780726  0.89596659  1
  Sc  Sc67  1  0.50263243  0.50030561  0.10670910  1
  Sc  Sc68  1  0.90273783  0.70702245  0.10391864  1
  Sc  Sc69  1  0.49276446  0.11117576  0.10123434  1
  Sc  Sc70  1  0.29643752  0.29665471  0.70423026  1
  Sc  Sc71  1  0.50280083  0.10358764  0.71113733  1
  Sc  Sc72  1  0.69501055  0.69944185  0.49497160  1
  Sc  Sc73  1  0.50375750  0.90421585  0.29926370  1
  Sc  Sc74  1  0.10391696  0.90274264  0.90563363  1
  Sc  Sc75  1  0.30141090  0.09154620  0.50524783  1
  Sc  Sc76  1  0.09841403  0.69118330  0.50317072  1
  Sc  Sc77  1  0.88872418  0.10185210  0.90179797  1
  Sc  Sc78  1  0.88911342  0.90257148  0.30200970  1
  Sc  Sc79  1  0.11390095  0.91145766  0.49504933  1
  Sc  Sc80  1  0.90361213  0.69784327  0.49739078  1
  Sc  Sc81  1  0.10264488  0.30449443  0.30205687  1
  Sc  Sc82  1  0.50949743  0.69714076  0.69929093  1
  Sc  Sc83  1  0.10361060  0.09857043  0.90284429  1
  Sc  Sc84  1  0.49311755  0.10205630  0.30203112  1
  Sc  Sc85  1  0.69845443  0.09170351  0.51044979  1
  Sc  Sc86  1  0.90234843  0.89228501  0.09606350  1
  Sc  Sc87  1  0.10501742  0.30611725  0.50304379  1
  Sc  Sc88  1  0.09880849  0.70407176  0.69912947  1
  Sc  Sc89  1  0.10250992  0.10294733  0.09261089  1
  Sc  Sc90  1  0.29780613  0.70695869  0.69752293  1
  Sc  Sc91  1  0.69530781  0.70090701  0.10242525  1
  Sc  Sc92  1  0.50350609  0.70366918  0.09674450  1
  Sc  Sc93  1  0.49935046  0.89710854  0.70217045  1
  Sc  Sc94  1  0.70423563  0.30631741  0.09894669  1
  Sc  Sc95  1  0.11009682  0.10218806  0.50799336  1
  Sc  Sc96  1  0.69640074  0.70294294  0.30558108  1
  Sc  Sc97  1  0.49586639  0.69483228  0.30125178  1
  Sc  Sc98  1  0.10313720  0.28918050  0.90147467  1
  Sc  Sc99  1  0.70068736  0.49713047  0.48545482  1
  Nb  Nb100  1  0.70431259  0.49397381  0.70300491  1
  Nb  Nb101  1  0.49660069  0.89622367  0.09611959  1
  Nb  Nb102  1  0.28769656  0.89884154  0.29590808  1
  Nb  Nb103  1  0.09404135  0.70027147  0.10380440  1
  Nb  Nb104  1  0.69293295  0.31154112  0.69267858  1
  Nb  Nb105  1  0.50778104  0.29912035  0.69197132  1
  Nb  Nb106  1  0.30159017  0.89880557  0.90408805  1
  Nb  Nb107  1  0.89850171  0.90739721  0.49560591  1
  Nb  Nb108  1  0.49172569  0.49109774  0.89776441  1
  Nb  Nb109  1  0.30845184  0.30779976  0.90659125  1
  Nb  Nb110  1  0.89965249  0.09596950  0.49591251  1
  Nb  Nb111  1  0.49235792  0.49864132  0.50051534  1
  Nb  Nb112  1  0.50267553  0.10108693  0.90525042  1
  Nb  Nb113  1  0.30431053  0.30122085  0.09211850  1
  Nb  Nb114  1  0.69793127  0.29761022  0.50160826  1
  Nb  Nb115  1  0.29975840  0.50704138  0.29383553  1
  Nb  Nb116  1  0.30418678  0.30378904  0.50108361  1
  Nb  Nb117  1  0.10654522  0.90064940  0.29766955  1
  Nb  Nb118  1  0.69618186  0.10260461  0.10057181  1
  Nb  Nb119  1  0.29878495  0.49502591  0.09362747  1
  Nb  Nb120  1  0.70293780  0.50138158  0.29818526  1
  Nb  Nb121  1  0.90272189  0.50595195  0.50040255  1
  Nb  Nb122  1  0.29953554  0.90235418  0.09749104  1
  Nb  Nb123  1  0.89670796  0.49777608  0.90054311  1
  Nb  Nb124  1  0.30177577  0.49349447  0.89917180  1
  Nb  Nb125  1  -0.00232884  0.00165337  0.79458427  1
  Nb  Nb126  1  -0.00726030  0.59275960  0.80592389  1
  Nb  Nb127  1  0.60748750  0.20402728  0.40004376  1
  Nb  Nb128  1  -0.00244223  0.19674582  0.40557091  1
  Nb  Nb129  1  0.00347512  -0.00337344  0.20194961  1
  Nb  Nb130  1  0.39404577  0.81036799  0.19740244  1
  Nb  Nb131  1  0.39388882  0.58830544  -0.00687322  1
  Nb  Nb132  1  0.59279749  0.00157766  0.00231683  1
  Nb  Nb133  1  0.40247091  0.58991395  0.60180779  1
  Nb  Nb134  1  0.20470211  0.59826175  0.19664592  1
  Nb  Nb135  1  0.79892273  0.59750168  0.20598245  1
  Nb  Nb136  1  0.00153253  0.40471678  -0.00299549  1
  Nb  Nb137  1  0.80200783  0.59513853  0.79685509  1
  Nb  Nb138  1  -0.00139560  0.40113085  0.80604977  1
  Nb  Nb139  1  0.00162368  0.81340979  0.39948342  1
  Nb  Nb140  1  0.79878280  0.59322108  0.60167517  1
  Nb  Nb141  1  0.20718000  0.20380618  0.40357464  1
  Nb  Nb142  1  0.00284724  0.59769455  -0.00258623  1
  Nb  Nb143  1  0.60509035  0.20262391  0.20568444  1
  Nb  Nb144  1  0.40515225  0.20852247  0.60099877  1
  Nb  Nb145  1  -0.00457551  0.00024362  0.59832310  1
  Nb  Nb146  1  0.40004859  -0.00403877  0.00034021  1
  Nb  Nb147  1  0.79891079  0.19901729  0.40565516  1
  Nb  Nb148  1  0.40182600  0.58921928  0.80003502  1
  Nb  Nb149  1  0.00029012  0.40489599  0.19451714  1
  Pd  Pd150  1  0.00623311  0.40275211  0.60859211  1
  Pd  Pd151  1  0.01086355  0.19801448  0.20832258  1
  Pd  Pd152  1  0.40239734  0.00212181  0.80208232  1
  Pd  Pd153  1  0.19852666  0.40137211  0.20157622  1
  Pd  Pd154  1  0.40719698  0.79043423  0.60508952  1
  Pd  Pd155  1  0.20318239  0.60792329  0.79370698  1
  Pd  Pd156  1  0.19368737  0.00516845  0.19287987  1
  Pd  Pd157  1  0.79085276  0.20447833  0.20506096  1
  Pd  Pd158  1  0.80012867  0.78862040  0.59048303  1
  Pd  Pd159  1  0.00110047  0.00301377  0.00091052  1
  Pd  Pd160  1  0.80982041  -0.00643504  0.18912560  1
  Pd  Pd161  1  0.40494425  0.00666857  0.60846217  1
  Pd  Pd162  1  0.79170338  0.19577189  0.59830762  1
  Pd  Pd163  1  0.19631936  0.80121064  0.59234004  1
  Pd  Pd164  1  0.20626053  0.20368556  0.80582720  1
  Pd  Pd165  1  0.80156907  0.60604340  0.00225183  1
  Pd  Pd166  1  0.59462654  0.39793740  0.00022809  1
  Pd  Pd167  1  0.18993191  0.79318438  0.40482645  1
  Pd  Pd168  1  0.60328097  0.59030680  0.59019000  1
  Pd  Pd169  1  0.60122239  0.00528249  0.40268444  1
  Pd  Pd170  1  0.20160724  0.60996292  0.00174517  1
  Pd  Pd171  1  0.20658301  0.60271167  0.60116137  1
  Pd  Pd172  1  0.19958049  0.20375282  0.20774648  1
  Pd  Pd173  1  0.59180147  -0.00354342  0.60631418  1
  Pd  Pd174  1  0.39849522  0.20325304  0.40752555  1
  Pd  Pd175  1  0.79086902  0.80208929  0.00708776  1
  Pd  Pd176  1  -0.00171834  0.59484257  0.19684142  1
  Pd  Pd177  1  0.18856341  0.38603858  0.79537605  1
  Pd  Pd178  1  0.00940118  0.00105939  0.40052349  1
  Pd  Pd179  1  0.40059840  0.40116338  0.19424809  1
  Pd  Pd180  1  0.58592145  0.01044182  0.19372347  1
  Pd  Pd181  1  0.60767665  0.80686313  -0.00397206  1
  Pd  Pd182  1  0.40369787  -0.00436076  0.19471104  1
  Pd  Pd183  1  0.80608454  0.00435252  0.60697755  1
  Pd  Pd184  1  0.59985995  0.59126072  0.80721233  1
  Pd  Pd185  1  -0.00670248  0.38861730  0.39613206  1
  Pd  Pd186  1  0.40318443  0.39283755  0.79153108  1
  Pd  Pd187  1  0.19516974  0.38885330  -0.00218830  1
  Pd  Pd188  1  0.59968618  0.80348897  0.79990767  1
  Pd  Pd189  1  0.60607963  0.60282889  0.20468212  1
  Pd  Pd190  1  0.19310392  0.39183293  0.60802552  1
  Pd  Pd191  1  0.39810465  -0.00604926  0.39797990  1
  Pd  Pd192  1  0.19774280  0.79749982  -0.00114399  1
  Pd  Pd193  1  0.59180239  0.80053444  0.39811755  1
  Pd  Pd194  1  0.58957083  0.59411442  -0.00435995  1
  Pd  Pd195  1  0.39416876  0.60866618  0.18705758  1
  Pd  Pd196  1  0.80012789  0.79083830  0.79943766  1
  Pd  Pd197  1  0.60307310  0.20768851  0.79875594  1
  Pd  Pd198  1  0.00870543  0.81112853  0.58315957  1
  Pd  Pd199  1  0.79211368  -0.00310591  0.01052148  1
  Rh  Rh200  1  0.79291321  0.20056339  0.00394565  1
  Rh  Rh201  1  0.39821101  0.79842216  0.00549476  1
  Rh  Rh202  1  0.80629225  0.79854006  0.40638151  1
  Rh  Rh203  1  0.60978049  0.40703961  0.58832942  1
  Rh  Rh204  1  0.79075672  0.40891067  0.58915369  1
  Rh  Rh205  1  0.59562687  -0.00333294  0.80596754  1
  Rh  Rh206  1  0.80890281  0.00512671  0.79169057  1
  Rh  Rh207  1  0.79645261  0.79247292  0.19870362  1
  Rh  Rh208  1  0.59881225  0.40331829  0.40254274  1
  Rh  Rh209  1  0.58766880  0.79469491  0.20654363  1
  Rh  Rh210  1  0.59912381  0.39719712  0.19748639  1
  Rh  Rh211  1  0.00365779  0.61169180  0.39910017  1
  Rh  Rh212  1  0.20873023  0.39250705  0.39263732  1
  Rh  Rh213  1  0.19667697  -0.00391902  0.80603314  1
  Rh  Rh214  1  0.00671086  0.79367308  -0.00264758  1
  Rh  Rh215  1  0.80774767  0.39459484  0.40826153  1
  Rh  Rh216  1  0.20584514  0.79246692  0.19749311  1
  Rh  Rh217  1  0.78815687  0.00227818  0.40354261  1
  Rh  Rh218  1  -0.00224656  0.20026304  -0.00356879  1
  Rh  Rh219  1  -0.00123911  0.19490756  0.81249837  1
  Rh  Rh220  1  0.39874596  0.59153605  0.40572932  1
  Rh  Rh221  1  0.19600621  0.60617673  0.39209943  1
  Rh  Rh222  1  0.21473360  0.20437159  0.59171744  1
  Rh  Rh223  1  0.80510584  0.41016200  0.20008926  1
  Rh  Rh224  1  -0.00539166  0.59208528  0.60643425  1
  Rh  Rh225  1  0.78622792  0.20426406  0.79716874  1
  Rh  Rh226  1  0.60208562  0.39319677  0.80599213  1
  Rh  Rh227  1  0.79515172  0.40033656  0.80585037  1
  Rh  Rh228  1  0.40379580  0.78989968  0.79232116  1
  Rh  Rh229  1  0.59723536  0.20151647  0.59672533  1
  Rh  Rh230  1  0.39572400  0.39905791  0.60582686  1
  Rh  Rh231  1  0.20373809  -0.00854843  0.60579867  1
  Rh  Rh232  1  0.60205489  0.19752484  0.00950102  1
  Rh  Rh233  1  0.20923496  0.00762220  0.39815923  1
  Rh  Rh234  1  0.40151873  0.20631512  0.79527802  1
  Rh  Rh235  1  0.79753022  0.60545430  0.40128616  1
  Rh  Rh236  1  0.79977045  0.39590640  -0.00128234  1
  Rh  Rh237  1  0.00096174  0.19128909  0.58680616  1
  Rh  Rh238  1  0.40439185  0.20999649  0.19797973  1
  Rh  Rh239  1  0.20189279  0.80410339  0.80311138  1
  Rh  Rh240  1  0.39660216  0.19796162  -0.00188543  1
  Rh  Rh241  1  0.40399813  0.40328794  0.00660615  1
  Rh  Rh242  1  0.59740385  0.59495736  0.39777989  1
  Rh  Rh243  1  0.40316103  0.81056945  0.38708025  1
  Rh  Rh244  1  0.59805367  0.80247125  0.59715481  1
  Rh  Rh245  1  -0.00319503  0.81294925  0.21015556  1
  Rh  Rh246  1  0.20947201  0.00282151  0.00004926  1
  Rh  Rh247  1  -0.00073759  0.80280050  0.80780156  1
  Rh  Rh248  1  0.39239606  0.40754858  0.39234649  1
  Rh  Rh249  1  0.20975241  0.20281463  -0.00415673  1
