# generated using pymatgen
data_ZrScNbPdRh
_symmetry_space_group_name_H-M   'P 1'
_cell_length_a   16.55276134
_cell_length_b   16.55043655
_cell_length_c   16.55362052
_cell_angle_alpha   89.97207709
_cell_angle_beta   90.01180934
_cell_angle_gamma   90.02323428
_symmetry_Int_Tables_number   1
_chemical_formula_structural   ZrScNbPdRh
_chemical_formula_sum   'Zr50 Sc50 Nb50 Pd50 Rh50'
_cell_volume   4534.95315956
_cell_formula_units_Z   50
loop_
 _symmetry_equiv_pos_site_id
 _symmetry_equiv_pos_as_xyz
  1  'x, y, z'
loop_
 _atom_site_type_symbol
 _atom_site_label
 _atom_site_symmetry_multiplicity
 _atom_site_fract_x
 _atom_site_fract_y
 _atom_site_fract_z
 _atom_site_occupancy
  Zr  Zr0  1  0.30497954  0.90309277  0.09658420  1
  Zr  Zr1  1  0.89404590  0.10099832  0.89582227  1
  Zr  Zr2  1  0.29917114  0.89779002  0.70892050  1
  Zr  Zr3  1  0.09925328  0.50341757  0.89133329  1
  Zr  Zr4  1  0.29741524  0.29657535  0.89237954  1
  Zr  Zr5  1  0.49813963  0.30750508  0.30180806  1
  Zr  Zr6  1  0.69574759  0.50375402  0.70604326  1
  Zr  Zr7  1  0.30560725  0.50754354  0.89950249  1
  Zr  Zr8  1  0.69361858  0.10396087  0.10606058  1
  Zr  Zr9  1  0.50759934  0.89869891  0.50817919  1
  Zr  Zr10  1  0.90748286  0.90577188  0.49683279  1
  Zr  Zr11  1  0.49324313  0.89464181  0.90052983  1
  Zr  Zr12  1  0.30423317  0.10304733  0.30565476  1
  Zr  Zr13  1  0.10788491  0.50483326  0.29574877  1
  Zr  Zr14  1  0.88980959  0.29732364  0.70217900  1
  Zr  Zr15  1  0.30084291  0.29567466  0.50068354  1
  Zr  Zr16  1  0.69885523  0.49846593  0.50003335  1
  Zr  Zr17  1  0.70361597  0.10668826  0.69691260  1
  Zr  Zr18  1  0.90023881  0.30714817  0.49620344  1
  Zr  Zr19  1  0.49885311  0.90036107  0.70650069  1
  Zr  Zr20  1  0.89834580  0.29902900  0.90086262  1
  Zr  Zr21  1  0.29854336  0.50093667  0.30113197  1
  Zr  Zr22  1  0.29763490  0.30097430  0.09851822  1
  Zr  Zr23  1  0.70189703  0.10101133  0.29279218  1
  Zr  Zr24  1  0.50384766  0.49786149  0.70026771  1
  Zr  Zr25  1  0.30444991  0.90214575  0.28841152  1
  Zr  Zr26  1  0.09427031  0.90245814  0.49973409  1
  Zr  Zr27  1  0.09850664  0.10042022  0.70193719  1
  Zr  Zr28  1  0.89986461  0.49822977  0.30405398  1
  Zr  Zr29  1  0.29240980  0.49779720  0.10530970  1
  Zr  Zr30  1  0.10352332  0.29674936  0.31114248  1
  Zr  Zr31  1  0.28884858  0.09607998  0.10347305  1
  Zr  Zr32  1  0.69164148  0.29608711  0.09951016  1
  Zr  Zr33  1  0.89776035  0.09485117  0.70175830  1
  Zr  Zr34  1  0.49594739  0.70051803  0.90385626  1
  Zr  Zr35  1  0.50285654  0.68863137  0.29803885  1
  Zr  Zr36  1  0.09100270  0.89660813  0.30033988  1
  Zr  Zr37  1  0.70523535  0.91017021  0.29883354  1
  Zr  Zr38  1  0.09545516  0.90425931  0.70010666  1
  Zr  Zr39  1  0.49358171  0.50970716  0.10542508  1
  Zr  Zr40  1  0.29710188  0.30679263  0.30942461  1
  Zr  Zr41  1  0.50248481  0.10076907  0.29963009  1
  Zr  Zr42  1  0.09564916  0.30462422  0.89156633  1
  Zr  Zr43  1  0.70492843  0.30556431  0.28828927  1
  Zr  Zr44  1  0.09853817  0.68419217  0.70423090  1
  Zr  Zr45  1  0.70225228  0.49713073  0.10212485  1
  Zr  Zr46  1  0.09664023  0.69619233  0.30058917  1
  Zr  Zr47  1  0.70328522  0.69552519  0.29653105  1
  Zr  Zr48  1  0.89918920  0.29859932  0.29986836  1
  Zr  Zr49  1  0.50117064  0.50439210  0.88895399  1
  Sc  Sc50  1  0.70178571  0.30079196  0.51245888  1
  Sc  Sc51  1  0.69443471  0.50101959  0.29677986  1
  Sc  Sc52  1  0.09224969  0.10409586  0.48922925  1
  Sc  Sc53  1  0.69735963  0.89565509  0.69977873  1
  Sc  Sc54  1  0.70806515  0.69842557  0.89596634  1
  Sc  Sc55  1  0.69917987  0.30438897  0.89262637  1
  Sc  Sc56  1  0.90571084  0.69961397  0.51481212  1
  Sc  Sc57  1  0.90640673  0.09434707  0.09012633  1
  Sc  Sc58  1  0.69468127  0.30594298  0.69924162  1
  Sc  Sc59  1  0.10302568  0.49635096  0.69789761  1
  Sc  Sc60  1  0.50015958  0.90945705  0.29471691  1
  Sc  Sc61  1  0.70235331  0.49699131  0.89583272  1
  Sc  Sc62  1  0.10014855  0.70114308  0.89754281  1
  Sc  Sc63  1  0.49376470  0.29969699  0.69437214  1
  Sc  Sc64  1  0.10614751  0.30609291  0.50073587  1
  Sc  Sc65  1  0.89132556  0.50059056  0.09513779  1
  Sc  Sc66  1  0.10565685  0.69372583  0.50639604  1
  Sc  Sc67  1  0.70086484  0.09441526  0.89890916  1
  Sc  Sc68  1  0.89721088  0.49103564  0.89851177  1
  Sc  Sc69  1  0.70682484  0.89899382  0.10450242  1
  Sc  Sc70  1  0.50329645  0.10658078  0.09492171  1
  Sc  Sc71  1  0.49887727  0.10910834  0.50155676  1
  Sc  Sc72  1  0.09692218  0.50038885  0.50648799  1
  Sc  Sc73  1  0.49442680  0.09570041  0.89896817  1
  Sc  Sc74  1  0.29896651  0.70286980  0.89040666  1
  Sc  Sc75  1  0.69748020  0.69882651  0.50911214  1
  Sc  Sc76  1  0.10667393  0.30044065  0.08467222  1
  Sc  Sc77  1  0.29926331  0.49959724  0.50456763  1
  Sc  Sc78  1  0.30622689  0.88992712  0.51262247  1
  Sc  Sc79  1  0.90181131  0.09181057  0.30204277  1
  Sc  Sc80  1  0.50331055  0.50045254  0.30468907  1
  Sc  Sc81  1  0.71336159  0.69417349  0.10081669  1
  Sc  Sc82  1  0.31185041  0.70863776  0.10368385  1
  Sc  Sc83  1  0.50183833  0.69849823  0.69894355  1
  Sc  Sc84  1  0.10238805  0.90642404  0.09957037  1
  Sc  Sc85  1  0.08546852  0.10205123  0.90929793  1
  Sc  Sc86  1  0.30168712  0.90044465  0.90022273  1
  Sc  Sc87  1  0.49654185  0.28999843  0.89726701  1
  Sc  Sc88  1  0.49848529  0.30534934  0.50346374  1
  Sc  Sc89  1  0.89620879  0.90403734  0.90698105  1
  Sc  Sc90  1  0.10575291  0.09809271  0.29883465  1
  Sc  Sc91  1  0.90659106  0.89151944  0.10185137  1
  Sc  Sc92  1  0.69846902  0.09755995  0.50228819  1
  Sc  Sc93  1  0.30697603  0.09545245  0.89724594  1
  Sc  Sc94  1  0.70051434  0.89799161  0.89491161  1
  Sc  Sc95  1  0.49986928  0.50308443  0.50223806  1
  Sc  Sc96  1  0.30167007  0.50171904  0.69820012  1
  Sc  Sc97  1  0.10173105  0.89741895  0.90451403  1
  Sc  Sc98  1  0.09197985  0.71167532  0.10494358  1
  Sc  Sc99  1  0.88913205  0.30471654  0.10131703  1
  Nb  Nb100  1  0.09627510  0.10382093  0.10183365  1
  Nb  Nb101  1  0.49892955  0.10067331  0.70013766  1
  Nb  Nb102  1  0.89876245  0.69852821  0.09788521  1
  Nb  Nb103  1  0.30814374  0.69989388  0.50856194  1
  Nb  Nb104  1  0.10974571  0.29737922  0.69836884  1
  Nb  Nb105  1  0.90412210  0.50900373  0.69509874  1
  Nb  Nb106  1  0.49638599  0.70179874  0.49800569  1
  Nb  Nb107  1  0.29956134  0.70281027  0.30871899  1
  Nb  Nb108  1  0.89770119  0.49811079  0.50061806  1
  Nb  Nb109  1  0.28799815  0.28648190  0.69698326  1
  Nb  Nb110  1  0.10267445  0.50151676  0.09970556  1
  Nb  Nb111  1  0.50236489  0.70464376  0.09627810  1
  Nb  Nb112  1  0.89529805  0.69757361  0.70721482  1
  Nb  Nb113  1  0.89961054  0.70265725  0.28911551  1
  Nb  Nb114  1  0.49547242  0.88654965  0.09476777  1
  Nb  Nb115  1  0.71150120  0.69547548  0.70389856  1
  Nb  Nb116  1  0.90026896  0.10258720  0.49929650  1
  Nb  Nb117  1  0.90372600  0.69883265  0.90804550  1
  Nb  Nb118  1  0.30499916  0.10137237  0.49968103  1
  Nb  Nb119  1  0.89783948  0.89398867  0.30453435  1
  Nb  Nb120  1  0.70421512  0.89877211  0.49595359  1
  Nb  Nb121  1  0.29734663  0.70274482  0.68591465  1
  Nb  Nb122  1  0.50103130  0.30018086  0.09670425  1
  Nb  Nb123  1  0.30254803  0.10798041  0.69760165  1
  Nb  Nb124  1  0.90314616  0.89910202  0.69362794  1
  Nb  Nb125  1  0.00446777  0.20312432  0.19507759  1
  Nb  Nb126  1  0.39832532  0.20577917  0.19928938  1
  Nb  Nb127  1  0.20790204  -0.00747084  0.40572368  1
  Nb  Nb128  1  0.60192204  0.80020568  0.39837931  1
  Nb  Nb129  1  0.59626259  0.19361730  0.79371360  1
  Nb  Nb130  1  0.80448893  -0.00625503  0.59644050  1
  Nb  Nb131  1  0.59745155  0.59948378  0.00040485  1
  Nb  Nb132  1  -0.00217720  0.20439738  0.60193063  1
  Nb  Nb133  1  0.60745773  0.20385817  0.39538289  1
  Nb  Nb134  1  0.79742537  0.19939374  0.39926106  1
  Nb  Nb135  1  0.19521558  0.59994570  0.00532211  1
  Nb  Nb136  1  -0.01020969  0.79541974  0.79608342  1
  Nb  Nb137  1  0.58949864  0.40297817  0.00045260  1
  Nb  Nb138  1  0.40310812  0.79460426  0.40136660  1
  Nb  Nb139  1  0.20802018  0.79830144  0.40118112  1
  Nb  Nb140  1  0.59826810  0.79769501  0.19952378  1
  Nb  Nb141  1  0.20578902  0.00629184  0.59752557  1
  Nb  Nb142  1  0.79618019  0.19924877  0.00006639  1
  Nb  Nb143  1  0.80614138  0.60311530  0.40251075  1
  Nb  Nb144  1  0.40230848  0.40110196  -0.00015317  1
  Nb  Nb145  1  0.80231700  0.79894608  0.39911454  1
  Nb  Nb146  1  0.59481123  -0.00976262  0.00285326  1
  Nb  Nb147  1  0.00709078  0.39935919  0.19782383  1
  Nb  Nb148  1  0.39672388  0.00644959  0.60643535  1
  Nb  Nb149  1  0.00041573  0.60094705  0.00207939  1
  Pd  Pd150  1  0.60084177  0.00342561  0.80613682  1
  Pd  Pd151  1  0.80003509  0.80415455  0.59583126  1
  Pd  Pd152  1  -0.00162517  0.00317945  0.20064073  1
  Pd  Pd153  1  0.40820709  0.01055983  0.18817403  1
  Pd  Pd154  1  0.20655192  0.40455433  0.79289873  1
  Pd  Pd155  1  0.39242705  0.60508869  0.20222865  1
  Pd  Pd156  1  0.79263085  0.00251775  0.00609886  1
  Pd  Pd157  1  0.39717629  0.39117911  0.79725055  1
  Pd  Pd158  1  -0.00599723  0.59346813  0.19041516  1
  Pd  Pd159  1  0.19136807  0.79630123  0.79723420  1
  Pd  Pd160  1  0.60229505  0.00429889  0.60038471  1
  Pd  Pd161  1  0.39613709  0.20005123  0.00399060  1
  Pd  Pd162  1  0.59924533  0.00434698  0.40509663  1
  Pd  Pd163  1  0.39819799  -0.01059009  0.41254363  1
  Pd  Pd164  1  -0.00205071  0.78608861  0.40371729  1
  Pd  Pd165  1  0.19828436  0.79976101  0.20149348  1
  Pd  Pd166  1  0.80026481  0.59767540  0.59671704  1
  Pd  Pd167  1  0.60356789  0.79366175  0.60385883  1
  Pd  Pd168  1  0.00019166  0.20337110  0.79395922  1
  Pd  Pd169  1  0.00871701  0.40686636  0.39701295  1
  Pd  Pd170  1  0.20418967  0.40639678  -0.01011964  1
  Pd  Pd171  1  0.19596781  0.00497720  -0.00611718  1
  Pd  Pd172  1  -0.00501477  0.40175431  0.78716366  1
  Pd  Pd173  1  -0.00578420  0.60388885  0.40718542  1
  Pd  Pd174  1  0.59741295  0.60420717  0.60041790  1
  Pd  Pd175  1  0.20358141  0.79248804  0.00316112  1
  Pd  Pd176  1  0.39299126  0.39821017  0.60316787  1
  Pd  Pd177  1  0.20319963  0.60179834  0.41027912  1
  Pd  Pd178  1  0.80616126  0.59285387  0.80641979  1
  Pd  Pd179  1  0.00203268  0.39444306  0.60733985  1
  Pd  Pd180  1  0.19523805  0.18743210  0.81153621  1
  Pd  Pd181  1  0.60434387  0.39435425  0.40452938  1
  Pd  Pd182  1  0.19034306  0.19274862  0.58927658  1
  Pd  Pd183  1  0.19976429  0.19248170  -0.01075969  1
  Pd  Pd184  1  0.80691516  0.80635368  0.80180794  1
  Pd  Pd185  1  0.39568262  0.60923885  0.78731337  1
  Pd  Pd186  1  0.60324419  0.79101078  0.79754869  1
  Pd  Pd187  1  0.79676365  0.80125897  0.00012241  1
  Pd  Pd188  1  0.40191140  0.39834928  0.19765916  1
  Pd  Pd189  1  0.19920756  0.00705125  0.80275351  1
  Pd  Pd190  1  0.19162179  0.80290522  0.59897769  1
  Pd  Pd191  1  -0.00163908  0.40464495  0.00662899  1
  Pd  Pd192  1  0.79917115  0.40749433  0.60690676  1
  Pd  Pd193  1  0.81352467  0.00122812  0.19176839  1
  Pd  Pd194  1  0.39801761  0.59673071  0.40514815  1
  Pd  Pd195  1  0.20496863  0.61627427  0.19183555  1
  Pd  Pd196  1  0.00696217  0.79092258  0.60819790  1
  Pd  Pd197  1  0.19839583  0.20610012  0.20190725  1
  Pd  Pd198  1  -0.00333550  -0.00964416  0.80992078  1
  Pd  Pd199  1  0.61383208  0.79714750  0.00576192  1
  Rh  Rh200  1  0.59458453  0.40444184  0.19317722  1
  Rh  Rh201  1  0.40353167  0.20041133  0.79417088  1
  Rh  Rh202  1  0.80595569  0.40841202  0.20056819  1
  Rh  Rh203  1  0.78798857  0.39231471  -0.00118505  1
  Rh  Rh204  1  0.20315609  0.19146191  0.40602827  1
  Rh  Rh205  1  0.40608096  -0.00174059  0.00450946  1
  Rh  Rh206  1  -0.00951019  0.20814625  0.00783497  1
  Rh  Rh207  1  0.80732354  0.19481350  0.59098601  1
  Rh  Rh208  1  0.20769204  0.60077013  0.79939344  1
  Rh  Rh209  1  0.39662728  0.00307009  0.79477812  1
  Rh  Rh210  1  0.78862040  0.20069455  0.80783280  1
  Rh  Rh211  1  -0.00165115  0.59766217  0.60103081  1
  Rh  Rh212  1  0.41214229  0.79536172  0.21101156  1
  Rh  Rh213  1  0.39822293  0.79394924  0.79587001  1
  Rh  Rh214  1  0.19849679  0.41024716  0.40687334  1
  Rh  Rh215  1  -0.00280848  0.80204920  0.19947691  1
  Rh  Rh216  1  0.40786501  0.80226832  0.60509432  1
  Rh  Rh217  1  0.80252843  0.00141883  0.40668536  1
  Rh  Rh218  1  0.40293950  0.60015264  0.60202068  1
  Rh  Rh219  1  0.58779837  0.20778077  0.20905053  1
  Rh  Rh220  1  0.40184955  0.19936235  0.60075314  1
  Rh  Rh221  1  0.79974958  0.80238793  0.20346162  1
  Rh  Rh222  1  0.20430989  0.59638687  0.60096290  1
  Rh  Rh223  1  -0.00927227  0.19801890  0.39800917  1
  Rh  Rh224  1  0.39707696  0.60169634  0.00201390  1
  Rh  Rh225  1  0.60815045  0.60396714  0.40914782  1
  Rh  Rh226  1  0.59859847  0.40317628  0.60179778  1
  Rh  Rh227  1  0.80645395  0.59390991  0.20579919  1
  Rh  Rh228  1  -0.00040711  0.01264355  0.59778935  1
  Rh  Rh229  1  0.39823674  0.40729172  0.40609906  1
  Rh  Rh230  1  0.60750517  0.19828247  -0.01328161  1
  Rh  Rh231  1  0.80320874  0.40610906  0.79185662  1
  Rh  Rh232  1  0.00339654  0.00496044  0.39197545  1
  Rh  Rh233  1  0.81573900  0.18847643  0.19496141  1
  Rh  Rh234  1  0.79246212  0.40238478  0.40092881  1
  Rh  Rh235  1  0.59063688  0.38858846  0.80376022  1
  Rh  Rh236  1  0.20418535  0.39854139  0.60375249  1
  Rh  Rh237  1  0.59514073  0.20221539  0.60012217  1
  Rh  Rh238  1  0.18959101  0.39142276  0.20290668  1
  Rh  Rh239  1  0.60408363  0.60549322  0.18773791  1
  Rh  Rh240  1  -0.00996864  0.60273608  0.80734976  1
  Rh  Rh241  1  -0.00041382  0.79724210  -0.00411175  1
  Rh  Rh242  1  0.60582953  0.60989144  0.80367366  1
  Rh  Rh243  1  0.80233661  0.59852546  -0.00647883  1
  Rh  Rh244  1  0.00303863  -0.00626069  0.00078383  1
  Rh  Rh245  1  0.38961002  0.79630335  -0.00736279  1
  Rh  Rh246  1  0.19428229  -0.00276854  0.20462261  1
  Rh  Rh247  1  0.40886887  0.20586189  0.39686670  1
  Rh  Rh248  1  0.79899152  -0.00909341  0.78856792  1
  Rh  Rh249  1  0.59150912  -0.01267594  0.18372580  1
