# generated using pymatgen
data_ZrScNbPdRh
_symmetry_space_group_name_H-M   'P 1'
_cell_length_a   16.55738778
_cell_length_b   16.55569307
_cell_length_c   16.55426123
_cell_angle_alpha   89.99909843
_cell_angle_beta   90.03126736
_cell_angle_gamma   90.03284385
_symmetry_Int_Tables_number   1
_chemical_formula_structural   ZrScNbPdRh
_chemical_formula_sum   'Zr50 Sc50 Nb50 Pd50 Rh50'
_cell_volume   4537.83660963
_cell_formula_units_Z   50
loop_
 _symmetry_equiv_pos_site_id
 _symmetry_equiv_pos_as_xyz
  1  'x, y, z'
loop_
 _atom_site_type_symbol
 _atom_site_label
 _atom_site_symmetry_multiplicity
 _atom_site_fract_x
 _atom_site_fract_y
 _atom_site_fract_z
 _atom_site_occupancy
  Zr  Zr0  1  0.71178640  0.50333773  0.68701524  1
  Zr  Zr1  1  0.30207261  0.30829444  0.70012409  1
  Zr  Zr2  1  0.49677161  0.10014627  0.29940833  1
  Zr  Zr3  1  0.31450953  0.90159025  0.70533987  1
  Zr  Zr4  1  0.10770243  0.31176584  0.09703190  1
  Zr  Zr5  1  0.89832478  0.89697161  0.10927956  1
  Zr  Zr6  1  0.49727939  0.90539002  0.89042073  1
  Zr  Zr7  1  0.29660885  0.10248529  0.49408207  1
  Zr  Zr8  1  0.50193504  0.50339282  0.10508336  1
  Zr  Zr9  1  0.50123111  0.89136091  0.49756088  1
  Zr  Zr10  1  0.70026357  0.30115084  0.69452493  1
  Zr  Zr11  1  0.89908546  0.69157872  0.29207196  1
  Zr  Zr12  1  0.09022446  0.69477078  0.09820111  1
  Zr  Zr13  1  0.89868885  0.30592245  0.30106989  1
  Zr  Zr14  1  0.09536088  0.69996505  0.69778925  1
  Zr  Zr15  1  0.70034030  0.50333096  0.89964679  1
  Zr  Zr16  1  0.30013430  0.10327887  0.29838692  1
  Zr  Zr17  1  0.48936311  0.50307626  0.69610883  1
  Zr  Zr18  1  0.49512483  0.11374225  0.10191382  1
  Zr  Zr19  1  0.90621500  0.70906666  0.89911688  1
  Zr  Zr20  1  0.29914879  0.49582105  0.49867238  1
  Zr  Zr21  1  0.70678147  0.09955416  0.69181321  1
  Zr  Zr22  1  0.70112088  0.49981312  0.30279996  1
  Zr  Zr23  1  0.09966935  0.89740845  0.70330467  1
  Zr  Zr24  1  0.30694448  0.10013481  0.10446978  1
  Zr  Zr25  1  0.89625062  0.30639334  0.69832023  1
  Zr  Zr26  1  0.89688256  0.89477753  0.50184491  1
  Zr  Zr27  1  0.10208551  0.09676817  0.30106799  1
  Zr  Zr28  1  0.49819117  0.49675199  0.49662484  1
  Zr  Zr29  1  0.09485806  0.29419964  0.30860961  1
  Zr  Zr30  1  0.88714100  0.29448363  0.10020481  1
  Zr  Zr31  1  0.09872001  0.70547432  0.49857759  1
  Zr  Zr32  1  0.09735471  0.50021478  0.51096493  1
  Zr  Zr33  1  0.30058982  0.88956389  0.89735929  1
  Zr  Zr34  1  0.70162303  0.89644316  0.29839057  1
  Zr  Zr35  1  0.69944775  0.30403227  0.10541825  1
  Zr  Zr36  1  0.29454296  0.48875767  0.10822161  1
  Zr  Zr37  1  0.50059618  0.89920355  0.10194882  1
  Zr  Zr38  1  0.10526437  0.69592587  0.89709039  1
  Zr  Zr39  1  0.50473136  0.89880081  0.30528235  1
  Zr  Zr40  1  0.49858864  0.30037788  0.90308474  1
  Zr  Zr41  1  0.50133456  0.08946045  0.70827147  1
  Zr  Zr42  1  0.09999025  0.89339698  0.50103468  1
  Zr  Zr43  1  0.09444449  0.10102502  0.48838660  1
  Zr  Zr44  1  0.90174660  0.10258661  0.70820772  1
  Zr  Zr45  1  0.10146665  0.50086063  0.90128244  1
  Zr  Zr46  1  0.29127562  0.70515004  0.09663730  1
  Zr  Zr47  1  0.09723673  0.90130486  0.10721230  1
  Zr  Zr48  1  0.49881094  0.69863961  0.30335990  1
  Zr  Zr49  1  0.69751663  0.69763145  0.29942632  1
  Sc  Sc50  1  0.70891375  0.69471303  0.49696793  1
  Sc  Sc51  1  0.70400970  0.70443219  0.90034154  1
  Sc  Sc52  1  0.69613662  0.29839117  0.49835685  1
  Sc  Sc53  1  0.09856851  0.90019592  0.30472484  1
  Sc  Sc54  1  0.10354580  0.89934000  0.89200489  1
  Sc  Sc55  1  0.90322904  0.70098345  0.49276385  1
  Sc  Sc56  1  0.30333955  0.69650575  0.70865277  1
  Sc  Sc57  1  0.30001348  0.29268913  0.09950083  1
  Sc  Sc58  1  0.70682198  0.89453582  0.48973615  1
  Sc  Sc59  1  0.29351890  0.30524447  0.30031854  1
  Sc  Sc60  1  0.31439626  0.10242058  0.69554733  1
  Sc  Sc61  1  0.70601994  0.30549557  0.90979553  1
  Sc  Sc62  1  0.30014786  0.90289588  0.30757679  1
  Sc  Sc63  1  0.30037383  0.70528565  0.49600214  1
  Sc  Sc64  1  0.29405039  0.49994053  0.69773705  1
  Sc  Sc65  1  0.49982088  0.30213010  0.50022913  1
  Sc  Sc66  1  0.49792502  0.70493732  0.90106125  1
  Sc  Sc67  1  0.90129631  0.09493141  0.30674865  1
  Sc  Sc68  1  0.70189398  0.50683856  0.10208178  1
  Sc  Sc69  1  0.89634830  0.29994700  0.89885844  1
  Sc  Sc70  1  0.29710950  0.49864955  0.88461933  1
  Sc  Sc71  1  0.30022689  0.89627657  0.50038239  1
  Sc  Sc72  1  0.90433706  0.50011826  0.89347162  1
  Sc  Sc73  1  0.49880000  0.50547175  0.89560125  1
  Sc  Sc74  1  0.70681712  0.11599249  0.10660161  1
  Sc  Sc75  1  0.48955735  0.29444141  0.69337440  1
  Sc  Sc76  1  0.09104542  0.48923634  0.29718591  1
  Sc  Sc77  1  0.90114529  0.30350625  0.49275853  1
  Sc  Sc78  1  0.49585006  0.69509189  0.49640322  1
  Sc  Sc79  1  0.29743953  0.90752775  0.09284910  1
  Sc  Sc80  1  0.30757114  0.49525795  0.30299495  1
  Sc  Sc81  1  0.29732391  0.30347471  0.89937509  1
  Sc  Sc82  1  0.50725790  0.69953792  0.10403848  1
  Sc  Sc83  1  0.09842701  0.09209706  0.89076019  1
  Sc  Sc84  1  0.70342695  0.10283623  0.89850447  1
  Sc  Sc85  1  0.50285205  0.29441500  0.30568949  1
  Sc  Sc86  1  0.89386011  0.49834150  0.30059866  1
  Sc  Sc87  1  0.09934920  0.30666550  0.49345524  1
  Sc  Sc88  1  0.30135567  0.09604484  0.90920181  1
  Sc  Sc89  1  0.10314562  0.30844795  0.90288415  1
  Sc  Sc90  1  0.70158578  0.29486659  0.30570525  1
  Sc  Sc91  1  0.49832800  0.50451125  0.30573184  1
  Sc  Sc92  1  0.29857959  0.30658821  0.49813105  1
  Sc  Sc93  1  0.09520249  0.31407342  0.69573457  1
  Sc  Sc94  1  0.69270598  0.70635136  0.10135787  1
  Sc  Sc95  1  0.11406946  0.09353644  0.10009074  1
  Sc  Sc96  1  0.89659130  0.49922493  0.49775220  1
  Sc  Sc97  1  0.50166621  0.10437208  0.49685007  1
  Sc  Sc98  1  0.69980521  0.89263066  0.90495785  1
  Sc  Sc99  1  0.90732692  0.50303063  0.11179708  1
  Nb  Nb100  1  0.90535594  0.69571258  0.09695351  1
  Nb  Nb101  1  0.69998955  0.49197227  0.49612505  1
  Nb  Nb102  1  0.09521953  0.50214104  0.69999289  1
  Nb  Nb103  1  0.90275852  0.09810628  0.90184779  1
  Nb  Nb104  1  0.90024520  0.89994540  0.90010655  1
  Nb  Nb105  1  0.50347912  0.69885346  0.69958958  1
  Nb  Nb106  1  0.89056450  0.70790726  0.70198476  1
  Nb  Nb107  1  0.90822365  0.49939600  0.69383450  1
  Nb  Nb108  1  0.29916351  0.69618317  0.89897479  1
  Nb  Nb109  1  0.90312301  0.09778796  0.10065315  1
  Nb  Nb110  1  0.89613934  0.09508754  0.50823014  1
  Nb  Nb111  1  0.70707520  0.89593660  0.69647797  1
  Nb  Nb112  1  0.69452310  0.90421824  0.10189418  1
  Nb  Nb113  1  0.70413053  0.09355885  0.49812673  1
  Nb  Nb114  1  0.50312626  0.29872280  0.09982048  1
  Nb  Nb115  1  0.50527648  0.10274502  0.90187970  1
  Nb  Nb116  1  0.29771485  0.69860071  0.30046874  1
  Nb  Nb117  1  0.10126265  0.50112857  0.09725991  1
  Nb  Nb118  1  0.10481613  0.69858881  0.30034825  1
  Nb  Nb119  1  0.89712074  0.89255282  0.70230125  1
  Nb  Nb120  1  0.50444266  0.89929120  0.69909693  1
  Nb  Nb121  1  0.89506923  0.89862367  0.29588047  1
  Nb  Nb122  1  0.09547716  0.09864385  0.70049586  1
  Nb  Nb123  1  0.68845456  0.09837503  0.31152771  1
  Nb  Nb124  1  0.70662827  0.70147808  0.69896355  1
  Nb  Nb125  1  -0.00033180  0.19718689  0.19287970  1
  Nb  Nb126  1  0.60473413  0.60337322  0.78776864  1
  Nb  Nb127  1  0.19704861  0.19900520  0.78936819  1
  Nb  Nb128  1  0.60306382  0.00521268  0.19894690  1
  Nb  Nb129  1  0.60321925  0.00452716  0.00510327  1
  Nb  Nb130  1  -0.00737435  0.00072427  0.00014777  1
  Nb  Nb131  1  0.80952983  0.60779962  0.00277730  1
  Nb  Nb132  1  0.60164227  0.79945784  0.78834865  1
  Nb  Nb133  1  -0.00165912  0.19370940  0.00419015  1
  Nb  Nb134  1  0.80271852  -0.00054695  0.00243806  1
  Nb  Nb135  1  0.19547057  0.60174749  0.39415414  1
  Nb  Nb136  1  0.19275869  0.19675051  0.60408986  1
  Nb  Nb137  1  0.39627026  0.79817180  0.20316931  1
  Nb  Nb138  1  0.00011130  0.19446612  0.59946970  1
  Nb  Nb139  1  -0.00338136  0.00013246  0.60339411  1
  Nb  Nb140  1  0.19391802  0.00496178  0.60344689  1
  Nb  Nb141  1  0.59819258  0.39688693  0.19884334  1
  Nb  Nb142  1  0.60096792  0.40162346  0.79339868  1
  Nb  Nb143  1  0.60401655  0.79864573  0.60635729  1
  Nb  Nb144  1  0.59894379  0.20244059  0.79998575  1
  Nb  Nb145  1  0.80564095  -0.00680355  0.80296207  1
  Nb  Nb146  1  0.60566105  -0.00761861  0.60025592  1
  Nb  Nb147  1  0.19487342  0.59985055  0.20294104  1
  Nb  Nb148  1  0.39248703  0.59811442  0.00168887  1
  Nb  Nb149  1  0.40355360  0.40379647  0.00453224  1
  Pd  Pd150  1  0.59528493  0.40057809  0.60275127  1
  Pd  Pd151  1  0.21230983  0.00848876  0.79439351  1
  Pd  Pd152  1  0.00742697  0.80834056  -0.00246093  1
  Pd  Pd153  1  0.80904672  0.41622299  0.00653382  1
  Pd  Pd154  1  0.59561041  0.19134553  0.60105027  1
  Pd  Pd155  1  0.00039287  0.79799659  0.20876650  1
  Pd  Pd156  1  0.80258448  0.60136442  0.80491048  1
  Pd  Pd157  1  0.40723283  0.00130136  -0.00254366  1
  Pd  Pd158  1  0.19175962  0.19440174  -0.01113535  1
  Pd  Pd159  1  0.20397709  0.80341865  0.20469507  1
  Pd  Pd160  1  0.80430867  0.19167096  0.21614657  1
  Pd  Pd161  1  0.39636657  0.19551173  0.80813992  1
  Pd  Pd162  1  -0.00979684  0.39757112  0.00387870  1
  Pd  Pd163  1  0.40012245  -0.00157840  0.40568906  1
  Pd  Pd164  1  0.80131380  0.19658672  0.40264763  1
  Pd  Pd165  1  0.60289980  0.60374162  0.59568262  1
  Pd  Pd166  1  0.20691989  -0.00612513  0.20531463  1
  Pd  Pd167  1  0.18994478  0.80503528  -0.00288098  1
  Pd  Pd168  1  0.00864477  0.21212090  0.80385752  1
  Pd  Pd169  1  -0.01021764  0.60792686  0.60075699  1
  Pd  Pd170  1  -0.00390159  0.60196699  0.79657057  1
  Pd  Pd171  1  -0.00721653  -0.00832151  0.40163498  1
  Pd  Pd172  1  0.79651100  0.40462101  0.79774379  1
  Pd  Pd173  1  0.19467783  0.20433978  0.20026613  1
  Pd  Pd174  1  0.40916019  0.38966991  0.20193137  1
  Pd  Pd175  1  -0.00591886  0.80089781  0.38860126  1
  Pd  Pd176  1  0.40434386  0.79338443  0.00628031  1
  Pd  Pd177  1  0.00405547  0.59331311  0.39528244  1
  Pd  Pd178  1  0.79700160  0.79202062  0.19557333  1
  Pd  Pd179  1  0.59530417  0.40441307  0.00078138  1
  Pd  Pd180  1  0.79337920  0.20087063  0.80562080  1
  Pd  Pd181  1  0.40388639  0.00095878  0.59005812  1
  Pd  Pd182  1  0.20704012  0.59131900  0.00264866  1
  Pd  Pd183  1  0.20499749  0.60445791  0.59650983  1
  Pd  Pd184  1  -0.00124696  0.39293623  0.19566887  1
  Pd  Pd185  1  0.39182049  0.60569455  0.59581509  1
  Pd  Pd186  1  0.39124279  0.60808034  0.19410253  1
  Pd  Pd187  1  0.21131383  0.80337474  0.60843355  1
  Pd  Pd188  1  0.00174266  0.39739810  0.80205987  1
  Pd  Pd189  1  0.60806640  0.19728994  -0.00440854  1
  Pd  Pd190  1  0.39594264  0.20876120  0.40087148  1
  Pd  Pd191  1  0.80676148  0.20837025  0.59004257  1
  Pd  Pd192  1  0.40300560  0.79360950  0.60192893  1
  Pd  Pd193  1  0.79243642  0.00933822  0.20059851  1
  Pd  Pd194  1  0.79921537  0.79977959  0.00821731  1
  Pd  Pd195  1  0.80174349  -0.00137288  0.39687535  1
  Pd  Pd196  1  0.81045252  0.60312282  0.59286454  1
  Pd  Pd197  1  0.60297239  0.60054422  0.40775390  1
  Pd  Pd198  1  0.61478153  -0.00142511  0.80229894  1
  Pd  Pd199  1  0.59994794  0.60708836  -0.00811971  1
  Rh  Rh200  1  0.79979570  0.59661266  0.40117250  1
  Rh  Rh201  1  0.39718882  0.79761128  0.39314201  1
  Rh  Rh202  1  0.19609457  0.41024219  0.39917973  1
  Rh  Rh203  1  0.60118129  0.19849356  0.40670639  1
  Rh  Rh204  1  0.79624144  0.80336257  0.80337078  1
  Rh  Rh205  1  0.60115825  0.39872720  0.39418590  1
  Rh  Rh206  1  0.40470998  0.39713342  0.39793621  1
  Rh  Rh207  1  0.59526476  0.80652370  -0.00662849  1
  Rh  Rh208  1  0.38947272  0.59931840  0.40476780  1
  Rh  Rh209  1  0.19501675  0.59941457  0.79368295  1
  Rh  Rh210  1  0.39730502  0.20774275  0.20489184  1
  Rh  Rh211  1  0.79959353  0.79417882  0.59407564  1
  Rh  Rh212  1  -0.00954055  0.19954449  0.39964747  1
  Rh  Rh213  1  0.79133111  0.40459177  0.20252385  1
  Rh  Rh214  1  0.59914705  0.20179261  0.20709259  1
  Rh  Rh215  1  0.60056982  0.00000435  0.40508598  1
  Rh  Rh216  1  0.19212811  -0.00519105  -0.00372825  1
  Rh  Rh217  1  -0.00471612  0.39784301  0.59731887  1
  Rh  Rh218  1  0.59401111  0.80476808  0.20251878  1
  Rh  Rh219  1  0.80428046  0.39893217  0.59216907  1
  Rh  Rh220  1  0.40518293  0.79279361  0.79874600  1
  Rh  Rh221  1  0.39433266  0.00684756  0.80885308  1
  Rh  Rh222  1  0.40771100  0.40187027  0.80437284  1
  Rh  Rh223  1  -0.00899695  0.79796396  0.60557331  1
  Rh  Rh224  1  0.60554864  0.79148759  0.40838118  1
  Rh  Rh225  1  0.80400869  0.19498791  -0.00581143  1
  Rh  Rh226  1  0.19434443  0.40175977  0.20701723  1
  Rh  Rh227  1  0.00612114  0.59754473  0.20459903  1
  Rh  Rh228  1  0.40393754  -0.00731774  0.20210596  1
  Rh  Rh229  1  -0.00795349  -0.01056099  0.79938223  1
  Rh  Rh230  1  0.19262964  0.39888620  0.79576906  1
  Rh  Rh231  1  0.60337714  0.59322804  0.20531103  1
  Rh  Rh232  1  0.79573253  0.39867111  0.40195221  1
  Rh  Rh233  1  0.39231256  0.20195263  0.59040466  1
  Rh  Rh234  1  0.39704642  0.20697681  -0.00289193  1
  Rh  Rh235  1  0.39913404  0.40005874  0.59744224  1
  Rh  Rh236  1  0.79769579  0.60422780  0.19170231  1
  Rh  Rh237  1  0.21065701  0.40687349  -0.00508018  1
  Rh  Rh238  1  0.80163535  -0.00630071  0.60267595  1
  Rh  Rh239  1  0.20408564  0.20657730  0.40348334  1
  Rh  Rh240  1  0.00207731  0.79937264  0.79843432  1
  Rh  Rh241  1  0.20096913  -0.00634097  0.40656416  1
  Rh  Rh242  1  0.19738088  0.39815907  0.60161662  1
  Rh  Rh243  1  0.20382586  0.79349939  0.79744405  1
  Rh  Rh244  1  -0.00194540  0.40696061  0.40505188  1
  Rh  Rh245  1  0.20094441  0.79699931  0.39806857  1
  Rh  Rh246  1  0.40552454  0.60567499  0.80789530  1
  Rh  Rh247  1  -0.00654418  0.59339529  -0.00345858  1
  Rh  Rh248  1  0.00136252  0.00456706  0.20052633  1
  Rh  Rh249  1  0.80601557  0.79589953  0.39063485  1
