# generated using pymatgen
data_ZrScNbPdRh
_symmetry_space_group_name_H-M   'P 1'
_cell_length_a   16.56232246
_cell_length_b   16.56248730
_cell_length_c   16.55920365
_cell_angle_alpha   90.00363093
_cell_angle_beta   89.99992720
_cell_angle_gamma   89.99130162
_symmetry_Int_Tables_number   1
_chemical_formula_structural   ZrScNbPdRh
_chemical_formula_sum   'Zr50 Sc50 Nb50 Pd50 Rh50'
_cell_volume   4542.40900079
_cell_formula_units_Z   50
loop_
 _symmetry_equiv_pos_site_id
 _symmetry_equiv_pos_as_xyz
  1  'x, y, z'
loop_
 _atom_site_type_symbol
 _atom_site_label
 _atom_site_symmetry_multiplicity
 _atom_site_fract_x
 _atom_site_fract_y
 _atom_site_fract_z
 _atom_site_occupancy
  Zr  Zr0  1  0.29643332  0.10083394  0.50167409  1
  Zr  Zr1  1  0.30341158  0.29420779  0.30198455  1
  Zr  Zr2  1  0.49673105  0.29632681  0.30318750  1
  Zr  Zr3  1  0.30542471  0.89684271  0.69870535  1
  Zr  Zr4  1  0.90042704  0.69948378  0.49434306  1
  Zr  Zr5  1  0.50642836  0.69692549  0.50263628  1
  Zr  Zr6  1  0.50150538  0.09997612  0.29876787  1
  Zr  Zr7  1  0.10259080  0.10185496  0.09858934  1
  Zr  Zr8  1  0.11104525  0.50165884  0.69287512  1
  Zr  Zr9  1  0.49974001  0.70042500  0.90115719  1
  Zr  Zr10  1  0.29127666  0.50867739  0.90006236  1
  Zr  Zr11  1  0.29788966  0.90351847  0.50436847  1
  Zr  Zr12  1  0.89598057  0.10111950  0.30785384  1
  Zr  Zr13  1  0.69519975  0.30514098  0.49856638  1
  Zr  Zr14  1  0.29970476  0.89167456  0.30486161  1
  Zr  Zr15  1  0.30341069  0.30351074  0.69285457  1
  Zr  Zr16  1  0.30010397  0.71392452  0.90059063  1
  Zr  Zr17  1  0.70031228  0.90815568  0.09953882  1
  Zr  Zr18  1  0.89810727  0.09092083  0.89601517  1
  Zr  Zr19  1  0.89637878  0.90232268  0.70499499  1
  Zr  Zr20  1  0.70989492  0.50056669  0.10463623  1
  Zr  Zr21  1  0.89994357  0.90001940  0.30450345  1
  Zr  Zr22  1  0.90101375  0.30131246  0.30219985  1
  Zr  Zr23  1  0.69865735  0.09815606  0.91652688  1
  Zr  Zr24  1  0.10388651  0.89621256  0.90116275  1
  Zr  Zr25  1  0.50728214  0.70739309  0.69744582  1
  Zr  Zr26  1  0.49975724  0.69943839  0.29750353  1
  Zr  Zr27  1  0.49557526  0.29364069  0.89602611  1
  Zr  Zr28  1  0.29988621  0.70843201  0.50331995  1
  Zr  Zr29  1  0.29615271  0.30022168  0.10416963  1
  Zr  Zr30  1  0.88036675  0.09929877  0.10212165  1
  Zr  Zr31  1  0.09922007  0.09625178  0.31114339  1
  Zr  Zr32  1  0.47656008  0.89861736  0.89400676  1
  Zr  Zr33  1  0.51351978  0.49907965  0.69945434  1
  Zr  Zr34  1  0.90080600  0.89389382  0.89225702  1
  Zr  Zr35  1  0.49305928  0.90247083  0.50597396  1
  Zr  Zr36  1  0.09832994  0.89181998  0.29852442  1
  Zr  Zr37  1  0.70441404  0.89625455  0.70059695  1
  Zr  Zr38  1  0.09182878  0.50273796  0.89456152  1
  Zr  Zr39  1  0.09631896  0.30227424  0.09391666  1
  Zr  Zr40  1  0.89812814  0.89685619  0.49958778  1
  Zr  Zr41  1  0.49601015  0.89839609  0.30265276  1
  Zr  Zr42  1  0.69774027  0.10438865  0.49612534  1
  Zr  Zr43  1  0.50830269  0.50521893  0.30346070  1
  Zr  Zr44  1  0.69320959  0.70640103  0.09802656  1
  Zr  Zr45  1  0.69727656  0.50274902  0.89834371  1
  Zr  Zr46  1  0.29808457  0.69957040  0.09663131  1
  Zr  Zr47  1  0.49270677  0.10266105  0.69345949  1
  Zr  Zr48  1  0.89025650  0.50157929  0.29661952  1
  Zr  Zr49  1  0.09882940  0.50013283  0.08997538  1
  Sc  Sc50  1  0.90146571  0.70559291  0.30801176  1
  Sc  Sc51  1  0.10517173  0.89020417  0.10384411  1
  Sc  Sc52  1  0.29522327  0.28905801  0.89423338  1
  Sc  Sc53  1  0.70100684  0.30084158  0.90555456  1
  Sc  Sc54  1  0.70722093  0.29842024  0.30593705  1
  Sc  Sc55  1  0.70027328  0.49633546  0.49420999  1
  Sc  Sc56  1  0.69716992  0.30579965  0.68846502  1
  Sc  Sc57  1  0.69485712  0.70244721  0.89873070  1
  Sc  Sc58  1  0.50984466  0.50709352  0.89953607  1
  Sc  Sc59  1  0.11035034  0.30065393  0.49562676  1
  Sc  Sc60  1  0.30091252  0.29499194  0.50430957  1
  Sc  Sc61  1  0.90029381  0.71270549  0.70132392  1
  Sc  Sc62  1  0.89907646  0.30975777  0.09927802  1
  Sc  Sc63  1  0.10429733  0.09609315  0.49896492  1
  Sc  Sc64  1  0.91304380  0.30150767  0.90123241  1
  Sc  Sc65  1  0.70350443  0.90078842  0.50455582  1
  Sc  Sc66  1  0.29706949  0.50071858  0.09732396  1
  Sc  Sc67  1  0.30068726  0.09767881  0.30182697  1
  Sc  Sc68  1  0.29912990  0.90100538  0.09464520  1
  Sc  Sc69  1  0.10001332  0.69625430  0.90373240  1
  Sc  Sc70  1  0.50220299  0.70374285  0.09937404  1
  Sc  Sc71  1  0.30237269  0.49094175  0.29216891  1
  Sc  Sc72  1  0.88297020  0.30605065  0.50254822  1
  Sc  Sc73  1  0.09539310  0.49479290  0.30050143  1
  Sc  Sc74  1  0.09960083  0.29955150  0.71143299  1
  Sc  Sc75  1  0.29072540  0.70520280  0.69745806  1
  Sc  Sc76  1  0.29838677  0.09939150  0.10075457  1
  Sc  Sc77  1  0.10238712  0.11085744  0.89865641  1
  Sc  Sc78  1  0.51462251  0.49778485  0.50081411  1
  Sc  Sc79  1  0.49926233  0.28584436  0.10552883  1
  Sc  Sc80  1  0.70252638  0.09318018  0.69457962  1
  Sc  Sc81  1  0.89410341  0.89346866  0.10316780  1
  Sc  Sc82  1  0.70287014  0.89605656  0.29817491  1
  Sc  Sc83  1  0.70032237  0.69145871  0.29901297  1
  Sc  Sc84  1  0.50218229  0.89939291  0.10576651  1
  Sc  Sc85  1  0.49917118  0.51352007  0.10389202  1
  Sc  Sc86  1  0.69675974  0.70659340  0.69968785  1
  Sc  Sc87  1  0.10018620  0.69720981  0.69697613  1
  Sc  Sc88  1  0.30718309  0.10119405  0.90266928  1
  Sc  Sc89  1  0.29635175  0.10737799  0.69596232  1
  Sc  Sc90  1  0.91603790  0.49220260  0.69290658  1
  Sc  Sc91  1  0.70474411  0.10189634  0.29196387  1
  Sc  Sc92  1  0.09824853  0.09569040  0.70163156  1
  Sc  Sc93  1  0.09947498  0.90552452  0.49767363  1
  Sc  Sc94  1  0.10376173  0.30082196  0.29918712  1
  Sc  Sc95  1  0.70772557  0.90012557  0.89962129  1
  Sc  Sc96  1  0.90423074  0.70557662  0.09680312  1
  Sc  Sc97  1  0.09469973  0.90037378  0.69712999  1
  Sc  Sc98  1  0.90161203  0.08945830  0.70343245  1
  Sc  Sc99  1  0.28568573  0.48686566  0.51512488  1
  Nb  Nb100  1  0.10240748  0.29594926  0.90326593  1
  Nb  Nb101  1  0.50052324  0.10225748  0.89784368  1
  Nb  Nb102  1  0.90351539  0.10235739  0.49345401  1
  Nb  Nb103  1  0.09136925  0.50646551  0.50371820  1
  Nb  Nb104  1  0.29752627  0.70105660  0.30670677  1
  Nb  Nb105  1  0.09935848  0.70157896  0.10837609  1
  Nb  Nb106  1  0.90570214  0.69073439  0.89609738  1
  Nb  Nb107  1  0.89428261  0.29844176  0.69697355  1
  Nb  Nb108  1  0.49558762  0.30266330  0.69469112  1
  Nb  Nb109  1  0.09436844  0.68535802  0.49286558  1
  Nb  Nb110  1  0.69351706  0.10655828  0.10013753  1
  Nb  Nb111  1  0.49847163  0.10556059  0.49507514  1
  Nb  Nb112  1  0.09932508  0.70291838  0.29902600  1
  Nb  Nb113  1  0.69466490  0.49674513  0.29922380  1
  Nb  Nb114  1  0.50004932  0.29910698  0.50457917  1
  Nb  Nb115  1  0.90463095  0.50418675  0.49892694  1
  Nb  Nb116  1  0.70368075  0.50229251  0.70154707  1
  Nb  Nb117  1  0.90315987  0.50448639  0.90237753  1
  Nb  Nb118  1  0.90812338  0.49890519  0.09714294  1
  Nb  Nb119  1  0.49947293  0.90199869  0.69853989  1
  Nb  Nb120  1  0.52274247  0.09968897  0.09341903  1
  Nb  Nb121  1  0.69665741  0.28715316  0.10188854  1
  Nb  Nb122  1  0.30261951  0.49886855  0.69930445  1
  Nb  Nb123  1  0.70019454  0.70304203  0.50505988  1
  Nb  Nb124  1  0.29632803  0.89799323  0.89774841  1
  Nb  Nb125  1  0.60560327  0.39758400  0.19834118  1
  Nb  Nb126  1  0.59997117  0.19531262  0.79893584  1
  Nb  Nb127  1  0.39893457  0.59868173  0.79280983  1
  Nb  Nb128  1  -0.00113361  -0.00125849  0.00447224  1
  Nb  Nb129  1  -0.00252195  0.19415119  0.20052410  1
  Nb  Nb130  1  -0.00864501  0.20141848  0.59718657  1
  Nb  Nb131  1  0.39115902  0.59482161  0.40660070  1
  Nb  Nb132  1  -0.00452975  0.40707296  0.40772814  1
  Nb  Nb133  1  0.59808036  0.39653601  0.01017974  1
  Nb  Nb134  1  0.39800296  0.59463241  0.60244619  1
  Nb  Nb135  1  0.79883196  0.20507209  0.79725444  1
  Nb  Nb136  1  0.59029731  0.00251374  0.80102736  1
  Nb  Nb137  1  0.40094251  0.40567698  0.79895314  1
  Nb  Nb138  1  0.80611698  0.59427132  0.79811425  1
  Nb  Nb139  1  0.80484185  0.40207223  0.79708077  1
  Nb  Nb140  1  0.80090057  0.59755520  0.60174857  1
  Nb  Nb141  1  0.40356946  0.40109423  0.40594137  1
  Nb  Nb142  1  0.19475995  0.60733366  0.20592169  1
  Nb  Nb143  1  0.40383467  0.39871093  -0.00472035  1
  Nb  Nb144  1  0.00249258  0.60149537  0.19842300  1
  Nb  Nb145  1  0.59947943  0.79756003  0.40424281  1
  Nb  Nb146  1  0.20645492  -0.00559488  0.80347592  1
  Nb  Nb147  1  0.80862921  0.59733227  -0.00341853  1
  Nb  Nb148  1  0.19917886  0.60031060  0.39918075  1
  Nb  Nb149  1  -0.00164325  0.00350251  0.19841187  1
  Pd  Pd150  1  0.79931287  0.79351310  0.20468824  1
  Pd  Pd151  1  0.60329835  0.20151879  0.39489671  1
  Pd  Pd152  1  0.58982200  -0.01359599  -0.01030013  1
  Pd  Pd153  1  0.40483561  0.00420705  0.00912860  1
  Pd  Pd154  1  -0.00238486  0.00598313  0.59497696  1
  Pd  Pd155  1  0.80886457  0.61013098  0.19249264  1
  Pd  Pd156  1  0.19536076  0.00444486  -0.00658706  1
  Pd  Pd157  1  0.79252361  0.59857228  0.40569860  1
  Pd  Pd158  1  0.59310227  0.81168443  -0.00711955  1
  Pd  Pd159  1  0.40299699  0.18649277  0.19257667  1
  Pd  Pd160  1  0.39807955  0.19962116  0.00803704  1
  Pd  Pd161  1  -0.00576015  0.19846322  0.79270133  1
  Pd  Pd162  1  0.79918171  0.40025967  -0.00487428  1
  Pd  Pd163  1  0.20198623  0.60823310  0.79844208  1
  Pd  Pd164  1  0.80179139  0.79224725  -0.00697537  1
  Pd  Pd165  1  0.79239958  -0.00087988  0.40184785  1
  Pd  Pd166  1  0.20611624  0.39434809  -0.00927236  1
  Pd  Pd167  1  0.20114343  0.40703831  0.39984520  1
  Pd  Pd168  1  0.00238376  0.80230180  0.00124121  1
  Pd  Pd169  1  0.19669546  -0.00449547  0.20395295  1
  Pd  Pd170  1  0.20486248  0.39619604  0.80219119  1
  Pd  Pd171  1  0.00404771  0.79723677  0.59371346  1
  Pd  Pd172  1  -0.00154982  0.39830753  0.80031244  1
  Pd  Pd173  1  0.39645431  0.79853426  0.19517411  1
  Pd  Pd174  1  0.59860907  0.81195949  0.80779791  1
  Pd  Pd175  1  0.80584398  0.00522485  0.59486069  1
  Pd  Pd176  1  -0.00939407  0.19412896  0.00672485  1
  Pd  Pd177  1  0.79601180  0.39247095  0.19917916  1
  Pd  Pd178  1  0.00779553  0.79457035  0.79895322  1
  Pd  Pd179  1  0.39392916  0.00814951  0.79394692  1
  Pd  Pd180  1  0.40283307  0.00508457  0.19137949  1
  Pd  Pd181  1  0.19360207  0.40573788  0.19981210  1
  Pd  Pd182  1  0.18600213  0.20252825  0.60496246  1
  Pd  Pd183  1  0.60330518  0.38851879  0.80313957  1
  Pd  Pd184  1  0.39049383  0.60194074  0.20652594  1
  Pd  Pd185  1  0.19370471  0.19860128  0.20469733  1
  Pd  Pd186  1  0.00095672  0.21299411  0.40716558  1
  Pd  Pd187  1  0.19034707  0.79738157  0.40928008  1
  Pd  Pd188  1  0.41167457  0.40180765  0.19481182  1
  Pd  Pd189  1  0.80332608  0.19124663  0.60282101  1
  Pd  Pd190  1  0.80843433  0.21018111  -0.00739313  1
  Pd  Pd191  1  0.00651276  0.38645537  0.59188633  1
  Pd  Pd192  1  0.40196735  0.59633943  -0.00694884  1
  Pd  Pd193  1  -0.00926901  0.60917791  0.60922797  1
  Pd  Pd194  1  0.39707304  0.00494555  0.40177259  1
  Pd  Pd195  1  0.60398145  -0.00053793  0.20640777  1
  Pd  Pd196  1  0.59846741  -0.00087062  0.60240344  1
  Pd  Pd197  1  0.59877593  0.20036763  0.60469331  1
  Pd  Pd198  1  0.60414163  -0.00648763  0.39822347  1
  Pd  Pd199  1  0.18540346  0.80091512  0.59557264  1
  Rh  Rh200  1  0.40260767  0.79499116  0.60457494  1
  Rh  Rh201  1  0.79976464  0.78969856  0.80428030  1
  Rh  Rh202  1  0.59802334  0.20703618  -0.00635363  1
  Rh  Rh203  1  0.40059262  0.80339263  0.00711670  1
  Rh  Rh204  1  0.19470419  0.80504345  0.79611773  1
  Rh  Rh205  1  0.01410182  0.00024528  0.81124171  1
  Rh  Rh206  1  0.78928371  0.79735882  0.40154029  1
  Rh  Rh207  1  0.80370861  0.20689739  0.19992980  1
  Rh  Rh208  1  0.18980625  0.39149678  0.60458238  1
  Rh  Rh209  1  0.00400035  0.80203516  0.40499613  1
  Rh  Rh210  1  0.20088103  0.19378679  0.79868768  1
  Rh  Rh211  1  0.59531617  0.39356881  0.39253527  1
  Rh  Rh212  1  0.00363274  0.39918123  -0.00835243  1
  Rh  Rh213  1  0.39739426  0.00672067  0.59777618  1
  Rh  Rh214  1  0.19830847  0.79660418  0.00359492  1
  Rh  Rh215  1  0.78536168  0.00941659  0.80337022  1
  Rh  Rh216  1  0.80305424  0.40691025  0.40186326  1
  Rh  Rh217  1  0.60336343  0.40116036  0.59826602  1
  Rh  Rh218  1  0.60268311  0.61011886  0.79534877  1
  Rh  Rh219  1  0.60907011  0.59598749  0.00901919  1
  Rh  Rh220  1  0.60584415  0.59832188  0.19527616  1
  Rh  Rh221  1  0.79611447  0.19929587  0.40438232  1
  Rh  Rh222  1  0.41053816  0.40572204  0.59812273  1
  Rh  Rh223  1  -0.00042698  -0.00573276  0.39877710  1
  Rh  Rh224  1  0.19390122  0.60772240  0.00453801  1
  Rh  Rh225  1  0.40198459  0.20393406  0.79183920  1
  Rh  Rh226  1  -0.00134360  0.59934251  0.79103132  1
  Rh  Rh227  1  0.20516308  0.19777996  0.39806194  1
  Rh  Rh228  1  0.20520840  -0.00471800  0.39727739  1
  Rh  Rh229  1  0.61005688  0.59646491  0.60018446  1
  Rh  Rh230  1  0.79815490  0.41271976  0.60338627  1
  Rh  Rh231  1  0.60284692  0.20268059  0.20915252  1
  Rh  Rh232  1  0.20988900  0.79655354  0.19839196  1
  Rh  Rh233  1  0.39855405  0.79041081  0.79075563  1
  Rh  Rh234  1  -0.00103584  0.40086533  0.20783669  1
  Rh  Rh235  1  0.40245059  0.19798766  0.59289404  1
  Rh  Rh236  1  0.20477686  0.20293119  0.00007241  1
  Rh  Rh237  1  0.79755906  -0.00233714  0.20001876  1
  Rh  Rh238  1  0.40927599  0.79350600  0.40201546  1
  Rh  Rh239  1  0.80653725  -0.01004685  0.00103179  1
  Rh  Rh240  1  0.20117295  -0.00276950  0.60960394  1
  Rh  Rh241  1  0.60466279  0.60749868  0.40195912  1
  Rh  Rh242  1  0.20552626  0.60317368  0.59277356  1
  Rh  Rh243  1  0.80239721  0.79435229  0.59891961  1
  Rh  Rh244  1  -0.00733889  0.79952047  0.20360877  1
  Rh  Rh245  1  0.60171768  0.81075714  0.59428445  1
  Rh  Rh246  1  0.39811434  0.20304553  0.40767665  1
  Rh  Rh247  1  0.00449933  0.59296610  0.38789976  1
  Rh  Rh248  1  0.60164414  0.80069649  0.20859515  1
  Rh  Rh249  1  -0.00161699  0.60464046  0.00745027  1
