# generated using pymatgen
data_ZrScNbPdRh
_symmetry_space_group_name_H-M   'P 1'
_cell_length_a   16.55239140
_cell_length_b   16.55307273
_cell_length_c   16.55181298
_cell_angle_alpha   90.02811809
_cell_angle_beta   89.96603396
_cell_angle_gamma   90.02028027
_symmetry_Int_Tables_number   1
_chemical_formula_structural   ZrScNbPdRh
_chemical_formula_sum   'Zr50 Sc50 Nb50 Pd50 Rh50'
_cell_volume   4535.07825226
_cell_formula_units_Z   50
loop_
 _symmetry_equiv_pos_site_id
 _symmetry_equiv_pos_as_xyz
  1  'x, y, z'
loop_
 _atom_site_type_symbol
 _atom_site_label
 _atom_site_symmetry_multiplicity
 _atom_site_fract_x
 _atom_site_fract_y
 _atom_site_fract_z
 _atom_site_occupancy
  Zr  Zr0  1  0.70615351  0.10625084  0.09193866  1
  Zr  Zr1  1  0.70149413  0.30616299  0.29979409  1
  Zr  Zr2  1  0.30600773  0.10597281  0.90553367  1
  Zr  Zr3  1  0.50990719  0.89691924  0.49481013  1
  Zr  Zr4  1  0.70426853  0.30123234  0.49820606  1
  Zr  Zr5  1  0.69395015  0.90029633  0.49876870  1
  Zr  Zr6  1  0.89264267  0.10026488  0.90154003  1
  Zr  Zr7  1  0.09764345  0.70553457  0.70627899  1
  Zr  Zr8  1  0.29383899  0.49549196  0.30411641  1
  Zr  Zr9  1  0.31670139  0.30377792  0.70492100  1
  Zr  Zr10  1  0.30169503  0.69983485  0.90285187  1
  Zr  Zr11  1  0.89857279  0.51356841  0.30385846  1
  Zr  Zr12  1  0.29459020  0.89690262  0.11253679  1
  Zr  Zr13  1  0.89944626  0.69911778  0.28732460  1
  Zr  Zr14  1  0.49596673  0.89621262  0.10933773  1
  Zr  Zr15  1  0.70407866  0.10526069  0.70453281  1
  Zr  Zr16  1  0.91476214  0.90166793  0.69685063  1
  Zr  Zr17  1  0.50489797  0.69076518  0.90130897  1
  Zr  Zr18  1  0.10138352  0.50456368  0.71254875  1
  Zr  Zr19  1  0.70882393  0.29647965  0.69207995  1
  Zr  Zr20  1  0.70247957  0.69528169  0.30094976  1
  Zr  Zr21  1  0.89590318  0.10868537  0.70541034  1
  Zr  Zr22  1  0.29840934  0.69058549  0.10200198  1
  Zr  Zr23  1  0.30008788  0.69308276  0.49199858  1
  Zr  Zr24  1  0.69692727  0.48656546  0.09010621  1
  Zr  Zr25  1  0.10069290  0.68912628  0.90514682  1
  Zr  Zr26  1  0.90098148  0.88567243  0.09966863  1
  Zr  Zr27  1  0.48830786  0.48954678  0.69476376  1
  Zr  Zr28  1  0.49846394  0.69280711  0.09856492  1
  Zr  Zr29  1  0.90269939  0.89859840  0.49790684  1
  Zr  Zr30  1  0.69820405  0.09762819  0.90036507  1
  Zr  Zr31  1  0.30440757  0.69713056  0.70570232  1
  Zr  Zr32  1  0.10191650  0.30337524  0.70485790  1
  Zr  Zr33  1  0.50574323  0.90752168  0.89721712  1
  Zr  Zr34  1  0.89645130  0.70498870  0.90373221  1
  Zr  Zr35  1  0.10224918  0.10450420  0.90603043  1
  Zr  Zr36  1  0.30568355  0.89831295  0.70284628  1
  Zr  Zr37  1  0.29332748  0.09758228  0.30596476  1
  Zr  Zr38  1  0.70275422  0.89418844  0.89511450  1
  Zr  Zr39  1  0.71455656  0.09997606  0.30049916  1
  Zr  Zr40  1  0.10171136  0.89692929  0.10559240  1
  Zr  Zr41  1  0.89610692  0.29855285  0.09661779  1
  Zr  Zr42  1  0.09922630  0.30380655  0.49376315  1
  Zr  Zr43  1  0.69989764  0.30127804  0.10285810  1
  Zr  Zr44  1  0.69332850  0.30958451  0.91215950  1
  Zr  Zr45  1  0.10051955  0.30199864  0.10272830  1
  Zr  Zr46  1  0.10090017  0.30581548  0.90239614  1
  Zr  Zr47  1  0.10864311  0.10383560  0.10717629  1
  Zr  Zr48  1  0.50241628  0.10474383  0.90997656  1
  Zr  Zr49  1  0.70207566  0.70086577  0.70854574  1
  Sc  Sc50  1  0.09850024  0.89286744  0.90232426  1
  Sc  Sc51  1  0.51128241  0.49631995  0.90240879  1
  Sc  Sc52  1  0.30288088  0.90158190  0.90400711  1
  Sc  Sc53  1  0.29385733  0.29115722  0.11015113  1
  Sc  Sc54  1  0.89721863  0.50552009  0.49895828  1
  Sc  Sc55  1  0.09696592  0.69335134  0.29565980  1
  Sc  Sc56  1  0.89962812  0.29607337  0.30160043  1
  Sc  Sc57  1  0.48719390  0.50005624  0.49577578  1
  Sc  Sc58  1  0.89652828  0.70192160  0.69820111  1
  Sc  Sc59  1  0.89515443  0.51019474  0.69618747  1
  Sc  Sc60  1  0.29983728  0.90106612  0.49364088  1
  Sc  Sc61  1  0.70084168  0.69303645  0.10630372  1
  Sc  Sc62  1  0.49419868  0.09882866  0.70038966  1
  Sc  Sc63  1  0.70760675  0.49951367  0.49841426  1
  Sc  Sc64  1  0.50435622  0.70113799  0.50240117  1
  Sc  Sc65  1  0.48963752  0.30348789  0.30169486  1
  Sc  Sc66  1  0.09936670  0.49671509  0.30061554  1
  Sc  Sc67  1  0.30056799  0.09904008  0.10550123  1
  Sc  Sc68  1  0.30180872  0.29837027  0.30010380  1
  Sc  Sc69  1  0.90331373  0.29883678  0.89935228  1
  Sc  Sc70  1  0.10606576  0.89458791  0.29823664  1
  Sc  Sc71  1  0.70072551  0.10366595  0.50401365  1
  Sc  Sc72  1  0.50696170  0.70424810  0.28767143  1
  Sc  Sc73  1  0.30275018  0.29479065  0.49705327  1
  Sc  Sc74  1  0.50606021  0.69782118  0.69504908  1
  Sc  Sc75  1  0.91024198  0.49972972  0.90493609  1
  Sc  Sc76  1  0.09720179  0.69875551  0.10294038  1
  Sc  Sc77  1  0.09694749  0.69724357  0.48787788  1
  Sc  Sc78  1  0.70514958  0.49708919  0.29511750  1
  Sc  Sc79  1  0.49683356  0.49088812  0.29814884  1
  Sc  Sc80  1  0.10261564  0.30240037  0.29766825  1
  Sc  Sc81  1  0.29691774  0.51063515  0.88960110  1
  Sc  Sc82  1  0.89480878  0.89572107  0.90530605  1
  Sc  Sc83  1  0.90697479  0.10255392  0.48325805  1
  Sc  Sc84  1  0.09267055  0.89942717  0.49601621  1
  Sc  Sc85  1  0.90662847  0.49918063  0.10079851  1
  Sc  Sc86  1  0.48497965  0.10125293  0.30429318  1
  Sc  Sc87  1  0.69946166  0.51034652  0.69349592  1
  Sc  Sc88  1  0.49911763  0.30083200  0.10319572  1
  Sc  Sc89  1  0.50292579  0.89892943  0.69950365  1
  Sc  Sc90  1  0.10109225  0.10410717  0.48957191  1
  Sc  Sc91  1  0.69578247  0.89674758  0.70411100  1
  Sc  Sc92  1  0.69537040  0.69968528  0.51143475  1
  Sc  Sc93  1  0.49907174  0.50325793  0.09742852  1
  Sc  Sc94  1  0.89858513  0.69524343  0.49470524  1
  Sc  Sc95  1  0.70740741  0.90044446  0.09410753  1
  Sc  Sc96  1  0.49479717  0.09802146  0.50288794  1
  Sc  Sc97  1  0.29096598  0.69406344  0.29545053  1
  Sc  Sc98  1  0.09140890  0.09964118  0.70000646  1
  Sc  Sc99  1  0.88929274  0.30703499  0.49681084  1
  Nb  Nb100  1  0.30372302  0.29750355  0.90049689  1
  Nb  Nb101  1  0.89628488  0.09970212  0.10349268  1
  Nb  Nb102  1  0.90008029  0.69768084  0.09962412  1
  Nb  Nb103  1  0.29967664  0.50031940  0.69066659  1
  Nb  Nb104  1  0.10231909  0.50070348  0.09601238  1
  Nb  Nb105  1  0.70564892  0.50318213  0.89939892  1
  Nb  Nb106  1  0.29589068  0.49956014  0.49846542  1
  Nb  Nb107  1  0.89369988  0.90579161  0.29923324  1
  Nb  Nb108  1  0.50837940  0.10122848  0.10265562  1
  Nb  Nb109  1  0.69217580  0.90064814  0.30680956  1
  Nb  Nb110  1  0.90271720  0.09751193  0.29662751  1
  Nb  Nb111  1  0.89489932  0.30171800  0.69642380  1
  Nb  Nb112  1  0.08934905  0.10106516  0.30368901  1
  Nb  Nb113  1  0.29764694  0.10178156  0.69472173  1
  Nb  Nb114  1  0.70112100  0.69512870  0.89466117  1
  Nb  Nb115  1  0.29478363  0.50051004  0.10059236  1
  Nb  Nb116  1  0.30718998  0.90038584  0.29519619  1
  Nb  Nb117  1  0.49033021  0.30202329  0.88950774  1
  Nb  Nb118  1  0.10366983  0.49896448  0.50043779  1
  Nb  Nb119  1  0.10338674  0.90309920  0.69573963  1
  Nb  Nb120  1  0.50144705  0.30286806  0.70351460  1
  Nb  Nb121  1  0.10056665  0.49992518  0.90749316  1
  Nb  Nb122  1  0.29667201  0.10099019  0.50485205  1
  Nb  Nb123  1  0.50053418  0.30100337  0.49821920  1
  Nb  Nb124  1  0.50363754  0.89733192  0.30057359  1
  Nb  Nb125  1  0.60041274  0.59791461  0.39813724  1
  Nb  Nb126  1  0.59855261  0.20510270  0.39798850  1
  Nb  Nb127  1  0.79914451  0.60033952  -0.00300139  1
  Nb  Nb128  1  0.20111510  0.59843597  0.59986300  1
  Nb  Nb129  1  -0.00290321  0.00402275  0.01095443  1
  Nb  Nb130  1  0.59462820  0.39295078  0.59819830  1
  Nb  Nb131  1  -0.00320066  0.21123768  0.59992462  1
  Nb  Nb132  1  0.60104713  0.00237165  0.20490306  1
  Nb  Nb133  1  0.20098180  0.00063889  0.60245646  1
  Nb  Nb134  1  0.20142834  0.00396593  0.79410086  1
  Nb  Nb135  1  0.20764671  0.19758592  0.79868587  1
  Nb  Nb136  1  0.00318817  0.40151285  0.60223514  1
  Nb  Nb137  1  0.20365573  0.40389373  -0.00130519  1
  Nb  Nb138  1  0.19995390  0.79925086  0.60147016  1
  Nb  Nb139  1  0.59532126  0.20932665  0.80132290  1
  Nb  Nb140  1  0.59994985  0.19413182  0.20490170  1
  Nb  Nb141  1  0.20157538  0.40523244  0.60072514  1
  Nb  Nb142  1  0.59923236  0.79408040  -0.00315197  1
  Nb  Nb143  1  -0.00632475  0.00203980  0.20184853  1
  Nb  Nb144  1  0.39008169  0.39867395  -0.00457029  1
  Nb  Nb145  1  0.80657352  -0.00052323  0.60095671  1
  Nb  Nb146  1  0.79589798  0.80629167  0.39390299  1
  Nb  Nb147  1  0.40538959  0.79739669  0.00459881  1
  Nb  Nb148  1  0.79802780  0.40308415  0.80077861  1
  Nb  Nb149  1  0.40313917  0.80413590  0.38891007  1
  Pd  Pd150  1  0.40044235  -0.00427823  0.40563256  1
  Pd  Pd151  1  0.80360331  -0.01027689  0.79256146  1
  Pd  Pd152  1  0.39736466  -0.00553643  0.01034716  1
  Pd  Pd153  1  0.79188835  0.80320354  0.20383929  1
  Pd  Pd154  1  -0.00790093  0.60132632  0.80321974  1
  Pd  Pd155  1  0.59775577  0.40471087  0.40582036  1
  Pd  Pd156  1  0.00159444  0.01402921  0.59114936  1
  Pd  Pd157  1  0.60145480  0.58577782  0.20408468  1
  Pd  Pd158  1  -0.00138333  0.20009092  0.20302553  1
  Pd  Pd159  1  0.40990468  0.79886773  0.80788608  1
  Pd  Pd160  1  0.39748771  0.80110953  0.58944334  1
  Pd  Pd161  1  -0.00673514  0.40294690  0.40336793  1
  Pd  Pd162  1  0.19952400  0.80611092  0.80011587  1
  Pd  Pd163  1  0.00702904  0.79018274  0.59306014  1
  Pd  Pd164  1  0.59578832  0.01599459  0.39309296  1
  Pd  Pd165  1  0.39580432  0.40063129  0.19171986  1
  Pd  Pd166  1  0.21029726  0.39832511  0.80266592  1
  Pd  Pd167  1  0.19795183  -0.00355667  -0.00429255  1
  Pd  Pd168  1  0.39979956  0.60432725  0.59701329  1
  Pd  Pd169  1  0.20515593  0.80071797  0.39873327  1
  Pd  Pd170  1  0.40862542  0.59347997  0.80048602  1
  Pd  Pd171  1  0.00519626  -0.00329159  0.81288741  1
  Pd  Pd172  1  -0.00296465  0.19614271  0.00385562  1
  Pd  Pd173  1  0.59193806  0.20211633  0.59918084  1
  Pd  Pd174  1  0.39867782  0.59465977  0.20856309  1
  Pd  Pd175  1  0.60590717  0.00213769  0.60707023  1
  Pd  Pd176  1  0.39666491  -0.00590113  0.59322453  1
  Pd  Pd177  1  0.39873834  0.00606672  0.80089287  1
  Pd  Pd178  1  0.61026160  0.40070740  0.79101726  1
  Pd  Pd179  1  0.40239707  0.20812383  0.01221035  1
  Pd  Pd180  1  0.59525398  0.59099929  0.79249894  1
  Pd  Pd181  1  0.00323927  0.20295887  0.79884973  1
  Pd  Pd182  1  0.81019181  0.40439102  0.20225439  1
  Pd  Pd183  1  0.40465440  0.20254910  0.59650394  1
  Pd  Pd184  1  -0.01179821  0.40493266  0.79532853  1
  Pd  Pd185  1  0.40327659  0.00682484  0.19886650  1
  Pd  Pd186  1  0.60259211  -0.00876803  0.00803789  1
  Pd  Pd187  1  -0.00266279  0.40317078  0.20252802  1
  Pd  Pd188  1  0.20035037  0.20429602  0.39543700  1
  Pd  Pd189  1  0.79960829  -0.00124783  0.40890738  1
  Pd  Pd190  1  -0.00819154  0.79865142  0.38915183  1
  Pd  Pd191  1  0.00504905  0.59971972  0.59607457  1
  Pd  Pd192  1  0.41042057  0.60920097  0.38788930  1
  Pd  Pd193  1  0.79785742  -0.00539611  0.19383914  1
  Pd  Pd194  1  0.20400356  0.79784217  0.00351769  1
  Pd  Pd195  1  0.61177495  0.80634387  0.19221605  1
  Pd  Pd196  1  -0.00262252  0.80243120  0.80646509  1
  Pd  Pd197  1  0.19340062  0.20145815  0.60412906  1
  Pd  Pd198  1  0.19506649  -0.00487658  0.40208163  1
  Pd  Pd199  1  0.79885718  0.80398232  0.59769825  1
  Rh  Rh200  1  0.78781200  0.21554137  0.81367731  1
  Rh  Rh201  1  0.20414857  0.39736745  0.40326180  1
  Rh  Rh202  1  0.81467960  0.18803048  0.58675734  1
  Rh  Rh203  1  0.19309542  0.00551828  0.21347227  1
  Rh  Rh204  1  0.40258812  0.19196994  0.79752612  1
  Rh  Rh205  1  0.39436375  0.59417852  -0.00299800  1
  Rh  Rh206  1  0.59281401  0.21070567  -0.00062078  1
  Rh  Rh207  1  -0.00292735  0.20893554  0.40015048  1
  Rh  Rh208  1  0.00086468  0.80300063  0.20396782  1
  Rh  Rh209  1  0.58355285  0.39541739  0.00403227  1
  Rh  Rh210  1  0.61230886  0.60235769  0.00190138  1
  Rh  Rh211  1  0.19352263  0.59458725  0.39941775  1
  Rh  Rh212  1  0.80022320  0.59093324  0.18558417  1
  Rh  Rh213  1  0.39587550  0.41131916  0.80901909  1
  Rh  Rh214  1  0.20048480  0.79345732  0.20458728  1
  Rh  Rh215  1  0.59568185  0.39557101  0.19741472  1
  Rh  Rh216  1  0.20036763  0.60308880  0.79732246  1
  Rh  Rh217  1  0.79895151  0.60639577  0.59774090  1
  Rh  Rh218  1  0.81076515  0.40607910  -0.00796923  1
  Rh  Rh219  1  0.00479389  -0.00704778  0.38986188  1
  Rh  Rh220  1  0.80052212  0.40952467  0.60832197  1
  Rh  Rh221  1  0.80284066  0.20429782  -0.00417890  1
  Rh  Rh222  1  0.20023181  0.59474071  0.00146170  1
  Rh  Rh223  1  -0.00430702  0.60279445  0.00504200  1
  Rh  Rh224  1  0.78826078  0.78615921  0.00113070  1
  Rh  Rh225  1  0.19278169  0.59291341  0.20101405  1
  Rh  Rh226  1  0.40316145  0.19490792  0.19998007  1
  Rh  Rh227  1  0.40130286  0.19905308  0.40628952  1
  Rh  Rh228  1  0.59947499  0.78635939  0.39797364  1
  Rh  Rh229  1  0.20369269  0.20937087  -0.00235658  1
  Rh  Rh230  1  0.59331085  0.58535034  0.58913890  1
  Rh  Rh231  1  0.59516199  0.79651450  0.80422784  1
  Rh  Rh232  1  0.00305952  0.59752892  0.39815470  1
  Rh  Rh233  1  0.19947981  0.19668699  0.21106616  1
  Rh  Rh234  1  0.39202409  0.79283394  0.20271345  1
  Rh  Rh235  1  0.00532481  0.79870671  0.00144129  1
  Rh  Rh236  1  0.80590336  0.40559563  0.39282360  1
  Rh  Rh237  1  0.79908528  0.20343917  0.20113413  1
  Rh  Rh238  1  0.39234318  0.39623839  0.40207168  1
  Rh  Rh239  1  0.79867076  0.20082308  0.39917302  1
  Rh  Rh240  1  0.80812986  -0.00184996  0.00259937  1
  Rh  Rh241  1  0.80690443  0.59515072  0.80741607  1
  Rh  Rh242  1  0.80645621  0.80335017  0.79383856  1
  Rh  Rh243  1  0.59787140  0.01246602  0.79615585  1
  Rh  Rh244  1  0.00406074  0.59646106  0.19480339  1
  Rh  Rh245  1  0.19975101  0.40230050  0.19504654  1
  Rh  Rh246  1  0.60002289  0.80199896  0.60813084  1
  Rh  Rh247  1  0.39797074  0.39302820  0.58943952  1
  Rh  Rh248  1  0.00540052  0.39898443  0.00436360  1
  Rh  Rh249  1  0.79174947  0.60846213  0.40520006  1
