# generated using pymatgen
data_ZrScNbPdRh
_symmetry_space_group_name_H-M   'P 1'
_cell_length_a   16.56011750
_cell_length_b   16.56548380
_cell_length_c   16.55675019
_cell_angle_alpha   90.02431156
_cell_angle_beta   90.04173059
_cell_angle_gamma   90.00838585
_symmetry_Int_Tables_number   1
_chemical_formula_structural   ZrScNbPdRh
_chemical_formula_sum   'Zr50 Sc50 Nb50 Pd50 Rh50'
_cell_volume   4541.95132054
_cell_formula_units_Z   50
loop_
 _symmetry_equiv_pos_site_id
 _symmetry_equiv_pos_as_xyz
  1  'x, y, z'
loop_
 _atom_site_type_symbol
 _atom_site_label
 _atom_site_symmetry_multiplicity
 _atom_site_fract_x
 _atom_site_fract_y
 _atom_site_fract_z
 _atom_site_occupancy
  Zr  Zr0  1  0.30660821  0.69841529  0.49924642  1
  Zr  Zr1  1  0.30221098  0.69247064  0.29749973  1
  Zr  Zr2  1  0.09897882  0.69591004  0.49990079  1
  Zr  Zr3  1  0.49327790  0.69998068  0.89817573  1
  Zr  Zr4  1  0.30404594  0.10381664  0.69740180  1
  Zr  Zr5  1  0.49612504  0.29918225  0.69486877  1
  Zr  Zr6  1  0.69526099  0.49711243  0.89612209  1
  Zr  Zr7  1  0.29667211  0.90503561  0.50225377  1
  Zr  Zr8  1  0.10062284  0.89933012  0.70353718  1
  Zr  Zr9  1  0.29885157  0.69356694  0.89847023  1
  Zr  Zr10  1  0.70102798  0.09865895  0.89968621  1
  Zr  Zr11  1  0.89599570  0.30344588  0.29948148  1
  Zr  Zr12  1  0.09975545  0.10429260  0.30683442  1
  Zr  Zr13  1  0.50183054  0.30688980  0.29850934  1
  Zr  Zr14  1  0.88913614  0.69534371  0.90301841  1
  Zr  Zr15  1  0.50254215  0.48664401  0.09796366  1
  Zr  Zr16  1  0.50873530  0.09749447  0.69475841  1
  Zr  Zr17  1  0.89233904  0.89721086  0.31156162  1
  Zr  Zr18  1  0.30441328  0.10131871  0.10209011  1
  Zr  Zr19  1  0.90088143  0.90039009  0.68871429  1
  Zr  Zr20  1  0.30559381  0.50155581  0.30023221  1
  Zr  Zr21  1  0.09204831  0.89595111  0.09377510  1
  Zr  Zr22  1  0.90266146  0.49959290  0.51137858  1
  Zr  Zr23  1  0.50173104  0.30349686  0.90970257  1
  Zr  Zr24  1  0.30239322  0.88886718  0.90259429  1
  Zr  Zr25  1  0.89788326  0.09891006  0.69700380  1
  Zr  Zr26  1  0.89961135  0.69034432  0.09275320  1
  Zr  Zr27  1  0.70568873  0.70113579  0.09286581  1
  Zr  Zr28  1  0.69331991  0.89538717  0.29951051  1
  Zr  Zr29  1  0.09986297  0.90025840  0.89838017  1
  Zr  Zr30  1  0.29761407  0.70315681  0.09045375  1
  Zr  Zr31  1  0.49671949  0.09363065  0.29390869  1
  Zr  Zr32  1  0.09924221  0.10691151  0.11484579  1
  Zr  Zr33  1  0.09765479  0.90126850  0.51081197  1
  Zr  Zr34  1  0.49577217  0.49121568  0.69697382  1
  Zr  Zr35  1  0.70142783  0.69384439  0.50126042  1
  Zr  Zr36  1  0.49541139  0.49670905  0.89279015  1
  Zr  Zr37  1  0.09713374  0.51152014  0.29504278  1
  Zr  Zr38  1  0.70025416  0.30420747  0.69913456  1
  Zr  Zr39  1  0.70048078  0.08720274  0.69760986  1
  Zr  Zr40  1  0.31290653  0.50208066  0.49706807  1
  Zr  Zr41  1  0.70241291  0.49340234  0.50335414  1
  Zr  Zr42  1  0.28815581  0.10998463  0.29711257  1
  Zr  Zr43  1  0.69137399  0.10177532  0.10293613  1
  Zr  Zr44  1  0.10054273  0.69982285  0.29516674  1
  Zr  Zr45  1  0.89810811  0.69766302  0.51177147  1
  Zr  Zr46  1  0.70306320  0.69742734  0.89597027  1
  Zr  Zr47  1  0.90368776  0.10616880  0.30380896  1
  Zr  Zr48  1  0.50684146  0.90312966  0.69837620  1
  Zr  Zr49  1  0.69741406  0.89824006  0.09810709  1
  Sc  Sc50  1  0.30084934  0.92526530  0.30185930  1
  Sc  Sc51  1  0.69902406  0.70059789  0.29739022  1
  Sc  Sc52  1  0.88955387  0.50030754  0.90619475  1
  Sc  Sc53  1  0.70009099  0.29834044  0.30257184  1
  Sc  Sc54  1  0.09093829  0.48922051  0.70586616  1
  Sc  Sc55  1  0.30250355  0.30005142  0.30734392  1
  Sc  Sc56  1  0.90021967  0.10091873  0.89785116  1
  Sc  Sc57  1  0.90668856  0.30536236  0.70582193  1
  Sc  Sc58  1  0.91211224  0.90114659  0.90689450  1
  Sc  Sc59  1  0.29979409  0.50369646  0.08776370  1
  Sc  Sc60  1  0.50655900  0.69648180  0.29964063  1
  Sc  Sc61  1  0.50503992  0.10455500  0.09053567  1
  Sc  Sc62  1  0.90349007  0.10286254  0.10473823  1
  Sc  Sc63  1  0.29984055  0.31004734  0.90011193  1
  Sc  Sc64  1  0.50002015  0.29651660  0.49843951  1
  Sc  Sc65  1  0.90342190  0.88852190  0.10211346  1
  Sc  Sc66  1  0.30595348  0.30869956  0.08806593  1
  Sc  Sc67  1  0.50680316  0.70516494  0.69648371  1
  Sc  Sc68  1  0.50595584  0.91565394  0.10462799  1
  Sc  Sc69  1  0.10086428  0.10201653  0.70364059  1
  Sc  Sc70  1  0.30185662  0.30130686  0.69400063  1
  Sc  Sc71  1  0.10544078  0.49914064  0.89805137  1
  Sc  Sc72  1  0.30842370  0.29789022  0.49765949  1
  Sc  Sc73  1  0.09963933  0.70003737  0.90247133  1
  Sc  Sc74  1  0.49901129  0.90141651  0.89370405  1
  Sc  Sc75  1  0.10187421  0.70595120  0.70616239  1
  Sc  Sc76  1  0.30023530  0.70315539  0.70742457  1
  Sc  Sc77  1  0.70826174  0.30122802  0.90531567  1
  Sc  Sc78  1  0.50492678  0.49989375  0.29627151  1
  Sc  Sc79  1  0.90054699  0.29908250  0.50632784  1
  Sc  Sc80  1  0.09790052  0.28610115  0.29618787  1
  Sc  Sc81  1  0.49992987  0.09219127  0.90291220  1
  Sc  Sc82  1  0.71059683  0.89693340  0.49696149  1
  Sc  Sc83  1  0.69907447  0.49716285  0.70034206  1
  Sc  Sc84  1  0.09986457  0.30732604  0.89008768  1
  Sc  Sc85  1  0.09462927  0.29439514  0.69695030  1
  Sc  Sc86  1  0.09310292  0.69684508  0.09807633  1
  Sc  Sc87  1  0.09648940  0.50732620  0.09779432  1
  Sc  Sc88  1  0.09428885  0.90768683  0.29763262  1
  Sc  Sc89  1  0.50384619  0.69560836  0.50283346  1
  Sc  Sc90  1  0.69729500  0.89331482  0.89923605  1
  Sc  Sc91  1  0.09538637  0.10924432  0.50295849  1
  Sc  Sc92  1  0.90186897  0.09159767  0.50174303  1
  Sc  Sc93  1  0.70235823  0.49619658  0.10731774  1
  Sc  Sc94  1  0.29917645  0.90074956  0.70634126  1
  Sc  Sc95  1  0.89870055  0.69848592  0.29039032  1
  Sc  Sc96  1  0.29484968  0.10575582  0.49182689  1
  Sc  Sc97  1  0.30646658  0.09646313  0.89837290  1
  Sc  Sc98  1  0.69741975  0.29914909  0.49197341  1
  Sc  Sc99  1  0.49588613  0.69255259  0.09953701  1
  Nb  Nb100  1  0.69075790  0.10371842  0.50341623  1
  Nb  Nb101  1  0.89904241  0.30185019  0.09974014  1
  Nb  Nb102  1  0.69921459  0.90257952  0.70063795  1
  Nb  Nb103  1  0.29942163  0.50355011  0.88767933  1
  Nb  Nb104  1  0.50384368  0.29933375  0.09665874  1
  Nb  Nb105  1  0.09866695  0.09772538  0.90876326  1
  Nb  Nb106  1  0.90028588  0.50003552  0.10939114  1
  Nb  Nb107  1  0.51125881  0.10178927  0.50492453  1
  Nb  Nb108  1  0.90252436  0.30046053  0.90764942  1
  Nb  Nb109  1  0.29629292  0.89922189  0.09925945  1
  Nb  Nb110  1  0.68683317  0.29487282  0.09484075  1
  Nb  Nb111  1  0.10324248  0.30327610  0.09840230  1
  Nb  Nb112  1  0.49916023  0.50218221  0.50083150  1
  Nb  Nb113  1  0.71234406  0.70448029  0.70468750  1
  Nb  Nb114  1  0.90442633  0.89568556  0.50171582  1
  Nb  Nb115  1  0.89761076  0.50048695  0.69810530  1
  Nb  Nb116  1  0.29757384  0.49933535  0.70213479  1
  Nb  Nb117  1  0.89033909  0.69399329  0.70202491  1
  Nb  Nb118  1  0.70055857  0.10123554  0.30716349  1
  Nb  Nb119  1  0.49925615  0.90222491  0.49814439  1
  Nb  Nb120  1  0.09310946  0.30606088  0.49927996  1
  Nb  Nb121  1  0.89310567  0.49598914  0.29084955  1
  Nb  Nb122  1  0.49825614  0.90128799  0.30171628  1
  Nb  Nb123  1  0.71028087  0.49453323  0.30289142  1
  Nb  Nb124  1  0.09639648  0.50154743  0.49863055  1
  Nb  Nb125  1  0.40001222  0.80744262  0.39489917  1
  Nb  Nb126  1  0.60003150  0.59679071  -0.00504008  1
  Nb  Nb127  1  0.80172953  0.59049603  0.39682746  1
  Nb  Nb128  1  0.79910553  -0.00010596  0.00829436  1
  Nb  Nb129  1  0.59848346  0.00170770  0.40221604  1
  Nb  Nb130  1  0.79492635  0.00255438  0.20448434  1
  Nb  Nb131  1  -0.00009564  0.79882258  0.40662417  1
  Nb  Nb132  1  0.19012115  0.40406323  0.40095015  1
  Nb  Nb133  1  0.20121353  0.58996590  0.60301660  1
  Nb  Nb134  1  0.79453452  0.19452488  0.60240505  1
  Nb  Nb135  1  0.00269570  0.20829232  0.00134750  1
  Nb  Nb136  1  0.19673010  0.40624987  0.59074982  1
  Nb  Nb137  1  0.20220017  0.80275481  0.39649030  1
  Nb  Nb138  1  0.40514414  0.20628966  0.19433736  1
  Nb  Nb139  1  0.20653945  0.80357122  0.20105835  1
  Nb  Nb140  1  -0.01194291  0.59905430  0.79734253  1
  Nb  Nb141  1  0.59892356  0.20111244  0.79861087  1
  Nb  Nb142  1  0.40708667  0.20153826  0.79935232  1
  Nb  Nb143  1  -0.00623031  0.39632736  0.00633050  1
  Nb  Nb144  1  0.19356968  0.19786123  -0.00092085  1
  Nb  Nb145  1  0.40693854  0.00238645  0.59377673  1
  Nb  Nb146  1  0.19805682  0.40190297  0.20168889  1
  Nb  Nb147  1  0.19696126  0.00165930  0.00261671  1
  Nb  Nb148  1  0.00103735  0.40619080  0.39707436  1
  Nb  Nb149  1  0.39580834  0.80969280  0.20411097  1
  Pd  Pd150  1  0.60542028  0.59236963  0.39725093  1
  Pd  Pd151  1  0.59613364  0.39554652  0.59224298  1
  Pd  Pd152  1  0.41363225  0.80977022  0.01085549  1
  Pd  Pd153  1  0.59039466  0.79490749  0.00237625  1
  Pd  Pd154  1  0.60499188  0.59922841  0.61013716  1
  Pd  Pd155  1  0.20722035  0.20248212  0.80833013  1
  Pd  Pd156  1  0.20356114  0.00249028  0.80698539  1
  Pd  Pd157  1  0.79424352  0.80343731  0.60107429  1
  Pd  Pd158  1  0.60044254  0.79912514  0.79813228  1
  Pd  Pd159  1  0.39805149  0.60309129  0.60989566  1
  Pd  Pd160  1  0.19910597  0.20924235  0.59432392  1
  Pd  Pd161  1  0.79762127  0.40271301  0.00878333  1
  Pd  Pd162  1  0.20368669  0.79101335  0.60057278  1
  Pd  Pd163  1  0.80593694  -0.01092826  0.81015165  1
  Pd  Pd164  1  -0.00866068  0.79105729  0.79911730  1
  Pd  Pd165  1  0.59563859  0.40493770  0.40063096  1
  Pd  Pd166  1  0.20191804  0.00987380  0.60021423  1
  Pd  Pd167  1  0.80142335  0.80086140  0.19911350  1
  Pd  Pd168  1  0.19568410  0.59722492  -0.00285861  1
  Pd  Pd169  1  0.79491135  0.00445477  0.40293260  1
  Pd  Pd170  1  0.40057803  0.59977992  0.19363300  1
  Pd  Pd171  1  0.60672074  0.59678626  0.19439027  1
  Pd  Pd172  1  0.20143729  0.39482497  0.78907872  1
  Pd  Pd173  1  0.58837623  0.79600657  0.19272374  1
  Pd  Pd174  1  -0.01435472  0.60036641  0.39408783  1
  Pd  Pd175  1  0.79769755  0.20446372  0.79513016  1
  Pd  Pd176  1  0.59487024  0.80143257  0.40602869  1
  Pd  Pd177  1  0.20302780  0.59889091  0.40588248  1
  Pd  Pd178  1  0.79695737  0.20008742  0.19645017  1
  Pd  Pd179  1  0.00402531  -0.00348805  0.40611244  1
  Pd  Pd180  1  0.19518148  -0.00590839  0.19514086  1
  Pd  Pd181  1  0.40752055  0.19559440  0.39548099  1
  Pd  Pd182  1  0.60949090  0.80219241  0.59563215  1
  Pd  Pd183  1  0.40386982  0.00671234  0.40713892  1
  Pd  Pd184  1  0.39218960  0.39606944  0.19792690  1
  Pd  Pd185  1  0.39730120  -0.00446041  0.00140729  1
  Pd  Pd186  1  0.00862919  0.39738885  0.20126448  1
  Pd  Pd187  1  0.59568826  0.20312544  0.20572103  1
  Pd  Pd188  1  0.01013414  0.60303610  0.61504264  1
  Pd  Pd189  1  0.00062474  0.19757755  0.80604783  1
  Pd  Pd190  1  0.80537292  0.19333664  0.00606800  1
  Pd  Pd191  1  0.59979065  0.60242057  0.79545763  1
  Pd  Pd192  1  0.80422651  0.19915620  0.41156961  1
  Pd  Pd193  1  0.78956854  0.38753374  0.19217875  1
  Pd  Pd194  1  0.40250948  0.60270852  0.78920142  1
  Pd  Pd195  1  -0.00165600  0.00415615  0.79642324  1
  Pd  Pd196  1  0.80625843  0.40053261  0.79984565  1
  Pd  Pd197  1  0.39989555  0.80685830  0.59914452  1
  Pd  Pd198  1  0.80809586  0.81261762  0.80362366  1
  Pd  Pd199  1  -0.01191413  -0.00510535  0.20102788  1
  Rh  Rh200  1  0.79512943  0.60118304  0.20400950  1
  Rh  Rh201  1  0.00552415  0.80111381  0.20788621  1
  Rh  Rh202  1  0.60791168  0.00394523  0.20971583  1
  Rh  Rh203  1  0.80472515  0.80975241  -0.00393172  1
  Rh  Rh204  1  0.79694227  0.00054829  0.59217130  1
  Rh  Rh205  1  0.78993340  0.59573918  0.60276207  1
  Rh  Rh206  1  0.40310279  0.79884053  0.79551049  1
  Rh  Rh207  1  -0.00210868  0.78816184  -0.00500499  1
  Rh  Rh208  1  0.60878788  0.21028918  0.60348352  1
  Rh  Rh209  1  0.80971802  0.40498750  0.40535035  1
  Rh  Rh210  1  0.41697585  0.60366584  0.39742718  1
  Rh  Rh211  1  -0.00377681  0.59034934  -0.00827161  1
  Rh  Rh212  1  -0.00123671  0.01069001  0.00786731  1
  Rh  Rh213  1  0.60728294  0.40392951  0.00080463  1
  Rh  Rh214  1  0.60570183  -0.01484934  0.58952937  1
  Rh  Rh215  1  0.19236157  0.40069381  0.00364901  1
  Rh  Rh216  1  0.80948032  0.78356345  0.40324397  1
  Rh  Rh217  1  0.60699715  -0.00239677  -0.00761622  1
  Rh  Rh218  1  0.79100767  0.58861766  0.00730108  1
  Rh  Rh219  1  0.39529198  0.39411465  0.79967198  1
  Rh  Rh220  1  0.39659517  0.40035560  0.59542738  1
  Rh  Rh221  1  -0.00534637  0.60256405  0.19700638  1
  Rh  Rh222  1  0.39651571  0.40785808  -0.00708716  1
  Rh  Rh223  1  0.19334412  0.80307567  0.00123966  1
  Rh  Rh224  1  -0.00134515  0.79449847  0.60341591  1
  Rh  Rh225  1  0.79931268  0.59174725  0.79249815  1
  Rh  Rh226  1  0.60823688  0.39481168  0.20163556  1
  Rh  Rh227  1  0.40662193  0.40425733  0.40210089  1
  Rh  Rh228  1  -0.00530932  0.20685131  0.40374334  1
  Rh  Rh229  1  0.18986019  0.59728633  0.79377923  1
  Rh  Rh230  1  -0.00733922  0.20815314  0.19822197  1
  Rh  Rh231  1  0.19434715  0.21020864  0.40746523  1
  Rh  Rh232  1  0.18891141  0.00117414  0.40552307  1
  Rh  Rh233  1  0.39595625  0.20110913  -0.00282502  1
  Rh  Rh234  1  0.00502357  0.00434540  0.60472494  1
  Rh  Rh235  1  0.40023154  0.00433784  0.19420152  1
  Rh  Rh236  1  0.60219993  0.00009983  0.80628982  1
  Rh  Rh237  1  0.40646030  0.59029953  -0.00400792  1
  Rh  Rh238  1  0.21838508  0.21791054  0.18993541  1
  Rh  Rh239  1  0.59860287  0.39010188  0.80111408  1
  Rh  Rh240  1  0.60068917  0.19968620  -0.01027101  1
  Rh  Rh241  1  0.00228942  0.39817890  0.59980062  1
  Rh  Rh242  1  0.20519909  0.60012391  0.18769310  1
  Rh  Rh243  1  -0.01005567  0.41080348  0.81342005  1
  Rh  Rh244  1  0.80273778  0.39057614  0.60214579  1
  Rh  Rh245  1  0.40145490  0.00431273  0.78911547  1
  Rh  Rh246  1  0.20168069  0.79772602  0.80617305  1
  Rh  Rh247  1  -0.00767331  0.19951894  0.60198493  1
  Rh  Rh248  1  0.40070019  0.19210047  0.59947937  1
  Rh  Rh249  1  0.59571411  0.19580721  0.39357794  1
