# generated using pymatgen
data_ZrScNbPdRh
_symmetry_space_group_name_H-M   'P 1'
_cell_length_a   16.55767765
_cell_length_b   16.55516023
_cell_length_c   16.55921352
_cell_angle_alpha   89.99549823
_cell_angle_beta   90.02521425
_cell_angle_gamma   90.01275191
_symmetry_Int_Tables_number   1
_chemical_formula_structural   ZrScNbPdRh
_chemical_formula_sum   'Zr50 Sc50 Nb50 Pd50 Rh50'
_cell_volume   4539.12835738
_cell_formula_units_Z   50
loop_
 _symmetry_equiv_pos_site_id
 _symmetry_equiv_pos_as_xyz
  1  'x, y, z'
loop_
 _atom_site_type_symbol
 _atom_site_label
 _atom_site_symmetry_multiplicity
 _atom_site_fract_x
 _atom_site_fract_y
 _atom_site_fract_z
 _atom_site_occupancy
  Zr  Zr0  1  0.69234400  0.49274074  0.69560860  1
  Zr  Zr1  1  0.49784680  0.89891622  0.30514579  1
  Zr  Zr2  1  0.30456140  0.70533407  0.09311911  1
  Zr  Zr3  1  0.89928353  0.49286540  0.70235979  1
  Zr  Zr4  1  0.29934906  0.09939450  0.11356719  1
  Zr  Zr5  1  0.10402792  0.89660573  0.89146085  1
  Zr  Zr6  1  0.90707152  0.69787982  0.30032833  1
  Zr  Zr7  1  0.09718810  0.10043143  0.50661450  1
  Zr  Zr8  1  0.10548399  0.89692609  0.31252533  1
  Zr  Zr9  1  0.10264668  0.70163488  0.90679245  1
  Zr  Zr10  1  0.50401035  0.49885490  0.90152557  1
  Zr  Zr11  1  0.90806594  0.09908961  0.70731000  1
  Zr  Zr12  1  0.49806669  0.89819313  0.89705276  1
  Zr  Zr13  1  0.09268089  0.10192518  0.88979314  1
  Zr  Zr14  1  0.70235009  0.71157483  0.69810868  1
  Zr  Zr15  1  0.90427038  0.10302949  0.49308540  1
  Zr  Zr16  1  0.49645205  0.50091640  0.29276817  1
  Zr  Zr17  1  0.70764766  0.08877324  0.71192064  1
  Zr  Zr18  1  0.49948798  0.30044437  0.90240317  1
  Zr  Zr19  1  0.91288714  0.89674916  0.30085719  1
  Zr  Zr20  1  0.29907240  0.89191484  0.90176398  1
  Zr  Zr21  1  0.30615786  0.69945557  0.50449438  1
  Zr  Zr22  1  0.50396733  0.51008195  0.49862507  1
  Zr  Zr23  1  0.89899425  0.10001014  0.30132998  1
  Zr  Zr24  1  0.30199235  0.89785073  0.50792273  1
  Zr  Zr25  1  0.70504560  0.89731075  0.09332662  1
  Zr  Zr26  1  0.90043573  0.89343769  0.90336429  1
  Zr  Zr27  1  0.69975860  0.89942458  0.88794488  1
  Zr  Zr28  1  0.69725887  0.30798697  0.49925715  1
  Zr  Zr29  1  0.89082955  0.89614130  0.70368161  1
  Zr  Zr30  1  0.29874207  0.09958159  0.30071844  1
  Zr  Zr31  1  0.09326889  0.90480267  0.69675230  1
  Zr  Zr32  1  0.49879154  0.30699397  0.70519648  1
  Zr  Zr33  1  0.29750051  0.89973781  0.10619614  1
  Zr  Zr34  1  0.70299313  0.09580818  0.49565759  1
  Zr  Zr35  1  0.10063962  0.30706648  0.90563598  1
  Zr  Zr36  1  0.09655184  0.50477795  0.89641544  1
  Zr  Zr37  1  0.90684625  0.50285387  0.49867802  1
  Zr  Zr38  1  0.50330530  0.89977701  0.70701011  1
  Zr  Zr39  1  0.70858132  0.10313561  0.29865063  1
  Zr  Zr40  1  0.48650188  0.09724088  0.50215001  1
  Zr  Zr41  1  0.49234736  0.69700853  0.90115734  1
  Zr  Zr42  1  0.90254080  0.30231268  0.89170710  1
  Zr  Zr43  1  0.29960751  0.30033764  0.69801811  1
  Zr  Zr44  1  0.30848933  0.49753837  0.10580677  1
  Zr  Zr45  1  0.69405368  0.49520975  0.30564134  1
  Zr  Zr46  1  0.70207153  0.50194064  0.89601263  1
  Zr  Zr47  1  0.30384383  0.70643507  0.30313067  1
  Zr  Zr48  1  0.50569544  0.30932152  0.29368733  1
  Zr  Zr49  1  0.30316407  0.49642556  0.30154180  1
  Sc  Sc50  1  0.09625427  0.70928076  0.30801151  1
  Sc  Sc51  1  0.70411862  0.30414744  0.30487435  1
  Sc  Sc52  1  0.10039476  0.89618450  0.11360639  1
  Sc  Sc53  1  0.10170870  0.49936111  0.69715372  1
  Sc  Sc54  1  0.09932405  0.29830759  0.69799794  1
  Sc  Sc55  1  0.90090935  0.29709033  0.49678607  1
  Sc  Sc56  1  0.10103924  0.49499375  0.29454520  1
  Sc  Sc57  1  0.70591753  0.29572478  0.90339618  1
  Sc  Sc58  1  0.70316502  0.30060015  0.09025718  1
  Sc  Sc59  1  0.10020293  0.70534275  0.70582322  1
  Sc  Sc60  1  0.29931887  0.30131194  0.30008740  1
  Sc  Sc61  1  0.49894599  0.69695362  0.69476717  1
  Sc  Sc62  1  0.70300231  0.89583775  0.50618172  1
  Sc  Sc63  1  0.10730043  0.48511905  0.09508133  1
  Sc  Sc64  1  0.70204852  0.50392463  0.08706773  1
  Sc  Sc65  1  0.49324787  0.29707870  0.50265951  1
  Sc  Sc66  1  0.90259486  0.70835691  0.69953778  1
  Sc  Sc67  1  0.69294356  0.49669129  0.49825809  1
  Sc  Sc68  1  0.30186275  0.89848325  0.29668952  1
  Sc  Sc69  1  0.30529936  0.30350159  0.89484091  1
  Sc  Sc70  1  0.48944705  0.09766479  0.29837754  1
  Sc  Sc71  1  0.89331214  0.10600213  0.89696658  1
  Sc  Sc72  1  0.10322874  0.29525495  0.50073687  1
  Sc  Sc73  1  0.90032954  0.30313367  0.08583360  1
  Sc  Sc74  1  0.29516489  0.50011848  0.89621718  1
  Sc  Sc75  1  0.89509000  0.50422684  0.09117313  1
  Sc  Sc76  1  0.69823623  0.70041708  0.29458986  1
  Sc  Sc77  1  0.29925931  0.09878043  0.88565759  1
  Sc  Sc78  1  0.49083092  0.11052243  0.09921676  1
  Sc  Sc79  1  0.09212061  0.70628668  0.49993654  1
  Sc  Sc80  1  0.49972257  0.70377560  0.30341604  1
  Sc  Sc81  1  0.49603998  0.10157080  0.89392244  1
  Sc  Sc82  1  0.69901399  0.89919432  0.30325752  1
  Sc  Sc83  1  0.71717733  0.10182782  0.09300924  1
  Sc  Sc84  1  0.89706410  0.29466093  0.30312974  1
  Sc  Sc85  1  0.68779299  0.69354591  0.50198370  1
  Sc  Sc86  1  0.49656371  0.70451160  0.50283525  1
  Sc  Sc87  1  0.10079405  0.50082781  0.50645037  1
  Sc  Sc88  1  0.30388354  0.70006831  0.69774963  1
  Sc  Sc89  1  0.89638419  0.89529075  0.10163118  1
  Sc  Sc90  1  0.09433196  0.09692046  0.30397500  1
  Sc  Sc91  1  0.90724135  0.89942230  0.51128681  1
  Sc  Sc92  1  0.29386920  0.90098888  0.70426262  1
  Sc  Sc93  1  0.70081908  0.69522232  0.89464665  1
  Sc  Sc94  1  0.10397319  0.09740479  0.69919188  1
  Sc  Sc95  1  0.30356983  0.10210082  0.69717513  1
  Sc  Sc96  1  0.49925660  0.50031467  0.70519811  1
  Sc  Sc97  1  0.49287964  0.89174566  0.10682113  1
  Sc  Sc98  1  0.10283236  0.30465510  0.29296632  1
  Sc  Sc99  1  0.29369044  0.50579847  0.69566104  1
  Nb  Nb100  1  0.10373347  0.29832172  0.09650323  1
  Nb  Nb101  1  0.69914192  0.70047233  0.10062351  1
  Nb  Nb102  1  0.10230011  0.09968580  0.09836351  1
  Nb  Nb103  1  0.29767993  0.11120781  0.50248161  1
  Nb  Nb104  1  0.49965934  0.90273195  0.50228463  1
  Nb  Nb105  1  0.49917334  0.50083983  0.10027782  1
  Nb  Nb106  1  0.49978258  0.10221759  0.70145971  1
  Nb  Nb107  1  0.69943451  0.09618671  0.90286344  1
  Nb  Nb108  1  0.90102631  0.50154698  0.29744473  1
  Nb  Nb109  1  0.89682302  0.50505550  0.89455919  1
  Nb  Nb110  1  0.90240034  0.69717704  0.49986827  1
  Nb  Nb111  1  0.09928698  0.69438284  0.09949223  1
  Nb  Nb112  1  0.29559902  0.29726472  0.50299443  1
  Nb  Nb113  1  0.29879563  0.29715646  0.10023958  1
  Nb  Nb114  1  0.88903026  0.29652241  0.70144379  1
  Nb  Nb115  1  0.69506940  0.30135258  0.69560394  1
  Nb  Nb116  1  0.29285043  0.70846445  0.90442094  1
  Nb  Nb117  1  0.90350930  0.09553080  0.09992260  1
  Nb  Nb118  1  0.49936650  0.69118395  0.09631859  1
  Nb  Nb119  1  0.10438950  0.90506815  0.50653759  1
  Nb  Nb120  1  0.91053635  0.69463277  0.90447180  1
  Nb  Nb121  1  0.70133594  0.89714332  0.70627184  1
  Nb  Nb122  1  0.49276474  0.30403288  0.09818460  1
  Nb  Nb123  1  0.90065349  0.70119404  0.10014594  1
  Nb  Nb124  1  0.29887289  0.49797342  0.50003226  1
  Nb  Nb125  1  0.59813475  0.00044889  0.60578620  1
  Nb  Nb126  1  0.39188666  0.40357157  0.59391369  1
  Nb  Nb127  1  0.59620317  0.59897126  0.18991261  1
  Nb  Nb128  1  0.19742863  0.00464386  0.00133288  1
  Nb  Nb129  1  0.79528364  0.20160192  0.60688820  1
  Nb  Nb130  1  0.80265031  0.59950779  0.59671559  1
  Nb  Nb131  1  0.39546629  -0.00198061  0.00049754  1
  Nb  Nb132  1  0.80215425  0.40607240  0.20145584  1
  Nb  Nb133  1  0.20253256  0.00208435  0.41250701  1
  Nb  Nb134  1  0.59725407  -0.00209379  0.00227748  1
  Nb  Nb135  1  0.60496633  0.19799331  0.79548102  1
  Nb  Nb136  1  0.59828349  0.19647443  0.39921473  1
  Nb  Nb137  1  0.00254047  0.60138865  0.19402350  1
  Nb  Nb138  1  0.80467309  0.60066845  0.40145599  1
  Nb  Nb139  1  0.00088762  0.19761660  0.18761583  1
  Nb  Nb140  1  0.60188457  0.20013711  0.19885860  1
  Nb  Nb141  1  0.60204622  0.00572686  0.19424739  1
  Nb  Nb142  1  0.00321047  0.00379789  0.00344880  1
  Nb  Nb143  1  -0.00180012  0.40333538  0.39707554  1
  Nb  Nb144  1  0.20328926  0.59903192  0.39885373  1
  Nb  Nb145  1  0.19906947  0.60363583  0.20040556  1
  Nb  Nb146  1  0.59973911  0.79552085  0.00316086  1
  Nb  Nb147  1  0.60181367  0.19352854  0.60332643  1
  Nb  Nb148  1  0.19765344  0.19831566  0.00462815  1
  Nb  Nb149  1  0.80730285  0.79067564  0.40519912  1
  Pd  Pd150  1  0.19372020  0.19705590  0.39651862  1
  Pd  Pd151  1  0.39686912  0.79519655  0.79394320  1
  Pd  Pd152  1  0.40275596  0.39549190  0.40635859  1
  Pd  Pd153  1  0.79703369  0.59579730  0.20224944  1
  Pd  Pd154  1  -0.00070625  0.19547243  -0.00031443  1
  Pd  Pd155  1  -0.00114516  0.60372767  0.79340124  1
  Pd  Pd156  1  0.39903303  0.60239255  0.40000871  1
  Pd  Pd157  1  0.00195385  0.59192993  0.00602051  1
  Pd  Pd158  1  0.40355529  0.20900923  0.39295031  1
  Pd  Pd159  1  0.20288675  0.60704091  0.79958557  1
  Pd  Pd160  1  -0.00005158  0.60445869  0.61011101  1
  Pd  Pd161  1  -0.00545673  0.40893509  -0.00204955  1
  Pd  Pd162  1  -0.00513149  0.20438532  0.60519310  1
  Pd  Pd163  1  0.19818105  0.40180323  0.79668366  1
  Pd  Pd164  1  0.80396015  0.40122917  0.59479891  1
  Pd  Pd165  1  0.39925902  -0.00369442  0.60934183  1
  Pd  Pd166  1  0.80420187  0.21222717  0.19062831  1
  Pd  Pd167  1  0.38887456  -0.00481528  0.40097299  1
  Pd  Pd168  1  -0.00992315  0.39581085  0.19925435  1
  Pd  Pd169  1  0.19917030  0.20442226  0.80207764  1
  Pd  Pd170  1  0.59917448  0.60527677  0.79405518  1
  Pd  Pd171  1  0.61101734  0.40052214  0.18423275  1
  Pd  Pd172  1  0.19470722  0.60812072  0.59411584  1
  Pd  Pd173  1  0.19641144  0.79218009  0.20118264  1
  Pd  Pd174  1  0.00691974  0.80776774  0.00834305  1
  Pd  Pd175  1  0.79851050  -0.00911338  0.20250524  1
  Pd  Pd176  1  0.19090523  0.40307269  0.40413594  1
  Pd  Pd177  1  0.00409021  0.00208400  0.19747421  1
  Pd  Pd178  1  0.80097680  0.00342546  0.59999221  1
  Pd  Pd179  1  0.80754355  -0.01664456  0.40142783  1
  Pd  Pd180  1  0.39609067  0.40275246  -0.00274931  1
  Pd  Pd181  1  0.60602270  0.79928536  0.40422734  1
  Pd  Pd182  1  0.19314602  0.20182695  0.20178595  1
  Pd  Pd183  1  0.80052381  0.60832450  -0.00399742  1
  Pd  Pd184  1  0.59663079  0.79948478  0.19503341  1
  Pd  Pd185  1  0.20462868  0.59335847  0.00572012  1
  Pd  Pd186  1  0.39229095  0.59911790  0.80126616  1
  Pd  Pd187  1  0.59737161  0.00422174  0.39902846  1
  Pd  Pd188  1  0.80210586  0.80269196  0.20816059  1
  Pd  Pd189  1  0.39223349  0.59450238  -0.00628861  1
  Pd  Pd190  1  0.60023776  0.19183016  0.00170700  1
  Pd  Pd191  1  0.79571293  0.78798832  -0.00675532  1
  Pd  Pd192  1  0.00092525  0.39096643  0.59544750  1
  Pd  Pd193  1  0.80510197  0.60545076  0.78990897  1
  Pd  Pd194  1  0.00456115  0.39823667  0.79512560  1
  Pd  Pd195  1  0.19608812  0.79387357  0.60234410  1
  Pd  Pd196  1  0.59616475  0.80698485  0.59843849  1
  Pd  Pd197  1  0.60176989  0.39973697  0.00080283  1
  Pd  Pd198  1  0.38699350  0.19291360  -0.00596453  1
  Pd  Pd199  1  0.79250194  0.39661231  0.80267018  1
  Rh  Rh200  1  0.60601958  0.39303177  0.81168895  1
  Rh  Rh201  1  0.60283657  0.60426872  0.38764877  1
  Rh  Rh202  1  0.59613491  0.00678272  0.80205890  1
  Rh  Rh203  1  0.20190891  0.79501836  0.79540717  1
  Rh  Rh204  1  0.19317920  0.00045167  0.21032467  1
  Rh  Rh205  1  0.40581360  0.20253469  0.79768663  1
  Rh  Rh206  1  0.80454424  0.00203367  -0.00664662  1
  Rh  Rh207  1  0.80761202  0.79036533  0.80933224  1
  Rh  Rh208  1  0.21025790  0.39308595  -0.00057646  1
  Rh  Rh209  1  0.40643427  0.80266821  0.00126656  1
  Rh  Rh210  1  0.40130537  0.60674697  0.20023638  1
  Rh  Rh211  1  0.00115047  0.79062082  0.19369346  1
  Rh  Rh212  1  0.20761534  0.40030153  0.19553506  1
  Rh  Rh213  1  0.58420049  0.39815937  0.59425222  1
  Rh  Rh214  1  0.00720123  0.21023040  0.38691448  1
  Rh  Rh215  1  0.80907793  -0.00345032  0.80805971  1
  Rh  Rh216  1  -0.00388685  0.80852367  0.41245103  1
  Rh  Rh217  1  -0.00633547  -0.00575821  0.80578836  1
  Rh  Rh218  1  0.00247742  0.80171614  0.60136155  1
  Rh  Rh219  1  0.39734016  -0.00027411  0.80074085  1
  Rh  Rh220  1  0.40388246  0.80572543  0.60474519  1
  Rh  Rh221  1  0.00694012  0.59112530  0.39046545  1
  Rh  Rh222  1  0.79237980  0.20309061  0.79874780  1
  Rh  Rh223  1  0.80397624  0.40474614  -0.00582415  1
  Rh  Rh224  1  0.40005757  0.20825622  0.60439134  1
  Rh  Rh225  1  -0.00181722  0.79678798  0.80220869  1
  Rh  Rh226  1  0.40657692  0.21016844  0.20476181  1
  Rh  Rh227  1  0.60083643  0.60395158  0.00237909  1
  Rh  Rh228  1  0.59621427  0.79061786  0.80522710  1
  Rh  Rh229  1  0.40191236  0.80618580  0.40518158  1
  Rh  Rh230  1  0.20096722  -0.00090093  0.79870653  1
  Rh  Rh231  1  0.00660753  -0.00451349  0.40871849  1
  Rh  Rh232  1  0.39440855  0.40852337  0.79276593  1
  Rh  Rh233  1  0.81063217  0.40734775  0.39571624  1
  Rh  Rh234  1  0.80728286  0.19820239  -0.00392892  1
  Rh  Rh235  1  -0.00452997  0.00117233  0.60300969  1
  Rh  Rh236  1  0.19171366  0.80622662  0.00581630  1
  Rh  Rh237  1  0.79769307  0.79169437  0.59171138  1
  Rh  Rh238  1  0.00196556  0.20839326  0.79495038  1
  Rh  Rh239  1  0.58811757  0.39530489  0.40800328  1
  Rh  Rh240  1  0.20095041  0.19847570  0.60334696  1
  Rh  Rh241  1  0.40423555  0.79332443  0.20100575  1
  Rh  Rh242  1  0.60387510  0.59947518  0.60679016  1
  Rh  Rh243  1  0.39619579  0.39236021  0.19648971  1
  Rh  Rh244  1  0.40121429  0.59174461  0.60164020  1
  Rh  Rh245  1  0.20658366  0.00786162  0.59786958  1
  Rh  Rh246  1  0.20425606  0.80117394  0.41177371  1
  Rh  Rh247  1  0.40878675  -0.00256767  0.19566632  1
  Rh  Rh248  1  0.20378363  0.39653694  0.59880562  1
  Rh  Rh249  1  0.79295673  0.20495657  0.41071241  1
