# generated using pymatgen
data_ZrScNbPdRh
_symmetry_space_group_name_H-M   'P 1'
_cell_length_a   16.55339136
_cell_length_b   16.55379797
_cell_length_c   16.55585311
_cell_angle_alpha   90.00928525
_cell_angle_beta   89.99602049
_cell_angle_gamma   89.98186302
_symmetry_Int_Tables_number   1
_chemical_formula_structural   ZrScNbPdRh
_chemical_formula_sum   'Zr50 Sc50 Nb50 Pd50 Rh50'
_cell_volume   4536.65934611
_cell_formula_units_Z   50
loop_
 _symmetry_equiv_pos_site_id
 _symmetry_equiv_pos_as_xyz
  1  'x, y, z'
loop_
 _atom_site_type_symbol
 _atom_site_label
 _atom_site_symmetry_multiplicity
 _atom_site_fract_x
 _atom_site_fract_y
 _atom_site_fract_z
 _atom_site_occupancy
  Zr  Zr0  1  0.70265986  0.09951799  0.10431063  1
  Zr  Zr1  1  0.90155389  0.90540571  0.89456848  1
  Zr  Zr2  1  0.29816544  0.89988873  0.90115955  1
  Zr  Zr3  1  0.49951634  0.50044919  0.51179117  1
  Zr  Zr4  1  0.50010441  0.30966827  0.10142262  1
  Zr  Zr5  1  0.49669571  0.89838184  0.09444281  1
  Zr  Zr6  1  0.70281559  0.29844534  0.31674475  1
  Zr  Zr7  1  0.89750461  0.70768896  0.50102000  1
  Zr  Zr8  1  0.29784393  0.30104656  0.10020724  1
  Zr  Zr9  1  0.89061958  0.49056347  0.10075399  1
  Zr  Zr10  1  0.50319628  0.69694120  0.50666524  1
  Zr  Zr11  1  0.29624112  0.30285289  0.90615480  1
  Zr  Zr12  1  0.90318807  0.49134728  0.69875722  1
  Zr  Zr13  1  0.09571189  0.90124625  0.90006774  1
  Zr  Zr14  1  0.29749362  0.10985586  0.50867624  1
  Zr  Zr15  1  0.30230339  0.90588724  0.69675775  1
  Zr  Zr16  1  0.09669840  0.09217771  0.10458339  1
  Zr  Zr17  1  0.69714704  0.49396427  0.30203777  1
  Zr  Zr18  1  0.49623709  0.68898915  0.10347954  1
  Zr  Zr19  1  0.10612082  0.10461732  0.69943853  1
  Zr  Zr20  1  0.10817521  0.29617641  0.49439343  1
  Zr  Zr21  1  0.29611898  0.49738370  0.89870205  1
  Zr  Zr22  1  0.49784255  0.10040987  0.49402314  1
  Zr  Zr23  1  0.69390980  0.90727473  0.09972710  1
  Zr  Zr24  1  0.70282230  0.29999240  0.10026913  1
  Zr  Zr25  1  0.30219923  0.90318239  0.10466904  1
  Zr  Zr26  1  0.30549783  0.89709419  0.49910288  1
  Zr  Zr27  1  0.10523918  0.29992889  0.89821576  1
  Zr  Zr28  1  0.70125287  0.30299107  0.70302262  1
  Zr  Zr29  1  0.90049262  0.09876978  0.29357135  1
  Zr  Zr30  1  0.29198942  0.69897645  0.89552546  1
  Zr  Zr31  1  0.10361457  0.09692064  0.50112645  1
  Zr  Zr32  1  0.10343029  0.49135805  0.89569756  1
  Zr  Zr33  1  0.50400890  0.30653802  0.70110598  1
  Zr  Zr34  1  0.69607532  0.49305486  0.50084417  1
  Zr  Zr35  1  0.69851271  0.09992649  0.89741777  1
  Zr  Zr36  1  0.71239060  0.69825159  0.09584616  1
  Zr  Zr37  1  0.90076235  0.48743123  0.30088118  1
  Zr  Zr38  1  0.49664769  0.90719670  0.29542659  1
  Zr  Zr39  1  0.69646035  0.30194411  0.88970791  1
  Zr  Zr40  1  0.09486700  0.30715461  0.70429541  1
  Zr  Zr41  1  0.29845629  0.10207261  0.09397807  1
  Zr  Zr42  1  0.10577819  0.70567820  0.28818269  1
  Zr  Zr43  1  0.09968095  0.49626166  0.29532227  1
  Zr  Zr44  1  0.69889737  0.89117011  0.90004647  1
  Zr  Zr45  1  0.10413655  0.89370754  0.09319448  1
  Zr  Zr46  1  0.70152165  0.70524042  0.29915553  1
  Zr  Zr47  1  0.70228656  0.69768185  0.89348732  1
  Zr  Zr48  1  0.29981956  0.10970092  0.89420092  1
  Zr  Zr49  1  0.90037236  0.10658349  0.10121147  1
  Sc  Sc50  1  0.30443077  0.09928144  0.31386086  1
  Sc  Sc51  1  0.49585447  0.29844808  0.89258960  1
  Sc  Sc52  1  0.49954133  0.89975150  0.50032000  1
  Sc  Sc53  1  0.50291704  0.08904227  0.10372285  1
  Sc  Sc54  1  0.30871017  0.49593530  0.10113825  1
  Sc  Sc55  1  0.09856024  0.90378872  0.70626427  1
  Sc  Sc56  1  0.50478450  0.70572718  0.90777636  1
  Sc  Sc57  1  0.69626543  0.90351190  0.29621029  1
  Sc  Sc58  1  0.69768274  0.09890705  0.29844887  1
  Sc  Sc59  1  0.70631666  0.89541002  0.70111224  1
  Sc  Sc60  1  0.88513279  0.70102288  0.90634785  1
  Sc  Sc61  1  0.49381545  0.89973296  0.69209489  1
  Sc  Sc62  1  0.49455307  0.09903941  0.89939002  1
  Sc  Sc63  1  0.70850504  0.89762656  0.49653728  1
  Sc  Sc64  1  0.90518319  0.10074918  0.89500740  1
  Sc  Sc65  1  0.70106172  0.09955752  0.48306953  1
  Sc  Sc66  1  0.30260104  0.50620599  0.51370594  1
  Sc  Sc67  1  0.09405721  0.49661773  0.49802620  1
  Sc  Sc68  1  0.90287304  0.89904648  0.09628562  1
  Sc  Sc69  1  0.29850887  0.50158195  0.70122270  1
  Sc  Sc70  1  0.49875906  0.30258666  0.50654326  1
  Sc  Sc71  1  0.70979989  0.09982452  0.71048320  1
  Sc  Sc72  1  0.50860478  0.70535700  0.69138143  1
  Sc  Sc73  1  0.70599466  0.49369108  0.70227654  1
  Sc  Sc74  1  0.89739002  0.90617132  0.69573995  1
  Sc  Sc75  1  0.89732497  0.31348651  0.49493835  1
  Sc  Sc76  1  0.50314102  0.70325272  0.29646092  1
  Sc  Sc77  1  0.28966052  0.49346451  0.29194307  1
  Sc  Sc78  1  0.30733795  0.29319996  0.69878846  1
  Sc  Sc79  1  0.90342524  0.07920908  0.49454812  1
  Sc  Sc80  1  0.51048765  0.30385223  0.30244138  1
  Sc  Sc81  1  0.49929085  0.49436046  0.91159064  1
  Sc  Sc82  1  0.88701478  0.49956119  0.89976227  1
  Sc  Sc83  1  0.10283255  0.71442690  0.89764171  1
  Sc  Sc84  1  0.48741272  0.10453804  0.70494512  1
  Sc  Sc85  1  0.09942579  0.10221763  0.89863377  1
  Sc  Sc86  1  0.30058015  0.09891971  0.69777205  1
  Sc  Sc87  1  0.29510237  0.69494932  0.69505898  1
  Sc  Sc88  1  0.10344391  0.31212826  0.30300762  1
  Sc  Sc89  1  0.70268600  0.70173377  0.69297292  1
  Sc  Sc90  1  0.09868794  0.50007068  0.69885304  1
  Sc  Sc91  1  0.10085315  0.89850066  0.29091428  1
  Sc  Sc92  1  0.89960991  0.89674255  0.30531969  1
  Sc  Sc93  1  0.08844271  0.70123965  0.50709178  1
  Sc  Sc94  1  0.10343285  0.69889383  0.70636918  1
  Sc  Sc95  1  0.30242611  0.70427344  0.10833673  1
  Sc  Sc96  1  0.89659341  0.69338970  0.69331452  1
  Sc  Sc97  1  0.50485270  0.50062178  0.29371615  1
  Sc  Sc98  1  0.90378284  0.50238896  0.50786983  1
  Sc  Sc99  1  0.09677368  0.30281095  0.09363665  1
  Nb  Nb100  1  0.50775382  0.49792119  0.10325989  1
  Nb  Nb101  1  0.29263987  0.30058425  0.30638942  1
  Nb  Nb102  1  0.10027323  0.50171401  0.10210041  1
  Nb  Nb103  1  0.90495023  0.30252344  0.90186310  1
  Nb  Nb104  1  0.90486877  0.30190866  0.29701596  1
  Nb  Nb105  1  0.29703773  0.29880282  0.49525603  1
  Nb  Nb106  1  0.09651914  0.70016149  0.09736302  1
  Nb  Nb107  1  0.68956908  0.49677051  0.09264585  1
  Nb  Nb108  1  0.50513120  0.89772488  0.89714233  1
  Nb  Nb109  1  0.09117363  0.90486462  0.50066082  1
  Nb  Nb110  1  0.69981698  0.50221677  0.89671814  1
  Nb  Nb111  1  0.09767031  0.09664714  0.30144119  1
  Nb  Nb112  1  0.50568379  0.10250605  0.30478346  1
  Nb  Nb113  1  0.69790587  0.69483600  0.49858063  1
  Nb  Nb114  1  0.90055727  0.29710758  0.10121646  1
  Nb  Nb115  1  0.90081823  0.30336467  0.69838491  1
  Nb  Nb116  1  0.89666685  0.69546258  0.29472150  1
  Nb  Nb117  1  0.89914162  0.69410653  0.10180580  1
  Nb  Nb118  1  0.30083049  0.70289522  0.49794473  1
  Nb  Nb119  1  0.69787664  0.29842470  0.50272849  1
  Nb  Nb120  1  0.91170720  0.89493000  0.50156897  1
  Nb  Nb121  1  0.49931181  0.50161703  0.69705634  1
  Nb  Nb122  1  0.29856276  0.88645522  0.30214063  1
  Nb  Nb123  1  0.29916552  0.70918716  0.30685807  1
  Nb  Nb124  1  0.89958770  0.10208656  0.69944225  1
  Nb  Nb125  1  0.19169972  0.60062720  0.00610580  1
  Nb  Nb126  1  0.20252828  0.39343345  0.59715118  1
  Nb  Nb127  1  0.39345066  0.40313665  0.40289345  1
  Nb  Nb128  1  -0.00361480  0.60576721  0.38769757  1
  Nb  Nb129  1  0.20168683  0.60865261  0.40009404  1
  Nb  Nb130  1  0.60843515  0.19651174  0.60121759  1
  Nb  Nb131  1  0.19829872  0.80531083  0.59236027  1
  Nb  Nb132  1  0.79983621  0.60356185  0.39929583  1
  Nb  Nb133  1  0.80513536  0.19996213  0.59874043  1
  Nb  Nb134  1  0.40946391  0.60231573  0.79903871  1
  Nb  Nb135  1  -0.00263357  0.59823682  0.80889778  1
  Nb  Nb136  1  0.79823606  0.00190926  -0.00135782  1
  Nb  Nb137  1  0.39791867  0.20135215  0.20752186  1
  Nb  Nb138  1  0.59744234  0.59574182  0.80000363  1
  Nb  Nb139  1  -0.00303726  0.60107617  0.19433297  1
  Nb  Nb140  1  0.59620835  -0.00623854  0.79776803  1
  Nb  Nb141  1  0.40136477  0.79815545  0.80098209  1
  Nb  Nb142  1  0.60256093  0.19999938  0.00108687  1
  Nb  Nb143  1  -0.00014862  0.19842139  0.39770396  1
  Nb  Nb144  1  -0.00821114  0.20074494  0.59789175  1
  Nb  Nb145  1  0.19829945  -0.00789308  0.40224247  1
  Nb  Nb146  1  0.00158157  0.60011033  0.00338103  1
  Nb  Nb147  1  0.20206149  0.19851493  0.20658886  1
  Nb  Nb148  1  0.39285700  0.60191124  0.39975532  1
  Nb  Nb149  1  0.60329193  0.00820618  0.60331011  1
  Pd  Pd150  1  0.41216433  0.19986094  0.00806639  1
  Pd  Pd151  1  0.00442389  0.79648254  0.39254000  1
  Pd  Pd152  1  0.81026205  0.20542864  0.80068180  1
  Pd  Pd153  1  0.39383227  0.59739929  0.21098658  1
  Pd  Pd154  1  0.81392558  0.19846585  0.40675406  1
  Pd  Pd155  1  0.41377020  0.79443883  0.39974347  1
  Pd  Pd156  1  0.39545702  -0.00231533  0.40039159  1
  Pd  Pd157  1  -0.00242434  0.20035602  0.79655063  1
  Pd  Pd158  1  0.60213442  0.79181029  0.00870705  1
  Pd  Pd159  1  -0.00821510  0.79316195  -0.00428510  1
  Pd  Pd160  1  0.79893441  0.79972754  0.40044478  1
  Pd  Pd161  1  -0.00492202  -0.01073460  0.19964938  1
  Pd  Pd162  1  0.59703187  0.59893951  0.39854333  1
  Pd  Pd163  1  0.39847507  0.40523281  0.79902633  1
  Pd  Pd164  1  0.79635360  0.59568650  0.59617248  1
  Pd  Pd165  1  0.40823997  0.21246095  0.39572505  1
  Pd  Pd166  1  0.79657169  0.59135752  0.20343318  1
  Pd  Pd167  1  0.19031787  0.60082904  0.59356711  1
  Pd  Pd168  1  0.79410458  0.00392211  0.59607784  1
  Pd  Pd169  1  0.59678727  0.79909952  0.19305713  1
  Pd  Pd170  1  0.21039160  0.00387293  0.21269237  1
  Pd  Pd171  1  0.40166897  0.39601947  0.21132239  1
  Pd  Pd172  1  0.79930683  0.19867309  -0.00768674  1
  Pd  Pd173  1  0.40044740  0.00180746  -0.00628786  1
  Pd  Pd174  1  0.39316482  0.00761647  0.20799479  1
  Pd  Pd175  1  0.80789319  0.79687340  0.78978156  1
  Pd  Pd176  1  0.79253522  0.39272660  0.20259638  1
  Pd  Pd177  1  0.79592884  0.39580990  -0.00593663  1
  Pd  Pd178  1  0.60784872  0.60003483  0.19867489  1
  Pd  Pd179  1  -0.00271593  0.40370086  -0.00080606  1
  Pd  Pd180  1  0.79847330  0.20746148  0.20791192  1
  Pd  Pd181  1  -0.01001287  0.79073300  0.79582441  1
  Pd  Pd182  1  0.60286833  0.60292075  -0.00447036  1
  Pd  Pd183  1  0.00341892  0.19886992  -0.00121757  1
  Pd  Pd184  1  0.18543462  0.80126326  0.40856228  1
  Pd  Pd185  1  0.20437606  0.60241066  0.19784162  1
  Pd  Pd186  1  0.80121784  -0.00735851  0.39607034  1
  Pd  Pd187  1  0.39368440  0.59727147  -0.00425121  1
  Pd  Pd188  1  0.59937587  0.39289765  -0.00763121  1
  Pd  Pd189  1  0.39600480  0.79599088  -0.00283724  1
  Pd  Pd190  1  0.00385718  0.80111199  0.61396758  1
  Pd  Pd191  1  0.60862686  0.81158854  0.59602507  1
  Pd  Pd192  1  0.19916300  0.00190515  0.80326013  1
  Pd  Pd193  1  0.59383059  0.19985182  0.19710072  1
  Pd  Pd194  1  0.59768681  0.80608467  0.40272631  1
  Pd  Pd195  1  -0.00705795  0.80056412  0.19827416  1
  Pd  Pd196  1  0.00015343  0.00439005  0.60896676  1
  Pd  Pd197  1  0.19828871  0.00460789  -0.00691819  1
  Pd  Pd198  1  0.01207014  0.21099690  0.20677872  1
  Pd  Pd199  1  0.80384473  0.80909454  0.19644998  1
  Rh  Rh200  1  0.20871275  0.80588949  0.78634096  1
  Rh  Rh201  1  0.59677882  0.20350899  0.40677575  1
  Rh  Rh202  1  0.39718630  0.20406413  0.80028957  1
  Rh  Rh203  1  0.60326547  0.00514176  -0.00976238  1
  Rh  Rh204  1  0.79661931  -0.00365963  0.80620161  1
  Rh  Rh205  1  0.19565543  0.21066178  0.60929806  1
  Rh  Rh206  1  0.00182379  0.00498979  0.79561299  1
  Rh  Rh207  1  0.40141146  0.40144802  0.00184260  1
  Rh  Rh208  1  0.59295042  0.80008178  0.79400673  1
  Rh  Rh209  1  0.79732199  0.59901810  0.79576995  1
  Rh  Rh210  1  0.19437813  0.59847551  0.80775938  1
  Rh  Rh211  1  0.80417913  -0.00298609  0.19544313  1
  Rh  Rh212  1  0.40410795  0.79983762  0.20175657  1
  Rh  Rh213  1  0.80560266  0.39612630  0.80429928  1
  Rh  Rh214  1  0.40601703  0.20267794  0.59956437  1
  Rh  Rh215  1  0.59618060  0.00299212  0.20578440  1
  Rh  Rh216  1  0.39022689  0.79381608  0.60690143  1
  Rh  Rh217  1  0.18874550  0.19362096  0.00769009  1
  Rh  Rh218  1  0.20365159  0.20475798  0.79758728  1
  Rh  Rh219  1  0.19585419  0.39138295  0.19127707  1
  Rh  Rh220  1  0.80232432  0.80913050  0.00647920  1
  Rh  Rh221  1  -0.00125596  0.39974480  0.40265061  1
  Rh  Rh222  1  -0.00938362  0.40532312  0.80958938  1
  Rh  Rh223  1  0.21185928  0.41732450  0.41261868  1
  Rh  Rh224  1  -0.00469985  0.00413255  -0.00028639  1
  Rh  Rh225  1  0.40555468  0.00955530  0.59580260  1
  Rh  Rh226  1  0.20172936  0.40837753  0.00785999  1
  Rh  Rh227  1  0.20172077  -0.00947985  0.59257050  1
  Rh  Rh228  1  0.00124842  0.39710226  0.19093341  1
  Rh  Rh229  1  0.60785716  0.59455603  0.60945425  1
  Rh  Rh230  1  0.80094938  0.40439600  0.40476862  1
  Rh  Rh231  1  0.40447377  -0.00934744  0.80399813  1
  Rh  Rh232  1  0.59987203  -0.00415483  0.40209086  1
  Rh  Rh233  1  0.80064285  0.80317492  0.59441831  1
  Rh  Rh234  1  0.60458086  0.39664677  0.60362547  1
  Rh  Rh235  1  0.00414958  -0.00254663  0.39278642  1
  Rh  Rh236  1  0.58918645  0.39929481  0.40750642  1
  Rh  Rh237  1  0.79780424  0.39494333  0.59777343  1
  Rh  Rh238  1  0.00171330  0.59883730  0.60814268  1
  Rh  Rh239  1  0.20430503  0.80179750  0.19241265  1
  Rh  Rh240  1  0.59281535  0.18835685  0.79967155  1
  Rh  Rh241  1  0.79894118  0.59280430  0.00305800  1
  Rh  Rh242  1  0.20884585  0.39438548  0.78706640  1
  Rh  Rh243  1  0.19239722  0.18941157  0.39107372  1
  Rh  Rh244  1  0.60747335  0.39927614  0.20026492  1
  Rh  Rh245  1  0.40182528  0.60743727  0.60452973  1
  Rh  Rh246  1  0.20619167  0.79445828  0.00719495  1
  Rh  Rh247  1  0.00963217  0.39230631  0.59300628  1
  Rh  Rh248  1  0.39066861  0.39641100  0.59664716  1
  Rh  Rh249  1  0.59537576  0.41291529  0.80257617  1
