# generated using pymatgen
data_ZrScNbPdRh
_symmetry_space_group_name_H-M   'P 1'
_cell_length_a   16.55692981
_cell_length_b   16.55115040
_cell_length_c   16.55463744
_cell_angle_alpha   89.99432299
_cell_angle_beta   90.00482825
_cell_angle_gamma   90.03011410
_symmetry_Int_Tables_number   1
_chemical_formula_structural   ZrScNbPdRh
_chemical_formula_sum   'Zr50 Sc50 Nb50 Pd50 Rh50'
_cell_volume   4536.56985892
_cell_formula_units_Z   50
loop_
 _symmetry_equiv_pos_site_id
 _symmetry_equiv_pos_as_xyz
  1  'x, y, z'
loop_
 _atom_site_type_symbol
 _atom_site_label
 _atom_site_symmetry_multiplicity
 _atom_site_fract_x
 _atom_site_fract_y
 _atom_site_fract_z
 _atom_site_occupancy
  Zr  Zr0  1  0.29633817  0.28761845  0.89558172  1
  Zr  Zr1  1  0.50945805  0.70706255  0.30052328  1
  Zr  Zr2  1  0.69512832  0.30152588  0.49863589  1
  Zr  Zr3  1  0.30518649  0.10086706  0.70307397  1
  Zr  Zr4  1  0.10810541  0.10695578  0.49598988  1
  Zr  Zr5  1  0.29062463  0.89732024  0.71462115  1
  Zr  Zr6  1  0.70248244  0.70378164  0.48762110  1
  Zr  Zr7  1  0.10233149  0.89424792  0.50385686  1
  Zr  Zr8  1  0.49350115  0.09564705  0.91446249  1
  Zr  Zr9  1  0.69247193  0.10163162  0.50111022  1
  Zr  Zr10  1  0.49094711  0.50015346  0.30313413  1
  Zr  Zr11  1  0.89825668  0.29976845  0.69834008  1
  Zr  Zr12  1  0.30316537  0.50135243  0.10323616  1
  Zr  Zr13  1  0.30269544  0.31314384  0.29417137  1
  Zr  Zr14  1  0.90122302  0.09630816  0.29737010  1
  Zr  Zr15  1  0.09765508  0.30176911  0.50674971  1
  Zr  Zr16  1  0.69982838  0.30574249  0.09171583  1
  Zr  Zr17  1  0.89413190  0.49845189  0.10188669  1
  Zr  Zr18  1  0.10088773  0.28551233  0.09840009  1
  Zr  Zr19  1  0.30483589  0.10324469  0.09016277  1
  Zr  Zr20  1  0.10473926  0.30182722  0.69513864  1
  Zr  Zr21  1  0.50187252  0.10276004  0.29835149  1
  Zr  Zr22  1  0.29350726  0.89532732  0.10024706  1
  Zr  Zr23  1  0.29894017  0.29772518  0.70345873  1
  Zr  Zr24  1  0.50180190  0.69451970  0.90240833  1
  Zr  Zr25  1  0.50115650  0.50396654  0.49964842  1
  Zr  Zr26  1  0.50205490  0.30943994  0.70441505  1
  Zr  Zr27  1  0.69064848  0.50860071  0.29681015  1
  Zr  Zr28  1  0.10064698  0.69961983  0.50465639  1
  Zr  Zr29  1  0.31191307  0.70740024  0.30407579  1
  Zr  Zr30  1  0.10632583  0.89815365  0.29894762  1
  Zr  Zr31  1  0.48772127  0.09573587  0.49980910  1
  Zr  Zr32  1  0.68663013  0.10054465  0.09630482  1
  Zr  Zr33  1  0.90475074  0.09950217  0.10246036  1
  Zr  Zr34  1  0.10507099  0.70665217  0.10135494  1
  Zr  Zr35  1  0.69362515  0.09687957  0.29773385  1
  Zr  Zr36  1  0.50068329  0.69962161  0.70248302  1
  Zr  Zr37  1  0.69716800  0.49719759  0.09891379  1
  Zr  Zr38  1  0.10137632  0.50062214  0.50359752  1
  Zr  Zr39  1  0.10427456  0.49635145  0.89528162  1
  Zr  Zr40  1  0.69508491  0.50157443  0.49886956  1
  Zr  Zr41  1  0.89352975  0.90092289  0.89675429  1
  Zr  Zr42  1  0.90298960  0.69898993  0.10409041  1
  Zr  Zr43  1  0.70017826  0.69260070  0.70317341  1
  Zr  Zr44  1  0.69441952  0.88803484  0.30654483  1
  Zr  Zr45  1  0.89978370  0.90292055  0.09630095  1
  Zr  Zr46  1  0.50406619  0.89758827  0.10241581  1
  Zr  Zr47  1  0.70315527  0.10334111  0.70111760  1
  Zr  Zr48  1  0.89587066  0.70073110  0.30421931  1
  Zr  Zr49  1  0.69876497  0.30330224  0.90094924  1
  Sc  Sc50  1  0.10524870  0.49346330  0.69322860  1
  Sc  Sc51  1  0.90148893  0.30621952  0.29357340  1
  Sc  Sc52  1  0.70014193  0.50007123  0.89791728  1
  Sc  Sc53  1  0.50276946  0.50374748  0.89714459  1
  Sc  Sc54  1  0.89842615  0.50077006  0.29280101  1
  Sc  Sc55  1  0.49484581  0.29112459  0.09867583  1
  Sc  Sc56  1  0.09997855  0.09845377  0.10320499  1
  Sc  Sc57  1  0.29674854  0.09769330  0.30722064  1
  Sc  Sc58  1  0.30220442  0.29360586  0.10900757  1
  Sc  Sc59  1  0.90321054  0.69655486  0.49915262  1
  Sc  Sc60  1  0.11326404  0.70845214  0.68904817  1
  Sc  Sc61  1  0.90448051  0.30219867  0.50167910  1
  Sc  Sc62  1  0.30272079  0.70421942  0.50591785  1
  Sc  Sc63  1  0.89423715  0.30018371  0.09646816  1
  Sc  Sc64  1  0.69465333  0.30763138  0.30026190  1
  Sc  Sc65  1  0.30940711  0.50281824  0.49641369  1
  Sc  Sc66  1  0.88479907  0.70164642  0.89891842  1
  Sc  Sc67  1  0.50390142  0.70413724  0.09422356  1
  Sc  Sc68  1  0.91217094  0.89194590  0.49934935  1
  Sc  Sc69  1  0.89087474  0.50352215  0.70349384  1
  Sc  Sc70  1  0.91243442  0.10649786  0.50832284  1
  Sc  Sc71  1  0.09061609  0.70721997  0.29588780  1
  Sc  Sc72  1  0.30364024  0.49724199  0.69966083  1
  Sc  Sc73  1  0.29640473  0.28903851  0.50307537  1
  Sc  Sc74  1  0.49805896  0.89579234  0.90089271  1
  Sc  Sc75  1  0.90739622  0.89818700  0.30221210  1
  Sc  Sc76  1  0.10331704  0.29565222  0.29953873  1
  Sc  Sc77  1  0.09565748  0.50511033  0.10508694  1
  Sc  Sc78  1  0.11604708  0.90458448  0.89324190  1
  Sc  Sc79  1  0.10412853  0.29838729  0.89101288  1
  Sc  Sc80  1  0.50233284  0.89407300  0.69778487  1
  Sc  Sc81  1  0.90393076  0.50229464  0.50360181  1
  Sc  Sc82  1  0.29997332  0.70852397  0.90482526  1
  Sc  Sc83  1  0.08770976  0.09309790  0.69168383  1
  Sc  Sc84  1  0.50523746  0.50300266  0.70018905  1
  Sc  Sc85  1  0.09970174  0.10231479  0.29736655  1
  Sc  Sc86  1  0.50755797  0.50393586  0.09556739  1
  Sc  Sc87  1  0.89386688  0.69496917  0.69415576  1
  Sc  Sc88  1  0.69809077  0.70418574  0.90000725  1
  Sc  Sc89  1  0.49689754  0.09622617  0.70268006  1
  Sc  Sc90  1  0.90024886  0.08897987  0.90818579  1
  Sc  Sc91  1  0.30218706  0.89926878  0.30429926  1
  Sc  Sc92  1  0.69634719  0.89725282  0.09597988  1
  Sc  Sc93  1  0.09625665  0.49042558  0.30117588  1
  Sc  Sc94  1  0.49596263  0.30259514  0.49354277  1
  Sc  Sc95  1  0.30278110  0.70412367  0.09372616  1
  Sc  Sc96  1  0.69512730  0.69690030  0.09381945  1
  Sc  Sc97  1  0.49183345  0.29864613  0.29740639  1
  Sc  Sc98  1  0.50510949  0.30097072  0.89970091  1
  Sc  Sc99  1  0.30184497  0.70164566  0.69813190  1
  Nb  Nb100  1  0.49926875  0.89974846  0.49950483  1
  Nb  Nb101  1  0.70418813  0.90113172  0.70178817  1
  Nb  Nb102  1  0.89530008  0.30855460  0.89491518  1
  Nb  Nb103  1  0.09439485  0.89484738  0.69371846  1
  Nb  Nb104  1  0.10608939  0.10878628  0.90869452  1
  Nb  Nb105  1  0.49794477  0.09750839  0.10422663  1
  Nb  Nb106  1  0.90022713  0.09622346  0.70419104  1
  Nb  Nb107  1  0.70887908  0.90070309  0.89437582  1
  Nb  Nb108  1  0.49571991  0.70281870  0.49992350  1
  Nb  Nb109  1  0.90781393  0.91051538  0.70050062  1
  Nb  Nb110  1  0.30259227  0.91944504  0.89953308  1
  Nb  Nb111  1  0.69821127  0.90113781  0.50388761  1
  Nb  Nb112  1  0.29975550  0.08947870  0.50338153  1
  Nb  Nb113  1  0.10117925  0.70094980  0.90130773  1
  Nb  Nb114  1  0.69704010  0.30208797  0.70297393  1
  Nb  Nb115  1  0.29955366  0.50364630  0.90645341  1
  Nb  Nb116  1  0.29832019  0.08784876  0.89950308  1
  Nb  Nb117  1  0.30297857  0.50147754  0.29914486  1
  Nb  Nb118  1  0.69968858  0.70221461  0.30260801  1
  Nb  Nb119  1  0.30541329  0.91155915  0.49277876  1
  Nb  Nb120  1  0.49807573  0.89565043  0.29826447  1
  Nb  Nb121  1  0.10101333  0.88874421  0.10418541  1
  Nb  Nb122  1  0.90078486  0.49621030  0.89613320  1
  Nb  Nb123  1  0.69738220  0.10092132  0.89949854  1
  Nb  Nb124  1  0.69725978  0.49788292  0.69867088  1
  Nb  Nb125  1  0.20660932  0.60153118  0.20901696  1
  Nb  Nb126  1  0.59590736  -0.00822096  0.40410281  1
  Nb  Nb127  1  0.78968804  0.39961213  0.60356699  1
  Nb  Nb128  1  0.59795393  0.20452654  0.60331276  1
  Nb  Nb129  1  0.79720112  0.79606898  0.20375897  1
  Nb  Nb130  1  0.79603475  -0.00064989  0.40896790  1
  Nb  Nb131  1  0.79552858  0.19556733  0.20046650  1
  Nb  Nb132  1  -0.00197156  0.60026562  -0.00822043  1
  Nb  Nb133  1  0.00290914  0.80065109  0.79770501  1
  Nb  Nb134  1  0.20337059  -0.00344653  0.59752019  1
  Nb  Nb135  1  0.80211745  0.19904820  0.80376295  1
  Nb  Nb136  1  0.20309018  0.59993552  0.39441763  1
  Nb  Nb137  1  0.40023401  0.60219520  0.20325359  1
  Nb  Nb138  1  0.79818100  0.19479740  0.39626863  1
  Nb  Nb139  1  0.80304176  -0.00350491  0.60200581  1
  Nb  Nb140  1  0.00395017  0.79910730  -0.00691185  1
  Nb  Nb141  1  -0.00002383  0.40116752  -0.00666963  1
  Nb  Nb142  1  0.39180636  0.40132850  -0.00293159  1
  Nb  Nb143  1  -0.00699670  0.19692789  0.80254840  1
  Nb  Nb144  1  0.60958938  -0.00172964  0.80421554  1
  Nb  Nb145  1  0.40556001  -0.00023343  0.19756893  1
  Nb  Nb146  1  0.79563758  0.80977722  0.60155772  1
  Nb  Nb147  1  0.19808053  0.60107881  0.80463215  1
  Nb  Nb148  1  0.00560364  0.60622823  0.80469853  1
  Nb  Nb149  1  0.20083213  0.39852120  0.00033983  1
  Pd  Pd150  1  -0.00580861  0.20677427  0.39435545  1
  Pd  Pd151  1  0.01451182  -0.00998559  -0.00420700  1
  Pd  Pd152  1  0.00403497  0.39326788  0.19062308  1
  Pd  Pd153  1  0.39446299  -0.01260754  0.61214679  1
  Pd  Pd154  1  0.79335209  -0.00546789  0.20404352  1
  Pd  Pd155  1  0.80378581  0.59048489  0.40071491  1
  Pd  Pd156  1  0.60096401  0.80432436  0.80447363  1
  Pd  Pd157  1  0.59780187  0.19357875  0.79981749  1
  Pd  Pd158  1  0.21375892  0.40379427  0.59184057  1
  Pd  Pd159  1  0.60479834  0.79365953  0.59802002  1
  Pd  Pd160  1  0.40839472  0.19478430  0.80644264  1
  Pd  Pd161  1  0.39861027  0.40504407  0.80833046  1
  Pd  Pd162  1  0.59179381  0.39898722  0.39451259  1
  Pd  Pd163  1  0.39497034  0.80823633  0.60001280  1
  Pd  Pd164  1  0.80377824  0.19512288  -0.00112771  1
  Pd  Pd165  1  -0.00718958  0.20751819  -0.01074511  1
  Pd  Pd166  1  0.39185672  0.60081435  0.80061095  1
  Pd  Pd167  1  0.00091764  0.40070011  0.79492108  1
  Pd  Pd168  1  0.79963756  0.59623604  -0.00475543  1
  Pd  Pd169  1  0.60118146  0.60803247  0.59574719  1
  Pd  Pd170  1  0.00713999  0.59801611  0.39376845  1
  Pd  Pd171  1  0.79149557  0.00351912  0.00494808  1
  Pd  Pd172  1  0.00298191  0.59948077  0.61307841  1
  Pd  Pd173  1  0.60291379  -0.00910453  -0.00828429  1
  Pd  Pd174  1  0.00145863  0.00056419  0.40413114  1
  Pd  Pd175  1  0.18851544  0.18697240  0.79038187  1
  Pd  Pd176  1  0.19227801  0.40317651  0.19314378  1
  Pd  Pd177  1  0.00954905  0.00144333  0.81056489  1
  Pd  Pd178  1  0.39870045  0.80613508  -0.00397534  1
  Pd  Pd179  1  0.39904993  0.59924118  0.60359177  1
  Pd  Pd180  1  0.40641988  0.20558450  0.60061993  1
  Pd  Pd181  1  -0.00335327  0.39879225  0.39993280  1
  Pd  Pd182  1  0.20254651  0.79348206  0.40291480  1
  Pd  Pd183  1  0.59994029  0.00364676  0.60495462  1
  Pd  Pd184  1  0.20634035  0.20363199  0.39489605  1
  Pd  Pd185  1  0.18768435  0.01123851  0.79005452  1
  Pd  Pd186  1  0.20777537  0.00422522  0.19943573  1
  Pd  Pd187  1  0.19165297  -0.00133350  0.00758413  1
  Pd  Pd188  1  0.39766210  0.80058416  0.80617740  1
  Pd  Pd189  1  0.80581688  0.39928257  0.40332190  1
  Pd  Pd190  1  0.39836544  0.39720880  0.59553569  1
  Pd  Pd191  1  0.79152810  0.60593740  0.19988127  1
  Pd  Pd192  1  0.59088364  0.39616403  0.19794055  1
  Pd  Pd193  1  0.39114920  0.20253306  0.39611944  1
  Pd  Pd194  1  0.00823617  -0.00488440  0.19977635  1
  Pd  Pd195  1  0.20420412  0.40394631  0.40700124  1
  Pd  Pd196  1  0.79788438  0.20102696  0.59761211  1
  Pd  Pd197  1  0.19572519  0.59768679  0.00361677  1
  Pd  Pd198  1  0.60286329  0.21138344  0.19697187  1
  Pd  Pd199  1  0.80749229  0.79770956  0.78903257  1
  Rh  Rh200  1  0.79400890  0.39465932  0.20086463  1
  Rh  Rh201  1  -0.00732735  0.20135352  0.20150995  1
  Rh  Rh202  1  0.20429558  0.19478724  0.20396729  1
  Rh  Rh203  1  0.59557558  0.60594174  0.19972100  1
  Rh  Rh204  1  0.59717788  0.19700012  0.40609948  1
  Rh  Rh205  1  0.41165676  -0.00301936  0.79988393  1
  Rh  Rh206  1  0.59381612  0.60424053  0.40213375  1
  Rh  Rh207  1  0.79633826  0.00685872  0.79726511  1
  Rh  Rh208  1  0.21339383  0.81189152  0.59486708  1
  Rh  Rh209  1  -0.01129764  0.40569124  0.60554206  1
  Rh  Rh210  1  0.39366254  0.18892933  0.20585023  1
  Rh  Rh211  1  0.40739709  -0.00319181  0.38927839  1
  Rh  Rh212  1  0.39931493  0.20469013  -0.00474796  1
  Rh  Rh213  1  0.40050679  -0.00735484  0.00876436  1
  Rh  Rh214  1  -0.00922694  0.80597594  0.19648534  1
  Rh  Rh215  1  0.59132529  0.80182643  0.40969474  1
  Rh  Rh216  1  0.60836127  0.79573248  0.19450449  1
  Rh  Rh217  1  0.20432008  0.59547905  0.59796213  1
  Rh  Rh218  1  0.21196075  0.40651966  0.80239196  1
  Rh  Rh219  1  0.20079804  0.18960225  0.60589254  1
  Rh  Rh220  1  0.19783630  0.79278733  0.80312489  1
  Rh  Rh221  1  0.20409208  0.20043842  0.00004462  1
  Rh  Rh222  1  0.60242199  0.59866698  0.80082693  1
  Rh  Rh223  1  0.79282056  0.59820484  0.59324060  1
  Rh  Rh224  1  0.20044612  0.80991620  -0.00835624  1
  Rh  Rh225  1  0.00365378  0.79644262  0.40096329  1
  Rh  Rh226  1  0.80829008  0.80726711  0.40154119  1
  Rh  Rh227  1  0.00620343  0.60033977  0.20076837  1
  Rh  Rh228  1  0.80400939  0.40644627  -0.00253152  1
  Rh  Rh229  1  0.40917138  0.40885185  0.18853892  1
  Rh  Rh230  1  0.39487202  0.39580941  0.40574896  1
  Rh  Rh231  1  0.00189718  -0.00024007  0.58996611  1
  Rh  Rh232  1  0.00364694  0.20319830  0.60708123  1
  Rh  Rh233  1  0.80138051  0.80223423  0.00832748  1
  Rh  Rh234  1  0.60089230  0.39565455  0.60160154  1
  Rh  Rh235  1  0.59418144  0.20078499  0.00018116  1
  Rh  Rh236  1  0.59347100  -0.00771968  0.20577523  1
  Rh  Rh237  1  0.20650155  0.79384312  0.20685793  1
  Rh  Rh238  1  0.60264405  0.59952984  -0.00463497  1
  Rh  Rh239  1  0.79957974  0.59686259  0.80208949  1
  Rh  Rh240  1  0.59001136  0.39954071  -0.00205451  1
  Rh  Rh241  1  0.40158972  0.60642122  0.39922502  1
  Rh  Rh242  1  0.40006778  0.80104456  0.19499769  1
  Rh  Rh243  1  0.79232813  0.40008098  0.79468120  1
  Rh  Rh244  1  0.60270408  0.40653451  0.80195111  1
  Rh  Rh245  1  -0.01177376  0.79341720  0.60922599  1
  Rh  Rh246  1  0.40507902  0.80331102  0.40884926  1
  Rh  Rh247  1  0.40626156  0.59654787  0.00594627  1
  Rh  Rh248  1  0.60375855  0.80266041  -0.00708600  1
  Rh  Rh249  1  0.19410547  -0.00188515  0.40391584  1
