# generated using pymatgen
data_ZrScNbPdRh
_symmetry_space_group_name_H-M   'P 1'
_cell_length_a   16.56067965
_cell_length_b   16.56438631
_cell_length_c   16.55991536
_cell_angle_alpha   90.01056542
_cell_angle_beta   90.00984729
_cell_angle_gamma   90.01295076
_symmetry_Int_Tables_number   1
_chemical_formula_structural   ZrScNbPdRh
_chemical_formula_sum   'Zr50 Sc50 Nb50 Pd50 Rh50'
_cell_volume   4542.67424317
_cell_formula_units_Z   50
loop_
 _symmetry_equiv_pos_site_id
 _symmetry_equiv_pos_as_xyz
  1  'x, y, z'
loop_
 _atom_site_type_symbol
 _atom_site_label
 _atom_site_symmetry_multiplicity
 _atom_site_fract_x
 _atom_site_fract_y
 _atom_site_fract_z
 _atom_site_occupancy
  Zr  Zr0  1  0.90480143  0.29348681  0.30321085  1
  Zr  Zr1  1  0.10229125  0.69392133  0.49855802  1
  Zr  Zr2  1  0.50311226  0.69494301  0.90295245  1
  Zr  Zr3  1  0.89274858  0.50249471  0.69988046  1
  Zr  Zr4  1  0.90045026  0.89491557  0.89547158  1
  Zr  Zr5  1  0.10394852  0.49489956  0.90365757  1
  Zr  Zr6  1  0.29220338  0.30625391  0.50506697  1
  Zr  Zr7  1  0.30545167  0.09528356  0.09451043  1
  Zr  Zr8  1  0.89767103  0.29923749  0.71067441  1
  Zr  Zr9  1  0.90153788  0.90998087  0.50555994  1
  Zr  Zr10  1  0.89945640  0.48716831  0.89722147  1
  Zr  Zr11  1  0.29644723  0.69375138  0.70088103  1
  Zr  Zr12  1  0.69745429  0.10829771  0.50537345  1
  Zr  Zr13  1  0.90462879  0.49753145  0.09695688  1
  Zr  Zr14  1  0.09598163  0.89503462  0.70707868  1
  Zr  Zr15  1  0.30213543  0.28663845  0.10608997  1
  Zr  Zr16  1  0.89944889  0.70728727  0.70646252  1
  Zr  Zr17  1  0.09108910  0.10190497  0.29617558  1
  Zr  Zr18  1  0.09728528  0.30104014  0.09917451  1
  Zr  Zr19  1  0.69720184  0.29926031  0.49965090  1
  Zr  Zr20  1  0.30626173  0.90322566  0.50752638  1
  Zr  Zr21  1  0.29912605  0.10468543  0.29379438  1
  Zr  Zr22  1  0.29659903  0.51098880  0.10096285  1
  Zr  Zr23  1  0.90142215  0.89980819  0.10167683  1
  Zr  Zr24  1  0.68790115  0.50315640  0.89485396  1
  Zr  Zr25  1  0.50160560  0.89767791  0.10060102  1
  Zr  Zr26  1  0.49793208  0.29969499  0.08775737  1
  Zr  Zr27  1  0.70091840  0.89302622  0.70503193  1
  Zr  Zr28  1  0.10886285  0.70282517  0.89299439  1
  Zr  Zr29  1  0.50043913  0.29601810  0.30137106  1
  Zr  Zr30  1  0.30568018  0.51484161  0.30300076  1
  Zr  Zr31  1  0.09636679  0.49694155  0.50508974  1
  Zr  Zr32  1  0.30145886  0.89757251  0.28866754  1
  Zr  Zr33  1  0.89871998  0.10285849  0.89677873  1
  Zr  Zr34  1  0.69799984  0.29731111  0.30231038  1
  Zr  Zr35  1  0.70071539  0.09459164  0.70464618  1
  Zr  Zr36  1  0.29687425  0.10177030  0.50255815  1
  Zr  Zr37  1  0.70035386  0.69758362  0.29124990  1
  Zr  Zr38  1  0.70358080  0.50613465  0.30151069  1
  Zr  Zr39  1  0.89197468  0.69416722  0.30081324  1
  Zr  Zr40  1  0.70055381  0.10063674  0.09452364  1
  Zr  Zr41  1  0.49987689  0.89620053  0.29849452  1
  Zr  Zr42  1  0.11585550  0.69165425  0.09289551  1
  Zr  Zr43  1  0.70811281  0.29750598  0.90278682  1
  Zr  Zr44  1  0.50088954  0.50591763  0.08412831  1
  Zr  Zr45  1  0.89493605  0.90377368  0.70288572  1
  Zr  Zr46  1  0.50352465  0.49673171  0.70488425  1
  Zr  Zr47  1  0.30061964  0.70589836  0.90046001  1
  Zr  Zr48  1  0.50039660  0.70844102  0.70424235  1
  Zr  Zr49  1  0.89000583  0.70285367  0.09936520  1
  Sc  Sc50  1  0.50187246  0.51049409  0.29818617  1
  Sc  Sc51  1  0.09440902  0.10137750  0.50742277  1
  Sc  Sc52  1  0.50055979  0.89589110  0.89879950  1
  Sc  Sc53  1  0.09308635  0.90186746  0.49823568  1
  Sc  Sc54  1  0.30507034  0.89954121  0.70548404  1
  Sc  Sc55  1  0.29653151  0.28661925  0.30314678  1
  Sc  Sc56  1  0.29882982  0.49439567  0.89925932  1
  Sc  Sc57  1  0.49327844  0.70435342  0.50634800  1
  Sc  Sc58  1  0.51018910  0.30139181  0.50688255  1
  Sc  Sc59  1  0.09728270  0.09137918  0.89544394  1
  Sc  Sc60  1  0.10045049  0.30124810  0.49671490  1
  Sc  Sc61  1  0.69604580  0.88889515  0.29641579  1
  Sc  Sc62  1  0.89681097  0.29278457  0.08941834  1
  Sc  Sc63  1  0.49156215  0.10034920  0.50166597  1
  Sc  Sc64  1  0.29771525  0.50606311  0.50897316  1
  Sc  Sc65  1  0.69670135  0.89237289  0.10042233  1
  Sc  Sc66  1  0.69653310  0.70779706  0.89594015  1
  Sc  Sc67  1  0.90618895  0.70246962  0.49645640  1
  Sc  Sc68  1  0.30010355  0.90219564  0.90064498  1
  Sc  Sc69  1  0.10404016  0.90082469  0.89780439  1
  Sc  Sc70  1  0.49398004  0.10031905  0.90136406  1
  Sc  Sc71  1  0.10282110  0.90152272  0.29922778  1
  Sc  Sc72  1  0.70601101  0.89665031  0.50385200  1
  Sc  Sc73  1  0.69481530  0.29561078  0.69132872  1
  Sc  Sc74  1  0.71269139  0.70634089  0.49205355  1
  Sc  Sc75  1  0.69808112  0.70473197  0.10097687  1
  Sc  Sc76  1  0.49686326  0.10230773  0.30019191  1
  Sc  Sc77  1  0.49961686  0.30219823  0.70606210  1
  Sc  Sc78  1  0.69316921  0.09600138  0.89608174  1
  Sc  Sc79  1  0.69557289  0.11453414  0.29917883  1
  Sc  Sc80  1  0.49679195  0.49985558  0.50313889  1
  Sc  Sc81  1  0.10466952  0.90777340  0.09522564  1
  Sc  Sc82  1  0.09295695  0.09633853  0.09713854  1
  Sc  Sc83  1  0.70040754  0.29195228  0.09558191  1
  Sc  Sc84  1  0.29723973  0.10005615  0.71375441  1
  Sc  Sc85  1  0.10311397  0.49675375  0.09422805  1
  Sc  Sc86  1  0.49706890  0.70065322  0.29680001  1
  Sc  Sc87  1  0.90275480  0.50181075  0.30539451  1
  Sc  Sc88  1  0.50033561  0.10563089  0.71013639  1
  Sc  Sc89  1  0.89677345  0.09627198  0.69935225  1
  Sc  Sc90  1  0.10392283  0.09545005  0.70423895  1
  Sc  Sc91  1  0.90180450  0.50763606  0.49588675  1
  Sc  Sc92  1  0.49952232  0.09737748  0.09147380  1
  Sc  Sc93  1  0.10702317  0.30052402  0.70428156  1
  Sc  Sc94  1  0.09170284  0.49388256  0.30893535  1
  Sc  Sc95  1  0.30346604  0.30185998  0.89000838  1
  Sc  Sc96  1  0.30560285  0.70481072  0.10177697  1
  Sc  Sc97  1  0.69562809  0.51150118  0.10018734  1
  Sc  Sc98  1  0.69550578  0.89956540  0.90153828  1
  Sc  Sc99  1  0.91388987  0.90532708  0.30509023  1
  Nb  Nb100  1  0.49598962  0.90001448  0.50412528  1
  Nb  Nb101  1  0.90230321  0.29910183  0.89687589  1
  Nb  Nb102  1  0.29397032  0.49150545  0.70256718  1
  Nb  Nb103  1  0.10790592  0.50948614  0.70056525  1
  Nb  Nb104  1  0.69897045  0.49574908  0.50411744  1
  Nb  Nb105  1  0.29848664  0.69775116  0.49318756  1
  Nb  Nb106  1  0.70071639  0.50794970  0.69508702  1
  Nb  Nb107  1  0.30507923  0.10234706  0.90072335  1
  Nb  Nb108  1  0.10303646  0.69620296  0.70157928  1
  Nb  Nb109  1  0.10266913  0.30249391  0.29648141  1
  Nb  Nb110  1  0.69762387  0.69492550  0.70417516  1
  Nb  Nb111  1  0.49697700  0.89082861  0.68774336  1
  Nb  Nb112  1  0.10958111  0.70030214  0.29705089  1
  Nb  Nb113  1  0.89934734  0.29570170  0.50533323  1
  Nb  Nb114  1  0.29493585  0.70153280  0.30392529  1
  Nb  Nb115  1  0.50353529  0.69817572  0.09463219  1
  Nb  Nb116  1  0.89795976  0.10130652  0.29862958  1
  Nb  Nb117  1  0.50062788  0.49599355  0.90036328  1
  Nb  Nb118  1  0.49957382  0.31655107  0.90086749  1
  Nb  Nb119  1  0.30216754  0.30719889  0.70142771  1
  Nb  Nb120  1  0.89975018  0.09461894  0.10093383  1
  Nb  Nb121  1  0.89798904  0.10351785  0.49329149  1
  Nb  Nb122  1  0.90257855  0.69910711  0.90159097  1
  Nb  Nb123  1  0.09432630  0.30046171  0.90126566  1
  Nb  Nb124  1  0.30483825  0.90126102  0.09793842  1
  Nb  Nb125  1  0.19936449  0.79333524  0.59976633  1
  Nb  Nb126  1  0.00200177  0.79416519  0.00119936  1
  Nb  Nb127  1  0.20408864  0.39747501  0.20577075  1
  Nb  Nb128  1  0.20517181  0.00345748  0.39930627  1
  Nb  Nb129  1  0.79888084  0.00945167  0.39732441  1
  Nb  Nb130  1  0.00616119  0.79023137  0.19594182  1
  Nb  Nb131  1  0.60439765  0.60204717  0.40782507  1
  Nb  Nb132  1  0.80307265  0.00663889  0.20315750  1
  Nb  Nb133  1  0.60888030  0.60134954  0.60132104  1
  Nb  Nb134  1  0.39787781  0.40066481  0.39534843  1
  Nb  Nb135  1  0.40001684  0.40093262  0.20141965  1
  Nb  Nb136  1  0.00482115  0.60737688  0.19933228  1
  Nb  Nb137  1  0.59366131  -0.00750051  0.60044129  1
  Nb  Nb138  1  0.79685350  0.39711929  0.20419223  1
  Nb  Nb139  1  0.79927945  0.39508092  0.40351816  1
  Nb  Nb140  1  0.59727421  0.40093162  0.19695676  1
  Nb  Nb141  1  0.39060924  0.20624120  0.60783108  1
  Nb  Nb142  1  0.60018581  -0.00431850  0.40628330  1
  Nb  Nb143  1  0.80304056  0.60119593  -0.00811103  1
  Nb  Nb144  1  0.20003085  0.19828937  -0.00810414  1
  Nb  Nb145  1  0.80348020  0.00088711  0.00460861  1
  Nb  Nb146  1  0.00312572  0.60052564  0.79980889  1
  Nb  Nb147  1  0.40169336  0.59313638  0.80035528  1
  Nb  Nb148  1  0.39134601  0.79838437  0.39951946  1
  Nb  Nb149  1  -0.00290905  0.40063801  0.60449231  1
  Pd  Pd150  1  0.40171410  0.80357586  0.00082506  1
  Pd  Pd151  1  0.79104546  0.40704666  0.00860660  1
  Pd  Pd152  1  0.59595195  0.41006014  0.39503034  1
  Pd  Pd153  1  0.80505990  0.39832844  0.59610119  1
  Pd  Pd154  1  0.40636207  0.00442257  0.19664899  1
  Pd  Pd155  1  -0.00384678  0.59788466  0.60689763  1
  Pd  Pd156  1  0.00061392  0.20436429  0.60793165  1
  Pd  Pd157  1  0.40586572  0.60552865  0.19506311  1
  Pd  Pd158  1  -0.00054908  0.40359184  0.19988820  1
  Pd  Pd159  1  0.40404688  0.01304536  0.61410180  1
  Pd  Pd160  1  0.20189047  0.20104884  0.60749929  1
  Pd  Pd161  1  0.80228594  0.79532288  0.60108288  1
  Pd  Pd162  1  0.80321927  0.19732788  0.60705841  1
  Pd  Pd163  1  0.00608691  0.20083622  0.40327392  1
  Pd  Pd164  1  0.00943370  0.40571497  0.79168042  1
  Pd  Pd165  1  0.38705653  0.39971495  0.00443477  1
  Pd  Pd166  1  0.20825396  0.40638257  0.39373765  1
  Pd  Pd167  1  0.20868264  0.38929826  0.00507657  1
  Pd  Pd168  1  0.19521022  -0.00896056  0.60063101  1
  Pd  Pd169  1  0.39908352  -0.00483641  0.39490136  1
  Pd  Pd170  1  0.00496789  0.79835856  0.59995664  1
  Pd  Pd171  1  0.59687388  0.20790446  0.80805589  1
  Pd  Pd172  1  -0.00001268  0.00548647  0.60606018  1
  Pd  Pd173  1  0.40370126  0.59965129  0.60629275  1
  Pd  Pd174  1  0.80832321  0.81376403  0.39435076  1
  Pd  Pd175  1  0.20318813  0.00466000  -0.00622900  1
  Pd  Pd176  1  0.19834043  0.80410866  0.18992601  1
  Pd  Pd177  1  0.59576494  0.19868051  -0.01169257  1
  Pd  Pd178  1  0.19326960  0.59059030  0.39957338  1
  Pd  Pd179  1  0.60817644  0.00306788  0.20812110  1
  Pd  Pd180  1  0.80257870  0.60347709  0.80746345  1
  Pd  Pd181  1  0.60790040  0.79572660  0.59300679  1
  Pd  Pd182  1  0.40391458  0.39641524  0.59588449  1
  Pd  Pd183  1  0.20309143  0.81152115  0.40801323  1
  Pd  Pd184  1  0.78655977  0.39673502  0.79421557  1
  Pd  Pd185  1  0.00345008  0.19725090  -0.00346459  1
  Pd  Pd186  1  0.00200501  0.79454268  0.39340870  1
  Pd  Pd187  1  0.79931228  0.60941700  0.59331294  1
  Pd  Pd188  1  0.18927307  0.19218348  0.40155917  1
  Pd  Pd189  1  0.60915858  0.39233881  0.79491888  1
  Pd  Pd190  1  -0.00173915  0.60278346  -0.00245531  1
  Pd  Pd191  1  0.59141504  0.79684878  0.40656776  1
  Pd  Pd192  1  -0.00279532  0.20154716  0.19384952  1
  Pd  Pd193  1  0.00468228  0.19484163  0.79650025  1
  Pd  Pd194  1  0.59321336  0.20262496  0.19154195  1
  Pd  Pd195  1  0.19923276  0.20119883  0.80653799  1
  Pd  Pd196  1  0.58945616  -0.00926677  0.79400388  1
  Pd  Pd197  1  0.40601321  -0.00601668  0.79989618  1
  Pd  Pd198  1  0.40317680  0.21062766  0.41307003  1
  Pd  Pd199  1  0.19628020  0.00360955  0.20102226  1
  Rh  Rh200  1  0.39975444  0.40524544  0.79973733  1
  Rh  Rh201  1  0.20530214  0.80523102  0.79183009  1
  Rh  Rh202  1  0.80836386  0.58899311  0.18853170  1
  Rh  Rh203  1  0.38701685  0.79199900  0.59612358  1
  Rh  Rh204  1  0.39743677  0.20379157  -0.01163090  1
  Rh  Rh205  1  0.40052286  0.79778638  0.80176761  1
  Rh  Rh206  1  0.80283642  0.20246242  0.40295550  1
  Rh  Rh207  1  0.00338047  0.79451115  0.80533492  1
  Rh  Rh208  1  0.00637397  0.60829722  0.39126230  1
  Rh  Rh209  1  0.80323224  0.19167358  -0.00574665  1
  Rh  Rh210  1  0.20358759  0.59368241  0.80497839  1
  Rh  Rh211  1  0.59067635  0.18942694  0.40618998  1
  Rh  Rh212  1  0.59132040  0.79219789  0.19428093  1
  Rh  Rh213  1  0.58685693  0.18966925  0.60297330  1
  Rh  Rh214  1  0.00241012  0.00962865  0.40277388  1
  Rh  Rh215  1  0.39641891  0.60091587  -0.00912213  1
  Rh  Rh216  1  0.60894366  0.60800300  -0.00250849  1
  Rh  Rh217  1  0.59355919  0.60270567  0.79494556  1
  Rh  Rh218  1  0.59471759  0.60229487  0.20040726  1
  Rh  Rh219  1  0.21031182  0.59964349  -0.00981216  1
  Rh  Rh220  1  0.59812275  0.79913597  0.00139111  1
  Rh  Rh221  1  0.79440113  0.59398236  0.40891338  1
  Rh  Rh222  1  0.19069822  0.40228585  0.60610132  1
  Rh  Rh223  1  0.40767029  0.60584815  0.40501855  1
  Rh  Rh224  1  -0.00848146  0.39057052  0.41159064  1
  Rh  Rh225  1  -0.00200282  0.39175953  -0.00330316  1
  Rh  Rh226  1  0.40260167  0.20940534  0.80119623  1
  Rh  Rh227  1  0.40067518  0.79364759  0.20005055  1
  Rh  Rh228  1  0.59763184  0.80342376  0.80014366  1
  Rh  Rh229  1  0.20315907  0.60203178  0.59796140  1
  Rh  Rh230  1  0.79569680  0.20007650  0.79914392  1
  Rh  Rh231  1  0.81133246  0.81510979  0.21173593  1
  Rh  Rh232  1  0.79379064  0.00485559  0.59272824  1
  Rh  Rh233  1  -0.00760882  -0.00746495  -0.00654245  1
  Rh  Rh234  1  0.80599145  0.20044630  0.19421590  1
  Rh  Rh235  1  0.19999825  0.80780307  0.00503998  1
  Rh  Rh236  1  -0.00182121  -0.00529620  0.20085004  1
  Rh  Rh237  1  0.40205086  -0.00655739  -0.00292294  1
  Rh  Rh238  1  0.20378560  -0.00283204  0.80349956  1
  Rh  Rh239  1  -0.00147763  0.00019620  0.79644119  1
  Rh  Rh240  1  0.60436867  -0.00414222  0.00072743  1
  Rh  Rh241  1  0.79954143  -0.00068544  0.81034396  1
  Rh  Rh242  1  0.80166701  0.80024470  -0.00929020  1
  Rh  Rh243  1  0.18891741  0.20004988  0.19087875  1
  Rh  Rh244  1  0.18989534  0.58722494  0.21018364  1
  Rh  Rh245  1  0.60116407  0.40724409  0.60658572  1
  Rh  Rh246  1  0.79550169  0.79719712  0.80326902  1
  Rh  Rh247  1  0.19581185  0.39884716  0.80027637  1
  Rh  Rh248  1  0.60778328  0.39856079  0.00357188  1
  Rh  Rh249  1  0.41055377  0.19729035  0.19658552  1
