# generated using pymatgen
data_ZrScNbPdRh
_symmetry_space_group_name_H-M   'P 1'
_cell_length_a   16.55694006
_cell_length_b   16.56098871
_cell_length_c   16.56311926
_cell_angle_alpha   89.98938546
_cell_angle_beta   89.98866730
_cell_angle_gamma   90.01349199
_symmetry_Int_Tables_number   1
_chemical_formula_structural   ZrScNbPdRh
_chemical_formula_sum   'Zr50 Sc50 Nb50 Pd50 Rh50'
_cell_volume   4541.59537098
_cell_formula_units_Z   50
loop_
 _symmetry_equiv_pos_site_id
 _symmetry_equiv_pos_as_xyz
  1  'x, y, z'
loop_
 _atom_site_type_symbol
 _atom_site_label
 _atom_site_symmetry_multiplicity
 _atom_site_fract_x
 _atom_site_fract_y
 _atom_site_fract_z
 _atom_site_occupancy
  Zr  Zr0  1  0.88476305  0.29524094  0.10411634  1
  Zr  Zr1  1  0.69297838  0.29809956  0.09474031  1
  Zr  Zr2  1  0.89685227  0.49228181  0.70065464  1
  Zr  Zr3  1  0.50445575  0.70073888  0.90112775  1
  Zr  Zr4  1  0.10518375  0.69882174  0.10164052  1
  Zr  Zr5  1  0.90074449  0.89676458  0.09143693  1
  Zr  Zr6  1  0.30531998  0.09606434  0.89207530  1
  Zr  Zr7  1  0.30016362  0.29591727  0.29995227  1
  Zr  Zr8  1  0.69989318  0.29223013  0.51194489  1
  Zr  Zr9  1  0.90564252  0.09859594  0.70465882  1
  Zr  Zr10  1  0.09895764  0.48617731  0.89612991  1
  Zr  Zr11  1  0.90198126  0.30106016  0.29772679  1
  Zr  Zr12  1  0.70433392  0.49803012  0.09260973  1
  Zr  Zr13  1  0.70798574  0.49709266  0.49830186  1
  Zr  Zr14  1  0.50029869  0.51268937  0.10292099  1
  Zr  Zr15  1  0.09562994  0.50620541  0.09803866  1
  Zr  Zr16  1  0.50683215  0.30429790  0.89814551  1
  Zr  Zr17  1  0.70127396  0.91051488  0.10153240  1
  Zr  Zr18  1  0.49599605  0.50204956  0.48721080  1
  Zr  Zr19  1  0.29711727  0.69831128  0.09497148  1
  Zr  Zr20  1  0.10961476  0.09628515  0.29865702  1
  Zr  Zr21  1  0.69710889  0.69576605  0.70309111  1
  Zr  Zr22  1  0.70080535  0.70523712  0.89738466  1
  Zr  Zr23  1  0.69881551  0.69577838  0.09937076  1
  Zr  Zr24  1  0.70213951  0.10747755  0.09613355  1
  Zr  Zr25  1  0.89710690  0.50448348  0.90024303  1
  Zr  Zr26  1  0.89920739  0.90188725  0.90047500  1
  Zr  Zr27  1  0.09614771  0.69923731  0.29898973  1
  Zr  Zr28  1  0.29372193  0.49524810  0.50869462  1
  Zr  Zr29  1  0.30209869  0.10344135  0.30537909  1
  Zr  Zr30  1  0.08773960  0.69323883  0.49746089  1
  Zr  Zr31  1  0.50102479  0.90607239  0.50340898  1
  Zr  Zr32  1  0.89803760  0.50881372  0.10043985  1
  Zr  Zr33  1  0.30546259  0.69928865  0.50710182  1
  Zr  Zr34  1  0.49992151  0.70094179  0.69650001  1
  Zr  Zr35  1  0.10319061  0.50277218  0.70020866  1
  Zr  Zr36  1  0.29345208  0.90412111  0.70442894  1
  Zr  Zr37  1  0.49713639  0.09823116  0.89602142  1
  Zr  Zr38  1  0.70320327  0.30582132  0.90942753  1
  Zr  Zr39  1  0.29936159  0.29921875  0.10787486  1
  Zr  Zr40  1  0.89720032  0.69387291  0.29887059  1
  Zr  Zr41  1  0.50287798  0.91393718  0.30279099  1
  Zr  Zr42  1  0.90527345  0.69838066  0.09601291  1
  Zr  Zr43  1  0.90595614  0.89461902  0.50038600  1
  Zr  Zr44  1  0.09444080  0.09976656  0.69644184  1
  Zr  Zr45  1  0.50097713  0.70120308  0.50161080  1
  Zr  Zr46  1  0.10066785  0.30104373  0.09795630  1
  Zr  Zr47  1  0.50324929  0.48788661  0.70429440  1
  Zr  Zr48  1  0.70545043  0.30383870  0.29492796  1
  Zr  Zr49  1  0.70565041  0.10477260  0.69078344  1
  Sc  Sc50  1  0.10103531  0.10683384  0.10264050  1
  Sc  Sc51  1  0.29838015  0.30315461  0.50334634  1
  Sc  Sc52  1  0.10521394  0.10146429  0.50536056  1
  Sc  Sc53  1  0.89522486  0.88753458  0.29469030  1
  Sc  Sc54  1  0.29215296  0.30445787  0.89981493  1
  Sc  Sc55  1  0.30451770  0.48949801  0.31002308  1
  Sc  Sc56  1  0.89975217  0.09782349  0.51814241  1
  Sc  Sc57  1  0.09906425  0.30162862  0.50961817  1
  Sc  Sc58  1  0.69533862  0.90633494  0.50459577  1
  Sc  Sc59  1  0.50790269  0.49943398  0.89786488  1
  Sc  Sc60  1  0.48865045  0.30094994  0.30263503  1
  Sc  Sc61  1  0.90126516  0.69259333  0.49229949  1
  Sc  Sc62  1  0.90003578  0.90999765  0.69839018  1
  Sc  Sc63  1  0.29520128  0.10298895  0.11150974  1
  Sc  Sc64  1  0.10073678  0.29913902  0.29843941  1
  Sc  Sc65  1  0.10038392  0.50146754  0.31025596  1
  Sc  Sc66  1  0.29710724  0.91026047  0.29419309  1
  Sc  Sc67  1  0.29997444  0.89793056  0.89944861  1
  Sc  Sc68  1  0.69727907  0.09744862  0.90391297  1
  Sc  Sc69  1  0.50090895  0.89940933  0.09498031  1
  Sc  Sc70  1  0.70037659  0.90427091  0.70479384  1
  Sc  Sc71  1  0.69883346  0.09503519  0.50964234  1
  Sc  Sc72  1  0.50350234  0.68239825  0.29809649  1
  Sc  Sc73  1  0.51216157  0.09873725  0.10129514  1
  Sc  Sc74  1  0.29682174  0.69925949  0.90526643  1
  Sc  Sc75  1  0.29643435  0.10485153  0.50636584  1
  Sc  Sc76  1  0.09417201  0.09867813  0.89472273  1
  Sc  Sc77  1  0.10221922  0.89483578  0.90043884  1
  Sc  Sc78  1  0.69176958  0.08958188  0.28560524  1
  Sc  Sc79  1  0.50098519  0.90240984  0.69439577  1
  Sc  Sc80  1  0.10193832  0.89196963  0.09544242  1
  Sc  Sc81  1  0.90251331  0.30871587  0.50600483  1
  Sc  Sc82  1  0.29648306  0.70497730  0.29096133  1
  Sc  Sc83  1  0.90227700  0.31390512  0.89304118  1
  Sc  Sc84  1  0.90214102  0.68573624  0.69870885  1
  Sc  Sc85  1  0.29255286  0.69655562  0.69715011  1
  Sc  Sc86  1  0.10910257  0.89989273  0.29909242  1
  Sc  Sc87  1  0.49130406  0.10123164  0.69966459  1
  Sc  Sc88  1  0.49782527  0.30157566  0.50960662  1
  Sc  Sc89  1  0.50286027  0.90594438  0.90229991  1
  Sc  Sc90  1  0.29576010  0.50050707  0.89974252  1
  Sc  Sc91  1  0.10856687  0.70058450  0.90282614  1
  Sc  Sc92  1  0.89431681  0.09971423  0.09412092  1
  Sc  Sc93  1  0.30310368  0.89490673  0.10567531  1
  Sc  Sc94  1  0.49624505  0.69926972  0.09789180  1
  Sc  Sc95  1  0.29948134  0.90733479  0.50673240  1
  Sc  Sc96  1  0.29875411  0.50702167  0.10121161  1
  Sc  Sc97  1  0.30740702  0.30597915  0.69106120  1
  Sc  Sc98  1  0.89734225  0.10680827  0.28144168  1
  Sc  Sc99  1  0.69943755  0.50599780  0.30557134  1
  Nb  Nb100  1  0.50512881  0.49572525  0.30152962  1
  Nb  Nb101  1  0.50339902  0.30219508  0.09528122  1
  Nb  Nb102  1  0.50801451  0.29933308  0.70088008  1
  Nb  Nb103  1  0.70262155  0.70322040  0.30736625  1
  Nb  Nb104  1  0.70137175  0.69450332  0.49501934  1
  Nb  Nb105  1  0.09825025  0.29970728  0.70497774  1
  Nb  Nb106  1  0.50016172  0.09823438  0.31220452  1
  Nb  Nb107  1  0.29925953  0.49824180  0.70016012  1
  Nb  Nb108  1  0.70136846  0.49847947  0.89272981  1
  Nb  Nb109  1  0.89905572  0.49202979  0.30347918  1
  Nb  Nb110  1  0.69884840  0.89227436  0.90647960  1
  Nb  Nb111  1  0.09362715  0.89690257  0.49724848  1
  Nb  Nb112  1  0.09471575  0.89671134  0.69924737  1
  Nb  Nb113  1  0.89649712  0.70888664  0.90336490  1
  Nb  Nb114  1  0.90389653  0.10228375  0.89581053  1
  Nb  Nb115  1  0.70242753  0.30485124  0.69555687  1
  Nb  Nb116  1  0.91200360  0.49844806  0.49491789  1
  Nb  Nb117  1  0.50696041  0.09464029  0.49499014  1
  Nb  Nb118  1  0.10181346  0.30220957  0.89911464  1
  Nb  Nb119  1  0.70153159  0.49722326  0.70263233  1
  Nb  Nb120  1  0.29340467  0.10280696  0.70458949  1
  Nb  Nb121  1  0.09176087  0.49798417  0.49905309  1
  Nb  Nb122  1  0.70119626  0.89995306  0.29941865  1
  Nb  Nb123  1  0.89714163  0.29730658  0.69802700  1
  Nb  Nb124  1  0.09749177  0.70185127  0.70230032  1
  Nb  Nb125  1  0.20173097  0.79942237  0.40888092  1
  Nb  Nb126  1  0.40130921  0.20542891  0.00265798  1
  Nb  Nb127  1  -0.00365980  0.00394230  0.39490512  1
  Nb  Nb128  1  0.79907764  0.19282332  0.40091862  1
  Nb  Nb129  1  0.60591252  0.79979362  0.20936137  1
  Nb  Nb130  1  0.40231254  0.80258761  0.40083915  1
  Nb  Nb131  1  0.60562869  0.59534459  0.59868460  1
  Nb  Nb132  1  0.79708555  0.79291665  0.59764103  1
  Nb  Nb133  1  0.80451139  0.00328964  0.39587201  1
  Nb  Nb134  1  0.00041184  0.79648152  0.79699807  1
  Nb  Nb135  1  0.19803027  0.20191275  0.79405243  1
  Nb  Nb136  1  0.60033255  0.19396502  0.40042181  1
  Nb  Nb137  1  -0.00625719  0.19367328  0.40025478  1
  Nb  Nb138  1  0.60142659  0.79926594  0.39639187  1
  Nb  Nb139  1  -0.00557319  0.40398163  0.19952633  1
  Nb  Nb140  1  0.80014971  0.20501037  0.79688000  1
  Nb  Nb141  1  0.20262267  0.00336145  -0.00058525  1
  Nb  Nb142  1  0.60546891  0.20695072  0.79275919  1
  Nb  Nb143  1  0.59348455  0.40380139  0.19823959  1
  Nb  Nb144  1  0.18614603  0.80100072  0.59914726  1
  Nb  Nb145  1  0.40451632  0.39686608  0.00575497  1
  Nb  Nb146  1  0.40043640  0.79506041  0.79567735  1
  Nb  Nb147  1  0.00003805  -0.00218548  0.19980107  1
  Nb  Nb148  1  0.40007187  0.59967427  0.79566112  1
  Nb  Nb149  1  -0.00159605  0.20531330  -0.00661673  1
  Pd  Pd150  1  0.39783747  0.21167693  0.80177294  1
  Pd  Pd151  1  0.79506212  0.59641379  0.20666645  1
  Pd  Pd152  1  0.19204198  0.40799572  0.20237963  1
  Pd  Pd153  1  0.39302040  0.40173555  0.80592096  1
  Pd  Pd154  1  0.59877850  0.40711237  0.59386067  1
  Pd  Pd155  1  0.79486557  0.00535401  0.80649719  1
  Pd  Pd156  1  0.80981428  0.80048925  0.78821597  1
  Pd  Pd157  1  0.79559987  0.79788557  0.19120778  1
  Pd  Pd158  1  -0.00800095  0.79320139  0.60775725  1
  Pd  Pd159  1  0.19414450  0.39217466  0.40497909  1
  Pd  Pd160  1  0.61050763  0.79676421  0.59507184  1
  Pd  Pd161  1  0.00381832  0.39957310  0.60731240  1
  Pd  Pd162  1  0.59833570  0.38793180  0.39685466  1
  Pd  Pd163  1  0.40442240  0.20333068  0.41305972  1
  Pd  Pd164  1  -0.00938978  0.39419296  0.00835463  1
  Pd  Pd165  1  0.41075547  0.19107619  0.19523723  1
  Pd  Pd166  1  0.39793676  0.00794961  0.60390361  1
  Pd  Pd167  1  0.20659347  0.60520905  0.40033361  1
  Pd  Pd168  1  0.19162839  0.60309419  0.59673370  1
  Pd  Pd169  1  0.39921602  0.80073981  -0.00789277  1
  Pd  Pd170  1  0.00258339  0.60493056  0.80743429  1
  Pd  Pd171  1  0.20030735  0.19178418  -0.01114239  1
  Pd  Pd172  1  0.19198469  0.20575782  0.40601109  1
  Pd  Pd173  1  0.59322569  0.80953091  0.80041154  1
  Pd  Pd174  1  0.00901122  0.00849810  0.00501561  1
  Pd  Pd175  1  0.59258446  0.20734829  0.21073053  1
  Pd  Pd176  1  0.20444849  0.60122248  0.80326148  1
  Pd  Pd177  1  0.40538640  0.00820903  0.19420532  1
  Pd  Pd178  1  0.38856320  -0.00193093  0.40520005  1
  Pd  Pd179  1  0.60306741  0.00550203  0.79638030  1
  Pd  Pd180  1  -0.00081093  0.20845069  0.80414939  1
  Pd  Pd181  1  0.80141652  0.59923995  0.59497589  1
  Pd  Pd182  1  0.79382262  0.80768865  0.40994126  1
  Pd  Pd183  1  0.41287861  0.79833165  0.21006105  1
  Pd  Pd184  1  0.19058806  0.00295624  0.80590257  1
  Pd  Pd185  1  0.39204636  0.59702739  0.20848308  1
  Pd  Pd186  1  0.20406294  0.59149417  0.20908197  1
  Pd  Pd187  1  0.20792276  0.40500043  0.00565969  1
  Pd  Pd188  1  0.39270902  0.00836815  0.01040978  1
  Pd  Pd189  1  0.40738808  0.58827324  0.60762379  1
  Pd  Pd190  1  0.60401062  0.59812647  -0.00720375  1
  Pd  Pd191  1  0.00528421  0.60653680  -0.01272833  1
  Pd  Pd192  1  0.38979624  0.60535796  0.39213972  1
  Pd  Pd193  1  0.40504380  0.40684163  0.19594662  1
  Pd  Pd194  1  0.40177660  0.19654740  0.59773596  1
  Pd  Pd195  1  0.80128649  0.39263039  0.40673945  1
  Pd  Pd196  1  0.00444865  0.80584825  0.20090113  1
  Pd  Pd197  1  0.19296944  -0.00426683  0.59861953  1
  Pd  Pd198  1  0.79836445  0.00277929  -0.00713498  1
  Pd  Pd199  1  0.80011887  0.60113185  0.80393001  1
  Rh  Rh200  1  0.19406521  0.40153937  0.60385836  1
  Rh  Rh201  1  0.40041848  0.59262266  -0.01154292  1
  Rh  Rh202  1  0.19720262  -0.00485321  0.40815583  1
  Rh  Rh203  1  0.19837629  0.20312470  0.20660724  1
  Rh  Rh204  1  0.60240712  0.60247601  0.40309955  1
  Rh  Rh205  1  0.59163990  0.19316719  -0.01066543  1
  Rh  Rh206  1  -0.00145348  0.20428309  0.59663665  1
  Rh  Rh207  1  0.40332548  0.40348435  0.59886016  1
  Rh  Rh208  1  0.00626735  0.00132222  0.59359539  1
  Rh  Rh209  1  0.79585639  0.39633858  0.79733046  1
  Rh  Rh210  1  0.80724631  0.59418963  0.39893027  1
  Rh  Rh211  1  0.00669484  0.80520522  0.38864077  1
  Rh  Rh212  1  0.19163957  -0.00484965  0.18502609  1
  Rh  Rh213  1  0.59661738  0.00616341  0.60865879  1
  Rh  Rh214  1  -0.00132721  0.59078071  0.20877714  1
  Rh  Rh215  1  0.80394557  0.40364486  0.59752192  1
  Rh  Rh216  1  0.20316362  0.39297092  0.79085737  1
  Rh  Rh217  1  0.79648744  0.40856312  0.19725462  1
  Rh  Rh218  1  0.79558401  0.79829512  0.00487648  1
  Rh  Rh219  1  0.00279441  -0.01123555  0.80358095  1
  Rh  Rh220  1  0.20163423  0.20515064  0.61098824  1
  Rh  Rh221  1  0.39898906  0.39570312  0.40459695  1
  Rh  Rh222  1  0.00495077  0.20262157  0.19464547  1
  Rh  Rh223  1  0.61280300  0.39491886  0.79895091  1
  Rh  Rh224  1  0.20707468  0.80716893  0.00421323  1
  Rh  Rh225  1  0.78871502  0.19526247  0.20350543  1
  Rh  Rh226  1  0.19935225  0.79679832  0.79197219  1
  Rh  Rh227  1  0.61417487  0.00312820  0.40094222  1
  Rh  Rh228  1  0.59003529  0.19504836  0.60153311  1
  Rh  Rh229  1  0.19533049  0.59421721  -0.00324677  1
  Rh  Rh230  1  0.79712359  0.60585481  -0.01048712  1
  Rh  Rh231  1  0.81049158  -0.00432625  0.20191207  1
  Rh  Rh232  1  0.80857584  0.20264235  0.60112356  1
  Rh  Rh233  1  -0.00026331  0.59258070  0.60175929  1
  Rh  Rh234  1  0.40194690  -0.01107853  0.79323884  1
  Rh  Rh235  1  -0.00554217  0.59425783  0.39295769  1
  Rh  Rh236  1  0.59425300  0.41331639  0.00615096  1
  Rh  Rh237  1  0.00047752  0.39979137  0.79410926  1
  Rh  Rh238  1  0.38586714  0.80869336  0.60462195  1
  Rh  Rh239  1  0.60460425  0.80433773  0.00947048  1
  Rh  Rh240  1  0.59472397  -0.00490042  0.19536056  1
  Rh  Rh241  1  0.80529132  0.40437329  -0.00112954  1
  Rh  Rh242  1  0.80141558  -0.01344825  0.59403442  1
  Rh  Rh243  1  0.81157216  0.20020358  -0.01486338  1
  Rh  Rh244  1  0.00406964  0.39304881  0.39536196  1
  Rh  Rh245  1  0.60380811  -0.00152217  -0.00213937  1
  Rh  Rh246  1  0.60767538  0.59918684  0.20478241  1
  Rh  Rh247  1  0.19984667  0.79990445  0.20277835  1
  Rh  Rh248  1  0.00347767  0.79303937  -0.00982313  1
  Rh  Rh249  1  0.59747591  0.59508938  0.79481379  1
