# generated using pymatgen
data_ZrScNbPdRh
_symmetry_space_group_name_H-M   'P 1'
_cell_length_a   16.55074133
_cell_length_b   16.55060097
_cell_length_c   16.55197850
_cell_angle_alpha   89.98206611
_cell_angle_beta   89.96709179
_cell_angle_gamma   90.00387999
_symmetry_Int_Tables_number   1
_chemical_formula_structural   ZrScNbPdRh
_chemical_formula_sum   'Zr50 Sc50 Nb50 Pd50 Rh50'
_cell_volume   4533.99502171
_cell_formula_units_Z   50
loop_
 _symmetry_equiv_pos_site_id
 _symmetry_equiv_pos_as_xyz
  1  'x, y, z'
loop_
 _atom_site_type_symbol
 _atom_site_label
 _atom_site_symmetry_multiplicity
 _atom_site_fract_x
 _atom_site_fract_y
 _atom_site_fract_z
 _atom_site_occupancy
  Zr  Zr0  1  0.09062290  0.29849992  0.30317212  1
  Zr  Zr1  1  0.29487324  0.69973428  0.10294533  1
  Zr  Zr2  1  0.70963715  0.31310173  0.30420760  1
  Zr  Zr3  1  0.50852495  0.90868726  0.09831114  1
  Zr  Zr4  1  0.69576295  0.69274928  0.70246948  1
  Zr  Zr5  1  0.29717639  0.49764335  0.09950213  1
  Zr  Zr6  1  0.69996935  0.50133880  0.49875281  1
  Zr  Zr7  1  0.50111195  0.50346778  0.08195070  1
  Zr  Zr8  1  0.50247746  0.69997154  0.30055017  1
  Zr  Zr9  1  0.70753231  0.90172334  0.89947425  1
  Zr  Zr10  1  0.10417015  0.70788373  0.70632039  1
  Zr  Zr11  1  0.30760145  0.29657396  0.30653828  1
  Zr  Zr12  1  0.89698591  0.69777357  0.69852674  1
  Zr  Zr13  1  0.30493326  0.70230037  0.69623582  1
  Zr  Zr14  1  0.50314416  0.89971122  0.30796597  1
  Zr  Zr15  1  0.49838082  0.90343209  0.50003661  1
  Zr  Zr16  1  0.69922172  0.89987030  0.29905633  1
  Zr  Zr17  1  0.49892439  0.29839352  0.49743803  1
  Zr  Zr18  1  0.90267075  0.29921860  0.49561844  1
  Zr  Zr19  1  0.10258030  0.70018582  0.89794579  1
  Zr  Zr20  1  0.90109209  0.09727177  0.90163057  1
  Zr  Zr21  1  0.10317540  0.30761902  0.49812042  1
  Zr  Zr22  1  0.09686828  0.09885164  0.29969573  1
  Zr  Zr23  1  0.10773061  0.70253726  0.10413058  1
  Zr  Zr24  1  0.89817772  0.09929219  0.10467218  1
  Zr  Zr25  1  0.70625986  0.30649512  0.50415167  1
  Zr  Zr26  1  0.70069958  0.68453173  0.29872314  1
  Zr  Zr27  1  0.30532864  0.69109676  0.89339437  1
  Zr  Zr28  1  0.29302543  0.10324935  0.89631169  1
  Zr  Zr29  1  0.49740096  0.89257416  0.69823762  1
  Zr  Zr30  1  0.49443245  0.11497403  0.29313584  1
  Zr  Zr31  1  0.09343849  0.89989331  0.10494415  1
  Zr  Zr32  1  0.09600933  0.49922774  0.69775723  1
  Zr  Zr33  1  0.08891717  0.89057143  0.89975103  1
  Zr  Zr34  1  0.09731174  0.10187610  0.69691543  1
  Zr  Zr35  1  0.71024275  0.89873133  0.10055241  1
  Zr  Zr36  1  0.90729458  0.69199099  0.49958938  1
  Zr  Zr37  1  0.89289639  0.49074846  0.90279526  1
  Zr  Zr38  1  0.30459682  0.50533579  0.70314053  1
  Zr  Zr39  1  0.70095630  0.09312333  0.10624522  1
  Zr  Zr40  1  0.50527537  0.69193847  0.89739247  1
  Zr  Zr41  1  0.90493060  0.88991306  0.29686013  1
  Zr  Zr42  1  0.50238484  0.30571122  0.90067912  1
  Zr  Zr43  1  0.09519722  0.09893810  0.09917132  1
  Zr  Zr44  1  0.70056670  0.90177932  0.69581754  1
  Zr  Zr45  1  0.49858771  0.09328134  0.89616000  1
  Zr  Zr46  1  0.69995786  0.09699046  0.49992126  1
  Zr  Zr47  1  0.29291607  0.09594093  0.09969632  1
  Zr  Zr48  1  0.09367214  0.50331669  0.49781667  1
  Zr  Zr49  1  0.89666388  0.90300697  0.09014144  1
  Sc  Sc50  1  0.08636575  0.49338209  0.90276403  1
  Sc  Sc51  1  0.69501418  0.49979112  0.89972579  1
  Sc  Sc52  1  0.49392980  0.69024424  0.50254573  1
  Sc  Sc53  1  0.29726800  0.89139592  0.68441087  1
  Sc  Sc54  1  0.10344943  0.10439727  0.50449067  1
  Sc  Sc55  1  0.69880891  0.30155914  0.88518223  1
  Sc  Sc56  1  0.89305484  0.50128114  0.30292680  1
  Sc  Sc57  1  0.30360614  0.30831730  0.10386148  1
  Sc  Sc58  1  0.09662892  0.10766905  0.90146014  1
  Sc  Sc59  1  0.90428778  0.30650252  0.10697193  1
  Sc  Sc60  1  0.09708267  0.29278939  0.89960642  1
  Sc  Sc61  1  0.29876442  0.70620665  0.49943578  1
  Sc  Sc62  1  0.11022839  0.90258433  0.50178069  1
  Sc  Sc63  1  0.50530938  0.30063344  0.70323229  1
  Sc  Sc64  1  0.09936071  0.70377504  0.30503022  1
  Sc  Sc65  1  0.50411238  0.50647605  0.69829319  1
  Sc  Sc66  1  0.29510234  0.09866124  0.30663652  1
  Sc  Sc67  1  0.29837029  0.50407535  0.30343017  1
  Sc  Sc68  1  0.49775539  0.09736750  0.69055331  1
  Sc  Sc69  1  0.70106060  0.69420016  0.89600347  1
  Sc  Sc70  1  0.90829013  0.69575927  0.30102776  1
  Sc  Sc71  1  0.69932062  0.69347417  0.10230277  1
  Sc  Sc72  1  0.49983969  0.50314627  0.31387876  1
  Sc  Sc73  1  0.70479760  0.50270961  0.10451473  1
  Sc  Sc74  1  0.29916536  0.30357818  0.90299808  1
  Sc  Sc75  1  0.90116178  0.11048958  0.69870748  1
  Sc  Sc76  1  0.09826433  0.29356959  0.69747700  1
  Sc  Sc77  1  0.28899938  0.69892675  0.30452131  1
  Sc  Sc78  1  0.90046538  0.49914010  0.70631396  1
  Sc  Sc79  1  0.49786413  0.09796123  0.49840798  1
  Sc  Sc80  1  0.70225854  0.49572805  0.70161403  1
  Sc  Sc81  1  0.70607417  0.10457751  0.88973704  1
  Sc  Sc82  1  0.50105398  0.30288661  0.30328258  1
  Sc  Sc83  1  0.49647274  0.69721840  0.69931190  1
  Sc  Sc84  1  0.30770283  0.90446312  0.89506410  1
  Sc  Sc85  1  0.69243943  0.90809245  0.49130348  1
  Sc  Sc86  1  0.70016703  0.30825177  0.11206783  1
  Sc  Sc87  1  0.70402326  0.10020960  0.30097421  1
  Sc  Sc88  1  0.49903169  0.89746339  0.88999356  1
  Sc  Sc89  1  0.89391970  0.29750660  0.70069812  1
  Sc  Sc90  1  0.29473022  0.10801368  0.68735444  1
  Sc  Sc91  1  0.90134031  0.69698290  0.90173240  1
  Sc  Sc92  1  0.28310062  0.90036093  0.10162124  1
  Sc  Sc93  1  0.10346800  0.89519162  0.30216902  1
  Sc  Sc94  1  0.90054319  0.89561744  0.49995910  1
  Sc  Sc95  1  0.89216121  0.70142182  0.10131099  1
  Sc  Sc96  1  0.10922090  0.49916674  0.30543338  1
  Sc  Sc97  1  0.89750010  0.11067711  0.29796214  1
  Sc  Sc98  1  0.29384288  0.50365548  0.49309863  1
  Sc  Sc99  1  0.49881010  0.30197088  0.11225841  1
  Nb  Nb100  1  0.30017969  0.28924168  0.50869907  1
  Nb  Nb101  1  0.29820906  0.90724642  0.48970188  1
  Nb  Nb102  1  0.70482402  0.10571618  0.70146322  1
  Nb  Nb103  1  0.70320723  0.28991261  0.70011865  1
  Nb  Nb104  1  0.50054553  0.70106358  0.09822029  1
  Nb  Nb105  1  0.31259735  0.49692947  0.90351823  1
  Nb  Nb106  1  0.09949269  0.49207245  0.10109685  1
  Nb  Nb107  1  0.89881532  0.29579367  0.30092462  1
  Nb  Nb108  1  0.89531987  0.90081376  0.89897909  1
  Nb  Nb109  1  0.90173044  0.10097001  0.50080134  1
  Nb  Nb110  1  0.10001918  0.30849695  0.10488973  1
  Nb  Nb111  1  0.49900257  0.10261871  0.09852737  1
  Nb  Nb112  1  0.49125232  0.50084353  0.90098398  1
  Nb  Nb113  1  0.89777395  0.29925927  0.90098495  1
  Nb  Nb114  1  0.29943891  0.90184265  0.30596125  1
  Nb  Nb115  1  0.29925002  0.29802871  0.69717817  1
  Nb  Nb116  1  0.29792765  0.10269672  0.50119205  1
  Nb  Nb117  1  0.49380712  0.50043692  0.50813468  1
  Nb  Nb118  1  0.90801592  0.50220018  0.50406747  1
  Nb  Nb119  1  0.70374563  0.50051878  0.30069343  1
  Nb  Nb120  1  0.91044238  0.50037054  0.09127623  1
  Nb  Nb121  1  0.90138532  0.90113613  0.70060180  1
  Nb  Nb122  1  0.09550817  0.69993949  0.49930865  1
  Nb  Nb123  1  0.70585061  0.69926135  0.50724353  1
  Nb  Nb124  1  0.09942081  0.90040472  0.69719676  1
  Nb  Nb125  1  0.19371134  0.20440031  0.19840421  1
  Nb  Nb126  1  0.00496037  0.59116928  0.19126796  1
  Nb  Nb127  1  0.40350032  0.60695338  0.19599533  1
  Nb  Nb128  1  0.20502040  0.40055797  0.79775051  1
  Nb  Nb129  1  0.19950555  0.59036603  -0.00168396  1
  Nb  Nb130  1  0.60009983  0.19732500  0.00250998  1
  Nb  Nb131  1  -0.00154573  -0.00731207  0.79600959  1
  Nb  Nb132  1  0.19367903  0.60475690  0.60150696  1
  Nb  Nb133  1  0.39800100  0.20109102  0.80070342  1
  Nb  Nb134  1  0.39611802  0.39710570  0.59764059  1
  Nb  Nb135  1  0.79499291  0.79177131  0.40352310  1
  Nb  Nb136  1  0.19140352  -0.00234791  0.79212982  1
  Nb  Nb137  1  0.59854197  0.79960880  0.00086565  1
  Nb  Nb138  1  0.60449376  0.00175612  0.79171600  1
  Nb  Nb139  1  0.79678222  0.20452912  0.00182856  1
  Nb  Nb140  1  0.80439729  0.80409948  0.79669300  1
  Nb  Nb141  1  0.39911521  -0.00381322  0.20044798  1
  Nb  Nb142  1  0.80342379  0.00380296  0.60063287  1
  Nb  Nb143  1  0.60375366  0.79641506  0.59635001  1
  Nb  Nb144  1  -0.00211135  0.00338433  0.40388601  1
  Nb  Nb145  1  0.00349449  0.80090041  0.60432940  1
  Nb  Nb146  1  0.40555466  0.79719355  0.00640954  1
  Nb  Nb147  1  0.40094264  0.80378343  0.19978046  1
  Nb  Nb148  1  0.60867396  0.20141629  0.60200411  1
  Nb  Nb149  1  0.40547384  0.19575496  0.00008512  1
  Pd  Pd150  1  0.40870205  0.41480193  0.20290453  1
  Pd  Pd151  1  0.59281278  0.41221217  0.20683319  1
  Pd  Pd152  1  0.60835161  0.00234682  -0.01106980  1
  Pd  Pd153  1  0.40244680  0.01029857  0.39568255  1
  Pd  Pd154  1  0.60841151  0.20472370  0.19974581  1
  Pd  Pd155  1  0.59277176  0.58916480  0.19747930  1
  Pd  Pd156  1  -0.00767087  0.39359791  0.60556295  1
  Pd  Pd157  1  0.59568030  0.39650028  0.60429152  1
  Pd  Pd158  1  0.60202610  0.79886460  0.19442535  1
  Pd  Pd159  1  0.39656515  0.79391454  0.39961919  1
  Pd  Pd160  1  0.20998425  0.79979360  -0.01234705  1
  Pd  Pd161  1  0.60719623  0.39265808  0.00111958  1
  Pd  Pd162  1  0.79597839  0.59917955  0.00065776  1
  Pd  Pd163  1  -0.00601029  0.40755602  0.20942512  1
  Pd  Pd164  1  0.80787258  0.40540170  0.60310739  1
  Pd  Pd165  1  0.59512186  0.00495180  0.20934166  1
  Pd  Pd166  1  0.60109150  0.40654227  0.79446490  1
  Pd  Pd167  1  0.79949696  0.80702206  0.59671333  1
  Pd  Pd168  1  0.79331793  0.39280142  0.00043069  1
  Pd  Pd169  1  0.81003372  -0.00651914  0.39937586  1
  Pd  Pd170  1  0.80468976  0.59993940  0.40319915  1
  Pd  Pd171  1  0.19808124  0.20120851  0.39851460  1
  Pd  Pd172  1  0.79923043  0.79050845  0.20849011  1
  Pd  Pd173  1  0.39099587  0.00644826  0.78314635  1
  Pd  Pd174  1  0.80146933  0.58776599  0.60276762  1
  Pd  Pd175  1  -0.00488054  0.59872275  0.80329875  1
  Pd  Pd176  1  0.20608945  0.40667162  0.60345327  1
  Pd  Pd177  1  -0.00585185  -0.00127095  0.20870623  1
  Pd  Pd178  1  0.59870036  0.59901180  0.40999902  1
  Pd  Pd179  1  -0.00627977  0.40674332  0.39273685  1
  Pd  Pd180  1  0.79872087  0.20092074  0.39916912  1
  Pd  Pd181  1  0.20420969  0.21159430  0.00997473  1
  Pd  Pd182  1  0.81078158  0.40790750  0.19780280  1
  Pd  Pd183  1  0.19553868  0.40108903  -0.01131252  1
  Pd  Pd184  1  0.39787749  0.39468871  0.79238283  1
  Pd  Pd185  1  0.60014378  0.40453804  0.40028949  1
  Pd  Pd186  1  0.39474455  -0.00383431  0.00694989  1
  Pd  Pd187  1  -0.00733682  0.79212303  0.00514674  1
  Pd  Pd188  1  0.39404162  0.40133325  0.40855391  1
  Pd  Pd189  1  0.19009174  -0.00546033  -0.01279620  1
  Pd  Pd190  1  0.19664024  0.58711460  0.80505828  1
  Pd  Pd191  1  -0.00500268  -0.00366440  0.59607490  1
  Pd  Pd192  1  0.20184077  0.39500417  0.21185045  1
  Pd  Pd193  1  0.60586994  0.20152779  0.40330889  1
  Pd  Pd194  1  0.60638183  0.78778404  0.40900454  1
  Pd  Pd195  1  0.00559305  0.60631569  0.00483440  1
  Pd  Pd196  1  0.00252573  0.38900203  0.79970095  1
  Pd  Pd197  1  0.39066497  -0.00157068  0.60060372  1
  Pd  Pd198  1  -0.00772498  0.20851189  0.00693199  1
  Pd  Pd199  1  0.21074517  0.81066037  0.80299773  1
  Rh  Rh200  1  0.41092706  0.20718276  0.60370976  1
  Rh  Rh201  1  0.19936105  0.80234253  0.40362587  1
  Rh  Rh202  1  0.79322279  0.79210476  -0.00933196  1
  Rh  Rh203  1  -0.01003280  0.80204408  0.79511158  1
  Rh  Rh204  1  0.80947687  0.59358563  0.19563247  1
  Rh  Rh205  1  0.20664216  0.00127133  0.60008927  1
  Rh  Rh206  1  0.00316528  -0.00169062  -0.00698914  1
  Rh  Rh207  1  -0.00549837  0.19730721  0.80064103  1
  Rh  Rh208  1  0.40667784  0.80215545  0.58844966  1
  Rh  Rh209  1  0.60550014  0.60348766  -0.00288381  1
  Rh  Rh210  1  0.60931974  0.80692771  0.79756719  1
  Rh  Rh211  1  -0.00173818  0.19468657  0.40542356  1
  Rh  Rh212  1  -0.00125244  0.80651153  0.41109555  1
  Rh  Rh213  1  0.79807265  0.20602069  0.19660502  1
  Rh  Rh214  1  0.00564953  0.60634580  0.60722212  1
  Rh  Rh215  1  0.20339401  0.00262117  0.20818806  1
  Rh  Rh216  1  0.59081205  0.19056608  0.79521025  1
  Rh  Rh217  1  0.19456674  0.79505987  0.59080618  1
  Rh  Rh218  1  0.39273345  0.60500785  0.00448086  1
  Rh  Rh219  1  0.19696778  0.59371725  0.19551933  1
  Rh  Rh220  1  0.60274513  0.60322740  0.59735032  1
  Rh  Rh221  1  0.80149197  0.60092041  0.80312007  1
  Rh  Rh222  1  0.80746868  0.40636351  0.40421278  1
  Rh  Rh223  1  0.79768683  0.01072165  -0.00079911  1
  Rh  Rh224  1  0.00374280  0.20555040  0.19483628  1
  Rh  Rh225  1  0.38974221  0.59344419  0.59503063  1
  Rh  Rh226  1  0.39662496  0.60289954  0.39599830  1
  Rh  Rh227  1  0.79819106  0.39754997  0.79860697  1
  Rh  Rh228  1  0.59710947  0.59054361  0.80145071  1
  Rh  Rh229  1  0.40513279  0.38993630  0.00411959  1
  Rh  Rh230  1  0.20708350  0.39119003  0.40002167  1
  Rh  Rh231  1  0.80699482  -0.00162205  0.20885991  1
  Rh  Rh232  1  0.60825053  0.00314827  0.60454794  1
  Rh  Rh233  1  0.19436320  0.00175622  0.40313998  1
  Rh  Rh234  1  0.19335106  0.20181510  0.59719947  1
  Rh  Rh235  1  0.00195054  0.79075834  0.19382626  1
  Rh  Rh236  1  0.59119669  0.01289371  0.39124110  1
  Rh  Rh237  1  0.39702521  0.79625104  0.80432453  1
  Rh  Rh238  1  0.79777602  0.19550125  0.59309679  1
  Rh  Rh239  1  0.20585676  0.20192397  0.79561746  1
  Rh  Rh240  1  0.80815745  0.20476515  0.80697476  1
  Rh  Rh241  1  0.20307694  0.80706041  0.21081491  1
  Rh  Rh242  1  0.00400878  0.59396757  0.38831792  1
  Rh  Rh243  1  0.40875160  0.59928648  0.79730360  1
  Rh  Rh244  1  0.38512565  0.19187862  0.19201572  1
  Rh  Rh245  1  0.39782767  0.19634506  0.40575909  1
  Rh  Rh246  1  0.80333580  -0.00234146  0.79090951  1
  Rh  Rh247  1  0.00089265  0.39117503  -0.00249387  1
  Rh  Rh248  1  0.00065657  0.20709629  0.59420299  1
  Rh  Rh249  1  0.19600083  0.60652049  0.40906190  1
