# generated using pymatgen
data_ZrScNbPdRh
_symmetry_space_group_name_H-M   'P 1'
_cell_length_a   16.55814172
_cell_length_b   16.56555846
_cell_length_c   16.56351129
_cell_angle_alpha   89.98139852
_cell_angle_beta   89.95534520
_cell_angle_gamma   89.97198489
_symmetry_Int_Tables_number   1
_chemical_formula_structural   ZrScNbPdRh
_chemical_formula_sum   'Zr50 Sc50 Nb50 Pd50 Rh50'
_cell_volume   4543.28392658
_cell_formula_units_Z   50
loop_
 _symmetry_equiv_pos_site_id
 _symmetry_equiv_pos_as_xyz
  1  'x, y, z'
loop_
 _atom_site_type_symbol
 _atom_site_label
 _atom_site_symmetry_multiplicity
 _atom_site_fract_x
 _atom_site_fract_y
 _atom_site_fract_z
 _atom_site_occupancy
  Zr  Zr0  1  0.50318445  0.29811381  0.69370324  1
  Zr  Zr1  1  0.30533444  0.10680377  0.89303871  1
  Zr  Zr2  1  0.89380115  0.89745820  0.50068729  1
  Zr  Zr3  1  0.89435839  0.29874484  0.29465966  1
  Zr  Zr4  1  0.90490521  0.09775198  0.30348562  1
  Zr  Zr5  1  0.29334677  0.30405883  0.89783712  1
  Zr  Zr6  1  0.50683005  0.50174311  0.70380921  1
  Zr  Zr7  1  0.29490268  0.70042584  0.90172870  1
  Zr  Zr8  1  0.70617623  0.30879902  0.89325233  1
  Zr  Zr9  1  0.30337207  0.70019888  0.10011980  1
  Zr  Zr10  1  0.49959689  0.10498926  0.09607392  1
  Zr  Zr11  1  0.10067944  0.70099982  0.89755344  1
  Zr  Zr12  1  0.30614061  0.71057010  0.29316541  1
  Zr  Zr13  1  0.50810094  0.49917991  0.29720430  1
  Zr  Zr14  1  0.30100892  0.30901543  0.10153077  1
  Zr  Zr15  1  0.49752187  0.90212290  0.51170877  1
  Zr  Zr16  1  0.69629065  0.90849112  0.89912869  1
  Zr  Zr17  1  0.09819302  0.50091288  0.10629834  1
  Zr  Zr18  1  0.48569301  0.30054917  0.30286655  1
  Zr  Zr19  1  0.50044302  0.49669776  0.89913704  1
  Zr  Zr20  1  0.69574000  0.30073932  0.69894534  1
  Zr  Zr21  1  0.30187718  0.69992680  0.50407367  1
  Zr  Zr22  1  0.70868926  0.89777856  0.30008807  1
  Zr  Zr23  1  0.10093128  0.88932447  0.89936327  1
  Zr  Zr24  1  0.49743600  0.70219445  0.69801262  1
  Zr  Zr25  1  0.69732027  0.09169000  0.09483457  1
  Zr  Zr26  1  0.29616812  0.89699144  0.10545988  1
  Zr  Zr27  1  0.70636002  0.08899165  0.49876772  1
  Zr  Zr28  1  0.49239522  0.49951544  0.10230126  1
  Zr  Zr29  1  0.90684953  0.30600601  0.09530660  1
  Zr  Zr30  1  0.69315523  0.10022793  0.70333264  1
  Zr  Zr31  1  0.70297825  0.10478911  0.30216790  1
  Zr  Zr32  1  0.10169128  0.10684488  0.30394539  1
  Zr  Zr33  1  0.89176886  0.09256718  0.70506398  1
  Zr  Zr34  1  0.90260259  0.10358990  0.90529131  1
  Zr  Zr35  1  0.70586781  0.69672689  0.29827119  1
  Zr  Zr36  1  0.09345590  0.09880819  0.10522576  1
  Zr  Zr37  1  0.90090247  0.50016591  0.10605886  1
  Zr  Zr38  1  0.70001957  0.69147004  0.69418056  1
  Zr  Zr39  1  0.91037882  0.51095866  0.29853915  1
  Zr  Zr40  1  0.29449754  0.90205205  0.29611622  1
  Zr  Zr41  1  0.29948621  0.89439917  0.89142156  1
  Zr  Zr42  1  0.10625197  0.29328051  0.70365586  1
  Zr  Zr43  1  0.10372838  0.29639772  0.49848683  1
  Zr  Zr44  1  0.10069984  0.50168417  0.30243063  1
  Zr  Zr45  1  0.50266321  0.69732817  0.49860514  1
  Zr  Zr46  1  0.90699502  0.69752278  0.88874284  1
  Zr  Zr47  1  0.90359089  0.70308913  0.30056182  1
  Zr  Zr48  1  0.09937854  0.69336564  0.50118814  1
  Zr  Zr49  1  0.89909224  0.50876917  0.70544818  1
  Sc  Sc50  1  0.71168085  0.31335419  0.11124320  1
  Sc  Sc51  1  0.49154249  0.10292615  0.50251464  1
  Sc  Sc52  1  0.30101935  0.89113526  0.69123284  1
  Sc  Sc53  1  0.11006246  0.50411812  0.90326890  1
  Sc  Sc54  1  0.29711578  0.50114641  0.50475792  1
  Sc  Sc55  1  0.50055280  0.10382190  0.69700787  1
  Sc  Sc56  1  0.49465268  0.10116810  0.30014360  1
  Sc  Sc57  1  0.10411096  0.50254956  0.50091113  1
  Sc  Sc58  1  0.70019044  0.50708340  0.30062504  1
  Sc  Sc59  1  0.10341548  0.71143736  0.09785885  1
  Sc  Sc60  1  0.09584844  0.90032994  0.10225827  1
  Sc  Sc61  1  0.89918712  0.49911497  0.50613592  1
  Sc  Sc62  1  0.29870187  0.69929009  0.69958254  1
  Sc  Sc63  1  0.70303380  0.29952909  0.49948749  1
  Sc  Sc64  1  0.10314593  0.50035560  0.69620186  1
  Sc  Sc65  1  0.50115876  0.69344216  0.89552350  1
  Sc  Sc66  1  0.69778154  0.50149593  0.89596427  1
  Sc  Sc67  1  0.29447335  0.09937120  0.30163663  1
  Sc  Sc68  1  0.49702996  0.69124065  0.29601664  1
  Sc  Sc69  1  0.30199992  0.10073715  0.10492059  1
  Sc  Sc70  1  0.70186435  0.09869651  0.89144345  1
  Sc  Sc71  1  0.70175973  0.49315798  0.70287177  1
  Sc  Sc72  1  0.48804753  0.89850064  0.29652350  1
  Sc  Sc73  1  0.50759625  0.91307916  0.09214876  1
  Sc  Sc74  1  0.89060051  0.49563276  0.90471721  1
  Sc  Sc75  1  0.70544022  0.89538590  0.50363674  1
  Sc  Sc76  1  0.29759741  0.50190540  0.90927972  1
  Sc  Sc77  1  0.49138003  0.29327802  0.89463184  1
  Sc  Sc78  1  0.70038853  0.91385831  0.69279150  1
  Sc  Sc79  1  0.09197139  0.69530898  0.70309920  1
  Sc  Sc80  1  0.89725936  0.30734602  0.50104612  1
  Sc  Sc81  1  0.89531625  0.30645458  0.70094328  1
  Sc  Sc82  1  0.50262371  0.10121193  0.89528236  1
  Sc  Sc83  1  0.30226821  0.90156722  0.50197722  1
  Sc  Sc84  1  0.10447633  0.89750287  0.50132413  1
  Sc  Sc85  1  0.70444025  0.89823130  0.08784042  1
  Sc  Sc86  1  0.69880460  0.69909974  0.91186269  1
  Sc  Sc87  1  0.90068602  0.90147643  0.90561552  1
  Sc  Sc88  1  0.09707921  0.10578952  0.89152967  1
  Sc  Sc89  1  0.49250513  0.49929058  0.49836692  1
  Sc  Sc90  1  0.10104794  0.30633875  0.10739175  1
  Sc  Sc91  1  0.70434355  0.69558639  0.49972947  1
  Sc  Sc92  1  0.90385686  0.89167393  0.30150023  1
  Sc  Sc93  1  0.69999277  0.50756196  0.10420306  1
  Sc  Sc94  1  0.30590699  0.30298944  0.49476685  1
  Sc  Sc95  1  0.29956604  0.49083735  0.30844558  1
  Sc  Sc96  1  0.29669179  0.28979507  0.69746491  1
  Sc  Sc97  1  0.09770341  0.90226107  0.28977018  1
  Sc  Sc98  1  0.11025010  0.88839300  0.70161735  1
  Sc  Sc99  1  0.70507357  0.50098036  0.50015219  1
  Nb  Nb100  1  0.89843795  0.70464731  0.69583807  1
  Nb  Nb101  1  0.28602547  0.29976486  0.29953817  1
  Nb  Nb102  1  0.90029491  0.70474104  0.50811246  1
  Nb  Nb103  1  0.49938094  0.30131833  0.49498645  1
  Nb  Nb104  1  0.90428043  0.09472026  0.49894900  1
  Nb  Nb105  1  0.11209851  0.30342346  0.30179086  1
  Nb  Nb106  1  0.30132690  0.49504117  0.70135950  1
  Nb  Nb107  1  0.10801294  0.09829849  0.69184197  1
  Nb  Nb108  1  0.49951999  0.90082022  0.70154832  1
  Nb  Nb109  1  0.49894789  0.89802421  0.89295036  1
  Nb  Nb110  1  0.89119598  0.70411366  0.10735396  1
  Nb  Nb111  1  0.29151922  0.09577424  0.69736161  1
  Nb  Nb112  1  0.50034930  0.30638988  0.10434497  1
  Nb  Nb113  1  0.69429257  0.29974707  0.30246479  1
  Nb  Nb114  1  0.90240289  0.09915897  0.10010514  1
  Nb  Nb115  1  0.89820790  0.89566795  0.69904015  1
  Nb  Nb116  1  0.50241130  0.69939251  0.10173449  1
  Nb  Nb117  1  0.09475243  0.29609184  0.90372799  1
  Nb  Nb118  1  0.29174466  0.50166283  0.09279069  1
  Nb  Nb119  1  0.90184530  0.90615867  0.10340354  1
  Nb  Nb120  1  0.28746181  0.09118735  0.51547943  1
  Nb  Nb121  1  0.70093150  0.70430113  0.10427851  1
  Nb  Nb122  1  0.09520273  0.69453113  0.30100598  1
  Nb  Nb123  1  0.90583485  0.30051947  0.90439445  1
  Nb  Nb124  1  0.09823155  0.09804907  0.50396946  1
  Nb  Nb125  1  0.59872878  -0.00619814  0.39964931  1
  Nb  Nb126  1  0.19890773  0.79371403  0.39471625  1
  Nb  Nb127  1  0.80250386  0.20355181  0.00199842  1
  Nb  Nb128  1  0.20139281  0.60160040  0.20150065  1
  Nb  Nb129  1  0.60223703  0.80325885  0.79596431  1
  Nb  Nb130  1  0.59891498  0.20975842  0.19849029  1
  Nb  Nb131  1  0.19644634  0.19990694  0.00042834  1
  Nb  Nb132  1  0.40498101  0.80038104  -0.00120865  1
  Nb  Nb133  1  0.79780087  0.80033666  0.79432401  1
  Nb  Nb134  1  0.00280051  0.39507881  0.80727921  1
  Nb  Nb135  1  0.59874696  0.80101455  0.39537613  1
  Nb  Nb136  1  0.00252853  -0.00258165  0.79102812  1
  Nb  Nb137  1  -0.00130271  0.19066921  0.59882386  1
  Nb  Nb138  1  0.60249142  0.79703114  0.19726147  1
  Nb  Nb139  1  0.39917433  -0.00355620  0.79278499  1
  Nb  Nb140  1  0.80645357  0.00107534  0.19542448  1
  Nb  Nb141  1  0.59696553  0.39261159  0.39650304  1
  Nb  Nb142  1  0.59539943  0.39404709  0.00620138  1
  Nb  Nb143  1  -0.00450689  0.60506240  0.00365315  1
  Nb  Nb144  1  0.00483208  0.39758602  0.39531700  1
  Nb  Nb145  1  0.80486647  0.19196392  0.59938037  1
  Nb  Nb146  1  0.20056069  0.00334754  -0.00390552  1
  Nb  Nb147  1  0.00157378  0.00205473  0.60309869  1
  Nb  Nb148  1  0.60646169  0.21019023  0.00632358  1
  Nb  Nb149  1  0.39565416  0.40269527  0.79384770  1
  Pd  Pd150  1  0.00610668  0.80483048  0.60170664  1
  Pd  Pd151  1  0.60492463  -0.00315929  0.20841213  1
  Pd  Pd152  1  0.40055170  0.00244519  0.19959020  1
  Pd  Pd153  1  -0.00257663  0.19957142  0.78975985  1
  Pd  Pd154  1  0.00766812  0.41200089  -0.00631567  1
  Pd  Pd155  1  0.39068055  0.40650769  0.20390559  1
  Pd  Pd156  1  0.00928409  -0.00063011  -0.00754816  1
  Pd  Pd157  1  0.80415427  0.60174070  0.00233233  1
  Pd  Pd158  1  0.60665380  0.19486826  0.58814058  1
  Pd  Pd159  1  0.79942368  0.40437702  0.39454135  1
  Pd  Pd160  1  0.59223943  0.80011678  -0.00175467  1
  Pd  Pd161  1  0.39658366  0.59577706  0.39682069  1
  Pd  Pd162  1  0.60123711  0.40445270  0.58724145  1
  Pd  Pd163  1  0.20004099  -0.00094983  0.80001690  1
  Pd  Pd164  1  0.39805865  0.59766165  0.60402746  1
  Pd  Pd165  1  0.20825225  0.60591407  0.39378319  1
  Pd  Pd166  1  -0.00457257  0.20898257  0.40447604  1
  Pd  Pd167  1  -0.00191801  0.59725220  0.59870960  1
  Pd  Pd168  1  0.40256383  0.60533155  -0.00162709  1
  Pd  Pd169  1  0.00406871  0.20674707  0.20195456  1
  Pd  Pd170  1  0.39805764  0.20788712  0.00240886  1
  Pd  Pd171  1  0.20392720  0.39702692  0.59683422  1
  Pd  Pd172  1  0.80568872  0.20282744  0.40848159  1
  Pd  Pd173  1  0.59982672  0.59245424  0.00399194  1
  Pd  Pd174  1  0.39323356  0.19731215  0.59739333  1
  Pd  Pd175  1  0.39367283  0.59331859  0.80091610  1
  Pd  Pd176  1  0.00179171  0.39409044  0.60310734  1
  Pd  Pd177  1  0.38670580  0.19216794  0.40564305  1
  Pd  Pd178  1  0.80671092  0.79938090  -0.00541868  1
  Pd  Pd179  1  0.60120580  0.59020516  0.59467176  1
  Pd  Pd180  1  0.79509158  0.19378768  0.19107975  1
  Pd  Pd181  1  0.59609726  0.19782823  0.39995644  1
  Pd  Pd182  1  0.39826880  0.39838269  0.60428463  1
  Pd  Pd183  1  0.80241227  0.20499444  0.80035144  1
  Pd  Pd184  1  0.38970949  0.58934945  0.20320010  1
  Pd  Pd185  1  0.20958042  0.19511056  0.40789989  1
  Pd  Pd186  1  0.60649052  0.80204440  0.60016546  1
  Pd  Pd187  1  0.79350381  0.60489114  0.80336314  1
  Pd  Pd188  1  0.80874612  0.60284846  0.40686653  1
  Pd  Pd189  1  0.00801874  0.80222719  0.40141097  1
  Pd  Pd190  1  0.19809515  0.40239848  0.80056497  1
  Pd  Pd191  1  0.00636881  -0.00936567  0.40247907  1
  Pd  Pd192  1  0.39505714  -0.00553527  -0.00987910  1
  Pd  Pd193  1  0.40152504  0.80263031  0.40472900  1
  Pd  Pd194  1  0.39998913  0.00416765  0.40380028  1
  Pd  Pd195  1  0.19514921  -0.00646005  0.40056672  1
  Pd  Pd196  1  0.79951824  0.41096432  0.21053576  1
  Pd  Pd197  1  0.20155708  0.59991961  0.79336143  1
  Pd  Pd198  1  -0.01022696  0.79549470  0.00737905  1
  Pd  Pd199  1  0.39711228  0.19997665  0.20172503  1
  Rh  Rh200  1  0.20501617  0.40966448  0.20035141  1
  Rh  Rh201  1  0.39883289  0.19743612  0.78662660  1
  Rh  Rh202  1  0.19542248  -0.01152372  0.60190991  1
  Rh  Rh203  1  0.59647076  0.00916182  -0.01183330  1
  Rh  Rh204  1  0.80564092  0.00709861  0.00259280  1
  Rh  Rh205  1  0.00230907  0.58541408  0.80905153  1
  Rh  Rh206  1  -0.00587209  -0.00055551  0.20482832  1
  Rh  Rh207  1  0.40247617  0.40111466  0.40154727  1
  Rh  Rh208  1  0.19641200  0.00691046  0.19475552  1
  Rh  Rh209  1  0.20220639  0.59923332  0.60736773  1
  Rh  Rh210  1  0.39637956  0.00433733  0.60888103  1
  Rh  Rh211  1  0.80555900  0.00189579  0.59869927  1
  Rh  Rh212  1  0.79781202  0.80968848  0.19170920  1
  Rh  Rh213  1  0.60264913  0.60757656  0.19478694  1
  Rh  Rh214  1  0.19384947  0.39231042  0.00208846  1
  Rh  Rh215  1  0.59530499  0.00457139  0.59412461  1
  Rh  Rh216  1  0.40372324  0.39812091  -0.00702132  1
  Rh  Rh217  1  0.79170381  0.39743739  0.00005243  1
  Rh  Rh218  1  0.18971390  0.79298367  0.20900279  1
  Rh  Rh219  1  0.80030719  0.59962578  0.19924102  1
  Rh  Rh220  1  0.80552551  0.59905584  0.59787137  1
  Rh  Rh221  1  0.19616846  0.39974680  0.40787434  1
  Rh  Rh222  1  0.80991552  0.40225974  0.79829591  1
  Rh  Rh223  1  0.58920342  0.39336458  0.80695531  1
  Rh  Rh224  1  0.40585424  0.80149805  0.80026218  1
  Rh  Rh225  1  0.20810731  0.80844298  0.00084999  1
  Rh  Rh226  1  0.20137573  0.20028225  0.19496531  1
  Rh  Rh227  1  0.20076096  0.78794260  0.79320526  1
  Rh  Rh228  1  0.80101124  -0.00272212  0.39220445  1
  Rh  Rh229  1  0.59811021  0.59798896  0.40390426  1
  Rh  Rh230  1  0.79866374  0.79197667  0.40648016  1
  Rh  Rh231  1  0.00219410  0.39166807  0.21246267  1
  Rh  Rh232  1  0.79629528  0.39693745  0.60587660  1
  Rh  Rh233  1  0.59825174  0.20356526  0.80695744  1
  Rh  Rh234  1  0.60162389  0.39739678  0.20415902  1
  Rh  Rh235  1  0.80799504  -0.01149545  0.80618112  1
  Rh  Rh236  1  0.00191859  0.19999579  0.00739823  1
  Rh  Rh237  1  0.20102802  0.20285285  0.59288865  1
  Rh  Rh238  1  0.19020583  0.60353250  0.01052845  1
  Rh  Rh239  1  -0.00641238  0.80773536  0.79596084  1
  Rh  Rh240  1  0.79494537  0.79745802  0.60505217  1
  Rh  Rh241  1  0.00639906  0.61518291  0.18734585  1
  Rh  Rh242  1  0.40019787  0.79706751  0.59985674  1
  Rh  Rh243  1  0.19850786  0.19755067  0.80579229  1
  Rh  Rh244  1  0.19828328  0.79307922  0.59193329  1
  Rh  Rh245  1  0.60643389  0.60848414  0.80105315  1
  Rh  Rh246  1  -0.00583219  0.59648843  0.41234087  1
  Rh  Rh247  1  0.41688700  0.80935497  0.18319944  1
  Rh  Rh248  1  0.59034360  -0.00304177  0.79788389  1
  Rh  Rh249  1  -0.00160537  0.79787942  0.19668340  1
