# generated using pymatgen
data_ZrScNbPdRh
_symmetry_space_group_name_H-M   'P 1'
_cell_length_a   16.55544814
_cell_length_b   16.55495408
_cell_length_c   16.55026909
_cell_angle_alpha   89.97935204
_cell_angle_beta   90.01883035
_cell_angle_gamma   89.99652846
_symmetry_Int_Tables_number   1
_chemical_formula_structural   ZrScNbPdRh
_chemical_formula_sum   'Zr50 Sc50 Nb50 Pd50 Rh50'
_cell_volume   4536.00922032
_cell_formula_units_Z   50
loop_
 _symmetry_equiv_pos_site_id
 _symmetry_equiv_pos_as_xyz
  1  'x, y, z'
loop_
 _atom_site_type_symbol
 _atom_site_label
 _atom_site_symmetry_multiplicity
 _atom_site_fract_x
 _atom_site_fract_y
 _atom_site_fract_z
 _atom_site_occupancy
  Zr  Zr0  1  0.29729235  0.49410791  0.29604235  1
  Zr  Zr1  1  0.30406884  0.09774398  0.89836436  1
  Zr  Zr2  1  0.49723171  0.69600198  0.10434828  1
  Zr  Zr3  1  0.29307876  0.09839465  0.50068839  1
  Zr  Zr4  1  0.71113915  0.49026319  0.09931554  1
  Zr  Zr5  1  0.29773293  0.49915112  0.09913242  1
  Zr  Zr6  1  0.29856066  0.10341844  0.69788777  1
  Zr  Zr7  1  0.69457770  0.09462708  0.30118181  1
  Zr  Zr8  1  0.29546624  0.29874880  0.29528792  1
  Zr  Zr9  1  0.69522601  0.29868094  0.50678837  1
  Zr  Zr10  1  0.90232176  0.50722780  0.10802376  1
  Zr  Zr11  1  0.89916839  0.09322735  0.29763217  1
  Zr  Zr12  1  0.31341449  0.50450343  0.90172628  1
  Zr  Zr13  1  0.69037106  0.29198817  0.30041973  1
  Zr  Zr14  1  0.69868628  0.69404385  0.70251050  1
  Zr  Zr15  1  0.89211821  0.31418941  0.09552520  1
  Zr  Zr16  1  0.69439207  0.30819021  0.90404293  1
  Zr  Zr17  1  0.09840894  0.10188604  0.69055387  1
  Zr  Zr18  1  0.30233633  0.09985941  0.29746207  1
  Zr  Zr19  1  0.70062638  0.90327045  0.90526820  1
  Zr  Zr20  1  0.69240563  0.09800464  0.50027148  1
  Zr  Zr21  1  0.90986409  0.30458545  0.29486095  1
  Zr  Zr22  1  0.49634070  0.90874944  0.89615675  1
  Zr  Zr23  1  0.09541157  0.30758533  0.50450402  1
  Zr  Zr24  1  0.30435570  0.49513503  0.69583245  1
  Zr  Zr25  1  0.90688269  0.30570107  0.90001708  1
  Zr  Zr26  1  0.50708692  0.30107882  0.89202347  1
  Zr  Zr27  1  0.91057195  0.09795962  0.50398161  1
  Zr  Zr28  1  0.49238963  0.70661944  0.69445986  1
  Zr  Zr29  1  0.90070788  0.49781199  0.50691962  1
  Zr  Zr30  1  0.10531232  0.89604785  0.10003159  1
  Zr  Zr31  1  0.09393154  0.29348797  0.89779015  1
  Zr  Zr32  1  0.89955952  0.70198070  0.69801114  1
  Zr  Zr33  1  0.09660342  0.70308443  0.70180934  1
  Zr  Zr34  1  0.29708679  0.89702519  0.11105998  1
  Zr  Zr35  1  0.09786333  0.50649430  0.68694625  1
  Zr  Zr36  1  0.50219246  0.09901437  0.09602370  1
  Zr  Zr37  1  0.09953613  0.49441215  0.30256449  1
  Zr  Zr38  1  0.70073602  0.90450341  0.69838350  1
  Zr  Zr39  1  0.09562957  0.50040033  0.89680876  1
  Zr  Zr40  1  0.89779549  0.29619754  0.50459286  1
  Zr  Zr41  1  0.31062024  0.89377956  0.70862014  1
  Zr  Zr42  1  0.29178265  0.49798150  0.50238452  1
  Zr  Zr43  1  0.10368926  0.91385868  0.49965895  1
  Zr  Zr44  1  0.70754619  0.50670228  0.29716107  1
  Zr  Zr45  1  0.30430093  0.29966675  0.10919273  1
  Zr  Zr46  1  0.09247482  0.09833214  0.29657938  1
  Zr  Zr47  1  0.69520897  0.50442928  0.50116787  1
  Zr  Zr48  1  0.49837440  0.89306952  0.10286263  1
  Zr  Zr49  1  0.50076213  0.09934245  0.50226423  1
  Sc  Sc50  1  0.69374441  0.50480067  0.89044852  1
  Sc  Sc51  1  0.49274987  0.28862717  0.29091848  1
  Sc  Sc52  1  0.50248368  0.10198643  0.70485461  1
  Sc  Sc53  1  0.91248794  0.09856388  0.90017360  1
  Sc  Sc54  1  0.49509820  0.49361037  0.08835709  1
  Sc  Sc55  1  0.10149517  0.71154283  0.90893067  1
  Sc  Sc56  1  0.50055275  0.29430160  0.51339237  1
  Sc  Sc57  1  0.10366279  0.89687675  0.29569937  1
  Sc  Sc58  1  0.50196511  0.90000737  0.50195106  1
  Sc  Sc59  1  0.09472675  0.90098327  0.70001579  1
  Sc  Sc60  1  0.30641799  0.29933799  0.69125744  1
  Sc  Sc61  1  0.89855398  0.70294281  0.30245626  1
  Sc  Sc62  1  0.10078929  0.69596775  0.50435260  1
  Sc  Sc63  1  0.69801964  0.69204579  0.10505099  1
  Sc  Sc64  1  0.89439119  0.70666557  0.49792430  1
  Sc  Sc65  1  0.50128970  0.69600611  0.50082748  1
  Sc  Sc66  1  0.29768106  0.09954942  0.10023809  1
  Sc  Sc67  1  0.70250952  0.90534860  0.50083632  1
  Sc  Sc68  1  0.90831975  0.70226566  0.90293171  1
  Sc  Sc69  1  0.50289006  0.10052576  0.30471027  1
  Sc  Sc70  1  0.09828387  0.70642365  0.10196228  1
  Sc  Sc71  1  0.50070455  0.67649313  0.90001814  1
  Sc  Sc72  1  0.09954776  0.29012414  0.10256559  1
  Sc  Sc73  1  0.09589306  0.70445933  0.29466755  1
  Sc  Sc74  1  0.49758618  0.69795395  0.29845016  1
  Sc  Sc75  1  0.30623478  0.70023482  0.49902828  1
  Sc  Sc76  1  0.89864395  0.09658475  0.69646695  1
  Sc  Sc77  1  0.90214096  0.49755763  0.89983611  1
  Sc  Sc78  1  0.09854333  0.51742102  0.10257621  1
  Sc  Sc79  1  0.90133918  0.09196574  0.10483281  1
  Sc  Sc80  1  0.90294958  0.90121724  0.90701523  1
  Sc  Sc81  1  0.90215837  0.30511487  0.70004953  1
  Sc  Sc82  1  0.89583998  0.89719982  0.49944641  1
  Sc  Sc83  1  0.70216906  0.50280775  0.70100263  1
  Sc  Sc84  1  0.49894376  0.10364465  0.89812063  1
  Sc  Sc85  1  0.90565899  0.90204828  0.30272135  1
  Sc  Sc86  1  0.68634341  0.09627977  0.89892464  1
  Sc  Sc87  1  0.30613970  0.29264685  0.89136318  1
  Sc  Sc88  1  0.29912966  0.70948318  0.30378048  1
  Sc  Sc89  1  0.50096562  0.90039939  0.69874987  1
  Sc  Sc90  1  0.90230683  0.90291312  0.09833515  1
  Sc  Sc91  1  0.10834063  0.09291733  0.09839210  1
  Sc  Sc92  1  0.69546716  0.09512607  0.09674049  1
  Sc  Sc93  1  0.50511487  0.29569733  0.09332483  1
  Sc  Sc94  1  0.29901369  0.89583193  0.90112141  1
  Sc  Sc95  1  0.69707375  0.09519356  0.70006118  1
  Sc  Sc96  1  0.69231849  0.30108784  0.69943253  1
  Sc  Sc97  1  0.89669887  0.90195386  0.69412398  1
  Sc  Sc98  1  0.70610407  0.69342962  0.30288822  1
  Sc  Sc99  1  0.70372038  0.70294699  0.49920667  1
  Nb  Nb100  1  0.70152353  0.89849019  0.09860828  1
  Nb  Nb101  1  0.29625020  0.69820458  0.09221621  1
  Nb  Nb102  1  0.10216868  0.30569034  0.70594208  1
  Nb  Nb103  1  0.29587455  0.90223875  0.49783070  1
  Nb  Nb104  1  0.50259128  0.48963505  0.89077922  1
  Nb  Nb105  1  0.89762637  0.50263579  0.29780160  1
  Nb  Nb106  1  0.49501106  0.89280597  0.29413431  1
  Nb  Nb107  1  0.70025231  0.69456119  0.89755052  1
  Nb  Nb108  1  0.30582571  0.89890312  0.30379659  1
  Nb  Nb109  1  0.30329964  0.29936551  0.50020013  1
  Nb  Nb110  1  0.10202187  0.29483745  0.30157320  1
  Nb  Nb111  1  0.30253957  0.70161580  0.89712080  1
  Nb  Nb112  1  0.10098888  0.50440506  0.50118350  1
  Nb  Nb113  1  0.49586359  0.49874141  0.49909568  1
  Nb  Nb114  1  0.30173772  0.70879804  0.70783314  1
  Nb  Nb115  1  0.49817055  0.49070279  0.69739558  1
  Nb  Nb116  1  0.90156511  0.51068380  0.70614667  1
  Nb  Nb117  1  0.10283844  0.91008461  0.90716487  1
  Nb  Nb118  1  0.49780288  0.49730363  0.30066548  1
  Nb  Nb119  1  0.49924850  0.30388147  0.70117094  1
  Nb  Nb120  1  0.90616676  0.70421647  0.09930077  1
  Nb  Nb121  1  0.70353933  0.90249976  0.29966514  1
  Nb  Nb122  1  0.09984774  0.10119085  0.50209818  1
  Nb  Nb123  1  0.69971283  0.30027907  0.09896731  1
  Nb  Nb124  1  0.10658990  0.09777135  0.89769440  1
  Nb  Nb125  1  0.60014356  0.79569746  -0.00337596  1
  Nb  Nb126  1  0.39370634  0.59547719  0.19824818  1
  Nb  Nb127  1  0.19557689  0.00239963  0.80298809  1
  Nb  Nb128  1  0.79633884  0.80574082  0.19651424  1
  Nb  Nb129  1  0.20624894  0.60424504  0.79883769  1
  Nb  Nb130  1  0.79914584  0.20215570  0.80797374  1
  Nb  Nb131  1  0.20048786  0.39910498  -0.00567046  1
  Nb  Nb132  1  0.60174760  0.80719791  0.38955095  1
  Nb  Nb133  1  0.79745362  0.39806625  0.39858536  1
  Nb  Nb134  1  0.19772386  0.40433133  0.79962794  1
  Nb  Nb135  1  0.80232946  0.20065177  0.39765768  1
  Nb  Nb136  1  0.39177782  -0.00073646  0.59665472  1
  Nb  Nb137  1  0.20732065  0.80389529  0.60231268  1
  Nb  Nb138  1  0.19285306  0.20176407  0.40283909  1
  Nb  Nb139  1  0.40094403  0.79177040  -0.00086417  1
  Nb  Nb140  1  0.79380487  0.79659241  0.80469320  1
  Nb  Nb141  1  0.40281310  0.40002020  0.40355439  1
  Nb  Nb142  1  0.00014783  0.59085211  0.40176319  1
  Nb  Nb143  1  0.60018697  -0.01300919  0.20251261  1
  Nb  Nb144  1  0.80209997  0.60318886  -0.00049978  1
  Nb  Nb145  1  0.79745292  0.20169042  0.19843143  1
  Nb  Nb146  1  0.60097891  0.40016761  0.20248252  1
  Nb  Nb147  1  0.79898366  0.20395082  -0.00043894  1
  Nb  Nb148  1  0.59424593  0.40378247  0.39781675  1
  Nb  Nb149  1  0.60320998  0.79500178  0.80735657  1
  Pd  Pd150  1  0.20404577  0.20498462  0.00024819  1
  Pd  Pd151  1  0.39811681  0.20614068  0.40297817  1
  Pd  Pd152  1  -0.00620061  0.80946914  0.80608638  1
  Pd  Pd153  1  0.19465707  0.79765538  0.40663060  1
  Pd  Pd154  1  -0.00645054  0.19552516  0.79177872  1
  Pd  Pd155  1  0.18695353  0.39947696  0.18803041  1
  Pd  Pd156  1  0.19631348  0.59888329  -0.00912559  1
  Pd  Pd157  1  -0.00615291  0.19816669  0.18943771  1
  Pd  Pd158  1  0.59819063  0.60507211  0.39830467  1
  Pd  Pd159  1  0.00193573  -0.00268352  0.79749382  1
  Pd  Pd160  1  -0.00509976  0.40463322  0.40159952  1
  Pd  Pd161  1  0.79606717  0.79040901  0.00307072  1
  Pd  Pd162  1  0.80205541  0.60357375  0.59657142  1
  Pd  Pd163  1  0.19670948  0.21059353  0.59616307  1
  Pd  Pd164  1  0.01078936  0.40209351  0.19233666  1
  Pd  Pd165  1  0.39585773  0.59614021  0.39382205  1
  Pd  Pd166  1  -0.00239756  0.40062185  0.60687668  1
  Pd  Pd167  1  0.59481662  0.59693571  0.60468692  1
  Pd  Pd168  1  0.00355128  0.60534806  0.80423989  1
  Pd  Pd169  1  0.40451744  -0.00467834  0.40295064  1
  Pd  Pd170  1  0.39695912  0.60013680  0.60150612  1
  Pd  Pd171  1  0.40059772  0.20380641  -0.00039620  1
  Pd  Pd172  1  0.80405733  0.00277117  0.40644547  1
  Pd  Pd173  1  0.60533347  0.80166668  0.59427240  1
  Pd  Pd174  1  0.80401422  0.00319523  0.80736125  1
  Pd  Pd175  1  0.79803874  0.40356389  0.60534061  1
  Pd  Pd176  1  0.39644638  0.38896890  -0.00478227  1
  Pd  Pd177  1  0.00073313  0.19902605  0.40162457  1
  Pd  Pd178  1  0.19366963  0.60805074  0.39530794  1
  Pd  Pd179  1  0.80088626  0.01163221  -0.00235624  1
  Pd  Pd180  1  0.00355643  0.00315498  0.00628207  1
  Pd  Pd181  1  0.20068509  0.20129879  0.79741004  1
  Pd  Pd182  1  0.20917370  0.61306188  0.60569966  1
  Pd  Pd183  1  0.40887449  0.80078543  0.40616061  1
  Pd  Pd184  1  0.20302538  0.39281012  0.40401588  1
  Pd  Pd185  1  0.60576852  0.59362200  0.00334492  1
  Pd  Pd186  1  0.39287227  -0.00782148  0.00450017  1
  Pd  Pd187  1  0.20413328  0.61030379  0.20641491  1
  Pd  Pd188  1  0.01171054  0.40600481  0.01149965  1
  Pd  Pd189  1  0.59209316  0.58847284  0.19770287  1
  Pd  Pd190  1  0.40224874  0.59918626  0.79110253  1
  Pd  Pd191  1  0.19226777  0.80501038  0.80077234  1
  Pd  Pd192  1  -0.00501785  0.19168815  0.00909191  1
  Pd  Pd193  1  0.00572186  0.79549199  0.40458279  1
  Pd  Pd194  1  0.79881245  0.39837733  0.79793852  1
  Pd  Pd195  1  0.40572078  0.00538354  0.20178515  1
  Pd  Pd196  1  0.00570246  0.80428738  0.59184943  1
  Pd  Pd197  1  0.79630705  0.19339628  0.60667987  1
  Pd  Pd198  1  0.60966603  0.79790500  0.20199876  1
  Pd  Pd199  1  0.19666541  0.00477987  0.38917356  1
  Rh  Rh200  1  0.20655981  -0.01183008  0.61390532  1
  Rh  Rh201  1  0.41069418  0.40255413  0.20390236  1
  Rh  Rh202  1  0.00246254  -0.00306544  0.40065935  1
  Rh  Rh203  1  0.59791664  0.19645128  0.60751692  1
  Rh  Rh204  1  0.60455521  0.20165411  0.79712325  1
  Rh  Rh205  1  0.19895584  0.39502190  0.60398376  1
  Rh  Rh206  1  0.79752533  0.40610220  -0.01207841  1
  Rh  Rh207  1  0.20708254  -0.00087002  -0.00487056  1
  Rh  Rh208  1  0.59694575  0.20619147  0.40939168  1
  Rh  Rh209  1  -0.00543959  0.60387488  0.00129525  1
  Rh  Rh210  1  0.59574609  -0.00735693  0.00757774  1
  Rh  Rh211  1  0.40337160  0.39811308  0.59206692  1
  Rh  Rh212  1  0.39350345  0.80759509  0.59052472  1
  Rh  Rh213  1  -0.00245529  -0.00502217  0.59916002  1
  Rh  Rh214  1  0.38912541  0.78788423  0.19629136  1
  Rh  Rh215  1  -0.00829058  0.60569894  0.59201182  1
  Rh  Rh216  1  0.79502455  0.80105122  0.60812344  1
  Rh  Rh217  1  0.60170153  0.19437720  0.19008132  1
  Rh  Rh218  1  0.20411168  0.79748712  0.20313904  1
  Rh  Rh219  1  0.60395514  0.20010767  -0.00287783  1
  Rh  Rh220  1  0.59606136  0.40533396  0.59891292  1
  Rh  Rh221  1  0.39996060  0.60289413  0.00576580  1
  Rh  Rh222  1  0.80072898  0.00424127  0.59429758  1
  Rh  Rh223  1  0.40350766  0.19335339  0.60348933  1
  Rh  Rh224  1  0.81056163  0.59428107  0.40682665  1
  Rh  Rh225  1  -0.00361916  0.60580584  0.21117865  1
  Rh  Rh226  1  0.00567400  0.80712466  0.00179186  1
  Rh  Rh227  1  0.00696900  -0.00739717  0.19724865  1
  Rh  Rh228  1  0.19726044  0.19413108  0.20597319  1
  Rh  Rh229  1  0.41671056  0.79075379  0.81541180  1
  Rh  Rh230  1  0.79300924  0.80252106  0.39184851  1
  Rh  Rh231  1  0.58778422  0.59839225  0.78856979  1
  Rh  Rh232  1  0.40297751  0.19238944  0.19314115  1
  Rh  Rh233  1  0.79291404  -0.00163108  0.19584307  1
  Rh  Rh234  1  0.81246632  0.60499657  0.80857158  1
  Rh  Rh235  1  0.00358781  0.20622246  0.60708711  1
  Rh  Rh236  1  0.20253679  -0.00221637  0.20674351  1
  Rh  Rh237  1  0.20610328  0.80230304  -0.00072095  1
  Rh  Rh238  1  0.60064552  0.40614356  0.00399621  1
  Rh  Rh239  1  0.40689148  0.20311183  0.79492376  1
  Rh  Rh240  1  0.58983807  -0.01170066  0.39093605  1
  Rh  Rh241  1  0.59689877  -0.00455759  0.79720645  1
  Rh  Rh242  1  0.39765095  0.39457234  0.79810756  1
  Rh  Rh243  1  0.39613111  0.00837769  0.79194847  1
  Rh  Rh244  1  0.81101493  0.61521543  0.19227344  1
  Rh  Rh245  1  -0.01042135  0.80353538  0.19770022  1
  Rh  Rh246  1  0.79232093  0.39006343  0.21355138  1
  Rh  Rh247  1  0.00380971  0.40731731  0.78950570  1
  Rh  Rh248  1  0.60144690  0.40425978  0.79020221  1
  Rh  Rh249  1  0.59130307  0.00054398  0.60306991  1
