# generated using pymatgen
data_ZrScNbPdRh
_symmetry_space_group_name_H-M   'P 1'
_cell_length_a   16.56315799
_cell_length_b   16.56197669
_cell_length_c   16.56423394
_cell_angle_alpha   90.04186324
_cell_angle_beta   90.03655811
_cell_angle_gamma   89.98749899
_symmetry_Int_Tables_number   1
_chemical_formula_structural   ZrScNbPdRh
_chemical_formula_sum   'Zr50 Sc50 Nb50 Pd50 Rh50'
_cell_volume   4543.87582274
_cell_formula_units_Z   50
loop_
 _symmetry_equiv_pos_site_id
 _symmetry_equiv_pos_as_xyz
  1  'x, y, z'
loop_
 _atom_site_type_symbol
 _atom_site_label
 _atom_site_symmetry_multiplicity
 _atom_site_fract_x
 _atom_site_fract_y
 _atom_site_fract_z
 _atom_site_occupancy
  Zr  Zr0  1  0.09873191  0.70463810  0.70053718  1
  Zr  Zr1  1  0.69625993  0.49660576  0.69407433  1
  Zr  Zr2  1  0.70250519  0.30500027  0.69919824  1
  Zr  Zr3  1  0.09748970  0.29896544  0.30268921  1
  Zr  Zr4  1  0.30121862  0.89697797  0.29918195  1
  Zr  Zr5  1  0.70109328  0.90848089  0.50120489  1
  Zr  Zr6  1  0.10842223  0.29757244  0.09528401  1
  Zr  Zr7  1  0.10418146  0.90183987  0.10602578  1
  Zr  Zr8  1  0.29912003  0.49941491  0.90290668  1
  Zr  Zr9  1  0.90281990  0.30716610  0.89358444  1
  Zr  Zr10  1  0.89656218  0.89665159  0.89477017  1
  Zr  Zr11  1  0.69357905  0.09934212  0.70628090  1
  Zr  Zr12  1  0.90091325  0.08644284  0.90158580  1
  Zr  Zr13  1  0.90107375  0.09937893  0.10360641  1
  Zr  Zr14  1  0.29877246  0.70093294  0.10133575  1
  Zr  Zr15  1  0.70511043  0.30846418  0.90560364  1
  Zr  Zr16  1  0.29563393  0.50409565  0.30076833  1
  Zr  Zr17  1  0.10325610  0.09465804  0.09507671  1
  Zr  Zr18  1  0.30374815  0.49962076  0.10322505  1
  Zr  Zr19  1  0.70006030  0.29995667  0.10380092  1
  Zr  Zr20  1  0.50328408  0.70167835  0.29897756  1
  Zr  Zr21  1  0.09433662  0.69282325  0.89348208  1
  Zr  Zr22  1  0.69875206  0.68657571  0.49863428  1
  Zr  Zr23  1  0.11352804  0.51002678  0.70780586  1
  Zr  Zr24  1  0.50346828  0.29372915  0.69986834  1
  Zr  Zr25  1  0.90295146  0.29809473  0.69348094  1
  Zr  Zr26  1  0.29669739  0.10007226  0.09589063  1
  Zr  Zr27  1  0.69519191  0.49677123  0.09845118  1
  Zr  Zr28  1  0.90271363  0.70758451  0.70863634  1
  Zr  Zr29  1  0.90220983  0.69975548  0.90486784  1
  Zr  Zr30  1  0.51068759  0.90733106  0.10284662  1
  Zr  Zr31  1  0.49693495  0.50551500  0.29465014  1
  Zr  Zr32  1  0.49543253  0.10173900  0.09490805  1
  Zr  Zr33  1  0.09415807  0.90707769  0.69379616  1
  Zr  Zr34  1  0.10385846  0.29401078  0.70177902  1
  Zr  Zr35  1  0.30377202  0.50518743  0.50539239  1
  Zr  Zr36  1  0.70482420  0.30220444  0.30065313  1
  Zr  Zr37  1  0.90838342  0.69468257  0.30659894  1
  Zr  Zr38  1  0.49890208  0.09485088  0.90242929  1
  Zr  Zr39  1  0.49390100  0.30246002  0.10234500  1
  Zr  Zr40  1  0.70633437  0.49600117  0.49976630  1
  Zr  Zr41  1  0.10036940  0.49233203  0.90273421  1
  Zr  Zr42  1  0.90402626  0.50888178  0.10547048  1
  Zr  Zr43  1  0.50245273  0.89169682  0.69632398  1
  Zr  Zr44  1  0.69652368  0.29575649  0.49253810  1
  Zr  Zr45  1  0.29655912  0.69010929  0.69657177  1
  Zr  Zr46  1  0.09755540  0.10004456  0.50688815  1
  Zr  Zr47  1  0.90897230  0.89582750  0.29431784  1
  Zr  Zr48  1  0.70575349  0.10567189  0.31389644  1
  Zr  Zr49  1  0.49609841  0.69866123  0.90126152  1
  Sc  Sc50  1  0.69963685  0.09417556  0.09065479  1
  Sc  Sc51  1  0.09931423  0.90282227  0.91103747  1
  Sc  Sc52  1  0.90300557  0.29706657  0.50030496  1
  Sc  Sc53  1  0.49382375  0.50297353  0.09470837  1
  Sc  Sc54  1  0.49264903  0.09572704  0.29816915  1
  Sc  Sc55  1  0.49940732  0.29945351  0.30615600  1
  Sc  Sc56  1  0.10436921  0.89871596  0.50395451  1
  Sc  Sc57  1  0.69881782  0.49877798  0.30481205  1
  Sc  Sc58  1  0.88904361  0.30304545  0.10442703  1
  Sc  Sc59  1  0.29175973  0.29475007  0.90291456  1
  Sc  Sc60  1  0.30659521  0.70984574  0.90485215  1
  Sc  Sc61  1  0.49990085  0.29842989  0.50213430  1
  Sc  Sc62  1  0.29534304  0.89655207  0.09214457  1
  Sc  Sc63  1  0.09383645  0.70504728  0.49026964  1
  Sc  Sc64  1  0.68800673  0.70558113  0.90300813  1
  Sc  Sc65  1  0.10143193  0.70465648  0.29661913  1
  Sc  Sc66  1  0.90790880  0.90507541  0.50236248  1
  Sc  Sc67  1  0.50531831  0.49962252  0.50772481  1
  Sc  Sc68  1  0.89245953  0.29183189  0.29987177  1
  Sc  Sc69  1  0.30735105  0.30089937  0.49692111  1
  Sc  Sc70  1  0.90136789  0.70354952  0.10555059  1
  Sc  Sc71  1  0.69241312  0.90117439  0.29537675  1
  Sc  Sc72  1  0.50117949  0.69621827  0.10124500  1
  Sc  Sc73  1  0.49550413  0.90432439  0.30089558  1
  Sc  Sc74  1  0.30239759  0.89925241  0.68144214  1
  Sc  Sc75  1  0.88949089  0.48582851  0.69249569  1
  Sc  Sc76  1  0.09691266  0.49896986  0.10450209  1
  Sc  Sc77  1  0.49802996  0.10515754  0.49346542  1
  Sc  Sc78  1  0.50587037  0.69926689  0.51282746  1
  Sc  Sc79  1  0.90080661  0.89615753  0.09168551  1
  Sc  Sc80  1  0.69738151  0.69574316  0.29458961  1
  Sc  Sc81  1  0.29756807  0.70493555  0.29384911  1
  Sc  Sc82  1  0.10790785  0.09475529  0.90329167  1
  Sc  Sc83  1  0.10398877  0.50345269  0.49284594  1
  Sc  Sc84  1  0.49111067  0.29350584  0.90677480  1
  Sc  Sc85  1  0.30431182  0.30289452  0.09337517  1
  Sc  Sc86  1  0.30415999  0.28590341  0.70517294  1
  Sc  Sc87  1  0.09847481  0.10173076  0.27966578  1
  Sc  Sc88  1  0.90296916  0.90467012  0.70665268  1
  Sc  Sc89  1  0.89594629  0.50274997  0.29749913  1
  Sc  Sc90  1  0.49625451  0.69647311  0.70540731  1
  Sc  Sc91  1  0.69833810  0.09241042  0.90232901  1
  Sc  Sc92  1  0.70431797  0.90002434  0.70845537  1
  Sc  Sc93  1  0.89937649  0.10030504  0.49628063  1
  Sc  Sc94  1  0.30460316  0.30800503  0.29742959  1
  Sc  Sc95  1  0.09373295  0.29302732  0.50652966  1
  Sc  Sc96  1  0.68734328  0.70243466  0.69492458  1
  Sc  Sc97  1  0.10020902  0.50674185  0.29544386  1
  Sc  Sc98  1  0.90634802  0.49886979  0.90357519  1
  Sc  Sc99  1  0.30638777  0.09577960  0.51003081  1
  Nb  Nb100  1  0.89697623  0.69258397  0.49528869  1
  Nb  Nb101  1  0.50200831  0.50800382  0.90145937  1
  Nb  Nb102  1  0.09928264  0.29913453  0.89933865  1
  Nb  Nb103  1  0.70078317  0.09941901  0.50085457  1
  Nb  Nb104  1  0.29848631  0.10089919  0.70530659  1
  Nb  Nb105  1  0.30359483  0.09761487  0.89780684  1
  Nb  Nb106  1  0.89713332  0.50468939  0.49466217  1
  Nb  Nb107  1  0.90397756  0.09341956  0.70547013  1
  Nb  Nb108  1  0.10502761  0.09918235  0.69697039  1
  Nb  Nb109  1  0.49083836  0.89710237  0.89741326  1
  Nb  Nb110  1  0.30757561  0.90029442  0.49379737  1
  Nb  Nb111  1  0.30169703  0.70362294  0.49754264  1
  Nb  Nb112  1  0.30406131  0.90000064  0.89628045  1
  Nb  Nb113  1  0.49477955  0.10423843  0.70594359  1
  Nb  Nb114  1  0.49294298  0.49936255  0.70087332  1
  Nb  Nb115  1  0.10627536  0.69937594  0.09413572  1
  Nb  Nb116  1  0.10162950  0.90364033  0.30044345  1
  Nb  Nb117  1  0.70132284  0.90110233  0.91290931  1
  Nb  Nb118  1  0.70303567  0.89419220  0.09822237  1
  Nb  Nb119  1  0.29739577  0.09412785  0.30092210  1
  Nb  Nb120  1  0.69916341  0.71200503  0.09641649  1
  Nb  Nb121  1  0.30227529  0.50247893  0.69842525  1
  Nb  Nb122  1  0.90240772  0.10219815  0.29842919  1
  Nb  Nb123  1  0.49608173  0.90076134  0.50242435  1
  Nb  Nb124  1  0.69536602  0.50431750  0.90176949  1
  Nb  Nb125  1  0.00805736  0.00349890  0.38990790  1
  Nb  Nb126  1  0.20301766  0.80758967  0.79852534  1
  Nb  Nb127  1  -0.00693572  0.59974664  0.59644057  1
  Nb  Nb128  1  0.20531808  0.40370095  0.60541063  1
  Nb  Nb129  1  0.40313290  0.40673036  0.79866738  1
  Nb  Nb130  1  0.20130242  0.19062766  0.39564532  1
  Nb  Nb131  1  0.80157299  0.00016970  0.20110128  1
  Nb  Nb132  1  0.00287981  0.19449768  0.80051361  1
  Nb  Nb133  1  0.60142744  0.80269875  0.40756241  1
  Nb  Nb134  1  0.00103013  0.20366163  -0.00672854  1
  Nb  Nb135  1  0.79905783  0.79752935  0.40392321  1
  Nb  Nb136  1  0.19778594  0.60182899  0.00050580  1
  Nb  Nb137  1  0.79305140  0.59700784  0.80612040  1
  Nb  Nb138  1  0.59601028  0.00459024  0.60058092  1
  Nb  Nb139  1  0.80613728  0.19678806  0.79764271  1
  Nb  Nb140  1  0.39737025  0.60636417  0.40447198  1
  Nb  Nb141  1  0.79175752  0.60351838  -0.00050321  1
  Nb  Nb142  1  -0.00267417  0.40227105  0.40033014  1
  Nb  Nb143  1  0.60152497  0.19873193  0.19993613  1
  Nb  Nb144  1  0.20820580  -0.00113576  0.79561548  1
  Nb  Nb145  1  0.59203070  0.40785893  0.80538640  1
  Nb  Nb146  1  0.39819106  -0.00078025  0.79660093  1
  Nb  Nb147  1  0.79614614  0.19134643  0.60376698  1
  Nb  Nb148  1  0.80162309  0.79565252  0.59274988  1
  Nb  Nb149  1  0.20098730  0.00163700  0.39769139  1
  Pd  Pd150  1  0.60345063  0.60088050  0.19282818  1
  Pd  Pd151  1  0.58918187  0.39919514  -0.00382261  1
  Pd  Pd152  1  0.40941217  0.79380192  0.40379216  1
  Pd  Pd153  1  0.60166216  0.80480782  0.80559654  1
  Pd  Pd154  1  0.79727477  0.80412103  0.20773564  1
  Pd  Pd155  1  0.39533935  0.39230357  0.60707932  1
  Pd  Pd156  1  0.20117977  0.79954825  0.59790808  1
  Pd  Pd157  1  0.59045362  0.80354354  -0.00047909  1
  Pd  Pd158  1  0.59473890  0.39599265  0.20375351  1
  Pd  Pd159  1  0.00740834  0.79485043  0.19506455  1
  Pd  Pd160  1  0.40460093  0.80460791  0.19307339  1
  Pd  Pd161  1  0.00396131  0.40172018  0.78962176  1
  Pd  Pd162  1  0.40796132  0.80519452  0.01060946  1
  Pd  Pd163  1  0.39264296  -0.00482034  0.19190125  1
  Pd  Pd164  1  -0.00807536  0.79496361  0.59343556  1
  Pd  Pd165  1  0.20122856  0.39812213  0.19818095  1
  Pd  Pd166  1  -0.00232223  0.20876181  0.18996621  1
  Pd  Pd167  1  0.60489984  0.20899016  0.81347421  1
  Pd  Pd168  1  0.59340382  0.40360049  0.40057119  1
  Pd  Pd169  1  0.80588854  0.60694533  0.61351642  1
  Pd  Pd170  1  0.81198890  -0.00729276  0.39171113  1
  Pd  Pd171  1  0.60203329  0.59844034  0.79403654  1
  Pd  Pd172  1  0.20373432  0.60948934  0.39900045  1
  Pd  Pd173  1  0.78904931  0.79218701  0.80096529  1
  Pd  Pd174  1  0.00410310  0.80054046  0.00138414  1
  Pd  Pd175  1  0.19025971  0.60290797  0.58904478  1
  Pd  Pd176  1  0.21044890  0.20538220  0.59104319  1
  Pd  Pd177  1  0.19257354  0.38885684  0.41055664  1
  Pd  Pd178  1  0.60915550  0.01124421  0.20096957  1
  Pd  Pd179  1  0.40578075  0.41072112  0.40122974  1
  Pd  Pd180  1  0.19914537  0.80512077  0.40102463  1
  Pd  Pd181  1  0.60045374  0.19346085  0.59453032  1
  Pd  Pd182  1  0.59472237  -0.00948170  0.80091315  1
  Pd  Pd183  1  0.60160574  0.20098203  0.00205477  1
  Pd  Pd184  1  0.40806889  0.00666622  0.60381794  1
  Pd  Pd185  1  0.39372172  0.19686575  0.39712206  1
  Pd  Pd186  1  0.21050521  0.20620908  0.20360452  1
  Pd  Pd187  1  0.39978324  0.20112594  0.20435480  1
  Pd  Pd188  1  0.80616712  0.19739405  -0.00782970  1
  Pd  Pd189  1  -0.00547763  0.39471204  0.20731192  1
  Pd  Pd190  1  0.39888770  0.79087514  0.60043634  1
  Pd  Pd191  1  0.39443321  0.59929213  0.80456564  1
  Pd  Pd192  1  0.79284124  0.60126322  0.19630113  1
  Pd  Pd193  1  0.80719611  0.41141094  0.00293798  1
  Pd  Pd194  1  0.79970807  -0.00072593  0.60690569  1
  Pd  Pd195  1  0.21124527  0.39317845  0.79387503  1
  Pd  Pd196  1  0.01087904  0.41225032  0.59396643  1
  Pd  Pd197  1  0.59101026  -0.00141846  0.40389033  1
  Pd  Pd198  1  -0.00219836  0.39371706  0.00982428  1
  Pd  Pd199  1  -0.01483140  0.58472634  0.78843404  1
  Rh  Rh200  1  0.39560556  0.00081590  0.40177504  1
  Rh  Rh201  1  0.80602568  0.20105303  0.40968828  1
  Rh  Rh202  1  0.01270073  0.81360011  0.80585557  1
  Rh  Rh203  1  0.21125507  0.61104913  0.81358393  1
  Rh  Rh204  1  0.59906801  0.80104314  0.20421075  1
  Rh  Rh205  1  0.19710622  0.60264196  0.19221255  1
  Rh  Rh206  1  0.40332577  0.60487846  0.59606924  1
  Rh  Rh207  1  0.01451144  0.00264445  0.80181082  1
  Rh  Rh208  1  0.80985633  0.39897399  0.40068437  1
  Rh  Rh209  1  0.20441442  -0.00074494  0.59669156  1
  Rh  Rh210  1  0.19860333  0.19749802  -0.00468367  1
  Rh  Rh211  1  0.00534966  0.19771275  0.39381648  1
  Rh  Rh212  1  0.39703178  0.60345145  0.20695794  1
  Rh  Rh213  1  0.19910685  0.40613559  0.00416025  1
  Rh  Rh214  1  0.40144916  0.40173694  -0.00845669  1
  Rh  Rh215  1  0.59489301  0.59335218  0.60525867  1
  Rh  Rh216  1  0.40112150  0.19906012  0.80572775  1
  Rh  Rh217  1  0.20905983  -0.00223546  -0.00505436  1
  Rh  Rh218  1  0.80010109  0.40626921  0.20314768  1
  Rh  Rh219  1  0.00167692  0.60235427  0.00805970  1
  Rh  Rh220  1  0.19314900  0.19130758  0.80568314  1
  Rh  Rh221  1  0.79348551  -0.00007765  0.80417762  1
  Rh  Rh222  1  0.39331327  0.19756127  -0.00154426  1
  Rh  Rh223  1  0.39233086  0.80463208  0.78928135  1
  Rh  Rh224  1  0.79797213  0.38837801  0.58461298  1
  Rh  Rh225  1  0.00294547  0.59105424  0.40141788  1
  Rh  Rh226  1  0.20719148  -0.00634766  0.20209721  1
  Rh  Rh227  1  0.79945734  0.79460863  -0.00414846  1
  Rh  Rh228  1  0.40109951  0.40137731  0.20172884  1
  Rh  Rh229  1  0.80009220  -0.00740376  0.00728520  1
  Rh  Rh230  1  0.59084989  0.60279189  0.40119120  1
  Rh  Rh231  1  0.60872902  0.81155091  0.59317151  1
  Rh  Rh232  1  0.19734892  0.80165308  0.19943026  1
  Rh  Rh233  1  0.60338554  0.60492321  0.00791994  1
  Rh  Rh234  1  0.19488123  0.79340189  -0.00971617  1
  Rh  Rh235  1  0.78947782  0.18880770  0.19832264  1
  Rh  Rh236  1  0.79667358  0.60152884  0.38958538  1
  Rh  Rh237  1  0.59665295  0.40005420  0.60330337  1
  Rh  Rh238  1  0.39837281  -0.00410158  -0.00189344  1
  Rh  Rh239  1  -0.00120250  0.00143685  0.00466821  1
  Rh  Rh240  1  -0.00405367  0.80828612  0.40306823  1
  Rh  Rh241  1  0.59444621  0.19747047  0.39411884  1
  Rh  Rh242  1  0.00601915  0.60726208  0.19982341  1
  Rh  Rh243  1  0.40191295  0.19731285  0.60143266  1
  Rh  Rh244  1  -0.00593399  -0.00155557  0.19882243  1
  Rh  Rh245  1  -0.00323040  0.00449125  0.59465655  1
  Rh  Rh246  1  -0.00918357  0.18817610  0.60839112  1
  Rh  Rh247  1  0.59829603  -0.00730758  -0.00369941  1
  Rh  Rh248  1  0.39435584  0.60198813  -0.00058282  1
  Rh  Rh249  1  0.79162439  0.40559874  0.80645940  1
