# generated using pymatgen
data_ZrScNbPdRh
_symmetry_space_group_name_H-M   'P 1'
_cell_length_a   16.56301482
_cell_length_b   16.55487450
_cell_length_c   16.55713905
_cell_angle_alpha   89.96119636
_cell_angle_beta   89.96988100
_cell_angle_gamma   89.96764012
_symmetry_Int_Tables_number   1
_chemical_formula_structural   ZrScNbPdRh
_chemical_formula_sum   'Zr50 Sc50 Nb50 Pd50 Rh50'
_cell_volume   4539.94247974
_cell_formula_units_Z   50
loop_
 _symmetry_equiv_pos_site_id
 _symmetry_equiv_pos_as_xyz
  1  'x, y, z'
loop_
 _atom_site_type_symbol
 _atom_site_label
 _atom_site_symmetry_multiplicity
 _atom_site_fract_x
 _atom_site_fract_y
 _atom_site_fract_z
 _atom_site_occupancy
  Zr  Zr0  1  0.29826728  0.89890188  0.50099098  1
  Zr  Zr1  1  0.49806204  0.10004989  0.50526083  1
  Zr  Zr2  1  0.29629034  0.70156996  0.69022358  1
  Zr  Zr3  1  0.49918588  0.90082073  0.49910080  1
  Zr  Zr4  1  0.89702654  0.89678336  0.50391719  1
  Zr  Zr5  1  0.49736698  0.69588663  0.90404413  1
  Zr  Zr6  1  0.69595457  0.10230087  0.90644920  1
  Zr  Zr7  1  0.10053233  0.90869447  0.29783137  1
  Zr  Zr8  1  0.89218478  0.69628532  0.70837086  1
  Zr  Zr9  1  0.70631833  0.69068036  0.90139565  1
  Zr  Zr10  1  0.29958183  0.50152264  0.49783079  1
  Zr  Zr11  1  0.50015788  0.10016039  0.09855101  1
  Zr  Zr12  1  0.29961724  0.29539516  0.50093482  1
  Zr  Zr13  1  0.69706791  0.70664541  0.30116534  1
  Zr  Zr14  1  0.90011194  0.28955600  0.69509431  1
  Zr  Zr15  1  0.10345379  0.50157652  0.50523059  1
  Zr  Zr16  1  0.89785132  0.69634215  0.10048935  1
  Zr  Zr17  1  0.49201062  0.30279563  0.29756374  1
  Zr  Zr18  1  0.50349350  0.29937895  0.89701814  1
  Zr  Zr19  1  0.29102263  0.68743565  0.29280745  1
  Zr  Zr20  1  0.11010359  0.50378326  0.30477387  1
  Zr  Zr21  1  0.71298611  0.89647118  0.69519374  1
  Zr  Zr22  1  0.90352989  0.30771699  0.10063164  1
  Zr  Zr23  1  0.28987591  0.90184362  0.29289045  1
  Zr  Zr24  1  0.91398555  0.50247463  0.50694093  1
  Zr  Zr25  1  0.90057596  0.70647027  0.30587063  1
  Zr  Zr26  1  0.70766825  0.10608234  0.68882762  1
  Zr  Zr27  1  0.29975972  0.90136076  0.89765592  1
  Zr  Zr28  1  0.50795646  0.89532887  0.29575626  1
  Zr  Zr29  1  0.09713372  0.70667185  0.29994692  1
  Zr  Zr30  1  0.90281545  0.50004964  0.90362645  1
  Zr  Zr31  1  0.50273871  0.70227584  0.69110853  1
  Zr  Zr32  1  0.50201494  0.89967018  0.09971090  1
  Zr  Zr33  1  0.09595750  0.50018358  0.69852240  1
  Zr  Zr34  1  0.49830283  0.90255070  0.89572279  1
  Zr  Zr35  1  0.10584207  0.90795001  0.89929206  1
  Zr  Zr36  1  0.90450026  0.09926349  0.30094532  1
  Zr  Zr37  1  0.09714896  0.49512799  0.89394957  1
  Zr  Zr38  1  0.70130023  0.89671036  0.30062565  1
  Zr  Zr39  1  0.69770671  0.49497813  0.90391144  1
  Zr  Zr40  1  0.29192839  0.49714302  0.68898452  1
  Zr  Zr41  1  0.49663661  0.09711898  0.29923571  1
  Zr  Zr42  1  0.70034186  0.29967011  0.70601737  1
  Zr  Zr43  1  0.69627634  0.49517823  0.70236155  1
  Zr  Zr44  1  0.50011963  0.69370651  0.30153947  1
  Zr  Zr45  1  0.29855860  0.49887246  0.90185374  1
  Zr  Zr46  1  0.70100048  0.09146083  0.29498572  1
  Zr  Zr47  1  0.90170576  0.49864324  0.29877656  1
  Zr  Zr48  1  0.49802633  0.50016297  0.68337225  1
  Zr  Zr49  1  0.30144850  0.30102711  0.10410988  1
  Sc  Sc50  1  0.29465954  0.30302036  0.30470759  1
  Sc  Sc51  1  0.50219420  0.49908389  0.91388987  1
  Sc  Sc52  1  0.10135541  0.30322584  0.70652176  1
  Sc  Sc53  1  0.29726507  0.70615316  0.90817489  1
  Sc  Sc54  1  0.90219556  0.30866017  0.29444291  1
  Sc  Sc55  1  0.70019356  0.90294224  0.49608104  1
  Sc  Sc56  1  0.89891477  0.89979220  0.30043576  1
  Sc  Sc57  1  0.30407963  0.49605990  0.29841712  1
  Sc  Sc58  1  0.30324094  0.10923795  0.70370602  1
  Sc  Sc59  1  0.50367331  0.29481076  0.69646413  1
  Sc  Sc60  1  0.49441446  0.29564637  0.09764972  1
  Sc  Sc61  1  0.90127195  0.10083592  0.09475168  1
  Sc  Sc62  1  0.90393146  0.10298810  0.50870489  1
  Sc  Sc63  1  0.69951300  0.29980787  0.90084831  1
  Sc  Sc64  1  0.09707257  0.10349595  0.49152529  1
  Sc  Sc65  1  0.49525205  0.10281297  0.90536702  1
  Sc  Sc66  1  0.89383617  0.68946673  0.90254722  1
  Sc  Sc67  1  0.09574837  0.10147991  0.90120195  1
  Sc  Sc68  1  0.50229661  0.69426532  0.49713665  1
  Sc  Sc69  1  0.69297068  0.71116719  0.50152056  1
  Sc  Sc70  1  0.90168392  0.29777555  0.90299434  1
  Sc  Sc71  1  0.70443441  0.69751051  0.10090036  1
  Sc  Sc72  1  0.09633870  0.29716697  0.90005530  1
  Sc  Sc73  1  0.10817368  0.69911332  0.90539144  1
  Sc  Sc74  1  0.68959291  0.49755219  0.49641268  1
  Sc  Sc75  1  0.09501488  0.29966023  0.10592729  1
  Sc  Sc76  1  0.69961459  0.90505922  0.10553710  1
  Sc  Sc77  1  0.89764842  0.91033169  0.09900934  1
  Sc  Sc78  1  0.49213951  0.30009932  0.49586444  1
  Sc  Sc79  1  0.10275226  0.90211911  0.10644766  1
  Sc  Sc80  1  0.09714234  0.10529194  0.10426499  1
  Sc  Sc81  1  0.09893813  0.89807823  0.49292164  1
  Sc  Sc82  1  0.29880970  0.28744379  0.89667122  1
  Sc  Sc83  1  0.09695270  0.49955640  0.09617573  1
  Sc  Sc84  1  0.29602927  0.09988666  0.29732802  1
  Sc  Sc85  1  0.89778962  0.49559622  0.10045409  1
  Sc  Sc86  1  0.10805367  0.90353890  0.70974259  1
  Sc  Sc87  1  0.10271235  0.29093616  0.49832071  1
  Sc  Sc88  1  0.49540571  0.90111146  0.69193394  1
  Sc  Sc89  1  0.29948703  0.89741651  0.70648880  1
  Sc  Sc90  1  0.70238968  0.49650026  0.30469818  1
  Sc  Sc91  1  0.90441438  0.09445585  0.90474255  1
  Sc  Sc92  1  0.70327006  0.30226400  0.50198929  1
  Sc  Sc93  1  0.30488635  0.10812017  0.49760622  1
  Sc  Sc94  1  0.70965807  0.90599402  0.90733951  1
  Sc  Sc95  1  0.09767014  0.69571606  0.49689555  1
  Sc  Sc96  1  0.09481639  0.09827698  0.70609695  1
  Sc  Sc97  1  0.11260346  0.70142716  0.09934838  1
  Sc  Sc98  1  0.69528153  0.09658631  0.09545092  1
  Sc  Sc99  1  0.91252299  0.49957748  0.70882807  1
  Nb  Nb100  1  0.30122225  0.30392560  0.70079083  1
  Nb  Nb101  1  0.29639825  0.89795878  0.10124062  1
  Nb  Nb102  1  0.29754466  0.09830978  0.90383970  1
  Nb  Nb103  1  0.69313566  0.49623638  0.10067646  1
  Nb  Nb104  1  0.30019799  0.69660129  0.09839790  1
  Nb  Nb105  1  0.90752903  0.90596279  0.90143676  1
  Nb  Nb106  1  0.49346357  0.50196894  0.10278981  1
  Nb  Nb107  1  0.49587877  0.50402316  0.48403702  1
  Nb  Nb108  1  0.89774836  0.08833616  0.69572642  1
  Nb  Nb109  1  0.90689300  0.69791865  0.50046597  1
  Nb  Nb110  1  0.30457711  0.50647061  0.10125077  1
  Nb  Nb111  1  0.09906191  0.10863427  0.30245767  1
  Nb  Nb112  1  0.49751827  0.50152622  0.30455494  1
  Nb  Nb113  1  0.69936719  0.69890364  0.70409652  1
  Nb  Nb114  1  0.29833228  0.69922316  0.49823455  1
  Nb  Nb115  1  0.70091578  0.10522133  0.49595946  1
  Nb  Nb116  1  0.90031457  0.90523639  0.70315120  1
  Nb  Nb117  1  0.49699639  0.69212812  0.09833222  1
  Nb  Nb118  1  0.09826009  0.70097221  0.70605148  1
  Nb  Nb119  1  0.09915532  0.29919957  0.30363181  1
  Nb  Nb120  1  0.50906822  0.09870437  0.69539272  1
  Nb  Nb121  1  0.70030829  0.30139983  0.10533774  1
  Nb  Nb122  1  0.30186717  0.10021077  0.09486849  1
  Nb  Nb123  1  0.70121884  0.30110833  0.29880133  1
  Nb  Nb124  1  0.90455978  0.30032399  0.49788547  1
  Nb  Nb125  1  0.39865814  0.59580909  0.79494962  1
  Nb  Nb126  1  0.80700830  0.40223988  0.60016619  1
  Nb  Nb127  1  0.20181112  0.00214425  0.59908804  1
  Nb  Nb128  1  0.59846383  0.79581395  -0.00293165  1
  Nb  Nb129  1  0.59594527  0.40372409  0.19912937  1
  Nb  Nb130  1  0.79992685  0.59906177  0.59865776  1
  Nb  Nb131  1  0.79598936  0.20490117  0.20240389  1
  Nb  Nb132  1  0.39690288  0.40128392  0.79421329  1
  Nb  Nb133  1  0.00088631  0.60374396  0.20386475  1
  Nb  Nb134  1  0.39550288  0.79381786  0.19576531  1
  Nb  Nb135  1  0.59642527  0.60201962  0.79730239  1
  Nb  Nb136  1  0.60581694  0.79960842  0.80088009  1
  Nb  Nb137  1  0.60223863  0.00106833  0.79289826  1
  Nb  Nb138  1  0.00570309  0.39822319  0.40060559  1
  Nb  Nb139  1  0.59479947  0.59238602  0.19780321  1
  Nb  Nb140  1  0.20348241  0.59889128  0.79441400  1
  Nb  Nb141  1  -0.00361027  0.79946501  0.61111854  1
  Nb  Nb142  1  0.60629922  0.19801104  0.39551182  1
  Nb  Nb143  1  0.20387841  0.39881846  0.00139983  1
  Nb  Nb144  1  -0.00269420  0.80539364  -0.00521047  1
  Nb  Nb145  1  0.79893856  0.20264339  0.39675089  1
  Nb  Nb146  1  0.39407247  0.79724115  0.39322932  1
  Nb  Nb147  1  -0.00537021  0.80375058  0.80319794  1
  Nb  Nb148  1  0.20862863  0.00440970  0.00420058  1
  Nb  Nb149  1  0.80509971  0.60418620  0.40921703  1
  Pd  Pd150  1  0.40142234  0.79981614  0.00656698  1
  Pd  Pd151  1  0.80704752  0.00518947  0.40660054  1
  Pd  Pd152  1  -0.00738312  0.20156090  0.20188017  1
  Pd  Pd153  1  0.19532567  0.20134722  0.00216684  1
  Pd  Pd154  1  0.38856118  0.00532094  0.60757118  1
  Pd  Pd155  1  0.19811347  0.40329814  0.19358299  1
  Pd  Pd156  1  0.39414802  0.39306330  -0.00502294  1
  Pd  Pd157  1  0.40109252  0.79654828  0.59071135  1
  Pd  Pd158  1  0.40486604  0.00979746  0.79246090  1
  Pd  Pd159  1  0.20102880  0.79645500  0.39909326  1
  Pd  Pd160  1  0.59535878  0.39244912  0.39657004  1
  Pd  Pd161  1  0.80664332  0.19075490  0.80474691  1
  Pd  Pd162  1  0.00537059  0.60707949  0.00556148  1
  Pd  Pd163  1  0.59908679  0.20887222  0.59020346  1
  Pd  Pd164  1  0.60023512  0.39310764  0.59166830  1
  Pd  Pd165  1  0.19270131  0.38918445  0.59579704  1
  Pd  Pd166  1  0.20258252  0.00949098  0.40600538  1
  Pd  Pd167  1  0.80428651  0.79147904  0.59550070  1
  Pd  Pd168  1  0.18838760  0.80623990  0.59899512  1
  Pd  Pd169  1  0.39693134  0.00037989  0.00056766  1
  Pd  Pd170  1  0.80381308  0.80748413  0.19503314  1
  Pd  Pd171  1  0.19675979  0.19729435  0.79806621  1
  Pd  Pd172  1  0.60022967  0.00335700  0.40155237  1
  Pd  Pd173  1  0.80197184  0.80509763  0.00207516  1
  Pd  Pd174  1  0.00105294  0.00326473  0.19756583  1
  Pd  Pd175  1  0.79993264  0.20169940  0.00758655  1
  Pd  Pd176  1  0.59880729  0.19107023  0.80113065  1
  Pd  Pd177  1  0.40190035  0.79166494  0.79656956  1
  Pd  Pd178  1  0.79706576  0.59514520  0.20634013  1
  Pd  Pd179  1  0.80783601  0.40207371  0.40835617  1
  Pd  Pd180  1  -0.00686218  0.19525539  0.80116158  1
  Pd  Pd181  1  0.59680893  0.39183414  0.00861448  1
  Pd  Pd182  1  0.01156101  -0.00767036  0.60228940  1
  Pd  Pd183  1  0.40155525  0.39466393  0.59562633  1
  Pd  Pd184  1  0.80956472  0.40019407  0.79644156  1
  Pd  Pd185  1  0.19506755  0.19322495  0.60571181  1
  Pd  Pd186  1  0.80203819  0.80486433  0.81202008  1
  Pd  Pd187  1  0.39747709  -0.00477470  0.19913389  1
  Pd  Pd188  1  -0.00303699  -0.00136711  0.40289370  1
  Pd  Pd189  1  0.39482661  -0.00506869  0.39647000  1
  Pd  Pd190  1  0.40523717  0.20027056  0.79664948  1
  Pd  Pd191  1  0.39212306  0.19802420  0.20318873  1
  Pd  Pd192  1  0.00737705  0.19808514  0.60247770  1
  Pd  Pd193  1  0.60704558  0.60068372  0.59538907  1
  Pd  Pd194  1  -0.00095582  0.79873677  0.18950572  1
  Pd  Pd195  1  0.60817883  -0.00537562  0.60222357  1
  Pd  Pd196  1  0.79725234  0.00773346  0.80415005  1
  Pd  Pd197  1  0.60270784  0.20342236  0.20036963  1
  Pd  Pd198  1  0.79944830  0.39985821  0.00090809  1
  Pd  Pd199  1  0.20164037  0.19836852  0.20312692  1
  Rh  Rh200  1  0.59993081  0.00127735  0.19708655  1
  Rh  Rh201  1  0.40350606  0.20100600  0.60623891  1
  Rh  Rh202  1  0.39233993  0.59978713  -0.00313455  1
  Rh  Rh203  1  0.60628502  0.60466765  0.00639848  1
  Rh  Rh204  1  0.19675637  0.01178632  0.19366220  1
  Rh  Rh205  1  0.00051771  0.38728158  0.59756276  1
  Rh  Rh206  1  0.40042452  0.60217220  0.59145811  1
  Rh  Rh207  1  0.00996658  0.60911487  0.80848325  1
  Rh  Rh208  1  0.79303479  0.58703092  0.79589006  1
  Rh  Rh209  1  0.59519092  0.78829127  0.18594855  1
  Rh  Rh210  1  0.40343835  0.19922210  0.39422196  1
  Rh  Rh211  1  0.59914991  0.20495017  0.00191554  1
  Rh  Rh212  1  0.19249791  0.60783460  0.60047076  1
  Rh  Rh213  1  -0.00009592  0.20206416  0.00234330  1
  Rh  Rh214  1  0.20623092  0.01052136  0.80099816  1
  Rh  Rh215  1  0.20592483  0.40091549  0.80621106  1
  Rh  Rh216  1  -0.00515528  0.39091825  0.80155249  1
  Rh  Rh217  1  0.20437227  0.59156455  -0.00039168  1
  Rh  Rh218  1  0.19586434  0.39459853  0.40501991  1
  Rh  Rh219  1  0.80316881  0.20510232  0.59184904  1
  Rh  Rh220  1  0.80061265  0.79641692  0.40510508  1
  Rh  Rh221  1  0.39920527  0.20141541  -0.00105828  1
  Rh  Rh222  1  -0.00102558  0.59440064  0.39053168  1
  Rh  Rh223  1  -0.00076218  0.80737397  0.40634495  1
  Rh  Rh224  1  0.40230131  0.59977935  0.19870632  1
  Rh  Rh225  1  0.80175585  0.00635131  0.19614740  1
  Rh  Rh226  1  0.01141161  0.41027626  0.20932473  1
  Rh  Rh227  1  0.79944486  0.00333809  0.59323273  1
  Rh  Rh228  1  0.60178916  0.80664667  0.60338570  1
  Rh  Rh229  1  -0.00321943  -0.00006085  0.79662817  1
  Rh  Rh230  1  0.19516687  0.81227923  0.00297020  1
  Rh  Rh231  1  0.20378843  0.79763888  0.19617637  1
  Rh  Rh232  1  0.79781538  0.58817329  0.00593603  1
  Rh  Rh233  1  0.00664277  0.39694567  -0.00203538  1
  Rh  Rh234  1  0.19363076  0.59285032  0.19177442  1
  Rh  Rh235  1  0.20150054  0.19830616  0.39518096  1
  Rh  Rh236  1  0.20288626  0.60246712  0.40541877  1
  Rh  Rh237  1  -0.00188272  0.61239575  0.60981402  1
  Rh  Rh238  1  0.39249346  0.60364096  0.40290852  1
  Rh  Rh239  1  0.59194492  0.80263591  0.40603197  1
  Rh  Rh240  1  0.59834717  -0.00744390  -0.00666920  1
  Rh  Rh241  1  0.80078003  0.00288675  0.00161804  1
  Rh  Rh242  1  0.39477955  0.40095335  0.40118329  1
  Rh  Rh243  1  0.40223900  0.40411745  0.20097298  1
  Rh  Rh244  1  0.19888660  0.79039360  0.80325418  1
  Rh  Rh245  1  0.79165254  0.39909641  0.19583515  1
  Rh  Rh246  1  0.61010463  0.59952637  0.39439186  1
  Rh  Rh247  1  -0.00639040  0.20785772  0.39369954  1
  Rh  Rh248  1  0.01266118  -0.00342419  0.00545655  1
  Rh  Rh249  1  0.58371508  0.41110453  0.80071822  1
