# generated using pymatgen
data_ZrScNbPdRh
_symmetry_space_group_name_H-M   'P 1'
_cell_length_a   16.55721116
_cell_length_b   16.55920739
_cell_length_c   16.56299258
_cell_angle_alpha   89.98993073
_cell_angle_beta   90.02493336
_cell_angle_gamma   90.00861232
_symmetry_Int_Tables_number   1
_chemical_formula_structural   ZrScNbPdRh
_chemical_formula_sum   'Zr50 Sc50 Nb50 Pd50 Rh50'
_cell_volume   4541.14623595
_cell_formula_units_Z   50
loop_
 _symmetry_equiv_pos_site_id
 _symmetry_equiv_pos_as_xyz
  1  'x, y, z'
loop_
 _atom_site_type_symbol
 _atom_site_label
 _atom_site_symmetry_multiplicity
 _atom_site_fract_x
 _atom_site_fract_y
 _atom_site_fract_z
 _atom_site_occupancy
  Zr  Zr0  1  0.90166661  0.70841531  0.89802882  1
  Zr  Zr1  1  0.29998234  0.69635241  0.89714288  1
  Zr  Zr2  1  0.29796304  0.29713281  0.09693932  1
  Zr  Zr3  1  0.10493750  0.50344903  0.50125891  1
  Zr  Zr4  1  0.69769951  0.70139782  0.29533136  1
  Zr  Zr5  1  0.10123185  0.90697438  0.10473089  1
  Zr  Zr6  1  0.10325715  0.70914345  0.09719832  1
  Zr  Zr7  1  0.89716476  0.89974154  0.89416144  1
  Zr  Zr8  1  0.10862353  0.30283384  0.50400743  1
  Zr  Zr9  1  0.70512925  0.29496191  0.90207329  1
  Zr  Zr10  1  0.90249327  0.69490174  0.49925897  1
  Zr  Zr11  1  0.10090957  0.09510730  0.50786858  1
  Zr  Zr12  1  0.88225409  0.89925435  0.29691254  1
  Zr  Zr13  1  0.29791767  0.10550362  0.91163444  1
  Zr  Zr14  1  0.10481362  0.10365249  0.09539868  1
  Zr  Zr15  1  0.50066534  0.29426116  0.50319064  1
  Zr  Zr16  1  0.29365311  0.89956987  0.49875989  1
  Zr  Zr17  1  0.89380319  0.48333849  0.69620269  1
  Zr  Zr18  1  0.09826244  0.90256192  0.69666760  1
  Zr  Zr19  1  0.89223200  0.10025489  0.49646392  1
  Zr  Zr20  1  0.50178785  0.89931578  0.29609493  1
  Zr  Zr21  1  0.90458391  0.50352324  0.10273170  1
  Zr  Zr22  1  0.49941996  0.10396087  0.49309037  1
  Zr  Zr23  1  0.30010227  0.49588430  0.90096914  1
  Zr  Zr24  1  0.90335563  0.90080406  0.09626026  1
  Zr  Zr25  1  0.49984110  0.89429620  0.89875947  1
  Zr  Zr26  1  0.29758262  0.50247050  0.49805692  1
  Zr  Zr27  1  0.10040741  0.90083348  0.50199500  1
  Zr  Zr28  1  0.49466322  0.29885447  0.69749797  1
  Zr  Zr29  1  0.30917500  0.49844191  0.09100008  1
  Zr  Zr30  1  0.50371882  0.50651366  0.70751833  1
  Zr  Zr31  1  0.69410680  0.50478298  0.50009264  1
  Zr  Zr32  1  0.31319296  0.10183565  0.30345269  1
  Zr  Zr33  1  0.89835838  0.29767308  0.29908922  1
  Zr  Zr34  1  0.50305270  0.89934020  0.10125962  1
  Zr  Zr35  1  0.10312250  0.90176117  0.29698851  1
  Zr  Zr36  1  0.49481910  0.28397766  0.30499679  1
  Zr  Zr37  1  0.68764929  0.30728067  0.29457151  1
  Zr  Zr38  1  0.30380632  0.89051486  0.70050677  1
  Zr  Zr39  1  0.29028663  0.90318220  0.09592112  1
  Zr  Zr40  1  0.68988138  0.50083398  0.88674043  1
  Zr  Zr41  1  0.70770393  0.09987919  0.89846074  1
  Zr  Zr42  1  0.89707168  0.70210672  0.70771459  1
  Zr  Zr43  1  0.30907830  0.70027097  0.30080558  1
  Zr  Zr44  1  0.70145759  0.89445621  0.69363429  1
  Zr  Zr45  1  0.50240965  0.69722569  0.49214015  1
  Zr  Zr46  1  0.70462366  0.10754471  0.30520280  1
  Zr  Zr47  1  0.71481987  0.31174658  0.70994247  1
  Zr  Zr48  1  0.90601633  0.50538070  0.49981086  1
  Zr  Zr49  1  0.29819212  0.69712073  0.49899825  1
  Sc  Sc50  1  0.30267390  0.49625203  0.70924363  1
  Sc  Sc51  1  0.69073642  0.69934213  0.09830601  1
  Sc  Sc52  1  0.10397838  0.69098540  0.50624854  1
  Sc  Sc53  1  0.69677591  0.89942969  0.10527530  1
  Sc  Sc54  1  0.69341826  0.10398207  0.08722826  1
  Sc  Sc55  1  0.90809101  0.09003959  0.71287492  1
  Sc  Sc56  1  0.10694529  0.50175635  0.29475364  1
  Sc  Sc57  1  0.90883836  0.09762363  0.09503303  1
  Sc  Sc58  1  0.49875109  0.10201498  0.68533455  1
  Sc  Sc59  1  0.09828430  0.09978655  0.28428054  1
  Sc  Sc60  1  0.69754609  0.09738879  0.69356256  1
  Sc  Sc61  1  0.30082290  0.29940971  0.28982258  1
  Sc  Sc62  1  0.11364956  0.69641846  0.29498997  1
  Sc  Sc63  1  0.10040736  0.49785115  0.09472356  1
  Sc  Sc64  1  0.10301791  0.29942277  0.28596176  1
  Sc  Sc65  1  0.69294578  0.69851481  0.70760313  1
  Sc  Sc66  1  0.49874908  0.69379558  0.10120356  1
  Sc  Sc67  1  0.29776305  0.30223822  0.51237435  1
  Sc  Sc68  1  0.49887685  0.30248924  0.11307040  1
  Sc  Sc69  1  0.48785407  0.50709408  0.90032013  1
  Sc  Sc70  1  0.50847306  0.50291384  0.29776861  1
  Sc  Sc71  1  0.68951358  0.51246148  0.10961451  1
  Sc  Sc72  1  0.91575089  0.30516134  0.09447354  1
  Sc  Sc73  1  0.50296501  0.50604712  0.49698458  1
  Sc  Sc74  1  0.90101984  0.29392728  0.88980866  1
  Sc  Sc75  1  0.30364894  0.09433908  0.50266920  1
  Sc  Sc76  1  0.30058543  0.69778151  0.10885145  1
  Sc  Sc77  1  0.89919332  0.69500802  0.10120004  1
  Sc  Sc78  1  0.89370112  0.30862013  0.50372050  1
  Sc  Sc79  1  0.09729378  0.69553279  0.89809267  1
  Sc  Sc80  1  0.48990475  0.30380589  0.90135318  1
  Sc  Sc81  1  0.10050067  0.69758019  0.69836196  1
  Sc  Sc82  1  0.10146642  0.10002249  0.70417938  1
  Sc  Sc83  1  0.29894155  0.50745958  0.29731453  1
  Sc  Sc84  1  0.09614725  0.49800301  0.69950836  1
  Sc  Sc85  1  0.49795826  0.89887372  0.50449521  1
  Sc  Sc86  1  0.91670201  0.49698597  0.89926638  1
  Sc  Sc87  1  0.29600303  0.70107704  0.70087564  1
  Sc  Sc88  1  0.10081982  0.88679768  0.91264538  1
  Sc  Sc89  1  0.30121111  0.89871630  0.29789816  1
  Sc  Sc90  1  0.49703624  0.09626848  0.10497767  1
  Sc  Sc91  1  0.69134989  0.70534855  0.50041307  1
  Sc  Sc92  1  0.29590436  0.30372289  0.89942538  1
  Sc  Sc93  1  0.10099861  0.30024602  0.90025232  1
  Sc  Sc94  1  0.50579471  0.69677062  0.89596331  1
  Sc  Sc95  1  0.69608871  0.29208928  0.49391942  1
  Sc  Sc96  1  0.90079846  0.10167691  0.29082435  1
  Sc  Sc97  1  0.50344578  0.09680750  0.91301220  1
  Sc  Sc98  1  0.69995840  0.89481211  0.90576945  1
  Sc  Sc99  1  0.29552379  0.29469228  0.70820274  1
  Nb  Nb100  1  0.69509009  0.89765501  0.30276455  1
  Nb  Nb101  1  0.70442205  0.69707053  0.89947441  1
  Nb  Nb102  1  0.29746079  0.10005165  0.71312878  1
  Nb  Nb103  1  0.10076941  0.29035357  0.70112152  1
  Nb  Nb104  1  0.49899732  0.70924698  0.69885778  1
  Nb  Nb105  1  0.10418791  0.29657378  0.09991595  1
  Nb  Nb106  1  0.90148590  0.29562246  0.70026728  1
  Nb  Nb107  1  0.49820076  0.09691847  0.30641078  1
  Nb  Nb108  1  0.70222248  0.50453685  0.29702950  1
  Nb  Nb109  1  0.70761936  0.90734891  0.49507731  1
  Nb  Nb110  1  0.90265239  0.89522931  0.69803477  1
  Nb  Nb111  1  0.29995194  0.89990208  0.90113959  1
  Nb  Nb112  1  0.11070304  0.49337974  0.90202095  1
  Nb  Nb113  1  0.90099871  0.09928725  0.89683121  1
  Nb  Nb114  1  0.69852302  0.49980857  0.69922090  1
  Nb  Nb115  1  0.50179925  0.50273835  0.09181259  1
  Nb  Nb116  1  0.49936351  0.89316260  0.70786401  1
  Nb  Nb117  1  0.69608047  0.10109662  0.50453776  1
  Nb  Nb118  1  0.89934847  0.69444855  0.29910502  1
  Nb  Nb119  1  0.49933485  0.70677495  0.30135030  1
  Nb  Nb120  1  0.89460202  0.50903769  0.29862613  1
  Nb  Nb121  1  0.09732676  0.10473974  0.89695161  1
  Nb  Nb122  1  0.29298207  0.10088522  0.10068655  1
  Nb  Nb123  1  0.89464646  0.89907358  0.50196864  1
  Nb  Nb124  1  0.69921926  0.30651333  0.09833185  1
  Nb  Nb125  1  0.79604405  0.21144433  0.19042946  1
  Nb  Nb126  1  0.79542226  0.59588225  -0.00772360  1
  Nb  Nb127  1  0.00487755  0.20133157  0.40477827  1
  Nb  Nb128  1  0.79961099  0.40965991  0.39160839  1
  Nb  Nb129  1  0.40469186  0.60446966  0.60201055  1
  Nb  Nb130  1  -0.00180334  0.40210785  0.39599580  1
  Nb  Nb131  1  -0.00642084  0.80052959  0.39743785  1
  Nb  Nb132  1  0.59358848  -0.00228466  0.79619971  1
  Nb  Nb133  1  0.19620833  0.19846954  0.40042546  1
  Nb  Nb134  1  0.39910583  -0.00134257  0.79989019  1
  Nb  Nb135  1  0.79776104  0.40489684  0.19913294  1
  Nb  Nb136  1  0.39566728  0.80216619  -0.00188884  1
  Nb  Nb137  1  0.60306861  0.40216679  0.60593308  1
  Nb  Nb138  1  0.79465705  0.40591051  0.00413687  1
  Nb  Nb139  1  0.60152481  0.40339738  0.00313255  1
  Nb  Nb140  1  0.60108765  0.19725595  0.80038054  1
  Nb  Nb141  1  0.40079714  0.39857408  0.40094083  1
  Nb  Nb142  1  -0.00325813  0.20250168  0.60166595  1
  Nb  Nb143  1  -0.00721491  0.80507152  0.59614684  1
  Nb  Nb144  1  -0.00538822  -0.00435474  0.40098605  1
  Nb  Nb145  1  0.60725112  -0.00052608  0.40101163  1
  Nb  Nb146  1  0.80419287  0.20010811  0.60443160  1
  Nb  Nb147  1  0.20609212  -0.00127202  0.80793929  1
  Nb  Nb148  1  -0.00567033  0.79901231  0.20890560  1
  Nb  Nb149  1  0.79612562  0.59519487  0.60496629  1
  Pd  Pd150  1  0.60029389  0.80460292  0.59502666  1
  Pd  Pd151  1  0.39709529  -0.00116647  0.60520457  1
  Pd  Pd152  1  0.40720763  0.41171639  0.59692391  1
  Pd  Pd153  1  0.20015778  0.60126889  0.00315726  1
  Pd  Pd154  1  0.79816276  -0.00077387  0.00444562  1
  Pd  Pd155  1  0.39544908  -0.00153024  0.19700304  1
  Pd  Pd156  1  0.00635301  0.39421987  0.80119306  1
  Pd  Pd157  1  0.40924964  0.19101325  0.80425157  1
  Pd  Pd158  1  0.59637780  0.40157579  0.40497815  1
  Pd  Pd159  1  0.79966294  0.79301159  0.19121351  1
  Pd  Pd160  1  0.38720421  0.19511290  0.60009939  1
  Pd  Pd161  1  0.59482700  0.79453614  0.00131890  1
  Pd  Pd162  1  0.60758497  0.00794550  0.20550947  1
  Pd  Pd163  1  0.20329298  0.39224195  0.39114373  1
  Pd  Pd164  1  0.00535031  -0.00028874  -0.00983411  1
  Pd  Pd165  1  0.40675979  0.59583223  0.20192832  1
  Pd  Pd166  1  0.00550528  0.39383284  0.59663763  1
  Pd  Pd167  1  0.40570427  0.20480242  0.00818087  1
  Pd  Pd168  1  0.19609637  0.59432835  0.79571410  1
  Pd  Pd169  1  0.21050579  0.00357359  0.61118508  1
  Pd  Pd170  1  0.79240872  -0.00407628  0.79437434  1
  Pd  Pd171  1  0.79806386  0.00457675  0.39613258  1
  Pd  Pd172  1  0.79260303  0.01219099  0.18842212  1
  Pd  Pd173  1  0.60228830  0.19187917  0.19639807  1
  Pd  Pd174  1  0.40009659  0.79355955  0.59488041  1
  Pd  Pd175  1  0.79885719  0.79264047  0.00670336  1
  Pd  Pd176  1  0.59565829  -0.00802480  0.59771225  1
  Pd  Pd177  1  0.00963865  0.60648676  0.20206014  1
  Pd  Pd178  1  0.19487604  0.01112952  0.39111965  1
  Pd  Pd179  1  0.80589941  0.59190416  0.80122204  1
  Pd  Pd180  1  0.01160266  -0.00860401  0.81124566  1
  Pd  Pd181  1  0.79079479  0.60384921  0.40645256  1
  Pd  Pd182  1  0.40048773  -0.00449240  0.00054842  1
  Pd  Pd183  1  0.00039845  0.60261429  -0.00310906  1
  Pd  Pd184  1  0.40665273  0.40652561  0.20737238  1
  Pd  Pd185  1  -0.00149687  0.20245436  -0.00595162  1
  Pd  Pd186  1  -0.00006876  0.40328463  0.20455369  1
  Pd  Pd187  1  0.40107801  0.80718966  0.40180998  1
  Pd  Pd188  1  0.01240115  0.60124893  0.38950354  1
  Pd  Pd189  1  0.58954664  0.21103987  -0.00204073  1
  Pd  Pd190  1  0.79698895  0.79118756  0.40244211  1
  Pd  Pd191  1  0.81360863  0.20697272  0.00690658  1
  Pd  Pd192  1  0.80572859  0.00656292  0.60818303  1
  Pd  Pd193  1  0.58932488  0.39190308  0.80376197  1
  Pd  Pd194  1  0.20241588  0.40628068  0.19135801  1
  Pd  Pd195  1  0.00342942  0.59525168  0.79791710  1
  Pd  Pd196  1  0.79959192  0.78996477  0.59936835  1
  Pd  Pd197  1  0.19269670  0.80252996  0.80147415  1
  Pd  Pd198  1  0.19430333  0.79206284  0.40099283  1
  Pd  Pd199  1  0.20158651  0.40527083  0.61367110  1
  Rh  Rh200  1  0.40736211  0.39618366  0.00352828  1
  Rh  Rh201  1  0.78860908  0.40029309  0.58796175  1
  Rh  Rh202  1  0.20910215  0.79050581  -0.00104241  1
  Rh  Rh203  1  -0.00993590  0.60666604  0.61280101  1
  Rh  Rh204  1  0.20997463  0.00679189  0.20419700  1
  Rh  Rh205  1  0.19168137  0.00525446  -0.00720621  1
  Rh  Rh206  1  0.60080447  0.60660515  0.38903972  1
  Rh  Rh207  1  0.40250223  0.61032592  0.79089837  1
  Rh  Rh208  1  0.79747055  0.60240521  0.19161351  1
  Rh  Rh209  1  -0.00861506  -0.01074180  0.20657686  1
  Rh  Rh210  1  0.00542041  0.39736830  -0.00386084  1
  Rh  Rh211  1  0.60282682  0.59488670  -0.00631749  1
  Rh  Rh212  1  0.19207673  0.79685709  0.59868745  1
  Rh  Rh213  1  0.59143691  0.60564999  0.20549670  1
  Rh  Rh214  1  0.00195256  0.19997780  0.79659982  1
  Rh  Rh215  1  0.59674734  0.40800014  0.19331052  1
  Rh  Rh216  1  0.40276156  0.59340454  0.40065304  1
  Rh  Rh217  1  0.19613964  0.20468249  -0.00188055  1
  Rh  Rh218  1  0.19968491  0.80170531  0.20126136  1
  Rh  Rh219  1  0.79312931  0.80679968  0.80166188  1
  Rh  Rh220  1  0.19898549  0.19362468  0.60222058  1
  Rh  Rh221  1  0.40903404  -0.00799687  0.40162682  1
  Rh  Rh222  1  0.19985584  0.60277631  0.39740526  1
  Rh  Rh223  1  0.38465289  0.21174795  0.40829109  1
  Rh  Rh224  1  0.60130328  0.19190628  0.39814376  1
  Rh  Rh225  1  0.61624668  0.21538146  0.61550304  1
  Rh  Rh226  1  0.40168093  0.80289231  0.19189535  1
  Rh  Rh227  1  0.19670663  0.19720871  0.80626372  1
  Rh  Rh228  1  -0.01077663  -0.00039679  0.59445797  1
  Rh  Rh229  1  0.21097013  0.59444991  0.60764111  1
  Rh  Rh230  1  0.39854440  0.79670130  0.80764501  1
  Rh  Rh231  1  0.60182569  0.80832702  0.40135120  1
  Rh  Rh232  1  -0.00452723  0.79672041  0.00712264  1
  Rh  Rh233  1  0.80993060  0.40865856  0.81522515  1
  Rh  Rh234  1  0.79934452  0.18634109  0.79063889  1
  Rh  Rh235  1  0.39580020  0.39870315  0.80241466  1
  Rh  Rh236  1  0.00559253  0.80340764  0.79368320  1
  Rh  Rh237  1  0.39869664  0.19079701  0.19309409  1
  Rh  Rh238  1  0.19519921  0.39701107  0.79883213  1
  Rh  Rh239  1  0.80138778  0.20788341  0.40141467  1
  Rh  Rh240  1  0.60700973  0.80130561  0.80142832  1
  Rh  Rh241  1  -0.00464753  0.20124510  0.19664737  1
  Rh  Rh242  1  0.60385466  -0.00366718  -0.00469168  1
  Rh  Rh243  1  0.19674980  0.39547521  0.00252138  1
  Rh  Rh244  1  0.20302551  0.59548399  0.19161221  1
  Rh  Rh245  1  0.59583976  0.60727740  0.79925207  1
  Rh  Rh246  1  0.59648542  0.79596467  0.19987888  1
  Rh  Rh247  1  0.20576849  0.19583113  0.20265165  1
  Rh  Rh248  1  0.39792356  0.60936810  -0.00059725  1
  Rh  Rh249  1  0.59832457  0.59889942  0.60869208  1
