# generated using pymatgen
data_ZrScNbPdRh
_symmetry_space_group_name_H-M   'P 1'
_cell_length_a   16.56116241
_cell_length_b   16.55799503
_cell_length_c   16.55786420
_cell_angle_alpha   90.00521273
_cell_angle_beta   89.99048197
_cell_angle_gamma   89.96787958
_symmetry_Int_Tables_number   1
_chemical_formula_structural   ZrScNbPdRh
_chemical_formula_sum   'Zr50 Sc50 Nb50 Pd50 Rh50'
_cell_volume   4540.49084490
_cell_formula_units_Z   50
loop_
 _symmetry_equiv_pos_site_id
 _symmetry_equiv_pos_as_xyz
  1  'x, y, z'
loop_
 _atom_site_type_symbol
 _atom_site_label
 _atom_site_symmetry_multiplicity
 _atom_site_fract_x
 _atom_site_fract_y
 _atom_site_fract_z
 _atom_site_occupancy
  Zr  Zr0  1  0.90001883  0.70189940  0.29988290  1
  Zr  Zr1  1  0.50071252  0.49010991  0.69389973  1
  Zr  Zr2  1  0.69832338  0.49370129  0.90080739  1
  Zr  Zr3  1  0.10528966  0.50943644  0.89628896  1
  Zr  Zr4  1  0.70056024  0.10119614  0.49714185  1
  Zr  Zr5  1  0.71171016  0.49551985  0.10358485  1
  Zr  Zr6  1  0.69605624  0.10377660  0.69360633  1
  Zr  Zr7  1  0.29715076  0.49991746  0.69575022  1
  Zr  Zr8  1  0.89405169  0.09590756  0.29988043  1
  Zr  Zr9  1  0.50359767  0.69541224  0.90446061  1
  Zr  Zr10  1  0.29443285  0.09964051  0.89247445  1
  Zr  Zr11  1  0.10350367  0.48960210  0.50808374  1
  Zr  Zr12  1  0.89537118  0.89549326  0.70949743  1
  Zr  Zr13  1  0.69887044  0.09338573  0.89624350  1
  Zr  Zr14  1  0.49683040  0.90003680  0.50170967  1
  Zr  Zr15  1  0.08629462  0.70806066  0.10316724  1
  Zr  Zr16  1  0.50353607  0.30148058  0.29322604  1
  Zr  Zr17  1  0.49632913  0.28876901  0.09127945  1
  Zr  Zr18  1  0.90468705  0.69550220  0.90139676  1
  Zr  Zr19  1  0.90377011  0.70223953  0.70426081  1
  Zr  Zr20  1  0.90175266  0.09980833  0.69945673  1
  Zr  Zr21  1  0.50513183  0.70721543  0.71183470  1
  Zr  Zr22  1  0.50606309  0.09170078  0.29050997  1
  Zr  Zr23  1  0.10487441  0.70601256  0.50863603  1
  Zr  Zr24  1  0.89972566  0.49719858  0.89834262  1
  Zr  Zr25  1  0.89892720  0.50684155  0.10021842  1
  Zr  Zr26  1  0.89633250  0.69764221  0.49733865  1
  Zr  Zr27  1  0.10204112  0.89844323  0.49973770  1
  Zr  Zr28  1  0.69571708  0.90035525  0.49196596  1
  Zr  Zr29  1  0.89550484  0.49157729  0.50345750  1
  Zr  Zr30  1  0.50221860  0.31122045  0.49555612  1
  Zr  Zr31  1  0.30792224  0.29593183  0.89561791  1
  Zr  Zr32  1  0.09704203  0.70412256  0.89803310  1
  Zr  Zr33  1  0.50539366  0.70913852  0.10044641  1
  Zr  Zr34  1  0.10234823  0.30612445  0.30875102  1
  Zr  Zr35  1  0.70274495  0.70454057  0.49776449  1
  Zr  Zr36  1  0.50335770  0.50200001  0.89231455  1
  Zr  Zr37  1  0.89970772  0.29653025  0.30882512  1
  Zr  Zr38  1  0.49628592  0.70603203  0.30345194  1
  Zr  Zr39  1  0.69784277  0.89236350  0.09583053  1
  Zr  Zr40  1  0.89227803  0.30698108  0.09976281  1
  Zr  Zr41  1  0.29731266  0.90650465  0.89456125  1
  Zr  Zr42  1  0.09873450  0.10407741  0.51031991  1
  Zr  Zr43  1  0.90457010  0.89622287  0.49957822  1
  Zr  Zr44  1  0.69025510  0.69693160  0.90110833  1
  Zr  Zr45  1  0.29579709  0.69524435  0.89741050  1
  Zr  Zr46  1  0.51024939  0.30735054  0.88915533  1
  Zr  Zr47  1  0.30028126  0.89597558  0.50608412  1
  Zr  Zr48  1  0.90373013  0.09491714  0.89962741  1
  Zr  Zr49  1  0.11435936  0.50078777  0.10881589  1
  Sc  Sc50  1  0.50577160  0.09105774  0.50186126  1
  Sc  Sc51  1  0.29350090  0.51145407  0.29581718  1
  Sc  Sc52  1  0.88838827  0.50017077  0.30286526  1
  Sc  Sc53  1  0.90305671  0.29972996  0.50154028  1
  Sc  Sc54  1  0.29026934  0.10061369  0.09972026  1
  Sc  Sc55  1  0.69401991  0.30770218  0.09950014  1
  Sc  Sc56  1  0.90756284  0.30301591  0.89320486  1
  Sc  Sc57  1  0.10207277  0.10121678  0.90252678  1
  Sc  Sc58  1  0.68410885  0.08933005  0.10226968  1
  Sc  Sc59  1  0.09184654  0.88621416  0.69298108  1
  Sc  Sc60  1  0.90816352  0.08387655  0.09667225  1
  Sc  Sc61  1  0.49565324  0.89991857  0.30462372  1
  Sc  Sc62  1  0.50457079  0.90084394  0.10786446  1
  Sc  Sc63  1  0.49935718  0.49292658  0.30891315  1
  Sc  Sc64  1  0.89683424  0.89780985  0.90580978  1
  Sc  Sc65  1  0.30219063  0.69757937  0.49618197  1
  Sc  Sc66  1  0.49776480  0.51693030  0.09037046  1
  Sc  Sc67  1  0.30026192  0.10325034  0.70591117  1
  Sc  Sc68  1  0.69366665  0.30998649  0.29048644  1
  Sc  Sc69  1  0.70119305  0.89275711  0.70750447  1
  Sc  Sc70  1  0.70049479  0.70052509  0.70246403  1
  Sc  Sc71  1  0.29514000  0.69842295  0.68954154  1
  Sc  Sc72  1  0.30655705  0.70119805  0.30195267  1
  Sc  Sc73  1  0.09772097  0.29836106  0.69848054  1
  Sc  Sc74  1  0.10629644  0.09490352  0.30027002  1
  Sc  Sc75  1  0.70416281  0.89676186  0.90050324  1
  Sc  Sc76  1  0.30344140  0.90463672  0.30424971  1
  Sc  Sc77  1  0.90282707  0.30511529  0.69965478  1
  Sc  Sc78  1  0.30882304  0.50509030  0.50206149  1
  Sc  Sc79  1  0.30888691  0.29825527  0.69805601  1
  Sc  Sc80  1  0.89483885  0.10998184  0.49553132  1
  Sc  Sc81  1  0.28345971  0.30013257  0.09840045  1
  Sc  Sc82  1  0.49990506  0.70548820  0.50149221  1
  Sc  Sc83  1  0.50059818  0.10707997  0.69156420  1
  Sc  Sc84  1  0.49955955  0.11548284  0.90627815  1
  Sc  Sc85  1  0.09741629  0.90288398  0.30148759  1
  Sc  Sc86  1  0.69446355  0.29713327  0.69606173  1
  Sc  Sc87  1  0.90675581  0.49661533  0.70087065  1
  Sc  Sc88  1  0.70274710  0.50001023  0.69403430  1
  Sc  Sc89  1  0.10463837  0.69383780  0.29980666  1
  Sc  Sc90  1  0.30867443  0.69184432  0.10607155  1
  Sc  Sc91  1  0.09891525  0.69072654  0.70122407  1
  Sc  Sc92  1  0.09189009  0.90538289  0.09590055  1
  Sc  Sc93  1  0.29565215  0.89907822  0.09959444  1
  Sc  Sc94  1  0.30134395  0.10015091  0.50164782  1
  Sc  Sc95  1  0.29032960  0.30091764  0.50062968  1
  Sc  Sc96  1  0.09877945  0.29294714  0.89514638  1
  Sc  Sc97  1  0.70962835  0.29736051  0.50429812  1
  Sc  Sc98  1  0.90256718  0.90650533  0.29936076  1
  Sc  Sc99  1  0.29218423  0.30208476  0.30119986  1
  Nb  Nb100  1  0.30832377  0.09844691  0.30113216  1
  Nb  Nb101  1  0.48680739  0.90098563  0.70883928  1
  Nb  Nb102  1  0.70049530  0.50275823  0.49585973  1
  Nb  Nb103  1  0.29936192  0.50265569  0.90227479  1
  Nb  Nb104  1  0.48942769  0.89450204  0.88785239  1
  Nb  Nb105  1  0.69695517  0.50412668  0.30067866  1
  Nb  Nb106  1  0.70205887  0.09414148  0.30272983  1
  Nb  Nb107  1  0.89972481  0.70745621  0.10322260  1
  Nb  Nb108  1  0.30012429  0.49763705  0.09615300  1
  Nb  Nb109  1  0.10266406  0.90029095  0.89814384  1
  Nb  Nb110  1  0.70242342  0.90527748  0.30305720  1
  Nb  Nb111  1  0.10166876  0.09889595  0.70710738  1
  Nb  Nb112  1  0.69600933  0.70313985  0.10098643  1
  Nb  Nb113  1  0.70450258  0.70390111  0.30726510  1
  Nb  Nb114  1  0.70066581  0.29754618  0.89963160  1
  Nb  Nb115  1  0.49522721  0.09918364  0.09971841  1
  Nb  Nb116  1  0.09710833  0.30065010  0.10635409  1
  Nb  Nb117  1  0.30511016  0.90425374  0.70836385  1
  Nb  Nb118  1  0.09678840  0.49984911  0.30343996  1
  Nb  Nb119  1  0.10360138  0.49510061  0.70077538  1
  Nb  Nb120  1  0.50771623  0.50301251  0.49600190  1
  Nb  Nb121  1  0.50408505  0.30213864  0.70034654  1
  Nb  Nb122  1  0.09901016  0.30330459  0.49743277  1
  Nb  Nb123  1  0.09315205  0.10589991  0.10094654  1
  Nb  Nb124  1  0.90547165  0.88961488  0.10435323  1
  Nb  Nb125  1  0.58905624  -0.00345899  0.79935563  1
  Nb  Nb126  1  0.39466713  0.40001759  0.18894401  1
  Nb  Nb127  1  0.79653370  0.19875193  0.80512903  1
  Nb  Nb128  1  0.79789697  0.79863273  0.19845327  1
  Nb  Nb129  1  0.39779394  0.19880114  0.20023213  1
  Nb  Nb130  1  0.60908113  0.60576480  0.20653633  1
  Nb  Nb131  1  -0.00038511  0.20229743  0.19774997  1
  Nb  Nb132  1  0.60644976  0.59933958  0.39970771  1
  Nb  Nb133  1  0.19724203  0.79905085  0.19829880  1
  Nb  Nb134  1  0.79724536  0.19879109  -0.00061103  1
  Nb  Nb135  1  0.59892744  0.19895280  0.39446659  1
  Nb  Nb136  1  0.00345475  0.39909577  0.20185765  1
  Nb  Nb137  1  0.40235782  0.00048199  -0.00375730  1
  Nb  Nb138  1  0.20389840  0.40513887  0.79982836  1
  Nb  Nb139  1  0.79929144  -0.00149900  0.59870002  1
  Nb  Nb140  1  0.39508377  0.40340948  -0.00144398  1
  Nb  Nb141  1  0.39842629  0.59492904  0.79885977  1
  Nb  Nb142  1  0.00775264  0.40216469  0.00739000  1
  Nb  Nb143  1  0.00562868  -0.00304556  0.79928469  1
  Nb  Nb144  1  0.00229960  0.59366572  0.40456868  1
  Nb  Nb145  1  0.79896465  0.19368183  0.19574305  1
  Nb  Nb146  1  0.40103384  0.80407974  -0.00594872  1
  Nb  Nb147  1  0.19779321  -0.00309399  0.60851314  1
  Nb  Nb148  1  0.20133850  0.80458103  0.79940306  1
  Nb  Nb149  1  0.40484040  0.19750207  0.39195352  1
  Pd  Pd150  1  0.39250386  0.00581662  0.60304823  1
  Pd  Pd151  1  -0.00170241  0.59410713  0.20772519  1
  Pd  Pd152  1  0.19835669  0.20077945  -0.00291922  1
  Pd  Pd153  1  0.79592682  0.60891556  0.20093642  1
  Pd  Pd154  1  0.58605374  0.41630413  0.18724279  1
  Pd  Pd155  1  0.19713872  0.61119605  0.01078111  1
  Pd  Pd156  1  0.19715477  0.00456188  0.00473926  1
  Pd  Pd157  1  0.80157364  0.59904156  0.60464440  1
  Pd  Pd158  1  0.60965766  0.19875228  0.00257117  1
  Pd  Pd159  1  0.20344739  0.79959650  0.38973035  1
  Pd  Pd160  1  0.19565945  0.59749025  0.40714050  1
  Pd  Pd161  1  0.59790475  0.60394991  0.59791672  1
  Pd  Pd162  1  0.80225389  0.79336059  -0.00033927  1
  Pd  Pd163  1  0.79902720  0.80450313  0.60051612  1
  Pd  Pd164  1  0.79778927  0.59977467  0.79694091  1
  Pd  Pd165  1  0.60636448  0.80267286  0.21297873  1
  Pd  Pd166  1  0.00528239  0.59482557  0.00443876  1
  Pd  Pd167  1  0.19797933  0.19656889  0.20582702  1
  Pd  Pd168  1  0.00098309  0.59766304  0.59765033  1
  Pd  Pd169  1  0.00797146  0.19214798  0.39618562  1
  Pd  Pd170  1  0.19564795  -0.00587835  0.19735578  1
  Pd  Pd171  1  0.20338187  0.00336780  0.40855090  1
  Pd  Pd172  1  0.79608920  -0.00364061  0.19049176  1
  Pd  Pd173  1  0.20409610  0.19237735  0.40005692  1
  Pd  Pd174  1  0.19792302  0.39345879  -0.01074407  1
  Pd  Pd175  1  0.20963737  0.41125170  0.40121250  1
  Pd  Pd176  1  0.58632715  -0.00820390  -0.01095357  1
  Pd  Pd177  1  0.79582126  0.39270599  0.79448440  1
  Pd  Pd178  1  0.41037423  0.60632530  0.60321439  1
  Pd  Pd179  1  0.20015057  0.19881334  0.60736882  1
  Pd  Pd180  1  0.79167894  0.39473808  0.39838807  1
  Pd  Pd181  1  0.40880761  0.19716026  0.79575733  1
  Pd  Pd182  1  0.60934225  0.39736757  0.59583947  1
  Pd  Pd183  1  0.00534914  0.79310957  0.39472223  1
  Pd  Pd184  1  0.40948495  0.59165108  0.20668240  1
  Pd  Pd185  1  0.60389230  -0.01288871  0.61139539  1
  Pd  Pd186  1  -0.00640942  0.20644194  0.00494040  1
  Pd  Pd187  1  0.59185400  0.40567506  0.00727494  1
  Pd  Pd188  1  -0.00018766  0.00845391  0.40249538  1
  Pd  Pd189  1  0.20524503  0.79534219  0.00339528  1
  Pd  Pd190  1  0.79976238  0.00051819  0.00957313  1
  Pd  Pd191  1  0.38928984  0.39912682  0.39297796  1
  Pd  Pd192  1  0.39660200  0.39635059  0.59346672  1
  Pd  Pd193  1  0.39543796  -0.00074323  0.19067865  1
  Pd  Pd194  1  0.79562932  0.60718893  -0.00131370  1
  Pd  Pd195  1  0.59814522  0.80645951  0.60587394  1
  Pd  Pd196  1  0.39880139  0.79470858  0.60368140  1
  Pd  Pd197  1  0.40554277  0.20297674  0.58855514  1
  Pd  Pd198  1  -0.00106768  0.20617512  0.60214942  1
  Pd  Pd199  1  -0.00107419  -0.00223847  0.60508251  1
  Rh  Rh200  1  0.00447800  0.80534500  0.80631219  1
  Rh  Rh201  1  0.39670612  0.80280106  0.40425790  1
  Rh  Rh202  1  0.60329482  0.80790244  0.80383328  1
  Rh  Rh203  1  0.60166008  0.19571355  0.79724166  1
  Rh  Rh204  1  0.39658632  0.60171761  -0.00726207  1
  Rh  Rh205  1  0.79634561  0.00644993  0.78848603  1
  Rh  Rh206  1  0.20070045  0.39269922  0.60617740  1
  Rh  Rh207  1  0.20574098  0.80698195  0.60889600  1
  Rh  Rh208  1  0.79981320  0.40039089  0.60199070  1
  Rh  Rh209  1  0.80617211  0.39465785  0.21031646  1
  Rh  Rh210  1  -0.00055569  0.40704645  0.40005134  1
  Rh  Rh211  1  0.20003013  0.21105266  0.79523904  1
  Rh  Rh212  1  0.18752904  -0.01067801  0.78860290  1
  Rh  Rh213  1  0.61023502  0.40024069  0.40763102  1
  Rh  Rh214  1  0.39442583  0.40511463  0.80373154  1
  Rh  Rh215  1  0.39051424  0.80699938  0.19326714  1
  Rh  Rh216  1  0.59049464  0.21000170  0.58783767  1
  Rh  Rh217  1  0.38844529  0.78609605  0.80052701  1
  Rh  Rh218  1  0.78367862  0.20706273  0.38511102  1
  Rh  Rh219  1  0.00494098  0.00379145  0.19914004  1
  Rh  Rh220  1  -0.00130828  0.59565261  0.79537728  1
  Rh  Rh221  1  0.40965505  0.01710536  0.80408327  1
  Rh  Rh222  1  0.80042822  0.59636243  0.40452821  1
  Rh  Rh223  1  0.00260900  0.39384084  0.59935470  1
  Rh  Rh224  1  0.20147915  0.60907745  0.19775020  1
  Rh  Rh225  1  0.40116405  0.00403361  0.40502320  1
  Rh  Rh226  1  0.59803901  0.59091146  0.78764970  1
  Rh  Rh227  1  0.80470179  -0.00389536  0.40974606  1
  Rh  Rh228  1  -0.00354470  0.19130946  0.79722188  1
  Rh  Rh229  1  -0.00532699  0.79307650  0.59998612  1
  Rh  Rh230  1  0.38770245  0.19695664  0.00765971  1
  Rh  Rh231  1  0.00469250  -0.00635157  -0.00608614  1
  Rh  Rh232  1  0.61399246  0.59258462  0.01079195  1
  Rh  Rh233  1  0.20207433  0.40336666  0.20878413  1
  Rh  Rh234  1  0.60266045  -0.00871934  0.20263055  1
  Rh  Rh235  1  0.80686865  0.19775200  0.60954111  1
  Rh  Rh236  1  0.19668375  0.59767560  0.59473074  1
  Rh  Rh237  1  0.60393635  0.19287239  0.20174382  1
  Rh  Rh238  1  0.59652632  0.00049181  0.39443194  1
  Rh  Rh239  1  0.01278627  0.40591586  0.80650433  1
  Rh  Rh240  1  0.80657051  0.39288374  -0.01205784  1
  Rh  Rh241  1  0.80398681  0.81118974  0.39172646  1
  Rh  Rh242  1  0.61044481  0.40074540  0.79143734  1
  Rh  Rh243  1  0.41101081  0.59875021  0.40083417  1
  Rh  Rh244  1  0.00123312  0.80499060  0.20802668  1
  Rh  Rh245  1  0.59766163  0.79960866  0.39790101  1
  Rh  Rh246  1  -0.00423189  0.80467636  -0.00603084  1
  Rh  Rh247  1  0.59211219  0.80812314  -0.00882124  1
  Rh  Rh248  1  0.20496574  0.60071966  0.79170694  1
  Rh  Rh249  1  0.79858339  0.78774677  0.81053145  1
