# generated using pymatgen
data_ZrScNbPdRh
_symmetry_space_group_name_H-M   'P 1'
_cell_length_a   16.56102898
_cell_length_b   16.55865151
_cell_length_c   16.55881242
_cell_angle_alpha   90.00053400
_cell_angle_beta   90.01247110
_cell_angle_gamma   89.98242912
_symmetry_Int_Tables_number   1
_chemical_formula_structural   ZrScNbPdRh
_chemical_formula_sum   'Zr50 Sc50 Nb50 Pd50 Rh50'
_cell_volume   4540.89478164
_cell_formula_units_Z   50
loop_
 _symmetry_equiv_pos_site_id
 _symmetry_equiv_pos_as_xyz
  1  'x, y, z'
loop_
 _atom_site_type_symbol
 _atom_site_label
 _atom_site_symmetry_multiplicity
 _atom_site_fract_x
 _atom_site_fract_y
 _atom_site_fract_z
 _atom_site_occupancy
  Zr  Zr0  1  0.71494979  0.29623235  0.89676884  1
  Zr  Zr1  1  0.29502456  0.49473611  0.09939435  1
  Zr  Zr2  1  0.09984600  0.50347063  0.09536795  1
  Zr  Zr3  1  0.69409664  0.49814738  0.09456583  1
  Zr  Zr4  1  0.09730998  0.49539784  0.90621588  1
  Zr  Zr5  1  0.09874244  0.69642258  0.09841281  1
  Zr  Zr6  1  0.50637795  0.89299993  0.70109907  1
  Zr  Zr7  1  0.89671520  0.10286920  0.29357864  1
  Zr  Zr8  1  0.69839830  0.09918291  0.90192628  1
  Zr  Zr9  1  0.49903197  0.48871631  0.10402690  1
  Zr  Zr10  1  0.50421907  0.30144389  0.30223569  1
  Zr  Zr11  1  0.49417562  0.10257862  0.48984128  1
  Zr  Zr12  1  0.89859622  0.10476338  0.90473829  1
  Zr  Zr13  1  0.30403785  0.69690738  0.49768298  1
  Zr  Zr14  1  0.69991092  0.49865145  0.29341194  1
  Zr  Zr15  1  0.89605663  0.31142356  0.49472120  1
  Zr  Zr16  1  0.09544579  0.10953811  0.70071246  1
  Zr  Zr17  1  0.70196688  0.69706099  0.10972543  1
  Zr  Zr18  1  0.89815732  0.09619296  0.10105691  1
  Zr  Zr19  1  0.50199069  0.31142341  0.49640073  1
  Zr  Zr20  1  0.49916858  0.09412347  0.10552292  1
  Zr  Zr21  1  0.70220630  0.90416856  0.69984166  1
  Zr  Zr22  1  0.90503634  0.49662417  0.10180767  1
  Zr  Zr23  1  0.10029249  0.90233473  0.49829827  1
  Zr  Zr24  1  0.10263871  0.70251435  0.49683338  1
  Zr  Zr25  1  0.49702827  0.49214806  0.30819529  1
  Zr  Zr26  1  0.50284815  0.69689423  0.30755856  1
  Zr  Zr27  1  0.50226323  0.10117243  0.29432437  1
  Zr  Zr28  1  0.09670453  0.69974818  0.69614884  1
  Zr  Zr29  1  0.50094179  0.09930671  0.90959803  1
  Zr  Zr30  1  0.90345255  0.29118874  0.09355701  1
  Zr  Zr31  1  0.29877237  0.69871673  0.30833263  1
  Zr  Zr32  1  0.50894307  0.50337901  0.90814046  1
  Zr  Zr33  1  0.89732407  0.30029831  0.29689821  1
  Zr  Zr34  1  0.89859739  0.48733690  0.90134692  1
  Zr  Zr35  1  0.90016127  0.49380647  0.30589756  1
  Zr  Zr36  1  0.49220104  0.49372909  0.68717060  1
  Zr  Zr37  1  0.10390470  0.90091347  0.90034543  1
  Zr  Zr38  1  0.90220588  0.70996837  0.70167036  1
  Zr  Zr39  1  0.90209921  0.49678552  0.68668910  1
  Zr  Zr40  1  0.70505060  0.90219036  0.90084359  1
  Zr  Zr41  1  0.70082243  0.49146396  0.89690489  1
  Zr  Zr42  1  0.69176350  0.70467003  0.69350851  1
  Zr  Zr43  1  0.10206459  0.11012253  0.50644618  1
  Zr  Zr44  1  0.69029001  0.69507678  0.89858551  1
  Zr  Zr45  1  0.70173435  0.70774684  0.30540381  1
  Zr  Zr46  1  0.09855213  0.90357627  0.09668236  1
  Zr  Zr47  1  0.50500101  0.69455730  0.50456407  1
  Zr  Zr48  1  0.08841048  0.10110317  0.09935134  1
  Zr  Zr49  1  0.30672755  0.90094596  0.71104078  1
  Sc  Sc50  1  0.88974980  0.90329023  0.30190648  1
  Sc  Sc51  1  0.10499985  0.89373490  0.30325664  1
  Sc  Sc52  1  0.49571447  0.29733369  0.09907884  1
  Sc  Sc53  1  0.71083166  0.10048313  0.70580629  1
  Sc  Sc54  1  0.29608677  0.49448664  0.30478806  1
  Sc  Sc55  1  0.29197512  0.49467131  0.90292674  1
  Sc  Sc56  1  0.89293880  0.71355259  0.89606863  1
  Sc  Sc57  1  0.10766973  0.69697442  0.90068982  1
  Sc  Sc58  1  0.70233567  0.90716505  0.10263456  1
  Sc  Sc59  1  0.09910099  0.49354563  0.29953773  1
  Sc  Sc60  1  0.70354802  0.90166444  0.49098452  1
  Sc  Sc61  1  0.69787880  0.09528972  0.09770385  1
  Sc  Sc62  1  0.49800859  0.09989085  0.71276510  1
  Sc  Sc63  1  0.10440676  0.70119073  0.30481737  1
  Sc  Sc64  1  0.90368043  0.29866397  0.90038411  1
  Sc  Sc65  1  0.50774512  0.69762153  0.10186941  1
  Sc  Sc66  1  0.28730659  0.70081915  0.09666921  1
  Sc  Sc67  1  0.30250110  0.30175438  0.90211680  1
  Sc  Sc68  1  0.91038473  0.69796980  0.50188832  1
  Sc  Sc69  1  0.49245344  0.29165024  0.90113519  1
  Sc  Sc70  1  0.70188598  0.30062943  0.10163316  1
  Sc  Sc71  1  0.89749102  0.10069484  0.50686036  1
  Sc  Sc72  1  0.29018515  0.29933472  0.49051145  1
  Sc  Sc73  1  0.50749725  0.69981333  0.70062229  1
  Sc  Sc74  1  0.70990068  0.10475084  0.49441139  1
  Sc  Sc75  1  0.50075492  0.90609236  0.49384032  1
  Sc  Sc76  1  0.50593348  0.91117924  0.29820093  1
  Sc  Sc77  1  0.29729026  0.69225973  0.70046802  1
  Sc  Sc78  1  0.70667216  0.29522934  0.70111197  1
  Sc  Sc79  1  0.70378358  0.10229390  0.29840103  1
  Sc  Sc80  1  0.10494500  0.49400701  0.69687592  1
  Sc  Sc81  1  0.89603482  0.69351107  0.10343089  1
  Sc  Sc82  1  0.29855752  0.49969103  0.69954824  1
  Sc  Sc83  1  0.10095050  0.29909145  0.10507816  1
  Sc  Sc84  1  0.89774899  0.90743877  0.50119395  1
  Sc  Sc85  1  0.29546983  0.30677722  0.70937244  1
  Sc  Sc86  1  0.29223297  0.30854817  0.29841522  1
  Sc  Sc87  1  0.30113640  0.50105620  0.50017692  1
  Sc  Sc88  1  0.90198978  0.29571848  0.70582750  1
  Sc  Sc89  1  0.08637193  0.90492016  0.70351748  1
  Sc  Sc90  1  0.09750215  0.09810370  0.89636675  1
  Sc  Sc91  1  0.30497832  0.30451367  0.09926941  1
  Sc  Sc92  1  0.30507738  0.90209577  0.30096038  1
  Sc  Sc93  1  0.10141055  0.30621044  0.50594484  1
  Sc  Sc94  1  0.89095756  0.70194903  0.29955914  1
  Sc  Sc95  1  0.29461586  0.89537114  0.09641817  1
  Sc  Sc96  1  0.69921389  0.50096904  0.69023615  1
  Sc  Sc97  1  0.70265374  0.29679200  0.30428010  1
  Sc  Sc98  1  0.30855151  0.11265402  0.30060225  1
  Sc  Sc99  1  0.30913757  0.90795382  0.49354714  1
  Nb  Nb100  1  0.90078512  0.08756334  0.69563609  1
  Nb  Nb101  1  0.70170341  0.49561222  0.50176381  1
  Nb  Nb102  1  0.30134848  0.09676608  0.69867542  1
  Nb  Nb103  1  0.30496851  0.09787296  0.09901247  1
  Nb  Nb104  1  0.50045490  0.49932034  0.49958316  1
  Nb  Nb105  1  0.89300275  0.90382369  0.70705158  1
  Nb  Nb106  1  0.30184454  0.09240513  0.89967548  1
  Nb  Nb107  1  0.49946730  0.70213595  0.89977187  1
  Nb  Nb108  1  0.70657252  0.90037762  0.30286377  1
  Nb  Nb109  1  0.10468203  0.29548768  0.30430527  1
  Nb  Nb110  1  0.90151552  0.90736192  0.09304352  1
  Nb  Nb111  1  0.49643518  0.29941675  0.69682454  1
  Nb  Nb112  1  0.09916272  0.29481029  0.88874652  1
  Nb  Nb113  1  0.30009260  0.10175811  0.50294061  1
  Nb  Nb114  1  0.90263343  0.49745295  0.49918836  1
  Nb  Nb115  1  0.69879972  0.69936819  0.50303763  1
  Nb  Nb116  1  0.10084916  0.10774733  0.29639414  1
  Nb  Nb117  1  0.89773296  0.89809987  0.89437065  1
  Nb  Nb118  1  0.49365454  0.88893717  0.90020032  1
  Nb  Nb119  1  0.30787673  0.71235369  0.89916249  1
  Nb  Nb120  1  0.10046903  0.29702377  0.70875971  1
  Nb  Nb121  1  0.30351828  0.89150150  0.90137499  1
  Nb  Nb122  1  0.07899914  0.49859552  0.50042625  1
  Nb  Nb123  1  0.69665365  0.29776724  0.49295313  1
  Nb  Nb124  1  0.50026342  0.90658477  0.10178665  1
  Nb  Nb125  1  -0.00509311  0.80590964  0.00244100  1
  Nb  Nb126  1  0.59461679  0.80431763  0.00044232  1
  Nb  Nb127  1  0.40431800  0.79601982  0.19957311  1
  Nb  Nb128  1  0.00337419  0.20049170  0.39639397  1
  Nb  Nb129  1  0.79820912  0.80057921  0.59982119  1
  Nb  Nb130  1  0.59399713  0.20072070  0.59818426  1
  Nb  Nb131  1  0.79702072  0.59411683  0.41166416  1
  Nb  Nb132  1  0.19874751  0.01336362  0.39957233  1
  Nb  Nb133  1  0.19895942  0.00961052  0.20245308  1
  Nb  Nb134  1  0.40058726  0.60495638  -0.00099760  1
  Nb  Nb135  1  0.39710736  -0.00839771  -0.00371632  1
  Nb  Nb136  1  0.20504512  0.00410790  0.60115350  1
  Nb  Nb137  1  0.20426186  0.19195126  -0.00163401  1
  Nb  Nb138  1  0.59442855  0.39320063  0.79437420  1
  Nb  Nb139  1  0.20574046  0.80835408  0.59915188  1
  Nb  Nb140  1  0.39826336  0.60175958  0.19907462  1
  Nb  Nb141  1  0.79734101  0.59558960  -0.00550420  1
  Nb  Nb142  1  -0.00233114  0.80409917  0.19287743  1
  Nb  Nb143  1  0.00728945  0.01048843  0.39723116  1
  Nb  Nb144  1  0.40329824  0.60266471  0.81042709  1
  Nb  Nb145  1  -0.00561125  0.59804143  0.79934822  1
  Nb  Nb146  1  0.39874468  0.19950875  0.60216883  1
  Nb  Nb147  1  0.39835609  0.80011620  0.60015725  1
  Nb  Nb148  1  0.80291893  0.59830042  0.79819178  1
  Nb  Nb149  1  0.60053196  0.00962505  0.59893901  1
  Pd  Pd150  1  0.40505937  0.79754995  0.01427823  1
  Pd  Pd151  1  0.59818749  0.80608337  0.40302502  1
  Pd  Pd152  1  0.20415678  0.59509305  0.20623528  1
  Pd  Pd153  1  -0.00396318  0.00386573  0.80407097  1
  Pd  Pd154  1  0.20213737  0.59705421  0.80567076  1
  Pd  Pd155  1  0.19427967  0.59797576  0.59272277  1
  Pd  Pd156  1  0.20006387  0.40131937  0.59810668  1
  Pd  Pd157  1  0.60748519  0.59235696  0.40439363  1
  Pd  Pd158  1  0.79945184  0.20277838  0.59895957  1
  Pd  Pd159  1  0.80595532  0.80958902  0.19336246  1
  Pd  Pd160  1  0.60552768  0.20196320  0.19747911  1
  Pd  Pd161  1  0.59264035  0.59563411  0.20328837  1
  Pd  Pd162  1  -0.00123590  0.60788125  0.21168529  1
  Pd  Pd163  1  0.20708376  0.19908147  0.19117683  1
  Pd  Pd164  1  0.40614878  -0.00119888  0.80773651  1
  Pd  Pd165  1  0.20145449  0.80575156  0.20300034  1
  Pd  Pd166  1  0.60903718  0.00810365  0.40103467  1
  Pd  Pd167  1  0.00390859  -0.00974284  0.21209828  1
  Pd  Pd168  1  0.59707730  0.58888939  0.78890417  1
  Pd  Pd169  1  -0.00308432  0.81068318  0.59848699  1
  Pd  Pd170  1  -0.00390209  0.60327038  0.39289979  1
  Pd  Pd171  1  0.39706535  0.21023605  0.40105240  1
  Pd  Pd172  1  0.40496909  0.00087340  0.60193034  1
  Pd  Pd173  1  0.60855045  0.39186552  0.60344320  1
  Pd  Pd174  1  -0.00889365  0.20906920  0.59708411  1
  Pd  Pd175  1  0.38503643  0.39013559  0.59257282  1
  Pd  Pd176  1  0.60133579  0.20627780  0.79474053  1
  Pd  Pd177  1  0.59627939  0.80985934  0.19819812  1
  Pd  Pd178  1  -0.01313283  0.61157699  -0.01287304  1
  Pd  Pd179  1  0.60364525  0.20482276  0.00554130  1
  Pd  Pd180  1  0.00314625  0.40315038  0.79481908  1
  Pd  Pd181  1  0.40407626  0.40872934  0.80896104  1
  Pd  Pd182  1  -0.00945908  0.80742883  0.39053865  1
  Pd  Pd183  1  0.39740141  0.21024656  0.20059039  1
  Pd  Pd184  1  0.20559466  0.00454510  0.00430006  1
  Pd  Pd185  1  0.19580876  0.80037744  0.79296812  1
  Pd  Pd186  1  0.79586845  0.39166059  0.60161131  1
  Pd  Pd187  1  0.20974158  0.20506039  0.60794295  1
  Pd  Pd188  1  0.59817009  0.38167307  -0.00840970  1
  Pd  Pd189  1  0.00539925  0.39509122  0.19932900  1
  Pd  Pd190  1  0.39237242  0.19999015  0.79762798  1
  Pd  Pd191  1  0.79684134  0.79590824  0.00780835  1
  Pd  Pd192  1  0.59682945  -0.00225700  0.79975320  1
  Pd  Pd193  1  0.40668144  0.80529206  0.39933731  1
  Pd  Pd194  1  0.19698880  -0.00008648  0.79340752  1
  Pd  Pd195  1  0.19311818  0.58871337  0.40541498  1
  Pd  Pd196  1  0.19347561  0.38407451  -0.00090510  1
  Pd  Pd197  1  0.80325760  0.60889542  0.59799096  1
  Pd  Pd198  1  0.79913936  0.39721097  0.19478582  1
  Pd  Pd199  1  0.20937079  0.19725709  0.80713565  1
  Rh  Rh200  1  -0.00714183  0.19503739  0.79799512  1
  Rh  Rh201  1  0.80421007  0.40064870  0.00932332  1
  Rh  Rh202  1  0.80581258  0.00608133  0.80634496  1
  Rh  Rh203  1  0.80865571  0.20174123  0.40115778  1
  Rh  Rh204  1  0.19241855  0.79744021  -0.00485740  1
  Rh  Rh205  1  0.40106951  0.59225118  0.39764866  1
  Rh  Rh206  1  -0.00718476  -0.00464634  -0.01257479  1
  Rh  Rh207  1  0.80325560  0.78951222  0.41156955  1
  Rh  Rh208  1  0.00654493  0.39055437  0.39789392  1
  Rh  Rh209  1  0.39431617  0.40028880  0.40333223  1
  Rh  Rh210  1  0.00366539  0.59816530  0.60439353  1
  Rh  Rh211  1  0.60487177  0.80567660  0.80989749  1
  Rh  Rh212  1  0.79338271  0.40567954  0.78835561  1
  Rh  Rh213  1  0.79185621  0.40513991  0.39997378  1
  Rh  Rh214  1  0.60160772  0.60824217  0.00784751  1
  Rh  Rh215  1  0.39810472  0.40171928  0.20407689  1
  Rh  Rh216  1  0.19535584  0.40057190  0.80201235  1
  Rh  Rh217  1  0.79464514  0.19643704  0.00465943  1
  Rh  Rh218  1  0.61014134  -0.00251344  0.20684100  1
  Rh  Rh219  1  0.80929815  0.19260723  0.79787881  1
  Rh  Rh220  1  0.78949543  0.79591902  0.79204232  1
  Rh  Rh221  1  0.59196135  -0.00843602  -0.00336869  1
  Rh  Rh222  1  0.00466723  0.39250672  0.60570989  1
  Rh  Rh223  1  0.79588996  0.19765875  0.19293369  1
  Rh  Rh224  1  0.39235722  0.19076426  -0.00094278  1
  Rh  Rh225  1  0.40143546  0.78940091  0.78820343  1
  Rh  Rh226  1  0.00125822  -0.00070567  0.59821253  1
  Rh  Rh227  1  0.60090263  0.81463432  0.58676640  1
  Rh  Rh228  1  0.19497947  0.40032703  0.19895824  1
  Rh  Rh229  1  0.60824356  0.40427925  0.39926472  1
  Rh  Rh230  1  0.38837967  -0.01016012  0.19341600  1
  Rh  Rh231  1  0.80585762  0.00581375  0.39756311  1
  Rh  Rh232  1  0.01335386  0.20481246  -0.00670721  1
  Rh  Rh233  1  0.79594348  -0.00105094  0.20019360  1
  Rh  Rh234  1  0.60157422  0.19765922  0.40255163  1
  Rh  Rh235  1  0.00704791  0.79585398  0.81074620  1
  Rh  Rh236  1  0.59576890  0.59107479  0.59646428  1
  Rh  Rh237  1  0.19080927  0.40539470  0.40524776  1
  Rh  Rh238  1  0.40449084  0.60617511  0.60657628  1
  Rh  Rh239  1  0.60041139  0.39147728  0.20277538  1
  Rh  Rh240  1  0.80300903  0.59105546  0.20186923  1
  Rh  Rh241  1  -0.00132230  0.20837298  0.20474975  1
  Rh  Rh242  1  0.80341728  0.00249119  -0.00334358  1
  Rh  Rh243  1  0.21043093  0.60472780  -0.00773702  1
  Rh  Rh244  1  0.39437191  0.00635842  0.38947116  1
  Rh  Rh245  1  0.20778312  0.80756464  0.40805100  1
  Rh  Rh246  1  0.19657710  0.19929768  0.39868671  1
  Rh  Rh247  1  0.79470161  -0.00634545  0.59854019  1
  Rh  Rh248  1  0.00681492  0.38856076  0.00115572  1
  Rh  Rh249  1  0.40224486  0.40641125  -0.00357089  1
