# generated using pymatgen
data_ZrScNbPdRh
_symmetry_space_group_name_H-M   'P 1'
_cell_length_a   16.55809171
_cell_length_b   16.56416289
_cell_length_c   16.55822677
_cell_angle_alpha   89.98284780
_cell_angle_beta   89.99297842
_cell_angle_gamma   90.02572089
_symmetry_Int_Tables_number   1
_chemical_formula_structural   ZrScNbPdRh
_chemical_formula_sum   'Zr50 Sc50 Nb50 Pd50 Rh50'
_cell_volume   4541.43953046
_cell_formula_units_Z   50
loop_
 _symmetry_equiv_pos_site_id
 _symmetry_equiv_pos_as_xyz
  1  'x, y, z'
loop_
 _atom_site_type_symbol
 _atom_site_label
 _atom_site_symmetry_multiplicity
 _atom_site_fract_x
 _atom_site_fract_y
 _atom_site_fract_z
 _atom_site_occupancy
  Zr  Zr0  1  0.30881827  0.90377266  0.30690052  1
  Zr  Zr1  1  0.89871172  0.89858246  0.29734098  1
  Zr  Zr2  1  0.09989919  0.10464569  0.50340235  1
  Zr  Zr3  1  0.30437035  0.49923844  0.09828213  1
  Zr  Zr4  1  0.29366631  0.90013379  0.89567773  1
  Zr  Zr5  1  0.50067993  0.30116833  0.30968331  1
  Zr  Zr6  1  0.10094471  0.69830865  0.69613311  1
  Zr  Zr7  1  0.89342341  0.09647498  0.30559671  1
  Zr  Zr8  1  0.70794328  0.10417078  0.50151360  1
  Zr  Zr9  1  0.30486517  0.29594655  0.09635572  1
  Zr  Zr10  1  0.29854931  0.68945672  0.09841459  1
  Zr  Zr11  1  0.50504772  0.10363681  0.49553923  1
  Zr  Zr12  1  0.50811816  0.49478176  0.10642478  1
  Zr  Zr13  1  0.30013145  0.30264958  0.70300432  1
  Zr  Zr14  1  0.09509496  0.30235659  0.49112260  1
  Zr  Zr15  1  0.10017601  0.49669342  0.50073787  1
  Zr  Zr16  1  0.69344368  0.89427431  0.49954528  1
  Zr  Zr17  1  0.50186779  0.91003593  0.10059123  1
  Zr  Zr18  1  0.30865899  0.10386846  0.30225735  1
  Zr  Zr19  1  0.29450387  0.29457142  0.29430625  1
  Zr  Zr20  1  0.10210051  0.88948519  0.70874052  1
  Zr  Zr21  1  0.30500042  0.89639647  0.50420377  1
  Zr  Zr22  1  0.69272166  0.90210153  0.70940032  1
  Zr  Zr23  1  0.69027529  0.70037822  0.70719494  1
  Zr  Zr24  1  0.30400976  0.30499223  0.90046463  1
  Zr  Zr25  1  0.10328901  0.69308377  0.50258130  1
  Zr  Zr26  1  0.29983757  0.09930641  0.69233606  1
  Zr  Zr27  1  0.10141769  0.30130725  0.69186164  1
  Zr  Zr28  1  0.89820308  0.10591959  0.91246875  1
  Zr  Zr29  1  0.89929305  0.30505629  0.30753494  1
  Zr  Zr30  1  0.50099954  0.10041513  0.10084792  1
  Zr  Zr31  1  0.30083432  0.09303056  0.49488004  1
  Zr  Zr32  1  0.51157787  0.30684034  0.69814396  1
  Zr  Zr33  1  0.89587399  0.10059960  0.68904720  1
  Zr  Zr34  1  0.51097680  0.50151161  0.50640233  1
  Zr  Zr35  1  0.50846898  0.69917190  0.50766346  1
  Zr  Zr36  1  0.09332071  0.69529602  0.10750076  1
  Zr  Zr37  1  0.70502520  0.10803972  0.69908418  1
  Zr  Zr38  1  0.09585862  0.71367903  0.89547773  1
  Zr  Zr39  1  0.09906348  0.30162588  0.29842272  1
  Zr  Zr40  1  0.50740788  0.90843957  0.30130031  1
  Zr  Zr41  1  0.50466849  0.90140998  0.89192037  1
  Zr  Zr42  1  0.90045748  0.90490015  0.50001670  1
  Zr  Zr43  1  0.70230823  0.29217038  0.89622015  1
  Zr  Zr44  1  0.09856527  0.09900560  0.69505664  1
  Zr  Zr45  1  0.70752919  0.49874207  0.90579233  1
  Zr  Zr46  1  0.30220093  0.48924431  0.29717427  1
  Zr  Zr47  1  0.90208372  0.30506900  0.10176018  1
  Zr  Zr48  1  0.30392155  0.49647535  0.90340635  1
  Zr  Zr49  1  0.30316251  0.90797518  0.09963948  1
  Sc  Sc50  1  0.89762086  0.90709360  0.10190380  1
  Sc  Sc51  1  0.70366482  0.70450175  0.30776804  1
  Sc  Sc52  1  0.30256170  0.69792933  0.50939114  1
  Sc  Sc53  1  0.50349212  0.68987959  0.89876842  1
  Sc  Sc54  1  0.89694360  0.49269642  0.09621995  1
  Sc  Sc55  1  0.70518354  0.30051376  0.69802694  1
  Sc  Sc56  1  0.29150531  0.50018869  0.49916202  1
  Sc  Sc57  1  0.09141422  0.90856935  0.89775996  1
  Sc  Sc58  1  0.09306658  0.90211936  0.10164962  1
  Sc  Sc59  1  0.89533280  0.49503448  0.69140621  1
  Sc  Sc60  1  0.30523666  0.50043627  0.70345993  1
  Sc  Sc61  1  0.70250137  0.31046686  0.10352761  1
  Sc  Sc62  1  0.89041670  0.68801483  0.49648626  1
  Sc  Sc63  1  0.89297585  0.71794078  0.90313670  1
  Sc  Sc64  1  0.50383267  0.49896822  0.29874324  1
  Sc  Sc65  1  0.29825030  0.89819957  0.69391806  1
  Sc  Sc66  1  0.89756000  0.49881566  0.49970542  1
  Sc  Sc67  1  0.70704647  0.50731336  0.50523388  1
  Sc  Sc68  1  0.30519467  0.68678855  0.30420375  1
  Sc  Sc69  1  0.50681364  0.10415417  0.90355064  1
  Sc  Sc70  1  0.69917418  0.09737089  0.08884240  1
  Sc  Sc71  1  0.08391525  0.89632056  0.30140967  1
  Sc  Sc72  1  0.09998332  0.49460441  0.90582121  1
  Sc  Sc73  1  0.10625868  0.30062046  0.10149735  1
  Sc  Sc74  1  0.50533141  0.69320734  0.30927476  1
  Sc  Sc75  1  0.89869863  0.31117783  0.90405600  1
  Sc  Sc76  1  0.30217241  0.10718653  0.09853692  1
  Sc  Sc77  1  0.69972934  0.90245243  0.09686977  1
  Sc  Sc78  1  0.69489367  0.49211604  0.28936321  1
  Sc  Sc79  1  0.90309695  0.70875582  0.29371882  1
  Sc  Sc80  1  0.09672422  0.89893789  0.50049796  1
  Sc  Sc81  1  0.50457686  0.68570859  0.09676899  1
  Sc  Sc82  1  0.70099469  0.90269812  0.30058266  1
  Sc  Sc83  1  0.90171638  0.10192062  0.50187432  1
  Sc  Sc84  1  0.09812309  0.50024816  0.10431061  1
  Sc  Sc85  1  0.10257717  0.30375094  0.90171276  1
  Sc  Sc86  1  0.50045556  0.09613221  0.70501880  1
  Sc  Sc87  1  0.30242582  0.68509287  0.90660624  1
  Sc  Sc88  1  0.09960138  0.49469244  0.29417223  1
  Sc  Sc89  1  0.90228904  0.90510303  0.70054300  1
  Sc  Sc90  1  0.69796823  0.88968902  0.90159721  1
  Sc  Sc91  1  0.29556034  0.10617242  0.89909038  1
  Sc  Sc92  1  0.09670259  0.49705471  0.68775668  1
  Sc  Sc93  1  0.49494230  0.29601103  0.90037978  1
  Sc  Sc94  1  0.30071102  0.30389347  0.48733042  1
  Sc  Sc95  1  0.10342287  0.10627284  0.09058355  1
  Sc  Sc96  1  0.49512038  0.89493173  0.49854268  1
  Sc  Sc97  1  0.90165119  0.49443623  0.29186025  1
  Sc  Sc98  1  0.10391628  0.10744852  0.30787108  1
  Sc  Sc99  1  0.49395161  0.90039665  0.69862276  1
  Nb  Nb100  1  0.69843831  0.50482128  0.09923589  1
  Nb  Nb101  1  0.50611589  0.09633134  0.29904105  1
  Nb  Nb102  1  0.90043357  0.50328543  0.90201617  1
  Nb  Nb103  1  0.50782230  0.30146419  0.50611741  1
  Nb  Nb104  1  0.69717149  0.70155305  0.50487228  1
  Nb  Nb105  1  0.70490052  0.29671363  0.30157553  1
  Nb  Nb106  1  0.69312589  0.29987605  0.49994329  1
  Nb  Nb107  1  0.89824182  0.90734374  0.89910857  1
  Nb  Nb108  1  0.50597822  0.50592174  0.70591193  1
  Nb  Nb109  1  0.09214391  0.70379519  0.29895462  1
  Nb  Nb110  1  0.69362685  0.09964272  0.30283224  1
  Nb  Nb111  1  0.49182723  0.68876663  0.70179022  1
  Nb  Nb112  1  0.89855956  0.29505427  0.70254036  1
  Nb  Nb113  1  0.89716390  0.10461854  0.10397947  1
  Nb  Nb114  1  0.50633829  0.29436058  0.09337053  1
  Nb  Nb115  1  0.09490166  0.10639479  0.89580652  1
  Nb  Nb116  1  0.89155597  0.30089804  0.49360972  1
  Nb  Nb117  1  0.69497250  0.50100997  0.70227137  1
  Nb  Nb118  1  0.70370303  0.70007069  0.90585001  1
  Nb  Nb119  1  0.29669541  0.70211685  0.70038146  1
  Nb  Nb120  1  0.89871537  0.69422436  0.69755139  1
  Nb  Nb121  1  0.70537510  0.10069979  0.89570266  1
  Nb  Nb122  1  0.69868779  0.69225286  0.08813176  1
  Nb  Nb123  1  0.49001175  0.49222404  0.89251969  1
  Nb  Nb124  1  0.89726367  0.69685807  0.10071436  1
  Nb  Nb125  1  -0.00198192  0.20117011  0.79800389  1
  Nb  Nb126  1  0.19786940  0.79512628  0.39409588  1
  Nb  Nb127  1  -0.00787122  0.79229349  0.60102094  1
  Nb  Nb128  1  0.40341588  0.79901834  0.19599550  1
  Nb  Nb129  1  0.79711921  0.79402692  0.60225013  1
  Nb  Nb130  1  0.59788540  0.79587006  0.19506978  1
  Nb  Nb131  1  -0.00859703  0.60382099  -0.00386417  1
  Nb  Nb132  1  0.39737523  0.79029464  0.80071243  1
  Nb  Nb133  1  0.19393317  0.60214737  0.79854084  1
  Nb  Nb134  1  -0.00630146  0.60006568  0.80282671  1
  Nb  Nb135  1  0.80082918  0.60217749  0.80383001  1
  Nb  Nb136  1  0.59815908  0.40161544  -0.00186328  1
  Nb  Nb137  1  0.79509960  0.60275610  0.18875605  1
  Nb  Nb138  1  0.40563079  0.20691786  0.59545904  1
  Nb  Nb139  1  0.80113685  0.00414741  0.80827025  1
  Nb  Nb140  1  0.20240676  -0.00229320  0.20412184  1
  Nb  Nb141  1  0.41056257  0.39833171  0.59996476  1
  Nb  Nb142  1  -0.00943529  0.19736274  0.19960587  1
  Nb  Nb143  1  0.00317804  0.60138785  0.39419600  1
  Nb  Nb144  1  0.60357371  0.00250910  0.59941291  1
  Nb  Nb145  1  0.20329169  0.79946789  0.00656709  1
  Nb  Nb146  1  0.79739476  0.19791913  0.20532263  1
  Nb  Nb147  1  0.20425550  0.80089943  0.20402402  1
  Nb  Nb148  1  0.39971631  0.80132855  0.00070346  1
  Nb  Nb149  1  0.60443061  0.19939187  0.20566033  1
  Pd  Pd150  1  0.19425377  -0.00954959  0.60054645  1
  Pd  Pd151  1  -0.00994258  0.39361380  0.59398473  1
  Pd  Pd152  1  0.19416597  0.60022795  0.39113075  1
  Pd  Pd153  1  0.60541846  0.59812710  0.80995081  1
  Pd  Pd154  1  -0.00781483  0.01007572  0.79865652  1
  Pd  Pd155  1  -0.00168005  0.80198432  0.00670894  1
  Pd  Pd156  1  -0.00698625  0.20941463  0.59739085  1
  Pd  Pd157  1  0.79554130  -0.00284314  0.40245045  1
  Pd  Pd158  1  0.79084581  0.00600112  0.19681055  1
  Pd  Pd159  1  0.40428250  0.19964284  0.79496358  1
  Pd  Pd160  1  0.39527927  0.59208007  0.59785060  1
  Pd  Pd161  1  0.00385462  0.00568832  0.40029714  1
  Pd  Pd162  1  0.59367082  0.58828852  -0.01080546  1
  Pd  Pd163  1  0.59135443  0.79756746  0.00386640  1
  Pd  Pd164  1  0.39975221  0.00534298  -0.01152963  1
  Pd  Pd165  1  0.21046073  0.20869455  0.58876504  1
  Pd  Pd166  1  0.60279233  0.39926930  0.80895117  1
  Pd  Pd167  1  0.80198129  0.80840971  0.00792524  1
  Pd  Pd168  1  0.20059120  0.00576951  0.79762442  1
  Pd  Pd169  1  0.80421161  0.59497683  0.38379989  1
  Pd  Pd170  1  0.60911068  0.40610173  0.40270243  1
  Pd  Pd171  1  0.79514024  0.39540207  0.59925601  1
  Pd  Pd172  1  0.00065377  0.00265085  0.00457678  1
  Pd  Pd173  1  0.40397133  0.40686251  0.40847767  1
  Pd  Pd174  1  0.19857104  0.59942325  0.20919792  1
  Pd  Pd175  1  0.39913555  0.79012465  0.39649030  1
  Pd  Pd176  1  0.00379540  0.20871979  0.00036106  1
  Pd  Pd177  1  0.41144114  0.20280465  0.20192206  1
  Pd  Pd178  1  0.40568002  0.39109696  0.19758657  1
  Pd  Pd179  1  0.40853262  0.60196111  0.20388378  1
  Pd  Pd180  1  0.19361519  -0.00051541  0.00192322  1
  Pd  Pd181  1  0.80271060  0.79910512  0.40653711  1
  Pd  Pd182  1  0.61086667  0.59435123  0.39688705  1
  Pd  Pd183  1  0.40145942  0.59266862  0.40835357  1
  Pd  Pd184  1  0.19317257  0.20159431  0.80255221  1
  Pd  Pd185  1  0.79008248  0.79433994  0.19112785  1
  Pd  Pd186  1  0.79409959  0.20743461  0.00968003  1
  Pd  Pd187  1  0.60416480  0.20164461  0.39758791  1
  Pd  Pd188  1  0.79191377  0.40950932  0.40055937  1
  Pd  Pd189  1  0.19049281  -0.01017147  0.39443120  1
  Pd  Pd190  1  0.59649146  0.19877503  0.79814623  1
  Pd  Pd191  1  0.80431889  0.80319990  0.79453046  1
  Pd  Pd192  1  0.59513703  0.80398505  0.60941733  1
  Pd  Pd193  1  0.60621255  0.00118951  -0.00974302  1
  Pd  Pd194  1  0.19860276  0.39961119  0.00660676  1
  Pd  Pd195  1  0.80301677  0.40517452  0.79615530  1
  Pd  Pd196  1  0.00899961  0.01218329  0.19802859  1
  Pd  Pd197  1  0.19336075  0.41082746  0.79515326  1
  Pd  Pd198  1  -0.00006299  0.40158470  0.79760244  1
  Pd  Pd199  1  0.39436972  -0.00202124  0.80144711  1
  Rh  Rh200  1  0.58551975  0.78940690  0.80151976  1
  Rh  Rh201  1  0.59715925  0.38749315  0.19675272  1
  Rh  Rh202  1  0.41009447  0.59145346  0.00055647  1
  Rh  Rh203  1  0.40970782  0.00279858  0.40390269  1
  Rh  Rh204  1  0.20120106  0.20348508  -0.00728225  1
  Rh  Rh205  1  -0.00198437  0.40917184  0.40307534  1
  Rh  Rh206  1  0.20722368  0.59317493  0.61077867  1
  Rh  Rh207  1  0.79484729  0.39779328  0.00109354  1
  Rh  Rh208  1  0.78889612  -0.01290325  0.60829542  1
  Rh  Rh209  1  0.39606740  0.00309685  0.20383452  1
  Rh  Rh210  1  0.80148167  0.21334178  0.59191023  1
  Rh  Rh211  1  0.21065590  0.39732485  0.59887887  1
  Rh  Rh212  1  0.80743125  0.60360673  -0.00124262  1
  Rh  Rh213  1  0.19563864  0.80289000  0.58870046  1
  Rh  Rh214  1  -0.01227758  0.59765954  0.19971087  1
  Rh  Rh215  1  0.79834478  0.20107872  0.40127514  1
  Rh  Rh216  1  0.60801620  0.00235902  0.19889588  1
  Rh  Rh217  1  0.79750391  0.40303955  0.19900499  1
  Rh  Rh218  1  0.00353209  0.39289064  0.19613081  1
  Rh  Rh219  1  0.60793036  0.20576235  0.00388250  1
  Rh  Rh220  1  0.79945013  -0.00510559  -0.00560257  1
  Rh  Rh221  1  0.00307073  0.40631126  0.00267705  1
  Rh  Rh222  1  0.00009579  0.78875177  0.41353420  1
  Rh  Rh223  1  0.40458854  0.39839537  0.79018560  1
  Rh  Rh224  1  0.60576288  0.59903321  0.60404388  1
  Rh  Rh225  1  -0.00280844  0.80483922  0.19251611  1
  Rh  Rh226  1  0.20225653  0.20203163  0.40322205  1
  Rh  Rh227  1  0.40401793  0.20019599  0.40358363  1
  Rh  Rh228  1  0.17953449  0.60780529  -0.01111118  1
  Rh  Rh229  1  0.20346685  0.40042511  0.19534482  1
  Rh  Rh230  1  0.60175143  -0.00113244  0.40894476  1
  Rh  Rh231  1  0.40990657  0.00960587  0.59732303  1
  Rh  Rh232  1  0.78894952  0.60400524  0.61205416  1
  Rh  Rh233  1  0.21357687  0.78960602  0.81059107  1
  Rh  Rh234  1  -0.00383587  0.60166292  0.59443140  1
  Rh  Rh235  1  -0.00682651  0.19896196  0.39904166  1
  Rh  Rh236  1  0.81238898  0.19649543  0.80197055  1
  Rh  Rh237  1  0.59809882  0.79841334  0.39264569  1
  Rh  Rh238  1  0.40474017  0.79308339  0.61000501  1
  Rh  Rh239  1  0.19747796  0.40055200  0.39484523  1
  Rh  Rh240  1  -0.01351472  0.79865581  0.79210291  1
  Rh  Rh241  1  0.60634469  0.40767545  0.60174075  1
  Rh  Rh242  1  0.39236518  0.60135755  0.79971186  1
  Rh  Rh243  1  0.60853747  0.00802161  0.80023475  1
  Rh  Rh244  1  0.00811004  -0.01006971  0.60302646  1
  Rh  Rh245  1  0.19151795  0.19104742  0.19984807  1
  Rh  Rh246  1  0.39915616  0.19621610  -0.00434998  1
  Rh  Rh247  1  0.61129888  0.61195856  0.20734225  1
  Rh  Rh248  1  0.41000832  0.40132052  0.00589555  1
  Rh  Rh249  1  0.59892136  0.19404072  0.60273109  1
