# generated using pymatgen
data_ZrScNbPdRh
_symmetry_space_group_name_H-M   'P 1'
_cell_length_a   16.56104920
_cell_length_b   16.55427634
_cell_length_c   16.56093727
_cell_angle_alpha   89.98364215
_cell_angle_beta   89.99741950
_cell_angle_gamma   90.03063286
_symmetry_Int_Tables_number   1
_chemical_formula_structural   ZrScNbPdRh
_chemical_formula_sum   'Zr50 Sc50 Nb50 Pd50 Rh50'
_cell_volume   4540.28254350
_cell_formula_units_Z   50
loop_
 _symmetry_equiv_pos_site_id
 _symmetry_equiv_pos_as_xyz
  1  'x, y, z'
loop_
 _atom_site_type_symbol
 _atom_site_label
 _atom_site_symmetry_multiplicity
 _atom_site_fract_x
 _atom_site_fract_y
 _atom_site_fract_z
 _atom_site_occupancy
  Zr  Zr0  1  0.11183341  0.90580793  0.49204333  1
  Zr  Zr1  1  0.90054552  0.90904314  0.28820166  1
  Zr  Zr2  1  0.69104710  0.30407381  0.89895424  1
  Zr  Zr3  1  0.49804456  0.30027013  0.30165420  1
  Zr  Zr4  1  0.89454434  0.50379416  0.50546252  1
  Zr  Zr5  1  0.09201997  0.30550011  0.10839436  1
  Zr  Zr6  1  0.49341896  0.89922799  0.30309525  1
  Zr  Zr7  1  0.11063703  0.69774003  0.10051029  1
  Zr  Zr8  1  0.28978952  0.09977027  0.09422742  1
  Zr  Zr9  1  0.50039277  0.69994413  0.50155846  1
  Zr  Zr10  1  0.49442496  0.69045090  0.69672636  1
  Zr  Zr11  1  0.49571726  0.10595058  0.30577319  1
  Zr  Zr12  1  0.90435898  0.50645052  0.89213433  1
  Zr  Zr13  1  0.50099303  0.29676322  0.49363570  1
  Zr  Zr14  1  0.09725312  0.69411604  0.90297222  1
  Zr  Zr15  1  0.89210548  0.30615870  0.90839277  1
  Zr  Zr16  1  0.50008638  0.09392717  0.88818085  1
  Zr  Zr17  1  0.89754927  0.70473926  0.29731576  1
  Zr  Zr18  1  0.29585965  0.29748300  0.68856847  1
  Zr  Zr19  1  0.10498106  0.69919041  0.49718383  1
  Zr  Zr20  1  0.89459196  0.10426860  0.69719134  1
  Zr  Zr21  1  0.30311491  0.09481586  0.50652981  1
  Zr  Zr22  1  0.70708152  0.71564779  0.50217881  1
  Zr  Zr23  1  0.09254809  0.30995272  0.89864864  1
  Zr  Zr24  1  0.50343404  0.30334994  0.69936481  1
  Zr  Zr25  1  0.90242170  0.69860729  0.90379231  1
  Zr  Zr26  1  0.30007713  0.90031495  0.89891592  1
  Zr  Zr27  1  0.30034433  0.50155228  0.10177606  1
  Zr  Zr28  1  0.50044694  0.50189296  0.30006735  1
  Zr  Zr29  1  0.10704032  0.09422989  0.90613370  1
  Zr  Zr30  1  0.70721102  0.29514460  0.08608646  1
  Zr  Zr31  1  0.10659041  0.50180672  0.09516766  1
  Zr  Zr32  1  0.29584912  0.09874350  0.89941018  1
  Zr  Zr33  1  0.90668667  0.08580646  0.91224399  1
  Zr  Zr34  1  0.50403572  0.90120055  0.70720496  1
  Zr  Zr35  1  0.09451026  0.29311566  0.29999836  1
  Zr  Zr36  1  0.11310029  0.09838188  0.70704896  1
  Zr  Zr37  1  0.89283753  0.09790499  0.11209015  1
  Zr  Zr38  1  0.88629462  0.89579009  0.49435488  1
  Zr  Zr39  1  0.89837862  0.09653368  0.49992134  1
  Zr  Zr40  1  0.70467880  0.50300991  0.90660145  1
  Zr  Zr41  1  0.49999493  0.88689673  0.10168321  1
  Zr  Zr42  1  0.09638565  0.50232074  0.49750029  1
  Zr  Zr43  1  0.89654952  0.69828574  0.49692091  1
  Zr  Zr44  1  0.30190255  0.89867090  0.49331240  1
  Zr  Zr45  1  0.30539864  0.29614137  0.10403408  1
  Zr  Zr46  1  0.50072207  0.70318435  0.29010088  1
  Zr  Zr47  1  0.69633412  0.50858298  0.50131790  1
  Zr  Zr48  1  0.89758304  0.90749454  0.09194027  1
  Zr  Zr49  1  0.10193335  0.89981124  0.70194070  1
  Sc  Sc50  1  0.30018117  0.90263081  0.69657358  1
  Sc  Sc51  1  0.30516605  0.70814904  0.29775106  1
  Sc  Sc52  1  0.30029920  0.70662172  0.90204376  1
  Sc  Sc53  1  0.30481722  0.29523615  0.50032891  1
  Sc  Sc54  1  0.48553928  0.10616963  0.10081778  1
  Sc  Sc55  1  0.30058441  0.70498158  0.50602198  1
  Sc  Sc56  1  0.90492827  0.89336140  0.70586927  1
  Sc  Sc57  1  0.50521345  0.29872709  0.89706648  1
  Sc  Sc58  1  0.89536585  0.69739100  0.70142540  1
  Sc  Sc59  1  0.30398147  0.29752114  0.30151806  1
  Sc  Sc60  1  0.70107533  0.29759362  0.70197304  1
  Sc  Sc61  1  0.70222602  0.90085877  0.10155048  1
  Sc  Sc62  1  0.68797818  0.90200322  0.90946373  1
  Sc  Sc63  1  0.69089658  0.70286807  0.70020726  1
  Sc  Sc64  1  0.68905561  0.09993229  0.90624721  1
  Sc  Sc65  1  0.69556457  0.69323454  0.09756279  1
  Sc  Sc66  1  0.69790603  0.29828613  0.31022205  1
  Sc  Sc67  1  0.49394038  0.90723959  0.50395438  1
  Sc  Sc68  1  0.50047076  0.50318758  0.10455453  1
  Sc  Sc69  1  0.29525355  0.89565957  0.10305762  1
  Sc  Sc70  1  0.29940416  0.09996251  0.29251837  1
  Sc  Sc71  1  0.30529854  0.49227711  0.29199772  1
  Sc  Sc72  1  0.70167680  0.30170615  0.49694426  1
  Sc  Sc73  1  0.31828630  0.49752340  0.69509095  1
  Sc  Sc74  1  0.10180692  0.09898188  0.48635744  1
  Sc  Sc75  1  0.29520605  0.90398836  0.30338060  1
  Sc  Sc76  1  0.89326255  0.30301662  0.50879759  1
  Sc  Sc77  1  0.89458741  0.50610783  0.30375726  1
  Sc  Sc78  1  0.50738451  0.70657324  0.89531625  1
  Sc  Sc79  1  0.50580178  0.49616008  0.89134174  1
  Sc  Sc80  1  0.70341947  0.09479385  0.30844772  1
  Sc  Sc81  1  0.29626393  0.48918236  0.50652369  1
  Sc  Sc82  1  0.49640366  0.09859721  0.49788091  1
  Sc  Sc83  1  0.09938259  0.89991899  0.10985203  1
  Sc  Sc84  1  0.30764088  0.30036447  0.90715941  1
  Sc  Sc85  1  0.90087799  0.70587343  0.09660105  1
  Sc  Sc86  1  0.70271796  0.50622502  0.30325200  1
  Sc  Sc87  1  0.49627988  0.30094863  0.09147344  1
  Sc  Sc88  1  0.50011222  0.89577313  0.89759624  1
  Sc  Sc89  1  0.70182273  0.69980787  0.29417993  1
  Sc  Sc90  1  0.10146156  0.70238627  0.69895181  1
  Sc  Sc91  1  0.09266641  0.89920366  0.89685741  1
  Sc  Sc92  1  0.50042834  0.09006968  0.69363203  1
  Sc  Sc93  1  0.11444464  0.30591149  0.50295054  1
  Sc  Sc94  1  0.90276349  0.50164765  0.09473908  1
  Sc  Sc95  1  0.89924891  0.31197467  0.70257535  1
  Sc  Sc96  1  0.30319448  0.49809451  0.90540510  1
  Sc  Sc97  1  0.69484461  0.09532936  0.70050715  1
  Sc  Sc98  1  0.08672549  0.49592413  0.69407964  1
  Sc  Sc99  1  0.69523633  0.89694413  0.69051156  1
  Nb  Nb100  1  0.10197492  0.50430937  0.90020078  1
  Nb  Nb101  1  0.70583392  0.69388841  0.89715677  1
  Nb  Nb102  1  0.89674658  0.89661755  0.90267467  1
  Nb  Nb103  1  0.09881549  0.29834012  0.70377878  1
  Nb  Nb104  1  0.10293239  0.09730655  0.09910459  1
  Nb  Nb105  1  0.09837655  0.90208004  0.30219031  1
  Nb  Nb106  1  0.69754934  0.09717004  0.10604940  1
  Nb  Nb107  1  0.50031557  0.50317471  0.50804377  1
  Nb  Nb108  1  0.09900370  0.70307181  0.29904070  1
  Nb  Nb109  1  0.08997856  0.08900079  0.29958911  1
  Nb  Nb110  1  0.90777831  0.29502688  0.28947678  1
  Nb  Nb111  1  0.69652113  0.50254584  0.70548255  1
  Nb  Nb112  1  0.70274941  0.91010768  0.48994887  1
  Nb  Nb113  1  0.30317506  0.10035385  0.70107131  1
  Nb  Nb114  1  0.30011853  0.69169718  0.70217841  1
  Nb  Nb115  1  0.50719552  0.50006891  0.68647642  1
  Nb  Nb116  1  0.30626923  0.70016071  0.09823428  1
  Nb  Nb117  1  0.70688522  0.09776581  0.50426817  1
  Nb  Nb118  1  0.70007704  0.49252259  0.09614702  1
  Nb  Nb119  1  0.49068321  0.70217617  0.10552586  1
  Nb  Nb120  1  0.09800440  0.49858960  0.29481214  1
  Nb  Nb121  1  0.69893384  0.90156851  0.30320727  1
  Nb  Nb122  1  0.91113291  0.10501231  0.30290102  1
  Nb  Nb123  1  0.89986728  0.29607016  0.10761051  1
  Nb  Nb124  1  0.88959791  0.50115978  0.70021547  1
  Nb  Nb125  1  -0.00114544  0.20009647  0.00582578  1
  Nb  Nb126  1  0.60209946  0.19704703  0.59397352  1
  Nb  Nb127  1  0.80090326  -0.00468556  0.80801008  1
  Nb  Nb128  1  0.00810818  0.60242195  0.20271547  1
  Nb  Nb129  1  0.00347482  0.80251630  0.39519665  1
  Nb  Nb130  1  0.59797426  0.00374075  0.20209161  1
  Nb  Nb131  1  0.81054177  0.19649024  0.39785249  1
  Nb  Nb132  1  0.20119163  0.59834309  0.39322130  1
  Nb  Nb133  1  0.39668462  -0.00309670  -0.00181700  1
  Nb  Nb134  1  0.60386149  0.19872248  0.19831971  1
  Nb  Nb135  1  0.40327956  0.60941911  0.00522063  1
  Nb  Nb136  1  0.20162482  0.59305655  0.79830985  1
  Nb  Nb137  1  -0.00232140  0.19995089  0.80392088  1
  Nb  Nb138  1  0.80044274  0.39311250  0.19622779  1
  Nb  Nb139  1  0.39921389  0.59728935  0.40288359  1
  Nb  Nb140  1  0.60855976  0.39501396  0.19534196  1
  Nb  Nb141  1  0.80393573  0.19425511  0.80680282  1
  Nb  Nb142  1  0.19630838  0.40449879  0.79766611  1
  Nb  Nb143  1  0.00651800  0.19864310  0.60747539  1
  Nb  Nb144  1  0.00233439  -0.00056408  0.59754074  1
  Nb  Nb145  1  0.00131801  0.80406115  0.58917963  1
  Nb  Nb146  1  0.79702337  0.80147071  0.81062864  1
  Nb  Nb147  1  0.60343922  0.80778176  0.39983759  1
  Nb  Nb148  1  0.39664534  0.19675786  0.79154303  1
  Nb  Nb149  1  -0.00100192  0.40045275  0.39527884  1
  Pd  Pd150  1  0.20286769  0.39539174  -0.00301531  1
  Pd  Pd151  1  0.80605890  0.59414902  0.19199247  1
  Pd  Pd152  1  0.39610694  0.60003822  0.81065894  1
  Pd  Pd153  1  0.79417098  0.39794820  0.79975971  1
  Pd  Pd154  1  0.20158702  0.79377678  0.79821521  1
  Pd  Pd155  1  0.20283166  0.39418317  0.20464160  1
  Pd  Pd156  1  0.60139798  0.40711290  0.39700474  1
  Pd  Pd157  1  0.19389066  0.19257247  0.59312634  1
  Pd  Pd158  1  0.20583719  0.59140977  0.60373330  1
  Pd  Pd159  1  0.00456674  0.60215501  0.78959822  1
  Pd  Pd160  1  0.60383147  0.59358618  0.19499067  1
  Pd  Pd161  1  0.39947208  0.40695442  0.40608032  1
  Pd  Pd162  1  0.19810463  0.40398668  0.39245091  1
  Pd  Pd163  1  0.59575945  0.00170174  0.40030123  1
  Pd  Pd164  1  0.20097770  0.80117536  0.60376920  1
  Pd  Pd165  1  0.19409464  0.19635402  0.20545192  1
  Pd  Pd166  1  0.79088183  0.60590757  0.60710059  1
  Pd  Pd167  1  0.20357691  0.21240076  0.80783759  1
  Pd  Pd168  1  0.40929749  0.41054267  0.00141381  1
  Pd  Pd169  1  0.39703524  0.39359720  0.79760945  1
  Pd  Pd170  1  -0.00575093  0.40207359  0.00324361  1
  Pd  Pd171  1  0.80288398  0.18776429  -0.00549482  1
  Pd  Pd172  1  0.80314603  -0.00990959  0.61105208  1
  Pd  Pd173  1  0.79476416  0.80209288  0.19396258  1
  Pd  Pd174  1  0.79020571  0.79808679  -0.00107110  1
  Pd  Pd175  1  0.39933649  0.80287736  0.60711467  1
  Pd  Pd176  1  -0.00453610  0.00267835  0.79448825  1
  Pd  Pd177  1  0.19120861  0.21364710  0.00020003  1
  Pd  Pd178  1  0.80953591  0.39292538  0.39108281  1
  Pd  Pd179  1  0.20357673  0.80250345  0.20578642  1
  Pd  Pd180  1  0.59031634  0.19373209  0.00523736  1
  Pd  Pd181  1  0.60733179  0.39353083  0.59831121  1
  Pd  Pd182  1  0.20454057  0.60304164  0.20878026  1
  Pd  Pd183  1  0.59906062  0.59816294  0.79927987  1
  Pd  Pd184  1  0.20454032  0.19365289  0.39627001  1
  Pd  Pd185  1  0.59511715  0.80804172  0.59151519  1
  Pd  Pd186  1  0.19489602  0.80446512  -0.00097227  1
  Pd  Pd187  1  0.00081630  0.39319276  0.59409503  1
  Pd  Pd188  1  0.39887600  0.79606697  0.79449648  1
  Pd  Pd189  1  0.78829813  0.40323894  0.60396927  1
  Pd  Pd190  1  -0.00312527  0.21372498  0.41491901  1
  Pd  Pd191  1  0.79021716  0.20206257  0.21156318  1
  Pd  Pd192  1  0.00769148  0.80461018  0.00472782  1
  Pd  Pd193  1  0.40103094  -0.00395015  0.19251941  1
  Pd  Pd194  1  0.58692287  0.00406798  0.01308637  1
  Pd  Pd195  1  -0.00253140  0.60760064  0.60661401  1
  Pd  Pd196  1  0.00223545  0.59971199  0.39293603  1
  Pd  Pd197  1  0.60339910  0.79093030  0.00173606  1
  Pd  Pd198  1  0.59101809  0.60178891  0.00203370  1
  Pd  Pd199  1  0.59878121  0.61083226  0.40032684  1
  Rh  Rh200  1  0.60860025  0.80056325  0.80316321  1
  Rh  Rh201  1  0.40842021  0.79310085  0.40076551  1
  Rh  Rh202  1  0.19883572  0.00296303  0.59962428  1
  Rh  Rh203  1  0.40148594  0.80019517  -0.00089456  1
  Rh  Rh204  1  0.79648599  0.80100597  0.38754605  1
  Rh  Rh205  1  0.39016158  0.19521541  0.40141132  1
  Rh  Rh206  1  0.39453839  0.60067496  0.20125466  1
  Rh  Rh207  1  0.00147680  0.60130934  0.00943967  1
  Rh  Rh208  1  0.00130514  0.79551333  0.20232255  1
  Rh  Rh209  1  0.41102371  0.20041715  0.60441929  1
  Rh  Rh210  1  0.21273265  0.60261506  -0.00916960  1
  Rh  Rh211  1  0.60589061  0.80703135  0.20514497  1
  Rh  Rh212  1  -0.01171715  0.41400460  0.20735028  1
  Rh  Rh213  1  0.40509660  0.18997021  -0.01491449  1
  Rh  Rh214  1  0.00844579  0.18775051  0.19202772  1
  Rh  Rh215  1  0.20029202  -0.01223047  0.00342433  1
  Rh  Rh216  1  0.60337897  0.40677591  0.79705661  1
  Rh  Rh217  1  0.80717038  0.40825354  0.00435569  1
  Rh  Rh218  1  0.20499939  -0.00805968  0.79900474  1
  Rh  Rh219  1  0.79404716  0.20320080  0.60041372  1
  Rh  Rh220  1  0.20654437  0.00881136  0.39120661  1
  Rh  Rh221  1  0.79616025  0.60388699  0.79640184  1
  Rh  Rh222  1  0.59731628  0.19597841  0.78810259  1
  Rh  Rh223  1  0.19406463  0.00185710  0.20317570  1
  Rh  Rh224  1  -0.00640509  -0.01062678  0.40349532  1
  Rh  Rh225  1  0.39857655  -0.00419943  0.60326816  1
  Rh  Rh226  1  0.80196671  0.59857737  0.00297274  1
  Rh  Rh227  1  0.79183147  0.00248724  0.20569430  1
  Rh  Rh228  1  0.00393363  0.00295478  0.19347397  1
  Rh  Rh229  1  -0.00737229  0.79254564  0.79881084  1
  Rh  Rh230  1  0.60646700  0.60249360  0.60169206  1
  Rh  Rh231  1  0.40504737  0.20605487  0.20221658  1
  Rh  Rh232  1  0.39094501  0.80663029  0.20172371  1
  Rh  Rh233  1  0.59604764  0.40350626  0.00229304  1
  Rh  Rh234  1  0.19758615  0.79412517  0.39416698  1
  Rh  Rh235  1  0.39391020  0.00257445  0.80162382  1
  Rh  Rh236  1  0.60954017  -0.00705527  0.79693129  1
  Rh  Rh237  1  0.00862778  -0.00253357  0.00979426  1
  Rh  Rh238  1  0.79309049  0.60547498  0.40263000  1
  Rh  Rh239  1  0.61224557  0.19181504  0.40671098  1
  Rh  Rh240  1  -0.00084015  0.40461091  0.79774605  1
  Rh  Rh241  1  0.40645662  0.39513210  0.59341059  1
  Rh  Rh242  1  0.39577244  0.59931028  0.59096969  1
  Rh  Rh243  1  0.80575448  0.80282822  0.61308525  1
  Rh  Rh244  1  0.40880983  0.39444157  0.19562507  1
  Rh  Rh245  1  0.80809199  0.00734353  0.39041223  1
  Rh  Rh246  1  0.39352922  0.00405656  0.40001627  1
  Rh  Rh247  1  0.60189038  0.00392280  0.59177594  1
  Rh  Rh248  1  0.19659126  0.40569692  0.61127644  1
  Rh  Rh249  1  0.79069510  0.00147732  -0.00296131  1
