# generated using pymatgen
data_ZrScNbPdRh
_symmetry_space_group_name_H-M   'P 1'
_cell_length_a   16.55697030
_cell_length_b   16.55646632
_cell_length_c   16.56201217
_cell_angle_alpha   89.96420955
_cell_angle_beta   89.99639245
_cell_angle_gamma   90.02045778
_symmetry_Int_Tables_number   1
_chemical_formula_structural   ZrScNbPdRh
_chemical_formula_sum   'Zr50 Sc50 Nb50 Pd50 Rh50'
_cell_volume   4540.05909538
_cell_formula_units_Z   50
loop_
 _symmetry_equiv_pos_site_id
 _symmetry_equiv_pos_as_xyz
  1  'x, y, z'
loop_
 _atom_site_type_symbol
 _atom_site_label
 _atom_site_symmetry_multiplicity
 _atom_site_fract_x
 _atom_site_fract_y
 _atom_site_fract_z
 _atom_site_occupancy
  Zr  Zr0  1  0.29756671  0.89646531  0.10706540  1
  Zr  Zr1  1  0.29496626  0.89795253  0.70282576  1
  Zr  Zr2  1  0.51070143  0.30871118  0.90392328  1
  Zr  Zr3  1  0.09792004  0.49564263  0.10305267  1
  Zr  Zr4  1  0.30358505  0.50294401  0.30671969  1
  Zr  Zr5  1  0.10452278  0.70382503  0.89728509  1
  Zr  Zr6  1  0.30184951  0.90125520  0.30093471  1
  Zr  Zr7  1  0.50783155  0.89715495  0.89951149  1
  Zr  Zr8  1  0.90203369  0.50065299  0.70587950  1
  Zr  Zr9  1  0.50240570  0.90060498  0.29709461  1
  Zr  Zr10  1  0.69487217  0.89780035  0.08821289  1
  Zr  Zr11  1  0.69667155  0.50443483  0.50101219  1
  Zr  Zr12  1  0.89429850  0.69712044  0.69842830  1
  Zr  Zr13  1  0.91014401  0.90824796  0.08903629  1
  Zr  Zr14  1  0.90458918  0.10997537  0.28833084  1
  Zr  Zr15  1  0.70112632  0.89868580  0.29895157  1
  Zr  Zr16  1  0.70479869  0.90489000  0.89385621  1
  Zr  Zr17  1  0.30082286  0.89807336  0.50182011  1
  Zr  Zr18  1  0.49988035  0.09687802  0.51151783  1
  Zr  Zr19  1  0.30270434  0.09787947  0.50412321  1
  Zr  Zr20  1  0.49454089  0.50064093  0.89313043  1
  Zr  Zr21  1  0.09405987  0.30204521  0.71589122  1
  Zr  Zr22  1  0.29748532  0.09522791  0.89943595  1
  Zr  Zr23  1  0.30683463  0.70009794  0.09815925  1
  Zr  Zr24  1  0.70098760  0.29936452  0.70556408  1
  Zr  Zr25  1  0.70033563  0.70121853  0.50729929  1
  Zr  Zr26  1  0.90162838  0.28725138  0.10808614  1
  Zr  Zr27  1  0.10176073  0.50354089  0.49147736  1
  Zr  Zr28  1  0.90609306  0.29381648  0.89483759  1
  Zr  Zr29  1  0.49609851  0.10023538  0.70077094  1
  Zr  Zr30  1  0.49518893  0.50460847  0.30264005  1
  Zr  Zr31  1  0.09773944  0.90014347  0.70806944  1
  Zr  Zr32  1  0.29645441  0.08976611  0.29972984  1
  Zr  Zr33  1  0.29776964  0.49975109  0.50026809  1
  Zr  Zr34  1  0.28953159  0.90004375  0.89548010  1
  Zr  Zr35  1  0.30408121  0.10089798  0.70783293  1
  Zr  Zr36  1  0.69481603  0.89945732  0.49432296  1
  Zr  Zr37  1  0.71056817  0.50837809  0.10063902  1
  Zr  Zr38  1  0.50172332  0.30709334  0.29109983  1
  Zr  Zr39  1  0.09468059  0.49988449  0.69332260  1
  Zr  Zr40  1  0.49501390  0.49757912  0.49808499  1
  Zr  Zr41  1  0.90470635  0.10105368  0.50461842  1
  Zr  Zr42  1  0.69174217  0.30355721  0.10229050  1
  Zr  Zr43  1  0.69712669  0.50869344  0.70196432  1
  Zr  Zr44  1  0.49595981  0.49852437  0.70055989  1
  Zr  Zr45  1  0.69253061  0.49368703  0.89914462  1
  Zr  Zr46  1  0.90017411  0.70128162  0.30285980  1
  Zr  Zr47  1  0.50123239  0.88789513  0.09755470  1
  Zr  Zr48  1  0.70883465  0.29925652  0.29896598  1
  Zr  Zr49  1  0.10094092  0.70156559  0.69493196  1
  Sc  Sc50  1  0.70184853  0.30391692  0.49250190  1
  Sc  Sc51  1  0.70330553  0.89225771  0.70655989  1
  Sc  Sc52  1  0.11340199  0.89772258  0.29680180  1
  Sc  Sc53  1  0.29429011  0.10372494  0.09911052  1
  Sc  Sc54  1  0.90797665  0.10000935  0.70825643  1
  Sc  Sc55  1  0.30562520  0.30738074  0.49870184  1
  Sc  Sc56  1  0.09066011  0.10172938  0.10099932  1
  Sc  Sc57  1  0.70306650  0.09689772  0.89721925  1
  Sc  Sc58  1  0.49811201  0.48915735  0.10381014  1
  Sc  Sc59  1  0.11339973  0.49941736  0.89395665  1
  Sc  Sc60  1  0.09675264  0.89807411  0.90205193  1
  Sc  Sc61  1  0.49475531  0.10752020  0.09560884  1
  Sc  Sc62  1  0.10271214  0.31342605  0.29473800  1
  Sc  Sc63  1  0.11090666  0.70493103  0.09512750  1
  Sc  Sc64  1  0.90984695  0.50188433  0.29040924  1
  Sc  Sc65  1  0.89746450  0.09637853  0.90711821  1
  Sc  Sc66  1  0.91326287  0.50168847  0.50710767  1
  Sc  Sc67  1  0.49902685  0.29660649  0.10026647  1
  Sc  Sc68  1  0.70324424  0.70367612  0.29966473  1
  Sc  Sc69  1  0.28858760  0.70185944  0.51077097  1
  Sc  Sc70  1  0.10766787  0.29638649  0.09702851  1
  Sc  Sc71  1  0.49184064  0.09790670  0.28765987  1
  Sc  Sc72  1  0.88894354  0.68724370  0.10584638  1
  Sc  Sc73  1  0.70189213  0.70650966  0.10343869  1
  Sc  Sc74  1  0.69766631  0.49495060  0.30417866  1
  Sc  Sc75  1  0.49791528  0.69366295  0.30339251  1
  Sc  Sc76  1  0.29896196  0.30628559  0.29623969  1
  Sc  Sc77  1  0.09979023  0.88945850  0.50334618  1
  Sc  Sc78  1  0.49800382  0.89543856  0.70189276  1
  Sc  Sc79  1  0.90612650  0.30046154  0.70933669  1
  Sc  Sc80  1  0.69605827  0.09725163  0.70805451  1
  Sc  Sc81  1  0.30157357  0.70267522  0.70037910  1
  Sc  Sc82  1  0.28070177  0.29701100  0.89118451  1
  Sc  Sc83  1  0.48897912  0.70213706  0.89892338  1
  Sc  Sc84  1  0.70059051  0.29700030  0.89767020  1
  Sc  Sc85  1  0.90031814  0.89332684  0.49816224  1
  Sc  Sc86  1  0.29858730  0.70345565  0.30240471  1
  Sc  Sc87  1  0.10630952  0.90059875  0.09086009  1
  Sc  Sc88  1  0.70049433  0.69913652  0.89222407  1
  Sc  Sc89  1  0.10079302  0.70001449  0.31223401  1
  Sc  Sc90  1  0.29703522  0.50444890  0.09392091  1
  Sc  Sc91  1  0.90135483  0.30650077  0.49652495  1
  Sc  Sc92  1  0.49248028  0.29856359  0.69499621  1
  Sc  Sc93  1  0.70844805  0.10449646  0.30616529  1
  Sc  Sc94  1  0.69659335  0.09888044  0.49825458  1
  Sc  Sc95  1  0.89616380  0.89911341  0.30378918  1
  Sc  Sc96  1  0.30372136  0.49945162  0.70421839  1
  Sc  Sc97  1  0.49849376  0.09971252  0.89237086  1
  Sc  Sc98  1  0.10157212  0.10049971  0.90459240  1
  Sc  Sc99  1  0.90249413  0.90017760  0.70851668  1
  Nb  Nb100  1  0.50490684  0.89511903  0.50168783  1
  Nb  Nb101  1  0.70806942  0.09804212  0.09379623  1
  Nb  Nb102  1  0.50511545  0.70587378  0.50590563  1
  Nb  Nb103  1  0.50466459  0.69999454  0.10010518  1
  Nb  Nb104  1  0.50175804  0.70276027  0.69210754  1
  Nb  Nb105  1  0.10757949  0.50546501  0.30128103  1
  Nb  Nb106  1  0.90279528  0.70013753  0.89894213  1
  Nb  Nb107  1  0.69948003  0.69783675  0.69346983  1
  Nb  Nb108  1  0.09570497  0.10412161  0.50453785  1
  Nb  Nb109  1  0.30221495  0.50653864  0.89978343  1
  Nb  Nb110  1  0.90059437  0.50326336  0.09588658  1
  Nb  Nb111  1  0.09938752  0.30522105  0.50153876  1
  Nb  Nb112  1  0.90088950  0.09996994  0.09894766  1
  Nb  Nb113  1  0.09573509  0.69460854  0.50120953  1
  Nb  Nb114  1  0.29655228  0.30043715  0.08682232  1
  Nb  Nb115  1  0.09643882  0.30334419  0.90517985  1
  Nb  Nb116  1  0.90448778  0.69816921  0.49747925  1
  Nb  Nb117  1  0.89515811  0.50382515  0.90470143  1
  Nb  Nb118  1  0.49560446  0.29841106  0.49963693  1
  Nb  Nb119  1  0.10065288  0.10342432  0.30375994  1
  Nb  Nb120  1  0.29307573  0.29756868  0.69536559  1
  Nb  Nb121  1  0.29493211  0.68257167  0.90459839  1
  Nb  Nb122  1  0.90032572  0.89326890  0.89643791  1
  Nb  Nb123  1  0.09206371  0.09755431  0.69101203  1
  Nb  Nb124  1  0.89397243  0.29171909  0.30302097  1
  Nb  Nb125  1  0.40069216  0.19939708  0.40014704  1
  Nb  Nb126  1  0.39684129  -0.00705086  -0.00147842  1
  Nb  Nb127  1  0.19639910  0.19893514  0.40487138  1
  Nb  Nb128  1  0.80823075  0.40192784  0.00190491  1
  Nb  Nb129  1  0.19400402  0.20181880  0.60061042  1
  Nb  Nb130  1  0.80192098  0.00265946  0.60056005  1
  Nb  Nb131  1  -0.00012914  0.79905414  0.19767889  1
  Nb  Nb132  1  0.80031735  0.00387323  0.18892848  1
  Nb  Nb133  1  0.60878676  0.00087026  0.19234668  1
  Nb  Nb134  1  -0.00336587  0.59599773  -0.00277081  1
  Nb  Nb135  1  0.80746862  0.80005299  -0.00859167  1
  Nb  Nb136  1  0.79991774  0.40175454  0.60512942  1
  Nb  Nb137  1  0.19270665  0.00622535  0.60308292  1
  Nb  Nb138  1  0.59712577  0.60091160  0.19558965  1
  Nb  Nb139  1  0.59720371  0.60141212  0.00436733  1
  Nb  Nb140  1  0.40613302  0.80384829  0.41037373  1
  Nb  Nb141  1  0.80133112  0.20096505  0.60266858  1
  Nb  Nb142  1  0.80560025  0.60283026  0.40677376  1
  Nb  Nb143  1  0.00639321  0.20294363  0.39811978  1
  Nb  Nb144  1  -0.00476978  0.40345500  -0.00105220  1
  Nb  Nb145  1  0.58723859  0.20356489  0.39965644  1
  Nb  Nb146  1  0.19607170  0.39402149  0.60248020  1
  Nb  Nb147  1  0.00736064  0.00829053  0.39904801  1
  Nb  Nb148  1  0.38961830  0.39712039  -0.00796548  1
  Nb  Nb149  1  0.19879739  0.59694159  0.20419217  1
  Pd  Pd150  1  -0.00277557  0.39869534  0.39025795  1
  Pd  Pd151  1  0.38771263  0.20278394  0.20196767  1
  Pd  Pd152  1  0.00148310  -0.00950716  0.20650099  1
  Pd  Pd153  1  -0.00480730  0.21307885  0.59949572  1
  Pd  Pd154  1  0.00608067  0.80961310  0.39257769  1
  Pd  Pd155  1  0.20311091  0.60070997  0.78968534  1
  Pd  Pd156  1  0.81251105  0.41305634  0.40578192  1
  Pd  Pd157  1  0.00340973  0.59845200  0.80642796  1
  Pd  Pd158  1  -0.00425263  0.80119669  0.60435293  1
  Pd  Pd159  1  0.39814817  -0.00978724  0.60726103  1
  Pd  Pd160  1  0.60303421  0.39506816  0.60206872  1
  Pd  Pd161  1  0.59307634  0.01309529  0.39019647  1
  Pd  Pd162  1  0.60923837  0.20548071  0.59494294  1
  Pd  Pd163  1  0.40155946  0.21189579  0.80820322  1
  Pd  Pd164  1  0.79743234  0.60243155  0.80383652  1
  Pd  Pd165  1  0.39385673  0.79484948  0.80327378  1
  Pd  Pd166  1  0.80058788  0.40063833  0.80227664  1
  Pd  Pd167  1  0.39377920  0.61599310  0.41291558  1
  Pd  Pd168  1  0.39116024  0.80316407  -0.00965283  1
  Pd  Pd169  1  0.60648183  0.19025308  0.20497632  1
  Pd  Pd170  1  0.39473679  0.20411386  -0.01085640  1
  Pd  Pd171  1  0.40931840  0.59135952  0.00769853  1
  Pd  Pd172  1  0.59213616  0.59874697  0.59991207  1
  Pd  Pd173  1  0.20026208  0.20011936  0.20364652  1
  Pd  Pd174  1  0.81018009  0.00567321  0.39987648  1
  Pd  Pd175  1  0.19098201  -0.00038738  0.41036705  1
  Pd  Pd176  1  0.40309071  0.79302268  0.21038566  1
  Pd  Pd177  1  0.39732919  0.60469104  0.60021295  1
  Pd  Pd178  1  0.20880459  0.40680171  0.19680628  1
  Pd  Pd179  1  0.60256074  0.19314175  -0.00333378  1
  Pd  Pd180  1  0.58985419  0.01077266  0.00070768  1
  Pd  Pd181  1  0.01186201  0.61168867  0.19407603  1
  Pd  Pd182  1  0.19109356  0.00447937  0.19169862  1
  Pd  Pd183  1  0.59685119  0.20057275  0.80128326  1
  Pd  Pd184  1  0.60864200  -0.00856255  0.61013502  1
  Pd  Pd185  1  0.18956593  0.19142488  0.79650302  1
  Pd  Pd186  1  0.60008062  0.79229356  0.79732531  1
  Pd  Pd187  1  0.79755788  0.20690123  -0.00167279  1
  Pd  Pd188  1  0.41086286  0.00003062  0.40237362  1
  Pd  Pd189  1  -0.00613639  0.78723270  0.00839143  1
  Pd  Pd190  1  0.59081321  0.60999334  0.80397859  1
  Pd  Pd191  1  0.38943867  0.39942179  0.18901838  1
  Pd  Pd192  1  0.00143521  0.00384003  0.81054724  1
  Pd  Pd193  1  -0.00387361  0.39285236  0.19796940  1
  Pd  Pd194  1  0.59670522  0.79099888  0.39464913  1
  Pd  Pd195  1  0.80561616  0.40266032  0.19788190  1
  Pd  Pd196  1  0.59547847  0.39570943  0.39898505  1
  Pd  Pd197  1  0.81018463  0.81111805  0.18725968  1
  Pd  Pd198  1  0.39069000  0.38995661  0.80436163  1
  Pd  Pd199  1  0.80186652  0.80784983  0.59966302  1
  Rh  Rh200  1  0.80279813  0.79269823  0.80146165  1
  Rh  Rh201  1  0.59671241  0.39734208  0.78978587  1
  Rh  Rh202  1  0.00458421  0.19021024  0.80865162  1
  Rh  Rh203  1  -0.00188296  -0.01241276  0.59403045  1
  Rh  Rh204  1  0.79084154  0.59424580  0.21763001  1
  Rh  Rh205  1  0.40895359  -0.00136251  0.18163774  1
  Rh  Rh206  1  0.80472767  0.00125396  0.79601575  1
  Rh  Rh207  1  0.79881310  0.79197903  0.40956689  1
  Rh  Rh208  1  0.40491423  0.79864760  0.59652194  1
  Rh  Rh209  1  0.39216215  0.20567897  0.59590030  1
  Rh  Rh210  1  0.80268170  0.20031401  0.41112058  1
  Rh  Rh211  1  0.19445513  0.79084243  0.20270619  1
  Rh  Rh212  1  0.60172806  0.40688459  0.00686499  1
  Rh  Rh213  1  0.20621275  0.79557026  0.40509967  1
  Rh  Rh214  1  0.19780011  0.59181785  0.60182480  1
  Rh  Rh215  1  0.39935143  0.60149179  0.19576679  1
  Rh  Rh216  1  0.79672859  0.60399618  -0.00779695  1
  Rh  Rh217  1  0.40148754  0.60756077  0.79151670  1
  Rh  Rh218  1  0.79161560  0.19471183  0.19458372  1
  Rh  Rh219  1  0.80457407  -0.00516528  -0.00217806  1
  Rh  Rh220  1  0.20779036  0.79746737  -0.00609266  1
  Rh  Rh221  1  0.19949409  0.39752586  0.40524116  1
  Rh  Rh222  1  0.00263172  0.20309915  0.00018035  1
  Rh  Rh223  1  0.19343744  0.80419358  0.60270342  1
  Rh  Rh224  1  0.19638571  0.19731740  0.00028611  1
  Rh  Rh225  1  0.00006619  0.60574306  0.59911292  1
  Rh  Rh226  1  0.19231231  0.59615979  0.00569403  1
  Rh  Rh227  1  -0.00447718  0.59705795  0.39890296  1
  Rh  Rh228  1  0.59683923  0.79691415  0.20610564  1
  Rh  Rh229  1  0.59740277  -0.00133100  0.79616344  1
  Rh  Rh230  1  0.80254452  0.19352784  0.79598702  1
  Rh  Rh231  1  0.20307340  0.00213559  0.00414833  1
  Rh  Rh232  1  0.20449225  0.79071009  0.80353975  1
  Rh  Rh233  1  0.40558665  -0.00846589  0.80710373  1
  Rh  Rh234  1  0.00255332  0.40951819  0.81210255  1
  Rh  Rh235  1  0.20071547  0.40124884  -0.00562586  1
  Rh  Rh236  1  0.19003557  0.00665743  0.79311747  1
  Rh  Rh237  1  0.60356211  0.80458707  0.60701145  1
  Rh  Rh238  1  -0.00055180  0.39581069  0.60521520  1
  Rh  Rh239  1  0.40368117  0.39338337  0.39813102  1
  Rh  Rh240  1  -0.00158504  0.79444930  0.79662474  1
  Rh  Rh241  1  0.01151109  0.20977658  0.20575586  1
  Rh  Rh242  1  0.20170056  0.40517617  0.79510410  1
  Rh  Rh243  1  0.00188266  0.00428012  -0.00692967  1
  Rh  Rh244  1  0.20336584  0.60637915  0.39859611  1
  Rh  Rh245  1  0.60986860  0.78620810  -0.00976674  1
  Rh  Rh246  1  0.39426951  0.39918402  0.60170164  1
  Rh  Rh247  1  0.80519227  0.59424022  0.59490773  1
  Rh  Rh248  1  0.60293457  0.40835110  0.19955049  1
  Rh  Rh249  1  0.60740817  0.60487752  0.39643340  1
