# generated using pymatgen
data_ZrScNbPdRh
_symmetry_space_group_name_H-M   'P 1'
_cell_length_a   16.55653128
_cell_length_b   16.55550757
_cell_length_c   16.55566809
_cell_angle_alpha   90.02235251
_cell_angle_beta   89.99780275
_cell_angle_gamma   90.03411159
_symmetry_Int_Tables_number   1
_chemical_formula_structural   ZrScNbPdRh
_chemical_formula_sum   'Zr50 Sc50 Nb50 Pd50 Rh50'
_cell_volume   4537.93692219
_cell_formula_units_Z   50
loop_
 _symmetry_equiv_pos_site_id
 _symmetry_equiv_pos_as_xyz
  1  'x, y, z'
loop_
 _atom_site_type_symbol
 _atom_site_label
 _atom_site_symmetry_multiplicity
 _atom_site_fract_x
 _atom_site_fract_y
 _atom_site_fract_z
 _atom_site_occupancy
  Zr  Zr0  1  0.30042219  0.30172368  0.50114757  1
  Zr  Zr1  1  0.30101595  0.89912137  0.09955453  1
  Zr  Zr2  1  0.50368464  0.09915240  0.09859164  1
  Zr  Zr3  1  0.69545358  0.70408439  0.49716237  1
  Zr  Zr4  1  0.89974978  0.30050062  0.91388378  1
  Zr  Zr5  1  0.09779846  0.90596772  0.30648356  1
  Zr  Zr6  1  0.90164553  0.11258495  0.10071340  1
  Zr  Zr7  1  0.30212446  0.49685199  0.49866700  1
  Zr  Zr8  1  0.90650330  0.69728003  0.49997215  1
  Zr  Zr9  1  0.29823666  0.69724204  0.10179275  1
  Zr  Zr10  1  0.29884910  0.89934553  0.29227379  1
  Zr  Zr11  1  0.50113256  0.90886153  0.29591805  1
  Zr  Zr12  1  0.70063993  0.89793931  0.09588678  1
  Zr  Zr13  1  0.10189650  0.89650584  0.09365672  1
  Zr  Zr14  1  0.89676100  0.49465870  0.09260914  1
  Zr  Zr15  1  0.30233087  0.49734328  0.09801601  1
  Zr  Zr16  1  0.31333159  0.09154296  0.89825827  1
  Zr  Zr17  1  0.09440635  0.88765777  0.70332684  1
  Zr  Zr18  1  0.49366619  0.70274877  0.70035151  1
  Zr  Zr19  1  0.89982881  0.09533979  0.30493228  1
  Zr  Zr20  1  0.70470835  0.89576950  0.29860185  1
  Zr  Zr21  1  0.09281922  0.29090090  0.09158198  1
  Zr  Zr22  1  0.29607333  0.90383634  0.90091269  1
  Zr  Zr23  1  0.70089956  0.50209571  0.10419945  1
  Zr  Zr24  1  0.68842924  0.70109622  0.10480667  1
  Zr  Zr25  1  0.29599544  0.49268787  0.90263427  1
  Zr  Zr26  1  0.89159782  0.09814522  0.69595759  1
  Zr  Zr27  1  0.30545935  0.50573777  0.70383319  1
  Zr  Zr28  1  0.69499759  0.09559768  0.30411065  1
  Zr  Zr29  1  0.70449898  0.70382575  0.70432525  1
  Zr  Zr30  1  0.09862651  0.89535306  0.90328044  1
  Zr  Zr31  1  0.71149933  0.50374423  0.49273303  1
  Zr  Zr32  1  0.29980938  0.30440995  0.09230140  1
  Zr  Zr33  1  0.50856204  0.10250607  0.50327013  1
  Zr  Zr34  1  0.89777162  0.89878396  0.10014940  1
  Zr  Zr35  1  0.29843547  0.69306114  0.88845685  1
  Zr  Zr36  1  0.29687348  0.69961217  0.50951214  1
  Zr  Zr37  1  0.89613215  0.50652114  0.70135560  1
  Zr  Zr38  1  0.29999529  0.49751552  0.29731697  1
  Zr  Zr39  1  0.50492698  0.70495440  0.89562491  1
  Zr  Zr40  1  0.50781044  0.28997591  0.89204332  1
  Zr  Zr41  1  0.10673028  0.29881527  0.89746368  1
  Zr  Zr42  1  0.29663687  0.09855988  0.50353099  1
  Zr  Zr43  1  0.70327724  0.09894896  0.10472856  1
  Zr  Zr44  1  0.09244828  0.70318746  0.30383673  1
  Zr  Zr45  1  0.68889222  0.10665456  0.90937081  1
  Zr  Zr46  1  0.90000702  0.70637627  0.29871215  1
  Zr  Zr47  1  0.09836803  0.50722287  0.09235424  1
  Zr  Zr48  1  0.49535609  0.50273182  0.09426865  1
  Zr  Zr49  1  0.89542871  0.90358860  0.50498608  1
  Sc  Sc50  1  0.09768193  0.90195092  0.50715597  1
  Sc  Sc51  1  0.50831818  0.88673755  0.50759399  1
  Sc  Sc52  1  0.90218675  0.69981624  0.70212027  1
  Sc  Sc53  1  0.49618386  0.29875656  0.50739719  1
  Sc  Sc54  1  0.09887790  0.29905448  0.70115860  1
  Sc  Sc55  1  0.10554030  0.09664116  0.90340545  1
  Sc  Sc56  1  0.49610971  0.11005741  0.70723324  1
  Sc  Sc57  1  0.88829352  0.50397926  0.30726469  1
  Sc  Sc58  1  0.89938290  0.09861666  0.90587533  1
  Sc  Sc59  1  0.49104920  0.49378580  0.89393521  1
  Sc  Sc60  1  0.31173371  0.30431066  0.28973922  1
  Sc  Sc61  1  0.08887826  0.29793806  0.30553741  1
  Sc  Sc62  1  0.30115950  0.89620151  0.70711538  1
  Sc  Sc63  1  0.50475088  0.89874716  0.10268501  1
  Sc  Sc64  1  0.71750940  0.29924650  0.09713248  1
  Sc  Sc65  1  0.29901093  0.70294606  0.70060105  1
  Sc  Sc66  1  0.89795951  0.49877257  0.50214746  1
  Sc  Sc67  1  0.90495526  0.29904173  0.69257333  1
  Sc  Sc68  1  0.29831863  0.09978921  0.70165991  1
  Sc  Sc69  1  0.30635425  0.09373078  0.29248581  1
  Sc  Sc70  1  0.49081619  0.50424958  0.30396708  1
  Sc  Sc71  1  0.29769245  0.29729483  0.69237151  1
  Sc  Sc72  1  0.31110628  0.10114163  0.09108162  1
  Sc  Sc73  1  0.49972217  0.70083913  0.49973342  1
  Sc  Sc74  1  0.09890129  0.31298602  0.50111665  1
  Sc  Sc75  1  0.70329338  0.10139874  0.50786675  1
  Sc  Sc76  1  0.90902737  0.50686716  0.89522630  1
  Sc  Sc77  1  0.09696667  0.10336516  0.70054819  1
  Sc  Sc78  1  0.90040935  0.09665174  0.50579376  1
  Sc  Sc79  1  0.09384214  0.69826214  0.89549477  1
  Sc  Sc80  1  0.49899655  0.88758722  0.70732386  1
  Sc  Sc81  1  0.29704071  0.69923260  0.29056739  1
  Sc  Sc82  1  0.71193810  0.50261279  0.69752029  1
  Sc  Sc83  1  0.09533003  0.70380177  0.10251538  1
  Sc  Sc84  1  0.09847209  0.50159456  0.70164373  1
  Sc  Sc85  1  0.69866130  0.70870865  0.90095482  1
  Sc  Sc86  1  0.10117232  0.50466750  0.89189224  1
  Sc  Sc87  1  0.69286610  0.29561451  0.69658930  1
  Sc  Sc88  1  0.69946859  0.29644432  0.29933762  1
  Sc  Sc89  1  0.89426960  0.89901481  0.30199883  1
  Sc  Sc90  1  0.49621257  0.29975840  0.69773298  1
  Sc  Sc91  1  0.89889052  0.30635473  0.50272044  1
  Sc  Sc92  1  0.09847291  0.08840329  0.49480239  1
  Sc  Sc93  1  0.09663225  0.50555400  0.30797340  1
  Sc  Sc94  1  0.90632905  0.70271951  0.10140462  1
  Sc  Sc95  1  0.48931754  0.29582838  0.10483292  1
  Sc  Sc96  1  0.70672858  0.30125650  0.50671702  1
  Sc  Sc97  1  0.50917102  0.70119944  0.29927269  1
  Sc  Sc98  1  0.49937484  0.90261205  0.89977945  1
  Sc  Sc99  1  0.90016657  0.29925315  0.30315062  1
  Nb  Nb100  1  0.89123688  0.90104531  0.70617114  1
  Nb  Nb101  1  0.89673268  0.69557985  0.89914238  1
  Nb  Nb102  1  0.49838370  0.49869241  0.69734430  1
  Nb  Nb103  1  0.10153235  0.69625811  0.50746392  1
  Nb  Nb104  1  0.09699153  0.10127623  0.30072951  1
  Nb  Nb105  1  0.69964475  0.89760262  0.50749787  1
  Nb  Nb106  1  0.70977362  0.90117459  0.70416309  1
  Nb  Nb107  1  0.50387484  0.70223377  0.09110204  1
  Nb  Nb108  1  0.69966294  0.30222639  0.89828257  1
  Nb  Nb109  1  0.30001644  0.90641155  0.49456206  1
  Nb  Nb110  1  0.10653237  0.51539059  0.49673394  1
  Nb  Nb111  1  0.30057811  0.30105177  0.90800630  1
  Nb  Nb112  1  0.09637869  0.09964262  0.10080999  1
  Nb  Nb113  1  0.89397723  0.88960925  0.90085689  1
  Nb  Nb114  1  0.50562908  0.29400407  0.29513744  1
  Nb  Nb115  1  0.70232635  0.09981924  0.70103039  1
  Nb  Nb116  1  0.10357348  0.70014822  0.68993321  1
  Nb  Nb117  1  0.90415029  0.30092641  0.09969253  1
  Nb  Nb118  1  0.70198873  0.89959259  0.89788304  1
  Nb  Nb119  1  0.49995466  0.50219024  0.49928173  1
  Nb  Nb120  1  0.50588192  0.10964971  0.29734370  1
  Nb  Nb121  1  0.70127013  0.68991308  0.29947136  1
  Nb  Nb122  1  0.69669617  0.50471357  0.30289618  1
  Nb  Nb123  1  0.50035923  0.09637689  0.90257352  1
  Nb  Nb124  1  0.70227607  0.49777489  0.89844039  1
  Nb  Nb125  1  0.40748614  0.00115066  0.40347307  1
  Nb  Nb126  1  0.59928955  0.40191151  0.20190760  1
  Nb  Nb127  1  0.60736847  0.00059988  0.79867849  1
  Nb  Nb128  1  0.80011899  0.19588976  0.40143531  1
  Nb  Nb129  1  0.59765435  0.41294122  0.59610489  1
  Nb  Nb130  1  0.60456736  0.39953097  -0.00016328  1
  Nb  Nb131  1  -0.00247385  0.39931987  0.19360413  1
  Nb  Nb132  1  -0.01077621  -0.01073940  0.80144568  1
  Nb  Nb133  1  0.20446037  0.19738970  0.39270023  1
  Nb  Nb134  1  0.00260867  0.00571333  0.19764894  1
  Nb  Nb135  1  0.19540123  0.19799779  0.20007093  1
  Nb  Nb136  1  0.39347756  0.80645167  0.39990470  1
  Nb  Nb137  1  0.40369817  0.19561838  0.39552017  1
  Nb  Nb138  1  0.59867186  0.40402330  0.39905650  1
  Nb  Nb139  1  0.79745365  0.59995365  -0.00236160  1
  Nb  Nb140  1  0.59838071  0.59632324  0.60209006  1
  Nb  Nb141  1  0.60513501  -0.00556489  0.61164876  1
  Nb  Nb142  1  0.20131070  0.80003604  0.40541943  1
  Nb  Nb143  1  0.59984528  0.59402681  0.79452551  1
  Nb  Nb144  1  0.19184880  0.00703739  0.19462267  1
  Nb  Nb145  1  0.79913137  0.39349511  0.80532421  1
  Nb  Nb146  1  0.79481169  0.20219427  0.80326197  1
  Nb  Nb147  1  0.40540032  -0.00368874  0.59702490  1
  Nb  Nb148  1  0.18992351  0.39594868  0.19496025  1
  Nb  Nb149  1  0.39983117  0.79394319  0.00219217  1
  Pd  Pd150  1  0.40717068  0.60490212  0.20152125  1
  Pd  Pd151  1  0.80624259  0.60543240  0.19453069  1
  Pd  Pd152  1  -0.00357782  0.40994680  0.39876032  1
  Pd  Pd153  1  0.59948057  0.21347969  0.01373254  1
  Pd  Pd154  1  0.60326642  -0.00127132  0.19671773  1
  Pd  Pd155  1  0.80070751  0.39695528  0.20885720  1
  Pd  Pd156  1  0.20440154  0.39702116  0.79336982  1
  Pd  Pd157  1  0.80000893  0.00294903  -0.00183708  1
  Pd  Pd158  1  0.19734980  0.40862444  0.60430770  1
  Pd  Pd159  1  0.19678737  0.60542725  -0.00357534  1
  Pd  Pd160  1  0.58992705  0.59387158  0.20417824  1
  Pd  Pd161  1  0.20687927  0.19835608  0.80228392  1
  Pd  Pd162  1  0.00640129  0.19995902  0.59119869  1
  Pd  Pd163  1  0.80036181  0.20270869  0.20916677  1
  Pd  Pd164  1  0.39065090  0.20503657  0.80111808  1
  Pd  Pd165  1  0.00095256  0.59495964  0.60221283  1
  Pd  Pd166  1  0.40999682  0.79222578  0.19866279  1
  Pd  Pd167  1  0.20466821  0.80951392  0.59771165  1
  Pd  Pd168  1  0.40908867  0.39094333  0.39882337  1
  Pd  Pd169  1  0.80583604  0.79479690  0.60124381  1
  Pd  Pd170  1  0.00783146  0.40396262  -0.00476557  1
  Pd  Pd171  1  0.40271531  0.60098772  0.59834066  1
  Pd  Pd172  1  0.20599363  0.19005546  -0.00043269  1
  Pd  Pd173  1  0.60486650  0.21182017  0.40871949  1
  Pd  Pd174  1  0.60669652  0.40620238  0.79272601  1
  Pd  Pd175  1  -0.00562371  0.79511847  0.80166431  1
  Pd  Pd176  1  0.80032514  0.78899944  0.00452613  1
  Pd  Pd177  1  0.18752476  0.20002073  0.59033587  1
  Pd  Pd178  1  -0.00689648  0.39690505  0.79884809  1
  Pd  Pd179  1  0.20593430  0.60869623  0.39708439  1
  Pd  Pd180  1  0.19824671  0.39179661  0.38930706  1
  Pd  Pd181  1  0.00111236  -0.00285082  0.61075455  1
  Pd  Pd182  1  0.60287575  0.59376267  -0.01249039  1
  Pd  Pd183  1  -0.00393068  -0.00089956  -0.00171561  1
  Pd  Pd184  1  0.00473399  0.80597126  0.40950024  1
  Pd  Pd185  1  0.59765499  0.80319764  0.39365081  1
  Pd  Pd186  1  0.19279757  0.59530444  0.20232421  1
  Pd  Pd187  1  0.39431081  0.38953370  0.79841450  1
  Pd  Pd188  1  -0.00226041  0.19874789  0.41213382  1
  Pd  Pd189  1  0.00367043  0.41026720  0.59817613  1
  Pd  Pd190  1  0.40009845  0.60500753  -0.00819904  1
  Pd  Pd191  1  0.20258680  -0.00541148  0.61212365  1
  Pd  Pd192  1  -0.00753517  0.19267413  0.80420031  1
  Pd  Pd193  1  0.39575914  0.61215862  0.39864892  1
  Pd  Pd194  1  -0.00667394  0.59082545  0.20430871  1
  Pd  Pd195  1  0.79813020  0.00857435  0.81306853  1
  Pd  Pd196  1  0.60108340  -0.00780159  0.41082847  1
  Pd  Pd197  1  0.18908003  0.00084414  0.79438002  1
  Pd  Pd198  1  0.79790779  0.79738467  0.40157315  1
  Pd  Pd199  1  0.20465710  0.78876728  -0.00614602  1
  Rh  Rh200  1  -0.00552594  0.79481230  -0.00442439  1
  Rh  Rh201  1  0.59958327  0.20091616  0.60368224  1
  Rh  Rh202  1  0.20143407  0.59289061  0.60494926  1
  Rh  Rh203  1  -0.00623779  0.80066987  0.59967950  1
  Rh  Rh204  1  0.40475750  0.00823666  0.19714664  1
  Rh  Rh205  1  0.60654594  0.79829630  0.60977435  1
  Rh  Rh206  1  0.19248135  0.40270372  0.00063078  1
  Rh  Rh207  1  0.20495300  0.00650133  0.00500166  1
  Rh  Rh208  1  0.80240785  0.79644835  0.80237904  1
  Rh  Rh209  1  0.79745145  0.60899267  0.59223286  1
  Rh  Rh210  1  0.41164869  -0.00102083  0.79131914  1
  Rh  Rh211  1  0.79802090  0.39744334  0.61179594  1
  Rh  Rh212  1  0.19689692  0.79463118  0.79960668  1
  Rh  Rh213  1  0.59941594  -0.00628592  -0.00526152  1
  Rh  Rh214  1  0.79643817  0.59783983  0.81021902  1
  Rh  Rh215  1  0.80246834  0.20333202  0.60096969  1
  Rh  Rh216  1  0.40528852  0.40548199  0.19996945  1
  Rh  Rh217  1  0.60172340  0.79963791  0.20466982  1
  Rh  Rh218  1  0.20713838  0.00213601  0.38975552  1
  Rh  Rh219  1  0.60536094  0.20639200  0.19179351  1
  Rh  Rh220  1  0.39309136  0.80751952  0.59315354  1
  Rh  Rh221  1  0.40148546  0.40213840  0.60089128  1
  Rh  Rh222  1  0.19376932  0.60341411  0.79146153  1
  Rh  Rh223  1  0.39871093  0.19333816  0.59622090  1
  Rh  Rh224  1  0.80571421  -0.00028236  0.19703826  1
  Rh  Rh225  1  0.00521086  0.60826415  0.79256848  1
  Rh  Rh226  1  -0.00764070  -0.00437454  0.39920886  1
  Rh  Rh227  1  0.79244727  0.38896540  0.39531408  1
  Rh  Rh228  1  0.80353879  0.60980773  0.39968766  1
  Rh  Rh229  1  0.00095629  0.20242583  0.20309462  1
  Rh  Rh230  1  0.60504282  0.19298396  0.79476372  1
  Rh  Rh231  1  0.60032442  0.59602323  0.40478170  1
  Rh  Rh232  1  0.41260419  0.38897886  -0.00871683  1
  Rh  Rh233  1  0.79484838  0.79389950  0.19895313  1
  Rh  Rh234  1  0.00150828  0.81173166  0.19958635  1
  Rh  Rh235  1  0.79918415  0.19745502  -0.00318105  1
  Rh  Rh236  1  -0.00336451  0.59734092  0.40369671  1
  Rh  Rh237  1  0.79373349  -0.00335887  0.59648631  1
  Rh  Rh238  1  0.40744555  -0.01011868  0.00350353  1
  Rh  Rh239  1  0.59434478  0.80855248  -0.00188357  1
  Rh  Rh240  1  0.39247020  0.80428821  0.81125535  1
  Rh  Rh241  1  0.00298576  0.19524281  -0.01015816  1
  Rh  Rh242  1  0.79413421  0.00368696  0.40830634  1
  Rh  Rh243  1  0.39611768  0.19411050  0.20251118  1
  Rh  Rh244  1  0.79735319  0.40705445  -0.00747054  1
  Rh  Rh245  1  0.40470187  0.20279908  -0.00845140  1
  Rh  Rh246  1  -0.00577952  0.60630641  -0.00382493  1
  Rh  Rh247  1  0.40587300  0.59843470  0.80112732  1
  Rh  Rh248  1  0.60765568  0.80356615  0.79946837  1
  Rh  Rh249  1  0.18687477  0.80441907  0.20699429  1
