# generated using pymatgen
data_ZrScNbPdRh
_symmetry_space_group_name_H-M   'P 1'
_cell_length_a   16.55380380
_cell_length_b   16.55504430
_cell_length_c   16.55546879
_cell_angle_alpha   89.98954094
_cell_angle_beta   89.99664082
_cell_angle_gamma   89.99611958
_symmetry_Int_Tables_number   1
_chemical_formula_structural   ZrScNbPdRh
_chemical_formula_sum   'Zr50 Sc50 Nb50 Pd50 Rh50'
_cell_volume   4537.00883229
_cell_formula_units_Z   50
loop_
 _symmetry_equiv_pos_site_id
 _symmetry_equiv_pos_as_xyz
  1  'x, y, z'
loop_
 _atom_site_type_symbol
 _atom_site_label
 _atom_site_symmetry_multiplicity
 _atom_site_fract_x
 _atom_site_fract_y
 _atom_site_fract_z
 _atom_site_occupancy
  Zr  Zr0  1  0.49138410  0.29599723  0.90611607  1
  Zr  Zr1  1  0.09688583  0.69610792  0.90078819  1
  Zr  Zr2  1  0.69031453  0.11092783  0.69110098  1
  Zr  Zr3  1  0.50376066  0.09907017  0.09308566  1
  Zr  Zr4  1  0.89472548  0.29743637  0.89735218  1
  Zr  Zr5  1  0.69839651  0.90127442  0.90316496  1
  Zr  Zr6  1  0.89509991  0.90552572  0.49244690  1
  Zr  Zr7  1  0.10900616  0.90305934  0.29264587  1
  Zr  Zr8  1  0.90468758  0.69932143  0.90295679  1
  Zr  Zr9  1  0.29831006  0.90347246  0.69338338  1
  Zr  Zr10  1  0.89793700  0.69840082  0.30211804  1
  Zr  Zr11  1  0.09459678  0.70503418  0.30180240  1
  Zr  Zr12  1  0.30237593  0.70905502  0.69343103  1
  Zr  Zr13  1  0.69869815  0.69362242  0.68801549  1
  Zr  Zr14  1  0.89860967  0.09982067  0.90151028  1
  Zr  Zr15  1  0.49144722  0.89522904  0.69677861  1
  Zr  Zr16  1  0.10638053  0.49948091  0.09444433  1
  Zr  Zr17  1  0.70075615  0.69784821  0.30375701  1
  Zr  Zr18  1  0.50076686  0.89778197  0.31073509  1
  Zr  Zr19  1  0.10285424  0.29158544  0.29994027  1
  Zr  Zr20  1  0.90126683  0.69713449  0.49457007  1
  Zr  Zr21  1  0.90017230  0.10017477  0.30680427  1
  Zr  Zr22  1  0.09934081  0.29865111  0.88854161  1
  Zr  Zr23  1  0.30327451  0.90927141  0.90028764  1
  Zr  Zr24  1  0.10229856  0.70372393  0.09324744  1
  Zr  Zr25  1  0.90247531  0.29648815  0.29290340  1
  Zr  Zr26  1  0.09736070  0.30332724  0.68948080  1
  Zr  Zr27  1  0.50605039  0.29905264  0.30194062  1
  Zr  Zr28  1  0.30002608  0.69280108  0.10864914  1
  Zr  Zr29  1  0.30173575  0.50760638  0.49266090  1
  Zr  Zr30  1  0.70227811  0.50239978  0.49825253  1
  Zr  Zr31  1  0.50403266  0.29596809  0.70127992  1
  Zr  Zr32  1  0.89139374  0.69896586  0.09583881  1
  Zr  Zr33  1  0.69759349  0.69208560  0.10673332  1
  Zr  Zr34  1  0.89982784  0.10455775  0.10552353  1
  Zr  Zr35  1  0.30560898  0.50346430  0.29619136  1
  Zr  Zr36  1  0.30834569  0.89881267  0.50207228  1
  Zr  Zr37  1  0.89903944  0.69746670  0.70754893  1
  Zr  Zr38  1  0.70336912  0.30055469  0.70275902  1
  Zr  Zr39  1  0.50510696  0.70152336  0.50266572  1
  Zr  Zr40  1  0.10230899  0.69566525  0.49774781  1
  Zr  Zr41  1  0.89666712  0.89449288  0.90383911  1
  Zr  Zr42  1  0.50739286  0.90104252  0.10499664  1
  Zr  Zr43  1  0.70039235  0.10978426  0.31185231  1
  Zr  Zr44  1  0.10119464  0.11157292  0.69457044  1
  Zr  Zr45  1  0.10506260  0.10252848  0.89892597  1
  Zr  Zr46  1  0.29749879  0.70399357  0.30413108  1
  Zr  Zr47  1  0.50654664  0.49563851  0.10111874  1
  Zr  Zr48  1  0.50055550  0.48262533  0.29737339  1
  Zr  Zr49  1  0.10553736  0.70286600  0.70142711  1
  Sc  Sc50  1  0.69598452  0.09948998  0.09690323  1
  Sc  Sc51  1  0.49254058  0.50067964  0.49768089  1
  Sc  Sc52  1  0.10301501  0.09307559  0.10444981  1
  Sc  Sc53  1  0.69502454  0.89541170  0.30115718  1
  Sc  Sc54  1  0.49786290  0.09414318  0.69733089  1
  Sc  Sc55  1  0.29803909  0.09214654  0.08604968  1
  Sc  Sc56  1  0.10142126  0.90195099  0.10152036  1
  Sc  Sc57  1  0.10488905  0.10943292  0.49596038  1
  Sc  Sc58  1  0.90157578  0.50148777  0.49732737  1
  Sc  Sc59  1  0.30682686  0.29897680  0.30023154  1
  Sc  Sc60  1  0.29680758  0.30649418  0.09372664  1
  Sc  Sc61  1  0.89887261  0.50658088  0.89861925  1
  Sc  Sc62  1  0.69726857  0.49921932  0.30304609  1
  Sc  Sc63  1  0.29026713  0.49363893  0.91898035  1
  Sc  Sc64  1  0.89404614  0.50202632  0.30406109  1
  Sc  Sc65  1  0.28888864  0.70860358  0.90145093  1
  Sc  Sc66  1  0.10275572  0.30393249  0.11661134  1
  Sc  Sc67  1  0.30094079  0.29771655  0.49620223  1
  Sc  Sc68  1  0.69289904  0.89374960  0.69030120  1
  Sc  Sc69  1  0.69962599  0.89751181  0.10046342  1
  Sc  Sc70  1  0.09757193  0.50464953  0.51208157  1
  Sc  Sc71  1  0.70331173  0.29789267  0.50059884  1
  Sc  Sc72  1  0.29702817  0.09667700  0.50189994  1
  Sc  Sc73  1  0.49954848  0.70212394  0.29145176  1
  Sc  Sc74  1  0.90618813  0.90011154  0.30143857  1
  Sc  Sc75  1  0.49874975  0.90086261  0.90055559  1
  Sc  Sc76  1  0.70831721  0.70130277  0.90383126  1
  Sc  Sc77  1  0.30489054  0.50200191  0.67909262  1
  Sc  Sc78  1  0.70315136  0.10941032  0.90456485  1
  Sc  Sc79  1  0.89422899  0.50444117  0.09771150  1
  Sc  Sc80  1  0.89520955  0.89081446  0.70086349  1
  Sc  Sc81  1  0.70159133  0.30142110  0.89441300  1
  Sc  Sc82  1  0.49719246  0.30490824  0.49289914  1
  Sc  Sc83  1  0.10382161  0.88876624  0.90525081  1
  Sc  Sc84  1  0.90522891  0.49762348  0.70254911  1
  Sc  Sc85  1  0.69726077  0.29667735  0.09055618  1
  Sc  Sc86  1  0.68829897  0.89449814  0.49772413  1
  Sc  Sc87  1  0.10024285  0.10069434  0.30128987  1
  Sc  Sc88  1  0.09380238  0.50242980  0.90188072  1
  Sc  Sc89  1  0.29114138  0.89987244  0.10269486  1
  Sc  Sc90  1  0.11345090  0.90815549  0.49928406  1
  Sc  Sc91  1  0.09625684  0.49284790  0.28697324  1
  Sc  Sc92  1  0.90370234  0.90381863  0.09871861  1
  Sc  Sc93  1  0.51011287  0.70635545  0.89635200  1
  Sc  Sc94  1  0.29860637  0.49761879  0.10748341  1
  Sc  Sc95  1  0.90671298  0.30064938  0.70334828  1
  Sc  Sc96  1  0.89643361  0.30253027  0.50239260  1
  Sc  Sc97  1  0.30341775  0.10667016  0.89693589  1
  Sc  Sc98  1  0.50917239  0.09974914  0.50034981  1
  Sc  Sc99  1  0.29803040  0.10714627  0.31434088  1
  Nb  Nb100  1  0.49800462  0.69823531  0.10190172  1
  Nb  Nb101  1  0.69266512  0.49707484  0.90520883  1
  Nb  Nb102  1  0.29888806  0.09940585  0.69717826  1
  Nb  Nb103  1  0.69987336  0.31019991  0.30315911  1
  Nb  Nb104  1  0.69895638  0.69740150  0.49954513  1
  Nb  Nb105  1  0.50122865  0.90250359  0.50773540  1
  Nb  Nb106  1  0.10104465  0.49756634  0.70201898  1
  Nb  Nb107  1  0.88770736  0.09629513  0.49456217  1
  Nb  Nb108  1  0.90025615  0.09873877  0.70057481  1
  Nb  Nb109  1  0.70768712  0.09940742  0.50269959  1
  Nb  Nb110  1  0.29947850  0.29347802  0.70201247  1
  Nb  Nb111  1  0.29705402  0.69311897  0.50227915  1
  Nb  Nb112  1  0.70120090  0.50065098  0.09757125  1
  Nb  Nb113  1  0.49614181  0.49976777  0.70248969  1
  Nb  Nb114  1  0.49736543  0.29973500  0.10703697  1
  Nb  Nb115  1  0.49364044  0.08816427  0.90276796  1
  Nb  Nb116  1  0.69585584  0.49720650  0.70414660  1
  Nb  Nb117  1  0.30386461  0.90336413  0.30549715  1
  Nb  Nb118  1  0.29527888  0.30082400  0.89304352  1
  Nb  Nb119  1  0.50031493  0.10348538  0.29830056  1
  Nb  Nb120  1  0.09952050  0.30417502  0.49997747  1
  Nb  Nb121  1  0.90330258  0.29890487  0.10409734  1
  Nb  Nb122  1  0.49876194  0.49948481  0.89891932  1
  Nb  Nb123  1  0.49781302  0.69410553  0.70222921  1
  Nb  Nb124  1  0.10350877  0.90148393  0.69387705  1
  Nb  Nb125  1  0.19669616  0.00116504  0.79138284  1
  Nb  Nb126  1  -0.00046722  0.20548477  0.00482424  1
  Nb  Nb127  1  0.59824399  0.59184944  0.79739217  1
  Nb  Nb128  1  0.00188665  0.80433973  0.59756287  1
  Nb  Nb129  1  0.40300469  0.00363941  0.20933256  1
  Nb  Nb130  1  -0.00399222  0.39229144  0.00386889  1
  Nb  Nb131  1  0.79525331  0.39696752  0.19599793  1
  Nb  Nb132  1  0.20614223  0.59063943  0.79466654  1
  Nb  Nb133  1  0.00615465  0.39545618  0.40006111  1
  Nb  Nb134  1  0.39406082  0.40224392  0.80115323  1
  Nb  Nb135  1  0.79747667  0.00300730  0.79194564  1
  Nb  Nb136  1  -0.00274979  0.60558507  0.19659556  1
  Nb  Nb137  1  0.39969450  0.59498205  0.80407397  1
  Nb  Nb138  1  0.40717838  0.60327700  -0.00193787  1
  Nb  Nb139  1  0.60218077  0.00153128  0.80141146  1
  Nb  Nb140  1  0.60106290  0.40610585  0.60799839  1
  Nb  Nb141  1  0.40354214  0.79417196  0.00789537  1
  Nb  Nb142  1  0.40754290  0.19422454  0.19654824  1
  Nb  Nb143  1  0.79924858  0.00658866  0.20737639  1
  Nb  Nb144  1  0.19416905  0.39949479  0.40130693  1
  Nb  Nb145  1  -0.00581343  0.00203922  0.60160148  1
  Nb  Nb146  1  0.39733442  0.19974387  0.60453575  1
  Nb  Nb147  1  0.20634774  0.40137135  0.79239367  1
  Nb  Nb148  1  0.00074475  -0.00215471  0.79333882  1
  Nb  Nb149  1  0.79979529  0.00505629  0.59899392  1
  Pd  Pd150  1  0.59835141  0.39219196  -0.00001639  1
  Pd  Pd151  1  0.00508290  0.80676699  0.79591149  1
  Pd  Pd152  1  0.20500336  0.39820646  0.59616238  1
  Pd  Pd153  1  0.78966721  0.80263357  0.79707578  1
  Pd  Pd154  1  0.79425293  0.80222968  0.40217675  1
  Pd  Pd155  1  0.78690282  0.20207143  0.19850376  1
  Pd  Pd156  1  0.59782992  0.20246785  -0.00672028  1
  Pd  Pd157  1  0.79555618  0.00067480  0.00589740  1
  Pd  Pd158  1  0.00911546  0.81158737  0.40808270  1
  Pd  Pd159  1  0.19004622  0.60222685  0.20589409  1
  Pd  Pd160  1  0.80784238  0.20104382  0.60346223  1
  Pd  Pd161  1  0.39647198  0.81062384  0.19723610  1
  Pd  Pd162  1  0.21323750  0.00947885  0.20647317  1
  Pd  Pd163  1  0.40291609  0.19587800  0.79703098  1
  Pd  Pd164  1  0.39746052  0.79368502  0.80978927  1
  Pd  Pd165  1  0.41089947  0.60622310  0.39317515  1
  Pd  Pd166  1  0.59336461  0.59645934  0.39459732  1
  Pd  Pd167  1  0.59376778  0.59157855  0.60060502  1
  Pd  Pd168  1  0.80743317  0.59347478  0.60011254  1
  Pd  Pd169  1  0.80386539  0.80264178  0.59163648  1
  Pd  Pd170  1  0.00681704  0.00220881  -0.00457359  1
  Pd  Pd171  1  0.60271091  0.00133305  0.40222248  1
  Pd  Pd172  1  0.59878834  0.60401934  -0.00695738  1
  Pd  Pd173  1  0.79178111  0.59472833  0.80461926  1
  Pd  Pd174  1  0.60059329  0.20478723  0.40837047  1
  Pd  Pd175  1  0.01163611  0.00062753  0.40436568  1
  Pd  Pd176  1  0.59224289  0.19032652  0.81067163  1
  Pd  Pd177  1  0.39349725  0.20111339  0.00549296  1
  Pd  Pd178  1  0.59362795  0.39967770  0.80189900  1
  Pd  Pd179  1  0.21425083  0.19278129  0.19636109  1
  Pd  Pd180  1  0.20196414  0.80504204  0.40377211  1
  Pd  Pd181  1  0.80396239  0.40672021  0.80173357  1
  Pd  Pd182  1  0.59778760  0.59474425  0.20763766  1
  Pd  Pd183  1  -0.00467895  0.20400130  0.40720867  1
  Pd  Pd184  1  0.40402697  0.39106414  0.60117385  1
  Pd  Pd185  1  0.60264777  0.20494631  0.19835464  1
  Pd  Pd186  1  0.18909207  0.58871010  0.39246223  1
  Pd  Pd187  1  -0.00375800  0.60455746  0.60665820  1
  Pd  Pd188  1  0.60441312  0.00212692  0.20750255  1
  Pd  Pd189  1  0.40048521  0.40353632  0.00068397  1
  Pd  Pd190  1  0.19336194  0.20754249  0.00709980  1
  Pd  Pd191  1  0.80004346  0.81067735  0.20030878  1
  Pd  Pd192  1  0.80281143  0.40115792  0.00230284  1
  Pd  Pd193  1  0.40352155  0.00847907  0.40360709  1
  Pd  Pd194  1  0.60544680  0.79828787  0.79404935  1
  Pd  Pd195  1  0.59932011  0.79648120  0.00463862  1
  Pd  Pd196  1  0.79908854  0.40504677  0.60279625  1
  Pd  Pd197  1  0.40279030  0.79290578  0.40602527  1
  Pd  Pd198  1  -0.00263095  0.79837014  0.19269158  1
  Pd  Pd199  1  -0.00946420  0.19542448  0.58906468  1
  Rh  Rh200  1  0.20177534  0.20714816  0.40413001  1
  Rh  Rh201  1  0.80657346  0.39486652  0.39289458  1
  Rh  Rh202  1  0.20462843  0.80072427  0.20338733  1
  Rh  Rh203  1  -0.00674904  0.00188512  0.20556520  1
  Rh  Rh204  1  0.20137759  0.60278721  0.60539676  1
  Rh  Rh205  1  0.20266356  0.19966101  0.79368459  1
  Rh  Rh206  1  0.78687487  -0.00664156  0.39783212  1
  Rh  Rh207  1  0.80152136  0.19731548  0.79479096  1
  Rh  Rh208  1  0.60469159  0.40196244  0.41336959  1
  Rh  Rh209  1  0.19530552  -0.00272378  -0.01131499  1
  Rh  Rh210  1  0.18563836  0.39046110  -0.00738385  1
  Rh  Rh211  1  -0.00387059  0.40294031  0.59438703  1
  Rh  Rh212  1  0.19518270  0.00831496  0.60246265  1
  Rh  Rh213  1  0.80414207  0.20323871  0.00248811  1
  Rh  Rh214  1  0.20665381  0.60511945  -0.00561215  1
  Rh  Rh215  1  0.79354218  0.59661656  -0.00616142  1
  Rh  Rh216  1  0.60229191  0.79587532  0.20183872  1
  Rh  Rh217  1  0.79774927  0.79966398  0.00515387  1
  Rh  Rh218  1  0.39887946  0.00404764  0.79570231  1
  Rh  Rh219  1  0.79918064  0.59060996  0.20281594  1
  Rh  Rh220  1  0.59210038  0.21231933  0.59019898  1
  Rh  Rh221  1  -0.00253193  0.59377690  0.00797758  1
  Rh  Rh222  1  0.38975504  0.40004235  0.39822646  1
  Rh  Rh223  1  0.40283256  -0.01304492  0.01135083  1
  Rh  Rh224  1  -0.01573214  0.41296161  0.19843092  1
  Rh  Rh225  1  0.20175331  0.80581548  0.79946284  1
  Rh  Rh226  1  0.60249518  0.00169305  -0.00941808  1
  Rh  Rh227  1  0.00837830  0.59765926  0.79604628  1
  Rh  Rh228  1  0.79667729  0.60200442  0.40330128  1
  Rh  Rh229  1  0.60306945  -0.00427716  0.60381380  1
  Rh  Rh230  1  0.40571395  0.19681326  0.40339718  1
  Rh  Rh231  1  0.40439371  0.00831450  0.59462692  1
  Rh  Rh232  1  0.40430920  0.79423122  0.59201384  1
  Rh  Rh233  1  0.59396086  0.79665503  0.60120369  1
  Rh  Rh234  1  0.20203316  -0.00065638  0.39704278  1
  Rh  Rh235  1  0.21044011  0.39694136  0.21053518  1
  Rh  Rh236  1  -0.00628528  0.19509896  0.80470438  1
  Rh  Rh237  1  0.00532743  0.58838687  0.38824092  1
  Rh  Rh238  1  0.20883374  0.20453556  0.59523552  1
  Rh  Rh239  1  0.39689679  0.39138003  0.19678826  1
  Rh  Rh240  1  0.59708829  0.79503776  0.40236852  1
  Rh  Rh241  1  0.40952259  0.59245214  0.19677361  1
  Rh  Rh242  1  0.00449597  0.40456655  0.80552996  1
  Rh  Rh243  1  0.40226007  0.60799134  0.60035175  1
  Rh  Rh244  1  0.20666370  0.80101877  0.00514382  1
  Rh  Rh245  1  -0.00267636  0.80118101  0.00455149  1
  Rh  Rh246  1  0.00886489  0.19076626  0.19437490  1
  Rh  Rh247  1  0.79986060  0.20942086  0.40148482  1
  Rh  Rh248  1  0.61151580  0.39552039  0.19215138  1
  Rh  Rh249  1  0.19756265  0.79679215  0.58907588  1
