# generated using pymatgen
data_ZrScNbPdRh
_symmetry_space_group_name_H-M   'P 1'
_cell_length_a   16.56125638
_cell_length_b   16.55837171
_cell_length_c   16.55630466
_cell_angle_alpha   90.02057216
_cell_angle_beta   89.97472147
_cell_angle_gamma   89.99883261
_symmetry_Int_Tables_number   1
_chemical_formula_structural   ZrScNbPdRh
_chemical_formula_sum   'Zr50 Sc50 Nb50 Pd50 Rh50'
_cell_volume   4540.19229252
_cell_formula_units_Z   50
loop_
 _symmetry_equiv_pos_site_id
 _symmetry_equiv_pos_as_xyz
  1  'x, y, z'
loop_
 _atom_site_type_symbol
 _atom_site_label
 _atom_site_symmetry_multiplicity
 _atom_site_fract_x
 _atom_site_fract_y
 _atom_site_fract_z
 _atom_site_occupancy
  Zr  Zr0  1  0.49724580  0.29237698  0.09647347  1
  Zr  Zr1  1  0.29736917  0.89904256  0.50097509  1
  Zr  Zr2  1  0.90308440  0.10125687  0.28980427  1
  Zr  Zr3  1  0.70503834  0.69234094  0.90708062  1
  Zr  Zr4  1  0.90053559  0.10532376  0.49672894  1
  Zr  Zr5  1  0.30415945  0.49854498  0.89880536  1
  Zr  Zr6  1  0.69766916  0.89613460  0.50174112  1
  Zr  Zr7  1  0.49666375  0.49374117  0.90003944  1
  Zr  Zr8  1  0.71971765  0.49493167  0.69521106  1
  Zr  Zr9  1  0.89341361  0.31017829  0.71055551  1
  Zr  Zr10  1  0.70835267  0.51179411  0.10042095  1
  Zr  Zr11  1  0.10231918  0.89688173  0.08971015  1
  Zr  Zr12  1  0.50379388  0.69741021  0.50236694  1
  Zr  Zr13  1  0.69718929  0.11345733  0.49971112  1
  Zr  Zr14  1  0.10099114  0.49739932  0.90028518  1
  Zr  Zr15  1  0.30285800  0.70943668  0.29994946  1
  Zr  Zr16  1  0.90494379  0.49129102  0.09756573  1
  Zr  Zr17  1  0.49785015  0.29864863  0.89568013  1
  Zr  Zr18  1  0.89222262  0.50396813  0.50969193  1
  Zr  Zr19  1  0.49510705  0.10849105  0.49700641  1
  Zr  Zr20  1  0.29958174  0.50003596  0.09022077  1
  Zr  Zr21  1  0.90981869  0.90019062  0.50196613  1
  Zr  Zr22  1  0.69942449  0.69481528  0.29018936  1
  Zr  Zr23  1  0.09699770  0.69941100  0.30201494  1
  Zr  Zr24  1  0.69996377  0.49698153  0.29851538  1
  Zr  Zr25  1  0.50536625  0.70144568  0.29712815  1
  Zr  Zr26  1  0.09844993  0.10246964  0.50235119  1
  Zr  Zr27  1  0.30287136  0.29588049  0.90403764  1
  Zr  Zr28  1  0.69690269  0.10265057  0.28896874  1
  Zr  Zr29  1  0.08812836  0.89646041  0.29518626  1
  Zr  Zr30  1  0.89838800  0.89884428  0.70844017  1
  Zr  Zr31  1  0.49450399  0.90150397  0.29912611  1
  Zr  Zr32  1  0.30244768  0.29746195  0.50459266  1
  Zr  Zr33  1  0.10090344  0.29149647  0.90075520  1
  Zr  Zr34  1  0.11177948  0.30235681  0.70119234  1
  Zr  Zr35  1  0.89088600  0.68585170  0.09381271  1
  Zr  Zr36  1  0.90546452  0.29006303  0.90349861  1
  Zr  Zr37  1  0.69257485  0.29748700  0.69405974  1
  Zr  Zr38  1  0.29762556  0.89846106  0.70102806  1
  Zr  Zr39  1  0.30400169  0.90144458  0.30220177  1
  Zr  Zr40  1  0.09995665  0.70194895  0.51073693  1
  Zr  Zr41  1  0.50653246  0.50118695  0.31287638  1
  Zr  Zr42  1  0.09256888  0.69952682  0.09501361  1
  Zr  Zr43  1  0.69675612  0.49347310  0.49764563  1
  Zr  Zr44  1  0.49669180  0.10478899  0.90164004  1
  Zr  Zr45  1  0.70734305  0.89966264  0.89672049  1
  Zr  Zr46  1  0.89621384  0.10138846  0.70534396  1
  Zr  Zr47  1  0.69841496  0.69688213  0.10363070  1
  Zr  Zr48  1  0.29840031  0.90477425  0.09140511  1
  Zr  Zr49  1  0.29844348  0.89808434  0.90800958  1
  Sc  Sc50  1  0.31712641  0.49548104  0.30322179  1
  Sc  Sc51  1  0.90447163  0.49090017  0.30950676  1
  Sc  Sc52  1  0.89997511  0.70381798  0.90144278  1
  Sc  Sc53  1  0.50309488  0.89068970  0.70463264  1
  Sc  Sc54  1  0.50680042  0.49885953  0.09336280  1
  Sc  Sc55  1  0.29042240  0.49616151  0.69995486  1
  Sc  Sc56  1  0.69460813  0.90042742  0.70965711  1
  Sc  Sc57  1  0.10309047  0.10636907  0.70235172  1
  Sc  Sc58  1  0.69015727  0.29648587  0.90097117  1
  Sc  Sc59  1  0.69592319  0.90542446  0.10409160  1
  Sc  Sc60  1  0.50146080  0.68919647  0.89107676  1
  Sc  Sc61  1  0.30074699  0.10968496  0.69917715  1
  Sc  Sc62  1  0.30094377  0.70243800  0.50515739  1
  Sc  Sc63  1  0.10058497  0.30090264  0.49646756  1
  Sc  Sc64  1  0.68746491  0.09691103  0.89510041  1
  Sc  Sc65  1  0.90653765  0.90247323  0.10356788  1
  Sc  Sc66  1  0.09469661  0.29708024  0.30029874  1
  Sc  Sc67  1  0.90218434  0.69475689  0.49916562  1
  Sc  Sc68  1  0.70942190  0.69474401  0.49887122  1
  Sc  Sc69  1  0.30293948  0.09805557  0.90789905  1
  Sc  Sc70  1  0.30265662  0.10894180  0.10062028  1
  Sc  Sc71  1  0.08828480  0.50747359  0.49723824  1
  Sc  Sc72  1  0.69691005  0.29227465  0.10487732  1
  Sc  Sc73  1  0.08952577  0.70040267  0.90135827  1
  Sc  Sc74  1  0.69800860  0.50064112  0.89580202  1
  Sc  Sc75  1  0.29770244  0.70932976  0.09175535  1
  Sc  Sc76  1  0.50310228  0.30467973  0.50567074  1
  Sc  Sc77  1  0.49481605  0.49292028  0.70408815  1
  Sc  Sc78  1  0.89629496  0.30499412  0.48964412  1
  Sc  Sc79  1  0.49675613  0.90700398  0.10054372  1
  Sc  Sc80  1  0.49338162  0.30758999  0.29714001  1
  Sc  Sc81  1  0.10085163  0.29980559  0.09151369  1
  Sc  Sc82  1  0.09197305  0.89479001  0.68491635  1
  Sc  Sc83  1  0.90408704  0.30239858  0.29580784  1
  Sc  Sc84  1  0.69869040  0.70154242  0.70782060  1
  Sc  Sc85  1  0.30374970  0.69885836  0.89876296  1
  Sc  Sc86  1  0.89437240  0.70592514  0.30323045  1
  Sc  Sc87  1  0.70748440  0.89330999  0.29148710  1
  Sc  Sc88  1  0.90842942  0.69508139  0.70267753  1
  Sc  Sc89  1  0.09645436  0.10762645  0.29816675  1
  Sc  Sc90  1  0.49449273  0.29620467  0.70210385  1
  Sc  Sc91  1  0.29943335  0.10544773  0.49837688  1
  Sc  Sc92  1  0.30586309  0.10928010  0.29991574  1
  Sc  Sc93  1  0.31108638  0.50189894  0.50568879  1
  Sc  Sc94  1  0.49241342  0.90587351  0.89968256  1
  Sc  Sc95  1  0.49472157  0.89519953  0.49910386  1
  Sc  Sc96  1  0.29740579  0.69498793  0.69506159  1
  Sc  Sc97  1  0.10457967  0.10309862  0.09669908  1
  Sc  Sc98  1  0.10054340  0.49577861  0.08703739  1
  Sc  Sc99  1  0.69608964  0.30193458  0.50083265  1
  Nb  Nb100  1  0.51243445  0.09971742  0.10665264  1
  Nb  Nb101  1  0.89769807  0.90479220  0.30530369  1
  Nb  Nb102  1  0.90325924  0.90350620  0.90147155  1
  Nb  Nb103  1  0.09515699  0.90027173  0.90592504  1
  Nb  Nb104  1  0.88727966  0.11747235  0.09290944  1
  Nb  Nb105  1  0.09675585  0.09811147  0.90273176  1
  Nb  Nb106  1  0.69570902  0.09812076  0.70152540  1
  Nb  Nb107  1  0.29802279  0.29430235  0.10928804  1
  Nb  Nb108  1  0.10096556  0.49761916  0.30046299  1
  Nb  Nb109  1  0.69896776  0.30856183  0.30652874  1
  Nb  Nb110  1  0.29962964  0.29887863  0.69779659  1
  Nb  Nb111  1  0.51352721  0.69897646  0.10515401  1
  Nb  Nb112  1  0.50372991  0.09990029  0.70538078  1
  Nb  Nb113  1  0.50588247  0.50164859  0.49858491  1
  Nb  Nb114  1  0.89915685  0.49877158  0.70378339  1
  Nb  Nb115  1  0.89662607  0.48996157  0.89040345  1
  Nb  Nb116  1  0.10188391  0.90238368  0.50049530  1
  Nb  Nb117  1  0.10088602  0.69612030  0.70112553  1
  Nb  Nb118  1  0.09631657  0.51016298  0.69870478  1
  Nb  Nb119  1  0.89838083  0.29431751  0.09008737  1
  Nb  Nb120  1  0.49801277  0.09224941  0.29885229  1
  Nb  Nb121  1  0.29968321  0.30293674  0.29353414  1
  Nb  Nb122  1  0.50931339  0.69896445  0.69444831  1
  Nb  Nb123  1  0.69740598  0.10196045  0.09736778  1
  Nb  Nb124  1  0.89882804  0.10278781  0.90262226  1
  Nb  Nb125  1  0.80426204  0.39371912  -0.00020368  1
  Nb  Nb126  1  -0.00181021  0.40382210  0.60910624  1
  Nb  Nb127  1  0.00170931  -0.00113083  0.81013864  1
  Nb  Nb128  1  0.19071360  0.80377103  0.79973223  1
  Nb  Nb129  1  0.40188903  0.60381344  0.19609703  1
  Nb  Nb130  1  0.20448908  0.40411090  0.39330875  1
  Nb  Nb131  1  -0.00344476  0.20979512  0.60556743  1
  Nb  Nb132  1  0.19452108  -0.00524840  0.39830452  1
  Nb  Nb133  1  0.79468140  0.00170452  0.59910228  1
  Nb  Nb134  1  0.19174886  -0.00660911  0.80715724  1
  Nb  Nb135  1  0.80272653  0.01002128  -0.00019487  1
  Nb  Nb136  1  0.79559781  0.19635074  0.80182203  1
  Nb  Nb137  1  0.19941178  -0.00352907  0.20417122  1
  Nb  Nb138  1  0.59823217  0.00644938  0.59974377  1
  Nb  Nb139  1  0.00509069  0.59438287  0.20215114  1
  Nb  Nb140  1  0.20431587  0.40121551  0.20253186  1
  Nb  Nb141  1  0.80047726  0.00008516  0.39904433  1
  Nb  Nb142  1  0.40590285  0.00400686  0.60390360  1
  Nb  Nb143  1  0.20219444  0.59457969  0.20367859  1
  Nb  Nb144  1  0.80328434  0.80591651  0.60276985  1
  Nb  Nb145  1  0.20059060  0.59616315  0.39389690  1
  Nb  Nb146  1  0.59926315  0.59524931  0.60157675  1
  Nb  Nb147  1  0.60115136  0.79529109  0.00199831  1
  Nb  Nb148  1  0.60218161  0.00099832  0.39921633  1
  Nb  Nb149  1  0.60290970  0.80014820  0.39589090  1
  Pd  Pd150  1  0.59415645  0.20734571  0.20932125  1
  Pd  Pd151  1  -0.00169108  0.79570059  0.40453267  1
  Pd  Pd152  1  0.40088577  0.80357220  0.60342358  1
  Pd  Pd153  1  -0.00747645  0.00847703  0.00530627  1
  Pd  Pd154  1  0.19200314  0.41071537  0.58674982  1
  Pd  Pd155  1  0.20587978  0.00632568  0.60172459  1
  Pd  Pd156  1  0.79806953  0.81130348  0.00831636  1
  Pd  Pd157  1  0.40844698  0.60865972  0.00571380  1
  Pd  Pd158  1  0.39832002  0.39339175  0.00469599  1
  Pd  Pd159  1  0.39486713  0.60659020  0.39815571  1
  Pd  Pd160  1  -0.00227009  0.00963364  0.60899990  1
  Pd  Pd161  1  0.00196749  0.00507265  0.39644477  1
  Pd  Pd162  1  0.20038433  0.60766477  0.80374915  1
  Pd  Pd163  1  0.00981324  0.39777151  0.19482802  1
  Pd  Pd164  1  0.80087611  0.39370930  0.19495895  1
  Pd  Pd165  1  0.39721444  0.79188628  0.79706205  1
  Pd  Pd166  1  0.40272972  0.39961049  0.60258670  1
  Pd  Pd167  1  0.80740464  0.80153451  0.19217729  1
  Pd  Pd168  1  0.40415997  0.20933366  0.39471031  1
  Pd  Pd169  1  0.39727440  0.60002743  0.78991176  1
  Pd  Pd170  1  0.80377585  0.79121202  0.79728629  1
  Pd  Pd171  1  0.00500440  0.20467565  0.18980006  1
  Pd  Pd172  1  0.79765967  0.21144601  0.20534232  1
  Pd  Pd173  1  0.19913618  0.60749971  -0.00311611  1
  Pd  Pd174  1  0.19956057  0.80153118  0.19458406  1
  Pd  Pd175  1  0.20008948  0.20175213  0.39557286  1
  Pd  Pd176  1  0.40299552  0.79707801  0.18768562  1
  Pd  Pd177  1  0.20719061  0.19061120  0.80666004  1
  Pd  Pd178  1  0.60280809  -0.00603287  -0.00404912  1
  Pd  Pd179  1  -0.00447764  0.59854315  0.80713293  1
  Pd  Pd180  1  0.20242862  0.40088615  0.80379624  1
  Pd  Pd181  1  0.01022322  0.39994924  0.79861990  1
  Pd  Pd182  1  0.60352636  0.40361129  0.79377079  1
  Pd  Pd183  1  0.39215516  0.00371321  0.79505307  1
  Pd  Pd184  1  0.80173614  0.20109101  0.38653388  1
  Pd  Pd185  1  0.80095575  0.59545532  0.39443883  1
  Pd  Pd186  1  0.80323419  0.00005440  0.19544880  1
  Pd  Pd187  1  -0.01202997  0.79086210  0.19462195  1
  Pd  Pd188  1  0.39184433  0.00780640  0.19335191  1
  Pd  Pd189  1  0.19527078  0.79978185  0.40389289  1
  Pd  Pd190  1  0.59175183  0.20429141  0.38909019  1
  Pd  Pd191  1  0.00362360  0.00844294  0.18800086  1
  Pd  Pd192  1  0.41586808  0.79159270  -0.00010245  1
  Pd  Pd193  1  0.80533295  0.20433800  0.60532641  1
  Pd  Pd194  1  0.40575192  0.59625555  0.60827575  1
  Pd  Pd195  1  0.40094064  0.40761433  0.19029167  1
  Pd  Pd196  1  0.59550474  0.79989889  0.81424444  1
  Pd  Pd197  1  0.59931608  0.40184081  0.19384389  1
  Pd  Pd198  1  0.60281281  0.58931055  0.79102849  1
  Pd  Pd199  1  0.61104722  0.39940238  0.00557836  1
  Rh  Rh200  1  0.80561047  0.60299478  0.80119937  1
  Rh  Rh201  1  -0.00259245  0.20350971  0.40466731  1
  Rh  Rh202  1  0.59834570  0.19617392  0.00026992  1
  Rh  Rh203  1  0.00119160  0.60237257  0.39502809  1
  Rh  Rh204  1  0.79808776  0.39975052  0.40002325  1
  Rh  Rh205  1  0.40179123  0.19833466  0.60548931  1
  Rh  Rh206  1  -0.00317083  0.59737289  0.60512149  1
  Rh  Rh207  1  0.20105364  0.19883286  -0.00177148  1
  Rh  Rh208  1  0.59158288  -0.00414275  0.79846743  1
  Rh  Rh209  1  0.80792516  0.58419920  -0.01313770  1
  Rh  Rh210  1  0.60835988  0.79075150  0.59646122  1
  Rh  Rh211  1  0.19580803  0.79256976  -0.01120357  1
  Rh  Rh212  1  0.59205436  0.19802436  0.60572791  1
  Rh  Rh213  1  -0.00601510  0.59226998  -0.00430104  1
  Rh  Rh214  1  0.40343909  0.19686752  0.00603735  1
  Rh  Rh215  1  0.79962002  0.80732140  0.40594729  1
  Rh  Rh216  1  0.00665287  0.19363876  0.00512577  1
  Rh  Rh217  1  0.59232781  0.58596502  0.20058069  1
  Rh  Rh218  1  0.80370815  0.00750641  0.80531525  1
  Rh  Rh219  1  0.79028556  0.38957956  0.81322897  1
  Rh  Rh220  1  -0.00263341  0.19355316  0.79582255  1
  Rh  Rh221  1  0.20621659  0.39073981  0.00162830  1
  Rh  Rh222  1  0.59527333  0.40730591  0.60346762  1
  Rh  Rh223  1  0.60835586  0.60686843  0.40711944  1
  Rh  Rh224  1  0.59709207  0.81194511  0.19906802  1
  Rh  Rh225  1  -0.00508156  0.79364873  0.59980371  1
  Rh  Rh226  1  0.00496504  0.39872078  0.40904653  1
  Rh  Rh227  1  0.59978298  -0.00167514  0.20505712  1
  Rh  Rh228  1  0.20154108  0.00653757  0.00134747  1
  Rh  Rh229  1  0.39606465  0.19983541  0.79824275  1
  Rh  Rh230  1  0.39807212  0.39455377  0.41042859  1
  Rh  Rh231  1  0.19688420  0.79683468  0.60695047  1
  Rh  Rh232  1  0.80603618  0.39094316  0.59422878  1
  Rh  Rh233  1  0.60072456  0.20148645  0.79721313  1
  Rh  Rh234  1  0.38988783  0.39522103  0.79564372  1
  Rh  Rh235  1  0.00633512  0.80513401  0.80086726  1
  Rh  Rh236  1  0.81616137  0.59122377  0.21184566  1
  Rh  Rh237  1  -0.00945392  0.79777787  0.00206774  1
  Rh  Rh238  1  0.59633788  0.60253316  -0.00503417  1
  Rh  Rh239  1  0.19751932  0.20192260  0.20151429  1
  Rh  Rh240  1  0.59728410  0.39213783  0.40224352  1
  Rh  Rh241  1  0.40617881  0.01157499  0.00831665  1
  Rh  Rh242  1  0.79727112  0.61262019  0.61114853  1
  Rh  Rh243  1  0.40883577  0.19512368  0.20169014  1
  Rh  Rh244  1  0.39618184  0.00406159  0.40976786  1
  Rh  Rh245  1  0.40778102  0.79421717  0.40616635  1
  Rh  Rh246  1  -0.00443271  0.39948224  -0.00892982  1
  Rh  Rh247  1  0.19846083  0.59574649  0.59287706  1
  Rh  Rh248  1  0.78460144  0.19922189  -0.00860319  1
  Rh  Rh249  1  0.19529761  0.20056513  0.59798161  1
