# generated using pymatgen
data_ZrScNbPdRh
_symmetry_space_group_name_H-M   'P 1'
_cell_length_a   16.56248197
_cell_length_b   16.55586643
_cell_length_c   16.56244822
_cell_angle_alpha   90.00603007
_cell_angle_beta   90.03307513
_cell_angle_gamma   89.96386782
_symmetry_Int_Tables_number   1
_chemical_formula_structural   ZrScNbPdRh
_chemical_formula_sum   'Zr50 Sc50 Nb50 Pd50 Rh50'
_cell_volume   4541.52495209
_cell_formula_units_Z   50
loop_
 _symmetry_equiv_pos_site_id
 _symmetry_equiv_pos_as_xyz
  1  'x, y, z'
loop_
 _atom_site_type_symbol
 _atom_site_label
 _atom_site_symmetry_multiplicity
 _atom_site_fract_x
 _atom_site_fract_y
 _atom_site_fract_z
 _atom_site_occupancy
  Zr  Zr0  1  0.30031621  0.70920512  0.69641574  1
  Zr  Zr1  1  0.89083538  0.48782687  0.69595738  1
  Zr  Zr2  1  0.89940260  0.89500833  0.10559802  1
  Zr  Zr3  1  0.89243764  0.50277078  0.10085817  1
  Zr  Zr4  1  0.89262392  0.70415278  0.90121072  1
  Zr  Zr5  1  0.10873159  0.29577067  0.90301071  1
  Zr  Zr6  1  0.50087026  0.50293084  0.10476303  1
  Zr  Zr7  1  0.09969339  0.69893984  0.89605703  1
  Zr  Zr8  1  0.50330579  0.29026056  0.30078651  1
  Zr  Zr9  1  0.09975389  0.90452818  0.49483453  1
  Zr  Zr10  1  0.50999023  0.09298033  0.49838902  1
  Zr  Zr11  1  0.50827646  0.69846333  0.70155320  1
  Zr  Zr12  1  0.69714325  0.70601298  0.50240815  1
  Zr  Zr13  1  0.30265587  0.89835376  0.90162354  1
  Zr  Zr14  1  0.29952347  0.29934723  0.89797795  1
  Zr  Zr15  1  0.29674524  0.70014465  0.89581917  1
  Zr  Zr16  1  0.09795028  0.49664307  0.11465849  1
  Zr  Zr17  1  0.29952875  0.10296661  0.50246942  1
  Zr  Zr18  1  0.89979185  0.69830127  0.49096421  1
  Zr  Zr19  1  0.89687936  0.30495720  0.51417608  1
  Zr  Zr20  1  0.89959209  0.29674079  0.70467983  1
  Zr  Zr21  1  0.89624756  0.29816370  0.29142800  1
  Zr  Zr22  1  0.90259100  0.10052641  0.09724664  1
  Zr  Zr23  1  0.09946226  0.90187320  0.09455687  1
  Zr  Zr24  1  0.69140066  0.71124237  0.89312984  1
  Zr  Zr25  1  0.08638150  0.70613317  0.10685067  1
  Zr  Zr26  1  0.50261971  0.89284082  0.30000611  1
  Zr  Zr27  1  0.69501447  0.10950791  0.31092998  1
  Zr  Zr28  1  0.89673614  0.90562210  0.89387945  1
  Zr  Zr29  1  0.90056435  0.09890526  0.89774339  1
  Zr  Zr30  1  0.30015578  0.50041136  0.68942180  1
  Zr  Zr31  1  0.49711858  0.29798093  0.69651670  1
  Zr  Zr32  1  0.89519672  0.10020001  0.29536130  1
  Zr  Zr33  1  0.29995967  0.09799070  0.69761588  1
  Zr  Zr34  1  0.71095052  0.69436377  0.09974041  1
  Zr  Zr35  1  0.30624673  0.09791986  0.30163045  1
  Zr  Zr36  1  0.29922420  0.70494697  0.50285350  1
  Zr  Zr37  1  0.50214317  0.70065729  0.30134874  1
  Zr  Zr38  1  0.09583749  0.90358466  0.30267644  1
  Zr  Zr39  1  0.70097445  0.90547753  0.89673497  1
  Zr  Zr40  1  0.29570140  0.30525867  0.50662326  1
  Zr  Zr41  1  0.29480359  0.09675379  0.89191105  1
  Zr  Zr42  1  0.49890659  0.50352228  0.30051537  1
  Zr  Zr43  1  0.70597288  0.30432285  0.09865611  1
  Zr  Zr44  1  0.70382088  0.09603292  0.70440164  1
  Zr  Zr45  1  0.90375672  0.09503259  0.70459211  1
  Zr  Zr46  1  0.30084265  0.90405329  0.70191006  1
  Zr  Zr47  1  0.49459745  0.90229058  0.69508160  1
  Zr  Zr48  1  0.89322686  0.09482960  0.50591015  1
  Zr  Zr49  1  0.30770289  0.89757559  0.30230491  1
  Sc  Sc50  1  0.08275618  0.68984014  0.30654010  1
  Sc  Sc51  1  0.29950460  0.10201859  0.10558401  1
  Sc  Sc52  1  0.49414004  0.30219291  0.49980093  1
  Sc  Sc53  1  0.70123167  0.90318835  0.09461758  1
  Sc  Sc54  1  0.68593821  0.49863572  0.50626774  1
  Sc  Sc55  1  0.29024906  0.49810086  0.89979392  1
  Sc  Sc56  1  0.51008714  0.89509890  0.90327509  1
  Sc  Sc57  1  0.29756331  0.30471194  0.10282894  1
  Sc  Sc58  1  0.50081454  0.70322832  0.90667945  1
  Sc  Sc59  1  0.30020800  0.89932865  0.51032335  1
  Sc  Sc60  1  0.31012807  0.49412733  0.10739052  1
  Sc  Sc61  1  0.50788791  0.09385252  0.88368334  1
  Sc  Sc62  1  0.09472836  0.50275577  0.70348134  1
  Sc  Sc63  1  0.49756974  0.30655879  0.10107088  1
  Sc  Sc64  1  0.89858059  0.49496763  0.89110386  1
  Sc  Sc65  1  0.69189997  0.70035800  0.30026027  1
  Sc  Sc66  1  0.70091703  0.50159169  0.09714305  1
  Sc  Sc67  1  0.29779234  0.30107558  0.29931489  1
  Sc  Sc68  1  0.50765967  0.49939058  0.90348898  1
  Sc  Sc69  1  0.89992553  0.29796014  0.10332381  1
  Sc  Sc70  1  0.89735619  0.89881578  0.30843243  1
  Sc  Sc71  1  0.29518886  0.28940691  0.69390877  1
  Sc  Sc72  1  0.70524493  0.89855665  0.30584368  1
  Sc  Sc73  1  0.51012325  0.30673476  0.89615694  1
  Sc  Sc74  1  0.31509272  0.69714685  0.09532913  1
  Sc  Sc75  1  0.90540418  0.50083063  0.50614480  1
  Sc  Sc76  1  0.89372485  0.70211602  0.29216846  1
  Sc  Sc77  1  0.49806429  0.10355131  0.11263644  1
  Sc  Sc78  1  0.10562525  0.90850768  0.69562326  1
  Sc  Sc79  1  0.10351132  0.29369454  0.10869049  1
  Sc  Sc80  1  0.69470056  0.49031004  0.90204353  1
  Sc  Sc81  1  0.51003395  0.50013910  0.69306048  1
  Sc  Sc82  1  0.10456075  0.09763019  0.50120468  1
  Sc  Sc83  1  0.09970843  0.29467159  0.69467480  1
  Sc  Sc84  1  0.10353375  0.10076311  0.70630531  1
  Sc  Sc85  1  0.30436672  0.89785366  0.09739492  1
  Sc  Sc86  1  0.50827657  0.70311345  0.09977703  1
  Sc  Sc87  1  0.90696163  0.50106647  0.29213423  1
  Sc  Sc88  1  0.10374174  0.90787735  0.90422001  1
  Sc  Sc89  1  0.10404631  0.10081006  0.31164744  1
  Sc  Sc90  1  0.10314050  0.50210028  0.88991982  1
  Sc  Sc91  1  0.89462950  0.29895736  0.89831535  1
  Sc  Sc92  1  0.89330190  0.69389705  0.68973460  1
  Sc  Sc93  1  0.71148778  0.09452682  0.10290104  1
  Sc  Sc94  1  0.10559408  0.69884128  0.69912972  1
  Sc  Sc95  1  0.49263027  0.09723283  0.69560685  1
  Sc  Sc96  1  0.70714055  0.31149632  0.70122332  1
  Sc  Sc97  1  0.70301533  0.30261102  0.89571243  1
  Sc  Sc98  1  0.49403932  0.49768317  0.50276655  1
  Sc  Sc99  1  0.50196413  0.70702443  0.49983672  1
  Nb  Nb100  1  0.70326488  0.09738150  0.90242081  1
  Nb  Nb101  1  0.69426361  0.50801334  0.70248497  1
  Nb  Nb102  1  0.70995285  0.88765880  0.70295461  1
  Nb  Nb103  1  0.69268624  0.50488212  0.30446351  1
  Nb  Nb104  1  0.30473268  0.70277961  0.30126412  1
  Nb  Nb105  1  0.09818853  0.30840755  0.49125674  1
  Nb  Nb106  1  0.89643387  0.90066478  0.50266023  1
  Nb  Nb107  1  0.29500565  0.49841958  0.49466463  1
  Nb  Nb108  1  0.69971254  0.09891197  0.50093589  1
  Nb  Nb109  1  0.69526232  0.69626413  0.70031512  1
  Nb  Nb110  1  0.10297576  0.50050165  0.48220774  1
  Nb  Nb111  1  0.29873075  0.50379418  0.29871153  1
  Nb  Nb112  1  0.09923086  0.09412281  0.91081292  1
  Nb  Nb113  1  0.09949157  0.09340816  0.09115384  1
  Nb  Nb114  1  0.70142161  0.29151833  0.49418275  1
  Nb  Nb115  1  0.50204705  0.09583673  0.30155185  1
  Nb  Nb116  1  0.09514507  0.31361264  0.30400850  1
  Nb  Nb117  1  0.89966417  0.69518689  0.10178807  1
  Nb  Nb118  1  0.89996043  0.90295000  0.69865156  1
  Nb  Nb119  1  0.70219050  0.90830340  0.50293218  1
  Nb  Nb120  1  0.50046160  0.90529241  0.10101642  1
  Nb  Nb121  1  0.50537549  0.90034012  0.49603422  1
  Nb  Nb122  1  0.69948149  0.30059868  0.30322836  1
  Nb  Nb123  1  0.10372682  0.49267400  0.30545729  1
  Nb  Nb124  1  0.09450481  0.69509922  0.49720106  1
  Nb  Nb125  1  -0.00137338  0.59878225  0.00213045  1
  Nb  Nb126  1  0.39894043  0.40440254  0.79419703  1
  Nb  Nb127  1  0.00355503  0.40399732  0.00150473  1
  Nb  Nb128  1  0.19590883  -0.00367053  0.19955032  1
  Nb  Nb129  1  -0.00579732  0.80512418  0.79095756  1
  Nb  Nb130  1  0.40021234  0.59736090  0.79685325  1
  Nb  Nb131  1  0.40622449  0.19541259  -0.00577794  1
  Nb  Nb132  1  -0.00110092  0.21009692  0.40432717  1
  Nb  Nb133  1  0.40939312  -0.00254278  0.40099449  1
  Nb  Nb134  1  0.59685105  0.00062777  0.20671018  1
  Nb  Nb135  1  0.40631124  0.00526602  0.00017569  1
  Nb  Nb136  1  0.39064174  0.60005550  0.39899822  1
  Nb  Nb137  1  0.79098491  0.40063158  0.39843222  1
  Nb  Nb138  1  -0.00375694  0.80497751  0.59680038  1
  Nb  Nb139  1  0.19953015  0.79477980  0.20644558  1
  Nb  Nb140  1  0.78871541  0.60091532  0.79450258  1
  Nb  Nb141  1  0.60119335  0.19401430  -0.00247161  1
  Nb  Nb142  1  0.19252244  0.60115626  0.01214207  1
  Nb  Nb143  1  0.60905170  0.19739238  0.59448462  1
  Nb  Nb144  1  0.00413342  0.00328909  0.19767791  1
  Nb  Nb145  1  0.19750475  0.59587081  0.58571978  1
  Nb  Nb146  1  0.60524532  0.39993778  0.20926901  1
  Nb  Nb147  1  0.20338984  0.60369643  0.20695215  1
  Nb  Nb148  1  0.19716952  0.79441493  0.39675393  1
  Nb  Nb149  1  0.79339675  0.59254254  0.39820372  1
  Pd  Pd150  1  0.39985443  0.60130418  0.59669710  1
  Pd  Pd151  1  0.20361609  0.79069142  0.00897303  1
  Pd  Pd152  1  0.79729373  0.80553238  0.00161787  1
  Pd  Pd153  1  0.79587001  0.20142003  -0.00288913  1
  Pd  Pd154  1  0.60761943  0.20321538  0.79673404  1
  Pd  Pd155  1  0.18890751  0.80911342  0.79796576  1
  Pd  Pd156  1  0.60797196  0.19942675  0.19064389  1
  Pd  Pd157  1  0.80990646  0.20495176  0.40333944  1
  Pd  Pd158  1  0.60313282  0.39051217  0.59943692  1
  Pd  Pd159  1  -0.00116371  0.80047806  0.40110868  1
  Pd  Pd160  1  0.79946839  -0.00081184  0.39910181  1
  Pd  Pd161  1  0.18822339  0.40605093  0.60155449  1
  Pd  Pd162  1  0.00629294  0.19983679  0.80684156  1
  Pd  Pd163  1  0.80414831  0.80094079  0.59818124  1
  Pd  Pd164  1  0.01248413  0.19345753  0.20776471  1
  Pd  Pd165  1  0.40288430  0.20553309  0.80375270  1
  Pd  Pd166  1  0.79245055  0.40797720  0.20624837  1
  Pd  Pd167  1  0.59984383  0.39661699  0.40135937  1
  Pd  Pd168  1  0.00450934  -0.00051388  0.59971728  1
  Pd  Pd169  1  0.60762176  -0.00179515  0.60859475  1
  Pd  Pd170  1  0.00471222  0.39083187  0.80585833  1
  Pd  Pd171  1  0.19378198  0.19430847  0.20505581  1
  Pd  Pd172  1  -0.01384149  0.60685425  0.79877496  1
  Pd  Pd173  1  0.39714005  0.20658441  0.19431166  1
  Pd  Pd174  1  0.20881048  0.19555033  0.00433985  1
  Pd  Pd175  1  0.60200641  -0.00733322  0.79028131  1
  Pd  Pd176  1  0.39326218  0.59150087  -0.00964582  1
  Pd  Pd177  1  0.19455913  0.40861121  0.00777845  1
  Pd  Pd178  1  -0.01617958  0.40030331  0.39946913  1
  Pd  Pd179  1  0.40367778  0.19549135  0.40592704  1
  Pd  Pd180  1  0.00685555  0.60006965  0.60110985  1
  Pd  Pd181  1  0.01122205  0.40517831  0.60089812  1
  Pd  Pd182  1  0.40098436  0.79620103  0.19114141  1
  Pd  Pd183  1  0.59954342  0.80699915  0.60201963  1
  Pd  Pd184  1  0.39544134  0.40321533  0.39579289  1
  Pd  Pd185  1  -0.00356788  0.80024130  -0.00978344  1
  Pd  Pd186  1  0.79534579  0.80115050  0.20308923  1
  Pd  Pd187  1  0.00624147  0.19501271  0.59372506  1
  Pd  Pd188  1  0.20347253  0.39554518  0.78831056  1
  Pd  Pd189  1  0.19502621  0.20793598  0.40037118  1
  Pd  Pd190  1  0.60901048  0.80677777  0.19343745  1
  Pd  Pd191  1  0.80040304  0.59316075  -0.01434509  1
  Pd  Pd192  1  -0.00048693  0.21035660  -0.00231176  1
  Pd  Pd193  1  0.20280219  0.60710435  0.39643687  1
  Pd  Pd194  1  0.79202169  0.59330662  0.59461356  1
  Pd  Pd195  1  0.60402271  0.60219078  -0.00091751  1
  Pd  Pd196  1  0.79432091  0.20005307  0.60894693  1
  Pd  Pd197  1  0.40269949  0.39715229  -0.00964406  1
  Pd  Pd198  1  0.40849691  0.79643127  0.80379153  1
  Pd  Pd199  1  0.59449649  0.01063697  0.00983235  1
  Rh  Rh200  1  0.59693479  0.60336517  0.59372389  1
  Rh  Rh201  1  0.19552944  -0.00101601  0.80195901  1
  Rh  Rh202  1  0.21622848  -0.00751383  0.39922276  1
  Rh  Rh203  1  0.78786562  0.40550248  0.59256684  1
  Rh  Rh204  1  0.21456191  0.00525221  0.00592423  1
  Rh  Rh205  1  0.79543818  0.79477339  0.40423165  1
  Rh  Rh206  1  0.59657920  0.80667551  0.79368145  1
  Rh  Rh207  1  0.59839674  0.59865540  0.80717090  1
  Rh  Rh208  1  0.00051245  0.59730535  0.20135620  1
  Rh  Rh209  1  0.40804311  0.19745523  0.59528616  1
  Rh  Rh210  1  0.40056489  0.60577341  0.20567328  1
  Rh  Rh211  1  -0.00088338  0.39519878  0.19457662  1
  Rh  Rh212  1  0.60015594  0.39238345  0.01130915  1
  Rh  Rh213  1  0.59428056  0.60503498  0.40730371  1
  Rh  Rh214  1  0.40605540  0.39601742  0.20811707  1
  Rh  Rh215  1  0.20775141  0.39444674  0.39462847  1
  Rh  Rh216  1  0.40778887  0.80982817  0.00097772  1
  Rh  Rh217  1  0.00696876  -0.00347185  0.80227189  1
  Rh  Rh218  1  0.79800425  0.00073011  0.79642112  1
  Rh  Rh219  1  0.80480367  -0.00192822  -0.00091783  1
  Rh  Rh220  1  0.60517617  0.79989028  0.00738566  1
  Rh  Rh221  1  0.40318753  -0.00785042  0.80839949  1
  Rh  Rh222  1  -0.00914915  -0.00398731  0.00267847  1
  Rh  Rh223  1  -0.01198478  0.01256129  0.39946813  1
  Rh  Rh224  1  0.19258916  0.20082618  0.59379926  1
  Rh  Rh225  1  0.39810534  0.39727987  0.60315218  1
  Rh  Rh226  1  0.18300666  0.79421515  0.58933122  1
  Rh  Rh227  1  0.59545702  0.40170204  0.79346480  1
  Rh  Rh228  1  0.39878220  -0.00039623  0.59086184  1
  Rh  Rh229  1  0.20355870  0.40286037  0.20633258  1
  Rh  Rh230  1  0.80913916  0.40049486  -0.00331971  1
  Rh  Rh231  1  0.79488630  0.60014221  0.20910504  1
  Rh  Rh232  1  0.60145095  -0.00908324  0.39438895  1
  Rh  Rh233  1  0.80633774  0.79084065  0.79075650  1
  Rh  Rh234  1  0.60845744  0.80530007  0.40388562  1
  Rh  Rh235  1  0.79535701  -0.00391028  0.60468887  1
  Rh  Rh236  1  0.60289149  0.59628814  0.19360074  1
  Rh  Rh237  1  0.21110814  0.60014075  0.79111825  1
  Rh  Rh238  1  0.79809602  0.19781399  0.80027604  1
  Rh  Rh239  1  -0.01221456  0.59184743  0.39623960  1
  Rh  Rh240  1  0.20116091  0.00458142  0.60127171  1
  Rh  Rh241  1  0.59403474  0.20355946  0.40786864  1
  Rh  Rh242  1  0.79950033  -0.00166322  0.20438047  1
  Rh  Rh243  1  0.40243108  -0.00195429  0.20038659  1
  Rh  Rh244  1  0.79448383  0.40719596  0.80138396  1
  Rh  Rh245  1  0.39683206  0.80195915  0.41058546  1
  Rh  Rh246  1  -0.00291415  0.80680269  0.20715971  1
  Rh  Rh247  1  0.40841156  0.80306197  0.59799124  1
  Rh  Rh248  1  0.19397808  0.19579884  0.80170930  1
  Rh  Rh249  1  0.79229168  0.19742543  0.19855977  1
