# generated using pymatgen
data_ZrScNbPdRh
_symmetry_space_group_name_H-M   'P 1'
_cell_length_a   16.56135295
_cell_length_b   16.55957093
_cell_length_c   16.55883602
_cell_angle_alpha   89.99600822
_cell_angle_beta   90.01773370
_cell_angle_gamma   90.00168389
_symmetry_Int_Tables_number   1
_chemical_formula_structural   ZrScNbPdRh
_chemical_formula_sum   'Zr50 Sc50 Nb50 Pd50 Rh50'
_cell_volume   4541.24231302
_cell_formula_units_Z   50
loop_
 _symmetry_equiv_pos_site_id
 _symmetry_equiv_pos_as_xyz
  1  'x, y, z'
loop_
 _atom_site_type_symbol
 _atom_site_label
 _atom_site_symmetry_multiplicity
 _atom_site_fract_x
 _atom_site_fract_y
 _atom_site_fract_z
 _atom_site_occupancy
  Zr  Zr0  1  0.69259121  0.90106166  0.10326277  1
  Zr  Zr1  1  0.09309856  0.30477281  0.69967936  1
  Zr  Zr2  1  0.28943318  0.09432786  0.10221466  1
  Zr  Zr3  1  0.10429750  0.10621402  0.09905294  1
  Zr  Zr4  1  0.30233338  0.09606447  0.49083740  1
  Zr  Zr5  1  0.89722403  0.50477892  0.50258504  1
  Zr  Zr6  1  0.69284597  0.09413184  0.90863795  1
  Zr  Zr7  1  0.09613337  0.69537958  0.10104450  1
  Zr  Zr8  1  0.50255501  0.50313085  0.29559881  1
  Zr  Zr9  1  0.10229569  0.31033289  0.90140188  1
  Zr  Zr10  1  0.49946866  0.29190227  0.29859386  1
  Zr  Zr11  1  0.49500526  0.29712668  0.69152237  1
  Zr  Zr12  1  0.89955204  0.09755745  0.89277362  1
  Zr  Zr13  1  0.50734309  0.50853517  0.49517937  1
  Zr  Zr14  1  0.89401748  0.49266249  0.69880325  1
  Zr  Zr15  1  0.30280918  0.70898920  0.49502963  1
  Zr  Zr16  1  0.89595574  0.70051629  0.49424506  1
  Zr  Zr17  1  0.88936212  0.90692950  0.10154344  1
  Zr  Zr18  1  0.89533801  0.68916734  0.09956427  1
  Zr  Zr19  1  0.69834297  0.09351714  0.10246710  1
  Zr  Zr20  1  0.30298417  0.30140921  0.30024223  1
  Zr  Zr21  1  0.49799237  0.29507242  0.90922633  1
  Zr  Zr22  1  0.69600626  0.30349295  0.49671579  1
  Zr  Zr23  1  0.30925395  0.09709053  0.90254835  1
  Zr  Zr24  1  0.29508672  0.89829976  0.69828975  1
  Zr  Zr25  1  0.69432512  0.69882733  0.09987560  1
  Zr  Zr26  1  0.50120960  0.70187387  0.69734379  1
  Zr  Zr27  1  0.30509137  0.10630533  0.29556546  1
  Zr  Zr28  1  0.69867486  0.70336391  0.90371928  1
  Zr  Zr29  1  0.89506005  0.09116678  0.49948944  1
  Zr  Zr30  1  0.29935977  0.09882892  0.69862523  1
  Zr  Zr31  1  0.90151801  0.30495678  0.89171913  1
  Zr  Zr32  1  0.29970942  0.30395215  0.90748265  1
  Zr  Zr33  1  0.69048186  0.89790637  0.29919605  1
  Zr  Zr34  1  0.30480046  0.29371176  0.10224869  1
  Zr  Zr35  1  0.31326173  0.50047584  0.09988225  1
  Zr  Zr36  1  0.89925954  0.10214788  0.09902302  1
  Zr  Zr37  1  0.49538962  0.09886070  0.70649931  1
  Zr  Zr38  1  0.30544782  0.89641254  0.10251802  1
  Zr  Zr39  1  0.11121619  0.09937311  0.29592688  1
  Zr  Zr40  1  0.11237263  0.90284251  0.09609174  1
  Zr  Zr41  1  0.08402731  0.49950647  0.09841797  1
  Zr  Zr42  1  0.90425788  0.31159214  0.10004676  1
  Zr  Zr43  1  0.90183286  0.09858258  0.70242534  1
  Zr  Zr44  1  0.10684704  0.50526994  0.30132468  1
  Zr  Zr45  1  0.10066336  0.30379910  0.49592570  1
  Zr  Zr46  1  0.29978952  0.29807217  0.49732342  1
  Zr  Zr47  1  0.10140885  0.09370527  0.70222565  1
  Zr  Zr48  1  0.49637738  0.70287897  0.49940405  1
  Zr  Zr49  1  0.30964312  0.89486966  0.50011061  1
  Sc  Sc50  1  0.30214421  0.50314111  0.49278215  1
  Sc  Sc51  1  0.29315620  0.50640464  0.70514122  1
  Sc  Sc52  1  0.11859258  0.89166635  0.49598566  1
  Sc  Sc53  1  0.90665131  0.31000873  0.29528605  1
  Sc  Sc54  1  0.70654213  0.49570371  0.90317218  1
  Sc  Sc55  1  0.50498130  0.89879576  0.70941911  1
  Sc  Sc56  1  0.70607743  0.09902258  0.70126657  1
  Sc  Sc57  1  0.50590415  0.10238819  0.10042164  1
  Sc  Sc58  1  0.10028727  0.69970748  0.70838915  1
  Sc  Sc59  1  0.89326049  0.09152167  0.29662824  1
  Sc  Sc60  1  0.09715619  0.50647195  0.70808580  1
  Sc  Sc61  1  0.88407025  0.89773259  0.50338589  1
  Sc  Sc62  1  0.88577092  0.89635967  0.30833666  1
  Sc  Sc63  1  0.89287598  0.50705226  0.29991691  1
  Sc  Sc64  1  0.31228669  0.90345010  0.30081553  1
  Sc  Sc65  1  0.11622986  0.10228006  0.50060970  1
  Sc  Sc66  1  0.49038905  0.50952517  0.69341847  1
  Sc  Sc67  1  0.49586474  0.50023697  0.91508825  1
  Sc  Sc68  1  0.49886715  0.29542202  0.49522694  1
  Sc  Sc69  1  0.30465552  0.69835828  0.69575680  1
  Sc  Sc70  1  0.29883977  0.90074464  0.91151200  1
  Sc  Sc71  1  0.69503474  0.30683616  0.91064600  1
  Sc  Sc72  1  0.10435139  0.89397521  0.89067591  1
  Sc  Sc73  1  0.69984495  0.89842900  0.49327414  1
  Sc  Sc74  1  0.30259175  0.49799925  0.29572975  1
  Sc  Sc75  1  0.68742509  0.30597673  0.29990678  1
  Sc  Sc76  1  0.30834623  0.70204157  0.10015361  1
  Sc  Sc77  1  0.69494349  0.70345998  0.69235795  1
  Sc  Sc78  1  0.90849548  0.31617778  0.50637718  1
  Sc  Sc79  1  0.69562440  0.50081563  0.30735932  1
  Sc  Sc80  1  0.29656465  0.49498032  0.90022703  1
  Sc  Sc81  1  0.50768719  0.30217993  0.09998560  1
  Sc  Sc82  1  0.90545256  0.69123289  0.70456485  1
  Sc  Sc83  1  0.49841647  0.89406740  0.48063146  1
  Sc  Sc84  1  0.69719843  0.70223867  0.50110702  1
  Sc  Sc85  1  0.70395268  0.89415104  0.69006382  1
  Sc  Sc86  1  0.69710397  0.09789156  0.49365467  1
  Sc  Sc87  1  0.50150854  0.09749580  0.30286829  1
  Sc  Sc88  1  0.09024808  0.69980430  0.89658718  1
  Sc  Sc89  1  0.90231359  0.50510487  0.90015526  1
  Sc  Sc90  1  0.10381231  0.30708462  0.29655504  1
  Sc  Sc91  1  0.90221299  0.90306210  0.89315132  1
  Sc  Sc92  1  0.69097325  0.09523620  0.30067051  1
  Sc  Sc93  1  0.29638592  0.70306143  0.90473661  1
  Sc  Sc94  1  0.68827088  0.89887334  0.90836380  1
  Sc  Sc95  1  0.89731133  0.90376708  0.70221316  1
  Sc  Sc96  1  0.70532879  0.30284073  0.70028902  1
  Sc  Sc97  1  0.10158856  0.69586186  0.48781771  1
  Sc  Sc98  1  0.09608784  0.29996804  0.09936229  1
  Sc  Sc99  1  0.50511154  0.69891374  0.29271122  1
  Nb  Nb100  1  0.29817413  0.30312599  0.70151677  1
  Nb  Nb101  1  0.50212018  0.89585834  0.29248494  1
  Nb  Nb102  1  0.10055399  0.49923290  0.90039971  1
  Nb  Nb103  1  0.50582742  0.51666421  0.10476158  1
  Nb  Nb104  1  0.09750598  0.89477155  0.29912954  1
  Nb  Nb105  1  0.49858392  0.88287383  0.11138137  1
  Nb  Nb106  1  0.69618541  0.50196969  0.69775933  1
  Nb  Nb107  1  0.09956706  0.70584956  0.30035703  1
  Nb  Nb108  1  0.70250530  0.49873998  0.50487943  1
  Nb  Nb109  1  0.50182621  0.69028519  0.09837536  1
  Nb  Nb110  1  0.70041831  0.48774722  0.09918941  1
  Nb  Nb111  1  0.50284342  0.10067119  0.49980769  1
  Nb  Nb112  1  0.29438144  0.69863423  0.29873943  1
  Nb  Nb113  1  0.89509986  0.49741393  0.09990643  1
  Nb  Nb114  1  0.50845891  0.70649987  0.89986061  1
  Nb  Nb115  1  0.89997162  0.70305673  0.90033260  1
  Nb  Nb116  1  0.09843495  0.49406554  0.50228426  1
  Nb  Nb117  1  0.09747623  0.89807949  0.69784725  1
  Nb  Nb118  1  0.70115183  0.29844885  0.09797428  1
  Nb  Nb119  1  0.70959670  0.70052339  0.29957051  1
  Nb  Nb120  1  0.50355873  0.09042725  0.89702322  1
  Nb  Nb121  1  0.10346492  0.10289887  0.90131414  1
  Nb  Nb122  1  0.89735271  0.70130636  0.30343304  1
  Nb  Nb123  1  0.50007636  0.90618614  0.90247666  1
  Nb  Nb124  1  0.90202998  0.29793927  0.69679042  1
  Nb  Nb125  1  0.79939597  0.20314113  0.00375796  1
  Nb  Nb126  1  0.80767786  0.20503531  0.59667752  1
  Nb  Nb127  1  0.59471654  0.20098153  0.80443152  1
  Nb  Nb128  1  -0.00175869  0.79909834  0.20402814  1
  Nb  Nb129  1  0.00859821  -0.00739117  0.59473054  1
  Nb  Nb130  1  0.79536959  0.20623653  0.19823926  1
  Nb  Nb131  1  0.79944900  0.79382920  0.80428063  1
  Nb  Nb132  1  -0.00499185  0.80316189  0.00677093  1
  Nb  Nb133  1  0.00599437  -0.00257746  0.40024052  1
  Nb  Nb134  1  0.40604437  -0.00041756  0.59721599  1
  Nb  Nb135  1  0.60142180  0.40724257  0.60122226  1
  Nb  Nb136  1  0.80530627  0.20564231  0.39889120  1
  Nb  Nb137  1  0.19301823  0.59503846  0.00149953  1
  Nb  Nb138  1  0.40255041  0.39649121  0.79792097  1
  Nb  Nb139  1  0.20179940  0.20310712  0.80262554  1
  Nb  Nb140  1  0.40712703  0.80035180  0.80779805  1
  Nb  Nb141  1  0.00505065  -0.00762170  0.20120830  1
  Nb  Nb142  1  0.19808742  0.40185526  0.59923040  1
  Nb  Nb143  1  0.00552390  0.00058429  0.00047912  1
  Nb  Nb144  1  0.00267077  0.80403912  0.59996286  1
  Nb  Nb145  1  0.19669064  0.79790959  0.20616108  1
  Nb  Nb146  1  0.59151386  0.00347286  0.59555323  1
  Nb  Nb147  1  -0.00310133  0.19348904  0.40042534  1
  Nb  Nb148  1  0.59901109  0.59656198  0.80054693  1
  Nb  Nb149  1  0.59204131  0.40295472  0.79467497  1
  Pd  Pd150  1  0.40742635  -0.00158600  0.01215805  1
  Pd  Pd151  1  0.39149892  0.59839265  0.59507793  1
  Pd  Pd152  1  0.39864754  0.60536595  0.39073680  1
  Pd  Pd153  1  0.79448967  0.39894431  0.20746172  1
  Pd  Pd154  1  0.20273647  0.59814342  0.40265954  1
  Pd  Pd155  1  0.80218621  0.39716208  0.39684235  1
  Pd  Pd156  1  0.40346590  0.19114096  0.00782931  1
  Pd  Pd157  1  -0.00558007  0.60091994  0.21095277  1
  Pd  Pd158  1  0.78722685  -0.01355742  0.80380563  1
  Pd  Pd159  1  0.00584446  0.60660391  0.60040508  1
  Pd  Pd160  1  0.00804706  0.20185313  0.80340297  1
  Pd  Pd161  1  0.39532363  0.19399166  0.59332173  1
  Pd  Pd162  1  0.79268892  0.60559849  0.79831472  1
  Pd  Pd163  1  0.20350508  -0.00905933  0.39339935  1
  Pd  Pd164  1  0.79113844  0.59326263  0.19990660  1
  Pd  Pd165  1  -0.00059191  0.59600279  0.39511181  1
  Pd  Pd166  1  0.40738978  0.00570950  0.19610019  1
  Pd  Pd167  1  -0.00460618  0.19964131  -0.00767732  1
  Pd  Pd168  1  0.60926485  -0.00115412  0.79102197  1
  Pd  Pd169  1  0.40594149  0.60092125  0.81118043  1
  Pd  Pd170  1  0.39498476  0.40952934  0.60106361  1
  Pd  Pd171  1  0.20594269  0.60288755  0.19194480  1
  Pd  Pd172  1  0.41174801  0.39948106  0.19511851  1
  Pd  Pd173  1  0.19959264  0.60582344  0.80994682  1
  Pd  Pd174  1  -0.00539870  0.19459479  0.21046319  1
  Pd  Pd175  1  0.40581887  0.40154601  0.39991723  1
  Pd  Pd176  1  0.19993648  0.20686186  0.60592455  1
  Pd  Pd177  1  0.20777201  0.79449857  0.80011242  1
  Pd  Pd178  1  0.79696231  0.59308032  0.00079230  1
  Pd  Pd179  1  0.19962510  0.40731476  0.01295976  1
  Pd  Pd180  1  0.79360483  0.39806562  0.80061784  1
  Pd  Pd181  1  0.19726753  0.59826587  0.59469170  1
  Pd  Pd182  1  0.40914607  0.79782369  -0.00414154  1
  Pd  Pd183  1  0.20216345  0.00080427  0.80698656  1
  Pd  Pd184  1  0.19821909  0.40050762  0.19189855  1
  Pd  Pd185  1  -0.00578847  0.80908367  0.40546100  1
  Pd  Pd186  1  0.80421076  0.80701466  -0.00596202  1
  Pd  Pd187  1  0.60817244  0.59206483  -0.00505490  1
  Pd  Pd188  1  0.19256567  0.78757472  0.60265721  1
  Pd  Pd189  1  0.39841334  0.20594092  0.80393126  1
  Pd  Pd190  1  -0.00268253  0.19058626  0.59016025  1
  Pd  Pd191  1  0.60773531  0.60923826  0.39741513  1
  Pd  Pd192  1  -0.00121987  0.40483688  0.39348247  1
  Pd  Pd193  1  0.59639178  0.40290112  0.19621545  1
  Pd  Pd194  1  0.61058385  0.19876595  0.60593876  1
  Pd  Pd195  1  0.59178221  0.81341661  0.59186975  1
  Pd  Pd196  1  0.39360941  0.60421858  -0.00827529  1
  Pd  Pd197  1  0.78931997  0.20636369  0.80360724  1
  Pd  Pd198  1  0.79610690  0.60615437  0.60060183  1
  Pd  Pd199  1  0.80131544  0.79932131  0.20076010  1
  Rh  Rh200  1  0.39895120  0.60415524  0.20511262  1
  Rh  Rh201  1  0.40216838  0.79163253  0.38585043  1
  Rh  Rh202  1  0.79200361  0.00741179  0.59955963  1
  Rh  Rh203  1  0.59314089  0.40203303  0.40696440  1
  Rh  Rh204  1  -0.00234654  0.59486205  0.80420988  1
  Rh  Rh205  1  0.60325878  0.19763461  0.39655165  1
  Rh  Rh206  1  0.19608337  0.20836934  0.39151239  1
  Rh  Rh207  1  0.60355366  0.19766395  -0.00405047  1
  Rh  Rh208  1  0.40759990  0.00296545  0.40021001  1
  Rh  Rh209  1  0.20368806  -0.01126280  0.20834675  1
  Rh  Rh210  1  0.20356740  -0.00399723  0.59726361  1
  Rh  Rh211  1  0.20222470  0.40493084  0.40523205  1
  Rh  Rh212  1  0.80650844  0.39902291  -0.00001079  1
  Rh  Rh213  1  0.20018160  0.21196247  0.20102729  1
  Rh  Rh214  1  0.60251861  0.59656036  0.60165760  1
  Rh  Rh215  1  0.59528663  -0.00321789  0.40147110  1
  Rh  Rh216  1  0.19100490  0.78764551  0.00489669  1
  Rh  Rh217  1  -0.00053842  0.60157041  -0.00726578  1
  Rh  Rh218  1  0.40827122  0.81020368  0.61047010  1
  Rh  Rh219  1  0.20107747  0.20074626  -0.00546420  1
  Rh  Rh220  1  0.40405104  0.19628307  0.19562004  1
  Rh  Rh221  1  0.00014415  0.41205071  0.20680846  1
  Rh  Rh222  1  0.58562093  -0.00989486  0.01219394  1
  Rh  Rh223  1  0.79452991  0.60200523  0.40281662  1
  Rh  Rh224  1  0.60357760  0.79673212  0.80210918  1
  Rh  Rh225  1  0.59178390  0.80322018  0.00715290  1
  Rh  Rh226  1  0.79371364  0.00271748  0.39500226  1
  Rh  Rh227  1  0.21066114  0.80301999  0.39096201  1
  Rh  Rh228  1  -0.00505458  0.40433475  -0.00512269  1
  Rh  Rh229  1  0.39437257  -0.01326524  0.79705221  1
  Rh  Rh230  1  0.60102743  0.79354804  0.39345180  1
  Rh  Rh231  1  0.39674897  0.78962981  0.20431342  1
  Rh  Rh232  1  0.80550439  0.00341221  -0.00908734  1
  Rh  Rh233  1  0.59555004  0.40705329  0.00451908  1
  Rh  Rh234  1  0.40602128  0.40221393  0.00566789  1
  Rh  Rh235  1  0.79204258  0.79520272  0.39977180  1
  Rh  Rh236  1  -0.00332977  0.40663232  0.79754407  1
  Rh  Rh237  1  0.59106019  -0.00299753  0.19967788  1
  Rh  Rh238  1  0.00881487  -0.00323110  0.80145758  1
  Rh  Rh239  1  0.60155517  0.79011796  0.20056024  1
  Rh  Rh240  1  0.40264204  0.19750454  0.39970112  1
  Rh  Rh241  1  0.79460949  0.39577764  0.60009202  1
  Rh  Rh242  1  0.79519967  0.00258254  0.20638169  1
  Rh  Rh243  1  0.19681861  0.00362799  -0.00922030  1
  Rh  Rh244  1  0.00586804  0.41107699  0.60733905  1
  Rh  Rh245  1  0.61088867  0.59883011  0.20074024  1
  Rh  Rh246  1  0.81472060  0.78906766  0.61172056  1
  Rh  Rh247  1  -0.00971872  0.80179616  0.79698277  1
  Rh  Rh248  1  0.20452108  0.39746617  0.79304315  1
  Rh  Rh249  1  0.60539250  0.19897646  0.20160757  1
