# generated using pymatgen
data_ZrScNbPdRh
_symmetry_space_group_name_H-M   'P 1'
_cell_length_a   16.56084204
_cell_length_b   16.55991019
_cell_length_c   16.55947200
_cell_angle_alpha   89.99285673
_cell_angle_beta   89.97404162
_cell_angle_gamma   89.99714622
_symmetry_Int_Tables_number   1
_chemical_formula_structural   ZrScNbPdRh
_chemical_formula_sum   'Zr50 Sc50 Nb50 Pd50 Rh50'
_cell_volume   4541.36939131
_cell_formula_units_Z   50
loop_
 _symmetry_equiv_pos_site_id
 _symmetry_equiv_pos_as_xyz
  1  'x, y, z'
loop_
 _atom_site_type_symbol
 _atom_site_label
 _atom_site_symmetry_multiplicity
 _atom_site_fract_x
 _atom_site_fract_y
 _atom_site_fract_z
 _atom_site_occupancy
  Zr  Zr0  1  0.49810538  0.09018460  0.70626697  1
  Zr  Zr1  1  0.51495962  0.50336583  0.50731944  1
  Zr  Zr2  1  0.09604980  0.70337884  0.69695825  1
  Zr  Zr3  1  0.09850503  0.69621422  0.10283726  1
  Zr  Zr4  1  0.70332000  0.29630543  0.89886119  1
  Zr  Zr5  1  0.90028800  0.70066339  0.30719909  1
  Zr  Zr6  1  0.09747092  0.30754910  0.09802541  1
  Zr  Zr7  1  0.89957740  0.50052470  0.10098643  1
  Zr  Zr8  1  0.70078633  0.29788088  0.50152728  1
  Zr  Zr9  1  0.10238652  0.90539982  0.89827210  1
  Zr  Zr10  1  0.30501386  0.29863271  0.68660064  1
  Zr  Zr11  1  0.70226946  0.89228896  0.29501434  1
  Zr  Zr12  1  0.89663727  0.50540108  0.70497125  1
  Zr  Zr13  1  0.29908945  0.29708405  0.89871744  1
  Zr  Zr14  1  0.09584351  0.49755283  0.50146918  1
  Zr  Zr15  1  0.49604413  0.89870972  0.50159559  1
  Zr  Zr16  1  0.69977855  0.68529194  0.50418589  1
  Zr  Zr17  1  0.89974420  0.90433293  0.89314306  1
  Zr  Zr18  1  0.30580153  0.69474206  0.89936166  1
  Zr  Zr19  1  0.31285739  0.90351677  0.69752107  1
  Zr  Zr20  1  0.10024557  0.49879552  0.30744229  1
  Zr  Zr21  1  0.29887757  0.10400698  0.51386213  1
  Zr  Zr22  1  0.89324546  0.49529775  0.30467939  1
  Zr  Zr23  1  0.29883822  0.09484246  0.89953277  1
  Zr  Zr24  1  0.89162842  0.69468505  0.09797491  1
  Zr  Zr25  1  0.49103863  0.70038300  0.30035917  1
  Zr  Zr26  1  0.69086037  0.69753980  0.30281517  1
  Zr  Zr27  1  0.49942799  0.10177211  0.09942187  1
  Zr  Zr28  1  0.09660665  0.09617233  0.88623905  1
  Zr  Zr29  1  0.10028720  0.29526385  0.29681605  1
  Zr  Zr30  1  0.09480207  0.49829658  0.70158125  1
  Zr  Zr31  1  0.09707569  0.89587823  0.30504328  1
  Zr  Zr32  1  0.69959575  0.50657082  0.10743017  1
  Zr  Zr33  1  0.89721415  0.09232754  0.49941276  1
  Zr  Zr34  1  0.30252344  0.49826516  0.91164463  1
  Zr  Zr35  1  0.69704641  0.70776143  0.09665382  1
  Zr  Zr36  1  0.49939764  0.50131165  0.09603861  1
  Zr  Zr37  1  0.49986251  0.09989227  0.90534615  1
  Zr  Zr38  1  0.29792766  0.48510932  0.49947342  1
  Zr  Zr39  1  0.10250906  0.09542965  0.50459822  1
  Zr  Zr40  1  0.49217433  0.30354301  0.50309802  1
  Zr  Zr41  1  0.09546968  0.70323891  0.49834382  1
  Zr  Zr42  1  0.09877474  0.69506143  0.90043573  1
  Zr  Zr43  1  0.87772037  0.90480504  0.09892661  1
  Zr  Zr44  1  0.50614463  0.30079631  0.90362302  1
  Zr  Zr45  1  0.50200167  0.10179888  0.29737674  1
  Zr  Zr46  1  0.90364474  0.49823538  0.89285866  1
  Zr  Zr47  1  0.70420196  0.30385914  0.29827878  1
  Zr  Zr48  1  0.50445371  0.29442497  0.30016818  1
  Zr  Zr49  1  0.90187291  0.10233672  0.30276514  1
  Sc  Sc50  1  0.70547766  0.89220119  0.70598827  1
  Sc  Sc51  1  0.09803509  0.10587065  0.30407170  1
  Sc  Sc52  1  0.89739515  0.30507757  0.71168433  1
  Sc  Sc53  1  0.30618655  0.70655428  0.69808741  1
  Sc  Sc54  1  0.29943438  0.69812591  0.50426341  1
  Sc  Sc55  1  0.09400355  0.29627583  0.70251257  1
  Sc  Sc56  1  0.29158564  0.69318570  0.10598120  1
  Sc  Sc57  1  0.69703294  0.09996626  0.90226356  1
  Sc  Sc58  1  0.69700084  0.50244202  0.68224627  1
  Sc  Sc59  1  0.49666732  0.50097281  0.90493205  1
  Sc  Sc60  1  0.30636271  0.09729979  0.09301389  1
  Sc  Sc61  1  0.69996345  0.29701268  0.69928104  1
  Sc  Sc62  1  0.10311274  0.69341076  0.29688525  1
  Sc  Sc63  1  0.70822551  0.89241793  0.49718589  1
  Sc  Sc64  1  0.70180280  0.90048915  0.90977398  1
  Sc  Sc65  1  0.70463191  0.11268453  0.30650974  1
  Sc  Sc66  1  0.89222845  0.69671843  0.88696227  1
  Sc  Sc67  1  0.09301215  0.90233671  0.50519134  1
  Sc  Sc68  1  0.89861559  0.11097852  0.90078791  1
  Sc  Sc69  1  0.50176561  0.48840445  0.70013685  1
  Sc  Sc70  1  0.50065450  0.70071080  0.90270906  1
  Sc  Sc71  1  0.49960017  0.50924366  0.29763243  1
  Sc  Sc72  1  0.09340677  0.90772502  0.70060081  1
  Sc  Sc73  1  0.69985407  0.70720196  0.90085229  1
  Sc  Sc74  1  0.71436654  0.69922855  0.69897077  1
  Sc  Sc75  1  0.09616684  0.49558342  0.90584972  1
  Sc  Sc76  1  0.11334479  0.89096019  0.09820225  1
  Sc  Sc77  1  0.29725686  0.09943474  0.70119986  1
  Sc  Sc78  1  0.30969480  0.88489965  0.28641502  1
  Sc  Sc79  1  0.29193702  0.29526467  0.09327122  1
  Sc  Sc80  1  0.10154622  0.11578975  0.11169736  1
  Sc  Sc81  1  0.69908800  0.30127338  0.10466975  1
  Sc  Sc82  1  0.50214652  0.88626506  0.29814201  1
  Sc  Sc83  1  0.50978704  0.90340281  0.89613717  1
  Sc  Sc84  1  0.30084534  0.89992654  0.51202033  1
  Sc  Sc85  1  0.90273093  0.29610848  0.10272174  1
  Sc  Sc86  1  0.70936085  0.09629485  0.09365790  1
  Sc  Sc87  1  0.50492792  0.69637060  0.09542900  1
  Sc  Sc88  1  0.50260066  0.11008673  0.49968956  1
  Sc  Sc89  1  0.50358369  0.29899179  0.70111234  1
  Sc  Sc90  1  0.09280357  0.29782526  0.90029303  1
  Sc  Sc91  1  0.70857342  0.10776948  0.50253301  1
  Sc  Sc92  1  0.49800882  0.90266361  0.09782264  1
  Sc  Sc93  1  0.50345315  0.69733895  0.49128792  1
  Sc  Sc94  1  0.10045346  0.50339327  0.09507118  1
  Sc  Sc95  1  0.69725309  0.50670045  0.89764486  1
  Sc  Sc96  1  0.10512338  0.30196266  0.49437351  1
  Sc  Sc97  1  0.10057182  0.09709529  0.69850182  1
  Sc  Sc98  1  0.30238627  0.11476967  0.28896808  1
  Sc  Sc99  1  0.89351495  0.10725865  0.10048522  1
  Nb  Nb100  1  0.90255441  0.90180297  0.30661645  1
  Nb  Nb101  1  0.30032173  0.49960664  0.10214286  1
  Nb  Nb102  1  0.30117515  0.31172345  0.30933859  1
  Nb  Nb103  1  0.50114479  0.89564333  0.69445098  1
  Nb  Nb104  1  0.69422205  0.89998093  0.09848990  1
  Nb  Nb105  1  0.89873438  0.30406118  0.90248098  1
  Nb  Nb106  1  0.90257016  0.29809254  0.30375324  1
  Nb  Nb107  1  0.89858087  0.70417934  0.69618450  1
  Nb  Nb108  1  0.89320380  0.49816641  0.49924738  1
  Nb  Nb109  1  0.89962465  0.09808347  0.69231009  1
  Nb  Nb110  1  0.89816621  0.30396159  0.49655315  1
  Nb  Nb111  1  0.90149053  0.89602332  0.69220118  1
  Nb  Nb112  1  0.29034967  0.90611420  0.91012591  1
  Nb  Nb113  1  0.49576880  0.70531329  0.70305056  1
  Nb  Nb114  1  0.29823941  0.69119588  0.29726004  1
  Nb  Nb115  1  0.29827678  0.49882177  0.69882802  1
  Nb  Nb116  1  0.30282453  0.29830045  0.49755706  1
  Nb  Nb117  1  0.70690042  0.49746208  0.49205498  1
  Nb  Nb118  1  0.50850259  0.30801137  0.10839109  1
  Nb  Nb119  1  0.29817393  0.90151932  0.09472372  1
  Nb  Nb120  1  0.90669930  0.89408050  0.49164284  1
  Nb  Nb121  1  0.30006424  0.50579194  0.29601283  1
  Nb  Nb122  1  0.70320538  0.49935841  0.30271171  1
  Nb  Nb123  1  0.70855396  0.09856498  0.69265032  1
  Nb  Nb124  1  0.89662741  0.70391139  0.50729326  1
  Nb  Nb125  1  0.39795493  0.00136093  0.39695779  1
  Nb  Nb126  1  0.20436175  0.59720993  0.79667011  1
  Nb  Nb127  1  0.38990198  0.80671417  -0.00119831  1
  Nb  Nb128  1  0.80294234  0.40017274  -0.00313608  1
  Nb  Nb129  1  0.20600569  0.40400203  0.79803627  1
  Nb  Nb130  1  0.40177165  0.59437693  0.60495088  1
  Nb  Nb131  1  0.20090280  -0.00460694  0.20365889  1
  Nb  Nb132  1  -0.00930763  0.19938830  0.59724372  1
  Nb  Nb133  1  0.21056926  -0.00426594  0.39404294  1
  Nb  Nb134  1  0.59716306  0.79922831  0.60461924  1
  Nb  Nb135  1  0.59819154  -0.00106817  0.39958395  1
  Nb  Nb136  1  0.00023000  -0.00321543  0.00759576  1
  Nb  Nb137  1  0.20415291  0.80188517  0.80316442  1
  Nb  Nb138  1  0.60478450  -0.00177424  0.20280511  1
  Nb  Nb139  1  0.20299982  0.80038797  0.39705006  1
  Nb  Nb140  1  0.39540003  0.40092211  0.20092947  1
  Nb  Nb141  1  -0.00811267  0.80588136  0.19699510  1
  Nb  Nb142  1  0.20759239  0.40313677  0.20464720  1
  Nb  Nb143  1  0.59570701  0.60530502  0.79143125  1
  Nb  Nb144  1  0.80396822  0.00496516  0.79008260  1
  Nb  Nb145  1  -0.00085246  -0.00788799  0.19792358  1
  Nb  Nb146  1  -0.00558465  0.80369026  0.00337367  1
  Nb  Nb147  1  0.60299203  -0.00455391  0.60113620  1
  Nb  Nb148  1  0.60658554  0.40351786  0.39935443  1
  Nb  Nb149  1  -0.00929920  0.60101337  0.59711652  1
  Pd  Pd150  1  0.38911957  0.80194421  0.40586390  1
  Pd  Pd151  1  -0.00615572  0.60445804  -0.00489046  1
  Pd  Pd152  1  0.39768234  0.39803619  0.79953418  1
  Pd  Pd153  1  0.80201406  0.39615255  0.60375893  1
  Pd  Pd154  1  0.20078258  0.79017538  -0.00401772  1
  Pd  Pd155  1  0.40116553  0.38958327  0.00889727  1
  Pd  Pd156  1  0.00438792  0.40250851  0.20305290  1
  Pd  Pd157  1  0.00269313  0.19385951  0.00000731  1
  Pd  Pd158  1  0.61081607  0.40361659  -0.00111664  1
  Pd  Pd159  1  0.61138975  0.18984741  0.19255972  1
  Pd  Pd160  1  0.60511853  0.79477803  0.79630392  1
  Pd  Pd161  1  0.39477007  0.59331873  0.41100962  1
  Pd  Pd162  1  0.79553256  0.59622925  -0.00701409  1
  Pd  Pd163  1  0.39463246  0.21392991  0.19104744  1
  Pd  Pd164  1  0.20747399  0.19424843  0.40094231  1
  Pd  Pd165  1  -0.00765463  0.59892230  0.40714760  1
  Pd  Pd166  1  0.19952401  0.20673852  0.79494877  1
  Pd  Pd167  1  0.19167499  0.19381066  -0.00498176  1
  Pd  Pd168  1  0.41183277  0.41005941  0.39470724  1
  Pd  Pd169  1  0.61281079  -0.00057813  0.79301462  1
  Pd  Pd170  1  0.59809434  0.60210998  0.20118851  1
  Pd  Pd171  1  -0.00190076  0.60022550  0.20405518  1
  Pd  Pd172  1  0.40412848  0.20863503  0.00532092  1
  Pd  Pd173  1  0.78784444  0.40730988  0.80104697  1
  Pd  Pd174  1  0.00252498  0.79920945  0.80295978  1
  Pd  Pd175  1  -0.00683716  0.39640571  0.59923459  1
  Pd  Pd176  1  0.19379243  0.39072366  0.60429746  1
  Pd  Pd177  1  0.40163060  0.78954865  0.18417654  1
  Pd  Pd178  1  0.80203949  0.19422319  0.79690961  1
  Pd  Pd179  1  0.20562624  0.60377462  0.40538942  1
  Pd  Pd180  1  0.39986089  -0.00208741  0.20456444  1
  Pd  Pd181  1  0.39675978  0.81138318  0.81200472  1
  Pd  Pd182  1  0.39385457  0.19399421  0.40206636  1
  Pd  Pd183  1  0.80393646  0.39622688  0.19329543  1
  Pd  Pd184  1  0.79612289  0.79250528  0.40386955  1
  Pd  Pd185  1  0.79574165  0.00792394  0.20953605  1
  Pd  Pd186  1  0.20131341  0.60163833  0.60287184  1
  Pd  Pd187  1  0.18779070  0.01491485  0.01293497  1
  Pd  Pd188  1  -0.00175662  0.20173864  0.40989328  1
  Pd  Pd189  1  0.60647242  0.40755923  0.79970876  1
  Pd  Pd190  1  0.60524465  0.19990881  0.00829513  1
  Pd  Pd191  1  0.60265524  0.19477171  0.79617426  1
  Pd  Pd192  1  0.59666592  0.19421236  0.60556206  1
  Pd  Pd193  1  0.79659921  -0.01261814  0.59942177  1
  Pd  Pd194  1  0.39876226  -0.00730198  0.80922940  1
  Pd  Pd195  1  0.19712846  0.80823858  0.60291697  1
  Pd  Pd196  1  0.40201702  0.20105758  0.79679393  1
  Pd  Pd197  1  0.40410143  0.59234501  0.79313864  1
  Pd  Pd198  1  0.79128185  0.00005423  0.39750182  1
  Pd  Pd199  1  0.80147424  0.79337874  0.20351083  1
  Rh  Rh200  1  0.00286305  0.79527331  0.39859770  1
  Rh  Rh201  1  -0.00454601  0.80066006  0.59838952  1
  Rh  Rh202  1  0.60480578  0.39311139  0.59397744  1
  Rh  Rh203  1  0.19779493  0.79924478  0.20679193  1
  Rh  Rh204  1  -0.00762627  0.19829961  0.79175076  1
  Rh  Rh205  1  0.79609914  0.60454365  0.20787634  1
  Rh  Rh206  1  0.80470107  0.80683698  0.80038689  1
  Rh  Rh207  1  0.80135377  0.20339133  0.20078071  1
  Rh  Rh208  1  0.80511768  0.00558063  -0.01363566  1
  Rh  Rh209  1  0.39985574  0.59957949  0.19403246  1
  Rh  Rh210  1  0.80815119  0.59594962  0.59740339  1
  Rh  Rh211  1  0.41044205  0.00981674  0.59362007  1
  Rh  Rh212  1  0.40601224  0.19645430  0.60529293  1
  Rh  Rh213  1  0.40625799  -0.00723926  -0.00618126  1
  Rh  Rh214  1  0.79980594  0.80372910  0.59590893  1
  Rh  Rh215  1  0.59228815  0.40687023  0.20994433  1
  Rh  Rh216  1  0.00726187  0.39636158  0.80484516  1
  Rh  Rh217  1  0.19604544  0.59090380  0.19954078  1
  Rh  Rh218  1  -0.00296631  0.39769599  0.39993582  1
  Rh  Rh219  1  0.59502893  0.80343313  0.19264859  1
  Rh  Rh220  1  0.20855168  -0.00794214  0.78899497  1
  Rh  Rh221  1  0.80252445  0.60370046  0.39947057  1
  Rh  Rh222  1  0.79881353  0.39474273  0.40048597  1
  Rh  Rh223  1  0.40862880  0.78666137  0.59154766  1
  Rh  Rh224  1  0.60495090  0.80211276  0.40937970  1
  Rh  Rh225  1  0.20571907  0.20842343  0.20163548  1
  Rh  Rh226  1  -0.01172704  0.00724401  0.79873198  1
  Rh  Rh227  1  0.79782049  0.21052120  0.00096935  1
  Rh  Rh228  1  0.78975966  0.59835856  0.79629540  1
  Rh  Rh229  1  0.59052420  0.61189170  0.61099830  1
  Rh  Rh230  1  0.20128312  0.59709989  -0.00130310  1
  Rh  Rh231  1  0.59150132  0.80348308  0.00173459  1
  Rh  Rh232  1  0.00436025  0.60369645  0.79264251  1
  Rh  Rh233  1  0.60183841  0.59275459  0.39366240  1
  Rh  Rh234  1  0.59844986  0.00159725  0.00882433  1
  Rh  Rh235  1  0.60084869  0.60089177  -0.01022934  1
  Rh  Rh236  1  0.80932385  0.21034841  0.60236827  1
  Rh  Rh237  1  0.60231917  0.20461770  0.40455848  1
  Rh  Rh238  1  -0.00482587  0.00104598  0.59828034  1
  Rh  Rh239  1  0.18990418  0.20602668  0.59954232  1
  Rh  Rh240  1  0.19780906  0.40038114  -0.00103077  1
  Rh  Rh241  1  0.80221106  0.79839973  -0.00529830  1
  Rh  Rh242  1  0.80629106  0.20552283  0.40061814  1
  Rh  Rh243  1  0.19873613  -0.00502673  0.60078660  1
  Rh  Rh244  1  0.39880843  0.60918777  0.00897677  1
  Rh  Rh245  1  0.19788796  0.39907647  0.39700895  1
  Rh  Rh246  1  -0.00684621  0.19778965  0.20149512  1
  Rh  Rh247  1  0.40197257  0.40366529  0.60024931  1
  Rh  Rh248  1  -0.00904375  0.40022974  0.00019601  1
  Rh  Rh249  1  0.00570320  0.00311060  0.39795631  1
