# generated using pymatgen
data_ZrScNbPdRh
_symmetry_space_group_name_H-M   'P 1'
_cell_length_a   16.55978140
_cell_length_b   16.55700689
_cell_length_c   16.55940643
_cell_angle_alpha   89.99277333
_cell_angle_beta   90.03727441
_cell_angle_gamma   89.96557474
_symmetry_Int_Tables_number   1
_chemical_formula_structural   ZrScNbPdRh
_chemical_formula_sum   'Zr50 Sc50 Nb50 Pd50 Rh50'
_cell_volume   4540.26310813
_cell_formula_units_Z   50
loop_
 _symmetry_equiv_pos_site_id
 _symmetry_equiv_pos_as_xyz
  1  'x, y, z'
loop_
 _atom_site_type_symbol
 _atom_site_label
 _atom_site_symmetry_multiplicity
 _atom_site_fract_x
 _atom_site_fract_y
 _atom_site_fract_z
 _atom_site_occupancy
  Zr  Zr0  1  0.90377460  0.10545380  0.49118451  1
  Zr  Zr1  1  0.31414376  0.10145367  0.30796479  1
  Zr  Zr2  1  0.30116937  0.50332043  0.70821663  1
  Zr  Zr3  1  0.89025691  0.09240453  0.29393889  1
  Zr  Zr4  1  0.90725431  0.09475225  0.91336844  1
  Zr  Zr5  1  0.50466928  0.70428790  0.50940612  1
  Zr  Zr6  1  0.09146062  0.29294926  0.49336449  1
  Zr  Zr7  1  0.29546779  0.68986945  0.90116809  1
  Zr  Zr8  1  0.29861195  0.09901241  0.09020184  1
  Zr  Zr9  1  0.11132318  0.89861158  0.10419589  1
  Zr  Zr10  1  0.29835184  0.10402348  0.69481555  1
  Zr  Zr11  1  0.69753100  0.89443737  0.50129224  1
  Zr  Zr12  1  0.89931924  0.71102681  0.89518322  1
  Zr  Zr13  1  0.50255971  0.51084306  0.69894177  1
  Zr  Zr14  1  0.30654398  0.71044082  0.50078056  1
  Zr  Zr15  1  0.70086541  0.49699172  0.89745253  1
  Zr  Zr16  1  0.50461898  0.28685626  0.69793906  1
  Zr  Zr17  1  0.90140506  0.91298884  0.50634715  1
  Zr  Zr18  1  0.89871924  0.70647873  0.09590891  1
  Zr  Zr19  1  0.28483672  0.89777841  0.30388217  1
  Zr  Zr20  1  0.69957542  0.50240184  0.70441958  1
  Zr  Zr21  1  0.09561249  0.89964901  0.89905014  1
  Zr  Zr22  1  0.69884991  0.09958788  0.90968802  1
  Zr  Zr23  1  0.70504279  0.09591762  0.50362023  1
  Zr  Zr24  1  0.70248167  0.70481766  0.50319014  1
  Zr  Zr25  1  0.49234870  0.89919630  0.50289406  1
  Zr  Zr26  1  0.90123575  0.50233946  0.30094281  1
  Zr  Zr27  1  0.68861541  0.10304779  0.70286475  1
  Zr  Zr28  1  0.70421363  0.29955285  0.50778334  1
  Zr  Zr29  1  0.69983132  0.50038734  0.50456260  1
  Zr  Zr30  1  0.90146545  0.70721208  0.29384844  1
  Zr  Zr31  1  0.70283859  0.71315008  0.30470166  1
  Zr  Zr32  1  0.90337265  0.50011521  0.09465491  1
  Zr  Zr33  1  0.10935520  0.29159341  0.10510109  1
  Zr  Zr34  1  0.10193233  0.10113745  0.09352883  1
  Zr  Zr35  1  0.48690706  0.09849897  0.49357976  1
  Zr  Zr36  1  0.49653059  0.70564087  0.89328106  1
  Zr  Zr37  1  0.49810837  0.09508870  0.90124503  1
  Zr  Zr38  1  0.69508990  0.30494315  0.90053104  1
  Zr  Zr39  1  0.10357841  0.50353398  0.29910371  1
  Zr  Zr40  1  0.90412763  0.29423508  0.69996749  1
  Zr  Zr41  1  0.09735991  0.50149084  0.49850206  1
  Zr  Zr42  1  0.29937073  0.69477814  0.09403806  1
  Zr  Zr43  1  0.69820669  0.29919034  0.70068410  1
  Zr  Zr44  1  0.50841200  0.90481239  0.30349937  1
  Zr  Zr45  1  0.30108122  0.28709600  0.50555323  1
  Zr  Zr46  1  0.10579343  0.29267383  0.69998145  1
  Zr  Zr47  1  0.50335917  0.10294318  0.29549034  1
  Zr  Zr48  1  0.89373322  0.50722700  0.90087665  1
  Zr  Zr49  1  0.30364792  0.49817636  0.29580820  1
  Sc  Sc50  1  0.70215291  0.89718975  0.09883716  1
  Sc  Sc51  1  0.29733519  0.69270745  0.30178221  1
  Sc  Sc52  1  0.09943644  0.70218915  0.90590797  1
  Sc  Sc53  1  0.49262480  0.30069578  0.09691975  1
  Sc  Sc54  1  0.70713383  0.49905799  0.31123797  1
  Sc  Sc55  1  0.09514926  0.28514666  0.89947972  1
  Sc  Sc56  1  0.49702299  0.29929856  0.90618955  1
  Sc  Sc57  1  0.49155929  0.49191877  0.30371091  1
  Sc  Sc58  1  0.70197531  0.29555588  0.09204914  1
  Sc  Sc59  1  0.09979335  0.09108688  0.50300453  1
  Sc  Sc60  1  0.49985585  0.10273339  0.09720664  1
  Sc  Sc61  1  0.50109617  0.30177819  0.49509216  1
  Sc  Sc62  1  0.90467917  0.30449746  0.90169384  1
  Sc  Sc63  1  0.90324139  0.08892207  0.68757194  1
  Sc  Sc64  1  0.70430470  0.28962304  0.29311779  1
  Sc  Sc65  1  0.90359252  0.29031254  0.09461753  1
  Sc  Sc66  1  0.30451784  0.50410485  0.10071164  1
  Sc  Sc67  1  0.89505310  0.70855640  0.50337142  1
  Sc  Sc68  1  0.50248678  0.49760338  0.49829280  1
  Sc  Sc69  1  0.09960075  0.70311819  0.09876610  1
  Sc  Sc70  1  0.89900237  0.09222927  0.10412163  1
  Sc  Sc71  1  0.10400907  0.09970925  0.70879968  1
  Sc  Sc72  1  0.09099188  0.90737091  0.70016743  1
  Sc  Sc73  1  0.31554199  0.69674579  0.70566530  1
  Sc  Sc74  1  0.48847016  0.50063787  0.10088320  1
  Sc  Sc75  1  0.30166435  0.28825643  0.70517235  1
  Sc  Sc76  1  0.90020293  0.89416263  0.70263415  1
  Sc  Sc77  1  0.10160675  0.50621780  0.10032387  1
  Sc  Sc78  1  0.09150347  0.70595673  0.50057871  1
  Sc  Sc79  1  0.89184074  0.49597923  0.49269130  1
  Sc  Sc80  1  0.29831775  0.91069312  0.90047492  1
  Sc  Sc81  1  0.70363852  0.49067867  0.08426690  1
  Sc  Sc82  1  0.30343965  0.50582657  0.49077474  1
  Sc  Sc83  1  0.09348821  0.50601056  0.90155812  1
  Sc  Sc84  1  0.49566814  0.49412323  0.90369811  1
  Sc  Sc85  1  0.49841867  0.70501913  0.30149520  1
  Sc  Sc86  1  0.69569148  0.70744237  0.70369235  1
  Sc  Sc87  1  0.50168449  0.90749700  0.89615604  1
  Sc  Sc88  1  0.70503958  0.70567969  0.89555004  1
  Sc  Sc89  1  0.69673685  0.89639069  0.90197357  1
  Sc  Sc90  1  0.69938262  0.90095555  0.69933921  1
  Sc  Sc91  1  0.90397503  0.50621718  0.71242147  1
  Sc  Sc92  1  0.30422717  0.91281694  0.70134681  1
  Sc  Sc93  1  0.50132451  0.90080428  0.70648834  1
  Sc  Sc94  1  0.08751486  0.09427123  0.29067358  1
  Sc  Sc95  1  0.49833587  0.09442103  0.70015585  1
  Sc  Sc96  1  0.31001110  0.30060447  0.28781006  1
  Sc  Sc97  1  0.90827196  0.29174911  0.31538349  1
  Sc  Sc98  1  0.50502484  0.90271988  0.09095561  1
  Sc  Sc99  1  0.09199531  0.50839860  0.70491560  1
  Nb  Nb100  1  0.71182636  0.10202111  0.11454061  1
  Nb  Nb101  1  0.90358708  0.29925758  0.50312197  1
  Nb  Nb102  1  0.10377517  0.29993482  0.30082217  1
  Nb  Nb103  1  0.69256380  0.70112255  0.10291248  1
  Nb  Nb104  1  0.89367171  0.89776164  0.90582834  1
  Nb  Nb105  1  0.30257944  0.29523647  0.09340225  1
  Nb  Nb106  1  0.10782427  0.90223888  0.49026355  1
  Nb  Nb107  1  0.08842643  0.70355231  0.29627043  1
  Nb  Nb108  1  0.08875556  0.89114740  0.30145036  1
  Nb  Nb109  1  0.90855366  0.90476856  0.28987864  1
  Nb  Nb110  1  0.30029379  0.09214469  0.49940167  1
  Nb  Nb111  1  0.49783247  0.29921612  0.29790933  1
  Nb  Nb112  1  0.09181553  0.70409112  0.69891952  1
  Nb  Nb113  1  0.89966205  0.89877699  0.09278868  1
  Nb  Nb114  1  0.29878828  0.89793822  0.10002437  1
  Nb  Nb115  1  0.50391747  0.70159716  0.69991963  1
  Nb  Nb116  1  0.70165794  0.90723633  0.29919934  1
  Nb  Nb117  1  0.29491977  0.10122722  0.89650755  1
  Nb  Nb118  1  0.11111232  0.09435306  0.90173838  1
  Nb  Nb119  1  0.30395106  0.30046391  0.90431324  1
  Nb  Nb120  1  0.49573011  0.69730039  0.10129321  1
  Nb  Nb121  1  0.90297886  0.70244377  0.70191472  1
  Nb  Nb122  1  0.29970103  0.49790813  0.90101542  1
  Nb  Nb123  1  0.69971015  0.09439490  0.29067659  1
  Nb  Nb124  1  0.29235155  0.90999596  0.49871205  1
  Nb  Nb125  1  0.60479722  0.59727622  0.19976513  1
  Nb  Nb126  1  0.19971215  0.40391414  0.60104750  1
  Nb  Nb127  1  0.39542391  -0.00814834  0.19738021  1
  Nb  Nb128  1  0.20382862  0.39894810  0.80572216  1
  Nb  Nb129  1  0.80190891  0.00347004  0.80789285  1
  Nb  Nb130  1  0.19851626  0.60736814  0.60280702  1
  Nb  Nb131  1  0.60389641  0.40293490  0.20015385  1
  Nb  Nb132  1  0.19987124  0.19816857  0.39682168  1
  Nb  Nb133  1  0.19983901  0.80216784  0.60212228  1
  Nb  Nb134  1  0.80066707  0.19359797  0.80217398  1
  Nb  Nb135  1  0.39706339  0.80492987  0.19399065  1
  Nb  Nb136  1  -0.00202565  0.60576452  0.39433893  1
  Nb  Nb137  1  0.19984941  0.39109469  0.39915631  1
  Nb  Nb138  1  0.39643411  0.79950033  0.00327420  1
  Nb  Nb139  1  0.59775475  0.60643049  0.00590672  1
  Nb  Nb140  1  0.19650468  0.79718282  0.79109935  1
  Nb  Nb141  1  0.79321210  0.60011693  0.19551566  1
  Nb  Nb142  1  0.20615821  0.39628874  -0.00506136  1
  Nb  Nb143  1  0.00231002  0.39667332  0.20381271  1
  Nb  Nb144  1  -0.00019543  0.39591066  0.59760927  1
  Nb  Nb145  1  0.39460210  0.39921356  0.60416593  1
  Nb  Nb146  1  0.60460767  0.60420655  0.39851548  1
  Nb  Nb147  1  0.60230840  0.19497158  0.39405181  1
  Nb  Nb148  1  0.80556859  0.40047561  0.19868798  1
  Nb  Nb149  1  0.80006705  0.60384874  0.60627670  1
  Pd  Pd150  1  0.40206449  0.19512130  0.80540462  1
  Pd  Pd151  1  0.80216962  0.19438802  0.60729126  1
  Pd  Pd152  1  0.19145283  0.60346832  0.79639258  1
  Pd  Pd153  1  0.39449403  0.80953785  0.60968898  1
  Pd  Pd154  1  0.59786152  0.19897916  0.00558075  1
  Pd  Pd155  1  0.19234040  0.60867816  0.40621793  1
  Pd  Pd156  1  0.59501699  0.79602824  -0.00387150  1
  Pd  Pd157  1  0.80315071  0.20161109  -0.00338030  1
  Pd  Pd158  1  -0.00693133  0.18674753  0.80261335  1
  Pd  Pd159  1  0.58821959  0.39862829  0.79911940  1
  Pd  Pd160  1  0.41224359  0.60197653  0.39991200  1
  Pd  Pd161  1  0.59415911  -0.00122010  0.59832131  1
  Pd  Pd162  1  0.39070313  0.80777818  0.80552708  1
  Pd  Pd163  1  0.39597552  0.59513112  0.59604213  1
  Pd  Pd164  1  0.00556898  0.19468486  0.60089902  1
  Pd  Pd165  1  0.79156666  0.60881470  0.00167059  1
  Pd  Pd166  1  0.81216115  0.40914198  0.60984798  1
  Pd  Pd167  1  0.59070258  0.39901128  0.60243602  1
  Pd  Pd168  1  0.00569801  -0.00622841  0.00688979  1
  Pd  Pd169  1  0.80980375  0.81512157  0.39850561  1
  Pd  Pd170  1  0.59897146  0.60314895  0.81043311  1
  Pd  Pd171  1  0.19008055  0.01075066  0.38812929  1
  Pd  Pd172  1  0.80532338  0.39218157  0.79868396  1
  Pd  Pd173  1  0.01268597  0.39347247  0.00660604  1
  Pd  Pd174  1  -0.00804078  0.80299589  0.40696580  1
  Pd  Pd175  1  0.39773383  0.80588766  0.39213603  1
  Pd  Pd176  1  0.40215265  0.39643581  0.79409723  1
  Pd  Pd177  1  0.00889106  0.39970450  0.79826039  1
  Pd  Pd178  1  0.59829699  -0.00172727  0.18932504  1
  Pd  Pd179  1  0.00402749  0.80994421  0.59652109  1
  Pd  Pd180  1  0.79371691  0.20021017  0.39756575  1
  Pd  Pd181  1  0.79922504  0.80465358  0.19580021  1
  Pd  Pd182  1  0.60796733  0.00368988  0.00931886  1
  Pd  Pd183  1  0.19493798  0.79045453  0.40297330  1
  Pd  Pd184  1  0.79970898  -0.00542829  0.39743585  1
  Pd  Pd185  1  0.59851477  0.20932267  0.19613965  1
  Pd  Pd186  1  0.20054562  0.40098372  0.19550131  1
  Pd  Pd187  1  -0.00703249  0.20351275  0.20285607  1
  Pd  Pd188  1  0.19412744  -0.00357056  0.60583289  1
  Pd  Pd189  1  0.60449735  0.39512217  0.39082434  1
  Pd  Pd190  1  0.00078779  0.60777103  -0.00195068  1
  Pd  Pd191  1  0.20238433  0.78842801  0.20331260  1
  Pd  Pd192  1  -0.00798037  0.00293610  0.80154291  1
  Pd  Pd193  1  0.79744623  0.38617867  0.39390888  1
  Pd  Pd194  1  -0.00889425  0.59462536  0.59206270  1
  Pd  Pd195  1  0.59298832  0.80132516  0.19894346  1
  Pd  Pd196  1  0.60418091  0.00545204  0.40421044  1
  Pd  Pd197  1  0.19828615  0.60665749  0.19669753  1
  Pd  Pd198  1  0.20901923  0.19046219  0.20894446  1
  Pd  Pd199  1  0.20349118  0.00870983  0.20654295  1
  Rh  Rh200  1  0.38935697  0.39313999  0.40581147  1
  Rh  Rh201  1  0.79641647  -0.00217659  0.60690917  1
  Rh  Rh202  1  0.40605314  0.60567268  0.20957613  1
  Rh  Rh203  1  -0.00082463  0.61006417  0.80983182  1
  Rh  Rh204  1  0.39963563  0.19435281  -0.00411662  1
  Rh  Rh205  1  0.20015346  -0.00337927  -0.00283300  1
  Rh  Rh206  1  0.00204525  0.80844371  0.18849606  1
  Rh  Rh207  1  0.20611402  0.80502921  -0.01328297  1
  Rh  Rh208  1  0.00378875  0.19521085  -0.00004914  1
  Rh  Rh209  1  0.79881851  -0.01231137  0.19600572  1
  Rh  Rh210  1  -0.00510332  0.59780870  0.20176031  1
  Rh  Rh211  1  0.40215381  0.20905976  0.39954600  1
  Rh  Rh212  1  0.59569068  0.80470316  0.60698045  1
  Rh  Rh213  1  0.60115858  0.19946068  0.81064605  1
  Rh  Rh214  1  0.19772892  0.58841807  0.00202644  1
  Rh  Rh215  1  0.59029354  0.40672100  0.00866063  1
  Rh  Rh216  1  0.60725849  0.60372193  0.59659007  1
  Rh  Rh217  1  0.59904520  0.80127636  0.40190563  1
  Rh  Rh218  1  0.39273493  0.40128613  0.00482682  1
  Rh  Rh219  1  0.79554612  0.79982982  0.00212402  1
  Rh  Rh220  1  0.00312704  0.80605714  0.00399408  1
  Rh  Rh221  1  0.39995015  0.19424632  0.19126286  1
  Rh  Rh222  1  0.00209115  -0.00268318  0.39689406  1
  Rh  Rh223  1  0.00207451  -0.00791224  0.19028588  1
  Rh  Rh224  1  0.20178291  0.20379752  -0.00844151  1
  Rh  Rh225  1  0.40599788  0.60365192  -0.00895419  1
  Rh  Rh226  1  0.39829084  0.00688091  0.80155454  1
  Rh  Rh227  1  0.19561075  0.19286702  0.59246961  1
  Rh  Rh228  1  0.00484333  0.40583641  0.39981655  1
  Rh  Rh229  1  0.60779003  -0.00109731  0.80328216  1
  Rh  Rh230  1  0.40943896  0.59642306  0.80565287  1
  Rh  Rh231  1  0.40075427  -0.00084263  0.60114055  1
  Rh  Rh232  1  0.19935565  -0.00354035  0.79854713  1
  Rh  Rh233  1  0.59346262  0.19607873  0.58334427  1
  Rh  Rh234  1  0.80170791  0.60901196  0.79338727  1
  Rh  Rh235  1  0.39641786  -0.01333483  0.39484221  1
  Rh  Rh236  1  0.80729769  0.20488507  0.20043507  1
  Rh  Rh237  1  0.40535286  0.39648051  0.19460786  1
  Rh  Rh238  1  0.00571534  0.18708388  0.39358988  1
  Rh  Rh239  1  0.00668732  -0.00165122  0.59682534  1
  Rh  Rh240  1  0.80732341  0.39202833  0.00088787  1
  Rh  Rh241  1  0.00327316  0.80034080  0.80216935  1
  Rh  Rh242  1  0.80127477  0.61201423  0.40291171  1
  Rh  Rh243  1  0.80212580  0.79735664  0.60821930  1
  Rh  Rh244  1  0.79516032  -0.00392178  0.00235588  1
  Rh  Rh245  1  0.80053030  0.80864957  0.79723478  1
  Rh  Rh246  1  0.20386629  0.20209051  0.80817073  1
  Rh  Rh247  1  0.39635181  -0.00258868  0.00225105  1
  Rh  Rh248  1  0.59970587  0.80355370  0.79798470  1
  Rh  Rh249  1  0.40485366  0.19768301  0.59880820  1
