# generated using pymatgen
data_ZrScNbPdRh
_symmetry_space_group_name_H-M   'P 1'
_cell_length_a   16.55744194
_cell_length_b   16.55662710
_cell_length_c   16.55393757
_cell_angle_alpha   90.02053714
_cell_angle_beta   89.96296530
_cell_angle_gamma   89.97604012
_symmetry_Int_Tables_number   1
_chemical_formula_structural   ZrScNbPdRh
_chemical_formula_sum   'Zr50 Sc50 Nb50 Pd50 Rh50'
_cell_volume   4538.01852672
_cell_formula_units_Z   50
loop_
 _symmetry_equiv_pos_site_id
 _symmetry_equiv_pos_as_xyz
  1  'x, y, z'
loop_
 _atom_site_type_symbol
 _atom_site_label
 _atom_site_symmetry_multiplicity
 _atom_site_fract_x
 _atom_site_fract_y
 _atom_site_fract_z
 _atom_site_occupancy
  Zr  Zr0  1  0.50278068  0.89253092  0.70794465  1
  Zr  Zr1  1  0.30354548  0.90046537  0.49118668  1
  Zr  Zr2  1  0.29868107  0.51111727  0.90814765  1
  Zr  Zr3  1  0.89677401  0.29484507  0.89161565  1
  Zr  Zr4  1  0.50055672  0.09560804  0.70263322  1
  Zr  Zr5  1  0.10032962  0.90196627  0.29059044  1
  Zr  Zr6  1  0.69678375  0.30386666  0.30272869  1
  Zr  Zr7  1  0.08979964  0.30372256  0.50138386  1
  Zr  Zr8  1  0.89151836  0.10348076  0.69660877  1
  Zr  Zr9  1  0.29405382  0.29888264  0.70013379  1
  Zr  Zr10  1  0.90193242  0.89056239  0.29383816  1
  Zr  Zr11  1  0.69390133  0.50097316  0.31021241  1
  Zr  Zr12  1  0.09911402  0.29619735  0.69115831  1
  Zr  Zr13  1  0.09595300  0.90325594  0.89876996  1
  Zr  Zr14  1  0.69754085  0.50403056  0.09963983  1
  Zr  Zr15  1  0.69843082  0.10563499  0.30252687  1
  Zr  Zr16  1  0.89962762  0.49777370  0.10005284  1
  Zr  Zr17  1  0.70636225  0.69402880  0.29820859  1
  Zr  Zr18  1  0.49589920  0.30573833  0.30449221  1
  Zr  Zr19  1  0.50563219  0.89893398  0.89978734  1
  Zr  Zr20  1  0.70593901  0.90387545  0.09640479  1
  Zr  Zr21  1  0.69252977  0.29927807  0.90393125  1
  Zr  Zr22  1  0.90651356  0.29962113  0.10258946  1
  Zr  Zr23  1  0.90733279  0.90102813  0.69855516  1
  Zr  Zr24  1  0.90749069  0.49445951  0.48911646  1
  Zr  Zr25  1  0.50225281  0.29662676  0.09962164  1
  Zr  Zr26  1  0.50412807  0.90701813  0.09718122  1
  Zr  Zr27  1  0.50153938  0.09495110  0.90187681  1
  Zr  Zr28  1  0.09810772  0.49270549  0.10392733  1
  Zr  Zr29  1  0.89751115  0.70256612  0.69420919  1
  Zr  Zr30  1  0.49273453  0.91151980  0.29808479  1
  Zr  Zr31  1  0.29996912  0.10618306  0.30472371  1
  Zr  Zr32  1  0.90534906  0.29530047  0.69244454  1
  Zr  Zr33  1  0.88952488  0.90064792  0.49476613  1
  Zr  Zr34  1  0.90190774  0.49679379  0.89653470  1
  Zr  Zr35  1  0.49985217  0.70373245  0.50830408  1
  Zr  Zr36  1  0.69963836  0.50197701  0.88817058  1
  Zr  Zr37  1  0.10104200  0.10259373  0.29779395  1
  Zr  Zr38  1  0.89652821  0.89829672  0.90825659  1
  Zr  Zr39  1  0.48906765  0.10677718  0.49398958  1
  Zr  Zr40  1  0.69940667  0.89431985  0.69801405  1
  Zr  Zr41  1  0.09975587  0.70364406  0.70100784  1
  Zr  Zr42  1  0.29780621  0.28912943  0.90380849  1
  Zr  Zr43  1  0.29284760  0.11426852  0.10084681  1
  Zr  Zr44  1  0.50398349  0.09914979  0.11008862  1
  Zr  Zr45  1  0.29558358  0.90083875  0.70233480  1
  Zr  Zr46  1  0.69270662  0.29757217  0.09822072  1
  Zr  Zr47  1  0.30675254  0.89666886  0.10184102  1
  Zr  Zr48  1  0.49956142  0.70721022  0.90004936  1
  Zr  Zr49  1  0.09526305  0.90071040  0.70016759  1
  Sc  Sc50  1  0.49757731  0.70003553  0.09848611  1
  Sc  Sc51  1  0.29609966  0.49868145  0.69700030  1
  Sc  Sc52  1  0.30632105  0.69566359  0.50830863  1
  Sc  Sc53  1  0.89777586  0.70042765  0.89331169  1
  Sc  Sc54  1  0.29809614  0.70169899  0.29417417  1
  Sc  Sc55  1  0.30830606  0.49333245  0.29140852  1
  Sc  Sc56  1  0.49692147  0.50694204  0.10755150  1
  Sc  Sc57  1  0.89920053  0.70367252  0.49167276  1
  Sc  Sc58  1  0.29502570  0.10717401  0.49707875  1
  Sc  Sc59  1  0.90415019  0.30093687  0.31183786  1
  Sc  Sc60  1  0.29604537  0.90337304  0.29993376  1
  Sc  Sc61  1  0.10118631  0.70387292  0.10623630  1
  Sc  Sc62  1  0.70080808  0.69564410  0.09838845  1
  Sc  Sc63  1  0.70573544  0.70091941  0.50903743  1
  Sc  Sc64  1  0.50845157  0.48988800  0.50314229  1
  Sc  Sc65  1  0.09204964  0.49492682  0.30055808  1
  Sc  Sc66  1  0.09005198  0.90466477  0.09970184  1
  Sc  Sc67  1  0.30539962  0.49191519  0.50942538  1
  Sc  Sc68  1  0.70160783  0.30341818  0.69844364  1
  Sc  Sc69  1  0.10166094  0.29392791  0.11039879  1
  Sc  Sc70  1  0.09947402  0.09529859  0.10811259  1
  Sc  Sc71  1  0.29482739  0.10692677  0.69725023  1
  Sc  Sc72  1  0.89477698  0.50733274  0.70439700  1
  Sc  Sc73  1  0.49659547  0.89412346  0.49952577  1
  Sc  Sc74  1  0.49970493  0.30112341  0.69716781  1
  Sc  Sc75  1  0.30818760  0.29461255  0.50340208  1
  Sc  Sc76  1  0.50592706  0.69042415  0.29748156  1
  Sc  Sc77  1  0.09403118  0.29207952  0.30035160  1
  Sc  Sc78  1  0.30907880  0.69354865  0.09822890  1
  Sc  Sc79  1  0.30622213  0.90341291  0.89839806  1
  Sc  Sc80  1  0.09635457  0.70930704  0.30235494  1
  Sc  Sc81  1  0.90025948  0.10324428  0.30074521  1
  Sc  Sc82  1  0.10443400  0.49087308  0.69895290  1
  Sc  Sc83  1  0.70423863  0.29743211  0.49156711  1
  Sc  Sc84  1  0.29447000  0.10145994  0.90312527  1
  Sc  Sc85  1  0.90229274  0.09271546  0.09827549  1
  Sc  Sc86  1  0.09993042  0.30154411  0.88856484  1
  Sc  Sc87  1  0.69226987  0.09993979  0.09603162  1
  Sc  Sc88  1  0.09841514  0.90110787  0.50126094  1
  Sc  Sc89  1  0.10248487  0.69583340  0.89234360  1
  Sc  Sc90  1  0.89102776  0.70711127  0.09429896  1
  Sc  Sc91  1  0.09430152  0.09374366  0.69272347  1
  Sc  Sc92  1  0.30272139  0.50667433  0.10703242  1
  Sc  Sc93  1  0.70193162  0.69555553  0.69763881  1
  Sc  Sc94  1  0.51175192  0.50189657  0.90292154  1
  Sc  Sc95  1  0.09980671  0.10678769  0.49910835  1
  Sc  Sc96  1  0.71476125  0.90719200  0.30128612  1
  Sc  Sc97  1  0.89220762  0.09796954  0.89296697  1
  Sc  Sc98  1  0.89196025  0.10595855  0.50143116  1
  Sc  Sc99  1  0.51737018  0.49563952  0.69976926  1
  Nb  Nb100  1  0.49968937  0.49956332  0.30653614  1
  Nb  Nb101  1  0.69432723  0.90071528  0.89844547  1
  Nb  Nb102  1  0.49457135  0.70603578  0.70096655  1
  Nb  Nb103  1  0.89371607  0.50250264  0.30020955  1
  Nb  Nb104  1  0.10343410  0.49641814  0.50163779  1
  Nb  Nb105  1  0.49884748  0.30055228  0.50330979  1
  Nb  Nb106  1  0.90213731  0.30055068  0.50090212  1
  Nb  Nb107  1  0.70038654  0.70759802  0.89999771  1
  Nb  Nb108  1  0.10076000  0.49948210  0.90623904  1
  Nb  Nb109  1  0.70036107  0.10121435  0.69675432  1
  Nb  Nb110  1  0.30205322  0.69947699  0.90193287  1
  Nb  Nb111  1  0.70485386  0.50026704  0.69083727  1
  Nb  Nb112  1  0.70247666  0.49734764  0.50870385  1
  Nb  Nb113  1  0.70262183  0.09734492  0.49977171  1
  Nb  Nb114  1  0.30250807  0.30350028  0.10451146  1
  Nb  Nb115  1  0.69877855  0.90037791  0.49602488  1
  Nb  Nb116  1  0.50040101  0.10301530  0.29909506  1
  Nb  Nb117  1  0.30126278  0.30177668  0.29633109  1
  Nb  Nb118  1  0.10092703  0.09869370  0.91493515  1
  Nb  Nb119  1  0.50366391  0.30370297  0.89994446  1
  Nb  Nb120  1  0.69991347  0.10102793  0.89096503  1
  Nb  Nb121  1  0.90255102  0.90031964  0.09640419  1
  Nb  Nb122  1  0.30488378  0.69999449  0.70601937  1
  Nb  Nb123  1  0.89935419  0.69632795  0.29769063  1
  Nb  Nb124  1  0.10483814  0.69424187  0.50000735  1
  Nb  Nb125  1  0.60452951  0.80467601  0.39663497  1
  Nb  Nb126  1  0.60193529  0.19655681  0.79890952  1
  Nb  Nb127  1  0.00260771  0.59428000  0.00161530  1
  Nb  Nb128  1  0.40009504  0.40238873  0.80892365  1
  Nb  Nb129  1  0.40197172  -0.00092219  0.59987306  1
  Nb  Nb130  1  0.40110037  0.59217378  0.40170651  1
  Nb  Nb131  1  0.60016351  0.00145812  0.40423170  1
  Nb  Nb132  1  0.20456241  0.79809275  -0.00425853  1
  Nb  Nb133  1  0.60097067  0.00200529  0.59441576  1
  Nb  Nb134  1  0.79799798  0.39771933  0.00088241  1
  Nb  Nb135  1  0.00715205  0.59941057  0.59180354  1
  Nb  Nb136  1  0.79917453  0.40086276  0.20159742  1
  Nb  Nb137  1  0.20157677  0.59240616  0.40502825  1
  Nb  Nb138  1  0.60226877  0.19357249  0.59737602  1
  Nb  Nb139  1  0.80295527  0.40280954  0.59423736  1
  Nb  Nb140  1  0.20415189  0.39808587  0.00214278  1
  Nb  Nb141  1  0.00276819  0.19751713  -0.00451128  1
  Nb  Nb142  1  0.60274469  0.80674083  0.20496110  1
  Nb  Nb143  1  0.20214097  0.39984485  0.40143724  1
  Nb  Nb144  1  0.39816549  0.39628757  -0.00105679  1
  Nb  Nb145  1  0.79748692  0.20829042  0.19901629  1
  Nb  Nb146  1  0.40189534  0.60331674  0.79705739  1
  Nb  Nb147  1  -0.00988762  0.60199387  0.20142907  1
  Nb  Nb148  1  -0.00290886  -0.00238647  0.39702054  1
  Nb  Nb149  1  0.20091315  0.79534220  0.60315956  1
  Pd  Pd150  1  0.20160116  0.80218876  0.19096122  1
  Pd  Pd151  1  0.20447695  0.79176797  0.40625598  1
  Pd  Pd152  1  0.79752950  -0.00434100  0.60086547  1
  Pd  Pd153  1  0.20261720  0.59527196  0.79553813  1
  Pd  Pd154  1  -0.00186351  0.00682002  0.80546308  1
  Pd  Pd155  1  0.00297688  0.80432530  0.40342909  1
  Pd  Pd156  1  0.59635139  0.60504774  0.41224191  1
  Pd  Pd157  1  0.38934542  0.00890581  0.19867649  1
  Pd  Pd158  1  0.40657748  0.19916228  0.00153136  1
  Pd  Pd159  1  0.40898809  0.79465868  0.20519226  1
  Pd  Pd160  1  0.59919229  0.60814258  0.79377609  1
  Pd  Pd161  1  0.79683165  0.79783928  0.19491556  1
  Pd  Pd162  1  0.00417946  0.59662917  0.79694517  1
  Pd  Pd163  1  0.79676912  -0.00705428  0.79867233  1
  Pd  Pd164  1  0.00478696  0.39147149  -0.00480839  1
  Pd  Pd165  1  0.79571012  0.00653682  -0.00278995  1
  Pd  Pd166  1  0.59663320  0.20047396  0.40468369  1
  Pd  Pd167  1  0.00726985  0.78891962  -0.00212997  1
  Pd  Pd168  1  0.20502817  -0.00361802  0.59246113  1
  Pd  Pd169  1  0.20231297  -0.00916803  0.00807053  1
  Pd  Pd170  1  0.59717874  0.60382126  0.60128374  1
  Pd  Pd171  1  0.19662286  0.00819101  0.80232557  1
  Pd  Pd172  1  0.40360522  0.40254224  0.61127225  1
  Pd  Pd173  1  0.80463929  0.59774646  -0.00950158  1
  Pd  Pd174  1  0.79748074  0.39555859  0.79568222  1
  Pd  Pd175  1  0.60414787  0.79878658  0.00959131  1
  Pd  Pd176  1  0.19914857  0.60238752  0.60081576  1
  Pd  Pd177  1  0.19108198  0.00242654  0.40235068  1
  Pd  Pd178  1  0.19159396  0.60447412  0.00790598  1
  Pd  Pd179  1  0.59796706  0.60364583  0.00032563  1
  Pd  Pd180  1  0.20726851  0.40412937  0.80844038  1
  Pd  Pd181  1  0.19939364  0.39794158  0.20425291  1
  Pd  Pd182  1  0.79968477  0.79992413  0.79961031  1
  Pd  Pd183  1  0.18890118  0.18874033  0.79800270  1
  Pd  Pd184  1  0.39188813  0.00327124  0.79614594  1
  Pd  Pd185  1  0.19037280  0.59979409  0.21183875  1
  Pd  Pd186  1  0.59734318  0.40709399  0.19974984  1
  Pd  Pd187  1  0.41017982  0.58961289  0.60445562  1
  Pd  Pd188  1  0.00754984  0.60133905  0.39583049  1
  Pd  Pd189  1  0.00213140  0.40373055  0.79217761  1
  Pd  Pd190  1  0.00790915  0.18796086  0.80320365  1
  Pd  Pd191  1  0.00294786  0.79580588  0.58869969  1
  Pd  Pd192  1  0.39250242  0.80776346  0.60259445  1
  Pd  Pd193  1  0.39627456  0.00719571  0.00276539  1
  Pd  Pd194  1  0.20297716  0.80150056  0.80382779  1
  Pd  Pd195  1  0.40518383  0.78710523  0.38955818  1
  Pd  Pd196  1  0.79743650  0.60195153  0.40905826  1
  Pd  Pd197  1  0.40583676  0.20518920  0.79785463  1
  Pd  Pd198  1  0.80665792  0.19788791  0.00521078  1
  Pd  Pd199  1  0.80290838  0.00996594  0.19976306  1
  Rh  Rh200  1  0.60534582  0.00285441  -0.00476261  1
  Rh  Rh201  1  0.81333946  0.59175018  0.59295019  1
  Rh  Rh202  1  -0.00882070  0.40352303  0.21200367  1
  Rh  Rh203  1  -0.00817615  0.19413463  0.19488476  1
  Rh  Rh204  1  0.60233058  0.80156686  0.59760847  1
  Rh  Rh205  1  0.20295172  0.39011576  0.59120923  1
  Rh  Rh206  1  -0.00562833  0.80264483  0.80631103  1
  Rh  Rh207  1  0.39433034  0.80109604  -0.00242974  1
  Rh  Rh208  1  -0.00722556  0.79352439  0.19213242  1
  Rh  Rh209  1  0.79123581  0.20382749  0.79483744  1
  Rh  Rh210  1  0.19703105  0.20234361  0.59710308  1
  Rh  Rh211  1  0.59537423  0.19059994  -0.00764854  1
  Rh  Rh212  1  0.79260018  0.60668913  0.80162759  1
  Rh  Rh213  1  0.79497435  0.80215642  -0.00251380  1
  Rh  Rh214  1  0.79298125  0.79208707  0.39887598  1
  Rh  Rh215  1  0.79906836  0.40155124  0.40143701  1
  Rh  Rh216  1  0.59890253  0.60390409  0.19928153  1
  Rh  Rh217  1  0.60615667  -0.00483368  0.21058482  1
  Rh  Rh218  1  0.80383361  0.20085157  0.39675669  1
  Rh  Rh219  1  -0.00477060  0.00561408  -0.00286943  1
  Rh  Rh220  1  0.60071723  0.20043043  0.20520562  1
  Rh  Rh221  1  0.59838728  0.40766865  0.00448219  1
  Rh  Rh222  1  0.80245212  0.59508432  0.20165289  1
  Rh  Rh223  1  0.39725371  0.20771147  0.39452591  1
  Rh  Rh224  1  0.79397219  0.21085269  0.59674539  1
  Rh  Rh225  1  -0.00292774  0.19108862  0.59568572  1
  Rh  Rh226  1  0.39622775  0.40178957  0.40175861  1
  Rh  Rh227  1  -0.00892631  0.00343528  0.58896250  1
  Rh  Rh228  1  0.20170421  0.20340655  0.20492756  1
  Rh  Rh229  1  0.61110661  0.38825142  0.59444842  1
  Rh  Rh230  1  0.18823204  0.20877142  0.00422896  1
  Rh  Rh231  1  0.00577207  0.39825915  0.39465971  1
  Rh  Rh232  1  0.40075990  0.20192198  0.20488895  1
  Rh  Rh233  1  0.39599546  0.79718782  0.80618279  1
  Rh  Rh234  1  0.40040464  0.00392234  0.40280647  1
  Rh  Rh235  1  0.20203993  0.21375709  0.39942636  1
  Rh  Rh236  1  -0.00651581  -0.00091521  0.20643254  1
  Rh  Rh237  1  0.40294586  0.60144260  0.21131547  1
  Rh  Rh238  1  0.80317217  0.00574736  0.39763531  1
  Rh  Rh239  1  0.40698015  0.39872528  0.19428734  1
  Rh  Rh240  1  0.80063765  0.80330568  0.59915704  1
  Rh  Rh241  1  0.59785084  0.39759828  0.40862276  1
  Rh  Rh242  1  0.40920980  0.59615992  -0.00675798  1
  Rh  Rh243  1  0.60881965  0.00183444  0.79691368  1
  Rh  Rh244  1  0.59890695  0.39355005  0.79495596  1
  Rh  Rh245  1  -0.01006027  0.41154907  0.60684197  1
  Rh  Rh246  1  0.60760959  0.79247907  0.79845713  1
  Rh  Rh247  1  -0.00414635  0.19159309  0.40468996  1
  Rh  Rh248  1  0.40284525  0.19659114  0.60500956  1
  Rh  Rh249  1  0.20463167  -0.00029824  0.19629057  1
