# generated using pymatgen
data_ZrScNbPdRh
_symmetry_space_group_name_H-M   'P 1'
_cell_length_a   16.55803752
_cell_length_b   16.55801557
_cell_length_c   16.55697526
_cell_angle_alpha   90.02456406
_cell_angle_beta   90.02041837
_cell_angle_gamma   89.98709104
_symmetry_Int_Tables_number   1
_chemical_formula_structural   ZrScNbPdRh
_chemical_formula_sum   'Zr50 Sc50 Nb50 Pd50 Rh50'
_cell_volume   4539.39599951
_cell_formula_units_Z   50
loop_
 _symmetry_equiv_pos_site_id
 _symmetry_equiv_pos_as_xyz
  1  'x, y, z'
loop_
 _atom_site_type_symbol
 _atom_site_label
 _atom_site_symmetry_multiplicity
 _atom_site_fract_x
 _atom_site_fract_y
 _atom_site_fract_z
 _atom_site_occupancy
  Zr  Zr0  1  0.69452561  0.50014078  0.49892686  1
  Zr  Zr1  1  0.69896009  0.70213451  0.89280363  1
  Zr  Zr2  1  0.28926124  0.69736837  0.89497456  1
  Zr  Zr3  1  0.10528839  0.29103897  0.09830380  1
  Zr  Zr4  1  0.70735163  0.51145203  0.69770994  1
  Zr  Zr5  1  0.10645987  0.89649069  0.50447402  1
  Zr  Zr6  1  0.69816426  0.09136469  0.09695259  1
  Zr  Zr7  1  0.28571755  0.30841528  0.90201283  1
  Zr  Zr8  1  0.10240006  0.90178474  0.30679131  1
  Zr  Zr9  1  0.29424223  0.50290264  0.89646277  1
  Zr  Zr10  1  0.29966960  0.71000548  0.50008582  1
  Zr  Zr11  1  0.31278829  0.49730277  0.30328189  1
  Zr  Zr12  1  0.09961483  0.70087165  0.09118692  1
  Zr  Zr13  1  0.30499418  0.49349130  0.49716786  1
  Zr  Zr14  1  0.89952684  0.30897541  0.89461147  1
  Zr  Zr15  1  0.49208931  0.10232649  0.49808031  1
  Zr  Zr16  1  0.90644963  0.90535726  0.90360109  1
  Zr  Zr17  1  0.90550763  0.30892208  0.70828915  1
  Zr  Zr18  1  0.69623964  0.10871885  0.90341140  1
  Zr  Zr19  1  0.09602161  0.89434396  0.09726737  1
  Zr  Zr20  1  0.50523092  0.70445024  0.69375212  1
  Zr  Zr21  1  0.10556783  0.30176811  0.50317822  1
  Zr  Zr22  1  0.70294270  0.89855367  0.90336715  1
  Zr  Zr23  1  0.89873134  0.10227305  0.09125021  1
  Zr  Zr24  1  0.70128193  0.90067953  0.28876454  1
  Zr  Zr25  1  0.30526619  0.70919920  0.30345618  1
  Zr  Zr26  1  0.30226611  0.30372392  0.09919861  1
  Zr  Zr27  1  0.90823682  0.10523395  0.70822889  1
  Zr  Zr28  1  0.29716453  0.90488347  0.48557005  1
  Zr  Zr29  1  0.90171284  0.50432021  0.29491444  1
  Zr  Zr30  1  0.89053748  0.89780776  0.30977615  1
  Zr  Zr31  1  0.30759400  0.09730322  0.30939161  1
  Zr  Zr32  1  0.49960842  0.49934261  0.89647104  1
  Zr  Zr33  1  0.09540464  0.10717413  0.29916684  1
  Zr  Zr34  1  0.50681247  0.90491501  0.09837558  1
  Zr  Zr35  1  0.69682107  0.70068677  0.51445675  1
  Zr  Zr36  1  0.30089591  0.89392764  0.90030947  1
  Zr  Zr37  1  0.10222145  0.69339660  0.50587034  1
  Zr  Zr38  1  0.30385064  0.29491930  0.51408291  1
  Zr  Zr39  1  0.89790307  0.50116748  0.09301746  1
  Zr  Zr40  1  0.69024001  0.89521977  0.70234791  1
  Zr  Zr41  1  0.89662348  0.29276391  0.30225133  1
  Zr  Zr42  1  0.89091721  0.69407471  0.70332143  1
  Zr  Zr43  1  0.69772332  0.49731591  0.30539820  1
  Zr  Zr44  1  0.70272847  0.09971575  0.29966858  1
  Zr  Zr45  1  0.69934997  0.29210829  0.09469825  1
  Zr  Zr46  1  0.09634974  0.30043201  0.30731066  1
  Zr  Zr47  1  0.69697678  0.70618491  0.10272660  1
  Zr  Zr48  1  0.09060505  0.51144078  0.09749972  1
  Zr  Zr49  1  0.50141986  0.69550563  0.89609479  1
  Sc  Sc50  1  0.51414373  0.30184496  0.89951149  1
  Sc  Sc51  1  0.10135602  0.90240611  0.69804662  1
  Sc  Sc52  1  0.50486171  0.09664400  0.89543319  1
  Sc  Sc53  1  0.71029962  0.89896058  0.49840342  1
  Sc  Sc54  1  0.09839318  0.09353693  0.88772505  1
  Sc  Sc55  1  0.90812883  0.90370950  0.50406363  1
  Sc  Sc56  1  0.89256861  0.30416572  0.09345482  1
  Sc  Sc57  1  0.09478578  0.50279556  0.68891169  1
  Sc  Sc58  1  0.69041766  0.49812357  0.89578426  1
  Sc  Sc59  1  0.49479989  0.89609119  0.29910431  1
  Sc  Sc60  1  0.30164431  0.50460253  0.69360109  1
  Sc  Sc61  1  0.89975273  0.29854634  0.49975768  1
  Sc  Sc62  1  0.29675620  0.69514956  0.69501558  1
  Sc  Sc63  1  0.50513063  0.69737212  0.09840476  1
  Sc  Sc64  1  0.49697149  0.69842725  0.50053641  1
  Sc  Sc65  1  0.90436995  0.10316637  0.30140285  1
  Sc  Sc66  1  0.90338666  0.10388657  0.49837594  1
  Sc  Sc67  1  0.50732252  0.09524658  0.69962661  1
  Sc  Sc68  1  0.09541385  0.10159678  0.10642094  1
  Sc  Sc69  1  0.69637890  0.10945704  0.50453225  1
  Sc  Sc70  1  0.10418557  0.70427604  0.69900726  1
  Sc  Sc71  1  0.90462795  0.70011951  0.10654539  1
  Sc  Sc72  1  0.50000796  0.90406777  0.70153130  1
  Sc  Sc73  1  0.29386905  0.09836306  0.69405032  1
  Sc  Sc74  1  0.69745177  0.50330043  0.10270152  1
  Sc  Sc75  1  0.49174772  0.30496879  0.10069910  1
  Sc  Sc76  1  0.31371824  0.29949886  0.29920863  1
  Sc  Sc77  1  0.49177263  0.89540703  0.50696664  1
  Sc  Sc78  1  0.29613247  0.11114300  0.10122776  1
  Sc  Sc79  1  0.70067794  0.29158806  0.69917658  1
  Sc  Sc80  1  0.29951916  0.70563351  0.09744744  1
  Sc  Sc81  1  0.89569763  0.90246111  0.09656392  1
  Sc  Sc82  1  0.90195675  0.70525518  0.50046586  1
  Sc  Sc83  1  0.49552972  0.68833746  0.30044341  1
  Sc  Sc84  1  0.50267771  0.10104614  0.09404580  1
  Sc  Sc85  1  0.90848260  0.89306900  0.70584732  1
  Sc  Sc86  1  0.50358462  0.29070234  0.69147329  1
  Sc  Sc87  1  0.49930793  0.49921999  0.10211281  1
  Sc  Sc88  1  0.70122583  0.29799985  0.49493871  1
  Sc  Sc89  1  0.50213139  0.29237689  0.49763116  1
  Sc  Sc90  1  0.89531562  0.70574806  0.29894359  1
  Sc  Sc91  1  0.10284839  0.08881542  0.50499842  1
  Sc  Sc92  1  0.08928491  0.70193726  0.29527321  1
  Sc  Sc93  1  0.30416274  0.08626668  0.89184056  1
  Sc  Sc94  1  0.09958315  0.49555412  0.49608343  1
  Sc  Sc95  1  0.89707312  0.71480974  0.89294762  1
  Sc  Sc96  1  0.29963299  0.89920987  0.69536880  1
  Sc  Sc97  1  0.30625298  0.49332174  0.09431707  1
  Sc  Sc98  1  0.90647414  0.50028162  0.51295602  1
  Sc  Sc99  1  0.49754902  0.90779211  0.89802517  1
  Nb  Nb100  1  0.90018614  0.10225471  0.89934367  1
  Nb  Nb101  1  0.90105650  0.49729647  0.89414771  1
  Nb  Nb102  1  0.09592238  0.50629610  0.90223412  1
  Nb  Nb103  1  0.49794471  0.50252937  0.69846446  1
  Nb  Nb104  1  0.10973190  0.29097683  0.70862815  1
  Nb  Nb105  1  0.50122672  0.29331689  0.30243984  1
  Nb  Nb106  1  0.30225563  0.89943655  0.10182617  1
  Nb  Nb107  1  0.29826990  0.89886369  0.29950908  1
  Nb  Nb108  1  0.49934436  0.49087022  0.31469382  1
  Nb  Nb109  1  0.89980015  0.49868749  0.71237921  1
  Nb  Nb110  1  0.69802978  0.09721960  0.70251297  1
  Nb  Nb111  1  0.69832091  0.29933318  0.30504526  1
  Nb  Nb112  1  0.69879194  0.70645594  0.70269596  1
  Nb  Nb113  1  0.09839498  0.30719543  0.89180685  1
  Nb  Nb114  1  0.70363560  0.70404048  0.30269222  1
  Nb  Nb115  1  0.10102284  0.10120634  0.69556808  1
  Nb  Nb116  1  0.10115782  0.88154078  0.89924636  1
  Nb  Nb117  1  0.10369705  0.70025874  0.90088533  1
  Nb  Nb118  1  0.29809402  0.29618739  0.70171579  1
  Nb  Nb119  1  0.29974834  0.09821243  0.49843618  1
  Nb  Nb120  1  0.69728714  0.90392580  0.10256540  1
  Nb  Nb121  1  0.10276787  0.49735749  0.30199003  1
  Nb  Nb122  1  0.49703490  0.10449761  0.30152378  1
  Nb  Nb123  1  0.69650871  0.29377101  0.90308215  1
  Nb  Nb124  1  0.50182202  0.49933528  0.49627301  1
  Nb  Nb125  1  0.39852009  0.39421317  0.79345155  1
  Nb  Nb126  1  0.00949829  0.20224108  0.61008343  1
  Nb  Nb127  1  0.39500950  0.20608993  -0.01155278  1
  Nb  Nb128  1  0.20548452  0.19830832  0.40639986  1
  Nb  Nb129  1  0.39475514  0.20727278  0.79982068  1
  Nb  Nb130  1  0.39512723  -0.00061764  0.20060605  1
  Nb  Nb131  1  0.59756953  -0.00153076  0.39644504  1
  Nb  Nb132  1  0.59900993  0.39338443  0.21347357  1
  Nb  Nb133  1  0.79482375  0.60130422  0.40100580  1
  Nb  Nb134  1  0.60561439  0.80038324  0.39735318  1
  Nb  Nb135  1  0.19957007  -0.00966625  0.00439962  1
  Nb  Nb136  1  0.20086428  0.59564556  0.20475860  1
  Nb  Nb137  1  -0.00177836  0.59646550  0.80541978  1
  Nb  Nb138  1  0.59872709  0.20233851  0.20608086  1
  Nb  Nb139  1  0.59684845  0.40887672  0.59830578  1
  Nb  Nb140  1  0.80082314  0.60033546  -0.00689798  1
  Nb  Nb141  1  0.79997661  0.00615718  0.61325959  1
  Nb  Nb142  1  0.39876791  0.59961284  -0.00822939  1
  Nb  Nb143  1  0.00336314  0.39981374  0.20095269  1
  Nb  Nb144  1  0.79953179  0.00568128  0.80023885  1
  Nb  Nb145  1  0.19490075  0.40477022  0.20464494  1
  Nb  Nb146  1  0.39856981  0.79441574  0.80048661  1
  Nb  Nb147  1  0.20569550  -0.00601763  0.20075158  1
  Nb  Nb148  1  0.20187509  0.59704162  0.39266524  1
  Nb  Nb149  1  0.00108680  0.20349644  -0.01358385  1
  Pd  Pd150  1  0.19806851  0.41260592  0.78864448  1
  Pd  Pd151  1  0.39490140  0.00227583  0.60354422  1
  Pd  Pd152  1  0.40934592  0.39711663  0.60452357  1
  Pd  Pd153  1  0.40046098  0.60224432  0.59471550  1
  Pd  Pd154  1  0.81077034  0.00141598  0.19838365  1
  Pd  Pd155  1  0.39266867  0.00976888  0.00793288  1
  Pd  Pd156  1  0.01202774  0.00658521  -0.00307553  1
  Pd  Pd157  1  0.79497731  0.00896338  0.41234683  1
  Pd  Pd158  1  0.19717094  -0.00930720  0.80095254  1
  Pd  Pd159  1  0.40403299  0.79272221  -0.00375133  1
  Pd  Pd160  1  0.59789409  0.59304415  0.20643659  1
  Pd  Pd161  1  0.80860220  0.19821881  0.60186615  1
  Pd  Pd162  1  0.60600976  -0.00308888  0.58748063  1
  Pd  Pd163  1  0.18876030  0.40904969  0.00748153  1
  Pd  Pd164  1  0.59910859  0.39377836  0.78540537  1
  Pd  Pd165  1  0.79388350  0.39663247  0.60039514  1
  Pd  Pd166  1  -0.00003593  0.00267788  0.40348262  1
  Pd  Pd167  1  0.00477265  0.39272604  0.60588220  1
  Pd  Pd168  1  0.19742297  0.79631999  0.20147144  1
  Pd  Pd169  1  0.60085001  0.60096663  0.79184102  1
  Pd  Pd170  1  0.78408115  0.39825669  0.80253727  1
  Pd  Pd171  1  0.80385658  0.79516196  0.00777472  1
  Pd  Pd172  1  0.59647606  0.80409140  -0.00505284  1
  Pd  Pd173  1  0.79798912  0.39779471  0.19906848  1
  Pd  Pd174  1  0.00294244  -0.00572346  0.79901675  1
  Pd  Pd175  1  -0.00294514  -0.00509954  0.20312775  1
  Pd  Pd176  1  0.79613633  0.60493001  0.19879983  1
  Pd  Pd177  1  0.19683709  0.18500504  -0.01410840  1
  Pd  Pd178  1  0.80697986  0.59879201  0.59376508  1
  Pd  Pd179  1  0.40790919  0.80219628  0.19582564  1
  Pd  Pd180  1  0.80507290  0.81034396  0.60430682  1
  Pd  Pd181  1  0.18807380  0.59500355  0.79011761  1
  Pd  Pd182  1  -0.01396649  0.61287826  -0.01263576  1
  Pd  Pd183  1  0.20835192  0.20233524  0.21311918  1
  Pd  Pd184  1  0.00306922  0.79765018  0.40304687  1
  Pd  Pd185  1  0.79808240  0.19726694  0.19866939  1
  Pd  Pd186  1  0.79727985  0.20065133  0.80307638  1
  Pd  Pd187  1  0.00040263  0.79437862  0.60530265  1
  Pd  Pd188  1  0.59248077  0.79592328  0.20724937  1
  Pd  Pd189  1  0.19905678  0.40473666  0.60672618  1
  Pd  Pd190  1  0.39608875  0.59745301  0.18934468  1
  Pd  Pd191  1  -0.01020596  0.40212233  0.39912770  1
  Pd  Pd192  1  0.60089074  0.40173536  0.01004633  1
  Pd  Pd193  1  0.20613549  0.19088337  0.80695689  1
  Pd  Pd194  1  0.60268296  0.61079227  0.39979819  1
  Pd  Pd195  1  0.80828184  0.40570624  0.40686247  1
  Pd  Pd196  1  -0.00871270  0.80932437  0.20161560  1
  Pd  Pd197  1  -0.00211717  0.60150897  0.39961830  1
  Pd  Pd198  1  0.78687564  0.40725238  -0.00737301  1
  Pd  Pd199  1  0.00690397  0.39282607  0.00376708  1
  Rh  Rh200  1  0.00686809  0.20394430  0.80215528  1
  Rh  Rh201  1  0.01038792  0.19694842  0.41609597  1
  Rh  Rh202  1  0.19574220  0.19409103  0.59584440  1
  Rh  Rh203  1  -0.01311808  0.21115808  0.18518863  1
  Rh  Rh204  1  0.80844961  0.20364977  -0.00898620  1
  Rh  Rh205  1  0.40872050  -0.00656228  0.39625453  1
  Rh  Rh206  1  0.39412842  0.20522498  0.40694518  1
  Rh  Rh207  1  -0.00593097  0.00697728  0.60512353  1
  Rh  Rh208  1  0.19496359  0.00876150  0.39384399  1
  Rh  Rh209  1  0.40764725  0.40301800  0.20639375  1
  Rh  Rh210  1  0.40881904  0.19347883  0.18842406  1
  Rh  Rh211  1  0.20329401  0.59441708  0.58720059  1
  Rh  Rh212  1  0.59501741  0.19981873  0.79724105  1
  Rh  Rh213  1  0.40473970  0.38832019  0.40722120  1
  Rh  Rh214  1  0.00168060  0.59858617  0.20532888  1
  Rh  Rh215  1  0.01365582  0.40948272  0.79657274  1
  Rh  Rh216  1  0.59512240  0.59597237  0.60516849  1
  Rh  Rh217  1  -0.00521485  0.79531555  -0.00219577  1
  Rh  Rh218  1  0.59383866  0.39108580  0.40501809  1
  Rh  Rh219  1  0.39497235  0.60298527  0.40804797  1
  Rh  Rh220  1  0.40445566  0.40006373  -0.01602101  1
  Rh  Rh221  1  0.59792583  0.80633341  0.59341320  1
  Rh  Rh222  1  0.79990249  0.19690893  0.40145363  1
  Rh  Rh223  1  0.79807467  0.81131609  0.79470095  1
  Rh  Rh224  1  0.20074044  0.80272078  0.00267938  1
  Rh  Rh225  1  0.60104674  0.59943493  0.00381432  1
  Rh  Rh226  1  0.21301924  0.39669005  0.39441492  1
  Rh  Rh227  1  0.79524534  0.00066932  -0.00677213  1
  Rh  Rh228  1  0.39745900  0.79855113  0.60804794  1
  Rh  Rh229  1  0.19040290  0.78871439  0.39619726  1
  Rh  Rh230  1  0.80155695  0.80250843  0.19433866  1
  Rh  Rh231  1  0.60168172  0.20249421  0.59962682  1
  Rh  Rh232  1  0.59022680  0.80234425  0.80323758  1
  Rh  Rh233  1  0.40076835  0.19076008  0.60802919  1
  Rh  Rh234  1  -0.00653153  0.60426642  0.60998674  1
  Rh  Rh235  1  0.00791669  0.79193013  0.79944072  1
  Rh  Rh236  1  0.60714483  0.00021334  0.80620128  1
  Rh  Rh237  1  0.40116730  -0.00132000  0.79093943  1
  Rh  Rh238  1  0.20306633  0.80500112  0.60078766  1
  Rh  Rh239  1  0.20373240  -0.00344369  0.59924349  1
  Rh  Rh240  1  0.58911281  0.00826359  0.20544180  1
  Rh  Rh241  1  0.60412012  -0.00323360  -0.00439237  1
  Rh  Rh242  1  0.60316847  0.19244275  0.39583810  1
  Rh  Rh243  1  0.39988051  0.59913804  0.80153273  1
  Rh  Rh244  1  0.58961851  0.20399569  0.00720695  1
  Rh  Rh245  1  0.41029031  0.80159192  0.39913744  1
  Rh  Rh246  1  0.20367490  0.80120838  0.79366454  1
  Rh  Rh247  1  0.80319403  0.60023764  0.80950564  1
  Rh  Rh248  1  0.20842498  0.59669404  0.00917984  1
  Rh  Rh249  1  0.79513906  0.79265988  0.40547503  1
