# generated using pymatgen
data_ZrScNbPdRh
_symmetry_space_group_name_H-M   'P 1'
_cell_length_a   16.55837068
_cell_length_b   16.55938634
_cell_length_c   16.55531843
_cell_angle_alpha   90.03399579
_cell_angle_beta   89.98752243
_cell_angle_gamma   90.03575181
_symmetry_Int_Tables_number   1
_chemical_formula_structural   ZrScNbPdRh
_chemical_formula_sum   'Zr50 Sc50 Nb50 Pd50 Rh50'
_cell_volume   4539.40787253
_cell_formula_units_Z   50
loop_
 _symmetry_equiv_pos_site_id
 _symmetry_equiv_pos_as_xyz
  1  'x, y, z'
loop_
 _atom_site_type_symbol
 _atom_site_label
 _atom_site_symmetry_multiplicity
 _atom_site_fract_x
 _atom_site_fract_y
 _atom_site_fract_z
 _atom_site_occupancy
  Zr  Zr0  1  0.29948521  0.69224959  0.70156285  1
  Zr  Zr1  1  0.30474930  0.10015342  0.51062552  1
  Zr  Zr2  1  0.90284956  0.50258503  0.89856843  1
  Zr  Zr3  1  0.50441618  0.49907549  0.89880759  1
  Zr  Zr4  1  0.69266739  0.50017945  0.29975074  1
  Zr  Zr5  1  0.90145998  0.10059886  0.49375214  1
  Zr  Zr6  1  0.30499635  0.69913631  0.10688069  1
  Zr  Zr7  1  0.49761782  0.10194825  0.50395142  1
  Zr  Zr8  1  0.89922498  0.30015076  0.08994777  1
  Zr  Zr9  1  0.30193818  0.09849789  0.30231794  1
  Zr  Zr10  1  0.69542535  0.50149149  0.50330391  1
  Zr  Zr11  1  0.70094576  0.89297557  0.69986875  1
  Zr  Zr12  1  0.10364672  0.50508438  0.30293608  1
  Zr  Zr13  1  0.70641511  0.10448775  0.49939461  1
  Zr  Zr14  1  0.30454526  0.90557938  0.50157107  1
  Zr  Zr15  1  0.69955053  0.89549989  0.90242428  1
  Zr  Zr16  1  0.10541289  0.09366351  0.51688511  1
  Zr  Zr17  1  0.89026612  0.89238880  0.90375010  1
  Zr  Zr18  1  0.50135623  0.30915544  0.30215270  1
  Zr  Zr19  1  0.70219520  0.90360768  0.09775767  1
  Zr  Zr20  1  0.09904556  0.50236689  0.49922907  1
  Zr  Zr21  1  0.69192220  0.09448248  0.10843004  1
  Zr  Zr22  1  0.09502464  0.69005282  0.69550310  1
  Zr  Zr23  1  0.10356431  0.70868812  0.29713410  1
  Zr  Zr24  1  0.49809750  0.90070420  0.50282698  1
  Zr  Zr25  1  0.90481887  0.29436484  0.29515630  1
  Zr  Zr26  1  0.90052772  0.50558561  0.29913519  1
  Zr  Zr27  1  0.10670867  0.69219057  0.10117001  1
  Zr  Zr28  1  0.89359014  0.09786539  0.30106502  1
  Zr  Zr29  1  0.29524132  0.30584482  0.30143221  1
  Zr  Zr30  1  0.50334525  0.49955743  0.50441469  1
  Zr  Zr31  1  0.90405796  0.10368800  0.71035247  1
  Zr  Zr32  1  0.50473953  0.70518502  0.49389809  1
  Zr  Zr33  1  0.89827396  0.89595625  0.69700426  1
  Zr  Zr34  1  0.09745468  0.90100859  0.11053263  1
  Zr  Zr35  1  0.29300650  0.50264940  0.09653657  1
  Zr  Zr36  1  0.09960455  0.30342075  0.70426438  1
  Zr  Zr37  1  0.50217912  0.09259231  0.10271759  1
  Zr  Zr38  1  0.50114040  0.70348030  0.28948071  1
  Zr  Zr39  1  0.29958824  0.11282313  0.69850902  1
  Zr  Zr40  1  0.30841446  0.89593652  0.09712688  1
  Zr  Zr41  1  0.30175752  0.70232912  0.90150516  1
  Zr  Zr42  1  0.89996836  0.70029457  0.10599190  1
  Zr  Zr43  1  0.70504298  0.69362709  0.50061446  1
  Zr  Zr44  1  0.89581203  0.68760112  0.70020520  1
  Zr  Zr45  1  0.09765570  0.89620697  0.49577507  1
  Zr  Zr46  1  0.09283780  0.10109356  0.89925292  1
  Zr  Zr47  1  0.88829930  0.29956981  0.89514218  1
  Zr  Zr48  1  0.69778718  0.10467547  0.70113158  1
  Zr  Zr49  1  0.70820056  0.69980084  0.89858235  1
  Sc  Sc50  1  0.69727625  0.50130023  0.90153281  1
  Sc  Sc51  1  0.70407174  0.89201257  0.50673707  1
  Sc  Sc52  1  0.09866493  0.30120911  0.29759418  1
  Sc  Sc53  1  0.90932894  0.09783045  0.10351136  1
  Sc  Sc54  1  0.09335214  0.90923877  0.90075412  1
  Sc  Sc55  1  0.70002280  0.69735275  0.69952323  1
  Sc  Sc56  1  0.30272102  0.29951733  0.89433317  1
  Sc  Sc57  1  0.29531402  0.70103653  0.49702597  1
  Sc  Sc58  1  0.09958855  0.10459927  0.70674954  1
  Sc  Sc59  1  0.90126267  0.51038725  0.49735293  1
  Sc  Sc60  1  0.90511852  0.89985389  0.49884182  1
  Sc  Sc61  1  0.09539544  0.29560540  0.10599141  1
  Sc  Sc62  1  0.10129392  0.30000383  0.89688068  1
  Sc  Sc63  1  0.49920289  0.69360660  0.70094953  1
  Sc  Sc64  1  0.69913227  0.69619107  0.10723190  1
  Sc  Sc65  1  0.70685498  0.90028173  0.29455824  1
  Sc  Sc66  1  0.50140128  0.49570505  0.29809371  1
  Sc  Sc67  1  0.29966219  0.49393476  0.29781387  1
  Sc  Sc68  1  0.49873898  0.69306790  0.89722391  1
  Sc  Sc69  1  0.30742280  0.90225161  0.90089395  1
  Sc  Sc70  1  0.29984284  0.89265449  0.29896563  1
  Sc  Sc71  1  0.49843387  0.11204231  0.69979023  1
  Sc  Sc72  1  0.90513780  0.10474713  0.90284390  1
  Sc  Sc73  1  0.09945723  0.69715489  0.48833655  1
  Sc  Sc74  1  0.49243351  0.11008824  0.89783797  1
  Sc  Sc75  1  0.49778285  0.30404163  0.70437803  1
  Sc  Sc76  1  0.09041163  0.91356454  0.69244043  1
  Sc  Sc77  1  0.09813818  0.10375489  0.28206604  1
  Sc  Sc78  1  0.50453329  0.09481041  0.29730910  1
  Sc  Sc79  1  0.69250243  0.50528526  0.69785326  1
  Sc  Sc80  1  0.50160362  0.31117197  0.50931683  1
  Sc  Sc81  1  0.70250960  0.70076661  0.30340443  1
  Sc  Sc82  1  0.69653754  0.29982326  0.71407700  1
  Sc  Sc83  1  0.89266038  0.89929130  0.10651761  1
  Sc  Sc84  1  0.69566929  0.10862427  0.90498066  1
  Sc  Sc85  1  0.29830477  0.48948637  0.90448606  1
  Sc  Sc86  1  0.50025006  0.50886577  0.09547391  1
  Sc  Sc87  1  0.89873546  0.69969040  0.49775510  1
  Sc  Sc88  1  0.29746077  0.30474097  0.09936557  1
  Sc  Sc89  1  0.50149814  0.89513622  0.30427619  1
  Sc  Sc90  1  0.49978426  0.30159014  0.89941718  1
  Sc  Sc91  1  0.90695739  0.29910348  0.48579685  1
  Sc  Sc92  1  0.69533592  0.50295426  0.09376314  1
  Sc  Sc93  1  0.50125812  0.30232313  0.09408209  1
  Sc  Sc94  1  0.31405999  0.90445636  0.69812841  1
  Sc  Sc95  1  0.29955521  0.49749360  0.49387756  1
  Sc  Sc96  1  0.29901140  0.09042690  0.10380548  1
  Sc  Sc97  1  0.90535287  0.49853443  0.09421057  1
  Sc  Sc98  1  0.90721711  0.89832907  0.29628713  1
  Sc  Sc99  1  0.49193276  0.89581989  0.89805108  1
  Nb  Nb100  1  0.90082683  0.69886620  0.29903207  1
  Nb  Nb101  1  0.09439494  0.49872362  0.70260631  1
  Nb  Nb102  1  0.10489167  0.30070832  0.49822691  1
  Nb  Nb103  1  0.10216449  0.50795045  0.90519394  1
  Nb  Nb104  1  0.91176159  0.49482357  0.69674908  1
  Nb  Nb105  1  0.70296468  0.30512060  0.49924038  1
  Nb  Nb106  1  0.29766460  0.29924620  0.50211601  1
  Nb  Nb107  1  0.29350956  0.69526747  0.29780530  1
  Nb  Nb108  1  0.50220534  0.89426211  0.10232954  1
  Nb  Nb109  1  0.70496469  0.30134389  0.90993083  1
  Nb  Nb110  1  0.09856847  0.69534892  0.90033128  1
  Nb  Nb111  1  0.10149115  0.89432297  0.30416810  1
  Nb  Nb112  1  0.90099419  0.69856892  0.89985594  1
  Nb  Nb113  1  0.49762204  0.50140004  0.69671568  1
  Nb  Nb114  1  0.50668378  0.90192748  0.69868835  1
  Nb  Nb115  1  0.69967357  0.10151434  0.30235313  1
  Nb  Nb116  1  0.89891903  0.30441792  0.70251252  1
  Nb  Nb117  1  0.49876136  0.70612320  0.09867445  1
  Nb  Nb118  1  0.29683217  0.10137777  0.89714025  1
  Nb  Nb119  1  0.29332556  0.30267449  0.69987239  1
  Nb  Nb120  1  0.29500616  0.49689648  0.70005389  1
  Nb  Nb121  1  0.10229034  0.50390764  0.08332082  1
  Nb  Nb122  1  0.70448682  0.29817182  0.09740316  1
  Nb  Nb123  1  0.69719430  0.30145310  0.29946924  1
  Nb  Nb124  1  0.10170509  0.10039254  0.09538345  1
  Nb  Nb125  1  0.79377243  -0.00124395  0.80141555  1
  Nb  Nb126  1  0.19894926  0.19028740  0.00044602  1
  Nb  Nb127  1  0.59596576  0.79906846  0.00495760  1
  Nb  Nb128  1  0.19442125  0.79925581  -0.00355121  1
  Nb  Nb129  1  0.20370833  0.19681825  0.40626719  1
  Nb  Nb130  1  0.19541100  0.59514873  0.80066910  1
  Nb  Nb131  1  0.79564299  0.39389363  0.19993281  1
  Nb  Nb132  1  0.19285598  0.80076945  0.79818578  1
  Nb  Nb133  1  0.19791512  0.00177229  0.39922744  1
  Nb  Nb134  1  -0.00334027  0.20852203  0.60102042  1
  Nb  Nb135  1  0.79151639  0.20266871  0.20167837  1
  Nb  Nb136  1  0.59943664  -0.00324847  0.79664070  1
  Nb  Nb137  1  0.40050239  0.60421154  0.39490214  1
  Nb  Nb138  1  0.60306266  0.20297639  0.39970496  1
  Nb  Nb139  1  0.40044491  0.20195973  0.20521220  1
  Nb  Nb140  1  0.60611683  0.00490638  0.40361960  1
  Nb  Nb141  1  0.00062299  0.79229024  0.80372356  1
  Nb  Nb142  1  0.40124078  0.20567612  0.40081024  1
  Nb  Nb143  1  0.00141966  0.79268594  -0.00227506  1
  Nb  Nb144  1  0.79542559  0.39903977  0.39656669  1
  Nb  Nb145  1  0.80577498  0.39611642  0.59972410  1
  Nb  Nb146  1  0.19909906  0.39971062  0.60384194  1
  Nb  Nb147  1  0.20532802  0.00103952  0.80089548  1
  Nb  Nb148  1  0.19828968  0.80098708  0.60583018  1
  Nb  Nb149  1  0.80623925  0.21018826  0.60062901  1
  Pd  Pd150  1  -0.00745226  -0.00824530  0.00536442  1
  Pd  Pd151  1  0.39217019  0.40079984  0.60216234  1
  Pd  Pd152  1  0.40329247  0.00794089  0.79595713  1
  Pd  Pd153  1  0.20010540  -0.00540900  0.20614071  1
  Pd  Pd154  1  0.80096578  0.18751561  0.00847253  1
  Pd  Pd155  1  0.59860662  0.00186244  0.60023558  1
  Pd  Pd156  1  0.40543647  -0.00420065  0.20631423  1
  Pd  Pd157  1  -0.00249025  0.40437827  0.39934768  1
  Pd  Pd158  1  0.80460258  0.80254395  0.39690438  1
  Pd  Pd159  1  0.60764255  0.80290532  0.19821288  1
  Pd  Pd160  1  0.38972352  0.19793130  0.00978925  1
  Pd  Pd161  1  0.19497219  0.38691958  -0.00079987  1
  Pd  Pd162  1  0.79276243  0.41042622  0.79444643  1
  Pd  Pd163  1  0.39896924  0.59697236  -0.00343753  1
  Pd  Pd164  1  0.00520749  0.39473606  -0.00763560  1
  Pd  Pd165  1  0.39882539  0.60035453  0.59053787  1
  Pd  Pd166  1  0.40187232  0.59360307  0.20500691  1
  Pd  Pd167  1  0.18899814  0.40446628  0.19400585  1
  Pd  Pd168  1  0.79564299  0.59311175  0.19858774  1
  Pd  Pd169  1  0.19984519  0.59676747  0.59888447  1
  Pd  Pd170  1  0.01056610  0.00584873  0.39232668  1
  Pd  Pd171  1  0.60236312  0.40154524  0.79970496  1
  Pd  Pd172  1  0.79796524  0.58896720  0.79592688  1
  Pd  Pd173  1  0.60066782  0.39874230  0.00154296  1
  Pd  Pd174  1  0.40126376  0.79877738  0.79353171  1
  Pd  Pd175  1  0.59372875  0.79779445  0.80596648  1
  Pd  Pd176  1  0.00070155  0.40689600  0.19599603  1
  Pd  Pd177  1  0.60055622  0.79236093  0.60114341  1
  Pd  Pd178  1  0.59523498  0.20374314  0.20316170  1
  Pd  Pd179  1  0.60443921  0.21206785  0.59790163  1
  Pd  Pd180  1  0.59682066  0.20306578  -0.00105008  1
  Pd  Pd181  1  0.80356080  0.01119010  -0.00329018  1
  Pd  Pd182  1  0.59322754  0.60261758  0.39373243  1
  Pd  Pd183  1  0.39339738  0.79356669  0.39477209  1
  Pd  Pd184  1  0.60194990  0.40216912  0.18695566  1
  Pd  Pd185  1  0.01749140  0.18937468  0.40258474  1
  Pd  Pd186  1  0.39476827  0.58726116  0.80314182  1
  Pd  Pd187  1  0.00198920  0.40018547  0.81080560  1
  Pd  Pd188  1  0.39986645  0.40173194  0.79997327  1
  Pd  Pd189  1  0.00227940  0.79176899  0.60038963  1
  Pd  Pd190  1  0.79589957  -0.01231229  0.40042370  1
  Pd  Pd191  1  0.40660883  0.00370343  -0.00363662  1
  Pd  Pd192  1  0.39713471  0.79340175  0.60519933  1
  Pd  Pd193  1  0.20139292  -0.00275413  -0.00646163  1
  Pd  Pd194  1  0.58908292  -0.00511743  -0.01190538  1
  Pd  Pd195  1  0.80518762  0.00612565  0.60443718  1
  Pd  Pd196  1  0.80098742  0.59819037  0.00399157  1
  Pd  Pd197  1  0.00705290  0.59532844  0.19725264  1
  Pd  Pd198  1  -0.00120828  0.39627086  0.59103107  1
  Pd  Pd199  1  0.40279549  0.39984588  0.18974798  1
  Rh  Rh200  1  0.19222419  0.21122713  0.59987256  1
  Rh  Rh201  1  0.00193142  0.59721950  0.80293859  1
  Rh  Rh202  1  -0.01129756  0.01073808  0.60159910  1
  Rh  Rh203  1  0.80394893  0.59044994  0.60347094  1
  Rh  Rh204  1  0.79629460  0.40685504  0.00205678  1
  Rh  Rh205  1  0.60808502  0.80961206  0.40130243  1
  Rh  Rh206  1  -0.00115774  0.79929176  0.19940673  1
  Rh  Rh207  1  0.20602397  -0.01239100  0.60693172  1
  Rh  Rh208  1  -0.00176786  0.59950045  0.59279001  1
  Rh  Rh209  1  0.59967451  0.20113319  0.80954065  1
  Rh  Rh210  1  0.20740193  0.59782721  0.39438693  1
  Rh  Rh211  1  0.40897531  0.00423666  0.61038278  1
  Rh  Rh212  1  0.79689774  0.78874068  0.01076742  1
  Rh  Rh213  1  -0.00695153  0.60438962  0.00228056  1
  Rh  Rh214  1  0.79388723  0.20922931  0.39804286  1
  Rh  Rh215  1  0.20132648  0.19525839  0.80713629  1
  Rh  Rh216  1  0.60106076  0.39733942  0.40598518  1
  Rh  Rh217  1  0.59521961  0.60465205  0.60322821  1
  Rh  Rh218  1  0.80046305  0.59705130  0.39635697  1
  Rh  Rh219  1  0.40314554  0.21215989  0.60059364  1
  Rh  Rh220  1  0.20960165  0.60451319  -0.00621399  1
  Rh  Rh221  1  0.39590170  0.20688561  0.79683213  1
  Rh  Rh222  1  0.60642446  0.39888536  0.61014234  1
  Rh  Rh223  1  0.80110626  0.79727490  0.20255933  1
  Rh  Rh224  1  0.20757361  0.20149339  0.19304248  1
  Rh  Rh225  1  0.00711540  0.20447820  -0.00012759  1
  Rh  Rh226  1  0.40422166  0.00216782  0.39876667  1
  Rh  Rh227  1  0.19751898  0.59159230  0.20121397  1
  Rh  Rh228  1  -0.00276674  0.21024314  0.79974840  1
  Rh  Rh229  1  -0.00578479  0.79383206  0.39376770  1
  Rh  Rh230  1  -0.00083628  0.60761719  0.39583479  1
  Rh  Rh231  1  0.40303397  0.40236953  -0.00037956  1
  Rh  Rh232  1  0.79607227  0.19772546  0.80048769  1
  Rh  Rh233  1  0.19715696  0.40898258  0.79716742  1
  Rh  Rh234  1  0.80652043  0.79919298  0.79204719  1
  Rh  Rh235  1  0.40326057  0.40461942  0.40684677  1
  Rh  Rh236  1  0.60070197  0.61217823  -0.00218016  1
  Rh  Rh237  1  0.19770682  0.39676387  0.40464183  1
  Rh  Rh238  1  0.39697502  0.80142735  0.20384381  1
  Rh  Rh239  1  0.59913165  -0.00961859  0.21043952  1
  Rh  Rh240  1  0.59823276  0.59804287  0.79918054  1
  Rh  Rh241  1  0.40354422  0.79788614  0.00062580  1
  Rh  Rh242  1  -0.00611395  0.19816325  0.19521343  1
  Rh  Rh243  1  0.20517709  0.80363485  0.19391647  1
  Rh  Rh244  1  0.20528896  0.80691073  0.40683296  1
  Rh  Rh245  1  0.80125737  0.00628641  0.20037136  1
  Rh  Rh246  1  0.80265104  0.79105237  0.59828281  1
  Rh  Rh247  1  0.00163608  -0.00149290  0.20214348  1
  Rh  Rh248  1  -0.00793510  -0.01075517  0.80106559  1
  Rh  Rh249  1  0.59698025  0.60116989  0.19895713  1
