# generated using pymatgen
data_ZrScNbPdRh
_symmetry_space_group_name_H-M   'P 1'
_cell_length_a   16.55704385
_cell_length_b   16.55670739
_cell_length_c   16.56711559
_cell_angle_alpha   89.96137882
_cell_angle_beta   89.99880402
_cell_angle_gamma   89.96170839
_symmetry_Int_Tables_number   1
_chemical_formula_structural   ZrScNbPdRh
_chemical_formula_sum   'Zr50 Sc50 Nb50 Pd50 Rh50'
_cell_volume   4541.54350841
_cell_formula_units_Z   50
loop_
 _symmetry_equiv_pos_site_id
 _symmetry_equiv_pos_as_xyz
  1  'x, y, z'
loop_
 _atom_site_type_symbol
 _atom_site_label
 _atom_site_symmetry_multiplicity
 _atom_site_fract_x
 _atom_site_fract_y
 _atom_site_fract_z
 _atom_site_occupancy
  Zr  Zr0  1  0.89632160  0.90261725  0.10142128  1
  Zr  Zr1  1  0.08991796  0.69411702  0.70242504  1
  Zr  Zr2  1  0.49002621  0.88710112  0.50390921  1
  Zr  Zr3  1  0.30295417  0.90050499  0.68897637  1
  Zr  Zr4  1  0.30263267  0.09624251  0.89754713  1
  Zr  Zr5  1  0.29061527  0.70121718  0.09873265  1
  Zr  Zr6  1  0.09958319  0.09389088  0.88988716  1
  Zr  Zr7  1  0.29473892  0.10952688  0.29456156  1
  Zr  Zr8  1  0.10390565  0.29483704  0.31295036  1
  Zr  Zr9  1  0.09775687  0.10355439  0.49729689  1
  Zr  Zr10  1  0.30586404  0.50108166  0.50425803  1
  Zr  Zr11  1  0.69859931  0.09870120  0.10687814  1
  Zr  Zr12  1  0.69774111  0.10522094  0.29911036  1
  Zr  Zr13  1  0.30861190  0.70895417  0.50348423  1
  Zr  Zr14  1  0.70278878  0.69024835  0.50346579  1
  Zr  Zr15  1  0.90239202  0.29570936  0.49685484  1
  Zr  Zr16  1  0.30183852  0.30379064  0.49729334  1
  Zr  Zr17  1  0.09587269  0.90281255  0.29469561  1
  Zr  Zr18  1  0.10002103  0.49916481  0.69704285  1
  Zr  Zr19  1  0.88942126  0.49243311  0.90311068  1
  Zr  Zr20  1  0.29177664  0.70099354  0.90010991  1
  Zr  Zr21  1  0.69983725  0.49401738  0.89990067  1
  Zr  Zr22  1  0.30334053  0.30445529  0.30301440  1
  Zr  Zr23  1  0.50802092  0.30806774  0.89060206  1
  Zr  Zr24  1  0.49770489  0.30357099  0.70201259  1
  Zr  Zr25  1  0.49387397  0.09369366  0.89564628  1
  Zr  Zr26  1  0.30056875  0.90021995  0.09481674  1
  Zr  Zr27  1  0.69540382  0.10635674  0.89690037  1
  Zr  Zr28  1  0.29703339  0.10105466  0.51299041  1
  Zr  Zr29  1  0.09854583  0.90165329  0.50121288  1
  Zr  Zr30  1  0.50695527  0.68664013  0.09703894  1
  Zr  Zr31  1  0.10668208  0.70506835  0.89432064  1
  Zr  Zr32  1  0.09607108  0.70288970  0.28889900  1
  Zr  Zr33  1  0.89953087  0.89727740  0.29867630  1
  Zr  Zr34  1  0.50702865  0.89841353  0.89698672  1
  Zr  Zr35  1  0.89890438  0.91066749  0.49563744  1
  Zr  Zr36  1  0.70373739  0.89370882  0.09729189  1
  Zr  Zr37  1  0.49899802  0.89440616  0.30314817  1
  Zr  Zr38  1  0.30522595  0.29950911  0.10564931  1
  Zr  Zr39  1  0.10093185  0.50087011  0.50133427  1
  Zr  Zr40  1  0.10255279  0.69719449  0.09792067  1
  Zr  Zr41  1  0.50564346  0.09975786  0.50961329  1
  Zr  Zr42  1  0.30393149  0.50858837  0.10733734  1
  Zr  Zr43  1  0.49630100  0.30026596  0.50348408  1
  Zr  Zr44  1  0.90391283  0.30229488  0.08826331  1
  Zr  Zr45  1  0.29874194  0.89904079  0.50191910  1
  Zr  Zr46  1  0.89388884  0.30481385  0.30270152  1
  Zr  Zr47  1  0.89316892  0.70204570  0.88485592  1
  Zr  Zr48  1  0.30027496  0.29367538  0.70120279  1
  Zr  Zr49  1  0.89198407  0.70416434  0.50224006  1
  Sc  Sc50  1  0.89312399  0.29901793  0.70311181  1
  Sc  Sc51  1  0.70410676  0.10141369  0.50685035  1
  Sc  Sc52  1  0.89708157  0.09293816  0.30707456  1
  Sc  Sc53  1  0.09866944  0.30145686  0.49722218  1
  Sc  Sc54  1  0.70764885  0.30664157  0.89322007  1
  Sc  Sc55  1  0.30022325  0.09433016  0.09715874  1
  Sc  Sc56  1  0.89627857  0.69709705  0.11102278  1
  Sc  Sc57  1  0.69557440  0.29599180  0.70820978  1
  Sc  Sc58  1  0.69737015  0.50416424  0.10238421  1
  Sc  Sc59  1  0.09615302  0.29630243  0.08973928  1
  Sc  Sc60  1  0.70274114  0.89838623  0.29424329  1
  Sc  Sc61  1  0.30033970  0.89273769  0.29267279  1
  Sc  Sc62  1  0.10649115  0.09846212  0.09846571  1
  Sc  Sc63  1  0.50542384  0.49589610  0.28428608  1
  Sc  Sc64  1  0.69570561  0.70921725  0.89456430  1
  Sc  Sc65  1  0.50181536  0.89527591  0.10510642  1
  Sc  Sc66  1  0.29499026  0.69823456  0.29978313  1
  Sc  Sc67  1  0.70443985  0.29740864  0.10812492  1
  Sc  Sc68  1  0.89641843  0.10116443  0.09940419  1
  Sc  Sc69  1  0.90163331  0.50403766  0.49204378  1
  Sc  Sc70  1  0.90693471  0.10519014  0.90584327  1
  Sc  Sc71  1  0.30136087  0.50566904  0.88797327  1
  Sc  Sc72  1  0.09680662  0.28585710  0.90220641  1
  Sc  Sc73  1  0.50937429  0.70511003  0.29658484  1
  Sc  Sc74  1  0.70066267  0.50507084  0.70454059  1
  Sc  Sc75  1  0.10768155  0.50565519  0.89539165  1
  Sc  Sc76  1  0.50132297  0.90846083  0.70057467  1
  Sc  Sc77  1  0.49619797  0.09663859  0.10644528  1
  Sc  Sc78  1  0.10241960  0.89865937  0.10358137  1
  Sc  Sc79  1  0.29646742  0.90225866  0.89709262  1
  Sc  Sc80  1  0.09969204  0.90565873  0.70734556  1
  Sc  Sc81  1  0.09915841  0.51349230  0.30739278  1
  Sc  Sc82  1  0.69628948  0.29330406  0.48895823  1
  Sc  Sc83  1  0.90284412  0.50687388  0.69791093  1
  Sc  Sc84  1  0.49548028  0.50755056  0.70329112  1
  Sc  Sc85  1  0.89945271  0.69564437  0.29865353  1
  Sc  Sc86  1  0.29560991  0.69734603  0.69897301  1
  Sc  Sc87  1  0.69310938  0.89774140  0.70991186  1
  Sc  Sc88  1  0.30597463  0.30399898  0.88807069  1
  Sc  Sc89  1  0.49932389  0.10491995  0.29292504  1
  Sc  Sc90  1  0.70252502  0.69456627  0.29377608  1
  Sc  Sc91  1  0.70619399  0.89801156  0.49521323  1
  Sc  Sc92  1  0.89280398  0.50077319  0.09607734  1
  Sc  Sc93  1  0.50364361  0.10017271  0.70364323  1
  Sc  Sc94  1  0.69907920  0.70189462  0.10358937  1
  Sc  Sc95  1  0.89558117  0.09509953  0.69953109  1
  Sc  Sc96  1  0.10676860  0.69553690  0.49460681  1
  Sc  Sc97  1  0.50031250  0.29900491  0.29354934  1
  Sc  Sc98  1  0.29765961  0.49927726  0.30689255  1
  Sc  Sc99  1  0.89906430  0.90097979  0.70421096  1
  Nb  Nb100  1  0.50243414  0.69432863  0.50483741  1
  Nb  Nb101  1  0.89947158  0.90453513  0.90082276  1
  Nb  Nb102  1  0.10382409  0.10369359  0.30012872  1
  Nb  Nb103  1  0.09056164  0.89677078  0.89761940  1
  Nb  Nb104  1  0.89943254  0.09712207  0.50552028  1
  Nb  Nb105  1  0.29959086  0.49093074  0.69870654  1
  Nb  Nb106  1  0.70760605  0.70010795  0.70063362  1
  Nb  Nb107  1  0.50449958  0.50527030  0.90626773  1
  Nb  Nb108  1  0.69962445  0.30556134  0.30236322  1
  Nb  Nb109  1  0.50105171  0.49877239  0.09360349  1
  Nb  Nb110  1  0.10015508  0.50505878  0.10082758  1
  Nb  Nb111  1  0.69501542  0.09992369  0.70270497  1
  Nb  Nb112  1  0.49838526  0.69836546  0.89762340  1
  Nb  Nb113  1  0.89086246  0.69993933  0.69608666  1
  Nb  Nb114  1  0.70822877  0.49011328  0.30806325  1
  Nb  Nb115  1  0.49865148  0.30429149  0.10188399  1
  Nb  Nb116  1  0.51065997  0.69579516  0.69924809  1
  Nb  Nb117  1  0.70136745  0.89706009  0.90347626  1
  Nb  Nb118  1  0.11039278  0.10863034  0.69858799  1
  Nb  Nb119  1  0.28992524  0.09881628  0.70206124  1
  Nb  Nb120  1  0.89529086  0.50380748  0.29517454  1
  Nb  Nb121  1  0.69848528  0.49459317  0.49575170  1
  Nb  Nb122  1  0.10052973  0.29384577  0.70137279  1
  Nb  Nb123  1  0.90306906  0.30596017  0.90254332  1
  Nb  Nb124  1  0.50133464  0.50470965  0.51093381  1
  Nb  Nb125  1  0.39841068  0.00114605  0.40233755  1
  Nb  Nb126  1  0.40835208  0.20876468  -0.00087468  1
  Nb  Nb127  1  0.59321208  -0.00168270  0.40109669  1
  Nb  Nb128  1  0.60213314  0.40500110  0.59588320  1
  Nb  Nb129  1  -0.00096392  0.39375990  0.80309450  1
  Nb  Nb130  1  -0.00672803  0.79703275  0.60050366  1
  Nb  Nb131  1  0.59954069  0.59091848  0.40475541  1
  Nb  Nb132  1  0.59432055  0.20090353  0.00179584  1
  Nb  Nb133  1  0.00023065  0.19516079  0.60118501  1
  Nb  Nb134  1  0.60425274  0.00080575  -0.00163797  1
  Nb  Nb135  1  -0.00038474  0.60522177  -0.00319849  1
  Nb  Nb136  1  0.40441789  0.79284157  -0.00585915  1
  Nb  Nb137  1  0.40662558  0.79425650  0.80126377  1
  Nb  Nb138  1  0.20078748  0.39782772  0.60610790  1
  Nb  Nb139  1  0.41248136  0.60185888  0.40582995  1
  Nb  Nb140  1  0.40566907  0.40557643  0.00105278  1
  Nb  Nb141  1  0.79570180  -0.00160321  0.81021620  1
  Nb  Nb142  1  -0.00320419  0.80018683  -0.00635301  1
  Nb  Nb143  1  0.00129219  0.20433414  0.20707718  1
  Nb  Nb144  1  0.60198510  0.78966434  0.60244574  1
  Nb  Nb145  1  0.79348214  0.39959436  0.59337072  1
  Nb  Nb146  1  0.20220663  0.00369483  0.39739440  1
  Nb  Nb147  1  0.20664853  0.40362747  0.00413229  1
  Nb  Nb148  1  0.00297161  0.40175040  0.20091332  1
  Nb  Nb149  1  0.19105288  0.40181710  0.19712057  1
  Pd  Pd150  1  0.80807876  0.19979955  0.20404436  1
  Pd  Pd151  1  0.60810128  0.79563586  0.40540182  1
  Pd  Pd152  1  0.80760996  0.79113367  -0.00011776  1
  Pd  Pd153  1  0.80075172  0.19403192  0.40026800  1
  Pd  Pd154  1  0.40323623  0.19295499  0.40053759  1
  Pd  Pd155  1  0.79866946  0.20538840  0.60224645  1
  Pd  Pd156  1  0.39728246  0.60359398  0.79443279  1
  Pd  Pd157  1  0.41231113  0.41116087  0.39480696  1
  Pd  Pd158  1  0.79741084  0.81188726  0.60648990  1
  Pd  Pd159  1  0.61246329  0.60417023  -0.00534964  1
  Pd  Pd160  1  -0.00020278  0.01099921  0.19654789  1
  Pd  Pd161  1  0.60084830  -0.00662729  0.20211202  1
  Pd  Pd162  1  0.79507299  0.00595737  -0.00486722  1
  Pd  Pd163  1  -0.00108637  0.79303662  0.40528691  1
  Pd  Pd164  1  0.18525410  0.79744189  0.60761197  1
  Pd  Pd165  1  0.20181345  -0.00695898  0.79839144  1
  Pd  Pd166  1  0.79899481  0.60949098  -0.00148039  1
  Pd  Pd167  1  0.39443113  0.59993128  -0.00421887  1
  Pd  Pd168  1  0.60595475  0.59970962  0.80528961  1
  Pd  Pd169  1  0.58907320  0.40242266  0.40232922  1
  Pd  Pd170  1  -0.00335170  0.39003452  0.60809218  1
  Pd  Pd171  1  0.19256553  -0.00484849  -0.00353264  1
  Pd  Pd172  1  0.60633440  0.39940474  0.19592138  1
  Pd  Pd173  1  0.19181036  0.20854703  0.19350510  1
  Pd  Pd174  1  -0.00350557  0.60759234  0.40156586  1
  Pd  Pd175  1  0.00431424  0.00233910  0.61040375  1
  Pd  Pd176  1  -0.00842548  0.19929664  0.79297363  1
  Pd  Pd177  1  -0.00067391  0.40876688  0.39207416  1
  Pd  Pd178  1  0.60699915  -0.01182163  0.59421209  1
  Pd  Pd179  1  0.40176780  0.19390601  0.60965103  1
  Pd  Pd180  1  0.79458364  0.79654277  0.39155896  1
  Pd  Pd181  1  -0.00535967  0.58954863  0.80840158  1
  Pd  Pd182  1  0.21166313  0.20495344  -0.00607039  1
  Pd  Pd183  1  0.00531768  -0.00230530  0.00506947  1
  Pd  Pd184  1  0.80286948  0.40367394  0.19404878  1
  Pd  Pd185  1  0.39477062  0.00025210  0.20553554  1
  Pd  Pd186  1  0.80683328  0.19365548  0.80199159  1
  Pd  Pd187  1  0.60413946  0.39321426  0.00619681  1
  Pd  Pd188  1  -0.00492574  0.80295083  0.79503555  1
  Pd  Pd189  1  0.59469829  0.19558892  0.39763329  1
  Pd  Pd190  1  0.40246145  0.78864274  0.19251993  1
  Pd  Pd191  1  0.79360374  0.20514492  -0.00324858  1
  Pd  Pd192  1  0.20034007  0.80442114  0.39379706  1
  Pd  Pd193  1  0.79132822  -0.00512383  0.61107614  1
  Pd  Pd194  1  0.20457429  0.59757802  0.60153778  1
  Pd  Pd195  1  0.01135613  0.41135541  -0.00507355  1
  Pd  Pd196  1  0.40342224  0.60544657  0.21171582  1
  Pd  Pd197  1  0.19077385  0.39268615  0.80336780  1
  Pd  Pd198  1  0.00421257  0.00509735  0.39597223  1
  Pd  Pd199  1  0.80175590  0.58735197  0.59909353  1
  Rh  Rh200  1  0.80535519  0.40035031  0.40603380  1
  Rh  Rh201  1  0.59695936  0.41203298  0.79046199  1
  Rh  Rh202  1  0.79454318  0.59425910  0.20290111  1
  Rh  Rh203  1  0.40967300  -0.00674490  0.00502501  1
  Rh  Rh204  1  0.39156861  -0.00478603  0.78913368  1
  Rh  Rh205  1  0.39695068  0.19188447  0.79928359  1
  Rh  Rh206  1  0.40055328  0.40023825  0.60657656  1
  Rh  Rh207  1  0.20486816  0.80544884  0.79434868  1
  Rh  Rh208  1  0.60853875  0.00229458  0.80435401  1
  Rh  Rh209  1  0.59323956  0.80166912  0.00361002  1
  Rh  Rh210  1  0.60674785  0.59171079  0.20568789  1
  Rh  Rh211  1  -0.00408024  0.80128515  0.19230838  1
  Rh  Rh212  1  0.41137293  0.78996828  0.61663025  1
  Rh  Rh213  1  0.40902509  0.41405168  0.80539770  1
  Rh  Rh214  1  0.40203153  0.19835771  0.19445750  1
  Rh  Rh215  1  -0.00579777  0.00610006  0.79840191  1
  Rh  Rh216  1  0.78872637  0.00601238  0.39970578  1
  Rh  Rh217  1  0.21183334  0.60326767  0.40379767  1
  Rh  Rh218  1  0.59673111  0.19971090  0.80152625  1
  Rh  Rh219  1  0.79942787  0.80929233  0.79699455  1
  Rh  Rh220  1  0.39499192  0.60396491  0.60357941  1
  Rh  Rh221  1  0.19627808  0.40575070  0.40291507  1
  Rh  Rh222  1  0.59733970  0.79512579  0.79347109  1
  Rh  Rh223  1  0.79549754  0.59728860  0.39428494  1
  Rh  Rh224  1  0.00063182  0.19097092  0.00746146  1
  Rh  Rh225  1  0.59973032  0.20973796  0.19747386  1
  Rh  Rh226  1  0.80254224  0.79906699  0.20299563  1
  Rh  Rh227  1  0.39971697  0.79408265  0.39362716  1
  Rh  Rh228  1  0.39598289  0.40399008  0.19800110  1
  Rh  Rh229  1  0.20807938  0.19536433  0.40789136  1
  Rh  Rh230  1  0.20381729  -0.00179807  0.20565088  1
  Rh  Rh231  1  0.40158995  0.00814851  0.60232388  1
  Rh  Rh232  1  0.79515771  0.59743115  0.80099507  1
  Rh  Rh233  1  -0.00900026  0.19096685  0.40122284  1
  Rh  Rh234  1  0.19942149  0.59496223  0.20811257  1
  Rh  Rh235  1  0.60755422  0.59844275  0.60069541  1
  Rh  Rh236  1  0.19258167  0.00001186  0.59847980  1
  Rh  Rh237  1  -0.00652342  0.61104563  0.59193342  1
  Rh  Rh238  1  0.80033471  -0.00025320  0.20343090  1
  Rh  Rh239  1  0.20262070  0.60039226  0.79038868  1
  Rh  Rh240  1  0.78960764  0.39361331  0.00546802  1
  Rh  Rh241  1  0.19810744  0.59142163  -0.00183559  1
  Rh  Rh242  1  0.60412218  0.20920010  0.60603220  1
  Rh  Rh243  1  -0.00682043  0.59093631  0.19259479  1
  Rh  Rh244  1  0.60232066  0.79908579  0.19617157  1
  Rh  Rh245  1  0.19373015  0.21011745  0.59545130  1
  Rh  Rh246  1  0.20445483  0.20054751  0.80801054  1
  Rh  Rh247  1  0.19629338  0.81094603  -0.00225435  1
  Rh  Rh248  1  0.80800456  0.40386582  0.78954975  1
  Rh  Rh249  1  0.19810145  0.80196110  0.19888212  1
