# generated using pymatgen
data_ZrScNbPdRh
_symmetry_space_group_name_H-M   'P 1'
_cell_length_a   16.55746401
_cell_length_b   16.55468032
_cell_length_c   16.56020843
_cell_angle_alpha   89.96288550
_cell_angle_beta   90.01590460
_cell_angle_gamma   90.01975608
_symmetry_Int_Tables_number   1
_chemical_formula_structural   ZrScNbPdRh
_chemical_formula_sum   'Zr50 Sc50 Nb50 Pd50 Rh50'
_cell_volume   4539.21008564
_cell_formula_units_Z   50
loop_
 _symmetry_equiv_pos_site_id
 _symmetry_equiv_pos_as_xyz
  1  'x, y, z'
loop_
 _atom_site_type_symbol
 _atom_site_label
 _atom_site_symmetry_multiplicity
 _atom_site_fract_x
 _atom_site_fract_y
 _atom_site_fract_z
 _atom_site_occupancy
  Zr  Zr0  1  0.29548851  0.49886743  0.28726044  1
  Zr  Zr1  1  0.30317684  0.90564603  0.49909158  1
  Zr  Zr2  1  0.69660774  0.10246922  0.10625240  1
  Zr  Zr3  1  0.10030568  0.51015386  0.30632295  1
  Zr  Zr4  1  0.90364557  0.70870526  0.50129978  1
  Zr  Zr5  1  0.90364362  0.89998955  0.49792773  1
  Zr  Zr6  1  0.50364527  0.10353273  0.09621437  1
  Zr  Zr7  1  0.89143418  0.10042032  0.10241531  1
  Zr  Zr8  1  0.71135202  0.11471164  0.49449388  1
  Zr  Zr9  1  0.30464150  0.09378994  0.29606737  1
  Zr  Zr10  1  0.29698213  0.90470656  0.69887074  1
  Zr  Zr11  1  0.50145957  0.11099316  0.28228306  1
  Zr  Zr12  1  0.49983580  0.09918551  0.89662099  1
  Zr  Zr13  1  0.70921295  0.69412047  0.30500666  1
  Zr  Zr14  1  0.91411017  0.29575401  0.89801006  1
  Zr  Zr15  1  0.29600557  0.30977000  0.09361511  1
  Zr  Zr16  1  0.90463510  0.49519697  0.50785678  1
  Zr  Zr17  1  0.29999861  0.69423019  0.50978068  1
  Zr  Zr18  1  0.70577742  0.90151692  0.50118483  1
  Zr  Zr19  1  0.90311040  0.29917649  0.10590227  1
  Zr  Zr20  1  0.09878842  0.29303465  0.08247813  1
  Zr  Zr21  1  0.10147281  0.90204845  0.29979100  1
  Zr  Zr22  1  0.30384209  0.68568119  0.09197631  1
  Zr  Zr23  1  0.10028734  0.09650009  0.30402551  1
  Zr  Zr24  1  0.70196660  0.29802720  0.09349974  1
  Zr  Zr25  1  0.50101659  0.70424333  0.09336526  1
  Zr  Zr26  1  0.89540523  0.09081594  0.89977213  1
  Zr  Zr27  1  0.70484728  0.49886316  0.10353173  1
  Zr  Zr28  1  0.70452084  0.70347515  0.50281389  1
  Zr  Zr29  1  0.30189241  0.50849023  0.69217277  1
  Zr  Zr30  1  0.49867364  0.89477383  0.89963152  1
  Zr  Zr31  1  0.29308442  0.89913573  0.10105832  1
  Zr  Zr32  1  0.70722279  0.89819257  0.69830127  1
  Zr  Zr33  1  0.30194691  0.90188159  0.89733671  1
  Zr  Zr34  1  0.49865780  0.69937593  0.30080393  1
  Zr  Zr35  1  0.90117045  0.49543192  0.11478822  1
  Zr  Zr36  1  0.31161186  0.29861003  0.69899939  1
  Zr  Zr37  1  0.09597366  0.89940660  0.91565936  1
  Zr  Zr38  1  0.49690499  0.70401452  0.50192222  1
  Zr  Zr39  1  0.29291601  0.90493599  0.30089292  1
  Zr  Zr40  1  0.70431313  0.49534361  0.31427205  1
  Zr  Zr41  1  0.90362330  0.90315306  0.09270817  1
  Zr  Zr42  1  0.08485584  0.09193673  0.10837461  1
  Zr  Zr43  1  0.09938521  0.28858714  0.50019489  1
  Zr  Zr44  1  0.49352900  0.69645689  0.70430249  1
  Zr  Zr45  1  0.30866316  0.70328807  0.89452602  1
  Zr  Zr46  1  0.70289462  0.90265699  0.09515567  1
  Zr  Zr47  1  0.89289310  0.29036111  0.50141228  1
  Zr  Zr48  1  0.69448564  0.30484302  0.90248872  1
  Zr  Zr49  1  0.30300851  0.09813094  0.89702736  1
  Sc  Sc50  1  0.10639130  0.49632626  0.10047305  1
  Sc  Sc51  1  0.70551901  0.69308160  0.89921006  1
  Sc  Sc52  1  0.10946106  0.09642471  0.68725759  1
  Sc  Sc53  1  0.69250991  0.50594154  0.71943813  1
  Sc  Sc54  1  0.49633280  0.49311043  0.70472576  1
  Sc  Sc55  1  0.30842599  0.09598901  0.10210507  1
  Sc  Sc56  1  0.30302180  0.09802598  0.69474677  1
  Sc  Sc57  1  0.50734896  0.09969860  0.51407823  1
  Sc  Sc58  1  0.90137703  0.89155790  0.70232073  1
  Sc  Sc59  1  0.48592612  0.90958802  0.30421622  1
  Sc  Sc60  1  0.09964120  0.69321392  0.49984552  1
  Sc  Sc61  1  0.29669492  0.70413860  0.70203878  1
  Sc  Sc62  1  0.30368977  0.50127781  0.91048429  1
  Sc  Sc63  1  0.69581342  0.29751544  0.31229537  1
  Sc  Sc64  1  0.90253626  0.70029028  0.70903172  1
  Sc  Sc65  1  0.29155435  0.50276334  0.49734402  1
  Sc  Sc66  1  0.69765371  0.28799344  0.70428868  1
  Sc  Sc67  1  0.69816522  0.10205984  0.90001776  1
  Sc  Sc68  1  0.10367910  0.70800583  0.09298264  1
  Sc  Sc69  1  0.90571077  0.29657830  0.69903689  1
  Sc  Sc70  1  0.50024876  0.30180415  0.88617106  1
  Sc  Sc71  1  0.10046530  0.70116400  0.89404099  1
  Sc  Sc72  1  0.08367368  0.50483744  0.69950790  1
  Sc  Sc73  1  0.50224473  0.29742254  0.11091793  1
  Sc  Sc74  1  0.50252341  0.50126714  0.49919093  1
  Sc  Sc75  1  0.10145840  0.29353897  0.30258235  1
  Sc  Sc76  1  0.10289849  0.89679915  0.69626250  1
  Sc  Sc77  1  0.49878882  0.90548969  0.50367183  1
  Sc  Sc78  1  0.89484307  0.10488352  0.70325487  1
  Sc  Sc79  1  0.29656787  0.29792725  0.29566546  1
  Sc  Sc80  1  0.50878892  0.49849667  0.89589361  1
  Sc  Sc81  1  0.90095722  0.50468303  0.89135225  1
  Sc  Sc82  1  0.69504916  0.09564110  0.70413266  1
  Sc  Sc83  1  0.69790069  0.50076210  0.90405157  1
  Sc  Sc84  1  0.09021959  0.30108621  0.70303591  1
  Sc  Sc85  1  0.09367612  0.90489121  0.49995308  1
  Sc  Sc86  1  0.49961673  0.70010575  0.90483270  1
  Sc  Sc87  1  0.28495282  0.69971686  0.30430961  1
  Sc  Sc88  1  0.09442435  0.49819300  0.89370158  1
  Sc  Sc89  1  0.28553008  0.10201964  0.50163463  1
  Sc  Sc90  1  0.89242738  0.89283974  0.90181192  1
  Sc  Sc91  1  0.10017173  0.10720568  0.91449896  1
  Sc  Sc92  1  0.50012007  0.90036620  0.08737288  1
  Sc  Sc93  1  0.70131587  0.69956902  0.09138973  1
  Sc  Sc94  1  0.29413994  0.29712649  0.49921799  1
  Sc  Sc95  1  0.50477486  0.91656281  0.69071356  1
  Sc  Sc96  1  0.48809608  0.49497732  0.10459417  1
  Sc  Sc97  1  0.90247644  0.09938217  0.29252607  1
  Sc  Sc98  1  0.89193505  0.69617690  0.10227949  1
  Sc  Sc99  1  0.09882002  0.69755984  0.69667408  1
  Nb  Nb100  1  0.70107184  0.30726844  0.49772329  1
  Nb  Nb101  1  0.90001981  0.49714913  0.70092372  1
  Nb  Nb102  1  0.49761951  0.11539464  0.70355006  1
  Nb  Nb103  1  0.70111306  0.70132949  0.70113163  1
  Nb  Nb104  1  0.70155995  0.49859428  0.50343642  1
  Nb  Nb105  1  0.09875182  0.49541953  0.50647004  1
  Nb  Nb106  1  0.90205324  0.31517203  0.29869622  1
  Nb  Nb107  1  0.70449293  0.89806446  0.89541458  1
  Nb  Nb108  1  0.90115814  0.70096959  0.90366622  1
  Nb  Nb109  1  0.70638120  0.90505481  0.29929777  1
  Nb  Nb110  1  0.49850837  0.29521396  0.69289079  1
  Nb  Nb111  1  0.09089356  0.70288382  0.30548368  1
  Nb  Nb112  1  0.50148590  0.49557410  0.29950132  1
  Nb  Nb113  1  0.90553707  0.69732435  0.30053512  1
  Nb  Nb114  1  0.29266832  0.29874986  0.90338265  1
  Nb  Nb115  1  0.50579363  0.30023173  0.49807731  1
  Nb  Nb116  1  0.90043486  0.50216281  0.29729444  1
  Nb  Nb117  1  0.29900210  0.49779210  0.09935730  1
  Nb  Nb118  1  0.09448738  0.89956571  0.10338397  1
  Nb  Nb119  1  0.10700234  0.30008474  0.90088782  1
  Nb  Nb120  1  0.49818087  0.30512758  0.30174625  1
  Nb  Nb121  1  0.90835916  0.09834240  0.50138108  1
  Nb  Nb122  1  0.89867103  0.89422530  0.30574437  1
  Nb  Nb123  1  0.69943743  0.09227819  0.29216515  1
  Nb  Nb124  1  0.09414789  0.09991788  0.49379619  1
  Nb  Nb125  1  0.60384736  0.39663597  0.59850957  1
  Nb  Nb126  1  0.39895284  0.59422334  0.39383592  1
  Nb  Nb127  1  -0.00227911  0.79872617  0.20500607  1
  Nb  Nb128  1  0.60443259  0.80089958  0.79699035  1
  Nb  Nb129  1  0.40845268  0.20592851  0.39925701  1
  Nb  Nb130  1  0.39780351  0.20458426  -0.00490900  1
  Nb  Nb131  1  0.79210677  0.40270719  0.60539533  1
  Nb  Nb132  1  -0.00210533  0.40223230  0.39993631  1
  Nb  Nb133  1  0.80157181  0.80248408  0.20722186  1
  Nb  Nb134  1  0.59973941  0.59835053  0.20509736  1
  Nb  Nb135  1  0.60775962  0.00475949  0.39302943  1
  Nb  Nb136  1  0.40441725  0.39974358  0.39530322  1
  Nb  Nb137  1  0.19394151  0.40072436  0.60522150  1
  Nb  Nb138  1  0.20260628  0.20630120  0.80349918  1
  Nb  Nb139  1  0.60481921  0.80784464  0.39415569  1
  Nb  Nb140  1  0.60615171  0.59865848  0.60245501  1
  Nb  Nb141  1  0.39771709  0.79729072  0.19810382  1
  Nb  Nb142  1  0.20240835  0.39621220  0.79836490  1
  Nb  Nb143  1  0.60216310  0.80028445  0.20690316  1
  Nb  Nb144  1  0.00280627  -0.00088301  0.80400384  1
  Nb  Nb145  1  0.79723810  0.59558700  0.60687893  1
  Nb  Nb146  1  0.80352935  0.39859172  0.79600277  1
  Nb  Nb147  1  -0.00417415  0.60281913  0.00004839  1
  Nb  Nb148  1  0.80562297  0.00466236  0.59349696  1
  Nb  Nb149  1  0.19761152  0.19524051  0.19217761  1
  Pd  Pd150  1  0.80944440  0.19776924  0.38572514  1
  Pd  Pd151  1  0.79828426  0.20514775  0.80513974  1
  Pd  Pd152  1  0.59480086  0.59177039  0.00772654  1
  Pd  Pd153  1  0.01469723  0.39657030  0.20610736  1
  Pd  Pd154  1  0.19918338  0.79195195  0.19826819  1
  Pd  Pd155  1  0.40236330  0.60350912  0.20247390  1
  Pd  Pd156  1  0.60020443  -0.00387097  0.80049146  1
  Pd  Pd157  1  0.39699133  0.79550355  0.39487020  1
  Pd  Pd158  1  0.59094222  -0.01247953  0.20166304  1
  Pd  Pd159  1  0.00577359  0.80542742  0.80306242  1
  Pd  Pd160  1  0.19501654  0.80321163  0.80161432  1
  Pd  Pd161  1  0.59489900  0.60345146  0.40354400  1
  Pd  Pd162  1  0.41121395  0.01848929  0.40917604  1
  Pd  Pd163  1  0.40046665  0.80677520  0.60754681  1
  Pd  Pd164  1  0.80533449  0.00867304  0.40014446  1
  Pd  Pd165  1  0.81300562  0.59639510  0.40932511  1
  Pd  Pd166  1  0.40177324  0.59172864  0.80656531  1
  Pd  Pd167  1  0.18912801  0.00789077  0.80279726  1
  Pd  Pd168  1  0.58970816  0.40023988  0.00633713  1
  Pd  Pd169  1  0.01354468  0.18586298  0.79671515  1
  Pd  Pd170  1  0.19480509  0.79969387  0.41190379  1
  Pd  Pd171  1  0.59517424  0.19240828  0.39630961  1
  Pd  Pd172  1  0.19046333  0.39128937  0.19849333  1
  Pd  Pd173  1  0.18986658  0.60785126  0.19667139  1
  Pd  Pd174  1  0.60671649  0.40154750  0.20144225  1
  Pd  Pd175  1  0.78796498  0.39229934  0.20747920  1
  Pd  Pd176  1  -0.00355897  0.41094924  -0.00336729  1
  Pd  Pd177  1  0.39351979  0.40445530  0.80524137  1
  Pd  Pd178  1  0.80247667  0.19953662  -0.00589886  1
  Pd  Pd179  1  0.39505748  0.19495366  0.58756071  1
  Pd  Pd180  1  0.19788582  0.39917761  0.40562158  1
  Pd  Pd181  1  -0.00945072  0.20376657  0.39057858  1
  Pd  Pd182  1  0.19094975  0.59568322  -0.00841136  1
  Pd  Pd183  1  -0.00479915  0.00139114  0.61121250  1
  Pd  Pd184  1  0.19894744  0.59239762  0.79952314  1
  Pd  Pd185  1  0.20543825  0.79627825  -0.00422005  1
  Pd  Pd186  1  0.79650473  0.20994006  0.21051407  1
  Pd  Pd187  1  0.59553609  0.79751991  0.60317934  1
  Pd  Pd188  1  0.40912535  0.39442948  -0.00394775  1
  Pd  Pd189  1  0.60539473  0.00142117  -0.00667781  1
  Pd  Pd190  1  -0.00411641  0.59483952  0.40790712  1
  Pd  Pd191  1  0.00130404  0.19430036  0.60620477  1
  Pd  Pd192  1  0.19963990  0.00637209  0.00775142  1
  Pd  Pd193  1  0.40037810  0.40420099  0.58749122  1
  Pd  Pd194  1  0.00814547  0.60889039  0.18950996  1
  Pd  Pd195  1  0.60730601  0.20215845  0.60039926  1
  Pd  Pd196  1  0.80874221  0.59242893  -0.00129233  1
  Pd  Pd197  1  0.19540457  0.80181556  0.59319872  1
  Pd  Pd198  1  0.81167761  0.40346552  -0.00961828  1
  Pd  Pd199  1  0.40521471  -0.00076979  0.79119856  1
  Rh  Rh200  1  0.39668442  0.20151007  0.80372149  1
  Rh  Rh201  1  0.39693217  0.00838589  0.59987387  1
  Rh  Rh202  1  0.79506914  0.79454284  0.80558066  1
  Rh  Rh203  1  0.19123761  0.59330665  0.60475959  1
  Rh  Rh204  1  0.19729529  0.00661097  0.19445057  1
  Rh  Rh205  1  0.19906193  0.21041982  0.61030634  1
  Rh  Rh206  1  0.20985898  0.19078775  0.00330358  1
  Rh  Rh207  1  0.79186167  0.00291891  -0.00130788  1
  Rh  Rh208  1  0.19537315  0.00123367  0.40600306  1
  Rh  Rh209  1  0.40543774  -0.01384466  0.18853366  1
  Rh  Rh210  1  -0.00653705  0.60688749  0.60127015  1
  Rh  Rh211  1  0.38953211  0.80175252  0.00419445  1
  Rh  Rh212  1  -0.00772876  -0.01182746  0.20686179  1
  Rh  Rh213  1  0.19745025  -0.00453938  0.59176931  1
  Rh  Rh214  1  0.80818422  -0.00462773  0.79132068  1
  Rh  Rh215  1  0.20855439  0.19172364  0.38836399  1
  Rh  Rh216  1  0.80728415  -0.00699257  0.19881885  1
  Rh  Rh217  1  0.59372782  0.40190950  0.40647822  1
  Rh  Rh218  1  -0.01017740  0.19339872  0.00288389  1
  Rh  Rh219  1  0.80438334  0.59768939  0.79754225  1
  Rh  Rh220  1  0.60529917  0.39072851  0.78983415  1
  Rh  Rh221  1  -0.00050867  0.39814040  0.80196471  1
  Rh  Rh222  1  0.79858078  0.19906845  0.60403730  1
  Rh  Rh223  1  0.40021186  0.00392481  0.00054028  1
  Rh  Rh224  1  0.79959408  0.79820950  0.39568675  1
  Rh  Rh225  1  0.40610659  0.59262501  -0.00300104  1
  Rh  Rh226  1  0.00514797  0.80142889  0.39870916  1
  Rh  Rh227  1  0.19613655  0.41231835  -0.00792661  1
  Rh  Rh228  1  0.81005114  0.40130017  0.40534368  1
  Rh  Rh229  1  0.79460331  0.60108251  0.20169403  1
  Rh  Rh230  1  0.00304573  0.79625730  0.60100697  1
  Rh  Rh231  1  0.00087854  0.39147623  0.59328720  1
  Rh  Rh232  1  0.61494775  0.00833458  0.59160792  1
  Rh  Rh233  1  -0.00390271  0.60692224  0.80473742  1
  Rh  Rh234  1  0.40855945  0.59491058  0.59283046  1
  Rh  Rh235  1  0.00384674  0.20752483  0.20160896  1
  Rh  Rh236  1  0.20085919  0.60044196  0.40285697  1
  Rh  Rh237  1  0.38987142  0.21033229  0.19631299  1
  Rh  Rh238  1  -0.00337301  0.00235275  -0.00540431  1
  Rh  Rh239  1  0.59533356  0.61092371  0.79874140  1
  Rh  Rh240  1  0.79819381  0.79867361  0.00224018  1
  Rh  Rh241  1  0.61095646  0.21120882  0.20301443  1
  Rh  Rh242  1  0.40790242  0.80929780  0.79066938  1
  Rh  Rh243  1  0.61251333  0.80056720  -0.01084656  1
  Rh  Rh244  1  0.39545719  0.39721502  0.20342482  1
  Rh  Rh245  1  0.59747116  0.20092839  0.80029028  1
  Rh  Rh246  1  0.59024785  0.20516677  -0.00439705  1
  Rh  Rh247  1  -0.00654408  0.79043399  0.00671040  1
  Rh  Rh248  1  0.80910739  0.79780840  0.60592993  1
  Rh  Rh249  1  -0.00402247  0.00123411  0.39565376  1
