# generated using pymatgen
data_ZrScNbPdRh
_symmetry_space_group_name_H-M   'P 1'
_cell_length_a   16.55649617
_cell_length_b   16.55382104
_cell_length_c   16.55566371
_cell_angle_alpha   89.99307317
_cell_angle_beta   90.00929010
_cell_angle_gamma   89.98147042
_symmetry_Int_Tables_number   1
_chemical_formula_structural   ZrScNbPdRh
_chemical_formula_sum   'Zr50 Sc50 Nb50 Pd50 Rh50'
_cell_volume   4537.46463687
_cell_formula_units_Z   50
loop_
 _symmetry_equiv_pos_site_id
 _symmetry_equiv_pos_as_xyz
  1  'x, y, z'
loop_
 _atom_site_type_symbol
 _atom_site_label
 _atom_site_symmetry_multiplicity
 _atom_site_fract_x
 _atom_site_fract_y
 _atom_site_fract_z
 _atom_site_occupancy
  Zr  Zr0  1  0.49715927  0.30532193  0.10224116  1
  Zr  Zr1  1  0.50068305  0.50166207  0.49911716  1
  Zr  Zr2  1  0.89608815  0.49946574  0.30404147  1
  Zr  Zr3  1  0.49294096  0.09723275  0.68925234  1
  Zr  Zr4  1  0.70907443  0.69770727  0.89183630  1
  Zr  Zr5  1  0.09836162  0.29827419  0.29413574  1
  Zr  Zr6  1  0.50124737  0.69689219  0.30038742  1
  Zr  Zr7  1  0.70888592  0.49419593  0.49548522  1
  Zr  Zr8  1  0.89564797  0.29041493  0.70327289  1
  Zr  Zr9  1  0.50797325  0.30575435  0.30362131  1
  Zr  Zr10  1  0.28945213  0.09960039  0.69258919  1
  Zr  Zr11  1  0.90039425  0.90002805  0.89950299  1
  Zr  Zr12  1  0.69731516  0.50395008  0.70732052  1
  Zr  Zr13  1  0.29962451  0.51298447  0.29970860  1
  Zr  Zr14  1  0.50410052  0.70351419  0.10513067  1
  Zr  Zr15  1  0.29815438  0.71113147  0.89392430  1
  Zr  Zr16  1  0.29773501  0.30531379  0.89895150  1
  Zr  Zr17  1  0.50298292  0.50640614  0.29845268  1
  Zr  Zr18  1  0.29426756  0.69912405  0.69205426  1
  Zr  Zr19  1  0.70601118  0.70232772  0.69985894  1
  Zr  Zr20  1  0.10064512  0.29535622  0.70363956  1
  Zr  Zr21  1  0.49510821  0.09665770  0.10174322  1
  Zr  Zr22  1  0.50251993  0.50582950  0.10484116  1
  Zr  Zr23  1  0.70624013  0.10130201  0.69697491  1
  Zr  Zr24  1  0.29641475  0.90297528  0.09965568  1
  Zr  Zr25  1  0.70784099  0.89825566  0.70297385  1
  Zr  Zr26  1  0.70306427  0.89827625  0.90294031  1
  Zr  Zr27  1  0.29724657  0.09571459  0.90353409  1
  Zr  Zr28  1  0.09753009  0.50332379  0.89551103  1
  Zr  Zr29  1  0.10084589  0.30108630  0.10413835  1
  Zr  Zr30  1  0.30674565  0.10370457  0.10131730  1
  Zr  Zr31  1  0.89949546  0.28979757  0.09662071  1
  Zr  Zr32  1  0.70603201  0.50418667  0.90010909  1
  Zr  Zr33  1  0.49938668  0.89315075  0.29772033  1
  Zr  Zr34  1  0.49914254  0.90474714  0.49896176  1
  Zr  Zr35  1  0.90602331  0.89259742  0.69565918  1
  Zr  Zr36  1  0.69917090  0.30225020  0.69773068  1
  Zr  Zr37  1  0.09623100  0.70716168  0.09680987  1
  Zr  Zr38  1  0.70137744  0.10648178  0.49338915  1
  Zr  Zr39  1  0.70363267  0.29496025  0.30940444  1
  Zr  Zr40  1  0.69964362  0.29835748  0.49753597  1
  Zr  Zr41  1  0.29862427  0.09178256  0.29846542  1
  Zr  Zr42  1  0.90453589  0.10199742  0.91009063  1
  Zr  Zr43  1  0.69625537  0.89756447  0.50942627  1
  Zr  Zr44  1  0.89949163  0.69995117  0.09345903  1
  Zr  Zr45  1  0.29321623  0.90097894  0.49344878  1
  Zr  Zr46  1  0.90314255  0.89950465  0.30397074  1
  Zr  Zr47  1  0.10012942  0.50020035  0.30092471  1
  Zr  Zr48  1  0.50122060  0.89766768  0.90533302  1
  Zr  Zr49  1  0.70177934  0.49894426  0.09678252  1
  Sc  Sc50  1  0.10630210  0.90059764  0.29972341  1
  Sc  Sc51  1  0.50251401  0.69631555  0.49324721  1
  Sc  Sc52  1  0.49654824  0.49847382  0.69796268  1
  Sc  Sc53  1  0.89807209  0.09365673  0.71412166  1
  Sc  Sc54  1  0.30533701  0.70217988  0.09955232  1
  Sc  Sc55  1  0.49244669  0.09953966  0.90931085  1
  Sc  Sc56  1  0.09373573  0.09690562  0.10000844  1
  Sc  Sc57  1  0.10017076  0.50294989  0.10942107  1
  Sc  Sc58  1  0.90154061  0.09586224  0.49294600  1
  Sc  Sc59  1  0.71070448  0.09123207  0.90309687  1
  Sc  Sc60  1  0.30220168  0.49992547  0.89881600  1
  Sc  Sc61  1  0.51141102  0.89571716  0.68736142  1
  Sc  Sc62  1  0.89452919  0.30496378  0.50064430  1
  Sc  Sc63  1  0.49238375  0.09617471  0.30022326  1
  Sc  Sc64  1  0.30197013  0.49840014  0.69669986  1
  Sc  Sc65  1  0.69417554  0.69790751  0.30062648  1
  Sc  Sc66  1  0.88611627  0.70177072  0.29544549  1
  Sc  Sc67  1  0.29868197  0.51638291  0.50473475  1
  Sc  Sc68  1  0.70615955  0.88944044  0.30618817  1
  Sc  Sc69  1  0.70278574  0.30896996  0.10186285  1
  Sc  Sc70  1  0.70099182  0.31387384  0.90533267  1
  Sc  Sc71  1  0.89125580  0.50491673  0.10318907  1
  Sc  Sc72  1  0.09123997  0.30888467  0.50753425  1
  Sc  Sc73  1  0.28400032  0.89503506  0.70262349  1
  Sc  Sc74  1  0.49729645  0.70106360  0.90016294  1
  Sc  Sc75  1  0.89994549  0.89966028  0.50274665  1
  Sc  Sc76  1  0.29891866  0.89732164  0.29922139  1
  Sc  Sc77  1  0.09609851  0.10141832  0.89534033  1
  Sc  Sc78  1  0.09677457  0.08836914  0.50240668  1
  Sc  Sc79  1  0.90269436  0.29064583  0.29678718  1
  Sc  Sc80  1  0.10341362  0.90168833  0.90442356  1
  Sc  Sc81  1  0.50563644  0.30404199  0.50171874  1
  Sc  Sc82  1  0.49528616  0.30809826  0.90052879  1
  Sc  Sc83  1  0.70423345  0.70492190  0.49425731  1
  Sc  Sc84  1  0.09491416  0.90011957  0.50428599  1
  Sc  Sc85  1  0.11476313  0.69873557  0.29551905  1
  Sc  Sc86  1  0.09556562  0.89612889  0.10221607  1
  Sc  Sc87  1  0.90242080  0.89751729  0.10090316  1
  Sc  Sc88  1  0.30885628  0.50328177  0.09704797  1
  Sc  Sc89  1  0.71343418  0.09451471  0.09835781  1
  Sc  Sc90  1  0.49823159  0.50125896  0.89954165  1
  Sc  Sc91  1  0.50728091  0.69886398  0.69932503  1
  Sc  Sc92  1  0.09706216  0.49608130  0.69520557  1
  Sc  Sc93  1  0.09844708  0.70795419  0.70380070  1
  Sc  Sc94  1  0.89680756  0.09853846  0.29876610  1
  Sc  Sc95  1  0.90074788  0.09674396  0.10168804  1
  Sc  Sc96  1  0.69920552  0.49960801  0.29663221  1
  Sc  Sc97  1  0.89382166  0.49991109  0.70006452  1
  Sc  Sc98  1  0.49458424  0.31038297  0.69706769  1
  Sc  Sc99  1  0.29634283  0.29907790  0.69194330  1
  Nb  Nb100  1  0.49488822  0.09729313  0.50230118  1
  Nb  Nb101  1  0.09789019  0.91484830  0.68987956  1
  Nb  Nb102  1  0.10640440  0.69903492  0.49888085  1
  Nb  Nb103  1  0.90445933  0.70395206  0.70057963  1
  Nb  Nb104  1  0.29556765  0.29651517  0.29883011  1
  Nb  Nb105  1  0.29268801  0.70239391  0.49792279  1
  Nb  Nb106  1  0.90733516  0.50089636  0.50039572  1
  Nb  Nb107  1  0.51096183  0.89782383  0.10316861  1
  Nb  Nb108  1  0.69193903  0.89308355  0.09542715  1
  Nb  Nb109  1  0.90367995  0.70263374  0.50608825  1
  Nb  Nb110  1  0.69844045  0.10268445  0.30029727  1
  Nb  Nb111  1  0.29943358  0.70137568  0.31216437  1
  Nb  Nb112  1  0.30110282  0.90324971  0.89527198  1
  Nb  Nb113  1  0.90043508  0.50411889  0.90173308  1
  Nb  Nb114  1  0.09211254  0.69419124  0.90110855  1
  Nb  Nb115  1  0.70416420  0.69968206  0.09913023  1
  Nb  Nb116  1  0.90915890  0.29585896  0.90238655  1
  Nb  Nb117  1  0.09069024  0.49903437  0.49722377  1
  Nb  Nb118  1  0.09867388  0.09435480  0.69866862  1
  Nb  Nb119  1  0.91462018  0.69174261  0.89297929  1
  Nb  Nb120  1  0.09791794  0.30079243  0.90301272  1
  Nb  Nb121  1  0.29597215  0.29482812  0.49682741  1
  Nb  Nb122  1  0.29979559  0.29573020  0.10197867  1
  Nb  Nb123  1  0.09183881  0.10310051  0.30638490  1
  Nb  Nb124  1  0.31021072  0.10164293  0.50131483  1
  Nb  Nb125  1  0.39906045  0.19462252  0.79719147  1
  Nb  Nb126  1  0.20320330  0.39782692  0.40004985  1
  Nb  Nb127  1  0.20205545  0.20817442  0.00354466  1
  Nb  Nb128  1  0.00196850  0.78908748  0.40417314  1
  Nb  Nb129  1  0.39893219  -0.00371142  0.79906915  1
  Nb  Nb130  1  0.60613368  0.60334958  0.00185341  1
  Nb  Nb131  1  -0.00023223  0.60373036  0.40603241  1
  Nb  Nb132  1  0.59592108  0.00458064  0.79890849  1
  Nb  Nb133  1  0.39242697  0.79492825  0.59370434  1
  Nb  Nb134  1  0.39429724  0.20252992  0.40412632  1
  Nb  Nb135  1  0.59910973  0.19778374  0.60165246  1
  Nb  Nb136  1  0.60517071  -0.00309879  0.20067792  1
  Nb  Nb137  1  0.60882135  0.59521458  0.59927752  1
  Nb  Nb138  1  0.19540279  0.60661764  -0.00690442  1
  Nb  Nb139  1  -0.00061034  0.19460201  0.60784016  1
  Nb  Nb140  1  0.59832038  0.20056547  0.00270638  1
  Nb  Nb141  1  0.60033978  0.00325901  0.39745813  1
  Nb  Nb142  1  -0.00333373  0.39619071  0.80751021  1
  Nb  Nb143  1  0.59492801  0.19525850  0.80165040  1
  Nb  Nb144  1  0.39546053  0.60645862  0.79640898  1
  Nb  Nb145  1  -0.00209127  0.39922763  -0.00473838  1
  Nb  Nb146  1  0.20075951  0.20015843  0.40036264  1
  Nb  Nb147  1  0.38927291  0.39670552  0.39827238  1
  Nb  Nb148  1  0.60339633  0.19308598  0.19938224  1
  Nb  Nb149  1  -0.00252064  0.60297971  0.59392770  1
  Pd  Pd150  1  0.80727282  0.39752532  0.80643634  1
  Pd  Pd151  1  0.39337738  0.40158857  0.20649617  1
  Pd  Pd152  1  0.39936037  0.80459616  0.00493478  1
  Pd  Pd153  1  0.80255762  0.40053212  0.60213700  1
  Pd  Pd154  1  -0.00111024  0.39642626  0.39558326  1
  Pd  Pd155  1  0.80229434  0.60391670  0.40066048  1
  Pd  Pd156  1  0.39238547  0.39951190  0.59039524  1
  Pd  Pd157  1  0.20293002  0.19761666  0.80649456  1
  Pd  Pd158  1  0.79441845  -0.00377861  0.39943062  1
  Pd  Pd159  1  0.21018737  0.40597775  0.20044221  1
  Pd  Pd160  1  0.60228044  0.78852322  -0.00495888  1
  Pd  Pd161  1  0.19378041  0.00553178  0.00321306  1
  Pd  Pd162  1  0.79514312  -0.00870816  0.19910727  1
  Pd  Pd163  1  0.39415690  0.79893816  0.19955310  1
  Pd  Pd164  1  0.60368673  0.00841874  0.00059646  1
  Pd  Pd165  1  0.19735084  0.40324822  0.79480718  1
  Pd  Pd166  1  0.20309897  0.59843323  0.79960830  1
  Pd  Pd167  1  -0.00455274  0.60777520  0.20904677  1
  Pd  Pd168  1  0.80150103  0.60297816  0.60008185  1
  Pd  Pd169  1  0.40043839  0.79606152  0.40560852  1
  Pd  Pd170  1  0.20736835  0.60710860  0.18866664  1
  Pd  Pd171  1  0.00275573  0.00140432  0.20478183  1
  Pd  Pd172  1  0.18604647  0.80643904  0.80057286  1
  Pd  Pd173  1  0.19537866  0.00423692  0.40242352  1
  Pd  Pd174  1  0.18703130  0.19592249  0.58783157  1
  Pd  Pd175  1  0.00302648  0.59057160  0.00895544  1
  Pd  Pd176  1  0.80274489  0.39406582  0.20474797  1
  Pd  Pd177  1  0.00922344  0.80875822  0.80148703  1
  Pd  Pd178  1  -0.01060155  0.40109929  0.19181635  1
  Pd  Pd179  1  0.18873534  0.59596476  0.60237218  1
  Pd  Pd180  1  0.79079296  0.20310570  0.81465295  1
  Pd  Pd181  1  0.59806385  0.80532707  0.80000076  1
  Pd  Pd182  1  0.19647188  0.40612384  0.00753127  1
  Pd  Pd183  1  0.38771433  -0.01686328  0.60879255  1
  Pd  Pd184  1  0.00372016  0.20249037  0.41187807  1
  Pd  Pd185  1  0.40555287  0.80406168  0.78535798  1
  Pd  Pd186  1  0.19250474  0.00342154  0.19762629  1
  Pd  Pd187  1  0.20292409  0.40574626  0.59164578  1
  Pd  Pd188  1  0.80743635  0.00378774  0.59800886  1
  Pd  Pd189  1  0.19756574  0.79870185  -0.00235221  1
  Pd  Pd190  1  0.39951171  -0.01139151  0.00123510  1
  Pd  Pd191  1  0.59431591  0.39847977  0.80251797  1
  Pd  Pd192  1  0.40102979  0.40272342  0.00145809  1
  Pd  Pd193  1  0.00298646  -0.00381095  0.80367463  1
  Pd  Pd194  1  0.19471952  0.18943661  0.19913509  1
  Pd  Pd195  1  0.00160082  0.79395079  0.21192743  1
  Pd  Pd196  1  0.78966480  0.20518279  -0.00300123  1
  Pd  Pd197  1  0.79533845  0.80204470  0.19676436  1
  Pd  Pd198  1  0.40611575  0.20434798  0.20935977  1
  Pd  Pd199  1  0.80757002  0.79685858  -0.00508874  1
  Rh  Rh200  1  0.81113464  0.79564629  0.80205200  1
  Rh  Rh201  1  0.81068172  0.20021379  0.39767775  1
  Rh  Rh202  1  0.39752942  0.21226748  -0.00644349  1
  Rh  Rh203  1  -0.00773176  0.39718223  0.61273611  1
  Rh  Rh204  1  0.19956043  -0.00249931  0.80048342  1
  Rh  Rh205  1  0.80616379  0.39774244  0.39571561  1
  Rh  Rh206  1  0.81333925  0.60505588  0.79737642  1
  Rh  Rh207  1  0.19195633  0.80151930  0.39939250  1
  Rh  Rh208  1  0.20684589  0.79837787  0.20053170  1
  Rh  Rh209  1  -0.00185253  0.80215580  -0.00655132  1
  Rh  Rh210  1  0.81331359  0.39980586  -0.00297604  1
  Rh  Rh211  1  -0.00165302  0.19127053  0.19914282  1
  Rh  Rh212  1  0.79932908  -0.00514926  0.80196311  1
  Rh  Rh213  1  0.60681366  0.39542418  0.20281974  1
  Rh  Rh214  1  0.39829639  0.60036467  0.40125592  1
  Rh  Rh215  1  0.59575060  0.78524466  0.59257800  1
  Rh  Rh216  1  0.19554008  0.59491395  0.40348135  1
  Rh  Rh217  1  0.80433753  0.19579802  0.59307093  1
  Rh  Rh218  1  0.58961941  0.59662015  0.80070407  1
  Rh  Rh219  1  0.60816589  0.60388733  0.19262635  1
  Rh  Rh220  1  0.39599439  0.61089651  0.20446416  1
  Rh  Rh221  1  0.79571053  0.60275987  0.19920290  1
  Rh  Rh222  1  0.40355511  0.00240207  0.39642949  1
  Rh  Rh223  1  0.40907549  0.61114976  0.60503153  1
  Rh  Rh224  1  0.01020043  0.20171227  0.00572525  1
  Rh  Rh225  1  0.40493102  -0.01327129  0.19536816  1
  Rh  Rh226  1  0.19703676  0.80465283  0.59624443  1
  Rh  Rh227  1  0.60709486  0.59552198  0.40622682  1
  Rh  Rh228  1  -0.00392154  0.59350479  0.78576319  1
  Rh  Rh229  1  0.39443215  0.40170979  0.79594911  1
  Rh  Rh230  1  0.00823282  0.79546433  0.59718770  1
  Rh  Rh231  1  0.80608082  -0.00991253  0.00711409  1
  Rh  Rh232  1  0.79498030  0.19926297  0.20073158  1
  Rh  Rh233  1  0.00326552  0.20005195  0.79601320  1
  Rh  Rh234  1  0.00009851  -0.00198895  -0.00010345  1
  Rh  Rh235  1  0.60873241  0.01038973  0.59658420  1
  Rh  Rh236  1  0.80120978  0.79828604  0.59944983  1
  Rh  Rh237  1  -0.00818607  0.00778489  0.60248598  1
  Rh  Rh238  1  0.58602665  0.18905492  0.40079089  1
  Rh  Rh239  1  0.39820118  0.60456278  -0.01155320  1
  Rh  Rh240  1  0.79943548  0.60586280  -0.00294846  1
  Rh  Rh241  1  0.60836339  0.80147435  0.20318308  1
  Rh  Rh242  1  0.60673293  0.40257604  0.60004372  1
  Rh  Rh243  1  0.60006251  0.80649346  0.40195602  1
  Rh  Rh244  1  0.20243837  0.00052985  0.59299590  1
  Rh  Rh245  1  0.59373241  0.40520854  0.00320249  1
  Rh  Rh246  1  0.00217822  -0.01018257  0.39506835  1
  Rh  Rh247  1  0.80854777  0.80064144  0.40620937  1
  Rh  Rh248  1  0.59768549  0.40993015  0.39827196  1
  Rh  Rh249  1  0.40760149  0.21014098  0.59809909  1
