# generated using pymatgen
data_ZrScNbPdRh
_symmetry_space_group_name_H-M   'P 1'
_cell_length_a   16.55605746
_cell_length_b   16.56533327
_cell_length_c   16.56048162
_cell_angle_alpha   90.00974848
_cell_angle_beta   90.00595562
_cell_angle_gamma   90.00451222
_symmetry_Int_Tables_number   1
_chemical_formula_structural   ZrScNbPdRh
_chemical_formula_sum   'Zr50 Sc50 Nb50 Pd50 Rh50'
_cell_volume   4541.82143730
_cell_formula_units_Z   50
loop_
 _symmetry_equiv_pos_site_id
 _symmetry_equiv_pos_as_xyz
  1  'x, y, z'
loop_
 _atom_site_type_symbol
 _atom_site_label
 _atom_site_symmetry_multiplicity
 _atom_site_fract_x
 _atom_site_fract_y
 _atom_site_fract_z
 _atom_site_occupancy
  Zr  Zr0  1  0.49522373  0.69991088  0.50325518  1
  Zr  Zr1  1  0.90523474  0.70087976  0.89971226  1
  Zr  Zr2  1  0.90345987  0.69002997  0.49947591  1
  Zr  Zr3  1  0.09723901  0.89997422  0.69664819  1
  Zr  Zr4  1  0.89470066  0.09861963  0.49703235  1
  Zr  Zr5  1  0.70087512  0.09571044  0.50550361  1
  Zr  Zr6  1  0.69659468  0.30290561  0.89680732  1
  Zr  Zr7  1  0.31024358  0.70198453  0.69685676  1
  Zr  Zr8  1  0.09560211  0.29454019  0.69402161  1
  Zr  Zr9  1  0.30346678  0.10084134  0.90730954  1
  Zr  Zr10  1  0.89684714  0.29502935  0.69232942  1
  Zr  Zr11  1  0.89634113  0.69040718  0.10013286  1
  Zr  Zr12  1  0.70171402  0.29517192  0.69611833  1
  Zr  Zr13  1  0.69817329  0.10132767  0.29814671  1
  Zr  Zr14  1  0.50412199  0.48982256  0.89470364  1
  Zr  Zr15  1  0.09473373  0.70541241  0.09565173  1
  Zr  Zr16  1  0.50192284  0.50147519  0.10365684  1
  Zr  Zr17  1  0.10168285  0.30189194  0.49755582  1
  Zr  Zr18  1  0.29841616  0.49877025  0.90003360  1
  Zr  Zr19  1  0.90554741  0.30194805  0.10121377  1
  Zr  Zr20  1  0.09382863  0.70777551  0.30556698  1
  Zr  Zr21  1  0.30050222  0.49576683  0.30484401  1
  Zr  Zr22  1  0.69893251  0.28808555  0.10163658  1
  Zr  Zr23  1  0.29558589  0.69759222  0.89860161  1
  Zr  Zr24  1  0.29186908  0.70388237  0.09429387  1
  Zr  Zr25  1  0.50102053  0.50013034  0.29944953  1
  Zr  Zr26  1  0.69973721  0.70402446  0.49658222  1
  Zr  Zr27  1  0.88692642  0.50374943  0.90013680  1
  Zr  Zr28  1  0.48739339  0.89290030  0.48228295  1
  Zr  Zr29  1  0.50034275  0.50193055  0.69682560  1
  Zr  Zr30  1  0.89967434  0.50288901  0.30995378  1
  Zr  Zr31  1  0.89443357  0.90560651  0.49667693  1
  Zr  Zr32  1  0.28781804  0.30134621  0.69639609  1
  Zr  Zr33  1  0.89832137  0.49952476  0.10598951  1
  Zr  Zr34  1  0.50617250  0.29536453  0.50132373  1
  Zr  Zr35  1  0.50348457  0.09629961  0.89785217  1
  Zr  Zr36  1  0.10042997  0.29408130  0.11346917  1
  Zr  Zr37  1  0.50008408  0.71615336  0.88892410  1
  Zr  Zr38  1  0.89979860  0.31500513  0.50041407  1
  Zr  Zr39  1  0.50070253  0.29678425  0.90819163  1
  Zr  Zr40  1  0.70068566  0.90136696  0.10004690  1
  Zr  Zr41  1  0.08773820  0.89635257  0.90266001  1
  Zr  Zr42  1  0.09134990  0.49822579  0.50345418  1
  Zr  Zr43  1  0.50548251  0.49000787  0.49579882  1
  Zr  Zr44  1  0.10160631  0.70301394  0.90550998  1
  Zr  Zr45  1  0.29662345  0.10043531  0.10390503  1
  Zr  Zr46  1  0.51094640  0.10069487  0.69609771  1
  Zr  Zr47  1  0.10083065  0.10095477  0.30108263  1
  Zr  Zr48  1  0.69072665  0.90277773  0.29924493  1
  Zr  Zr49  1  0.50271781  0.69899914  0.69801665  1
  Sc  Sc50  1  0.89762625  0.09366398  0.89901263  1
  Sc  Sc51  1  0.69977468  0.51145482  0.30425399  1
  Sc  Sc52  1  0.09651245  0.50421586  0.10404113  1
  Sc  Sc53  1  0.89829514  0.50517888  0.69153807  1
  Sc  Sc54  1  0.69240965  0.70508925  0.70318890  1
  Sc  Sc55  1  0.30211188  0.29686085  0.90314322  1
  Sc  Sc56  1  0.08907889  0.10012749  0.89272937  1
  Sc  Sc57  1  0.69957559  0.90061821  0.69277296  1
  Sc  Sc58  1  0.51399577  0.30112972  0.70228090  1
  Sc  Sc59  1  0.90613788  0.08989546  0.30076198  1
  Sc  Sc60  1  0.69923548  0.30552211  0.50472518  1
  Sc  Sc61  1  0.50615063  0.88946455  0.70473200  1
  Sc  Sc62  1  0.28946562  0.09637468  0.68769812  1
  Sc  Sc63  1  0.90023839  0.90736544  0.90377601  1
  Sc  Sc64  1  0.10421906  0.49261044  0.69712677  1
  Sc  Sc65  1  0.51230588  0.70315846  0.30231101  1
  Sc  Sc66  1  0.90199621  0.10089980  0.09962203  1
  Sc  Sc67  1  0.49452690  0.09679262  0.09405851  1
  Sc  Sc68  1  0.69926190  0.70010254  0.10198487  1
  Sc  Sc69  1  0.29568941  0.69704842  0.30177469  1
  Sc  Sc70  1  0.69816350  0.90274686  0.50179736  1
  Sc  Sc71  1  0.29807715  0.50717427  0.10828715  1
  Sc  Sc72  1  0.30107762  0.71659068  0.50018973  1
  Sc  Sc73  1  0.70521891  0.51040044  0.10365045  1
  Sc  Sc74  1  0.90468177  0.90897507  0.09491488  1
  Sc  Sc75  1  0.09016376  0.70347881  0.69595794  1
  Sc  Sc76  1  0.91529157  0.29899830  0.30428377  1
  Sc  Sc77  1  0.49801168  0.09605086  0.49506449  1
  Sc  Sc78  1  0.50380123  0.29215058  0.31451899  1
  Sc  Sc79  1  0.50101788  0.09584859  0.30162501  1
  Sc  Sc80  1  0.29861908  0.09241477  0.30134903  1
  Sc  Sc81  1  0.30129434  0.50041036  0.70424504  1
  Sc  Sc82  1  0.70326322  0.69696963  0.89625342  1
  Sc  Sc83  1  0.70012109  0.49954624  0.71001451  1
  Sc  Sc84  1  0.10197900  0.50272271  0.30277957  1
  Sc  Sc85  1  0.69938217  0.90723140  0.90426086  1
  Sc  Sc86  1  0.29412813  0.29876277  0.48596594  1
  Sc  Sc87  1  0.70671666  0.10151650  0.70010595  1
  Sc  Sc88  1  0.29701674  0.49490286  0.50090413  1
  Sc  Sc89  1  0.30625476  0.89154490  0.90638702  1
  Sc  Sc90  1  0.09917822  0.70869908  0.49796827  1
  Sc  Sc91  1  0.90964264  0.69527130  0.30078535  1
  Sc  Sc92  1  0.90337479  0.90303299  0.70254449  1
  Sc  Sc93  1  0.30508965  0.91026816  0.10198026  1
  Sc  Sc94  1  0.09649373  0.09760019  0.11003646  1
  Sc  Sc95  1  0.09839743  0.29439469  0.90104630  1
  Sc  Sc96  1  0.70379985  0.09899461  0.10601120  1
  Sc  Sc97  1  0.90099771  0.69814748  0.69859861  1
  Sc  Sc98  1  0.10208121  0.50635379  0.89943606  1
  Sc  Sc99  1  0.89338321  0.30156866  0.90937482  1
  Nb  Nb100  1  0.29550143  0.09139825  0.50095709  1
  Nb  Nb101  1  0.10785238  0.90025553  0.50025069  1
  Nb  Nb102  1  0.29430573  0.30053490  0.29723573  1
  Nb  Nb103  1  0.69806403  0.28806279  0.29418237  1
  Nb  Nb104  1  0.69963993  0.10225842  0.89803456  1
  Nb  Nb105  1  0.71080452  0.50163357  0.50183762  1
  Nb  Nb106  1  0.29500687  0.90020127  0.69595860  1
  Nb  Nb107  1  0.49190376  0.90066649  0.29414604  1
  Nb  Nb108  1  0.50074037  0.69862369  0.09822764  1
  Nb  Nb109  1  0.11500526  0.09918632  0.50051299  1
  Nb  Nb110  1  0.09506337  0.10435181  0.69575659  1
  Nb  Nb111  1  0.49882717  0.29992465  0.09914964  1
  Nb  Nb112  1  0.29227455  0.91043156  0.50470510  1
  Nb  Nb113  1  0.50123931  0.89677543  0.09531101  1
  Nb  Nb114  1  0.90439497  0.89688104  0.30428605  1
  Nb  Nb115  1  0.70521802  0.70436184  0.29865925  1
  Nb  Nb116  1  0.11090792  0.29643344  0.30571200  1
  Nb  Nb117  1  0.29938338  0.29415236  0.09973169  1
  Nb  Nb118  1  0.30916996  0.90163918  0.30022520  1
  Nb  Nb119  1  0.90659666  0.10044492  0.69430656  1
  Nb  Nb120  1  0.69718589  0.50518267  0.89864481  1
  Nb  Nb121  1  0.09184503  0.90137342  0.29554574  1
  Nb  Nb122  1  0.89331868  0.50085216  0.49904064  1
  Nb  Nb123  1  0.49850838  0.90449662  0.90319494  1
  Nb  Nb124  1  0.10200955  0.90194851  0.09986081  1
  Nb  Nb125  1  0.60136798  0.39161396  0.20046217  1
  Nb  Nb126  1  0.40702695  0.60405257  -0.00130564  1
  Nb  Nb127  1  0.20064219  -0.00449065  0.80084185  1
  Nb  Nb128  1  0.20247824  0.60499449  0.59930752  1
  Nb  Nb129  1  0.40136084  0.39041506  0.59796683  1
  Nb  Nb130  1  0.80238027  0.80045984  0.39332303  1
  Nb  Nb131  1  0.40349991  0.80260019  0.19779985  1
  Nb  Nb132  1  0.79515422  0.39250857  0.20578020  1
  Nb  Nb133  1  0.39699128  0.20059195  0.59871742  1
  Nb  Nb134  1  0.19898101  0.81141536  0.20325450  1
  Nb  Nb135  1  0.39731598  0.20728426  0.19920788  1
  Nb  Nb136  1  0.80313795  0.80196768  0.80210973  1
  Nb  Nb137  1  0.39685113  -0.00187194  0.79696923  1
  Nb  Nb138  1  0.60231526  0.59606787  0.59309356  1
  Nb  Nb139  1  0.19442513  -0.00237968  -0.00352546  1
  Nb  Nb140  1  0.40158529  0.38803100  0.20065236  1
  Nb  Nb141  1  0.40246031  0.59828644  0.40266972  1
  Nb  Nb142  1  0.79837473  0.20223771  0.39806888  1
  Nb  Nb143  1  0.59291596  0.60132781  -0.00446642  1
  Nb  Nb144  1  0.80380856  0.80250591  0.20651262  1
  Nb  Nb145  1  0.40018420  0.19408865  0.79137789  1
  Nb  Nb146  1  -0.00539757  0.39775537  0.79908317  1
  Nb  Nb147  1  0.20088321  0.39464930  0.00850444  1
  Nb  Nb148  1  0.20049561  0.80392426  0.79679050  1
  Nb  Nb149  1  0.00752627  0.00657715  0.59463343  1
  Pd  Pd150  1  0.19064662  0.39625675  0.81058363  1
  Pd  Pd151  1  0.00970899  -0.00205767  0.40735119  1
  Pd  Pd152  1  0.60159502  0.18995643  0.00220333  1
  Pd  Pd153  1  0.00187243  0.19433308  0.00098745  1
  Pd  Pd154  1  0.60200985  -0.00525461  0.79811606  1
  Pd  Pd155  1  0.80255463  0.80023427  0.00041655  1
  Pd  Pd156  1  0.79818838  -0.00365695  0.79584575  1
  Pd  Pd157  1  0.80437408  0.39982189  0.79412579  1
  Pd  Pd158  1  0.80000492  0.19317820  -0.00301539  1
  Pd  Pd159  1  0.40497910  0.59896962  0.80750978  1
  Pd  Pd160  1  0.59945238  0.60240824  0.40483699  1
  Pd  Pd161  1  0.79188721  0.39148410  0.39024198  1
  Pd  Pd162  1  -0.00091562  0.59111328  -0.00098039  1
  Pd  Pd163  1  0.78982564  0.60279578  0.60884264  1
  Pd  Pd164  1  0.00027699  0.40360093  0.20990298  1
  Pd  Pd165  1  0.38968730  0.40678869  0.00946951  1
  Pd  Pd166  1  0.58821246  -0.01210356  0.59284989  1
  Pd  Pd167  1  0.80498114  0.19543746  0.80389685  1
  Pd  Pd168  1  0.18873926  0.19662160  0.00209182  1
  Pd  Pd169  1  -0.00588468  0.80769092  0.59239121  1
  Pd  Pd170  1  0.39249278  0.19223899  0.39937077  1
  Pd  Pd171  1  0.61238638  0.40794161  0.00954736  1
  Pd  Pd172  1  0.59107389  0.00500690  0.19241390  1
  Pd  Pd173  1  0.19947843  -0.00867538  0.38998445  1
  Pd  Pd174  1  -0.00465427  0.80364186  0.19137896  1
  Pd  Pd175  1  0.40320435  0.81354100  0.60202547  1
  Pd  Pd176  1  0.60435816  0.00532668  0.00507413  1
  Pd  Pd177  1  0.40068094  0.38622908  0.79082156  1
  Pd  Pd178  1  0.00053425  0.19515687  0.58520250  1
  Pd  Pd179  1  0.59896937  0.79808500  0.19785294  1
  Pd  Pd180  1  0.81623451  0.20131238  0.20844322  1
  Pd  Pd181  1  0.19103221  0.61085057  0.20254927  1
  Pd  Pd182  1  0.20417782  0.60139089  0.41121334  1
  Pd  Pd183  1  0.20357648  0.81065645  0.39408681  1
  Pd  Pd184  1  0.59749899  -0.00074336  0.40296041  1
  Pd  Pd185  1  0.20446704  0.19066655  0.79997750  1
  Pd  Pd186  1  0.60590344  0.79553156  -0.00483086  1
  Pd  Pd187  1  0.00847650  0.40517373  -0.00780667  1
  Pd  Pd188  1  0.80752116  -0.00593052  0.20275202  1
  Pd  Pd189  1  -0.01155156  0.20657120  0.80526548  1
  Pd  Pd190  1  0.40100789  0.60926763  0.20426238  1
  Pd  Pd191  1  -0.00189387  0.19782873  0.40588979  1
  Pd  Pd192  1  0.61503443  0.39760072  0.39225834  1
  Pd  Pd193  1  0.40035922  0.79826314  0.00655114  1
  Pd  Pd194  1  0.00166836  0.59143345  0.79471973  1
  Pd  Pd195  1  0.80408688  0.79936619  0.60198968  1
  Pd  Pd196  1  0.40676633  -0.00084831  0.60405102  1
  Pd  Pd197  1  0.20184536  0.40201317  0.19673022  1
  Pd  Pd198  1  0.79000803  0.40256046  0.01055943  1
  Pd  Pd199  1  0.19318174  0.60922220  0.78649193  1
  Rh  Rh200  1  0.39510990  0.00367508  0.40088894  1
  Rh  Rh201  1  0.60039353  0.20052984  0.80398334  1
  Rh  Rh202  1  -0.00472906  0.79896232  0.80295251  1
  Rh  Rh203  1  0.39781948  0.40183053  0.39914051  1
  Rh  Rh204  1  0.19322701  0.40343604  0.39862997  1
  Rh  Rh205  1  -0.00498182  0.80611681  0.40831400  1
  Rh  Rh206  1  0.40376422  0.19876176  0.00124707  1
  Rh  Rh207  1  0.40651012  0.00126605  0.19732729  1
  Rh  Rh208  1  0.00627480  0.59819021  0.59854584  1
  Rh  Rh209  1  0.20567823  0.58760453  0.00400775  1
  Rh  Rh210  1  0.20541559  0.40343557  0.59559422  1
  Rh  Rh211  1  0.20517465  0.19477208  0.39847507  1
  Rh  Rh212  1  0.59532910  0.79809670  0.59287117  1
  Rh  Rh213  1  0.40062654  0.58521562  0.58875483  1
  Rh  Rh214  1  0.79221890  0.60146671  -0.00380079  1
  Rh  Rh215  1  0.61363778  0.80985793  0.80781538  1
  Rh  Rh216  1  0.80140040  0.60835808  0.39779643  1
  Rh  Rh217  1  0.60413181  0.39697138  0.79886609  1
  Rh  Rh218  1  0.19158018  -0.00028201  0.60484047  1
  Rh  Rh219  1  0.80040513  0.19945694  0.59098173  1
  Rh  Rh220  1  -0.00136364  -0.00163767  0.19969347  1
  Rh  Rh221  1  0.39702931  -0.00343440  -0.00352451  1
  Rh  Rh222  1  0.58340038  0.20010969  0.19929029  1
  Rh  Rh223  1  0.60560113  0.60181553  0.19574603  1
  Rh  Rh224  1  0.39286418  0.81053007  0.79558968  1
  Rh  Rh225  1  0.19822442  0.81177863  0.00142915  1
  Rh  Rh226  1  0.00370486  0.59705071  0.40365730  1
  Rh  Rh227  1  0.79630466  0.40580165  0.60536034  1
  Rh  Rh228  1  0.60356737  0.80410193  0.39932852  1
  Rh  Rh229  1  0.61083223  0.19351830  0.40710732  1
  Rh  Rh230  1  0.80153904  0.60271702  0.20925292  1
  Rh  Rh231  1  0.80794589  0.00217941  0.61015438  1
  Rh  Rh232  1  0.00020802  0.19805147  0.20620591  1
  Rh  Rh233  1  0.00351950  0.59865909  0.20464204  1
  Rh  Rh234  1  0.80054414  0.60827853  0.79797964  1
  Rh  Rh235  1  0.39476306  0.79192143  0.38678820  1
  Rh  Rh236  1  0.59645355  0.59961391  0.80107834  1
  Rh  Rh237  1  -0.00542806  0.40378617  0.60690123  1
  Rh  Rh238  1  0.20152487  0.79392985  0.60468575  1
  Rh  Rh239  1  0.00689717  0.00641497  0.00454332  1
  Rh  Rh240  1  0.20508523  0.19483813  0.20833546  1
  Rh  Rh241  1  0.19625671  -0.00592732  0.19981903  1
  Rh  Rh242  1  0.79441453  0.00827628  -0.00001697  1
  Rh  Rh243  1  0.79302187  -0.00036618  0.38990210  1
  Rh  Rh244  1  0.20406469  0.20214375  0.59200199  1
  Rh  Rh245  1  0.60121949  0.19563755  0.59477358  1
  Rh  Rh246  1  -0.00914020  0.80189370  0.00624006  1
  Rh  Rh247  1  0.60448870  0.40883569  0.60365250  1
  Rh  Rh248  1  0.00611976  0.40325668  0.39698539  1
  Rh  Rh249  1  0.00246432  0.00480607  0.78914622  1
