# generated using pymatgen
data_ZrScNbPdRh
_symmetry_space_group_name_H-M   'P 1'
_cell_length_a   16.55312134
_cell_length_b   16.55192406
_cell_length_c   16.55557768
_cell_angle_alpha   90.01022616
_cell_angle_beta   89.99408428
_cell_angle_gamma   90.03594791
_symmetry_Int_Tables_number   1
_chemical_formula_structural   ZrScNbPdRh
_chemical_formula_sum   'Zr50 Sc50 Nb50 Pd50 Rh50'
_cell_volume   4535.99563683
_cell_formula_units_Z   50
loop_
 _symmetry_equiv_pos_site_id
 _symmetry_equiv_pos_as_xyz
  1  'x, y, z'
loop_
 _atom_site_type_symbol
 _atom_site_label
 _atom_site_symmetry_multiplicity
 _atom_site_fract_x
 _atom_site_fract_y
 _atom_site_fract_z
 _atom_site_occupancy
  Zr  Zr0  1  0.90266114  0.69918562  0.71458738  1
  Zr  Zr1  1  0.50332369  0.89663864  0.10309247  1
  Zr  Zr2  1  0.69603786  0.49285692  0.49952649  1
  Zr  Zr3  1  0.70650714  0.70075610  0.10823589  1
  Zr  Zr4  1  0.10487784  0.29903112  0.69862537  1
  Zr  Zr5  1  0.49923846  0.49061564  0.10074865  1
  Zr  Zr6  1  0.89599845  0.29776775  0.50129374  1
  Zr  Zr7  1  0.90209488  0.89777524  0.90181944  1
  Zr  Zr8  1  0.90468814  0.10163767  0.69144433  1
  Zr  Zr9  1  0.90216159  0.30057698  0.69670452  1
  Zr  Zr10  1  0.50170775  0.69385060  0.30881188  1
  Zr  Zr11  1  0.90462774  0.09916783  0.49491932  1
  Zr  Zr12  1  0.49893085  0.29527114  0.70463824  1
  Zr  Zr13  1  0.50351873  0.90478267  0.70010232  1
  Zr  Zr14  1  0.29664158  0.69513732  0.09862556  1
  Zr  Zr15  1  0.30065807  0.69488161  0.51236463  1
  Zr  Zr16  1  0.49158593  0.70202699  0.69813321  1
  Zr  Zr17  1  0.89639031  0.09719981  0.90036650  1
  Zr  Zr18  1  0.49930251  0.50251645  0.48588495  1
  Zr  Zr19  1  0.29363176  0.49528503  0.10291498  1
  Zr  Zr20  1  0.69164208  0.49519411  0.89709339  1
  Zr  Zr21  1  0.09935078  0.90599309  0.50864213  1
  Zr  Zr22  1  0.09869540  0.10218357  0.69151297  1
  Zr  Zr23  1  0.49951234  0.30110055  0.10421353  1
  Zr  Zr24  1  0.49468038  0.30963340  0.90365123  1
  Zr  Zr25  1  0.90457071  0.90612564  0.30038292  1
  Zr  Zr26  1  0.90932796  0.10286544  0.29759149  1
  Zr  Zr27  1  0.69131316  0.08885994  0.70075595  1
  Zr  Zr28  1  0.09840287  0.69606949  0.09728602  1
  Zr  Zr29  1  0.30228634  0.69429926  0.90056269  1
  Zr  Zr30  1  0.09240016  0.70051187  0.89521294  1
  Zr  Zr31  1  0.30184536  0.30014207  0.69875135  1
  Zr  Zr32  1  0.10427295  0.49879150  0.09660772  1
  Zr  Zr33  1  0.50730615  0.70352936  0.09832676  1
  Zr  Zr34  1  0.29464006  0.89668017  0.69803399  1
  Zr  Zr35  1  0.30905569  0.49736744  0.30090564  1
  Zr  Zr36  1  0.69288452  0.49665275  0.30729033  1
  Zr  Zr37  1  0.10004291  0.89860846  0.70347953  1
  Zr  Zr38  1  0.10841641  0.50011572  0.90311556  1
  Zr  Zr39  1  0.10084611  0.68968092  0.69790124  1
  Zr  Zr40  1  0.89670269  0.29398768  0.30406508  1
  Zr  Zr41  1  0.29905863  0.30190858  0.90142027  1
  Zr  Zr42  1  0.29452734  0.90665529  0.09502427  1
  Zr  Zr43  1  0.90191274  0.10750530  0.09624916  1
  Zr  Zr44  1  0.69587460  0.71448796  0.49186132  1
  Zr  Zr45  1  0.50011267  0.89660743  0.90598518  1
  Zr  Zr46  1  0.69727909  0.70296256  0.70101363  1
  Zr  Zr47  1  0.09334128  0.69965366  0.29657501  1
  Zr  Zr48  1  0.70279829  0.09525965  0.89934935  1
  Zr  Zr49  1  0.30300653  0.10058893  0.49183039  1
  Sc  Sc50  1  0.70414268  0.49454862  0.70954578  1
  Sc  Sc51  1  0.28973423  0.10491667  0.90413717  1
  Sc  Sc52  1  0.09499751  0.90246271  0.29054771  1
  Sc  Sc53  1  0.49587077  0.70163599  0.50119351  1
  Sc  Sc54  1  0.90294602  0.49836745  0.50369868  1
  Sc  Sc55  1  0.88860546  0.49577446  0.30211103  1
  Sc  Sc56  1  0.69425041  0.30618080  0.69284881  1
  Sc  Sc57  1  0.10328911  0.89859035  0.10243985  1
  Sc  Sc58  1  0.90244110  0.70612659  0.29850857  1
  Sc  Sc59  1  0.49417916  0.11268626  0.11312684  1
  Sc  Sc60  1  0.29624899  0.91204290  0.30024403  1
  Sc  Sc61  1  0.49853426  0.49707551  0.69981288  1
  Sc  Sc62  1  0.10945817  0.29430530  0.30035163  1
  Sc  Sc63  1  0.30343444  0.10311324  0.30071974  1
  Sc  Sc64  1  0.10585712  0.10159466  0.10403468  1
  Sc  Sc65  1  0.10923222  0.49387185  0.29354932  1
  Sc  Sc66  1  0.70971683  0.10583156  0.09926089  1
  Sc  Sc67  1  0.49902935  0.68796222  0.90641314  1
  Sc  Sc68  1  0.90665410  0.28663186  0.90041935  1
  Sc  Sc69  1  0.69687955  0.30104639  0.30371194  1
  Sc  Sc70  1  0.29944184  0.90655948  0.50514139  1
  Sc  Sc71  1  0.11423335  0.30032900  0.09948050  1
  Sc  Sc72  1  0.69074265  0.10643695  0.49701320  1
  Sc  Sc73  1  0.30659117  0.49594801  0.50039354  1
  Sc  Sc74  1  0.89958597  0.49843567  0.70324807  1
  Sc  Sc75  1  0.10374548  0.10262849  0.50198344  1
  Sc  Sc76  1  0.49918619  0.90527471  0.30557148  1
  Sc  Sc77  1  0.49691368  0.11156459  0.88971903  1
  Sc  Sc78  1  0.10817705  0.30180559  0.50406549  1
  Sc  Sc79  1  0.69635058  0.10956081  0.30678320  1
  Sc  Sc80  1  0.69836586  0.69101441  0.90015147  1
  Sc  Sc81  1  0.69421017  0.89770315  0.70128528  1
  Sc  Sc82  1  0.69671915  0.29913060  0.49684438  1
  Sc  Sc83  1  0.90363042  0.69629617  0.90445497  1
  Sc  Sc84  1  0.50355000  0.10066763  0.69463285  1
  Sc  Sc85  1  0.50262192  0.30153838  0.50490240  1
  Sc  Sc86  1  0.49944237  0.90522320  0.50153963  1
  Sc  Sc87  1  0.29582564  0.68840091  0.29526726  1
  Sc  Sc88  1  0.89499076  0.89581113  0.70548278  1
  Sc  Sc89  1  0.29876406  0.50463702  0.69885843  1
  Sc  Sc90  1  0.71019946  0.49312776  0.09800643  1
  Sc  Sc91  1  0.89266815  0.50377062  0.89627666  1
  Sc  Sc92  1  0.49954777  0.10777674  0.30426484  1
  Sc  Sc93  1  0.30027468  0.30209319  0.30294981  1
  Sc  Sc94  1  0.69781524  0.30919676  0.89041092  1
  Sc  Sc95  1  0.70565094  0.90755792  0.89474821  1
  Sc  Sc96  1  0.30118984  0.10539712  0.69561034  1
  Sc  Sc97  1  0.70405238  0.88971939  0.09737366  1
  Sc  Sc98  1  0.30051036  0.69395293  0.69871852  1
  Sc  Sc99  1  0.30225349  0.29794397  0.49687562  1
  Nb  Nb100  1  0.69714977  0.30035084  0.09946495  1
  Nb  Nb101  1  0.69811045  0.89303509  0.30068053  1
  Nb  Nb102  1  0.90005022  0.49680655  0.09745649  1
  Nb  Nb103  1  0.30940746  0.50279150  0.90591361  1
  Nb  Nb104  1  0.90275227  0.69702517  0.09733383  1
  Nb  Nb105  1  0.09438240  0.49525821  0.69452597  1
  Nb  Nb106  1  0.50009676  0.49502584  0.29832287  1
  Nb  Nb107  1  0.30934309  0.29135923  0.09748613  1
  Nb  Nb108  1  0.90191447  0.70172344  0.49659083  1
  Nb  Nb109  1  0.30786643  0.10629034  0.09831883  1
  Nb  Nb110  1  0.49461992  0.49887863  0.90532556  1
  Nb  Nb111  1  0.09397854  0.50434396  0.50669161  1
  Nb  Nb112  1  0.89645136  0.89884452  0.49728754  1
  Nb  Nb113  1  0.08999345  0.10793631  0.90046626  1
  Nb  Nb114  1  0.29421008  0.90428844  0.90096369  1
  Nb  Nb115  1  0.50288506  0.10027157  0.49795754  1
  Nb  Nb116  1  0.09872693  0.29688393  0.89867070  1
  Nb  Nb117  1  0.89570670  0.30203111  0.09989860  1
  Nb  Nb118  1  0.09180125  0.69263836  0.49761762  1
  Nb  Nb119  1  0.09713613  0.10076611  0.29973383  1
  Nb  Nb120  1  0.70383906  0.90190824  0.49218028  1
  Nb  Nb121  1  0.69421841  0.70437223  0.29951529  1
  Nb  Nb122  1  0.90259964  0.90076268  0.10061580  1
  Nb  Nb123  1  0.50580995  0.30871519  0.29035110  1
  Nb  Nb124  1  0.10943817  0.91034655  0.90076138  1
  Nb  Nb125  1  0.00375568  0.00128411  -0.00355129  1
  Nb  Nb126  1  -0.00645742  0.39749823  0.19600057  1
  Nb  Nb127  1  0.39389802  -0.00567666  0.80624908  1
  Nb  Nb128  1  0.60880959  -0.00149125  0.19899346  1
  Nb  Nb129  1  0.79754852  0.60942776  0.59495243  1
  Nb  Nb130  1  0.59548110  0.00805244  0.00595688  1
  Nb  Nb131  1  -0.00114443  0.39589532  0.00161667  1
  Nb  Nb132  1  0.60106871  0.20388915  0.00228508  1
  Nb  Nb133  1  0.38950100  0.79866688  0.39740874  1
  Nb  Nb134  1  -0.00855361  0.59246354  0.19202438  1
  Nb  Nb135  1  0.39931980  0.00422146  0.00034436  1
  Nb  Nb136  1  0.19699137  0.79400404  0.40456604  1
  Nb  Nb137  1  0.60197527  0.59721497  0.20586592  1
  Nb  Nb138  1  0.19168090  0.60005533  0.40830470  1
  Nb  Nb139  1  0.60606427  0.60083355  0.59724838  1
  Nb  Nb140  1  0.00301942  0.40026959  0.39861522  1
  Nb  Nb141  1  0.00897103  0.39657675  0.80436798  1
  Nb  Nb142  1  0.39837793  0.79978518  0.20199153  1
  Nb  Nb143  1  0.79955771  -0.00319584  0.20371097  1
  Nb  Nb144  1  0.79652679  0.60759467  0.40461544  1
  Nb  Nb145  1  -0.00527566  0.79412966  0.59443663  1
  Nb  Nb146  1  0.39524022  0.80571706  0.80499572  1
  Nb  Nb147  1  0.79933963  0.19581350  0.79328762  1
  Nb  Nb148  1  0.00515957  0.00193803  0.80534885  1
  Nb  Nb149  1  0.79807273  -0.00670469  0.58839547  1
  Pd  Pd150  1  0.40314832  0.40194832  0.59921089  1
  Pd  Pd151  1  0.20680480  0.80187339  0.20873311  1
  Pd  Pd152  1  0.20162053  0.40560623  0.80060641  1
  Pd  Pd153  1  0.59337990  0.59571116  0.79345108  1
  Pd  Pd154  1  0.40682708  -0.00196638  0.19824652  1
  Pd  Pd155  1  0.80014902  0.60080539  0.20827196  1
  Pd  Pd156  1  0.79995925  0.40710229  0.60072222  1
  Pd  Pd157  1  0.00572142  0.80797410  0.00212832  1
  Pd  Pd158  1  0.19713205  0.19850055  0.00195749  1
  Pd  Pd159  1  0.80442941  0.80191587  0.60156155  1
  Pd  Pd160  1  0.79400192  0.19826973  0.20636536  1
  Pd  Pd161  1  0.19575142  0.40728977  0.40668175  1
  Pd  Pd162  1  0.39897301  0.00436156  0.60442374  1
  Pd  Pd163  1  0.60094480  -0.00027648  0.39567149  1
  Pd  Pd164  1  0.20099646  0.59425457  0.79874827  1
  Pd  Pd165  1  0.19107327  0.79329755  0.59611434  1
  Pd  Pd166  1  0.61286717  0.80230426  -0.00920356  1
  Pd  Pd167  1  0.39321636  0.80242132  0.00163017  1
  Pd  Pd168  1  0.20006267  0.01286952  0.79709789  1
  Pd  Pd169  1  0.79827120  0.79664588  -0.00631622  1
  Pd  Pd170  1  0.19990535  0.00980032  0.20073775  1
  Pd  Pd171  1  0.60721270  0.20379763  0.80206518  1
  Pd  Pd172  1  0.01140479  0.20840213  0.40644459  1
  Pd  Pd173  1  0.60625621  0.59153481  0.01175773  1
  Pd  Pd174  1  0.79519540  0.79631352  0.81027255  1
  Pd  Pd175  1  0.00994907  -0.00093168  0.40061230  1
  Pd  Pd176  1  -0.00347831  0.58706326  0.38854057  1
  Pd  Pd177  1  0.78763103  0.19084726  0.60185252  1
  Pd  Pd178  1  0.20472964  0.40473826  0.59512466  1
  Pd  Pd179  1  0.80547242  0.39268613  -0.01123544  1
  Pd  Pd180  1  0.40371434  0.19690293  0.59598563  1
  Pd  Pd181  1  0.80912937  0.80416232  0.20313862  1
  Pd  Pd182  1  0.79735269  0.59849320  -0.00277451  1
  Pd  Pd183  1  0.80450743  0.79752214  0.39060816  1
  Pd  Pd184  1  -0.01268336  0.60209379  0.60594098  1
  Pd  Pd185  1  0.39766178  0.40737439  0.79734164  1
  Pd  Pd186  1  0.59417807  0.80250273  0.59457915  1
  Pd  Pd187  1  0.79750114  0.39523797  0.20361593  1
  Pd  Pd188  1  0.59437368  0.79545928  0.80918978  1
  Pd  Pd189  1  0.19447947  0.79607669  -0.00437575  1
  Pd  Pd190  1  0.00694330  0.80893795  0.40385056  1
  Pd  Pd191  1  0.79034991  0.21250662  -0.01064642  1
  Pd  Pd192  1  0.40697202  0.20872331  0.39636153  1
  Pd  Pd193  1  0.19284582  -0.00187455  0.39682417  1
  Pd  Pd194  1  0.20872500  0.19759222  0.20446147  1
  Pd  Pd195  1  0.20199735  0.19583123  0.79847213  1
  Pd  Pd196  1  0.79513652  0.00805240  0.39687900  1
  Pd  Pd197  1  0.20303511  0.79309839  0.80310451  1
  Pd  Pd198  1  0.40940303  0.60381403  0.19384996  1
  Pd  Pd199  1  0.00783303  0.21016533  0.19355989  1
  Rh  Rh200  1  0.59653324  0.40548181  0.60161713  1
  Rh  Rh201  1  0.40701922  0.19490221  -0.00347953  1
  Rh  Rh202  1  0.40780195  0.39248883  0.39564544  1
  Rh  Rh203  1  0.20182200  0.60431624  -0.00584264  1
  Rh  Rh204  1  0.58934026  0.40215963  0.79812892  1
  Rh  Rh205  1  0.19843267  0.01039310  0.00371400  1
  Rh  Rh206  1  0.19787235  0.59172816  0.59674922  1
  Rh  Rh207  1  0.00587114  0.80733592  0.80043696  1
  Rh  Rh208  1  0.39160756  0.40258339  0.00490290  1
  Rh  Rh209  1  -0.00430461  0.59209488  0.00142351  1
  Rh  Rh210  1  0.60754713  -0.00177687  0.58753197  1
  Rh  Rh211  1  -0.01211717  -0.01469028  0.60732503  1
  Rh  Rh212  1  0.39624644  0.20781745  0.20975392  1
  Rh  Rh213  1  0.40205935  -0.00114460  0.40337817  1
  Rh  Rh214  1  0.80859554  0.00620499  0.78416858  1
  Rh  Rh215  1  0.20493086  0.39400910  -0.00228724  1
  Rh  Rh216  1  0.40087104  0.80522081  0.60123366  1
  Rh  Rh217  1  0.60640886  0.60214528  0.40092163  1
  Rh  Rh218  1  0.40122010  0.59395457  0.00831912  1
  Rh  Rh219  1  0.60823815  0.40551877  0.19764844  1
  Rh  Rh220  1  0.00746945  0.20280942  0.01053856  1
  Rh  Rh221  1  -0.00290638  0.20095450  0.79242412  1
  Rh  Rh222  1  0.59179309  0.79908960  0.21068715  1
  Rh  Rh223  1  0.38767744  0.60494488  0.40353016  1
  Rh  Rh224  1  0.00170994  0.39592521  0.59979121  1
  Rh  Rh225  1  0.60267675  0.39649745  0.00134268  1
  Rh  Rh226  1  0.19891625  0.19382343  0.39805474  1
  Rh  Rh227  1  0.40280517  0.60056009  0.80149700  1
  Rh  Rh228  1  0.79814084  0.19679997  0.40203277  1
  Rh  Rh229  1  0.00282544  0.58573794  0.80292503  1
  Rh  Rh230  1  0.00661600  0.20836241  0.59170357  1
  Rh  Rh231  1  0.58848181  0.80881951  0.39835310  1
  Rh  Rh232  1  0.20643634  0.39253125  0.19741871  1
  Rh  Rh233  1  0.58766427  -0.00107464  0.81089248  1
  Rh  Rh234  1  0.79636401  0.60281915  0.79715983  1
  Rh  Rh235  1  0.20664489  0.20071059  0.59495513  1
  Rh  Rh236  1  0.80189580  -0.00647753  0.01434345  1
  Rh  Rh237  1  0.80570911  0.40156274  0.40534592  1
  Rh  Rh238  1  0.59097414  0.20713485  0.40020697  1
  Rh  Rh239  1  0.20698207  0.00839670  0.60027677  1
  Rh  Rh240  1  0.41037804  0.59222442  0.59934480  1
  Rh  Rh241  1  0.39369477  0.39306622  0.20022009  1
  Rh  Rh242  1  0.59235092  0.39010552  0.40055304  1
  Rh  Rh243  1  0.81337366  0.38762138  0.80253902  1
  Rh  Rh244  1  0.39215361  0.19594382  0.79967978  1
  Rh  Rh245  1  0.59715079  0.20042672  0.59904197  1
  Rh  Rh246  1  0.60530621  0.19902572  0.19569018  1
  Rh  Rh247  1  -0.00400493  0.00446321  0.18999702  1
  Rh  Rh248  1  0.19155643  0.59894108  0.20620570  1
  Rh  Rh249  1  -0.00475483  0.79351097  0.19129644  1
