# generated using pymatgen
data_ZrScNbPdRh
_symmetry_space_group_name_H-M   'P 1'
_cell_length_a   16.56144331
_cell_length_b   16.55904782
_cell_length_c   16.55663853
_cell_angle_alpha   89.96288927
_cell_angle_beta   89.99294875
_cell_angle_gamma   90.02934111
_symmetry_Int_Tables_number   1
_chemical_formula_structural   ZrScNbPdRh
_chemical_formula_sum   'Zr50 Sc50 Nb50 Pd50 Rh50'
_cell_volume   4540.51964082
_cell_formula_units_Z   50
loop_
 _symmetry_equiv_pos_site_id
 _symmetry_equiv_pos_as_xyz
  1  'x, y, z'
loop_
 _atom_site_type_symbol
 _atom_site_label
 _atom_site_symmetry_multiplicity
 _atom_site_fract_x
 _atom_site_fract_y
 _atom_site_fract_z
 _atom_site_occupancy
  Zr  Zr0  1  0.30207698  0.88621847  0.89979334  1
  Zr  Zr1  1  0.90171977  0.70074151  0.69225081  1
  Zr  Zr2  1  0.09888573  0.89795402  0.90703764  1
  Zr  Zr3  1  0.70537987  0.50328760  0.90362600  1
  Zr  Zr4  1  0.69670616  0.10521772  0.89253896  1
  Zr  Zr5  1  0.69069569  0.50164907  0.10100757  1
  Zr  Zr6  1  0.29534214  0.90165931  0.28707153  1
  Zr  Zr7  1  0.49728780  0.90129860  0.70238886  1
  Zr  Zr8  1  0.89419029  0.49297884  0.48688452  1
  Zr  Zr9  1  0.30322896  0.10123970  0.30629268  1
  Zr  Zr10  1  0.49967631  0.30088674  0.50134044  1
  Zr  Zr11  1  0.30295078  0.49726601  0.49103939  1
  Zr  Zr12  1  0.70252261  0.30226677  0.90226578  1
  Zr  Zr13  1  0.49879440  0.50145320  0.29902512  1
  Zr  Zr14  1  0.10184075  0.09292392  0.29983994  1
  Zr  Zr15  1  0.08891526  0.50212918  0.09928817  1
  Zr  Zr16  1  0.50334022  0.09728735  0.09519375  1
  Zr  Zr17  1  0.50426793  0.10203918  0.89993232  1
  Zr  Zr18  1  0.08708223  0.10064175  0.90723606  1
  Zr  Zr19  1  0.50084906  0.50370230  0.68782469  1
  Zr  Zr20  1  0.09861915  0.10829656  0.69958437  1
  Zr  Zr21  1  0.10228621  0.10468058  0.49705994  1
  Zr  Zr22  1  0.49984716  0.10169359  0.70614728  1
  Zr  Zr23  1  0.30203909  0.69758376  0.90696380  1
  Zr  Zr24  1  0.69928961  0.09829194  0.69744815  1
  Zr  Zr25  1  0.70451816  0.89599183  0.29702220  1
  Zr  Zr26  1  0.10513280  0.30057194  0.89881093  1
  Zr  Zr27  1  0.48623543  0.09973111  0.49419066  1
  Zr  Zr28  1  0.49814127  0.69897615  0.49391454  1
  Zr  Zr29  1  0.89819445  0.30010375  0.48902454  1
  Zr  Zr30  1  0.69953537  0.10283233  0.50093970  1
  Zr  Zr31  1  0.49803083  0.29839740  0.69419213  1
  Zr  Zr32  1  0.70182835  0.90793899  0.69128465  1
  Zr  Zr33  1  0.29720067  0.49813231  0.90148827  1
  Zr  Zr34  1  0.10274945  0.90007663  0.29637456  1
  Zr  Zr35  1  0.89310124  0.09813574  0.71163926  1
  Zr  Zr36  1  0.09529981  0.29968164  0.30435028  1
  Zr  Zr37  1  0.09956964  0.49961436  0.30493561  1
  Zr  Zr38  1  0.49462992  0.90063267  0.09903180  1
  Zr  Zr39  1  0.31016526  0.48915126  0.09497317  1
  Zr  Zr40  1  0.90397546  0.69162831  0.31195466  1
  Zr  Zr41  1  0.09431199  0.29588952  0.50559759  1
  Zr  Zr42  1  0.90446639  0.51016831  0.70772653  1
  Zr  Zr43  1  0.10391650  0.49704981  0.69902295  1
  Zr  Zr44  1  0.70509182  0.30251386  0.49794751  1
  Zr  Zr45  1  0.69677746  0.90293054  0.10447044  1
  Zr  Zr46  1  0.50179715  0.69660771  0.09981089  1
  Zr  Zr47  1  0.10307776  0.30285442  0.69836082  1
  Zr  Zr48  1  0.29556098  0.30760237  0.69767359  1
  Zr  Zr49  1  0.09489650  0.68980734  0.69490684  1
  Sc  Sc50  1  0.69429750  0.90194434  0.89719028  1
  Sc  Sc51  1  0.11226723  0.69525599  0.89736533  1
  Sc  Sc52  1  0.10068465  0.69269383  0.30448095  1
  Sc  Sc53  1  0.90112476  0.10632150  0.49488419  1
  Sc  Sc54  1  0.30307959  0.70106305  0.30392656  1
  Sc  Sc55  1  0.29511206  0.49986603  0.68923313  1
  Sc  Sc56  1  0.88793460  0.88940108  0.50353142  1
  Sc  Sc57  1  0.10203959  0.90247509  0.69703782  1
  Sc  Sc58  1  0.29515622  0.30158580  0.91281587  1
  Sc  Sc59  1  0.10640342  0.69757292  0.10030663  1
  Sc  Sc60  1  0.49604154  0.30103422  0.30287977  1
  Sc  Sc61  1  0.89897293  0.90625699  0.90420457  1
  Sc  Sc62  1  0.09184292  0.90782329  0.49614188  1
  Sc  Sc63  1  0.31292665  0.09746701  0.10553007  1
  Sc  Sc64  1  0.10193173  0.49816133  0.89717064  1
  Sc  Sc65  1  0.50030970  0.70009208  0.69752197  1
  Sc  Sc66  1  0.89796452  0.10609891  0.29214599  1
  Sc  Sc67  1  0.69426111  0.09892893  0.11469675  1
  Sc  Sc68  1  0.10502341  0.90067683  0.10781894  1
  Sc  Sc69  1  0.29968586  0.69974334  0.70521712  1
  Sc  Sc70  1  0.89486485  0.90327553  0.30309043  1
  Sc  Sc71  1  0.70288566  0.28770163  0.30346211  1
  Sc  Sc72  1  0.49654065  0.30215979  0.10656259  1
  Sc  Sc73  1  0.70140781  0.28921743  0.69577044  1
  Sc  Sc74  1  0.08885354  0.69120827  0.49721855  1
  Sc  Sc75  1  0.69270380  0.70466129  0.29747036  1
  Sc  Sc76  1  0.30120351  0.09688470  0.69412180  1
  Sc  Sc77  1  0.50061130  0.50060601  0.49893789  1
  Sc  Sc78  1  0.90640647  0.49881132  0.90463326  1
  Sc  Sc79  1  0.90546683  0.30253737  0.09808333  1
  Sc  Sc80  1  0.50082558  0.50675966  0.92347084  1
  Sc  Sc81  1  0.88495271  0.89476678  0.10522264  1
  Sc  Sc82  1  0.70528703  0.71289434  0.10896978  1
  Sc  Sc83  1  0.49653336  0.10581734  0.29563617  1
  Sc  Sc84  1  0.69370126  0.50187194  0.30421917  1
  Sc  Sc85  1  0.68959367  0.69560937  0.70517125  1
  Sc  Sc86  1  0.31290220  0.91388434  0.50374350  1
  Sc  Sc87  1  0.70327277  0.70500251  0.48801105  1
  Sc  Sc88  1  0.30918562  0.10454596  0.90208252  1
  Sc  Sc89  1  0.49868550  0.90477372  0.89330427  1
  Sc  Sc90  1  0.90308186  0.30256870  0.90366704  1
  Sc  Sc91  1  0.69450975  0.50918484  0.69969872  1
  Sc  Sc92  1  0.30659388  0.90103159  0.70160909  1
  Sc  Sc93  1  0.09150110  0.09802874  0.10255540  1
  Sc  Sc94  1  0.70158622  0.30493071  0.10072940  1
  Sc  Sc95  1  0.89743840  0.69285204  0.89280686  1
  Sc  Sc96  1  0.10105196  0.29774753  0.09031130  1
  Sc  Sc97  1  0.50083880  0.70773402  0.89587360  1
  Sc  Sc98  1  0.30730615  0.68979816  0.49805545  1
  Sc  Sc99  1  0.90186419  0.29906564  0.69199284  1
  Nb  Nb100  1  0.90273569  0.09927733  0.09273964  1
  Nb  Nb101  1  0.89987011  0.30986592  0.30811646  1
  Nb  Nb102  1  0.69870677  0.50014346  0.50510884  1
  Nb  Nb103  1  0.30185477  0.70883970  0.10029560  1
  Nb  Nb104  1  0.89888708  0.69487341  0.50180546  1
  Nb  Nb105  1  0.50418783  0.29229579  0.89154760  1
  Nb  Nb106  1  0.70146044  0.09232834  0.30150163  1
  Nb  Nb107  1  0.30585213  0.29844230  0.49364122  1
  Nb  Nb108  1  0.30185450  0.31017807  0.29480375  1
  Nb  Nb109  1  0.29784294  0.30077047  0.10892216  1
  Nb  Nb110  1  0.50201614  0.70229907  0.30190279  1
  Nb  Nb111  1  0.90132312  0.69876722  0.10121441  1
  Nb  Nb112  1  0.50173532  0.50377800  0.10839486  1
  Nb  Nb113  1  0.90023495  0.09914003  0.90630620  1
  Nb  Nb114  1  0.69784056  0.90411256  0.49651592  1
  Nb  Nb115  1  0.90025854  0.50274184  0.09993384  1
  Nb  Nb116  1  0.30198718  0.10232881  0.49360578  1
  Nb  Nb117  1  0.90652649  0.49428798  0.29620443  1
  Nb  Nb118  1  0.29908017  0.49631059  0.29799991  1
  Nb  Nb119  1  0.89736942  0.89947690  0.69686204  1
  Nb  Nb120  1  0.50175095  0.90026532  0.49683445  1
  Nb  Nb121  1  0.10557660  0.50111328  0.50425282  1
  Nb  Nb122  1  0.70372167  0.70588936  0.89800831  1
  Nb  Nb123  1  0.29566465  0.89039163  0.09962124  1
  Nb  Nb124  1  0.50020492  0.88830376  0.30818128  1
  Nb  Nb125  1  0.40068066  0.59076289  0.80309157  1
  Nb  Nb126  1  0.80091981  0.60465326  0.00742412  1
  Nb  Nb127  1  0.19736490  0.00169543  0.80909657  1
  Nb  Nb128  1  0.59532452  0.39962516  0.80361736  1
  Nb  Nb129  1  0.79470112  0.40265101  0.80056227  1
  Nb  Nb130  1  0.79801027  0.00982237  0.00135654  1
  Nb  Nb131  1  0.60017168  -0.00454797  0.39831245  1
  Nb  Nb132  1  0.80307048  0.80225516  0.79414201  1
  Nb  Nb133  1  0.40803407  0.40216424  0.80357439  1
  Nb  Nb134  1  -0.00333047  0.79284366  0.19929288  1
  Nb  Nb135  1  -0.00363259  0.80178436  0.79783768  1
  Nb  Nb136  1  0.21128234  0.59318774  0.19981196  1
  Nb  Nb137  1  0.20543322  -0.00456368  0.00074034  1
  Nb  Nb138  1  0.19957142  0.79963321  0.59034929  1
  Nb  Nb139  1  0.39929919  0.59843813  0.19845452  1
  Nb  Nb140  1  -0.00721800  0.00267401  0.60540116  1
  Nb  Nb141  1  0.80856379  0.59454386  0.19930386  1
  Nb  Nb142  1  0.80662088  0.40602266  0.20363805  1
  Nb  Nb143  1  0.20102258  0.80255566  0.40676344  1
  Nb  Nb144  1  0.59900141  0.80839561  0.59044906  1
  Nb  Nb145  1  0.80274746  0.19272899  0.00166867  1
  Nb  Nb146  1  -0.00493125  0.79602508  0.00224236  1
  Nb  Nb147  1  0.60300305  0.80276492  0.00087809  1
  Nb  Nb148  1  0.80080666  0.60001849  0.59179906  1
  Nb  Nb149  1  0.20568710  0.20517341  0.20304087  1
  Pd  Pd150  1  0.79373415  0.59582124  0.39591205  1
  Pd  Pd151  1  0.40390804  0.79372802  0.20332164  1
  Pd  Pd152  1  0.60559021  0.20370612  0.00914614  1
  Pd  Pd153  1  0.79719994  -0.00658429  0.80796350  1
  Pd  Pd154  1  0.19348296  0.80247364  0.78756861  1
  Pd  Pd155  1  0.40506012  -0.00271545  0.20530789  1
  Pd  Pd156  1  0.61000219  0.61484684  0.00054737  1
  Pd  Pd157  1  0.20699031  0.19340611  0.80456752  1
  Pd  Pd158  1  0.38915703  0.20763178  0.79859216  1
  Pd  Pd159  1  0.80102262  0.00334112  0.40232934  1
  Pd  Pd160  1  0.60644561  0.39225369  0.20917765  1
  Pd  Pd161  1  0.00064249  0.39226901  0.19572540  1
  Pd  Pd162  1  -0.01147602  0.00066163  0.40468112  1
  Pd  Pd163  1  0.60813849  0.39624723  0.60571590  1
  Pd  Pd164  1  -0.00525645  0.39644304  0.80075626  1
  Pd  Pd165  1  0.80698369  0.19639205  0.59750403  1
  Pd  Pd166  1  0.39854007  0.79629532  0.59869660  1
  Pd  Pd167  1  0.00234918  0.80288892  0.39788898  1
  Pd  Pd168  1  0.38773496  0.80480006  0.40266937  1
  Pd  Pd169  1  0.41012197  0.38840834  -0.00373551  1
  Pd  Pd170  1  0.20337414  0.59438051  0.01032582  1
  Pd  Pd171  1  0.60141138  0.60008329  0.40255530  1
  Pd  Pd172  1  0.20524620  -0.00818398  0.40572016  1
  Pd  Pd173  1  0.20451000  0.20727717  0.39501926  1
  Pd  Pd174  1  0.00202863  0.20563416  0.20102326  1
  Pd  Pd175  1  0.39352920  0.19806388  0.60088697  1
  Pd  Pd176  1  -0.00993113  -0.01089536  0.19482530  1
  Pd  Pd177  1  0.19079963  0.40089648  0.19240356  1
  Pd  Pd178  1  0.59809701  0.20423912  0.20233367  1
  Pd  Pd179  1  -0.00486920  0.40582243  0.59580430  1
  Pd  Pd180  1  0.20491297  0.60704560  0.59469969  1
  Pd  Pd181  1  0.40295908  0.20814711  0.00502377  1
  Pd  Pd182  1  0.20304477  0.18616920  0.01246690  1
  Pd  Pd183  1  0.59064402  0.39211294  -0.00028007  1
  Pd  Pd184  1  0.58936626  0.59351335  0.81064248  1
  Pd  Pd185  1  0.20954870  0.20140262  0.59504941  1
  Pd  Pd186  1  0.19709875  -0.00340092  0.60040976  1
  Pd  Pd187  1  0.39404348  -0.00620302  -0.00586442  1
  Pd  Pd188  1  0.00751840  0.80744536  0.59920261  1
  Pd  Pd189  1  -0.00663100  0.20854104  0.80087954  1
  Pd  Pd190  1  0.78660644  0.78943674  0.60280350  1
  Pd  Pd191  1  -0.00182140  0.60788487  -0.00820198  1
  Pd  Pd192  1  0.00414854  -0.00586603  0.79516711  1
  Pd  Pd193  1  0.60289718  0.39827941  0.39784766  1
  Pd  Pd194  1  0.58935661  -0.00495597  0.21252304  1
  Pd  Pd195  1  0.58986992  0.00263788  0.59359267  1
  Pd  Pd196  1  0.79654467  0.40935336  0.61109378  1
  Pd  Pd197  1  0.19655290  0.39446892  0.40670685  1
  Pd  Pd198  1  0.80617736  0.20664383  0.19553961  1
  Pd  Pd199  1  0.59770803  0.19304480  0.39864437  1
  Rh  Rh200  1  0.40130097  0.59650765  0.38932044  1
  Rh  Rh201  1  0.80342374  0.00835603  0.19430457  1
  Rh  Rh202  1  0.60575928  -0.00381859  -0.00175171  1
  Rh  Rh203  1  -0.00452813  0.20557319  -0.00052415  1
  Rh  Rh204  1  0.00201366  0.58943258  0.40670290  1
  Rh  Rh205  1  0.80054616  0.79928774  0.39806953  1
  Rh  Rh206  1  0.78733680  0.40241078  0.38943808  1
  Rh  Rh207  1  0.00252839  0.60462882  0.20351067  1
  Rh  Rh208  1  0.00335672  0.39997757  -0.00243256  1
  Rh  Rh209  1  0.19481340  0.40300894  0.00457837  1
  Rh  Rh210  1  0.39630431  0.20898055  0.39485542  1
  Rh  Rh211  1  0.19148500  0.80256789  0.00810233  1
  Rh  Rh212  1  0.60243929  0.80473524  0.40304353  1
  Rh  Rh213  1  0.79917642  0.80043505  -0.01226300  1
  Rh  Rh214  1  0.39216777  0.00198992  0.80264759  1
  Rh  Rh215  1  0.40310023  0.39913393  0.40083194  1
  Rh  Rh216  1  -0.00232581  0.19583301  0.39187231  1
  Rh  Rh217  1  0.80578358  0.40230443  0.00337027  1
  Rh  Rh218  1  0.19276872  0.78703018  0.20876138  1
  Rh  Rh219  1  0.79774511  0.60017087  0.80061016  1
  Rh  Rh220  1  0.80608066  0.21001238  0.80834443  1
  Rh  Rh221  1  -0.00920142  0.58545142  0.58832653  1
  Rh  Rh222  1  0.59890110  0.60644857  0.20338587  1
  Rh  Rh223  1  0.60784237  0.61359829  0.58560862  1
  Rh  Rh224  1  -0.00571706  -0.01296014  0.01153354  1
  Rh  Rh225  1  -0.00656449  0.19281787  0.60251630  1
  Rh  Rh226  1  0.80108465  0.19631040  0.39423440  1
  Rh  Rh227  1  0.01002948  0.60545482  0.80699263  1
  Rh  Rh228  1  0.20192300  0.60268879  0.39749778  1
  Rh  Rh229  1  0.39823684  0.60646837  0.00387090  1
  Rh  Rh230  1  0.40545707  0.40281277  0.20239810  1
  Rh  Rh231  1  0.59655153  0.19646280  0.59534576  1
  Rh  Rh232  1  0.40436380  0.00612451  0.60229452  1
  Rh  Rh233  1  0.60648013  0.80587177  0.79655101  1
  Rh  Rh234  1  0.20560746  0.01384493  0.18879728  1
  Rh  Rh235  1  0.59145761  0.80392847  0.19493590  1
  Rh  Rh236  1  0.20606524  0.40097109  0.80220046  1
  Rh  Rh237  1  0.60293553  0.20390541  0.79239595  1
  Rh  Rh238  1  0.40959090  0.80002275  -0.00120455  1
  Rh  Rh239  1  0.39530847  0.20493055  0.20218179  1
  Rh  Rh240  1  0.40167171  0.79049862  0.79803484  1
  Rh  Rh241  1  0.39813212  0.60042170  0.60580724  1
  Rh  Rh242  1  0.81207597  0.78684212  0.21649370  1
  Rh  Rh243  1  0.40397774  -0.00552312  0.39010827  1
  Rh  Rh244  1  0.59845670  0.00001457  0.79817329  1
  Rh  Rh245  1  0.20242763  0.39521004  0.58794592  1
  Rh  Rh246  1  0.20614828  0.59313973  0.79557895  1
  Rh  Rh247  1  0.39478404  0.40148937  0.59662857  1
  Rh  Rh248  1  0.81020760  0.00719545  0.59179133  1
  Rh  Rh249  1  0.00987415  0.40333603  0.40852667  1
