# generated using pymatgen
data_ZrScNbPdRh
_symmetry_space_group_name_H-M   'P 1'
_cell_length_a   16.56284031
_cell_length_b   16.55727292
_cell_length_c   16.56314011
_cell_angle_alpha   90.02160552
_cell_angle_beta   90.00837144
_cell_angle_gamma   90.00217626
_symmetry_Int_Tables_number   1
_chemical_formula_structural   ZrScNbPdRh
_chemical_formula_sum   'Zr50 Sc50 Nb50 Pd50 Rh50'
_cell_volume   4542.20009183
_cell_formula_units_Z   50
loop_
 _symmetry_equiv_pos_site_id
 _symmetry_equiv_pos_as_xyz
  1  'x, y, z'
loop_
 _atom_site_type_symbol
 _atom_site_label
 _atom_site_symmetry_multiplicity
 _atom_site_fract_x
 _atom_site_fract_y
 _atom_site_fract_z
 _atom_site_occupancy
  Zr  Zr0  1  0.69979229  0.69955847  0.69280229  1
  Zr  Zr1  1  0.90538966  0.09808592  0.09394669  1
  Zr  Zr2  1  0.09971687  0.89884152  0.50067542  1
  Zr  Zr3  1  0.90575267  0.49704852  0.89317716  1
  Zr  Zr4  1  0.90221929  0.50601209  0.29620109  1
  Zr  Zr5  1  0.31103894  0.90605621  0.30519500  1
  Zr  Zr6  1  0.29930909  0.69600553  0.49988231  1
  Zr  Zr7  1  0.90273083  0.71745540  0.29783909  1
  Zr  Zr8  1  0.09936917  0.28153382  0.50101981  1
  Zr  Zr9  1  0.69479332  0.09713691  0.69839281  1
  Zr  Zr10  1  0.09274382  0.69879745  0.29694287  1
  Zr  Zr11  1  0.50125353  0.10004965  0.09542471  1
  Zr  Zr12  1  0.48931434  0.50521322  0.29217616  1
  Zr  Zr13  1  0.69564860  0.51473006  0.50708683  1
  Zr  Zr14  1  0.09642536  0.09872860  0.69254284  1
  Zr  Zr15  1  0.10166855  0.88943780  0.89428484  1
  Zr  Zr16  1  0.70067025  0.09650524  0.89892764  1
  Zr  Zr17  1  0.69777694  0.90020922  0.70461186  1
  Zr  Zr18  1  0.10014100  0.50274120  0.71781961  1
  Zr  Zr19  1  0.49800021  0.71046948  0.70140490  1
  Zr  Zr20  1  0.30224624  0.70204815  0.90146673  1
  Zr  Zr21  1  0.90379241  0.89785554  0.10471342  1
  Zr  Zr22  1  0.09673925  0.29514392  0.30027561  1
  Zr  Zr23  1  0.28895547  0.09875992  0.48595103  1
  Zr  Zr24  1  0.30353143  0.49955722  0.30519045  1
  Zr  Zr25  1  0.89496487  0.89866476  0.70431026  1
  Zr  Zr26  1  0.10304766  0.30601538  0.10715694  1
  Zr  Zr27  1  0.90030714  0.29360048  0.50419619  1
  Zr  Zr28  1  0.30041080  0.29542819  0.89518712  1
  Zr  Zr29  1  0.88961886  0.70363246  0.50183032  1
  Zr  Zr30  1  0.30678654  0.09953199  0.90687833  1
  Zr  Zr31  1  0.89566738  0.09643953  0.90585954  1
  Zr  Zr32  1  0.69820464  0.50403263  0.09846499  1
  Zr  Zr33  1  0.49355218  0.10052149  0.28924325  1
  Zr  Zr34  1  0.29960622  0.90252586  0.90149379  1
  Zr  Zr35  1  0.30367957  0.09735762  0.71192708  1
  Zr  Zr36  1  0.30218697  0.69657467  0.69595849  1
  Zr  Zr37  1  0.49344966  0.29256051  0.90261055  1
  Zr  Zr38  1  0.69646893  0.09659155  0.09305034  1
  Zr  Zr39  1  0.30893822  0.50654543  0.50105689  1
  Zr  Zr40  1  0.71006116  0.50438787  0.89903895  1
  Zr  Zr41  1  0.70268256  0.90318139  0.29684586  1
  Zr  Zr42  1  0.30131803  0.89853957  0.70088824  1
  Zr  Zr43  1  0.49316712  0.49914731  0.69033788  1
  Zr  Zr44  1  0.10186619  0.49563897  0.29076846  1
  Zr  Zr45  1  0.31192642  0.69534779  0.30202587  1
  Zr  Zr46  1  0.89999902  0.09546029  0.29729711  1
  Zr  Zr47  1  0.50288059  0.50195915  0.49694888  1
  Zr  Zr48  1  0.70103902  0.30021533  0.10119078  1
  Zr  Zr49  1  0.50151374  0.70588417  0.90465356  1
  Sc  Sc50  1  0.09491414  0.69718796  0.09148798  1
  Sc  Sc51  1  0.30185271  0.90543847  0.09526939  1
  Sc  Sc52  1  0.49487345  0.29062103  0.69541478  1
  Sc  Sc53  1  0.69753561  0.89647690  0.50566229  1
  Sc  Sc54  1  0.29340089  0.49785536  0.89088517  1
  Sc  Sc55  1  0.30420574  0.28872650  0.49961132  1
  Sc  Sc56  1  0.11336703  0.51036242  0.49802679  1
  Sc  Sc57  1  0.69387462  0.90344830  0.09716962  1
  Sc  Sc58  1  0.10836520  0.08853622  0.90679338  1
  Sc  Sc59  1  0.70358014  0.70316249  0.90143153  1
  Sc  Sc60  1  0.70705488  0.29148919  0.89696552  1
  Sc  Sc61  1  0.09926568  0.09697537  0.09774676  1
  Sc  Sc62  1  0.49407460  0.50033782  0.89710405  1
  Sc  Sc63  1  0.89472827  0.50064145  0.71100790  1
  Sc  Sc64  1  0.89799765  0.10028606  0.51088258  1
  Sc  Sc65  1  0.50459373  0.70443472  0.10461349  1
  Sc  Sc66  1  0.88736659  0.09934442  0.69563199  1
  Sc  Sc67  1  0.68965555  0.29407543  0.50371676  1
  Sc  Sc68  1  0.49936663  0.10619913  0.51079007  1
  Sc  Sc69  1  0.30309324  0.89780861  0.49866934  1
  Sc  Sc70  1  0.90084426  0.70536310  0.90276786  1
  Sc  Sc71  1  0.68976253  0.30184964  0.29557971  1
  Sc  Sc72  1  0.10206322  0.90586213  0.09216519  1
  Sc  Sc73  1  0.70337066  0.29137424  0.70193000  1
  Sc  Sc74  1  0.90786094  0.29670174  0.09586253  1
  Sc  Sc75  1  0.10015205  0.29742765  0.70485807  1
  Sc  Sc76  1  0.49700742  0.89537658  0.50311291  1
  Sc  Sc77  1  0.08900470  0.89554543  0.29708579  1
  Sc  Sc78  1  0.69481908  0.49844290  0.29697096  1
  Sc  Sc79  1  0.90920932  0.29813396  0.29390426  1
  Sc  Sc80  1  0.49659550  0.29823644  0.10210701  1
  Sc  Sc81  1  0.10299589  0.10285332  0.30710146  1
  Sc  Sc82  1  0.90196348  0.49492985  0.09577905  1
  Sc  Sc83  1  0.50281246  0.29731809  0.50032609  1
  Sc  Sc84  1  0.30392881  0.30119860  0.09144450  1
  Sc  Sc85  1  0.69613016  0.70917761  0.30694749  1
  Sc  Sc86  1  0.89833728  0.29880158  0.70572738  1
  Sc  Sc87  1  0.49705571  0.30015722  0.29771102  1
  Sc  Sc88  1  0.10593908  0.31014360  0.89919933  1
  Sc  Sc89  1  0.89509961  0.89496198  0.90266666  1
  Sc  Sc90  1  0.89678828  0.29968897  0.89950559  1
  Sc  Sc91  1  0.50063796  0.71048210  0.30168392  1
  Sc  Sc92  1  0.09705062  0.50015499  0.09380659  1
  Sc  Sc93  1  0.69128347  0.70075731  0.09185131  1
  Sc  Sc94  1  0.89050228  0.90065668  0.50259583  1
  Sc  Sc95  1  0.30450516  0.49163959  0.10855284  1
  Sc  Sc96  1  0.88934256  0.70650209  0.70733248  1
  Sc  Sc97  1  0.89205510  0.51070463  0.50375399  1
  Sc  Sc98  1  0.30811398  0.70762767  0.09748378  1
  Sc  Sc99  1  0.69248881  0.09640498  0.29147140  1
  Nb  Nb100  1  0.49771953  0.09983722  0.89395171  1
  Nb  Nb101  1  0.90022193  0.89969158  0.30150314  1
  Nb  Nb102  1  0.30318239  0.10029016  0.29232932  1
  Nb  Nb103  1  0.49715341  0.08956791  0.70760523  1
  Nb  Nb104  1  0.49574717  0.90686545  0.70476626  1
  Nb  Nb105  1  0.10280122  0.89821327  0.70130297  1
  Nb  Nb106  1  0.09562111  0.09973949  0.49962831  1
  Nb  Nb107  1  0.90305629  0.70065155  0.10977775  1
  Nb  Nb108  1  0.30263210  0.49477504  0.69441583  1
  Nb  Nb109  1  0.69143907  0.70084261  0.50672217  1
  Nb  Nb110  1  0.69949722  0.90386850  0.90440075  1
  Nb  Nb111  1  0.30292619  0.09841898  0.10815001  1
  Nb  Nb112  1  0.09973179  0.51569392  0.89725932  1
  Nb  Nb113  1  0.50419150  0.50788710  0.09701034  1
  Nb  Nb114  1  0.10567483  0.68596942  0.89122439  1
  Nb  Nb115  1  0.30018692  0.30079487  0.29354901  1
  Nb  Nb116  1  0.51397023  0.70246726  0.50012553  1
  Nb  Nb117  1  0.69900340  0.50085927  0.70193218  1
  Nb  Nb118  1  0.10415574  0.70774965  0.70076120  1
  Nb  Nb119  1  0.50032239  0.89739581  0.90236596  1
  Nb  Nb120  1  0.50829060  0.89692895  0.09831982  1
  Nb  Nb121  1  0.69918127  0.10118138  0.50131585  1
  Nb  Nb122  1  0.50765032  0.89845215  0.30415948  1
  Nb  Nb123  1  0.10250490  0.70228104  0.50036163  1
  Nb  Nb124  1  0.29485069  0.30443570  0.70626161  1
  Nb  Nb125  1  0.20232962  0.79808222  0.20516759  1
  Nb  Nb126  1  0.20235440  0.39964910  0.60134854  1
  Nb  Nb127  1  0.80246193  0.60750279  0.19714712  1
  Nb  Nb128  1  0.40296898  0.59848439  0.00145048  1
  Nb  Nb129  1  0.19974592  0.79453980  0.39523861  1
  Nb  Nb130  1  -0.00482932  -0.00102633  0.40287648  1
  Nb  Nb131  1  0.19704338  0.00142885  0.59994688  1
  Nb  Nb132  1  0.59720115  0.00081355  0.39972484  1
  Nb  Nb133  1  0.00446777  0.60677469  0.60229023  1
  Nb  Nb134  1  0.80139792  0.39695990  0.40483465  1
  Nb  Nb135  1  0.60055107  0.59534444  0.79623859  1
  Nb  Nb136  1  0.19960160  0.39429775  0.40246630  1
  Nb  Nb137  1  0.20935920  0.19614663  0.20027961  1
  Nb  Nb138  1  0.79813001  0.40303253  0.59791232  1
  Nb  Nb139  1  0.00084984  -0.00243317  0.79700489  1
  Nb  Nb140  1  0.00061478  0.18889649  0.80359382  1
  Nb  Nb141  1  0.79606979  0.19936118  0.39573259  1
  Nb  Nb142  1  0.80008283  0.19680527  0.19898253  1
  Nb  Nb143  1  0.00572494  0.79634932  0.60465577  1
  Nb  Nb144  1  0.00368230  0.40763582  0.59750905  1
  Nb  Nb145  1  0.00082547  0.40644824  0.40925630  1
  Nb  Nb146  1  0.60036883  0.40391926  -0.00516526  1
  Nb  Nb147  1  0.00005640  0.60471062  0.40481635  1
  Nb  Nb148  1  0.60068461  0.40258580  0.80027734  1
  Nb  Nb149  1  0.20325540  0.60513543  0.20061798  1
  Pd  Pd150  1  0.40427794  0.40728242  0.00046560  1
  Pd  Pd151  1  0.39434201  0.38899318  0.59398515  1
  Pd  Pd152  1  0.40785374  -0.01040223  0.19319418  1
  Pd  Pd153  1  0.59532239  0.20371457  0.79654502  1
  Pd  Pd154  1  0.39933754  0.80978628  0.19633044  1
  Pd  Pd155  1  0.59751486  -0.00368425  0.80768957  1
  Pd  Pd156  1  0.78894357  0.79713929  0.19101887  1
  Pd  Pd157  1  0.39278622  0.19439203  0.60563704  1
  Pd  Pd158  1  0.60443610  0.79727479  0.80307589  1
  Pd  Pd159  1  0.60011738  0.19186741  0.39548800  1
  Pd  Pd160  1  0.00742065  0.00271424  0.20499051  1
  Pd  Pd161  1  0.60428089  0.40238368  0.40064790  1
  Pd  Pd162  1  0.60583866  0.39323871  0.60765306  1
  Pd  Pd163  1  0.19988129  0.19785193  0.00810119  1
  Pd  Pd164  1  0.19541451  -0.00242805  0.20455306  1
  Pd  Pd165  1  0.60058036  0.20570310  -0.00227819  1
  Pd  Pd166  1  0.40655459  -0.00190666  0.00132209  1
  Pd  Pd167  1  0.79152069  0.80349936  0.40531748  1
  Pd  Pd168  1  0.20698931  0.79571468  0.80057757  1
  Pd  Pd169  1  0.39677320  0.39013579  0.40383432  1
  Pd  Pd170  1  0.41234036  0.00674903  0.40784240  1
  Pd  Pd171  1  0.59723007  0.60128274  0.38867362  1
  Pd  Pd172  1  0.19555193  0.59413912  0.61078994  1
  Pd  Pd173  1  0.21207094  0.59458539  0.01004481  1
  Pd  Pd174  1  0.40276456  0.79788064  0.59473206  1
  Pd  Pd175  1  0.59073761  0.40040022  0.19359287  1
  Pd  Pd176  1  0.79833235  0.60101014  0.38905245  1
  Pd  Pd177  1  0.01147190  0.20421449  -0.00882227  1
  Pd  Pd178  1  -0.00133430  -0.00819337  0.60033396  1
  Pd  Pd179  1  -0.00801684  0.60203628  -0.00089716  1
  Pd  Pd180  1  0.19122592  -0.00862648  0.39614559  1
  Pd  Pd181  1  0.79734348  0.00541410  0.40553586  1
  Pd  Pd182  1  0.59799280  -0.00309320  0.59401415  1
  Pd  Pd183  1  0.79786439  0.39524432  -0.00262512  1
  Pd  Pd184  1  0.60647256  0.60953322  0.20652939  1
  Pd  Pd185  1  0.79908963  0.00232970  0.19129331  1
  Pd  Pd186  1  0.20846121  0.19715365  0.60661885  1
  Pd  Pd187  1  0.79763763  0.80188390  0.00820822  1
  Pd  Pd188  1  0.19631438  0.79666794  0.00576932  1
  Pd  Pd189  1  0.19213860  0.19403218  0.80427114  1
  Pd  Pd190  1  0.00448030  0.40008372  -0.00759937  1
  Pd  Pd191  1  0.40084175  0.59908404  0.80324510  1
  Pd  Pd192  1  -0.00938593  0.61343281  0.79448443  1
  Pd  Pd193  1  0.00404837  0.79692313  -0.00147883  1
  Pd  Pd194  1  0.39132728  0.00617250  0.59411535  1
  Pd  Pd195  1  0.40326870  0.19870593  0.39654479  1
  Pd  Pd196  1  0.40513579  0.39702252  0.79847061  1
  Pd  Pd197  1  0.81084879  0.60595847  0.00637371  1
  Pd  Pd198  1  0.80590169  0.39705368  0.20642989  1
  Pd  Pd199  1  0.20024654  0.40958299  -0.00354832  1
  Rh  Rh200  1  0.59584803  0.80857155  0.60464219  1
  Rh  Rh201  1  0.40178850  0.20126294  0.79571311  1
  Rh  Rh202  1  0.39877356  0.19393182  0.00447382  1
  Rh  Rh203  1  0.20466163  0.39737503  0.20269159  1
  Rh  Rh204  1  0.01045398  0.80735438  0.18737645  1
  Rh  Rh205  1  0.80531190  0.59729596  0.61070697  1
  Rh  Rh206  1  0.39703186  0.60073796  0.18796054  1
  Rh  Rh207  1  0.40827278  0.60898951  0.59532666  1
  Rh  Rh208  1  0.60291912  0.80576409  -0.00252663  1
  Rh  Rh209  1  0.59300407  -0.00526920  0.20304154  1
  Rh  Rh210  1  0.79196240  0.20436654  0.59499757  1
  Rh  Rh211  1  0.79634643  0.60711272  0.80096273  1
  Rh  Rh212  1  0.79939268  0.20170283  0.00854571  1
  Rh  Rh213  1  0.80736016  0.19292411  0.80206654  1
  Rh  Rh214  1  0.79893831  0.80152734  0.60089483  1
  Rh  Rh215  1  0.40449832  -0.00689685  0.80870009  1
  Rh  Rh216  1  0.40545211  0.39846277  0.19660906  1
  Rh  Rh217  1  0.59646206  0.19469767  0.60850965  1
  Rh  Rh218  1  -0.00099871  0.80387778  0.41204014  1
  Rh  Rh219  1  0.60299412  0.80863774  0.40503673  1
  Rh  Rh220  1  -0.00391407  0.20579849  0.61273656  1
  Rh  Rh221  1  -0.01372600  0.18863774  0.40134495  1
  Rh  Rh222  1  -0.00113735  0.59708539  0.19748270  1
  Rh  Rh223  1  0.19452237  0.00099866  0.79524700  1
  Rh  Rh224  1  0.40759576  0.80037678  0.00381043  1
  Rh  Rh225  1  0.20049907  0.40313029  0.79976662  1
  Rh  Rh226  1  0.21029368  0.60277676  0.79362814  1
  Rh  Rh227  1  -0.00187279  -0.00994603  -0.01004845  1
  Rh  Rh228  1  0.00481142  0.19383768  0.19428031  1
  Rh  Rh229  1  0.39417401  0.20667173  0.19453384  1
  Rh  Rh230  1  0.20623788  0.20427304  0.38733634  1
  Rh  Rh231  1  0.39784534  0.80732404  0.80195738  1
  Rh  Rh232  1  0.19326446  0.60203884  0.38733242  1
  Rh  Rh233  1  0.19906686  0.80716788  0.59462816  1
  Rh  Rh234  1  0.59146628  0.60410386  0.60802087  1
  Rh  Rh235  1  0.60308786  0.20085033  0.19626711  1
  Rh  Rh236  1  0.41602579  0.60938885  0.40822893  1
  Rh  Rh237  1  0.40054612  0.79652643  0.40505753  1
  Rh  Rh238  1  0.80253709  -0.00140828  0.80334971  1
  Rh  Rh239  1  0.60247915  0.80438034  0.19974733  1
  Rh  Rh240  1  0.59152818  0.59488721  -0.01191893  1
  Rh  Rh241  1  0.59306035  -0.00128901  -0.00819437  1
  Rh  Rh242  1  0.00067301  0.39100409  0.80135719  1
  Rh  Rh243  1  0.79376177  0.39532790  0.79320993  1
  Rh  Rh244  1  0.78996970  -0.00125906  0.60054824  1
  Rh  Rh245  1  0.20595789  0.00120095  0.00211988  1
  Rh  Rh246  1  -0.00382264  0.40072414  0.19725809  1
  Rh  Rh247  1  0.79040260  0.80302956  0.80628212  1
  Rh  Rh248  1  0.80041336  -0.00820051  0.00249113  1
  Rh  Rh249  1  0.00123051  0.80025033  0.79734014  1
