# generated using pymatgen
data_ZrScNbPdRh
_symmetry_space_group_name_H-M   'P 1'
_cell_length_a   16.55514413
_cell_length_b   16.55656121
_cell_length_c   16.55489218
_cell_angle_alpha   89.97339644
_cell_angle_beta   89.98706904
_cell_angle_gamma   90.01992788
_symmetry_Int_Tables_number   1
_chemical_formula_structural   ZrScNbPdRh
_chemical_formula_sum   'Zr50 Sc50 Nb50 Pd50 Rh50'
_cell_volume   4537.63310595
_cell_formula_units_Z   50
loop_
 _symmetry_equiv_pos_site_id
 _symmetry_equiv_pos_as_xyz
  1  'x, y, z'
loop_
 _atom_site_type_symbol
 _atom_site_label
 _atom_site_symmetry_multiplicity
 _atom_site_fract_x
 _atom_site_fract_y
 _atom_site_fract_z
 _atom_site_occupancy
  Zr  Zr0  1  0.29833404  0.30285874  0.90325877  1
  Zr  Zr1  1  0.29231115  0.69889633  0.69960747  1
  Zr  Zr2  1  0.11236862  0.89536840  0.29649117  1
  Zr  Zr3  1  0.70612719  0.09769421  0.50157611  1
  Zr  Zr4  1  0.30184319  0.50109359  0.09884748  1
  Zr  Zr5  1  0.70594829  0.90098169  0.70569334  1
  Zr  Zr6  1  0.91320269  0.49789736  0.10618283  1
  Zr  Zr7  1  0.49901875  0.70186634  0.90367241  1
  Zr  Zr8  1  0.70103829  0.30407999  0.09197855  1
  Zr  Zr9  1  0.29341332  0.90727433  0.90860350  1
  Zr  Zr10  1  0.29648181  0.09596064  0.49274771  1
  Zr  Zr11  1  0.50036907  0.50105462  0.69813812  1
  Zr  Zr12  1  0.29881734  0.50357813  0.30577768  1
  Zr  Zr13  1  0.49773526  0.30861428  0.70120798  1
  Zr  Zr14  1  0.90607388  0.29990217  0.90185184  1
  Zr  Zr15  1  0.09781568  0.50166711  0.30218672  1
  Zr  Zr16  1  0.90355809  0.70361973  0.10042588  1
  Zr  Zr17  1  0.68831260  0.69911363  0.09471794  1
  Zr  Zr18  1  0.49524970  0.50259926  0.30195487  1
  Zr  Zr19  1  0.70185203  0.50273215  0.89384423  1
  Zr  Zr20  1  0.29711478  0.90044102  0.10715806  1
  Zr  Zr21  1  0.49907541  0.68974500  0.69949715  1
  Zr  Zr22  1  0.09670228  0.89431011  0.70555197  1
  Zr  Zr23  1  0.49568185  0.69945635  0.49866990  1
  Zr  Zr24  1  0.48998995  0.09763085  0.89964476  1
  Zr  Zr25  1  0.69858798  0.89894854  0.30072143  1
  Zr  Zr26  1  0.90337951  0.69867457  0.49426430  1
  Zr  Zr27  1  0.49474744  0.08667574  0.49881228  1
  Zr  Zr28  1  0.90370387  0.90803207  0.70306547  1
  Zr  Zr29  1  0.08951958  0.29907587  0.70113314  1
  Zr  Zr30  1  0.70019971  0.49353733  0.70913958  1
  Zr  Zr31  1  0.09476332  0.30167084  0.09729820  1
  Zr  Zr32  1  0.10267588  0.49464651  0.90727821  1
  Zr  Zr33  1  0.90028557  0.49635516  0.89259150  1
  Zr  Zr34  1  0.09697311  0.89633621  0.90023155  1
  Zr  Zr35  1  0.29647432  0.30528344  0.69966375  1
  Zr  Zr36  1  0.30075487  0.10016650  0.89975862  1
  Zr  Zr37  1  0.10110916  0.30465254  0.90009869  1
  Zr  Zr38  1  0.49474373  0.09363171  0.29429643  1
  Zr  Zr39  1  0.69087188  0.89751828  0.10707754  1
  Zr  Zr40  1  0.70295615  0.70340164  0.49542093  1
  Zr  Zr41  1  0.49852166  0.09817915  0.70048152  1
  Zr  Zr42  1  0.48814606  0.30229251  0.29547551  1
  Zr  Zr43  1  0.29567262  0.70516108  0.30247371  1
  Zr  Zr44  1  0.09003805  0.09265046  0.69018697  1
  Zr  Zr45  1  0.90465067  0.70368900  0.68862100  1
  Zr  Zr46  1  0.49711304  0.89934097  0.30243916  1
  Zr  Zr47  1  0.90078493  0.90563233  0.89649632  1
  Zr  Zr48  1  0.69726829  0.70213811  0.90239346  1
  Zr  Zr49  1  0.29705423  0.49262459  0.50039896  1
  Sc  Sc50  1  0.30134296  0.49937521  0.69559634  1
  Sc  Sc51  1  0.89927688  0.89441797  0.30489347  1
  Sc  Sc52  1  0.90514617  0.09864770  0.50796359  1
  Sc  Sc53  1  0.90512522  0.50412898  0.30804892  1
  Sc  Sc54  1  0.48985175  0.30843809  0.49279718  1
  Sc  Sc55  1  0.49689245  0.90267946  0.90390938  1
  Sc  Sc56  1  0.90322777  0.49591812  0.69516984  1
  Sc  Sc57  1  0.29858924  0.68785316  0.89886364  1
  Sc  Sc58  1  0.89161169  0.71004949  0.90255994  1
  Sc  Sc59  1  0.28780683  0.89400360  0.69378557  1
  Sc  Sc60  1  0.10430599  0.50029430  0.10214318  1
  Sc  Sc61  1  0.49259851  0.89731009  0.10747438  1
  Sc  Sc62  1  0.71478695  0.49170974  0.48943003  1
  Sc  Sc63  1  0.30711518  0.29771465  0.10545131  1
  Sc  Sc64  1  0.29763968  0.10340250  0.29722450  1
  Sc  Sc65  1  0.90801278  0.90091381  0.09299349  1
  Sc  Sc66  1  0.69664436  0.70769840  0.29616919  1
  Sc  Sc67  1  0.09912491  0.49789715  0.69285595  1
  Sc  Sc68  1  0.09706618  0.70158022  0.50215638  1
  Sc  Sc69  1  0.70427279  0.69284094  0.70047773  1
  Sc  Sc70  1  0.29691989  0.49716663  0.90344591  1
  Sc  Sc71  1  0.69487123  0.50585755  0.08889254  1
  Sc  Sc72  1  0.49378760  0.69994144  0.30028396  1
  Sc  Sc73  1  0.48864194  0.30429154  0.09577403  1
  Sc  Sc74  1  0.10006546  0.90327020  0.09987415  1
  Sc  Sc75  1  0.30566970  0.89283385  0.49649754  1
  Sc  Sc76  1  0.70559351  0.90132598  0.48811171  1
  Sc  Sc77  1  0.09478142  0.09937700  0.11497530  1
  Sc  Sc78  1  0.10027269  0.70067272  0.30115862  1
  Sc  Sc79  1  0.49689071  0.49834874  0.89030197  1
  Sc  Sc80  1  0.89990533  0.30208670  0.50799265  1
  Sc  Sc81  1  0.10280779  0.28740703  0.30853135  1
  Sc  Sc82  1  0.09796131  0.29994360  0.49846985  1
  Sc  Sc83  1  0.69921701  0.31173557  0.30931064  1
  Sc  Sc84  1  0.71166017  0.09544917  0.70028981  1
  Sc  Sc85  1  0.49181643  0.30878925  0.89849578  1
  Sc  Sc86  1  0.90729388  0.50438123  0.50145109  1
  Sc  Sc87  1  0.90818372  0.10234850  0.30439863  1
  Sc  Sc88  1  0.70421055  0.10292675  0.09677692  1
  Sc  Sc89  1  0.49591587  0.90851456  0.69553824  1
  Sc  Sc90  1  0.90758376  0.30439254  0.30779597  1
  Sc  Sc91  1  0.10001435  0.49725697  0.50384206  1
  Sc  Sc92  1  0.89282917  0.10130400  0.90620558  1
  Sc  Sc93  1  0.69763496  0.09008153  0.30154712  1
  Sc  Sc94  1  0.11078560  0.89970211  0.50681372  1
  Sc  Sc95  1  0.70819737  0.31160587  0.89563399  1
  Sc  Sc96  1  0.10411238  0.08789787  0.89692973  1
  Sc  Sc97  1  0.70651903  0.90205981  0.89905118  1
  Sc  Sc98  1  0.91095907  0.70083923  0.30249799  1
  Sc  Sc99  1  0.89950841  0.89469223  0.49549026  1
  Nb  Nb100  1  0.29974367  0.70251536  0.49821567  1
  Nb  Nb101  1  0.69938233  0.50203723  0.29449174  1
  Nb  Nb102  1  0.10207185  0.10266855  0.49360322  1
  Nb  Nb103  1  0.69486756  0.10160267  0.90253015  1
  Nb  Nb104  1  0.29979880  0.10800291  0.69965240  1
  Nb  Nb105  1  0.70070299  0.29746151  0.50025612  1
  Nb  Nb106  1  0.30458952  0.89291611  0.29344971  1
  Nb  Nb107  1  0.49896981  0.50523163  0.10889409  1
  Nb  Nb108  1  0.29564741  0.30224864  0.49912028  1
  Nb  Nb109  1  0.49735768  0.69517344  0.09648840  1
  Nb  Nb110  1  0.30136543  0.30548085  0.30738249  1
  Nb  Nb111  1  0.70295283  0.29579885  0.69313752  1
  Nb  Nb112  1  0.10392777  0.70570628  0.70704910  1
  Nb  Nb113  1  0.29998814  0.69883501  0.09748260  1
  Nb  Nb114  1  0.30696569  0.09915001  0.09192184  1
  Nb  Nb115  1  0.89768435  0.28814097  0.70131669  1
  Nb  Nb116  1  0.49520846  0.10303005  0.10192490  1
  Nb  Nb117  1  0.90349537  0.10738937  0.69814129  1
  Nb  Nb118  1  0.09939887  0.70117476  0.09746138  1
  Nb  Nb119  1  0.50176866  0.50334795  0.50201889  1
  Nb  Nb120  1  0.89975481  0.29322495  0.09683899  1
  Nb  Nb121  1  0.50071934  0.89500588  0.49737298  1
  Nb  Nb122  1  0.10501295  0.69917594  0.89782204  1
  Nb  Nb123  1  0.89555978  0.10879635  0.10319890  1
  Nb  Nb124  1  0.10220520  0.10111602  0.31255155  1
  Nb  Nb125  1  0.79946711  0.20508673  0.20295704  1
  Nb  Nb126  1  0.59945030  0.20058760  0.40197719  1
  Nb  Nb127  1  0.60346192  0.20099410  0.79889054  1
  Nb  Nb128  1  0.00725932  0.60727971  0.80142630  1
  Nb  Nb129  1  0.00495999  0.60578544  -0.00582779  1
  Nb  Nb130  1  0.20403304  0.39581223  0.20858379  1
  Nb  Nb131  1  0.79777781  0.59748195  0.19862506  1
  Nb  Nb132  1  0.19867598  0.79222363  0.00190279  1
  Nb  Nb133  1  0.79541998  0.20095539  0.40169199  1
  Nb  Nb134  1  0.39848220  0.79783713  0.79961932  1
  Nb  Nb135  1  0.20261616  0.19545730  0.00323944  1
  Nb  Nb136  1  0.60036611  0.59433838  0.39904257  1
  Nb  Nb137  1  0.20275704  0.19754150  0.59895947  1
  Nb  Nb138  1  0.60067359  0.20536822  0.19946345  1
  Nb  Nb139  1  0.59776838  0.80328390  0.59889963  1
  Nb  Nb140  1  0.59779443  0.20359767  0.59752995  1
  Nb  Nb141  1  0.39594293  0.19992511  0.59874760  1
  Nb  Nb142  1  0.01264590  0.00219802  0.40061803  1
  Nb  Nb143  1  0.59700849  0.00791605  0.00348602  1
  Nb  Nb144  1  0.60510052  0.39675187  0.59542097  1
  Nb  Nb145  1  0.59732858  0.19805184  -0.00412132  1
  Nb  Nb146  1  0.80580724  0.00456616  0.19664770  1
  Nb  Nb147  1  0.59499518  0.79930475  0.79480876  1
  Nb  Nb148  1  0.59967061  0.40452688  0.19811128  1
  Nb  Nb149  1  0.79915666  0.40191272  0.19892482  1
  Pd  Pd150  1  0.79857886  0.59215049  0.59887694  1
  Pd  Pd151  1  0.38737033  -0.01125775  0.79215315  1
  Pd  Pd152  1  0.20427987  -0.00971294  0.39654426  1
  Pd  Pd153  1  0.19927064  0.40725046  0.79400300  1
  Pd  Pd154  1  0.79628229  0.80943463  0.00526059  1
  Pd  Pd155  1  -0.00552344  -0.00325817  0.20989761  1
  Pd  Pd156  1  0.80730081  -0.00468716  0.59801697  1
  Pd  Pd157  1  0.79542587  0.19988867  0.80669374  1
  Pd  Pd158  1  -0.00730324  0.79333513  0.80377322  1
  Pd  Pd159  1  0.00277928  0.80553244  0.20164025  1
  Pd  Pd160  1  0.79772457  0.60501883  0.38886228  1
  Pd  Pd161  1  0.40353404  0.80068497  0.60648262  1
  Pd  Pd162  1  0.59590285  0.40222922  0.40058461  1
  Pd  Pd163  1  0.60248334  -0.00157092  0.80706959  1
  Pd  Pd164  1  -0.00440661  0.20460624  0.20728345  1
  Pd  Pd165  1  0.40195048  0.19729003  0.40408232  1
  Pd  Pd166  1  0.20374494  0.00818612  0.20066030  1
  Pd  Pd167  1  0.00443214  0.39178973  0.20676744  1
  Pd  Pd168  1  0.58887751  0.40116364  -0.00008012  1
  Pd  Pd169  1  0.61455334  0.59318559  0.58922952  1
  Pd  Pd170  1  0.00442593  0.80511855  0.59432092  1
  Pd  Pd171  1  0.80865209  0.40802603  0.00525008  1
  Pd  Pd172  1  0.38823436  -0.00158765  0.60250939  1
  Pd  Pd173  1  0.80511403  0.79973588  0.19984774  1
  Pd  Pd174  1  0.00153887  0.40012915  0.40676745  1
  Pd  Pd175  1  0.39613927  0.60767831  0.20121086  1
  Pd  Pd176  1  0.40433084  0.59235568  -0.00343497  1
  Pd  Pd177  1  0.00269191  0.00952239  0.00372307  1
  Pd  Pd178  1  0.20598792  0.20257916  0.19699286  1
  Pd  Pd179  1  0.81197113  0.60733486  0.79551843  1
  Pd  Pd180  1  0.00303289  0.19026023  0.80919217  1
  Pd  Pd181  1  0.19741767  0.59896877  0.19900511  1
  Pd  Pd182  1  0.79485121  0.80560103  0.59821174  1
  Pd  Pd183  1  0.20296102  0.00018413  0.79042908  1
  Pd  Pd184  1  0.19505148  0.60495242  0.40867073  1
  Pd  Pd185  1  0.01051365  0.18865548  -0.00453607  1
  Pd  Pd186  1  0.19066723  0.19590652  0.80035093  1
  Pd  Pd187  1  0.80237506  0.40081884  0.60179837  1
  Pd  Pd188  1  0.60748631  -0.00481160  0.59703422  1
  Pd  Pd189  1  0.59906267  -0.00022354  0.40141809  1
  Pd  Pd190  1  0.58930927  0.59080594  -0.00742902  1
  Pd  Pd191  1  0.80974396  0.59539903  0.00672038  1
  Pd  Pd192  1  0.39171157  0.80120631  -0.00229421  1
  Pd  Pd193  1  0.39042659  0.59781300  0.59503269  1
  Pd  Pd194  1  0.19553568  0.60300279  0.59577684  1
  Pd  Pd195  1  0.58715962  0.79201430  0.20085835  1
  Pd  Pd196  1  0.40390123  0.20581555  0.79768325  1
  Pd  Pd197  1  0.19589906  0.58944968  0.79592623  1
  Pd  Pd198  1  0.20329509  0.00329258  0.60164004  1
  Pd  Pd199  1  0.79508632  -0.00365114  0.00730260  1
  Rh  Rh200  1  0.21036787  0.80238155  0.81205593  1
  Rh  Rh201  1  -0.00352490  0.40393021  0.00037578  1
  Rh  Rh202  1  0.80856345  0.39045522  0.79164708  1
  Rh  Rh203  1  0.59747210  0.81020483  -0.00482304  1
  Rh  Rh204  1  0.00669295  0.60016527  0.40442957  1
  Rh  Rh205  1  0.00586477  0.20217271  0.59501314  1
  Rh  Rh206  1  0.40647766  -0.00422994  0.00941342  1
  Rh  Rh207  1  -0.00149566  -0.00612820  0.59233552  1
  Rh  Rh208  1  -0.00396141  0.40397131  0.79305712  1
  Rh  Rh209  1  0.81544620  0.00621956  0.39220492  1
  Rh  Rh210  1  0.79593697  0.20367676  -0.00210799  1
  Rh  Rh211  1  0.39777435  0.80080617  0.39718762  1
  Rh  Rh212  1  0.19550663  0.60410675  0.00552350  1
  Rh  Rh213  1  0.59535861  0.79404907  0.40530999  1
  Rh  Rh214  1  0.01016248  0.81017826  0.40134563  1
  Rh  Rh215  1  0.39198258  0.00224512  0.20072634  1
  Rh  Rh216  1  0.80991364  0.39586214  0.39609816  1
  Rh  Rh217  1  0.40550775  0.39972492  0.59519362  1
  Rh  Rh218  1  0.00752272  0.79513639  -0.00420568  1
  Rh  Rh219  1  0.40100044  0.79197328  0.19835591  1
  Rh  Rh220  1  -0.00735897  0.00840837  0.80115525  1
  Rh  Rh221  1  0.19492739  0.00405068  0.01237931  1
  Rh  Rh222  1  0.19866325  0.79197190  0.59459706  1
  Rh  Rh223  1  0.39292041  -0.00977149  0.39294791  1
  Rh  Rh224  1  0.39584941  0.60057752  0.79919948  1
  Rh  Rh225  1  0.19444244  0.39112431  0.59988309  1
  Rh  Rh226  1  0.80321755  0.79279283  0.39362993  1
  Rh  Rh227  1  0.19408218  0.39677254  0.39540294  1
  Rh  Rh228  1  0.59974333  0.60573703  0.80626113  1
  Rh  Rh229  1  -0.00330559  0.39471973  0.60246277  1
  Rh  Rh230  1  0.39819353  0.19628554  0.20159563  1
  Rh  Rh231  1  0.40073385  0.59811312  0.40737968  1
  Rh  Rh232  1  -0.00074967  0.60673020  0.19590586  1
  Rh  Rh233  1  0.20754701  0.38884440  0.01450967  1
  Rh  Rh234  1  0.00633926  0.60367285  0.60713153  1
  Rh  Rh235  1  0.79564901  0.79580466  0.79620184  1
  Rh  Rh236  1  0.60430148  0.39244639  0.79609657  1
  Rh  Rh237  1  0.39636722  0.40554162  0.19998143  1
  Rh  Rh238  1  0.60583510  0.00998783  0.19114159  1
  Rh  Rh239  1  0.20535205  0.20504951  0.40529722  1
  Rh  Rh240  1  0.39745736  0.40684886  0.40426742  1
  Rh  Rh241  1  0.20123392  0.79180471  0.19169244  1
  Rh  Rh242  1  0.38905582  0.40695893  0.80055604  1
  Rh  Rh243  1  0.80631958  0.01115469  0.80062859  1
  Rh  Rh244  1  0.39776906  0.20226693  -0.00194221  1
  Rh  Rh245  1  0.20238447  0.79977768  0.40334636  1
  Rh  Rh246  1  0.80069078  0.19837440  0.59535192  1
  Rh  Rh247  1  0.60217784  0.60086454  0.20300656  1
  Rh  Rh248  1  0.40143174  0.40835539  0.00218528  1
  Rh  Rh249  1  -0.00791007  0.19408045  0.40791753  1
