# generated using pymatgen
data_ZrScNbPdRh
_symmetry_space_group_name_H-M   'P 1'
_cell_length_a   16.56085291
_cell_length_b   16.55833506
_cell_length_c   16.56350606
_cell_angle_alpha   89.99901346
_cell_angle_beta   90.02746036
_cell_angle_gamma   90.02719368
_symmetry_Int_Tables_number   1
_chemical_formula_structural   ZrScNbPdRh
_chemical_formula_sum   'Zr50 Sc50 Nb50 Pd50 Rh50'
_cell_volume   4542.04610492
_cell_formula_units_Z   50
loop_
 _symmetry_equiv_pos_site_id
 _symmetry_equiv_pos_as_xyz
  1  'x, y, z'
loop_
 _atom_site_type_symbol
 _atom_site_label
 _atom_site_symmetry_multiplicity
 _atom_site_fract_x
 _atom_site_fract_y
 _atom_site_fract_z
 _atom_site_occupancy
  Zr  Zr0  1  0.90901077  0.69947553  0.30321902  1
  Zr  Zr1  1  0.29704532  0.30327366  0.28919305  1
  Zr  Zr2  1  0.90262428  0.69506182  0.49820812  1
  Zr  Zr3  1  0.50117816  0.10439115  0.50015587  1
  Zr  Zr4  1  0.89186874  0.49303533  0.69224700  1
  Zr  Zr5  1  0.90484952  0.29881497  0.90103781  1
  Zr  Zr6  1  0.70435598  0.70262744  0.50572785  1
  Zr  Zr7  1  0.29043075  0.90272833  0.50844092  1
  Zr  Zr8  1  0.89552955  0.70637073  0.70155488  1
  Zr  Zr9  1  0.29946408  0.10146249  0.50534750  1
  Zr  Zr10  1  0.30912423  0.09644854  0.89283230  1
  Zr  Zr11  1  0.11265190  0.49724330  0.69919717  1
  Zr  Zr12  1  0.09641270  0.70263121  0.49636730  1
  Zr  Zr13  1  0.09457055  0.29989883  0.90859818  1
  Zr  Zr14  1  0.09699449  0.30002529  0.30260857  1
  Zr  Zr15  1  0.90602985  0.30369991  0.50287859  1
  Zr  Zr16  1  0.49795792  0.30778890  0.69283322  1
  Zr  Zr17  1  0.29608368  0.89748560  0.90005258  1
  Zr  Zr18  1  0.69835312  0.50323226  0.89920121  1
  Zr  Zr19  1  0.90714410  0.10279264  0.69982066  1
  Zr  Zr20  1  0.50092635  0.89630150  0.90248691  1
  Zr  Zr21  1  0.69916029  0.30664633  0.70034293  1
  Zr  Zr22  1  0.90008471  0.50509026  0.10050034  1
  Zr  Zr23  1  0.69929164  0.90846258  0.50117511  1
  Zr  Zr24  1  0.49566029  0.69229955  0.30265132  1
  Zr  Zr25  1  0.50841354  0.69631707  0.70368986  1
  Zr  Zr26  1  0.49522278  0.10784713  0.71521807  1
  Zr  Zr27  1  0.70041495  0.88576623  0.70389315  1
  Zr  Zr28  1  0.68988546  0.49959999  0.29353825  1
  Zr  Zr29  1  0.49598113  0.70856108  0.48786692  1
  Zr  Zr30  1  0.90895103  0.69966968  0.10200258  1
  Zr  Zr31  1  0.30475728  0.30989201  0.91182348  1
  Zr  Zr32  1  0.09978154  0.10012325  0.30144222  1
  Zr  Zr33  1  0.49869142  0.50374389  0.70355306  1
  Zr  Zr34  1  0.10842522  0.70562635  0.89814280  1
  Zr  Zr35  1  0.49280220  0.09532031  0.09077834  1
  Zr  Zr36  1  0.88938316  0.09374234  0.50816276  1
  Zr  Zr37  1  0.29967487  0.48343760  0.09725058  1
  Zr  Zr38  1  0.69695051  0.89218602  0.09877787  1
  Zr  Zr39  1  0.30241439  0.69345717  0.49365041  1
  Zr  Zr40  1  0.69973943  0.50403896  0.09632352  1
  Zr  Zr41  1  0.69459008  0.10478904  0.90144113  1
  Zr  Zr42  1  0.69159453  0.50284737  0.69628353  1
  Zr  Zr43  1  0.70268276  0.10075401  0.29736638  1
  Zr  Zr44  1  0.90275453  0.30305461  0.30389495  1
  Zr  Zr45  1  0.09998481  0.29735318  0.50402318  1
  Zr  Zr46  1  0.09889717  0.90251768  0.70065036  1
  Zr  Zr47  1  0.70028497  0.29351690  0.29110164  1
  Zr  Zr48  1  0.90164094  0.49817897  0.30771364  1
  Zr  Zr49  1  0.29334496  0.70109033  0.09133142  1
  Sc  Sc50  1  0.29926795  0.30093059  0.69901817  1
  Sc  Sc51  1  0.09715474  0.49941118  0.09967730  1
  Sc  Sc52  1  0.29299510  0.90961108  0.70777969  1
  Sc  Sc53  1  0.70803306  0.50419163  0.50112048  1
  Sc  Sc54  1  0.48855541  0.30108426  0.09572538  1
  Sc  Sc55  1  0.29868038  0.10395164  0.70008574  1
  Sc  Sc56  1  0.69872484  0.29760252  0.90235090  1
  Sc  Sc57  1  0.90040169  0.89720680  0.89369584  1
  Sc  Sc58  1  0.49789009  0.49829041  0.10718206  1
  Sc  Sc59  1  0.70151009  0.09543874  0.49207738  1
  Sc  Sc60  1  0.70578970  0.29450040  0.49464754  1
  Sc  Sc61  1  0.09806275  0.89636799  0.11360526  1
  Sc  Sc62  1  0.49555060  0.89616475  0.09793868  1
  Sc  Sc63  1  0.09829159  0.30696006  0.10762350  1
  Sc  Sc64  1  0.50059916  0.88315447  0.30266823  1
  Sc  Sc65  1  0.30102657  0.50970266  0.29474054  1
  Sc  Sc66  1  0.30281683  0.69795543  0.30215270  1
  Sc  Sc67  1  0.29609914  0.68973090  0.70348853  1
  Sc  Sc68  1  0.10490781  0.49810069  0.90455566  1
  Sc  Sc69  1  0.90046150  0.90444939  0.70198967  1
  Sc  Sc70  1  0.50113106  0.70469584  0.09301914  1
  Sc  Sc71  1  0.30609795  0.29134382  0.51041555  1
  Sc  Sc72  1  0.90313143  0.10170024  0.90067785  1
  Sc  Sc73  1  0.49925657  0.10402918  0.30065652  1
  Sc  Sc74  1  0.49757707  0.09867026  0.90458180  1
  Sc  Sc75  1  0.89794435  0.89538171  0.10016732  1
  Sc  Sc76  1  0.49443815  0.50309726  0.51366461  1
  Sc  Sc77  1  0.70712310  0.10750989  0.09677356  1
  Sc  Sc78  1  0.91087836  0.70536392  0.90427279  1
  Sc  Sc79  1  0.70452156  0.89434614  0.90211384  1
  Sc  Sc80  1  0.09777143  0.10559986  0.11138008  1
  Sc  Sc81  1  0.49968200  0.29772142  0.28899186  1
  Sc  Sc82  1  0.30178231  0.50224665  0.69467433  1
  Sc  Sc83  1  0.10020989  0.69764157  0.29525546  1
  Sc  Sc84  1  0.68800681  0.70171463  0.90256403  1
  Sc  Sc85  1  0.70146708  0.90022479  0.30113913  1
  Sc  Sc86  1  0.90278891  0.90180664  0.28937838  1
  Sc  Sc87  1  0.90153364  0.49813652  0.90922057  1
  Sc  Sc88  1  0.10851525  0.10048753  0.50795007  1
  Sc  Sc89  1  0.29905779  0.89825620  0.29455191  1
  Sc  Sc90  1  0.90425756  0.29788861  0.09658782  1
  Sc  Sc91  1  0.30322166  0.90032253  0.10161875  1
  Sc  Sc92  1  0.89613810  0.09885860  0.29271248  1
  Sc  Sc93  1  0.50525383  0.28466236  0.89455572  1
  Sc  Sc94  1  0.29616064  0.10199838  0.29333399  1
  Sc  Sc95  1  0.69907959  0.69925606  0.09937025  1
  Sc  Sc96  1  0.10058702  0.49801026  0.29774826  1
  Sc  Sc97  1  0.68752465  0.70250205  0.30200925  1
  Sc  Sc98  1  0.71056341  0.09427816  0.68784542  1
  Sc  Sc99  1  0.29938812  0.50939815  0.90121431  1
  Nb  Nb100  1  0.50428037  0.89758608  0.70022097  1
  Nb  Nb101  1  0.50101477  0.50880408  0.90000090  1
  Nb  Nb102  1  0.29640061  0.29628357  0.09976771  1
  Nb  Nb103  1  0.09276010  0.69806928  0.09496505  1
  Nb  Nb104  1  0.90411264  0.09539863  0.09867578  1
  Nb  Nb105  1  0.70404160  0.69840820  0.70255721  1
  Nb  Nb106  1  0.49743922  0.49547360  0.30044426  1
  Nb  Nb107  1  0.09389759  0.69677941  0.70292118  1
  Nb  Nb108  1  0.30664191  0.70263510  0.90198761  1
  Nb  Nb109  1  0.69369606  0.30325581  0.10178828  1
  Nb  Nb110  1  0.09413729  0.29456616  0.69943587  1
  Nb  Nb111  1  0.09650773  0.10241520  0.89935028  1
  Nb  Nb112  1  0.09808284  0.90204240  0.30315950  1
  Nb  Nb113  1  0.49859420  0.90153434  0.50134951  1
  Nb  Nb114  1  0.30032635  0.10040894  0.09383904  1
  Nb  Nb115  1  0.49281660  0.69305333  0.89910373  1
  Nb  Nb116  1  0.90707202  0.89769074  0.49513195  1
  Nb  Nb117  1  0.10580845  0.50241207  0.49796858  1
  Nb  Nb118  1  0.90690052  0.50324825  0.49602893  1
  Nb  Nb119  1  0.10208363  0.90799560  0.89172940  1
  Nb  Nb120  1  0.49751989  0.30378895  0.50247614  1
  Nb  Nb121  1  0.90238898  0.29575522  0.69463792  1
  Nb  Nb122  1  0.09876460  0.89872415  0.50132851  1
  Nb  Nb123  1  0.09601489  0.10352205  0.70980728  1
  Nb  Nb124  1  0.29804770  0.50362364  0.49793311  1
  Nb  Nb125  1  0.59837084  0.40216934  0.00011637  1
  Nb  Nb126  1  0.00704260  0.00143151  -0.00029849  1
  Nb  Nb127  1  0.19190912  0.80581311  0.40195477  1
  Nb  Nb128  1  0.40540945  0.40562582  0.80411514  1
  Nb  Nb129  1  0.19199741  0.20304328  0.80691340  1
  Nb  Nb130  1  0.00483516  -0.00536927  0.40304123  1
  Nb  Nb131  1  0.80680725  0.80245165  0.40327433  1
  Nb  Nb132  1  0.20657772  0.40385280  0.40652926  1
  Nb  Nb133  1  0.40832997  -0.00353109  0.60166430  1
  Nb  Nb134  1  0.59971787  -0.00011474  0.19636802  1
  Nb  Nb135  1  0.79649504  0.39930050  0.19800450  1
  Nb  Nb136  1  0.40203899  0.79517724  0.79999067  1
  Nb  Nb137  1  0.60029313  -0.00459327  0.79711818  1
  Nb  Nb138  1  0.19385504  0.00517768  -0.00263504  1
  Nb  Nb139  1  0.40193242  0.80469041  0.60499601  1
  Nb  Nb140  1  0.00142099  0.39816694  0.79112980  1
  Nb  Nb141  1  0.80584975  0.20488520  0.79438923  1
  Nb  Nb142  1  -0.00001308  0.59538210  0.79298901  1
  Nb  Nb143  1  0.59163653  0.39979526  0.39931967  1
  Nb  Nb144  1  0.39974632  0.40097912  0.40228035  1
  Nb  Nb145  1  0.39967730  -0.00267100  0.40743175  1
  Nb  Nb146  1  0.80068292  0.60207775  0.79701057  1
  Nb  Nb147  1  0.59646817  0.20323025  0.59882409  1
  Nb  Nb148  1  0.00234539  0.59553126  0.60058079  1
  Nb  Nb149  1  0.20181927  0.19531914  0.00140724  1
  Pd  Pd150  1  0.80721826  0.19656032  0.39939880  1
  Pd  Pd151  1  0.00595054  0.59565346  0.20205612  1
  Pd  Pd152  1  -0.00502846  0.20219449  0.19911230  1
  Pd  Pd153  1  0.80182312  0.79285993  -0.00343726  1
  Pd  Pd154  1  0.59048751  -0.00524302  0.38736750  1
  Pd  Pd155  1  0.20591778  0.79451268  0.79211397  1
  Pd  Pd156  1  0.19927544  0.60049915  0.19421891  1
  Pd  Pd157  1  -0.00126954  0.79860532  0.60592912  1
  Pd  Pd158  1  0.00571901  0.40661202  0.60053919  1
  Pd  Pd159  1  0.19768780  0.59721773  0.00174198  1
  Pd  Pd160  1  0.40769141  -0.00231702  0.20977330  1
  Pd  Pd161  1  0.59592204  0.00858292  0.60790441  1
  Pd  Pd162  1  0.20446801  0.79258356  0.60397064  1
  Pd  Pd163  1  0.39768509  0.60296489  0.19055006  1
  Pd  Pd164  1  0.59541114  0.59074740  0.40946949  1
  Pd  Pd165  1  0.79552794  0.39753516  0.59014853  1
  Pd  Pd166  1  0.80591352  0.80724964  0.59441081  1
  Pd  Pd167  1  0.79794814  0.60196586  0.20828691  1
  Pd  Pd168  1  0.39952531  0.19587577  0.19586486  1
  Pd  Pd169  1  0.79538746  0.39371015  0.00537375  1
  Pd  Pd170  1  0.20231848  -0.00320458  0.39708619  1
  Pd  Pd171  1  0.59199345  0.39933884  0.81074316  1
  Pd  Pd172  1  0.39799640  0.79157444  0.19609018  1
  Pd  Pd173  1  0.59342950  0.19053321  0.18928794  1
  Pd  Pd174  1  0.19826289  0.79370025  0.20399464  1
  Pd  Pd175  1  0.80228540  0.20228408  -0.00170838  1
  Pd  Pd176  1  0.79025076  0.40153434  0.39663713  1
  Pd  Pd177  1  0.80697725  0.40008786  0.80457500  1
  Pd  Pd178  1  -0.00627545  0.18478606  0.40740568  1
  Pd  Pd179  1  0.59705163  0.60533311  0.59198451  1
  Pd  Pd180  1  0.59755603  0.20854323  0.40279065  1
  Pd  Pd181  1  0.19998517  0.00133328  0.19380272  1
  Pd  Pd182  1  0.60352333  -0.00353309  -0.00017013  1
  Pd  Pd183  1  0.79431695  0.60650256  0.39223065  1
  Pd  Pd184  1  0.39506659  0.20267837  0.39562903  1
  Pd  Pd185  1  0.39944410  0.59539416  0.00954926  1
  Pd  Pd186  1  0.19266715  0.80992788  0.00546884  1
  Pd  Pd187  1  0.00526011  0.00397551  0.59717012  1
  Pd  Pd188  1  0.79835112  0.79271155  0.20869394  1
  Pd  Pd189  1  0.79524133  0.00726600  0.80254498  1
  Pd  Pd190  1  0.20705814  0.20851910  0.40021180  1
  Pd  Pd191  1  0.59259235  0.60695639  0.19204030  1
  Pd  Pd192  1  0.80782296  -0.00063233  -0.00163524  1
  Pd  Pd193  1  0.20588748  0.39348513  0.59524928  1
  Pd  Pd194  1  0.80320752  0.61214918  -0.00985873  1
  Pd  Pd195  1  0.20309509  0.39492839  0.80234505  1
  Pd  Pd196  1  0.19662939  0.60711226  0.59843884  1
  Pd  Pd197  1  0.00930855  0.81280236  -0.00029770  1
  Pd  Pd198  1  0.59601623  0.79557879  0.59478188  1
  Pd  Pd199  1  0.79302257  -0.00147054  0.19237322  1
  Rh  Rh200  1  0.59573882  0.79904684  0.80618374  1
  Rh  Rh201  1  0.19447665  0.19763847  0.61344822  1
  Rh  Rh202  1  0.39282798  0.40563912  0.60103664  1
  Rh  Rh203  1  0.40712176  0.19442113  0.60574096  1
  Rh  Rh204  1  0.00723903  0.60133893  -0.00849661  1
  Rh  Rh205  1  0.59844769  0.80319443  0.19762726  1
  Rh  Rh206  1  0.59334728  0.59625802  0.00369034  1
  Rh  Rh207  1  0.59503224  0.20744238  0.00871357  1
  Rh  Rh208  1  0.39629778  0.19977710  -0.00067044  1
  Rh  Rh209  1  0.00414233  0.19128115  0.01081628  1
  Rh  Rh210  1  -0.00088761  0.00131255  0.19992678  1
  Rh  Rh211  1  0.38343012  0.81191409  0.40743408  1
  Rh  Rh212  1  0.40081574  0.60843228  0.59938665  1
  Rh  Rh213  1  -0.00316433  -0.00262953  0.80477471  1
  Rh  Rh214  1  0.40430929  0.58832300  0.39993989  1
  Rh  Rh215  1  0.00323289  0.79748186  0.20017783  1
  Rh  Rh216  1  0.59711729  0.79661844  -0.00107546  1
  Rh  Rh217  1  0.60873120  0.39388213  0.58542283  1
  Rh  Rh218  1  0.19810545  0.40238606  0.20417401  1
  Rh  Rh219  1  0.60003601  0.39750794  0.19691624  1
  Rh  Rh220  1  0.39109788  -0.00693739  -0.00072032  1
  Rh  Rh221  1  0.00248555  0.19344668  0.59348448  1
  Rh  Rh222  1  0.19586211  0.01077339  0.80000554  1
  Rh  Rh223  1  0.79418360  0.20636455  0.60262341  1
  Rh  Rh224  1  0.80552020  0.59917014  0.60436631  1
  Rh  Rh225  1  0.80281297  -0.01084267  0.60264909  1
  Rh  Rh226  1  0.00395370  0.80064552  0.79886215  1
  Rh  Rh227  1  -0.00204392  0.20701469  0.79940470  1
  Rh  Rh228  1  0.01227714  0.40399142  0.40568382  1
  Rh  Rh229  1  0.81193097  -0.00792370  0.39683080  1
  Rh  Rh230  1  0.39552525  0.59948302  0.80018576  1
  Rh  Rh231  1  0.39707073  0.39995016  0.20442961  1
  Rh  Rh232  1  0.60821204  0.60413167  0.80164424  1
  Rh  Rh233  1  0.39886533  0.80055363  -0.00488367  1
  Rh  Rh234  1  0.61158687  0.80538933  0.40521839  1
  Rh  Rh235  1  0.40941368  -0.01235353  0.79613936  1
  Rh  Rh236  1  0.00128321  0.40531430  0.00001761  1
  Rh  Rh237  1  0.61825574  0.18937433  0.78589821  1
  Rh  Rh238  1  0.19691513  0.60197457  0.39525634  1
  Rh  Rh239  1  0.19427856  0.39513065  0.00617939  1
  Rh  Rh240  1  0.00068865  0.80817891  0.39190858  1
  Rh  Rh241  1  0.79890626  0.78950506  0.80864152  1
  Rh  Rh242  1  0.20079955  0.19978859  0.19433054  1
  Rh  Rh243  1  -0.01012849  0.40441378  0.19918657  1
  Rh  Rh244  1  0.19649227  0.00700477  0.61185614  1
  Rh  Rh245  1  0.41343741  0.40504615  -0.00930173  1
  Rh  Rh246  1  0.38618570  0.21563069  0.80241842  1
  Rh  Rh247  1  0.19827914  0.60248222  0.80588579  1
  Rh  Rh248  1  0.00839929  0.59248457  0.40183665  1
  Rh  Rh249  1  0.80688074  0.20701194  0.19225592  1
