# generated using pymatgen
data_ZrScNbPdRh
_symmetry_space_group_name_H-M   'P 1'
_cell_length_a   16.55886775
_cell_length_b   16.56010424
_cell_length_c   16.55674933
_cell_angle_alpha   89.99951696
_cell_angle_beta   90.02573416
_cell_angle_gamma   89.98667683
_symmetry_Int_Tables_number   1
_chemical_formula_structural   ZrScNbPdRh
_chemical_formula_sum   'Zr50 Sc50 Nb50 Pd50 Rh50'
_cell_volume   4540.13452815
_cell_formula_units_Z   50
loop_
 _symmetry_equiv_pos_site_id
 _symmetry_equiv_pos_as_xyz
  1  'x, y, z'
loop_
 _atom_site_type_symbol
 _atom_site_label
 _atom_site_symmetry_multiplicity
 _atom_site_fract_x
 _atom_site_fract_y
 _atom_site_fract_z
 _atom_site_occupancy
  Zr  Zr0  1  0.30400111  0.50266670  0.69815033  1
  Zr  Zr1  1  0.10853520  0.89720481  0.09733478  1
  Zr  Zr2  1  0.89450411  0.29904945  0.49687425  1
  Zr  Zr3  1  0.29447758  0.70423014  0.89969342  1
  Zr  Zr4  1  0.30074836  0.89911855  0.09653872  1
  Zr  Zr5  1  0.10131283  0.09631673  0.69427239  1
  Zr  Zr6  1  0.70722136  0.70339285  0.10547942  1
  Zr  Zr7  1  0.29290155  0.30188596  0.50077182  1
  Zr  Zr8  1  0.50145539  0.49412144  0.70981491  1
  Zr  Zr9  1  0.10377880  0.49612864  0.29188703  1
  Zr  Zr10  1  0.70413227  0.28736636  0.29729918  1
  Zr  Zr11  1  0.50045674  0.29489074  0.69795851  1
  Zr  Zr12  1  0.90221697  0.70517082  0.49707493  1
  Zr  Zr13  1  0.30276273  0.29801478  0.69552625  1
  Zr  Zr14  1  0.70012406  0.69973881  0.29747345  1
  Zr  Zr15  1  0.69764409  0.10270345  0.10510402  1
  Zr  Zr16  1  0.69645230  0.49475160  0.09194428  1
  Zr  Zr17  1  0.09083930  0.49784723  0.69023880  1
  Zr  Zr18  1  0.49750405  0.49887494  0.29538249  1
  Zr  Zr19  1  0.29836075  0.30091740  0.29682435  1
  Zr  Zr20  1  0.70304211  0.10447624  0.69362767  1
  Zr  Zr21  1  0.49540992  0.69226931  0.30508116  1
  Zr  Zr22  1  0.30517381  0.70471444  0.69939810  1
  Zr  Zr23  1  0.89827438  0.89980554  0.50809549  1
  Zr  Zr24  1  0.29693531  0.70338027  0.10126803  1
  Zr  Zr25  1  0.69458258  0.30127207  0.10071971  1
  Zr  Zr26  1  0.90564674  0.10058427  0.09601329  1
  Zr  Zr27  1  0.89510206  0.50279950  0.69761252  1
  Zr  Zr28  1  0.30406290  0.49793453  0.30264750  1
  Zr  Zr29  1  0.49234187  0.90903033  0.90859177  1
  Zr  Zr30  1  0.11117664  0.09993695  0.10130663  1
  Zr  Zr31  1  0.89994437  0.11048107  0.30437471  1
  Zr  Zr32  1  0.70514933  0.91007713  0.50165872  1
  Zr  Zr33  1  0.90906845  0.50158634  0.50827907  1
  Zr  Zr34  1  0.31091162  0.70212764  0.50245743  1
  Zr  Zr35  1  0.89596301  0.09580758  0.50015630  1
  Zr  Zr36  1  0.09754960  0.69609996  0.90027101  1
  Zr  Zr37  1  0.69538470  0.69632620  0.89523051  1
  Zr  Zr38  1  0.70039109  0.69947388  0.49519807  1
  Zr  Zr39  1  0.30634085  0.49808061  0.89684863  1
  Zr  Zr40  1  0.90170888  0.70066040  0.89818607  1
  Zr  Zr41  1  0.89474868  0.70115436  0.70129095  1
  Zr  Zr42  1  0.09929695  0.50069572  0.09553271  1
  Zr  Zr43  1  0.69756245  0.90130737  0.10126342  1
  Zr  Zr44  1  0.09558604  0.30529284  0.89998958  1
  Zr  Zr45  1  0.09608343  0.70118913  0.49692603  1
  Zr  Zr46  1  0.89485147  0.89547991  0.09472648  1
  Zr  Zr47  1  0.90303292  0.89528289  0.90218905  1
  Zr  Zr48  1  0.29510581  0.90204537  0.90586172  1
  Zr  Zr49  1  0.70320363  0.30312216  0.89347715  1
  Sc  Sc50  1  0.48946400  0.69620449  0.10032408  1
  Sc  Sc51  1  0.50313552  0.10066812  0.09506245  1
  Sc  Sc52  1  0.70248815  0.50723580  0.30614784  1
  Sc  Sc53  1  0.49185450  0.90592045  0.50191956  1
  Sc  Sc54  1  0.30489107  0.29077456  0.10387880  1
  Sc  Sc55  1  0.89822129  0.30031871  0.89349449  1
  Sc  Sc56  1  0.70023028  0.10222805  0.49715758  1
  Sc  Sc57  1  0.88782160  0.29889616  0.70578099  1
  Sc  Sc58  1  0.09700057  0.70422331  0.71086015  1
  Sc  Sc59  1  0.08679032  0.90544635  0.50012442  1
  Sc  Sc60  1  0.49724102  0.69998458  0.70277875  1
  Sc  Sc61  1  0.10346754  0.30596079  0.50144313  1
  Sc  Sc62  1  0.70736922  0.49709686  0.50173906  1
  Sc  Sc63  1  0.68787184  0.49681814  0.89782683  1
  Sc  Sc64  1  0.10140685  0.30129896  0.30214245  1
  Sc  Sc65  1  0.90272080  0.29988394  0.30158798  1
  Sc  Sc66  1  0.90108412  0.49982098  0.10932568  1
  Sc  Sc67  1  0.69471851  0.09926470  0.90306927  1
  Sc  Sc68  1  0.09163283  0.70378844  0.29212008  1
  Sc  Sc69  1  0.10536135  0.30422864  0.10114833  1
  Sc  Sc70  1  0.09778691  0.49483048  0.49909471  1
  Sc  Sc71  1  0.49630884  0.30030869  0.89474893  1
  Sc  Sc72  1  0.49562913  0.29762011  0.28897622  1
  Sc  Sc73  1  0.49500880  0.70038851  0.50624199  1
  Sc  Sc74  1  0.10361053  0.10804522  0.29829349  1
  Sc  Sc75  1  0.49536975  0.10027457  0.89880707  1
  Sc  Sc76  1  0.90353978  0.49933250  0.29933628  1
  Sc  Sc77  1  0.69406246  0.30529946  0.69705667  1
  Sc  Sc78  1  0.30377988  0.09739262  0.90329843  1
  Sc  Sc79  1  0.90417391  0.70043410  0.10557986  1
  Sc  Sc80  1  0.89571819  0.10487550  0.69846980  1
  Sc  Sc81  1  0.09644740  0.10301743  0.90907026  1
  Sc  Sc82  1  0.49997267  0.69165776  0.90537135  1
  Sc  Sc83  1  0.29869771  0.50010529  0.10273255  1
  Sc  Sc84  1  0.69888749  0.09633830  0.30628366  1
  Sc  Sc85  1  0.30838757  0.29834974  0.90116752  1
  Sc  Sc86  1  0.90782277  0.49530149  0.89386628  1
  Sc  Sc87  1  0.89569199  0.30527061  0.11200574  1
  Sc  Sc88  1  0.50531038  0.09835537  0.50486581  1
  Sc  Sc89  1  0.90114960  0.10437274  0.89976757  1
  Sc  Sc90  1  0.90490659  0.89744548  0.31320219  1
  Sc  Sc91  1  0.49330093  0.10249422  0.69947923  1
  Sc  Sc92  1  0.49938385  0.50969078  0.49194376  1
  Sc  Sc93  1  0.30075291  0.10276559  0.69475697  1
  Sc  Sc94  1  0.89559901  0.69831019  0.29571082  1
  Sc  Sc95  1  0.50420240  0.09756645  0.30122749  1
  Sc  Sc96  1  0.29646352  0.91283824  0.70493522  1
  Sc  Sc97  1  0.09964849  0.10297726  0.49724450  1
  Sc  Sc98  1  0.70413177  0.89122040  0.90446735  1
  Sc  Sc99  1  0.69784199  0.90190405  0.29544180  1
  Nb  Nb100  1  0.89878971  0.89855029  0.69628379  1
  Nb  Nb101  1  0.30508605  0.69911891  0.29843400  1
  Nb  Nb102  1  0.50215692  0.29609555  0.50448054  1
  Nb  Nb103  1  0.10529866  0.29927020  0.69286116  1
  Nb  Nb104  1  0.29667331  0.09620680  0.10985687  1
  Nb  Nb105  1  0.10190173  0.49749280  0.89624962  1
  Nb  Nb106  1  0.69867456  0.70104386  0.70591633  1
  Nb  Nb107  1  0.69711090  0.50450926  0.70392174  1
  Nb  Nb108  1  0.09953240  0.69473190  0.09936370  1
  Nb  Nb109  1  0.10520301  0.89193108  0.89025903  1
  Nb  Nb110  1  0.30165484  0.10247629  0.29259989  1
  Nb  Nb111  1  0.50264942  0.49854540  0.90895798  1
  Nb  Nb112  1  0.50156214  0.89941401  0.70448512  1
  Nb  Nb113  1  0.50788258  0.49729741  0.09149105  1
  Nb  Nb114  1  0.30307469  0.09926336  0.49810783  1
  Nb  Nb115  1  0.10733028  0.90382094  0.29848593  1
  Nb  Nb116  1  0.70512388  0.89242471  0.70017267  1
  Nb  Nb117  1  0.69238181  0.29618332  0.50046490  1
  Nb  Nb118  1  0.29950717  0.49960901  0.49902321  1
  Nb  Nb119  1  0.09793238  0.90240476  0.70242694  1
  Nb  Nb120  1  0.50597529  0.30129005  0.10366616  1
  Nb  Nb121  1  0.30056200  0.89962003  0.49779129  1
  Nb  Nb122  1  0.50101713  0.89933407  0.29898579  1
  Nb  Nb123  1  0.49863139  0.90306760  0.09855492  1
  Nb  Nb124  1  0.30361518  0.89805252  0.30005514  1
  Nb  Nb125  1  0.20618158  0.80346505  0.39754248  1
  Nb  Nb126  1  0.39479477  0.19756418  0.40224292  1
  Nb  Nb127  1  0.59582151  0.80340818  0.40268955  1
  Nb  Nb128  1  0.60057044  0.39079222  0.40316233  1
  Nb  Nb129  1  0.79897638  0.59806110  -0.00114297  1
  Nb  Nb130  1  0.60449044  0.80110649  0.60419980  1
  Nb  Nb131  1  -0.00051826  -0.00850215  0.79717651  1
  Nb  Nb132  1  0.39768443  -0.00554012  0.20283516  1
  Nb  Nb133  1  0.00022437  0.20442741  0.60124428  1
  Nb  Nb134  1  0.19511794  0.20674894  0.79722584  1
  Nb  Nb135  1  0.59747055  0.59601211  0.19445181  1
  Nb  Nb136  1  0.60486828  -0.00844410  0.79394889  1
  Nb  Nb137  1  0.00273395  -0.00242643  0.19928131  1
  Nb  Nb138  1  0.20617641  0.60607658  0.39971370  1
  Nb  Nb139  1  0.81072803  0.00193376  0.19906866  1
  Nb  Nb140  1  0.60700264  0.60292663  0.60808544  1
  Nb  Nb141  1  0.19505621  0.39939448  0.79850492  1
  Nb  Nb142  1  0.21163711  -0.00352112  0.39548181  1
  Nb  Nb143  1  0.20221443  0.60565953  0.59461945  1
  Nb  Nb144  1  0.80012502  -0.00718200  0.79560256  1
  Nb  Nb145  1  0.40212979  0.39940545  0.59326996  1
  Nb  Nb146  1  0.20131220  0.80530585  0.59633495  1
  Nb  Nb147  1  0.59528519  0.80216465  0.00794931  1
  Nb  Nb148  1  0.39955649  0.80694989  0.80438265  1
  Nb  Nb149  1  0.79627115  0.20509199  0.00514091  1
  Pd  Pd150  1  0.79365692  0.80562539  0.39579042  1
  Pd  Pd151  1  0.19885951  -0.00398335  0.58852468  1
  Pd  Pd152  1  0.20002677  0.79521548  0.20451769  1
  Pd  Pd153  1  0.00379729  0.19376905  0.79255881  1
  Pd  Pd154  1  0.19358506  0.01175835  0.80858283  1
  Pd  Pd155  1  0.00342110  0.39757277  0.39854991  1
  Pd  Pd156  1  -0.00258276  0.80674012  0.20190245  1
  Pd  Pd157  1  0.40288290  0.39624347  0.00677363  1
  Pd  Pd158  1  0.39317606  0.59768882  0.00288126  1
  Pd  Pd159  1  0.40491143  0.80109721  0.40017479  1
  Pd  Pd160  1  0.20251393  0.59862128  -0.00109034  1
  Pd  Pd161  1  0.19995925  0.60456680  0.20530801  1
  Pd  Pd162  1  0.00589434  0.79757195  0.60601513  1
  Pd  Pd163  1  0.59425728  0.41164223  0.59167219  1
  Pd  Pd164  1  0.60072240  0.19189023  0.79912328  1
  Pd  Pd165  1  0.79591416  0.00912164  -0.00340187  1
  Pd  Pd166  1  0.79492300  0.39888795  0.39693934  1
  Pd  Pd167  1  0.60746566  0.40474241  0.21052489  1
  Pd  Pd168  1  0.79641025  0.39632255  0.60332019  1
  Pd  Pd169  1  0.19358268  0.59286056  0.79196600  1
  Pd  Pd170  1  0.00031459  0.39733552  0.79011893  1
  Pd  Pd171  1  0.40074963  0.00790888  0.39515650  1
  Pd  Pd172  1  -0.00807237  0.21531889  0.00605639  1
  Pd  Pd173  1  0.79546456  0.60457552  0.59765907  1
  Pd  Pd174  1  0.00775446  0.00574085  0.39239812  1
  Pd  Pd175  1  0.40502032  0.80338313  0.19939324  1
  Pd  Pd176  1  0.20268134  0.19511632  0.39991146  1
  Pd  Pd177  1  0.59090614  0.80372016  0.80571487  1
  Pd  Pd178  1  0.40623245  0.60515561  0.80466791  1
  Pd  Pd179  1  0.00721304  0.79721457  0.00273788  1
  Pd  Pd180  1  0.40136498  0.19630200  0.00630482  1
  Pd  Pd181  1  0.80818230  0.40137320  -0.00567889  1
  Pd  Pd182  1  0.20762117  0.39822272  -0.00431218  1
  Pd  Pd183  1  0.58888732  0.79156364  0.20089321  1
  Pd  Pd184  1  0.39909444  0.40149622  0.18756321  1
  Pd  Pd185  1  0.20673416  0.20277091  -0.00587234  1
  Pd  Pd186  1  0.39940154  -0.00160354  0.60434913  1
  Pd  Pd187  1  0.79908496  0.59182549  0.80925934  1
  Pd  Pd188  1  0.59736297  0.00470086  0.20199906  1
  Pd  Pd189  1  0.59926880  -0.00262607  0.60529144  1
  Pd  Pd190  1  0.00668771  0.20107609  0.19713817  1
  Pd  Pd191  1  0.59071232  0.20239945  0.39665541  1
  Pd  Pd192  1  0.00952718  -0.00627120  -0.00232096  1
  Pd  Pd193  1  0.80909609  0.59611660  0.40106101  1
  Pd  Pd194  1  0.40897476  0.39004457  0.40557021  1
  Pd  Pd195  1  -0.00756133  0.59418379  0.00143607  1
  Pd  Pd196  1  0.79450581  0.40510564  0.21000745  1
  Pd  Pd197  1  0.00411186  0.59910233  0.39145575  1
  Pd  Pd198  1  -0.00745443  0.39872860  0.00545864  1
  Pd  Pd199  1  0.59985805  0.20536900  -0.00557596  1
  Rh  Rh200  1  0.60726814  0.60954501  0.00889873  1
  Rh  Rh201  1  0.20132464  -0.00029449  0.20640157  1
  Rh  Rh202  1  0.00187984  0.20483635  0.40978448  1
  Rh  Rh203  1  0.40422998  0.59274738  0.19371259  1
  Rh  Rh204  1  0.00242826  0.59960347  0.19837149  1
  Rh  Rh205  1  0.80010148  0.00099695  0.39276459  1
  Rh  Rh206  1  0.79590437  0.79367879  0.59942539  1
  Rh  Rh207  1  0.19550145  0.40883384  0.39729683  1
  Rh  Rh208  1  0.20839342  0.80452532  0.79201767  1
  Rh  Rh209  1  0.79436359  0.78595014  -0.00437941  1
  Rh  Rh210  1  0.40595709  -0.00039426  0.79651936  1
  Rh  Rh211  1  0.80195930  0.19225162  0.19610262  1
  Rh  Rh212  1  0.00454452  0.79971819  0.39648105  1
  Rh  Rh213  1  0.00428581  0.39928986  0.20025182  1
  Rh  Rh214  1  0.79459166  0.19072062  0.81084817  1
  Rh  Rh215  1  0.80258391  0.00226715  0.60660971  1
  Rh  Rh216  1  0.40633915  0.19004967  0.20021898  1
  Rh  Rh217  1  0.59349290  0.59701527  0.79650850  1
  Rh  Rh218  1  0.39404578  0.01020939  0.01295144  1
  Rh  Rh219  1  0.19200992  0.79227118  0.00044359  1
  Rh  Rh220  1  0.59094599  0.38808598  -0.00765598  1
  Rh  Rh221  1  -0.00418604  0.80364301  0.79704234  1
  Rh  Rh222  1  0.60140838  0.60156880  0.40082814  1
  Rh  Rh223  1  0.79734330  0.20028094  0.40399639  1
  Rh  Rh224  1  0.19401107  0.19258970  0.59949627  1
  Rh  Rh225  1  0.20363278  0.39647900  0.19710714  1
  Rh  Rh226  1  0.39055158  0.19616683  0.80028498  1
  Rh  Rh227  1  0.79543332  0.40780817  0.79712008  1
  Rh  Rh228  1  0.19798766  0.00167912  -0.00450175  1
  Rh  Rh229  1  0.39963874  0.20249388  0.59002203  1
  Rh  Rh230  1  0.60184668  0.19566812  0.60173574  1
  Rh  Rh231  1  0.80972652  0.81233051  0.20801572  1
  Rh  Rh232  1  0.00372837  0.60938006  0.60256422  1
  Rh  Rh233  1  0.19754565  0.20729951  0.19981770  1
  Rh  Rh234  1  0.80026432  0.20594948  0.59477695  1
  Rh  Rh235  1  0.39726616  0.39726369  0.79632483  1
  Rh  Rh236  1  0.80537324  0.80324118  0.80071113  1
  Rh  Rh237  1  0.40669336  0.58832844  0.60074046  1
  Rh  Rh238  1  0.39392031  0.59919185  0.40046917  1
  Rh  Rh239  1  0.20652698  0.41133531  0.60374743  1
  Rh  Rh240  1  0.79501676  0.59223761  0.19305008  1
  Rh  Rh241  1  0.60458300  -0.00662500  -0.00716860  1
  Rh  Rh242  1  0.59461172  0.19602824  0.20245914  1
  Rh  Rh243  1  0.39875201  0.81391507  0.61217743  1
  Rh  Rh244  1  0.40535860  0.79634079  -0.00598024  1
  Rh  Rh245  1  0.00134238  0.59676317  0.79851155  1
  Rh  Rh246  1  0.59816492  0.39851247  0.80372728  1
  Rh  Rh247  1  -0.00718048  0.00825686  0.60695726  1
  Rh  Rh248  1  0.59778567  -0.00873848  0.40228583  1
  Rh  Rh249  1  -0.01305840  0.38703631  0.60377174  1
