# generated using pymatgen
data_ZrScNbPdRh
_symmetry_space_group_name_H-M   'P 1'
_cell_length_a   16.56031737
_cell_length_b   16.55818022
_cell_length_c   16.56072005
_cell_angle_alpha   89.98742691
_cell_angle_beta   89.97264136
_cell_angle_gamma   89.98095932
_symmetry_Int_Tables_number   1
_chemical_formula_structural   ZrScNbPdRh
_chemical_formula_sum   'Zr50 Sc50 Nb50 Pd50 Rh50'
_cell_volume   4541.09296078
_cell_formula_units_Z   50
loop_
 _symmetry_equiv_pos_site_id
 _symmetry_equiv_pos_as_xyz
  1  'x, y, z'
loop_
 _atom_site_type_symbol
 _atom_site_label
 _atom_site_symmetry_multiplicity
 _atom_site_fract_x
 _atom_site_fract_y
 _atom_site_fract_z
 _atom_site_occupancy
  Zr  Zr0  1  0.70172810  0.29419875  0.09251270  1
  Zr  Zr1  1  0.90474614  0.49630696  0.70650873  1
  Zr  Zr2  1  0.09936266  0.50509915  0.09248089  1
  Zr  Zr3  1  0.30064370  0.70256483  0.08651411  1
  Zr  Zr4  1  0.69972403  0.09640829  0.30039132  1
  Zr  Zr5  1  0.89799282  0.69157572  0.10217943  1
  Zr  Zr6  1  0.90373931  0.09784189  0.69188911  1
  Zr  Zr7  1  0.30810924  0.09047560  0.09689462  1
  Zr  Zr8  1  0.10219130  0.90431198  0.89593576  1
  Zr  Zr9  1  0.90447011  0.89866406  0.89368796  1
  Zr  Zr10  1  0.10489127  0.10061808  0.30412699  1
  Zr  Zr11  1  0.10271548  0.29601479  0.89548521  1
  Zr  Zr12  1  0.09401939  0.49812712  0.30022060  1
  Zr  Zr13  1  0.70041281  0.30037741  0.89985588  1
  Zr  Zr14  1  0.10691312  0.88964298  0.29912802  1
  Zr  Zr15  1  0.70626485  0.50845452  0.09531071  1
  Zr  Zr16  1  0.49182727  0.50476880  0.09917510  1
  Zr  Zr17  1  0.10398516  0.09948267  0.70805365  1
  Zr  Zr18  1  0.48809815  0.49318004  0.70320237  1
  Zr  Zr19  1  0.10140476  0.09992388  0.08599895  1
  Zr  Zr20  1  0.29931559  0.50959989  0.90457054  1
  Zr  Zr21  1  0.09875086  0.70102755  0.10147861  1
  Zr  Zr22  1  0.09567545  0.69809209  0.29786748  1
  Zr  Zr23  1  0.30851344  0.09353076  0.49760112  1
  Zr  Zr24  1  0.69863975  0.70398164  0.69704950  1
  Zr  Zr25  1  0.29758532  0.10496747  0.69259813  1
  Zr  Zr26  1  0.48897367  0.90243853  0.89344734  1
  Zr  Zr27  1  0.89273561  0.69843192  0.49930917  1
  Zr  Zr28  1  0.89652046  0.90021207  0.50393434  1
  Zr  Zr29  1  0.89691999  0.50240233  0.30069069  1
  Zr  Zr30  1  0.30349188  0.90867549  0.30232911  1
  Zr  Zr31  1  0.90414279  0.49736363  0.09154912  1
  Zr  Zr32  1  0.69917966  0.70880107  0.09739141  1
  Zr  Zr33  1  0.89674908  0.31196276  0.90067776  1
  Zr  Zr34  1  0.50195645  0.29233254  0.30486347  1
  Zr  Zr35  1  0.69330121  0.10094507  0.90421865  1
  Zr  Zr36  1  0.89305731  0.69976231  0.30404952  1
  Zr  Zr37  1  0.89511258  0.09323085  0.10219429  1
  Zr  Zr38  1  0.30146345  0.29265190  0.30307855  1
  Zr  Zr39  1  0.69175844  0.69666179  0.89504471  1
  Zr  Zr40  1  0.30224376  0.69933956  0.29547415  1
  Zr  Zr41  1  0.90246647  0.90001683  0.69680411  1
  Zr  Zr42  1  0.70052068  0.09167279  0.09954610  1
  Zr  Zr43  1  0.10017356  0.69967429  0.49941169  1
  Zr  Zr44  1  0.09136648  0.50400220  0.89689485  1
  Zr  Zr45  1  0.30808116  0.10143341  0.30244972  1
  Zr  Zr46  1  0.89777110  0.29888183  0.51442167  1
  Zr  Zr47  1  0.50005509  0.50745297  0.30619165  1
  Zr  Zr48  1  0.69596381  0.89474911  0.89952638  1
  Zr  Zr49  1  0.89826522  0.10188274  0.50300843  1
  Sc  Sc50  1  0.69259591  0.10192414  0.69806355  1
  Sc  Sc51  1  0.70233212  0.50731783  0.71070608  1
  Sc  Sc52  1  0.50471182  0.50416206  0.89112425  1
  Sc  Sc53  1  0.29036922  0.69380456  0.50681831  1
  Sc  Sc54  1  0.89532443  0.50072779  0.50598564  1
  Sc  Sc55  1  0.89334124  0.09749642  0.30876673  1
  Sc  Sc56  1  0.69247512  0.89566954  0.29677153  1
  Sc  Sc57  1  0.90406510  0.69968411  0.89608001  1
  Sc  Sc58  1  0.09775615  0.31112288  0.50006652  1
  Sc  Sc59  1  0.30596809  0.50872892  0.30483336  1
  Sc  Sc60  1  0.50198139  0.28879624  0.50205388  1
  Sc  Sc61  1  0.10787656  0.09517088  0.51072515  1
  Sc  Sc62  1  0.09701542  0.50640959  0.69871120  1
  Sc  Sc63  1  0.50424313  0.31048158  0.88991402  1
  Sc  Sc64  1  0.50053724  0.90556063  0.10285824  1
  Sc  Sc65  1  0.90119058  0.09272656  0.90682511  1
  Sc  Sc66  1  0.50389094  0.29257655  0.09589445  1
  Sc  Sc67  1  0.70066184  0.29650366  0.50060466  1
  Sc  Sc68  1  0.50088775  0.70305748  0.09719602  1
  Sc  Sc69  1  0.70479514  0.70276103  0.50194229  1
  Sc  Sc70  1  0.09947483  0.30509934  0.30956571  1
  Sc  Sc71  1  0.29990858  0.29724416  0.50413362  1
  Sc  Sc72  1  0.10483426  0.88930501  0.09594182  1
  Sc  Sc73  1  0.09872592  0.90613096  0.70170314  1
  Sc  Sc74  1  0.70520038  0.50563916  0.89741017  1
  Sc  Sc75  1  0.49447837  0.70019620  0.70500670  1
  Sc  Sc76  1  0.69808822  0.10193139  0.49857612  1
  Sc  Sc77  1  0.29717288  0.89092136  0.71300698  1
  Sc  Sc78  1  0.49670198  0.49795270  0.49956740  1
  Sc  Sc79  1  0.30308051  0.30219402  0.08793833  1
  Sc  Sc80  1  0.89055217  0.89720711  0.30091971  1
  Sc  Sc81  1  0.10429279  0.69816543  0.89724063  1
  Sc  Sc82  1  0.90848434  0.30154974  0.31468167  1
  Sc  Sc83  1  0.70669875  0.29513328  0.70606081  1
  Sc  Sc84  1  0.50854055  0.09665684  0.10151557  1
  Sc  Sc85  1  0.88862295  0.89834614  0.09485322  1
  Sc  Sc86  1  0.50930210  0.70249966  0.50088933  1
  Sc  Sc87  1  0.29060253  0.09003811  0.89844269  1
  Sc  Sc88  1  0.69423362  0.29534433  0.31603694  1
  Sc  Sc89  1  0.29964342  0.49640231  0.51121399  1
  Sc  Sc90  1  0.09994887  0.49964181  0.50513477  1
  Sc  Sc91  1  0.09472111  0.30588095  0.08869221  1
  Sc  Sc92  1  0.30307415  0.30820458  0.69312245  1
  Sc  Sc93  1  0.29969711  0.30059744  0.89364388  1
  Sc  Sc94  1  0.50075164  0.09558188  0.30367891  1
  Sc  Sc95  1  0.10038998  0.30765488  0.69592985  1
  Sc  Sc96  1  0.50352787  0.90990344  0.69395400  1
  Sc  Sc97  1  0.69328278  0.89507633  0.50903602  1
  Sc  Sc98  1  0.70274429  0.49721986  0.49337084  1
  Sc  Sc99  1  0.89634435  0.69344414  0.69816248  1
  Nb  Nb100  1  0.30401537  0.90343454  0.49648022  1
  Nb  Nb101  1  0.50108571  0.70415384  0.29977472  1
  Nb  Nb102  1  0.49828696  0.30414998  0.70045687  1
  Nb  Nb103  1  0.70346663  0.89419761  0.69837325  1
  Nb  Nb104  1  0.29295752  0.69547503  0.70557741  1
  Nb  Nb105  1  0.30250882  0.89115387  0.91227528  1
  Nb  Nb106  1  0.49447104  0.90384886  0.50379953  1
  Nb  Nb107  1  0.30077937  0.50393753  0.09942021  1
  Nb  Nb108  1  0.29985096  0.50478623  0.70182123  1
  Nb  Nb109  1  0.10569673  0.89775046  0.49517874  1
  Nb  Nb110  1  0.30139907  0.89873899  0.09670664  1
  Nb  Nb111  1  0.49768059  0.70989092  0.89911264  1
  Nb  Nb112  1  0.69905543  0.90462511  0.10286533  1
  Nb  Nb113  1  0.11469823  0.70107517  0.69673588  1
  Nb  Nb114  1  0.89678795  0.30214312  0.10139335  1
  Nb  Nb115  1  0.49570486  0.10334544  0.69332565  1
  Nb  Nb116  1  0.49865365  0.09627249  0.89218869  1
  Nb  Nb117  1  0.90269800  0.50658839  0.89686444  1
  Nb  Nb118  1  0.30507988  0.71497490  0.88943745  1
  Nb  Nb119  1  0.69471138  0.69884212  0.30082350  1
  Nb  Nb120  1  0.50035523  0.89550977  0.30113913  1
  Nb  Nb121  1  0.49796689  0.08860010  0.51864621  1
  Nb  Nb122  1  0.90274809  0.29687573  0.70260402  1
  Nb  Nb123  1  0.09849933  0.10169287  0.89535636  1
  Nb  Nb124  1  0.69572531  0.49627635  0.30164081  1
  Nb  Nb125  1  0.00506688  0.00115359  0.20366282  1
  Nb  Nb126  1  0.40405750  0.80335392  0.40181917  1
  Nb  Nb127  1  0.40193255  0.39487624  0.39499841  1
  Nb  Nb128  1  0.79591145  0.39649386  0.20135619  1
  Nb  Nb129  1  0.20326104  0.41064872  0.79850289  1
  Nb  Nb130  1  0.19763763  0.20101755  0.19474220  1
  Nb  Nb131  1  0.40491927  0.19577762  0.79475169  1
  Nb  Nb132  1  0.39566419  0.80443956  0.59511483  1
  Nb  Nb133  1  0.80495331  0.20675148  0.20016010  1
  Nb  Nb134  1  0.60189776  0.40515279  0.20053127  1
  Nb  Nb135  1  0.20713799  0.40336122  0.19748784  1
  Nb  Nb136  1  0.40161661  0.80307173  0.20435841  1
  Nb  Nb137  1  0.59890437  0.59446680  0.60508858  1
  Nb  Nb138  1  0.59661690  0.40104935  0.60836440  1
  Nb  Nb139  1  0.40042419  0.40134648  0.20182267  1
  Nb  Nb140  1  0.00536055  -0.00586085  0.40146649  1
  Nb  Nb141  1  -0.00071951  0.19693152  0.19694687  1
  Nb  Nb142  1  0.60142983  0.60270013  0.20687706  1
  Nb  Nb143  1  0.60455052  0.40345352  0.00414262  1
  Nb  Nb144  1  0.00751146  0.79832847  0.59623624  1
  Nb  Nb145  1  0.79523143  -0.00529031  0.79674784  1
  Nb  Nb146  1  0.40662241  0.19100000  -0.01440050  1
  Nb  Nb147  1  0.20239133  0.59633624  0.19473847  1
  Nb  Nb148  1  -0.00195609  0.20040261  0.80007768  1
  Nb  Nb149  1  0.19975974  0.00166146  0.19702173  1
  Pd  Pd150  1  0.40401241  0.61064056  0.59684032  1
  Pd  Pd151  1  0.21003938  0.40640475  0.39761021  1
  Pd  Pd152  1  0.20009360  0.40177300  -0.00406188  1
  Pd  Pd153  1  0.40478511  0.60752951  -0.01055109  1
  Pd  Pd154  1  0.80272802  0.79801462  0.79914525  1
  Pd  Pd155  1  -0.00928074  0.20376266  -0.00313945  1
  Pd  Pd156  1  0.59412875  -0.00606543  -0.00162759  1
  Pd  Pd157  1  0.19678709  0.19995315  0.40810914  1
  Pd  Pd158  1  0.20757024  -0.00511509  0.80179024  1
  Pd  Pd159  1  0.60422396  0.20590914  0.60168210  1
  Pd  Pd160  1  0.00885885  0.79103544  0.78790429  1
  Pd  Pd161  1  0.59246792  0.80911578  0.00233395  1
  Pd  Pd162  1  -0.00548703  0.80436274  0.40408804  1
  Pd  Pd163  1  0.40096986  0.60519774  0.80561976  1
  Pd  Pd164  1  0.60001439  0.80291406  0.40536912  1
  Pd  Pd165  1  0.21099893  0.19806720  -0.00206336  1
  Pd  Pd166  1  0.00384717  0.19352603  0.40418963  1
  Pd  Pd167  1  0.39662998  0.20441042  0.18583841  1
  Pd  Pd168  1  0.79704260  0.80268241  0.20170606  1
  Pd  Pd169  1  -0.01217809  0.80771031  0.19725930  1
  Pd  Pd170  1  0.20623148  -0.00961525  0.60314539  1
  Pd  Pd171  1  0.80957359  0.18655716  0.80136233  1
  Pd  Pd172  1  0.00145799  0.39209729  0.19984860  1
  Pd  Pd173  1  0.60593127  0.60228123  0.40639936  1
  Pd  Pd174  1  0.00079559  0.60551287  0.60384590  1
  Pd  Pd175  1  0.01052539  0.20231537  0.60354850  1
  Pd  Pd176  1  0.78859980  0.00384904  0.60378550  1
  Pd  Pd177  1  -0.00316173  0.59405479  0.40501613  1
  Pd  Pd178  1  -0.00178078  0.79860833  0.00035193  1
  Pd  Pd179  1  0.79775364  0.40400028  0.79775955  1
  Pd  Pd180  1  0.59480063  0.59809355  0.00048551  1
  Pd  Pd181  1  0.80302547  0.39549513  0.39819394  1
  Pd  Pd182  1  0.20282877  0.80758900  0.60058982  1
  Pd  Pd183  1  0.19513010  0.20780752  0.59813580  1
  Pd  Pd184  1  0.39013165  0.00370908  0.79429741  1
  Pd  Pd185  1  0.79657117  -0.00796666  0.40299056  1
  Pd  Pd186  1  0.80712863  0.19556898  -0.00086763  1
  Pd  Pd187  1  0.19993157  0.59453772  0.39755061  1
  Pd  Pd188  1  0.21107805  0.79512329  0.40246355  1
  Pd  Pd189  1  0.59050662  0.80367609  0.79103406  1
  Pd  Pd190  1  0.40929299  0.39430677  -0.00255089  1
  Pd  Pd191  1  0.00291321  -0.01040924  0.00648439  1
  Pd  Pd192  1  0.79006031  0.40377602  0.60901287  1
  Pd  Pd193  1  0.60523601  -0.00174578  0.79221099  1
  Pd  Pd194  1  0.60828248  0.20193093  0.20416521  1
  Pd  Pd195  1  0.39894357  0.60654637  0.41425129  1
  Pd  Pd196  1  0.59355710  0.20206932  0.79850468  1
  Pd  Pd197  1  0.79441749  0.59705033  0.20550286  1
  Pd  Pd198  1  0.59731344  -0.00128424  0.40484962  1
  Pd  Pd199  1  0.80160916  0.79609260  -0.00536269  1
  Rh  Rh200  1  0.60503487  -0.00176588  0.60292351  1
  Rh  Rh201  1  0.59362008  0.18566395  0.40918480  1
  Rh  Rh202  1  0.21298027  0.79801646  0.19502772  1
  Rh  Rh203  1  0.79518407  0.19933023  0.60134951  1
  Rh  Rh204  1  0.40472522  0.00177690  -0.00305085  1
  Rh  Rh205  1  0.59096026  0.39636221  0.40653787  1
  Rh  Rh206  1  -0.00222549  0.39958107  -0.00572605  1
  Rh  Rh207  1  0.78914853  0.80103914  0.39903377  1
  Rh  Rh208  1  0.38927570  -0.00965081  0.61049099  1
  Rh  Rh209  1  0.79943541  0.00046676  0.20509552  1
  Rh  Rh210  1  0.20132257  0.59821201  0.80073948  1
  Rh  Rh211  1  0.59682152  0.79708014  0.19648184  1
  Rh  Rh212  1  0.80488247  0.60752315  -0.01052035  1
  Rh  Rh213  1  0.20003166  0.59392763  0.60322632  1
  Rh  Rh214  1  0.79488585  0.60101651  0.39861166  1
  Rh  Rh215  1  0.40668747  0.39428474  0.58920369  1
  Rh  Rh216  1  0.19512983  0.80132309  0.80534704  1
  Rh  Rh217  1  0.58899892  0.20534255  -0.01372556  1
  Rh  Rh218  1  -0.00712153  0.01043409  0.80237509  1
  Rh  Rh219  1  0.00612712  0.39476368  0.80044497  1
  Rh  Rh220  1  0.60081571  -0.00358075  0.20271125  1
  Rh  Rh221  1  0.40319935  0.80186439  0.79099462  1
  Rh  Rh222  1  0.19677521  0.79805795  -0.00713237  1
  Rh  Rh223  1  0.00805384  -0.00982509  0.58921163  1
  Rh  Rh224  1  0.20028264  0.60732464  -0.00218067  1
  Rh  Rh225  1  0.39981676  0.60696407  0.19467324  1
  Rh  Rh226  1  0.19636431  0.00023934  0.39842911  1
  Rh  Rh227  1  0.59418892  0.60444033  0.79580121  1
  Rh  Rh228  1  0.40114283  -0.00540220  0.19940864  1
  Rh  Rh229  1  -0.00676491  0.40571627  0.41198250  1
  Rh  Rh230  1  0.80123386  0.20221660  0.39981327  1
  Rh  Rh231  1  0.40725967  0.19446666  0.41279209  1
  Rh  Rh232  1  0.00266494  0.60704675  0.79405168  1
  Rh  Rh233  1  0.40045522  0.20374699  0.60315865  1
  Rh  Rh234  1  0.79877743  0.40763205  -0.00015563  1
  Rh  Rh235  1  0.79327568  -0.00844116  -0.01007640  1
  Rh  Rh236  1  0.80734311  0.79776392  0.60196835  1
  Rh  Rh237  1  0.79002958  0.59516190  0.60130164  1
  Rh  Rh238  1  0.59193947  0.79603115  0.60450875  1
  Rh  Rh239  1  0.38902120  0.39679329  0.80256214  1
  Rh  Rh240  1  0.19699267  -0.00678623  0.00019206  1
  Rh  Rh241  1  0.00311042  0.59915506  0.20053418  1
  Rh  Rh242  1  -0.00428552  0.40238435  0.60180632  1
  Rh  Rh243  1  0.20011970  0.20739490  0.79545164  1
  Rh  Rh244  1  0.80430292  0.60421519  0.80297559  1
  Rh  Rh245  1  0.41269798  0.00011189  0.40151732  1
  Rh  Rh246  1  0.40785351  0.80312680  0.00520515  1
  Rh  Rh247  1  0.19957653  0.40623512  0.60810401  1
  Rh  Rh248  1  0.60961542  0.40010954  0.79951799  1
  Rh  Rh249  1  -0.00289703  0.60662877  -0.00443534  1
