# generated using pymatgen
data_ZrScNbPdRh
_symmetry_space_group_name_H-M   'P 1'
_cell_length_a   16.55849878
_cell_length_b   16.55348997
_cell_length_c   16.55393994
_cell_angle_alpha   89.96560189
_cell_angle_beta   89.99576028
_cell_angle_gamma   89.98626288
_symmetry_Int_Tables_number   1
_chemical_formula_structural   ZrScNbPdRh
_chemical_formula_sum   'Zr50 Sc50 Nb50 Pd50 Rh50'
_cell_volume   4537.44959503
_cell_formula_units_Z   50
loop_
 _symmetry_equiv_pos_site_id
 _symmetry_equiv_pos_as_xyz
  1  'x, y, z'
loop_
 _atom_site_type_symbol
 _atom_site_label
 _atom_site_symmetry_multiplicity
 _atom_site_fract_x
 _atom_site_fract_y
 _atom_site_fract_z
 _atom_site_occupancy
  Zr  Zr0  1  0.10728598  0.09808683  0.10435463  1
  Zr  Zr1  1  0.10240891  0.91043579  0.29672526  1
  Zr  Zr2  1  0.50057306  0.90669897  0.69921027  1
  Zr  Zr3  1  0.29728848  0.70271926  0.89106630  1
  Zr  Zr4  1  0.30273749  0.49081591  0.30852196  1
  Zr  Zr5  1  0.30582288  0.89957271  0.10142600  1
  Zr  Zr6  1  0.09024950  0.50633318  0.89815708  1
  Zr  Zr7  1  0.90249028  0.29856883  0.70224059  1
  Zr  Zr8  1  0.29896742  0.90007599  0.89453217  1
  Zr  Zr9  1  0.50250389  0.29535476  0.09761346  1
  Zr  Zr10  1  0.69354018  0.50664172  0.70139302  1
  Zr  Zr11  1  0.69308624  0.09769370  0.70380622  1
  Zr  Zr12  1  0.09174964  0.49708257  0.49942237  1
  Zr  Zr13  1  0.88933310  0.10783991  0.71053514  1
  Zr  Zr14  1  0.89533644  0.29408904  0.09897946  1
  Zr  Zr15  1  0.49764927  0.10208823  0.70307523  1
  Zr  Zr16  1  0.90550864  0.90197289  0.29202196  1
  Zr  Zr17  1  0.30499553  0.09847120  0.89474894  1
  Zr  Zr18  1  0.71395519  0.48923056  0.50176423  1
  Zr  Zr19  1  0.30219158  0.90559058  0.29831090  1
  Zr  Zr20  1  0.50527766  0.49648585  0.70473433  1
  Zr  Zr21  1  0.70579181  0.69430914  0.50528077  1
  Zr  Zr22  1  0.10672305  0.10085694  0.30268324  1
  Zr  Zr23  1  0.90441108  0.89904991  0.50583987  1
  Zr  Zr24  1  0.09924522  0.29867956  0.89376218  1
  Zr  Zr25  1  0.09132913  0.49489822  0.30103823  1
  Zr  Zr26  1  0.10172201  0.89349978  0.89621959  1
  Zr  Zr27  1  0.50090279  0.69899230  0.30022714  1
  Zr  Zr28  1  0.10236251  0.90879762  0.69644737  1
  Zr  Zr29  1  0.50086770  0.30020446  0.70423126  1
  Zr  Zr30  1  0.10287847  0.50480012  0.09236137  1
  Zr  Zr31  1  0.90455817  0.70247658  0.10407010  1
  Zr  Zr32  1  0.49894414  0.69777915  0.10004470  1
  Zr  Zr33  1  0.30355935  0.50494245  0.70233614  1
  Zr  Zr34  1  0.49560408  0.89818420  0.29811501  1
  Zr  Zr35  1  0.10155459  0.29397964  0.29727592  1
  Zr  Zr36  1  0.50974723  0.49766090  0.09864696  1
  Zr  Zr37  1  0.90068961  0.90168122  0.09720478  1
  Zr  Zr38  1  0.51006646  0.09913753  0.50023407  1
  Zr  Zr39  1  0.89304874  0.70538378  0.69256835  1
  Zr  Zr40  1  0.09391339  0.89417927  0.09804796  1
  Zr  Zr41  1  0.10294016  0.09986611  0.50051308  1
  Zr  Zr42  1  0.49964345  0.70345175  0.90308018  1
  Zr  Zr43  1  0.50257722  0.10303690  0.09181947  1
  Zr  Zr44  1  0.88804933  0.31262095  0.50818783  1
  Zr  Zr45  1  0.49502720  0.69694678  0.70551265  1
  Zr  Zr46  1  0.29914443  0.69015968  0.09374491  1
  Zr  Zr47  1  0.90358960  0.50053480  0.70056756  1
  Zr  Zr48  1  0.69918904  0.71005082  0.90273165  1
  Zr  Zr49  1  0.90600553  0.50128111  0.10688929  1
  Sc  Sc50  1  0.69279196  0.90611714  0.29991500  1
  Sc  Sc51  1  0.09973290  0.70180185  0.90015539  1
  Sc  Sc52  1  0.68916225  0.50228559  0.89670271  1
  Sc  Sc53  1  0.30410442  0.28923046  0.30575587  1
  Sc  Sc54  1  0.49743644  0.09746280  0.30556560  1
  Sc  Sc55  1  0.69624619  0.90126498  0.90276376  1
  Sc  Sc56  1  0.90209467  0.89584605  0.69943224  1
  Sc  Sc57  1  0.90470597  0.10570876  0.29068014  1
  Sc  Sc58  1  0.09194822  0.69898024  0.50586594  1
  Sc  Sc59  1  0.70698647  0.29210999  0.29522497  1
  Sc  Sc60  1  0.50140304  0.49465550  0.29746007  1
  Sc  Sc61  1  0.49053941  0.48664055  0.50356320  1
  Sc  Sc62  1  0.29679303  0.28828318  0.70183569  1
  Sc  Sc63  1  0.29382172  0.28886426  0.90073557  1
  Sc  Sc64  1  0.70136121  0.68956844  0.29595437  1
  Sc  Sc65  1  0.09086018  0.70285987  0.70730259  1
  Sc  Sc66  1  0.09900585  0.90633489  0.50754721  1
  Sc  Sc67  1  0.89401309  0.10637316  0.90262165  1
  Sc  Sc68  1  0.10681608  0.10909587  0.69603751  1
  Sc  Sc69  1  0.50742367  0.29677718  0.90594042  1
  Sc  Sc70  1  0.50023019  0.90697116  0.89793028  1
  Sc  Sc71  1  0.49874769  0.90307248  0.49908858  1
  Sc  Sc72  1  0.50210185  0.09974919  0.90096392  1
  Sc  Sc73  1  0.90218848  0.70316463  0.89439871  1
  Sc  Sc74  1  0.10294544  0.10768643  0.89895122  1
  Sc  Sc75  1  0.30799387  0.69073667  0.29226471  1
  Sc  Sc76  1  0.30047595  0.10574131  0.50273905  1
  Sc  Sc77  1  0.28609090  0.50865498  0.90191150  1
  Sc  Sc78  1  0.30239898  0.90213305  0.70360919  1
  Sc  Sc79  1  0.68842854  0.90348574  0.49575710  1
  Sc  Sc80  1  0.49802228  0.29133390  0.49630274  1
  Sc  Sc81  1  0.30791792  0.30381139  0.49631635  1
  Sc  Sc82  1  0.29784216  0.89716492  0.51761247  1
  Sc  Sc83  1  0.89859544  0.09745594  0.09421905  1
  Sc  Sc84  1  0.69740214  0.29791177  0.90594496  1
  Sc  Sc85  1  0.69135520  0.29944475  0.10145621  1
  Sc  Sc86  1  0.49833775  0.70212782  0.50238853  1
  Sc  Sc87  1  0.09613866  0.50140495  0.71074249  1
  Sc  Sc88  1  0.09174937  0.29504500  0.50223627  1
  Sc  Sc89  1  0.89994954  0.28884175  0.90268776  1
  Sc  Sc90  1  0.09309814  0.69428216  0.29362879  1
  Sc  Sc91  1  0.30475280  0.10689833  0.09761378  1
  Sc  Sc92  1  0.50268235  0.91078792  0.09491705  1
  Sc  Sc93  1  0.50391943  0.29177515  0.29977279  1
  Sc  Sc94  1  0.50461806  0.50298760  0.90127610  1
  Sc  Sc95  1  0.70149276  0.30253782  0.69664600  1
  Sc  Sc96  1  0.90129563  0.11320267  0.50364696  1
  Sc  Sc97  1  0.89979810  0.89708029  0.90591366  1
  Sc  Sc98  1  0.09734848  0.69746186  0.09485847  1
  Sc  Sc99  1  0.10222634  0.29306852  0.08927072  1
  Nb  Nb100  1  0.90455868  0.50663225  0.49437389  1
  Nb  Nb101  1  0.28982998  0.09683380  0.29833116  1
  Nb  Nb102  1  0.90030979  0.69748077  0.29975335  1
  Nb  Nb103  1  0.69896110  0.09062313  0.09734390  1
  Nb  Nb104  1  0.69722460  0.90293352  0.70068378  1
  Nb  Nb105  1  0.70048616  0.09827813  0.30947369  1
  Nb  Nb106  1  0.70103290  0.89498731  0.09547002  1
  Nb  Nb107  1  0.30015281  0.49926521  0.09857476  1
  Nb  Nb108  1  0.70585495  0.29241704  0.49416823  1
  Nb  Nb109  1  0.90395356  0.30751207  0.28927387  1
  Nb  Nb110  1  0.09875797  0.30513125  0.69837345  1
  Nb  Nb111  1  0.69866142  0.49760014  0.29160742  1
  Nb  Nb112  1  0.29603631  0.09994575  0.70575899  1
  Nb  Nb113  1  0.70266693  0.10652855  0.49725865  1
  Nb  Nb114  1  0.30002883  0.29873905  0.09755240  1
  Nb  Nb115  1  0.29978871  0.69997563  0.50396168  1
  Nb  Nb116  1  0.89595567  0.50284053  0.90426427  1
  Nb  Nb117  1  0.69851770  0.70327371  0.70163731  1
  Nb  Nb118  1  0.70440714  0.10211218  0.89990068  1
  Nb  Nb119  1  0.29626236  0.49823296  0.50027451  1
  Nb  Nb120  1  0.90032516  0.69895976  0.49490220  1
  Nb  Nb121  1  0.70035150  0.70180220  0.09869858  1
  Nb  Nb122  1  0.89776592  0.50562611  0.30050122  1
  Nb  Nb123  1  0.69936676  0.50573196  0.11070430  1
  Nb  Nb124  1  0.30748721  0.70224259  0.69235457  1
  Nb  Nb125  1  0.79712079  0.59777932  0.00525389  1
  Nb  Nb126  1  0.39842379  0.39856837  0.80643418  1
  Nb  Nb127  1  0.39472268  0.39558483  0.19168951  1
  Nb  Nb128  1  0.20144933  -0.00447081  -0.00205854  1
  Nb  Nb129  1  0.79638288  0.80014764  0.19987141  1
  Nb  Nb130  1  0.61195101  0.39822060  0.39951942  1
  Nb  Nb131  1  0.80150604  0.40461547  0.80690737  1
  Nb  Nb132  1  0.80006854  0.00289860  0.40322247  1
  Nb  Nb133  1  0.79837551  0.40989847  0.00157489  1
  Nb  Nb134  1  0.80523498  0.80009947  0.39598615  1
  Nb  Nb135  1  0.20574612  0.59933979  0.59909384  1
  Nb  Nb136  1  0.38945714  0.79794735  0.40108601  1
  Nb  Nb137  1  0.60517155  0.79995737  0.19286117  1
  Nb  Nb138  1  0.20326388  0.60044120  0.40711098  1
  Nb  Nb139  1  0.39353532  0.40096515  0.00172409  1
  Nb  Nb140  1  0.60567524  0.58791303  0.40269072  1
  Nb  Nb141  1  0.60488036  0.79806335  0.60931654  1
  Nb  Nb142  1  0.00130591  0.00314754  0.79957499  1
  Nb  Nb143  1  0.19834211  0.40357735  0.60056875  1
  Nb  Nb144  1  0.20664390  0.39818914  0.19452800  1
  Nb  Nb145  1  0.39857994  0.79860209  -0.00136897  1
  Nb  Nb146  1  0.20079610  0.79380790  0.39810642  1
  Nb  Nb147  1  -0.00258735  0.79814917  0.39817030  1
  Nb  Nb148  1  0.79258636  0.00308323  0.59786704  1
  Nb  Nb149  1  0.20293665  0.79986597  0.20353489  1
  Pd  Pd150  1  0.19772997  0.59660582  0.20781858  1
  Pd  Pd151  1  0.01032124  0.39393692  0.19081401  1
  Pd  Pd152  1  0.80099535  0.80796913  0.80181078  1
  Pd  Pd153  1  0.39564170  0.00664357  0.60043017  1
  Pd  Pd154  1  0.60289962  0.39050691  0.58972851  1
  Pd  Pd155  1  0.60324492  0.20260663  0.80493892  1
  Pd  Pd156  1  0.79735602  0.60005989  0.39587375  1
  Pd  Pd157  1  0.00220267  0.60141243  0.60491479  1
  Pd  Pd158  1  0.39281996  -0.00188720  0.40870232  1
  Pd  Pd159  1  0.79738848  0.59942943  0.80670450  1
  Pd  Pd160  1  0.40360769  0.59678023  0.59342796  1
  Pd  Pd161  1  0.60253490  0.79076655  0.40022780  1
  Pd  Pd162  1  0.79087299  0.81033877  0.59280076  1
  Pd  Pd163  1  0.39169464  0.39198546  0.61062247  1
  Pd  Pd164  1  0.20401264  0.20535728  0.40848076  1
  Pd  Pd165  1  0.79372368  0.19164870  0.19407113  1
  Pd  Pd166  1  0.79776937  0.39859833  0.19665888  1
  Pd  Pd167  1  0.80485493  -0.00905520  0.80003422  1
  Pd  Pd168  1  0.39696010  0.19744305  0.20412304  1
  Pd  Pd169  1  0.40422976  0.60049400  0.40675748  1
  Pd  Pd170  1  0.59978497  0.00031263  0.19972869  1
  Pd  Pd171  1  -0.00898075  0.39126844  0.40026938  1
  Pd  Pd172  1  0.60595330  0.18943834  0.20407321  1
  Pd  Pd173  1  -0.00021569  0.19863216  0.60432568  1
  Pd  Pd174  1  0.80291853  0.39817901  0.38572289  1
  Pd  Pd175  1  0.40024680  0.59286108  0.80916879  1
  Pd  Pd176  1  0.20667877  0.39701505  0.79453089  1
  Pd  Pd177  1  0.79669898  0.00097054  -0.00553131  1
  Pd  Pd178  1  0.00286646  0.19754416  0.19290890  1
  Pd  Pd179  1  0.20825098  -0.00778558  0.41354104  1
  Pd  Pd180  1  0.79622321  -0.00062249  0.20451794  1
  Pd  Pd181  1  0.59262736  0.60114791  0.59250816  1
  Pd  Pd182  1  0.59673378  0.80425883  0.79640197  1
  Pd  Pd183  1  0.80473951  0.59413253  0.60206548  1
  Pd  Pd184  1  0.40146275  0.01360494  0.19785754  1
  Pd  Pd185  1  -0.00942040  0.01489179  0.61043342  1
  Pd  Pd186  1  0.00737805  0.00717783  -0.00972207  1
  Pd  Pd187  1  -0.01135420  0.20919390  0.39930705  1
  Pd  Pd188  1  0.19202865  0.79220296  0.60258000  1
  Pd  Pd189  1  0.19670502  0.39487356  0.40220369  1
  Pd  Pd190  1  -0.00698833  0.39363743  -0.00268656  1
  Pd  Pd191  1  0.60689656  0.60069138  -0.00124065  1
  Pd  Pd192  1  0.40415786  0.58789485  0.19949283  1
  Pd  Pd193  1  -0.00926193  0.39640717  0.80838466  1
  Pd  Pd194  1  -0.00784403  0.00170675  0.40152623  1
  Pd  Pd195  1  0.20272126  0.39908332  -0.00232059  1
  Pd  Pd196  1  0.81168554  0.19849624  0.39261170  1
  Pd  Pd197  1  0.60432545  0.20637727  0.59847192  1
  Pd  Pd198  1  0.39850035  0.19876418  0.60057827  1
  Pd  Pd199  1  0.20120367  0.79624974  0.78553364  1
  Rh  Rh200  1  0.40156169  0.80361818  0.80129922  1
  Rh  Rh201  1  0.20532623  0.20474072  0.20072037  1
  Rh  Rh202  1  0.80372457  0.60317155  0.19723069  1
  Rh  Rh203  1  0.20676701  0.80197750  0.01203350  1
  Rh  Rh204  1  0.60135734  0.00332787  0.80714928  1
  Rh  Rh205  1  0.00356543  0.79845878  0.20436291  1
  Rh  Rh206  1  0.41099026  0.80250184  0.59781646  1
  Rh  Rh207  1  0.00207519  0.59720733  0.20198436  1
  Rh  Rh208  1  -0.00682805  0.60578064  0.80164712  1
  Rh  Rh209  1  -0.00637386  0.60611150  -0.00395973  1
  Rh  Rh210  1  -0.00335282  0.79476382  -0.00474940  1
  Rh  Rh211  1  -0.00326474  0.80761270  0.79901126  1
  Rh  Rh212  1  0.00188912  0.40221125  0.60019242  1
  Rh  Rh213  1  0.19283586  0.00484249  0.80288127  1
  Rh  Rh214  1  0.60725745  0.00308227  -0.00564329  1
  Rh  Rh215  1  0.59632637  0.39496518  0.20708435  1
  Rh  Rh216  1  0.39750168  0.59893465  -0.00633008  1
  Rh  Rh217  1  0.60244588  0.20381703  0.39889926  1
  Rh  Rh218  1  0.79100244  0.21236350  0.80320807  1
  Rh  Rh219  1  0.40311493  0.20333067  0.80274461  1
  Rh  Rh220  1  0.19717152  0.60947825  0.79044723  1
  Rh  Rh221  1  0.40357515  0.00422420  0.79643824  1
  Rh  Rh222  1  0.00598393  0.19551396  0.79706481  1
  Rh  Rh223  1  0.00200643  0.60410894  0.39683818  1
  Rh  Rh224  1  0.19545074  0.60366953  -0.00517897  1
  Rh  Rh225  1  0.60257965  0.60978871  0.80288962  1
  Rh  Rh226  1  0.39933803  0.19013691  0.39803600  1
  Rh  Rh227  1  0.40179452  0.20592052  -0.00575650  1
  Rh  Rh228  1  0.80149438  0.40553036  0.61270375  1
  Rh  Rh229  1  0.60511453  -0.00316831  0.59789704  1
  Rh  Rh230  1  0.20170175  0.19099847  -0.00098852  1
  Rh  Rh231  1  0.79137134  0.20226696  0.00729969  1
  Rh  Rh232  1  0.59793783  0.60494825  0.20475771  1
  Rh  Rh233  1  0.00098177  0.19623318  0.00155761  1
  Rh  Rh234  1  0.00137488  0.00957027  0.19679187  1
  Rh  Rh235  1  0.80461334  0.79383902  0.00561911  1
  Rh  Rh236  1  0.41309595  0.39263608  0.39056560  1
  Rh  Rh237  1  0.60884009  0.18984859  -0.00047625  1
  Rh  Rh238  1  0.20618881  0.00959109  0.60281977  1
  Rh  Rh239  1  0.60253734  0.00431511  0.39973764  1
  Rh  Rh240  1  0.58927225  0.80552397  0.00665234  1
  Rh  Rh241  1  0.20394946  -0.00328274  0.18911749  1
  Rh  Rh242  1  0.60350368  0.40269980  0.00274521  1
  Rh  Rh243  1  0.39399670  -0.00379358  -0.00386601  1
  Rh  Rh244  1  0.59946941  0.39562883  0.80271840  1
  Rh  Rh245  1  0.20119816  0.20851287  0.59759210  1
  Rh  Rh246  1  0.79289307  0.19618192  0.60498042  1
  Rh  Rh247  1  0.00292187  0.79616848  0.59645064  1
  Rh  Rh248  1  0.40312313  0.79809513  0.19775740  1
  Rh  Rh249  1  0.19627426  0.20008095  0.79611320  1
