# generated using pymatgen
data_ZrScNbPdRh
_symmetry_space_group_name_H-M   'P 1'
_cell_length_a   16.56256164
_cell_length_b   16.56156028
_cell_length_c   16.55772824
_cell_angle_alpha   90.00081893
_cell_angle_beta   89.99876480
_cell_angle_gamma   90.01084511
_symmetry_Int_Tables_number   1
_chemical_formula_structural   ZrScNbPdRh
_chemical_formula_sum   'Zr50 Sc50 Nb50 Pd50 Rh50'
_cell_volume   4541.81562187
_cell_formula_units_Z   50
loop_
 _symmetry_equiv_pos_site_id
 _symmetry_equiv_pos_as_xyz
  1  'x, y, z'
loop_
 _atom_site_type_symbol
 _atom_site_label
 _atom_site_symmetry_multiplicity
 _atom_site_fract_x
 _atom_site_fract_y
 _atom_site_fract_z
 _atom_site_occupancy
  Zr  Zr0  1  0.49642227  0.50088043  0.50383168  1
  Zr  Zr1  1  0.70545743  0.69087411  0.90578267  1
  Zr  Zr2  1  0.30117002  0.70166682  0.49945488  1
  Zr  Zr3  1  0.89712275  0.49189361  0.89978634  1
  Zr  Zr4  1  0.49067580  0.90197525  0.90356400  1
  Zr  Zr5  1  0.50757316  0.29470210  0.29902287  1
  Zr  Zr6  1  0.10089199  0.29971062  0.09830439  1
  Zr  Zr7  1  0.70587439  0.29566558  0.90150850  1
  Zr  Zr8  1  0.48705141  0.10186303  0.29928469  1
  Zr  Zr9  1  0.69248108  0.10522824  0.50244535  1
  Zr  Zr10  1  0.90541790  0.69357935  0.29736313  1
  Zr  Zr11  1  0.29618878  0.89382814  0.89390204  1
  Zr  Zr12  1  0.50416139  0.70959280  0.09615922  1
  Zr  Zr13  1  0.10000011  0.30940541  0.50478502  1
  Zr  Zr14  1  0.90593248  0.90537624  0.70648526  1
  Zr  Zr15  1  0.10515789  0.68355568  0.69514711  1
  Zr  Zr16  1  0.70659174  0.69405198  0.69666811  1
  Zr  Zr17  1  0.30327480  0.70552032  0.29776387  1
  Zr  Zr18  1  0.90055607  0.49937421  0.29382759  1
  Zr  Zr19  1  0.70131160  0.49229084  0.30025392  1
  Zr  Zr20  1  0.90437779  0.69243404  0.09832096  1
  Zr  Zr21  1  0.69694003  0.29991346  0.30191262  1
  Zr  Zr22  1  0.10273210  0.50067657  0.51122043  1
  Zr  Zr23  1  0.49410758  0.30375081  0.90139981  1
  Zr  Zr24  1  0.69748747  0.90356230  0.10101512  1
  Zr  Zr25  1  0.29952490  0.49888568  0.10358998  1
  Zr  Zr26  1  0.29948296  0.90173056  0.70710121  1
  Zr  Zr27  1  0.29652996  0.48842571  0.49550909  1
  Zr  Zr28  1  0.10711444  0.89628244  0.49256036  1
  Zr  Zr29  1  0.69779011  0.70070390  0.09901989  1
  Zr  Zr30  1  0.10238732  0.70282493  0.30125540  1
  Zr  Zr31  1  0.29775305  0.30147822  0.50586962  1
  Zr  Zr32  1  0.89690558  0.49384095  0.50737278  1
  Zr  Zr33  1  0.30639983  0.10273914  0.10896486  1
  Zr  Zr34  1  0.10684146  0.70248374  0.89921647  1
  Zr  Zr35  1  0.10336222  0.90086900  0.90291562  1
  Zr  Zr36  1  0.10433096  0.29608922  0.90205319  1
  Zr  Zr37  1  0.10742892  0.09762524  0.29300325  1
  Zr  Zr38  1  0.28973545  0.91174874  0.29758670  1
  Zr  Zr39  1  0.91291069  0.90305304  0.90256505  1
  Zr  Zr40  1  0.89713545  0.10341731  0.29954249  1
  Zr  Zr41  1  0.10787628  0.10960644  0.09788219  1
  Zr  Zr42  1  0.09319725  0.30112390  0.28866763  1
  Zr  Zr43  1  0.69462089  0.90166450  0.69489007  1
  Zr  Zr44  1  0.89250579  0.10069368  0.88810793  1
  Zr  Zr45  1  0.90308363  0.90469371  0.30202638  1
  Zr  Zr46  1  0.50008952  0.70417776  0.49866835  1
  Zr  Zr47  1  0.90067957  0.10897373  0.50319530  1
  Zr  Zr48  1  0.49367100  0.28919418  0.09912774  1
  Zr  Zr49  1  0.90854406  0.69604147  0.89926195  1
  Sc  Sc50  1  0.89714541  0.09782530  0.09658804  1
  Sc  Sc51  1  0.68938259  0.69726666  0.50402538  1
  Sc  Sc52  1  0.50721864  0.89929632  0.50185285  1
  Sc  Sc53  1  0.10072747  0.49411325  0.89817231  1
  Sc  Sc54  1  0.90254700  0.30308053  0.89440578  1
  Sc  Sc55  1  0.29936039  0.49429852  0.89723450  1
  Sc  Sc56  1  0.91501198  0.90282418  0.50235428  1
  Sc  Sc57  1  0.10435760  0.09654415  0.51262515  1
  Sc  Sc58  1  0.69096162  0.70523341  0.30170371  1
  Sc  Sc59  1  0.70368244  0.30235529  0.49623376  1
  Sc  Sc60  1  0.30182778  0.31378258  0.30383273  1
  Sc  Sc61  1  0.29523532  0.09303202  0.90091201  1
  Sc  Sc62  1  0.09994373  0.49387603  0.09870919  1
  Sc  Sc63  1  0.90038696  0.29882795  0.70048747  1
  Sc  Sc64  1  0.29236040  0.49862587  0.70429572  1
  Sc  Sc65  1  0.49647914  0.70380562  0.90188796  1
  Sc  Sc66  1  0.49690197  0.90308912  0.30190853  1
  Sc  Sc67  1  0.90384689  0.49828359  0.09844515  1
  Sc  Sc68  1  0.90358420  0.68690869  0.70122240  1
  Sc  Sc69  1  0.68773336  0.10891274  0.30685306  1
  Sc  Sc70  1  0.30062773  0.29881717  0.09282902  1
  Sc  Sc71  1  0.49793484  0.89864063  0.70232635  1
  Sc  Sc72  1  0.89594635  0.49348265  0.70244837  1
  Sc  Sc73  1  0.89361012  0.30394485  0.30288295  1
  Sc  Sc74  1  0.29476384  0.90602539  0.09082051  1
  Sc  Sc75  1  0.49546850  0.49121562  0.09632389  1
  Sc  Sc76  1  0.50106593  0.70281235  0.30444128  1
  Sc  Sc77  1  0.10356277  0.90814580  0.70353423  1
  Sc  Sc78  1  0.29763250  0.10174791  0.49718350  1
  Sc  Sc79  1  0.70702325  0.49117071  0.90244143  1
  Sc  Sc80  1  0.70129509  0.91734017  0.89981420  1
  Sc  Sc81  1  0.50995627  0.10724161  0.70003093  1
  Sc  Sc82  1  0.69115840  0.89937596  0.29925925  1
  Sc  Sc83  1  0.10110418  0.29491522  0.70185493  1
  Sc  Sc84  1  0.30159640  0.90476372  0.49454650  1
  Sc  Sc85  1  0.49922946  0.48904465  0.70383010  1
  Sc  Sc86  1  0.10026403  0.10071775  0.89910602  1
  Sc  Sc87  1  0.70918283  0.49713454  0.09229277  1
  Sc  Sc88  1  0.90666740  0.30057599  0.09731524  1
  Sc  Sc89  1  0.49298885  0.49529827  0.30150889  1
  Sc  Sc90  1  0.91756239  0.69596893  0.50525473  1
  Sc  Sc91  1  0.69871702  0.10717011  0.71144854  1
  Sc  Sc92  1  0.10610944  0.69835045  0.08918866  1
  Sc  Sc93  1  0.49377279  0.49254743  0.89711137  1
  Sc  Sc94  1  0.89470222  0.30138105  0.50567817  1
  Sc  Sc95  1  0.49249697  0.30145102  0.50741245  1
  Sc  Sc96  1  0.69876502  0.49924204  0.51155922  1
  Sc  Sc97  1  0.69424592  0.30174689  0.70463768  1
  Sc  Sc98  1  0.49632494  0.70694590  0.69931548  1
  Sc  Sc99  1  0.09590160  0.49306791  0.29553573  1
  Nb  Nb100  1  0.10587805  0.69557992  0.50171624  1
  Nb  Nb101  1  0.10731282  0.10291866  0.70003536  1
  Nb  Nb102  1  0.29980633  0.70118035  0.70800427  1
  Nb  Nb103  1  0.69693276  0.10713346  0.90315277  1
  Nb  Nb104  1  0.69499578  0.10378667  0.09158140  1
  Nb  Nb105  1  0.29872187  0.09570020  0.30154212  1
  Nb  Nb106  1  0.10443708  0.90016963  0.29521345  1
  Nb  Nb107  1  0.90941426  0.10333047  0.69619347  1
  Nb  Nb108  1  0.70803826  0.50503702  0.70099004  1
  Nb  Nb109  1  0.30293916  0.29475445  0.89642657  1
  Nb  Nb110  1  0.09832883  0.49100492  0.69539466  1
  Nb  Nb111  1  0.49367531  0.29804928  0.71018408  1
  Nb  Nb112  1  0.49737889  0.90080967  0.10031434  1
  Nb  Nb113  1  0.28601604  0.10043204  0.69436444  1
  Nb  Nb114  1  0.30053378  0.69922816  0.09380881  1
  Nb  Nb115  1  0.70294331  0.89956777  0.50182593  1
  Nb  Nb116  1  0.50131756  0.10324765  0.90262458  1
  Nb  Nb117  1  0.49496574  0.10126627  0.10087430  1
  Nb  Nb118  1  0.29767009  0.70151600  0.89961302  1
  Nb  Nb119  1  0.90077582  0.90107763  0.10123046  1
  Nb  Nb120  1  0.69473041  0.29406917  0.10052738  1
  Nb  Nb121  1  0.49564909  0.10006179  0.49637436  1
  Nb  Nb122  1  0.09719558  0.90238819  0.09393745  1
  Nb  Nb123  1  0.29966115  0.28761018  0.70253181  1
  Nb  Nb124  1  0.29790572  0.50307467  0.30047382  1
  Nb  Nb125  1  0.39302770  0.60525492  0.00002549  1
  Nb  Nb126  1  0.00360868  0.80654823  0.19552628  1
  Nb  Nb127  1  0.59344877  0.00860629  0.18934578  1
  Nb  Nb128  1  0.40061592  0.00848645  0.60169189  1
  Nb  Nb129  1  0.20075367  0.59732756  0.39778900  1
  Nb  Nb130  1  0.39368870  0.60216467  0.60295134  1
  Nb  Nb131  1  0.79618331  -0.00190430  0.40861653  1
  Nb  Nb132  1  0.60488463  0.59899418  0.79916828  1
  Nb  Nb133  1  0.80387481  0.80489849  0.59879178  1
  Nb  Nb134  1  0.20691712  0.60059498  0.20271197  1
  Nb  Nb135  1  0.80672237  0.80330528  0.19907174  1
  Nb  Nb136  1  0.00671661  0.20081689  0.40062697  1
  Nb  Nb137  1  0.80077248  0.80160980  0.80163476  1
  Nb  Nb138  1  0.80176116  0.00178222  0.59925418  1
  Nb  Nb139  1  0.59834486  0.59799948  0.19589740  1
  Nb  Nb140  1  0.78839810  0.19943326  0.19324860  1
  Nb  Nb141  1  0.39704754  0.80420930  0.19173470  1
  Nb  Nb142  1  0.80153083  0.60268432  0.40077203  1
  Nb  Nb143  1  0.39747756  0.19746631  0.79813563  1
  Nb  Nb144  1  0.19572570  0.20282395  0.39622532  1
  Nb  Nb145  1  0.80644018  0.80439760  0.00044616  1
  Nb  Nb146  1  0.80242635  0.80074621  0.40460254  1
  Nb  Nb147  1  0.00640970  -0.00488579  0.19611426  1
  Nb  Nb148  1  0.60903464  0.79661634  0.80289640  1
  Nb  Nb149  1  0.20167653  0.79292986  0.60300305  1
  Pd  Pd150  1  0.58845011  0.58844872  -0.00267925  1
  Pd  Pd151  1  0.39897064  0.81069528  0.39384664  1
  Pd  Pd152  1  0.00511789  0.00901718  0.39680951  1
  Pd  Pd153  1  0.80340893  0.00031402  -0.00232474  1
  Pd  Pd154  1  0.59921237  -0.00093167  0.39454889  1
  Pd  Pd155  1  0.40496812  0.60727280  0.19333778  1
  Pd  Pd156  1  0.40159107  0.19168625  0.60614424  1
  Pd  Pd157  1  0.79013733  0.00451376  0.20817461  1
  Pd  Pd158  1  0.79426684  0.19973329  0.60957783  1
  Pd  Pd159  1  0.39635427  0.59673828  0.40541793  1
  Pd  Pd160  1  -0.00352250  0.39648159  0.40092604  1
  Pd  Pd161  1  0.60852152  0.80980681  -0.01188709  1
  Pd  Pd162  1  0.59383886  0.00225357  0.00060785  1
  Pd  Pd163  1  0.59492341  0.20322154  -0.00432084  1
  Pd  Pd164  1  0.39351312  0.80579676  0.60146402  1
  Pd  Pd165  1  0.80796675  0.20364016  0.00330520  1
  Pd  Pd166  1  0.59596622  0.00497797  0.60001237  1
  Pd  Pd167  1  0.59563254  0.40046193  0.40975116  1
  Pd  Pd168  1  0.59727896  0.20955881  0.59772019  1
  Pd  Pd169  1  0.80209438  0.39006015  0.19194145  1
  Pd  Pd170  1  0.39083170  0.20515978  0.39769020  1
  Pd  Pd171  1  0.58667963  0.59782912  0.61166042  1
  Pd  Pd172  1  -0.00744371  0.19654046  -0.00522110  1
  Pd  Pd173  1  0.00386615  0.59000012  0.40362452  1
  Pd  Pd174  1  0.00250078  0.00142895  0.60296320  1
  Pd  Pd175  1  0.79787940  0.00183345  0.79317209  1
  Pd  Pd176  1  0.00490346  0.79544952  0.79055465  1
  Pd  Pd177  1  0.19838090  0.59372196  0.80618836  1
  Pd  Pd178  1  0.40433744  0.01327825  0.79128299  1
  Pd  Pd179  1  0.00750205  0.59025778  -0.00112899  1
  Pd  Pd180  1  0.19971662  0.39403985  0.79661155  1
  Pd  Pd181  1  0.59340372  -0.00128905  0.80271991  1
  Pd  Pd182  1  0.00097460  0.01122197  0.00242676  1
  Pd  Pd183  1  0.20087230  0.79922789  0.18746539  1
  Pd  Pd184  1  0.60214637  0.39461805  0.60315386  1
  Pd  Pd185  1  0.39317969  0.40519675  0.61115357  1
  Pd  Pd186  1  0.78794973  0.60570628  0.20636774  1
  Pd  Pd187  1  0.00416607  0.58715206  0.79803874  1
  Pd  Pd188  1  0.21445226  0.21193632  0.20746307  1
  Pd  Pd189  1  0.60641767  0.40492963  0.80155485  1
  Pd  Pd190  1  0.00011105  0.79891777  0.39741996  1
  Pd  Pd191  1  0.60440424  0.59385584  0.39329542  1
  Pd  Pd192  1  0.60053758  0.39865815  0.00171989  1
  Pd  Pd193  1  0.00744470  0.79807392  0.60815991  1
  Pd  Pd194  1  0.40097676  0.39372020  0.20113891  1
  Pd  Pd195  1  0.00261751  0.20017249  0.79866337  1
  Pd  Pd196  1  0.39495407  0.00330274  -0.00020326  1
  Pd  Pd197  1  0.59940058  0.40563882  0.19137918  1
  Pd  Pd198  1  0.40642990  0.60210052  0.79976199  1
  Pd  Pd199  1  0.20417029  0.39901155  -0.00237119  1
  Rh  Rh200  1  0.60169533  0.19215259  0.19496860  1
  Rh  Rh201  1  -0.01289924  0.19543917  0.20222159  1
  Rh  Rh202  1  0.80089527  0.20036584  0.79665569  1
  Rh  Rh203  1  0.40124718  0.00090093  0.40830608  1
  Rh  Rh204  1  0.00874649  0.01119494  0.79844552  1
  Rh  Rh205  1  0.60262227  0.80411792  0.40344720  1
  Rh  Rh206  1  0.00440121  0.39769596  0.79741272  1
  Rh  Rh207  1  -0.00156061  0.79715593  0.00433706  1
  Rh  Rh208  1  -0.00402428  0.39730318  0.60852009  1
  Rh  Rh209  1  0.60310574  0.79731658  0.60357692  1
  Rh  Rh210  1  0.19542852  0.20475606  0.59247017  1
  Rh  Rh211  1  0.79926834  0.59660639  0.80606402  1
  Rh  Rh212  1  0.20151410  0.40237435  0.19882051  1
  Rh  Rh213  1  0.20712297  0.19895949  -0.00375486  1
  Rh  Rh214  1  0.19475446  0.00414549  0.80226464  1
  Rh  Rh215  1  0.20814038  -0.01025463  0.59926989  1
  Rh  Rh216  1  0.59210173  0.80477671  0.20485302  1
  Rh  Rh217  1  0.39323025  0.40461661  -0.00141036  1
  Rh  Rh218  1  -0.00233248  0.58954915  0.60464608  1
  Rh  Rh219  1  0.59349136  0.20343522  0.81035818  1
  Rh  Rh220  1  -0.00597971  0.39980663  0.19423248  1
  Rh  Rh221  1  0.79339494  0.39564702  0.60676383  1
  Rh  Rh222  1  0.39231093  0.79879512  0.00151382  1
  Rh  Rh223  1  0.20025497  0.00347798  0.00091850  1
  Rh  Rh224  1  0.21036440  0.60169520  0.59550507  1
  Rh  Rh225  1  0.40721161  0.39598151  0.39801574  1
  Rh  Rh226  1  0.79953167  0.40900549  0.40428997  1
  Rh  Rh227  1  0.80292535  0.39141650  0.00322508  1
  Rh  Rh228  1  0.20047594  0.79436994  0.40556985  1
  Rh  Rh229  1  0.80372954  0.19836494  0.39361175  1
  Rh  Rh230  1  0.00644395  0.20386377  0.59817574  1
  Rh  Rh231  1  0.20217069  0.80286238  -0.00080678  1
  Rh  Rh232  1  0.58991665  0.20627524  0.41189040  1
  Rh  Rh233  1  0.40283394  -0.00623487  0.19820720  1
  Rh  Rh234  1  0.19577852  0.00978550  0.40407223  1
  Rh  Rh235  1  0.80894720  0.59793275  -0.00241812  1
  Rh  Rh236  1  0.20476893  0.19613183  0.80437451  1
  Rh  Rh237  1  0.39406292  0.20678376  0.20777679  1
  Rh  Rh238  1  0.01705725  0.60404632  0.19112147  1
  Rh  Rh239  1  0.39602545  0.19290327  -0.01005587  1
  Rh  Rh240  1  0.20448237  0.39259630  0.61386088  1
  Rh  Rh241  1  0.19242392  0.40092981  0.39272534  1
  Rh  Rh242  1  0.80723290  0.60645992  0.58887086  1
  Rh  Rh243  1  0.19596649  -0.00052622  0.18857572  1
  Rh  Rh244  1  0.19311226  0.79638824  0.79280950  1
  Rh  Rh245  1  0.79707819  0.39619605  0.79615248  1
  Rh  Rh246  1  0.20693754  0.59441741  -0.00001067  1
  Rh  Rh247  1  0.38996052  0.39137989  0.79579899  1
  Rh  Rh248  1  0.00270763  0.39697968  -0.00375930  1
  Rh  Rh249  1  0.40652688  0.79631801  0.80437735  1
