# generated using pymatgen
data_ZrScNbPdRh
_symmetry_space_group_name_H-M   'P 1'
_cell_length_a   16.55443963
_cell_length_b   16.55427554
_cell_length_c   16.55684305
_cell_angle_alpha   89.99528841
_cell_angle_beta   89.97329053
_cell_angle_gamma   89.98711530
_symmetry_Int_Tables_number   1
_chemical_formula_structural   ZrScNbPdRh
_chemical_formula_sum   'Zr50 Sc50 Nb50 Pd50 Rh50'
_cell_volume   4537.34848891
_cell_formula_units_Z   50
loop_
 _symmetry_equiv_pos_site_id
 _symmetry_equiv_pos_as_xyz
  1  'x, y, z'
loop_
 _atom_site_type_symbol
 _atom_site_label
 _atom_site_symmetry_multiplicity
 _atom_site_fract_x
 _atom_site_fract_y
 _atom_site_fract_z
 _atom_site_occupancy
  Zr  Zr0  1  0.49026653  0.89539393  0.30675212  1
  Zr  Zr1  1  0.69662228  0.30448935  0.69896545  1
  Zr  Zr2  1  0.29952981  0.29767507  0.69576141  1
  Zr  Zr3  1  0.09658475  0.09723157  0.89762345  1
  Zr  Zr4  1  0.69617370  0.49629691  0.49599175  1
  Zr  Zr5  1  0.30018529  0.09902491  0.49333150  1
  Zr  Zr6  1  0.09704233  0.09476379  0.70131066  1
  Zr  Zr7  1  0.48873519  0.69977535  0.70001530  1
  Zr  Zr8  1  0.09837072  0.30047944  0.50063011  1
  Zr  Zr9  1  0.09743263  0.89261884  0.90120070  1
  Zr  Zr10  1  0.29149885  0.09906050  0.89236383  1
  Zr  Zr11  1  0.29786472  0.50230613  0.90688606  1
  Zr  Zr12  1  0.10612528  0.09240876  0.49618760  1
  Zr  Zr13  1  0.10181736  0.89658998  0.30579460  1
  Zr  Zr14  1  0.49720274  0.29672252  0.29960819  1
  Zr  Zr15  1  0.70785817  0.29924996  0.10025057  1
  Zr  Zr16  1  0.49883869  0.10240792  0.30150499  1
  Zr  Zr17  1  0.50628128  0.10318943  0.10062171  1
  Zr  Zr18  1  0.10193652  0.49870698  0.89981023  1
  Zr  Zr19  1  0.29264440  0.30490307  0.90163645  1
  Zr  Zr20  1  0.70782594  0.69583194  0.70515918  1
  Zr  Zr21  1  0.89950979  0.50169390  0.50098293  1
  Zr  Zr22  1  0.09941793  0.70310829  0.70263898  1
  Zr  Zr23  1  0.49739601  0.50211712  0.89975126  1
  Zr  Zr24  1  0.10093144  0.90156021  0.49878335  1
  Zr  Zr25  1  0.89521988  0.28829616  0.70127818  1
  Zr  Zr26  1  0.90231778  0.49859282  0.89360314  1
  Zr  Zr27  1  0.49364269  0.89882374  0.89574828  1
  Zr  Zr28  1  0.29595040  0.70116970  0.70037486  1
  Zr  Zr29  1  0.49712669  0.70576385  0.30172981  1
  Zr  Zr30  1  0.49998143  0.50446648  0.09842802  1
  Zr  Zr31  1  0.70671852  0.09529746  0.69128429  1
  Zr  Zr32  1  0.70329228  0.90302758  0.50710338  1
  Zr  Zr33  1  0.90400248  0.09961626  0.89183543  1
  Zr  Zr34  1  0.49478387  0.30582913  0.10453000  1
  Zr  Zr35  1  0.70419039  0.90289116  0.09468443  1
  Zr  Zr36  1  0.10277320  0.30544740  0.69808962  1
  Zr  Zr37  1  0.90212866  0.69780264  0.69081893  1
  Zr  Zr38  1  0.70451656  0.70078930  0.09769821  1
  Zr  Zr39  1  0.89803472  0.29618292  0.89969478  1
  Zr  Zr40  1  0.10450566  0.69454971  0.29853869  1
  Zr  Zr41  1  0.49122142  0.90021902  0.50248949  1
  Zr  Zr42  1  0.10367494  0.49796972  0.50586977  1
  Zr  Zr43  1  0.09902420  0.29807177  0.89074705  1
  Zr  Zr44  1  0.90157897  0.89914097  0.09280712  1
  Zr  Zr45  1  0.30358018  0.49027120  0.09942423  1
  Zr  Zr46  1  0.10692095  0.50607473  0.10500643  1
  Zr  Zr47  1  0.90127841  0.49997098  0.30049365  1
  Zr  Zr48  1  0.49171780  0.69711092  0.89974559  1
  Zr  Zr49  1  0.09449964  0.50484802  0.70101482  1
  Sc  Sc50  1  0.89449951  0.10418934  0.09520983  1
  Sc  Sc51  1  0.89941853  0.70235135  0.90382254  1
  Sc  Sc52  1  0.30457911  0.90724193  0.70599337  1
  Sc  Sc53  1  0.90185945  0.90500991  0.90125993  1
  Sc  Sc54  1  0.70585772  0.49581439  0.30522387  1
  Sc  Sc55  1  0.90163230  0.89449847  0.50060781  1
  Sc  Sc56  1  0.70912945  0.89766633  0.70521296  1
  Sc  Sc57  1  0.50051133  0.09754410  0.49701685  1
  Sc  Sc58  1  0.69845966  0.50555614  0.11022670  1
  Sc  Sc59  1  0.51099504  0.29926974  0.89417899  1
  Sc  Sc60  1  0.29848999  0.88989210  0.30441688  1
  Sc  Sc61  1  0.90081777  0.30361095  0.50429119  1
  Sc  Sc62  1  0.50140870  0.90349727  0.09919002  1
  Sc  Sc63  1  0.11353961  0.10017449  0.29978237  1
  Sc  Sc64  1  0.69822508  0.09742205  0.09930291  1
  Sc  Sc65  1  0.29570678  0.50305624  0.68702758  1
  Sc  Sc66  1  0.70532350  0.69965807  0.50347656  1
  Sc  Sc67  1  0.69663569  0.09502055  0.30336657  1
  Sc  Sc68  1  0.70285571  0.90131164  0.30413211  1
  Sc  Sc69  1  0.10347036  0.69902814  0.09444020  1
  Sc  Sc70  1  0.09711851  0.10308418  0.10345265  1
  Sc  Sc71  1  0.89125499  0.30675901  0.29466905  1
  Sc  Sc72  1  0.49233410  0.70382130  0.50043288  1
  Sc  Sc73  1  0.69898898  0.30666026  0.30440699  1
  Sc  Sc74  1  0.09466030  0.69951213  0.50045057  1
  Sc  Sc75  1  0.90926596  0.51025137  0.09126094  1
  Sc  Sc76  1  0.49644317  0.09706849  0.69053639  1
  Sc  Sc77  1  0.69789536  0.69757850  0.30600816  1
  Sc  Sc78  1  0.69749564  0.09977474  0.90635881  1
  Sc  Sc79  1  0.89273530  0.90052194  0.31032404  1
  Sc  Sc80  1  0.10565620  0.29753661  0.09894279  1
  Sc  Sc81  1  0.29155040  0.10808811  0.10808532  1
  Sc  Sc82  1  0.89588629  0.09164686  0.51150539  1
  Sc  Sc83  1  0.49837540  0.30251560  0.49795453  1
  Sc  Sc84  1  0.10178311  0.50624184  0.30099145  1
  Sc  Sc85  1  0.29439035  0.09678338  0.69694269  1
  Sc  Sc86  1  0.89903915  0.29587995  0.10341807  1
  Sc  Sc87  1  0.50680609  0.29927501  0.69267850  1
  Sc  Sc88  1  0.69324230  0.29584745  0.50106339  1
  Sc  Sc89  1  0.51328686  0.49722305  0.30063888  1
  Sc  Sc90  1  0.29691584  0.88781139  0.10685496  1
  Sc  Sc91  1  0.70044725  0.29979580  0.88883516  1
  Sc  Sc92  1  0.70323358  0.50627186  0.88224511  1
  Sc  Sc93  1  0.90266755  0.70488520  0.09152273  1
  Sc  Sc94  1  0.69747150  0.09550588  0.50163366  1
  Sc  Sc95  1  0.10576941  0.29566765  0.29637978  1
  Sc  Sc96  1  0.29262440  0.49590490  0.28951187  1
  Sc  Sc97  1  0.29885355  0.69470227  0.50708162  1
  Sc  Sc98  1  0.90199207  0.89977783  0.70165502  1
  Sc  Sc99  1  0.90181670  0.70364756  0.50213295  1
  Nb  Nb100  1  0.69919364  0.49990423  0.69819828  1
  Nb  Nb101  1  0.88711059  0.50985664  0.70247634  1
  Nb  Nb102  1  0.49984762  0.09882536  0.90443350  1
  Nb  Nb103  1  0.30454453  0.69966831  0.29532866  1
  Nb  Nb104  1  0.50651907  0.69692653  0.10167997  1
  Nb  Nb105  1  0.90005630  0.10084870  0.30258977  1
  Nb  Nb106  1  0.30757421  0.30668363  0.10835302  1
  Nb  Nb107  1  0.69867389  0.70902402  0.90036392  1
  Nb  Nb108  1  0.09310257  0.90418316  0.09976366  1
  Nb  Nb109  1  0.10322709  0.89950741  0.69992654  1
  Nb  Nb110  1  0.69627393  0.89919310  0.89868670  1
  Nb  Nb111  1  0.49595772  0.49899013  0.50430744  1
  Nb  Nb112  1  0.30090303  0.30066128  0.49773611  1
  Nb  Nb113  1  0.89664332  0.09600711  0.70458821  1
  Nb  Nb114  1  0.11841761  0.70303746  0.89746120  1
  Nb  Nb115  1  0.50117921  0.89744782  0.69808676  1
  Nb  Nb116  1  0.90841230  0.70035028  0.29623968  1
  Nb  Nb117  1  0.29760015  0.90299071  0.50012145  1
  Nb  Nb118  1  0.50265284  0.49952635  0.69989248  1
  Nb  Nb119  1  0.30299388  0.29366648  0.29498985  1
  Nb  Nb120  1  0.30358572  0.49521761  0.49965045  1
  Nb  Nb121  1  0.28840555  0.71121772  0.90860951  1
  Nb  Nb122  1  0.29546342  0.89887070  0.90561089  1
  Nb  Nb123  1  0.30369620  0.69993607  0.10341660  1
  Nb  Nb124  1  0.30223980  0.10661060  0.30121577  1
  Nb  Nb125  1  0.59580957  0.59716307  0.60391760  1
  Nb  Nb126  1  0.80664019  0.19558769  0.40087185  1
  Nb  Nb127  1  0.00298128  0.40444804  0.19839743  1
  Nb  Nb128  1  0.39923784  0.19868186  -0.00309727  1
  Nb  Nb129  1  0.39208689  0.00447906  0.00127432  1
  Nb  Nb130  1  0.39615212  0.00462498  0.20119442  1
  Nb  Nb131  1  -0.00260120  -0.00302816  0.20305209  1
  Nb  Nb132  1  0.19947816  0.20086510  0.59267477  1
  Nb  Nb133  1  0.60577969  0.40378822  -0.00043670  1
  Nb  Nb134  1  0.40108783  0.40016887  0.79650259  1
  Nb  Nb135  1  0.20850440  0.39475356  0.40345690  1
  Nb  Nb136  1  -0.00518640  0.19518492  0.39795861  1
  Nb  Nb137  1  0.79648425  0.40534982  0.60698022  1
  Nb  Nb138  1  0.20018266  -0.00608100  0.00115682  1
  Nb  Nb139  1  0.19880767  0.80883972  0.60180914  1
  Nb  Nb140  1  0.39568533  0.59379748  0.39663514  1
  Nb  Nb141  1  0.80769822  0.60647450  0.20332227  1
  Nb  Nb142  1  0.60027455  0.79650104  -0.00214933  1
  Nb  Nb143  1  0.00015853  0.80463577  0.20118964  1
  Nb  Nb144  1  0.40049321  0.20073384  0.80372284  1
  Nb  Nb145  1  0.59700870  0.79872740  0.60766001  1
  Nb  Nb146  1  0.60028613  0.79749832  0.19489427  1
  Nb  Nb147  1  0.59627034  -0.00412697  0.80010811  1
  Nb  Nb148  1  0.79784173  0.40261563  -0.00351587  1
  Nb  Nb149  1  0.40207929  0.60561131  0.20064401  1
  Pd  Pd150  1  0.00781286  0.39219728  0.38834130  1
  Pd  Pd151  1  -0.00199230  0.39456254  0.00728942  1
  Pd  Pd152  1  0.60983946  0.20353084  0.20514531  1
  Pd  Pd153  1  0.20812417  0.59383554  0.40334595  1
  Pd  Pd154  1  -0.00453408  -0.00500442  0.60322837  1
  Pd  Pd155  1  0.39757469  0.40650450  0.39054093  1
  Pd  Pd156  1  0.20578990  0.59530465  0.79807519  1
  Pd  Pd157  1  0.59552942  0.18534746  0.79225662  1
  Pd  Pd158  1  0.20450786  0.79150046  0.41015281  1
  Pd  Pd159  1  0.80052050  0.79573281  0.40172082  1
  Pd  Pd160  1  0.79128118  0.19156818  0.80197073  1
  Pd  Pd161  1  0.20189438  -0.00283838  0.19891529  1
  Pd  Pd162  1  0.59140850  0.60153957  0.40806138  1
  Pd  Pd163  1  0.38945197  0.80051160  0.80058353  1
  Pd  Pd164  1  0.80510560  0.60643919  0.39624427  1
  Pd  Pd165  1  -0.00764145  0.39943433  0.79075260  1
  Pd  Pd166  1  0.59875833  0.60417664  0.79657694  1
  Pd  Pd167  1  0.80130622  0.79583200  0.20538501  1
  Pd  Pd168  1  0.39577214  0.00176671  0.59941916  1
  Pd  Pd169  1  0.60279577  0.39920427  0.19762191  1
  Pd  Pd170  1  0.59912827  -0.00392005  0.40143078  1
  Pd  Pd171  1  0.79269521  0.19373415  0.20872738  1
  Pd  Pd172  1  -0.00427776  0.79783104  0.80330267  1
  Pd  Pd173  1  0.40406385  0.00726185  0.80198655  1
  Pd  Pd174  1  0.20309359  0.19850430  0.00567885  1
  Pd  Pd175  1  0.00149731  0.19979219  0.20678525  1
  Pd  Pd176  1  -0.01273237  0.40550763  0.61094648  1
  Pd  Pd177  1  -0.00260572  0.00442892  0.39567971  1
  Pd  Pd178  1  0.38623894  0.59457936  0.79836003  1
  Pd  Pd179  1  0.80204322  0.00446595  -0.00677502  1
  Pd  Pd180  1  0.19126504  0.79583513  0.19676060  1
  Pd  Pd181  1  0.01018281  0.60856192  -0.01037627  1
  Pd  Pd182  1  0.60529908  0.80185554  0.40686257  1
  Pd  Pd183  1  -0.00080338  0.60985752  0.80698054  1
  Pd  Pd184  1  0.80569667  0.00354976  0.20084416  1
  Pd  Pd185  1  0.39253254  0.60619913  0.00524539  1
  Pd  Pd186  1  0.40347187  0.39768290  0.60578104  1
  Pd  Pd187  1  0.59488367  -0.01035789  0.20669525  1
  Pd  Pd188  1  0.60986439  0.59846808  -0.00792656  1
  Pd  Pd189  1  0.40474036  0.80372049  0.00743912  1
  Pd  Pd190  1  0.59748510  0.19539232  0.59657333  1
  Pd  Pd191  1  0.81077166  0.80060497  0.80339800  1
  Pd  Pd192  1  0.00014512  0.19983395  0.00254019  1
  Pd  Pd193  1  0.40399105  0.20054633  0.40598737  1
  Pd  Pd194  1  0.00231890  0.19232048  0.59512590  1
  Pd  Pd195  1  0.60069500  0.21008362  0.00072608  1
  Pd  Pd196  1  0.19307184  0.39681396  0.00419936  1
  Pd  Pd197  1  0.79388482  0.59280107  -0.00107554  1
  Pd  Pd198  1  0.59912599  0.80125876  0.79808633  1
  Pd  Pd199  1  -0.00075287  0.60220301  0.40553508  1
  Rh  Rh200  1  0.19864867  0.20638662  0.40213466  1
  Rh  Rh201  1  0.60132487  0.40642980  0.59666017  1
  Rh  Rh202  1  0.39354662  0.80723299  0.59977634  1
  Rh  Rh203  1  0.19883066  0.19993345  0.78667147  1
  Rh  Rh204  1  0.80482510  0.60981526  0.80610122  1
  Rh  Rh205  1  0.21034079  0.60414977  0.19450148  1
  Rh  Rh206  1  0.60170371  -0.01037252  0.60762712  1
  Rh  Rh207  1  0.41067876  0.38728764  -0.01240553  1
  Rh  Rh208  1  0.20567297  0.80784770  0.79214290  1
  Rh  Rh209  1  0.79864566  0.00582503  0.40599608  1
  Rh  Rh210  1  0.81525092  0.41786112  0.18381812  1
  Rh  Rh211  1  0.79877352  0.20501217  0.59363024  1
  Rh  Rh212  1  0.20490286  0.60166795  0.00457679  1
  Rh  Rh213  1  0.00312768  0.19907762  0.79464995  1
  Rh  Rh214  1  0.60399780  0.60794664  0.20889754  1
  Rh  Rh215  1  0.19464039  0.39314343  0.20475286  1
  Rh  Rh216  1  0.39462463  0.19828234  0.59963998  1
  Rh  Rh217  1  0.59415572  -0.00976270  -0.00868017  1
  Rh  Rh218  1  0.20259300  0.20600174  0.19851039  1
  Rh  Rh219  1  0.80555417  -0.00620750  0.60308538  1
  Rh  Rh220  1  0.00126194  -0.00575352  0.79627384  1
  Rh  Rh221  1  0.79357497  0.00183424  0.80325992  1
  Rh  Rh222  1  0.40735160  0.79983262  0.19257575  1
  Rh  Rh223  1  0.59567024  0.39610802  0.40153318  1
  Rh  Rh224  1  0.00680707  0.79417727  0.00014773  1
  Rh  Rh225  1  0.38751108  0.79251157  0.41194671  1
  Rh  Rh226  1  0.39765475  0.19375578  0.19337708  1
  Rh  Rh227  1  0.19241929  -0.00906158  0.80622092  1
  Rh  Rh228  1  0.79275832  0.59428983  0.59299755  1
  Rh  Rh229  1  0.79649461  0.38878424  0.41435884  1
  Rh  Rh230  1  0.39243556  0.00062320  0.39233017  1
  Rh  Rh231  1  -0.00456679  0.60318782  0.19792128  1
  Rh  Rh232  1  0.00423016  0.00869923  0.00587201  1
  Rh  Rh233  1  0.20974776  -0.00246187  0.39050132  1
  Rh  Rh234  1  0.20373515  -0.00179412  0.60063702  1
  Rh  Rh235  1  0.79675210  0.20409118  -0.00417909  1
  Rh  Rh236  1  0.20716975  0.40983400  0.79563891  1
  Rh  Rh237  1  0.00788515  0.80463315  0.60079934  1
  Rh  Rh238  1  -0.00033517  0.79624205  0.39433007  1
  Rh  Rh239  1  0.40486340  0.40932538  0.21064874  1
  Rh  Rh240  1  0.79586343  0.80640200  -0.00917803  1
  Rh  Rh241  1  0.60483704  0.20013817  0.39928759  1
  Rh  Rh242  1  0.00027736  0.59811147  0.59913520  1
  Rh  Rh243  1  0.19570622  0.80399262  0.00957751  1
  Rh  Rh244  1  0.59327066  0.40657121  0.80247948  1
  Rh  Rh245  1  0.20276120  0.39571011  0.59457412  1
  Rh  Rh246  1  0.80480498  0.39903893  0.79674189  1
  Rh  Rh247  1  0.79728985  0.80170154  0.60166369  1
  Rh  Rh248  1  0.40435770  0.59629832  0.59369190  1
  Rh  Rh249  1  0.19354793  0.60692812  0.59689147  1
