# generated using pymatgen
data_ZrScNbPdRh
_symmetry_space_group_name_H-M   'P 1'
_cell_length_a   16.55375591
_cell_length_b   16.55674671
_cell_length_c   16.55899762
_cell_angle_alpha   89.98025054
_cell_angle_beta   90.02860301
_cell_angle_gamma   90.00583648
_symmetry_Int_Tables_number   1
_chemical_formula_structural   ZrScNbPdRh
_chemical_formula_sum   'Zr50 Sc50 Nb50 Pd50 Rh50'
_cell_volume   4538.42866459
_cell_formula_units_Z   50
loop_
 _symmetry_equiv_pos_site_id
 _symmetry_equiv_pos_as_xyz
  1  'x, y, z'
loop_
 _atom_site_type_symbol
 _atom_site_label
 _atom_site_symmetry_multiplicity
 _atom_site_fract_x
 _atom_site_fract_y
 _atom_site_fract_z
 _atom_site_occupancy
  Zr  Zr0  1  0.29096348  0.09515064  0.69861891  1
  Zr  Zr1  1  0.30655501  0.10092196  0.89241830  1
  Zr  Zr2  1  0.90284629  0.50747122  0.49732058  1
  Zr  Zr3  1  0.30302865  0.30594585  0.10265042  1
  Zr  Zr4  1  0.29617947  0.10296560  0.10395003  1
  Zr  Zr5  1  0.89986452  0.69487733  0.49797371  1
  Zr  Zr6  1  0.89883143  0.89991486  0.89186771  1
  Zr  Zr7  1  0.90649700  0.49708452  0.30458103  1
  Zr  Zr8  1  0.70263837  0.90639163  0.89802735  1
  Zr  Zr9  1  0.09619899  0.50468730  0.29946262  1
  Zr  Zr10  1  0.90165631  0.49283281  0.69569402  1
  Zr  Zr11  1  0.90561214  0.29970666  0.90006846  1
  Zr  Zr12  1  0.10845660  0.50397501  0.10227763  1
  Zr  Zr13  1  0.49420852  0.89885846  0.89700146  1
  Zr  Zr14  1  0.89811005  0.89542963  0.49828183  1
  Zr  Zr15  1  0.29762011  0.89492707  0.89598617  1
  Zr  Zr16  1  0.30039578  0.70439424  0.49703452  1
  Zr  Zr17  1  0.69595694  0.30188322  0.90293816  1
  Zr  Zr18  1  0.90595695  0.89986326  0.10656830  1
  Zr  Zr19  1  0.49144679  0.49591783  0.69911198  1
  Zr  Zr20  1  0.69793629  0.09092358  0.49693414  1
  Zr  Zr21  1  0.49407141  0.70234370  0.50248830  1
  Zr  Zr22  1  0.49816478  0.90324125  0.50233625  1
  Zr  Zr23  1  0.49927657  0.09670682  0.31354518  1
  Zr  Zr24  1  0.09094188  0.90502738  0.29555887  1
  Zr  Zr25  1  0.70131973  0.09660490  0.09369215  1
  Zr  Zr26  1  0.50554240  0.29911282  0.51497477  1
  Zr  Zr27  1  0.90116718  0.69912804  0.89899385  1
  Zr  Zr28  1  0.10514006  0.70249913  0.90316100  1
  Zr  Zr29  1  0.89967413  0.70134124  0.69984896  1
  Zr  Zr30  1  0.10526318  0.89624391  0.69618794  1
  Zr  Zr31  1  0.50217310  0.50428788  0.50140860  1
  Zr  Zr32  1  0.69424876  0.50287569  0.70173522  1
  Zr  Zr33  1  0.89743170  0.50249612  0.10259228  1
  Zr  Zr34  1  0.89510164  0.89499234  0.30176088  1
  Zr  Zr35  1  0.11281858  0.49553452  0.69950967  1
  Zr  Zr36  1  0.70064856  0.69785074  0.50949439  1
  Zr  Zr37  1  0.70607659  0.10123565  0.30670037  1
  Zr  Zr38  1  0.49746421  0.10995699  0.70023403  1
  Zr  Zr39  1  0.49805552  0.89175925  0.29747599  1
  Zr  Zr40  1  0.10180256  0.10435046  0.88700493  1
  Zr  Zr41  1  0.69124087  0.29764391  0.69366327  1
  Zr  Zr42  1  0.29351348  0.49316458  0.29091114  1
  Zr  Zr43  1  0.50083273  0.89799451  0.70280062  1
  Zr  Zr44  1  0.70019048  0.70600676  0.29003026  1
  Zr  Zr45  1  0.09654595  0.09892163  0.68803484  1
  Zr  Zr46  1  0.49862022  0.70170118  0.29296717  1
  Zr  Zr47  1  0.29150596  0.68731974  0.69082218  1
  Zr  Zr48  1  0.09449898  0.90608131  0.50090704  1
  Zr  Zr49  1  0.89888573  0.90416224  0.70272532  1
  Sc  Sc50  1  0.70012209  0.29890397  0.49354429  1
  Sc  Sc51  1  0.09491975  0.10374215  0.11379446  1
  Sc  Sc52  1  0.50052220  0.09699807  0.09385721  1
  Sc  Sc53  1  0.10241728  0.89330096  0.10487115  1
  Sc  Sc54  1  0.10229089  0.70394022  0.10183720  1
  Sc  Sc55  1  0.49849209  0.70038602  0.09933644  1
  Sc  Sc56  1  0.50992384  0.30390661  0.30766884  1
  Sc  Sc57  1  0.30556506  0.70707573  0.29892198  1
  Sc  Sc58  1  0.70093506  0.49279758  0.29355520  1
  Sc  Sc59  1  0.09376713  0.49479585  0.49926365  1
  Sc  Sc60  1  0.30066007  0.50926925  0.51377284  1
  Sc  Sc61  1  0.09994811  0.30860141  0.29906100  1
  Sc  Sc62  1  0.30515464  0.69914672  0.90500293  1
  Sc  Sc63  1  0.10140250  0.88990027  0.89307894  1
  Sc  Sc64  1  0.70136638  0.50113819  0.50829907  1
  Sc  Sc65  1  0.29623546  0.70396016  0.09078326  1
  Sc  Sc66  1  0.10070271  0.30641980  0.89574344  1
  Sc  Sc67  1  0.10305313  0.30151327  0.69986998  1
  Sc  Sc68  1  0.91026787  0.08707503  0.50557279  1
  Sc  Sc69  1  0.29846933  0.89902226  0.70265319  1
  Sc  Sc70  1  0.90078545  0.10745136  0.10057255  1
  Sc  Sc71  1  0.50636380  0.70106655  0.70220022  1
  Sc  Sc72  1  0.69184490  0.50038020  0.09831129  1
  Sc  Sc73  1  0.90202594  0.31041651  0.49642956  1
  Sc  Sc74  1  0.50620247  0.49916459  0.29484392  1
  Sc  Sc75  1  0.69560799  0.50540971  0.90426043  1
  Sc  Sc76  1  0.29961558  0.50335288  0.89901705  1
  Sc  Sc77  1  0.29797838  0.29600988  0.50326849  1
  Sc  Sc78  1  0.49133553  0.10099346  0.50493344  1
  Sc  Sc79  1  0.49974762  0.89269593  0.10073003  1
  Sc  Sc80  1  0.09977355  0.70238493  0.70145736  1
  Sc  Sc81  1  0.69454660  0.70053375  0.70094877  1
  Sc  Sc82  1  0.29406819  0.30076255  0.30252382  1
  Sc  Sc83  1  0.89927173  0.49970951  0.89008439  1
  Sc  Sc84  1  0.10142900  0.49639592  0.89857048  1
  Sc  Sc85  1  0.70556895  0.30441845  0.10393298  1
  Sc  Sc86  1  0.90221253  0.09677576  0.29372648  1
  Sc  Sc87  1  0.70304135  0.89999859  0.10565203  1
  Sc  Sc88  1  0.70066899  0.89421471  0.69912500  1
  Sc  Sc89  1  0.10445713  0.30165228  0.50219466  1
  Sc  Sc90  1  0.89705255  0.69923581  0.10946419  1
  Sc  Sc91  1  0.09847603  0.70355938  0.29311803  1
  Sc  Sc92  1  0.29574604  0.89217878  0.29807756  1
  Sc  Sc93  1  0.69926662  0.69250771  0.89056667  1
  Sc  Sc94  1  0.69742032  0.09605183  0.69899506  1
  Sc  Sc95  1  0.50045121  0.51104028  0.90413654  1
  Sc  Sc96  1  0.09477601  0.30257848  0.09811954  1
  Sc  Sc97  1  0.70184022  0.69247872  0.10162021  1
  Sc  Sc98  1  0.90180060  0.29651327  0.10777568  1
  Sc  Sc99  1  0.09842792  0.70632199  0.50835396  1
  Nb  Nb100  1  0.88981524  0.29777031  0.30048151  1
  Nb  Nb101  1  0.29858392  0.10349756  0.30071123  1
  Nb  Nb102  1  0.70009487  0.09663475  0.90541475  1
  Nb  Nb103  1  0.10326304  0.10094629  0.50123845  1
  Nb  Nb104  1  0.89700962  0.09713726  0.89534716  1
  Nb  Nb105  1  0.50007952  0.49247755  0.09939259  1
  Nb  Nb106  1  0.49023822  0.29189076  0.89713914  1
  Nb  Nb107  1  0.69987014  0.90356416  0.30481965  1
  Nb  Nb108  1  0.31001416  0.31884690  0.71181128  1
  Nb  Nb109  1  0.50383932  0.29940563  0.09649832  1
  Nb  Nb110  1  0.31016778  0.29649005  0.90128746  1
  Nb  Nb111  1  0.50250038  0.70661415  0.90045621  1
  Nb  Nb112  1  0.71470300  0.29209335  0.29857717  1
  Nb  Nb113  1  0.29373929  0.09846306  0.49639106  1
  Nb  Nb114  1  0.70077597  0.90062139  0.49329596  1
  Nb  Nb115  1  0.29546238  0.90018331  0.49998467  1
  Nb  Nb116  1  0.49619157  0.30146822  0.70636972  1
  Nb  Nb117  1  0.30082089  0.89988826  0.09623670  1
  Nb  Nb118  1  0.10060244  0.10141534  0.30249472  1
  Nb  Nb119  1  0.30349891  0.50141317  0.09477667  1
  Nb  Nb120  1  0.29855770  0.49507647  0.70198301  1
  Nb  Nb121  1  0.90203151  0.69276124  0.30096056  1
  Nb  Nb122  1  0.90191494  0.10188484  0.70496621  1
  Nb  Nb123  1  0.49691224  0.10338496  0.89989369  1
  Nb  Nb124  1  0.89373649  0.29855683  0.70260631  1
  Nb  Nb125  1  0.39746040  0.58996205  0.19012226  1
  Nb  Nb126  1  0.20490965  0.19888631  -0.00361683  1
  Nb  Nb127  1  0.39389831  -0.00044505  0.00060374  1
  Nb  Nb128  1  0.00506314  0.19586893  0.39831599  1
  Nb  Nb129  1  0.00044141  0.60021128  0.00108080  1
  Nb  Nb130  1  0.20036481  0.60178239  0.39923060  1
  Nb  Nb131  1  0.59517964  0.20074547  -0.00266406  1
  Nb  Nb132  1  0.40168107  0.40364671  0.40360209  1
  Nb  Nb133  1  0.60116803  0.60799374  0.39783022  1
  Nb  Nb134  1  0.40619713  0.39758338  0.00146314  1
  Nb  Nb135  1  0.20005713  0.00849803  0.39998011  1
  Nb  Nb136  1  0.60047958  0.19757141  0.19920902  1
  Nb  Nb137  1  0.80223981  0.40142863  -0.00144226  1
  Nb  Nb138  1  0.39750418  0.00334227  0.20056073  1
  Nb  Nb139  1  0.80305621  0.19540528  0.80114063  1
  Nb  Nb140  1  0.80828806  0.19765449  0.60542677  1
  Nb  Nb141  1  0.79888660  0.79904683  -0.00311645  1
  Nb  Nb142  1  0.00309069  0.00303231  -0.00537290  1
  Nb  Nb143  1  0.60441406  0.80143519  0.40230535  1
  Nb  Nb144  1  0.59652154  0.00653141  0.80847585  1
  Nb  Nb145  1  0.40635007  0.19792340  0.20400168  1
  Nb  Nb146  1  0.58837515  0.39354112  0.80178469  1
  Nb  Nb147  1  0.19816619  0.00345951  -0.00068825  1
  Nb  Nb148  1  0.59725188  0.00277036  0.20659039  1
  Nb  Nb149  1  0.60444679  0.79996461  -0.00626847  1
  Pd  Pd150  1  0.79100471  0.39687552  0.80446902  1
  Pd  Pd151  1  0.39343172  -0.00078965  0.60285349  1
  Pd  Pd152  1  0.60056905  0.20237173  0.40297189  1
  Pd  Pd153  1  0.40109690  0.60440217  0.79910243  1
  Pd  Pd154  1  0.00667449  0.59575454  0.80190921  1
  Pd  Pd155  1  0.79936394  0.00230585  0.60257215  1
  Pd  Pd156  1  0.38740311  0.20287602  0.60591040  1
  Pd  Pd157  1  -0.00616492  0.20711276  0.59086983  1
  Pd  Pd158  1  0.20057362  0.60079100  0.80623478  1
  Pd  Pd159  1  0.40541740  0.39619698  0.20444341  1
  Pd  Pd160  1  0.79928925  0.59843858  0.79540297  1
  Pd  Pd161  1  0.20890965  0.61079763  0.20265931  1
  Pd  Pd162  1  0.60604091  0.19763251  0.80566753  1
  Pd  Pd163  1  0.20766987  0.20873339  0.60805168  1
  Pd  Pd164  1  -0.00674475  0.40846279  -0.00051291  1
  Pd  Pd165  1  0.79585620  0.40745478  0.40240164  1
  Pd  Pd166  1  0.39464165  0.39865265  0.59177763  1
  Pd  Pd167  1  0.78882924  0.59610966  0.39342770  1
  Pd  Pd168  1  0.20257633  -0.00515318  0.20193860  1
  Pd  Pd169  1  0.20593671  0.21102926  0.79813621  1
  Pd  Pd170  1  0.60620243  0.39033990  0.20244434  1
  Pd  Pd171  1  0.20685975  0.39513198  -0.00495283  1
  Pd  Pd172  1  -0.00474589  0.79937941  0.00281937  1
  Pd  Pd173  1  0.79671591  0.39630312  0.59494232  1
  Pd  Pd174  1  0.60300707  0.40581576  0.40126584  1
  Pd  Pd175  1  0.00771003  0.59974749  0.60337603  1
  Pd  Pd176  1  0.19120369  0.80030637  0.39844191  1
  Pd  Pd177  1  0.00372063  0.79338544  0.39769756  1
  Pd  Pd178  1  0.39929758  0.21190192  0.39841375  1
  Pd  Pd179  1  0.79826266  0.20766275  -0.00237097  1
  Pd  Pd180  1  -0.00064772  0.39694538  0.20108510  1
  Pd  Pd181  1  0.20790273  0.41005117  0.41099177  1
  Pd  Pd182  1  0.39471312  0.80059705  0.60625820  1
  Pd  Pd183  1  0.59619285  0.60881537  0.00367637  1
  Pd  Pd184  1  0.60001642  -0.00145926  0.60717090  1
  Pd  Pd185  1  0.00943340  0.19293181  -0.00128667  1
  Pd  Pd186  1  0.00285021  0.39414587  0.60295973  1
  Pd  Pd187  1  0.79772824  0.00297224  0.20155076  1
  Pd  Pd188  1  0.19355670  0.19996540  0.39910229  1
  Pd  Pd189  1  0.39737322  0.59159467  0.38706310  1
  Pd  Pd190  1  -0.00108266  0.20563925  0.79520324  1
  Pd  Pd191  1  0.79763952  0.59312937  0.20583241  1
  Pd  Pd192  1  0.19848788  0.20977316  0.19780010  1
  Pd  Pd193  1  0.81330588  -0.00580505  0.00383557  1
  Pd  Pd194  1  0.79993517  0.79994128  0.60238267  1
  Pd  Pd195  1  0.38781812  -0.00788841  0.39547975  1
  Pd  Pd196  1  0.39240470  0.78721588  0.79146705  1
  Pd  Pd197  1  0.79539806  0.79424073  0.39853609  1
  Pd  Pd198  1  0.81604498  0.19067158  0.41393383  1
  Pd  Pd199  1  0.00841044  -0.00460785  0.80024353  1
  Rh  Rh200  1  0.19117533  0.59784912  0.59199249  1
  Rh  Rh201  1  0.39111100  0.79617133  0.18929953  1
  Rh  Rh202  1  0.19442274  0.59964265  -0.00244756  1
  Rh  Rh203  1  0.00288547  0.00618452  0.39598091  1
  Rh  Rh204  1  -0.00488920  0.79424052  0.20613436  1
  Rh  Rh205  1  0.79089058  0.00825043  0.79404944  1
  Rh  Rh206  1  0.60249931  0.80608109  0.59325972  1
  Rh  Rh207  1  0.20435011  0.39876582  0.59955777  1
  Rh  Rh208  1  0.40407076  0.60309510  0.60889633  1
  Rh  Rh209  1  0.40696520  0.80217970  0.00123275  1
  Rh  Rh210  1  0.20645786  0.79077868  0.79660858  1
  Rh  Rh211  1  0.19985321  0.80658590  0.00015491  1
  Rh  Rh212  1  0.80336481  0.59854764  0.60864107  1
  Rh  Rh213  1  0.59871636  0.40305195  0.60609823  1
  Rh  Rh214  1  0.59515530  0.59998475  0.59949169  1
  Rh  Rh215  1  0.60815723  0.19274179  0.59148188  1
  Rh  Rh216  1  0.19463049  -0.00502023  0.80073818  1
  Rh  Rh217  1  0.40374307  0.40899386  0.81322147  1
  Rh  Rh218  1  0.20223791  0.80012905  0.19835038  1
  Rh  Rh219  1  0.80165570  0.80057702  0.19807177  1
  Rh  Rh220  1  0.79714193  0.19550478  0.19636735  1
  Rh  Rh221  1  0.19446149  0.39712743  0.19314827  1
  Rh  Rh222  1  -0.00251223  0.39092175  0.39514302  1
  Rh  Rh223  1  0.20394818  0.80331266  0.59890513  1
  Rh  Rh224  1  0.59275076  0.59364410  0.79686129  1
  Rh  Rh225  1  0.79750927  0.79391107  0.80232487  1
  Rh  Rh226  1  0.80882424  0.00162281  0.40017847  1
  Rh  Rh227  1  0.20437265  0.39878154  0.80593025  1
  Rh  Rh228  1  0.40364984  0.80681415  0.40473423  1
  Rh  Rh229  1  -0.00117472  -0.00490055  0.60556450  1
  Rh  Rh230  1  0.00046006  0.60288394  0.19404391  1
  Rh  Rh231  1  0.60261918  0.80649353  0.80659344  1
  Rh  Rh232  1  0.80085275  0.40143341  0.19518723  1
  Rh  Rh233  1  0.59806053  -0.00810385  0.39839814  1
  Rh  Rh234  1  0.60716862  0.80769763  0.19582611  1
  Rh  Rh235  1  0.01039766  0.60775320  0.40092362  1
  Rh  Rh236  1  0.40658839  0.00406351  0.79786003  1
  Rh  Rh237  1  0.80915416  0.59844125  -0.00200414  1
  Rh  Rh238  1  0.58703097  -0.00175631  -0.00242708  1
  Rh  Rh239  1  -0.00077039  0.00272164  0.19549125  1
  Rh  Rh240  1  0.59633397  0.39375055  -0.00725468  1
  Rh  Rh241  1  0.20302569  -0.00438060  0.59305854  1
  Rh  Rh242  1  0.59253687  0.59762904  0.19988886  1
  Rh  Rh243  1  0.39114135  0.19852246  0.78668419  1
  Rh  Rh244  1  0.39996927  0.20072492  0.00968576  1
  Rh  Rh245  1  -0.00696922  0.80227159  0.60287904  1
  Rh  Rh246  1  0.00275684  0.39927669  0.79240538  1
  Rh  Rh247  1  0.40484828  0.59728728  0.00525015  1
  Rh  Rh248  1  0.00169361  0.79930756  0.79288023  1
  Rh  Rh249  1  -0.00252395  0.20633279  0.21348864  1
