# generated using pymatgen
data_ZrScNbPdRh
_symmetry_space_group_name_H-M   'P 1'
_cell_length_a   16.55597706
_cell_length_b   16.55672317
_cell_length_c   16.55704953
_cell_angle_alpha   90.01926821
_cell_angle_beta   90.02281099
_cell_angle_gamma   90.00053956
_symmetry_Int_Tables_number   1
_chemical_formula_structural   ZrScNbPdRh
_chemical_formula_sum   'Zr50 Sc50 Nb50 Pd50 Rh50'
_cell_volume   4538.49741301
_cell_formula_units_Z   50
loop_
 _symmetry_equiv_pos_site_id
 _symmetry_equiv_pos_as_xyz
  1  'x, y, z'
loop_
 _atom_site_type_symbol
 _atom_site_label
 _atom_site_symmetry_multiplicity
 _atom_site_fract_x
 _atom_site_fract_y
 _atom_site_fract_z
 _atom_site_occupancy
  Zr  Zr0  1  0.29509389  0.48412107  0.69872234  1
  Zr  Zr1  1  0.50454816  0.70231548  0.69565781  1
  Zr  Zr2  1  0.70545303  0.90451757  0.69654541  1
  Zr  Zr3  1  0.30283666  0.30726561  0.29628450  1
  Zr  Zr4  1  0.30222185  0.09886565  0.50322972  1
  Zr  Zr5  1  0.09887246  0.89557140  0.11301905  1
  Zr  Zr6  1  0.30683848  0.50196366  0.90327838  1
  Zr  Zr7  1  0.49085932  0.90096356  0.70136107  1
  Zr  Zr8  1  0.90064114  0.50118358  0.50787237  1
  Zr  Zr9  1  0.90179408  0.89702015  0.90170263  1
  Zr  Zr10  1  0.30192881  0.50005529  0.29727178  1
  Zr  Zr11  1  0.29407002  0.49267069  0.09739689  1
  Zr  Zr12  1  0.49094782  0.50296968  0.30039350  1
  Zr  Zr13  1  0.09849979  0.70446624  0.89845775  1
  Zr  Zr14  1  0.49273719  0.69697914  0.90028698  1
  Zr  Zr15  1  0.70200073  0.90379997  0.49644062  1
  Zr  Zr16  1  0.89794398  0.70123993  0.49285129  1
  Zr  Zr17  1  0.09367663  0.50505828  0.70377519  1
  Zr  Zr18  1  0.91557109  0.69097607  0.70520714  1
  Zr  Zr19  1  0.09743115  0.90538333  0.50085085  1
  Zr  Zr20  1  0.50442030  0.29294938  0.10076763  1
  Zr  Zr21  1  0.90100756  0.09399749  0.10208552  1
  Zr  Zr22  1  0.30511496  0.29271488  0.70488986  1
  Zr  Zr23  1  0.89854780  0.90465915  0.69529317  1
  Zr  Zr24  1  0.10293671  0.10124646  0.69698788  1
  Zr  Zr25  1  0.89305338  0.09793656  0.69957559  1
  Zr  Zr26  1  0.30086639  0.09102991  0.10067621  1
  Zr  Zr27  1  0.09412578  0.70878372  0.29696205  1
  Zr  Zr28  1  0.30145960  0.30565733  0.50994609  1
  Zr  Zr29  1  0.69840715  0.70048625  0.28709544  1
  Zr  Zr30  1  0.50140740  0.09759644  0.09248451  1
  Zr  Zr31  1  0.90496660  0.70495676  0.90333821  1
  Zr  Zr32  1  0.09495301  0.29184348  0.50553278  1
  Zr  Zr33  1  0.69636718  0.49439404  0.69970293  1
  Zr  Zr34  1  0.10998540  0.30443343  0.70124072  1
  Zr  Zr35  1  0.89481204  0.49397290  0.89821103  1
  Zr  Zr36  1  0.69746245  0.29552268  0.50752435  1
  Zr  Zr37  1  0.69700195  0.11069145  0.88732248  1
  Zr  Zr38  1  0.50064836  0.69756528  0.29680528  1
  Zr  Zr39  1  0.89423513  0.50532446  0.30240603  1
  Zr  Zr40  1  0.49686050  0.70533447  0.49816719  1
  Zr  Zr41  1  0.49650936  0.30204936  0.29764602  1
  Zr  Zr42  1  0.30958718  0.89747158  0.09811953  1
  Zr  Zr43  1  0.50492877  0.90145053  0.50134256  1
  Zr  Zr44  1  0.30623891  0.88956400  0.90009828  1
  Zr  Zr45  1  0.69167357  0.28864734  0.29807057  1
  Zr  Zr46  1  0.30547549  0.30416767  0.09819369  1
  Zr  Zr47  1  0.30304865  0.10190471  0.30612567  1
  Zr  Zr48  1  0.49643740  0.30126180  0.50301630  1
  Zr  Zr49  1  0.90316330  0.90188963  0.09788957  1
  Sc  Sc50  1  0.10239041  0.09690337  0.49989688  1
  Sc  Sc51  1  0.10080960  0.89628770  0.89660083  1
  Sc  Sc52  1  0.10090593  0.49088967  0.90093959  1
  Sc  Sc53  1  0.09525550  0.50428903  0.29595989  1
  Sc  Sc54  1  0.89979990  0.90036827  0.49652843  1
  Sc  Sc55  1  0.49926927  0.28938331  0.90360214  1
  Sc  Sc56  1  0.50407406  0.10932248  0.30604649  1
  Sc  Sc57  1  0.70597902  0.90926050  0.90039077  1
  Sc  Sc58  1  0.90227028  0.29652029  0.69340995  1
  Sc  Sc59  1  0.30960540  0.70390535  0.29658827  1
  Sc  Sc60  1  0.30050191  0.90889107  0.69956429  1
  Sc  Sc61  1  0.50248088  0.50552740  0.90737034  1
  Sc  Sc62  1  0.09407792  0.50100423  0.51009581  1
  Sc  Sc63  1  0.50070176  0.49790490  0.69901948  1
  Sc  Sc64  1  0.10456938  0.29598024  0.30069404  1
  Sc  Sc65  1  0.50418421  0.09917392  0.89939077  1
  Sc  Sc66  1  0.89948934  0.70149625  0.29699268  1
  Sc  Sc67  1  0.10069862  0.09060871  0.09414800  1
  Sc  Sc68  1  0.10876468  0.30691307  0.09040822  1
  Sc  Sc69  1  0.50049854  0.49792121  0.10193132  1
  Sc  Sc70  1  0.10210164  0.29645250  0.89783372  1
  Sc  Sc71  1  0.88765318  0.28913448  0.30168002  1
  Sc  Sc72  1  0.70085670  0.10444724  0.09727348  1
  Sc  Sc73  1  0.91046809  0.10338151  0.49777410  1
  Sc  Sc74  1  0.09743487  0.09227036  0.30959532  1
  Sc  Sc75  1  0.71055283  0.89927675  0.10311246  1
  Sc  Sc76  1  0.49618867  0.90693198  0.90558543  1
  Sc  Sc77  1  0.69636639  0.49766206  0.28334258  1
  Sc  Sc78  1  0.09754328  0.71250089  0.49900528  1
  Sc  Sc79  1  0.89663667  0.30183345  0.90576400  1
  Sc  Sc80  1  0.29998047  0.09495591  0.89589190  1
  Sc  Sc81  1  0.89966262  0.90445009  0.29916347  1
  Sc  Sc82  1  0.50349951  0.70054938  0.10728652  1
  Sc  Sc83  1  0.49749268  0.29503153  0.70154091  1
  Sc  Sc84  1  0.49302327  0.10251396  0.49462569  1
  Sc  Sc85  1  0.69229140  0.71575900  0.50791465  1
  Sc  Sc86  1  0.70610988  0.90258246  0.30528310  1
  Sc  Sc87  1  0.30146498  0.71204968  0.49586874  1
  Sc  Sc88  1  0.10680142  0.10398957  0.89677025  1
  Sc  Sc89  1  0.70213026  0.28989879  0.69918012  1
  Sc  Sc90  1  0.69314967  0.49903018  0.09670103  1
  Sc  Sc91  1  0.90718072  0.49419537  0.70151154  1
  Sc  Sc92  1  0.69906596  0.30218149  0.09879082  1
  Sc  Sc93  1  0.89913161  0.10329767  0.90319668  1
  Sc  Sc94  1  0.29943825  0.30241273  0.89778985  1
  Sc  Sc95  1  0.88882554  0.49685122  0.10475040  1
  Sc  Sc96  1  0.29825099  0.90194249  0.29172613  1
  Sc  Sc97  1  0.30317262  0.90731993  0.50573574  1
  Sc  Sc98  1  0.50116009  0.88940053  0.29398974  1
  Sc  Sc99  1  0.31006484  0.71560045  0.70574694  1
  Nb  Nb100  1  0.09529028  0.69859066  0.10153788  1
  Nb  Nb101  1  0.69785296  0.09764130  0.30499576  1
  Nb  Nb102  1  0.49725555  0.09999884  0.70840485  1
  Nb  Nb103  1  0.90076179  0.30305158  0.49871489  1
  Nb  Nb104  1  0.09744215  0.89905224  0.69416993  1
  Nb  Nb105  1  0.30282353  0.50093558  0.49824418  1
  Nb  Nb106  1  0.70423340  0.30983153  0.89892347  1
  Nb  Nb107  1  0.90359947  0.29531306  0.10155704  1
  Nb  Nb108  1  0.49635309  0.49920238  0.50011776  1
  Nb  Nb109  1  0.09124921  0.89710480  0.30153159  1
  Nb  Nb110  1  0.69694237  0.09806386  0.69898341  1
  Nb  Nb111  1  0.69388217  0.69505097  0.90235329  1
  Nb  Nb112  1  0.68547632  0.09878399  0.49069926  1
  Nb  Nb113  1  0.89541236  0.09525534  0.29320586  1
  Nb  Nb114  1  0.29963126  0.70009981  0.90588775  1
  Nb  Nb115  1  0.70302870  0.49789250  0.90319267  1
  Nb  Nb116  1  0.29216510  0.70252423  0.08450083  1
  Nb  Nb117  1  0.70312262  0.70129487  0.09809824  1
  Nb  Nb118  1  0.89616115  0.70479588  0.09622373  1
  Nb  Nb119  1  0.10084164  0.49802385  0.10260769  1
  Nb  Nb120  1  0.69755966  0.70067252  0.70235307  1
  Nb  Nb121  1  0.10201907  0.69905886  0.70317206  1
  Nb  Nb122  1  0.69387683  0.49477906  0.50742738  1
  Nb  Nb123  1  0.30919773  0.09800061  0.70067810  1
  Nb  Nb124  1  0.50263594  0.89967137  0.09989284  1
  Nb  Nb125  1  0.20408810  0.60684142  0.79986288  1
  Nb  Nb126  1  0.20482410  0.60527728  0.60285357  1
  Nb  Nb127  1  0.79626698  0.79118135  0.79945056  1
  Nb  Nb128  1  -0.00164978  0.60053654  0.00806852  1
  Nb  Nb129  1  -0.00521025  0.39581884  0.39818067  1
  Nb  Nb130  1  0.00104668  0.20010239  0.19658391  1
  Nb  Nb131  1  0.79525402  0.40113091  0.40552746  1
  Nb  Nb132  1  0.79849500  0.60487187  -0.00300408  1
  Nb  Nb133  1  0.60423938  0.79806027  -0.00139861  1
  Nb  Nb134  1  -0.00376376  0.39238047  0.20078781  1
  Nb  Nb135  1  0.39371397  0.59699849  0.59530487  1
  Nb  Nb136  1  0.78406664  0.59474083  0.40847305  1
  Nb  Nb137  1  0.20025792  0.19756452  0.19778825  1
  Nb  Nb138  1  0.19727035  0.60556053  0.19293901  1
  Nb  Nb139  1  0.60137945  0.59464203  0.40413282  1
  Nb  Nb140  1  0.20349716  0.59871194  0.40077060  1
  Nb  Nb141  1  0.60516644  0.79796257  0.80426706  1
  Nb  Nb142  1  0.79328567  0.60149896  0.60323759  1
  Nb  Nb143  1  0.60166058  0.40561772  0.40407583  1
  Nb  Nb144  1  0.00140997  -0.00114073  0.79353962  1
  Nb  Nb145  1  0.60736755  0.39808582  0.80668284  1
  Nb  Nb146  1  0.19707821  0.40579944  0.40447249  1
  Nb  Nb147  1  0.60130146  0.00846243  0.60285065  1
  Nb  Nb148  1  0.60217138  0.00187850  0.20192474  1
  Nb  Nb149  1  0.79276472  0.60140136  0.80120942  1
  Pd  Pd150  1  0.40692697  -0.00698306  0.39159708  1
  Pd  Pd151  1  -0.00339273  0.19727200  0.79935165  1
  Pd  Pd152  1  0.80594421  0.80463287  0.20356310  1
  Pd  Pd153  1  -0.00387742  0.79778436  0.59932208  1
  Pd  Pd154  1  -0.00438993  0.40387439  0.00766085  1
  Pd  Pd155  1  0.80566249  0.20697014  0.79946081  1
  Pd  Pd156  1  0.19275853  0.80832513  0.00259080  1
  Pd  Pd157  1  0.20319598  0.80268799  0.39463412  1
  Pd  Pd158  1  0.40444653  0.60183001  0.01110027  1
  Pd  Pd159  1  -0.00315634  0.20183207  0.39022623  1
  Pd  Pd160  1  0.20470188  0.19411523  0.60362009  1
  Pd  Pd161  1  0.80006070  0.39293329  0.20271441  1
  Pd  Pd162  1  0.19397934  0.00601128  0.20753554  1
  Pd  Pd163  1  0.59401734  0.39559552  -0.00442107  1
  Pd  Pd164  1  0.59669797  0.60134139  0.59443082  1
  Pd  Pd165  1  0.79594877  0.20326228  0.00086243  1
  Pd  Pd166  1  0.19962849  -0.01035869  -0.00399712  1
  Pd  Pd167  1  0.79999533  0.19446421  0.19468093  1
  Pd  Pd168  1  0.41387453  0.00297075  0.20732549  1
  Pd  Pd169  1  0.60876156  -0.00574731  0.00678620  1
  Pd  Pd170  1  0.19018873  0.59535336  -0.00381152  1
  Pd  Pd171  1  0.80279447  0.40071923  0.60361038  1
  Pd  Pd172  1  0.00750823  0.00024420  -0.01171366  1
  Pd  Pd173  1  0.79910682  0.19555713  0.40801338  1
  Pd  Pd174  1  0.39554951  0.81067376  0.39727721  1
  Pd  Pd175  1  0.00594006  0.19840446  0.00473523  1
  Pd  Pd176  1  0.39686564  0.19352821  0.19835344  1
  Pd  Pd177  1  0.20095673  0.79971301  0.79505068  1
  Pd  Pd178  1  0.41458773  0.39833457  0.80719517  1
  Pd  Pd179  1  0.79557840  0.00768291  -0.00398735  1
  Pd  Pd180  1  0.39266555  0.59874888  0.78942915  1
  Pd  Pd181  1  0.20474790  0.19971467  0.00223895  1
  Pd  Pd182  1  0.20464555  0.80048510  0.60465722  1
  Pd  Pd183  1  0.59938871  0.59490750  0.80150709  1
  Pd  Pd184  1  -0.00282123  0.59567819  0.19312941  1
  Pd  Pd185  1  0.20676743  0.79374810  0.20050853  1
  Pd  Pd186  1  0.80751409  0.79136356  0.60574458  1
  Pd  Pd187  1  0.39334336  0.19434794  -0.00697554  1
  Pd  Pd188  1  0.38964292  0.60591018  0.18643654  1
  Pd  Pd189  1  -0.00203562  0.38899649  0.80072332  1
  Pd  Pd190  1  0.59102474  0.19282665  0.60449714  1
  Pd  Pd191  1  0.79542976  0.01239126  0.58519020  1
  Pd  Pd192  1  0.19681329  -0.00348287  0.79706587  1
  Pd  Pd193  1  0.20092077  -0.00894165  0.39863150  1
  Pd  Pd194  1  0.80144756  0.19037626  0.59050991  1
  Pd  Pd195  1  0.59721872  -0.00684322  0.79610196  1
  Pd  Pd196  1  0.00710509  0.59689993  0.40434232  1
  Pd  Pd197  1  0.20558603  0.20703678  0.39804705  1
  Pd  Pd198  1  0.60544832  0.79722243  0.39221327  1
  Pd  Pd199  1  0.80720378  0.00891725  0.40400528  1
  Rh  Rh200  1  0.59491270  0.39907504  0.20385866  1
  Rh  Rh201  1  0.40245224  0.19345182  0.60269305  1
  Rh  Rh202  1  0.80896198  -0.00033851  0.80666243  1
  Rh  Rh203  1  0.00538502  0.61124736  0.59123737  1
  Rh  Rh204  1  -0.00477311  0.80720466  0.39754693  1
  Rh  Rh205  1  0.18779058  0.40098243  0.20791373  1
  Rh  Rh206  1  0.59594070  0.20775107  0.40233848  1
  Rh  Rh207  1  0.39355211  0.20681880  0.40360316  1
  Rh  Rh208  1  0.00751178  0.80068627  0.00964389  1
  Rh  Rh209  1  0.60548823  0.81018570  0.19046710  1
  Rh  Rh210  1  0.80047368  0.40104321  0.00817639  1
  Rh  Rh211  1  0.39905761  0.39523423  0.40397094  1
  Rh  Rh212  1  0.79849351  0.60430038  0.19309812  1
  Rh  Rh213  1  0.40717515  0.80128144  0.80616374  1
  Rh  Rh214  1  0.20648527  0.19837252  0.79881258  1
  Rh  Rh215  1  0.39981428  0.19378963  0.80425156  1
  Rh  Rh216  1  0.41038777  0.79502045  0.00463138  1
  Rh  Rh217  1  0.40840676  0.39929395  0.19009283  1
  Rh  Rh218  1  -0.00965554  0.80149886  0.19876035  1
  Rh  Rh219  1  0.60878513  0.20264650  -0.00550447  1
  Rh  Rh220  1  -0.00334571  -0.00188397  0.39800923  1
  Rh  Rh221  1  0.59810455  0.81426999  0.61020555  1
  Rh  Rh222  1  0.79850646  0.79166607  0.39505203  1
  Rh  Rh223  1  -0.00233210  0.81137436  0.78969584  1
  Rh  Rh224  1  0.20089125  0.00179120  0.60223056  1
  Rh  Rh225  1  0.60016518  0.19002273  0.19621094  1
  Rh  Rh226  1  0.60288141  0.60508020  0.00860161  1
  Rh  Rh227  1  0.79702803  0.39854901  0.79368027  1
  Rh  Rh228  1  0.20234609  0.40059568  -0.00775728  1
  Rh  Rh229  1  0.00610668  0.59373183  0.81499987  1
  Rh  Rh230  1  0.39797256  0.00048018  -0.00348252  1
  Rh  Rh231  1  0.59470929  -0.00289208  0.39619311  1
  Rh  Rh232  1  0.79162622  0.79573305  -0.00626074  1
  Rh  Rh233  1  0.40587574  0.39801031  -0.00228962  1
  Rh  Rh234  1  0.60037732  0.20819873  0.79930197  1
  Rh  Rh235  1  0.00281373  0.00558523  0.20652646  1
  Rh  Rh236  1  0.00388243  0.00356231  0.60249304  1
  Rh  Rh237  1  0.40887459  0.00760328  0.60191267  1
  Rh  Rh238  1  0.39667472  0.79524232  0.19121258  1
  Rh  Rh239  1  0.40589257  0.40466852  0.60295245  1
  Rh  Rh240  1  0.79132243  0.00339687  0.20360706  1
  Rh  Rh241  1  0.39870526  0.00243569  0.80559646  1
  Rh  Rh242  1  0.59152690  0.39271483  0.60567879  1
  Rh  Rh243  1  0.40038292  0.60539673  0.40785272  1
  Rh  Rh244  1  0.00358876  0.39131046  0.59974177  1
  Rh  Rh245  1  0.20056051  0.40248972  0.80649148  1
  Rh  Rh246  1  -0.00121743  0.19890628  0.60361512  1
  Rh  Rh247  1  0.19145504  0.40585514  0.59395462  1
  Rh  Rh248  1  0.39648788  0.79996917  0.59641614  1
  Rh  Rh249  1  0.60008318  0.59724281  0.19918194  1
