# generated using pymatgen
data_ZrScNbPdRh
_symmetry_space_group_name_H-M   'P 1'
_cell_length_a   16.56060746
_cell_length_b   16.56289412
_cell_length_c   16.55979421
_cell_angle_alpha   89.97517914
_cell_angle_beta   90.02355763
_cell_angle_gamma   89.99556409
_symmetry_Int_Tables_number   1
_chemical_formula_structural   ZrScNbPdRh
_chemical_formula_sum   'Zr50 Sc50 Nb50 Pd50 Rh50'
_cell_volume   4542.21142571
_cell_formula_units_Z   50
loop_
 _symmetry_equiv_pos_site_id
 _symmetry_equiv_pos_as_xyz
  1  'x, y, z'
loop_
 _atom_site_type_symbol
 _atom_site_label
 _atom_site_symmetry_multiplicity
 _atom_site_fract_x
 _atom_site_fract_y
 _atom_site_fract_z
 _atom_site_occupancy
  Zr  Zr0  1  0.49272548  0.49779411  0.50093844  1
  Zr  Zr1  1  0.89896701  0.50514877  0.70769063  1
  Zr  Zr2  1  0.29462572  0.29948157  0.69595752  1
  Zr  Zr3  1  0.89371266  0.70883139  0.50406506  1
  Zr  Zr4  1  0.49721202  0.91013287  0.89005930  1
  Zr  Zr5  1  0.50093389  0.50514781  0.69769592  1
  Zr  Zr6  1  0.89813724  0.09716258  0.30572349  1
  Zr  Zr7  1  0.50916234  0.09743985  0.49233406  1
  Zr  Zr8  1  0.69723851  0.28558302  0.50047726  1
  Zr  Zr9  1  0.89953830  0.29649500  0.30129317  1
  Zr  Zr10  1  0.50391456  0.88754189  0.08464202  1
  Zr  Zr11  1  0.90255482  0.31119163  0.90550111  1
  Zr  Zr12  1  0.70002694  0.49714346  0.28913771  1
  Zr  Zr13  1  0.28603908  0.70165123  0.90314703  1
  Zr  Zr14  1  0.90213228  0.10099033  0.10092752  1
  Zr  Zr15  1  0.69922116  0.50347584  0.50410399  1
  Zr  Zr16  1  0.90655308  0.69103267  0.90021861  1
  Zr  Zr17  1  0.09393109  0.50527165  0.90496520  1
  Zr  Zr18  1  0.70863754  0.29972935  0.89992168  1
  Zr  Zr19  1  0.50964493  0.50024657  0.89590091  1
  Zr  Zr20  1  0.69475578  0.70153813  0.09968711  1
  Zr  Zr21  1  0.90714377  0.89872935  0.09654339  1
  Zr  Zr22  1  0.29976566  0.89864886  0.49326582  1
  Zr  Zr23  1  0.90503405  0.29991207  0.09763932  1
  Zr  Zr24  1  0.71102968  0.90696210  0.30235220  1
  Zr  Zr25  1  0.49966805  0.69290073  0.70376645  1
  Zr  Zr26  1  0.49749308  0.29731624  0.10321277  1
  Zr  Zr27  1  0.30148182  0.89588359  0.30337744  1
  Zr  Zr28  1  0.89970305  0.70457067  0.70339871  1
  Zr  Zr29  1  0.70902446  0.89747416  0.49813707  1
  Zr  Zr30  1  0.09622383  0.09542499  0.10040620  1
  Zr  Zr31  1  0.70049406  0.09481631  0.50153914  1
  Zr  Zr32  1  0.50247896  0.09674831  0.89790596  1
  Zr  Zr33  1  0.70457372  0.10298989  0.69707350  1
  Zr  Zr34  1  0.69720284  0.09587593  0.30481280  1
  Zr  Zr35  1  0.90696412  0.88600979  0.89597009  1
  Zr  Zr36  1  0.69453100  0.90714235  0.89832126  1
  Zr  Zr37  1  0.70320654  0.69347745  0.69350567  1
  Zr  Zr38  1  0.49455735  0.29376987  0.29617910  1
  Zr  Zr39  1  0.29825562  0.50659320  0.69527116  1
  Zr  Zr40  1  0.49872143  0.71472072  0.90958914  1
  Zr  Zr41  1  0.10099631  0.50885983  0.49852249  1
  Zr  Zr42  1  0.29933577  0.29926406  0.49990417  1
  Zr  Zr43  1  0.49795709  0.69332091  0.50449392  1
  Zr  Zr44  1  0.09320581  0.09951836  0.29967771  1
  Zr  Zr45  1  0.09956907  0.89734232  0.29590294  1
  Zr  Zr46  1  0.29598137  0.09820345  0.30208312  1
  Zr  Zr47  1  0.09936222  0.89933264  0.51162691  1
  Zr  Zr48  1  0.90012923  0.50244467  0.29234697  1
  Zr  Zr49  1  0.09385708  0.70427582  0.50499319  1
  Sc  Sc50  1  0.50303021  0.09351319  0.70123970  1
  Sc  Sc51  1  0.90304908  0.29125599  0.50331096  1
  Sc  Sc52  1  0.28578240  0.50128529  0.90643220  1
  Sc  Sc53  1  0.30462622  0.89632130  0.90329693  1
  Sc  Sc54  1  0.90897240  0.29497559  0.70862185  1
  Sc  Sc55  1  0.29224205  0.89427165  0.70457337  1
  Sc  Sc56  1  0.10334470  0.69940935  0.09910218  1
  Sc  Sc57  1  0.89143114  0.11477963  0.89046156  1
  Sc  Sc58  1  0.90591260  0.89493144  0.50038362  1
  Sc  Sc59  1  0.70108833  0.90341829  0.10214730  1
  Sc  Sc60  1  0.90114332  0.49877338  0.09256846  1
  Sc  Sc61  1  0.29546175  0.10153082  0.08985942  1
  Sc  Sc62  1  0.29240668  0.10288515  0.49876975  1
  Sc  Sc63  1  0.29755681  0.49857707  0.49821224  1
  Sc  Sc64  1  0.30484562  0.10396525  0.70203761  1
  Sc  Sc65  1  0.49863426  0.48225958  0.29686272  1
  Sc  Sc66  1  0.10360848  0.50471500  0.29161250  1
  Sc  Sc67  1  0.70518857  0.91290598  0.69405283  1
  Sc  Sc68  1  0.90520656  0.90174617  0.31056266  1
  Sc  Sc69  1  0.10225677  0.29739773  0.51394744  1
  Sc  Sc70  1  0.90830636  0.10023895  0.49977774  1
  Sc  Sc71  1  0.69490115  0.30059149  0.30210620  1
  Sc  Sc72  1  0.49688142  0.29711039  0.49182483  1
  Sc  Sc73  1  0.90537708  0.69919433  0.09266989  1
  Sc  Sc74  1  0.69907551  0.09933251  0.10288029  1
  Sc  Sc75  1  0.70018659  0.69749149  0.28816914  1
  Sc  Sc76  1  0.71085749  0.69895079  0.89721813  1
  Sc  Sc77  1  0.28984615  0.89399984  0.10100661  1
  Sc  Sc78  1  0.09722215  0.69833678  0.29703544  1
  Sc  Sc79  1  0.91024028  0.90267071  0.70075477  1
  Sc  Sc80  1  0.09075369  0.09841748  0.69507370  1
  Sc  Sc81  1  0.30353170  0.30242215  0.09334445  1
  Sc  Sc82  1  0.29965980  0.30293995  0.29920144  1
  Sc  Sc83  1  0.10227707  0.10097456  0.91221758  1
  Sc  Sc84  1  0.30808293  0.09899373  0.90126189  1
  Sc  Sc85  1  0.50124275  0.10743468  0.09575471  1
  Sc  Sc86  1  0.90604408  0.51327869  0.51258029  1
  Sc  Sc87  1  0.10066246  0.49900521  0.69874673  1
  Sc  Sc88  1  0.49960929  0.48609083  0.10450382  1
  Sc  Sc89  1  0.29077833  0.49863599  0.10582593  1
  Sc  Sc90  1  0.49650228  0.89792527  0.30405061  1
  Sc  Sc91  1  0.28987517  0.69892976  0.50062282  1
  Sc  Sc92  1  0.49510187  0.29173623  0.69662277  1
  Sc  Sc93  1  0.50035372  0.90400188  0.49074149  1
  Sc  Sc94  1  0.09809749  0.30652884  0.29322980  1
  Sc  Sc95  1  0.49908197  0.29759659  0.91212631  1
  Sc  Sc96  1  0.69463184  0.50381581  0.71745974  1
  Sc  Sc97  1  0.09990751  0.10027468  0.50324691  1
  Sc  Sc98  1  0.29089114  0.49331533  0.29645648  1
  Sc  Sc99  1  0.69996140  0.29977279  0.09312268  1
  Nb  Nb100  1  0.50211213  0.70189442  0.10204510  1
  Nb  Nb101  1  0.29470726  0.29819586  0.89865889  1
  Nb  Nb102  1  0.10145374  0.70114146  0.89903244  1
  Nb  Nb103  1  0.30058898  0.69732372  0.10076942  1
  Nb  Nb104  1  0.70330833  0.70032460  0.50010281  1
  Nb  Nb105  1  0.90328467  0.70721239  0.30159217  1
  Nb  Nb106  1  0.29654304  0.69860375  0.70365357  1
  Nb  Nb107  1  0.10208615  0.29762139  0.70590329  1
  Nb  Nb108  1  0.09763443  0.29538718  0.09277994  1
  Nb  Nb109  1  0.69804458  0.29874113  0.69686232  1
  Nb  Nb110  1  0.49970848  0.90083605  0.69830771  1
  Nb  Nb111  1  0.49724794  0.09506842  0.29669126  1
  Nb  Nb112  1  0.90304379  0.10026102  0.69969643  1
  Nb  Nb113  1  0.10472507  0.30426235  0.90228684  1
  Nb  Nb114  1  0.09324888  0.90011724  0.09155755  1
  Nb  Nb115  1  0.70109473  0.10402972  0.89804991  1
  Nb  Nb116  1  0.89474803  0.50526932  0.90381726  1
  Nb  Nb117  1  0.09818661  0.89240722  0.90206006  1
  Nb  Nb118  1  0.70642679  0.49978580  0.90670703  1
  Nb  Nb119  1  0.11737547  0.71029619  0.70339528  1
  Nb  Nb120  1  0.49908894  0.70365392  0.29735319  1
  Nb  Nb121  1  0.70135004  0.50473206  0.09869745  1
  Nb  Nb122  1  0.30590170  0.70574198  0.29366359  1
  Nb  Nb123  1  0.09890983  0.89925201  0.70641902  1
  Nb  Nb124  1  0.10191855  0.49748176  0.10290344  1
  Nb  Nb125  1  0.59948999  0.59832150  0.00483502  1
  Nb  Nb126  1  0.40131707  0.60783376  0.19913906  1
  Nb  Nb127  1  0.80811633  0.80123531  0.20118291  1
  Nb  Nb128  1  0.40011932  -0.00754212  0.59822517  1
  Nb  Nb129  1  0.79586156  0.39766757  0.60310745  1
  Nb  Nb130  1  0.59826979  0.80102520  0.59926862  1
  Nb  Nb131  1  0.19263778  0.19999517  0.19252218  1
  Nb  Nb132  1  0.59941953  0.80390325  0.79222528  1
  Nb  Nb133  1  0.40127846  0.80036277  0.60303436  1
  Nb  Nb134  1  0.80445730  0.40545425  0.40723323  1
  Nb  Nb135  1  0.39564035  0.60048556  0.80836489  1
  Nb  Nb136  1  0.40266394  0.60381885  0.00541719  1
  Nb  Nb137  1  0.19570726  0.20364012  0.80380614  1
  Nb  Nb138  1  0.40121419  0.00051348  0.19983787  1
  Nb  Nb139  1  0.60367590  0.78994514  0.40163976  1
  Nb  Nb140  1  0.60432481  0.39615449  0.60243438  1
  Nb  Nb141  1  -0.00454471  0.40601665  0.40293634  1
  Nb  Nb142  1  0.79818431  0.60174700  0.39708395  1
  Nb  Nb143  1  0.40168004  0.60524807  0.38737709  1
  Nb  Nb144  1  0.59871172  0.60182221  0.39484749  1
  Nb  Nb145  1  0.39456534  0.40231755  0.80259899  1
  Nb  Nb146  1  0.60763254  0.19918663  0.80176286  1
  Nb  Nb147  1  0.80204218  0.00199685  -0.00723140  1
  Nb  Nb148  1  0.80365194  0.19709157  0.20252876  1
  Nb  Nb149  1  0.19221112  -0.00089386  0.80256626  1
  Pd  Pd150  1  0.19716853  0.39974355  0.00570270  1
  Pd  Pd151  1  0.00916172  0.19711114  0.80764215  1
  Pd  Pd152  1  0.39972619  0.79718601  0.79502771  1
  Pd  Pd153  1  -0.00700108  0.59889209  0.39715885  1
  Pd  Pd154  1  0.79233999  0.80790426  0.79173182  1
  Pd  Pd155  1  0.00333440  0.00730744  0.80826196  1
  Pd  Pd156  1  0.19379807  0.79696208  0.19685047  1
  Pd  Pd157  1  0.60449369  0.40127509  0.40592776  1
  Pd  Pd158  1  -0.00191866  0.19893206  -0.00907289  1
  Pd  Pd159  1  -0.01116510  0.00485170  -0.01524436  1
  Pd  Pd160  1  -0.00627660  0.39667574  0.59850527  1
  Pd  Pd161  1  0.81546143  -0.00146674  0.59628474  1
  Pd  Pd162  1  -0.00048522  0.60363344  0.19164607  1
  Pd  Pd163  1  0.40466809  0.18792704  0.59168067  1
  Pd  Pd164  1  0.01096546  0.21007445  0.40382318  1
  Pd  Pd165  1  0.40166362  0.80682774  0.19246038  1
  Pd  Pd166  1  0.40257846  0.20657681  0.80711511  1
  Pd  Pd167  1  0.00323098  0.40227810  0.20004453  1
  Pd  Pd168  1  0.20174179  0.40150477  0.79919574  1
  Pd  Pd169  1  0.60521000  0.40243444  0.00395006  1
  Pd  Pd170  1  0.20598454  0.00408401  0.61069822  1
  Pd  Pd171  1  0.19648480  0.40347737  0.59802779  1
  Pd  Pd172  1  0.20430064  0.00292757  0.19576943  1
  Pd  Pd173  1  -0.00452396  -0.00591308  0.20470522  1
  Pd  Pd174  1  0.58726227  0.59102992  0.19918023  1
  Pd  Pd175  1  0.39824183  0.19562732  0.40182041  1
  Pd  Pd176  1  0.39837093  -0.00217476  0.01006904  1
  Pd  Pd177  1  0.40439964  0.39568818  0.60459952  1
  Pd  Pd178  1  0.00734018  0.61069472  0.61374641  1
  Pd  Pd179  1  0.80796766  -0.00134407  0.80390068  1
  Pd  Pd180  1  0.79646351  0.39025225  0.19627888  1
  Pd  Pd181  1  0.39407753  0.40832109  -0.00493551  1
  Pd  Pd182  1  0.58844917  -0.00666775  0.19711386  1
  Pd  Pd183  1  0.19321421  0.79339580  0.39813799  1
  Pd  Pd184  1  0.38695351  0.19270611  0.19471911  1
  Pd  Pd185  1  0.00187586  0.40401580  0.80412967  1
  Pd  Pd186  1  0.20156656  -0.00760062  -0.00752701  1
  Pd  Pd187  1  0.01103586  0.60455113  0.79358495  1
  Pd  Pd188  1  0.79700678  0.80575146  0.00440029  1
  Pd  Pd189  1  0.18894956  0.39577960  0.40372844  1
  Pd  Pd190  1  0.20655520  0.60559731  0.39065574  1
  Pd  Pd191  1  0.19146087  0.20781898  0.39192539  1
  Pd  Pd192  1  0.81024070  0.60931600  0.19565526  1
  Pd  Pd193  1  0.81128615  0.20293120  0.60548447  1
  Pd  Pd194  1  0.19201017  -0.00181968  0.40166510  1
  Pd  Pd195  1  0.80251467  0.39951623  0.79516800  1
  Pd  Pd196  1  0.59091090  0.38588334  0.79596328  1
  Pd  Pd197  1  0.60731235  0.20123782  0.20145323  1
  Pd  Pd198  1  0.60444839  0.00760565  0.00528217  1
  Pd  Pd199  1  0.60613104  0.81127382  0.20808156  1
  Rh  Rh200  1  -0.00005401  0.19884648  0.60511439  1
  Rh  Rh201  1  0.79644471  0.59825319  0.00307875  1
  Rh  Rh202  1  0.00378483  0.40595180  -0.00035310  1
  Rh  Rh203  1  0.00872919  0.79083197  -0.00058526  1
  Rh  Rh204  1  0.60533484  0.59586699  0.59677469  1
  Rh  Rh205  1  0.19588228  0.19498110  0.61088861  1
  Rh  Rh206  1  0.80777761  0.00521382  0.41186666  1
  Rh  Rh207  1  0.38894440  0.79732563  0.00638602  1
  Rh  Rh208  1  0.79574297  0.19947820  0.39510632  1
  Rh  Rh209  1  0.00191994  0.79804867  0.61019039  1
  Rh  Rh210  1  0.80026105  0.40450624  0.00360200  1
  Rh  Rh211  1  0.39256866  0.40466656  0.39684152  1
  Rh  Rh212  1  0.00789937  0.80128020  0.40043889  1
  Rh  Rh213  1  0.59660405  0.19783008  0.39048681  1
  Rh  Rh214  1  0.20227647  0.20432167  -0.00070656  1
  Rh  Rh215  1  -0.00145567  -0.00113844  0.60049030  1
  Rh  Rh216  1  0.80984134  -0.00134009  0.19191726  1
  Rh  Rh217  1  0.79983735  0.59783393  0.80348215  1
  Rh  Rh218  1  0.00647653  -0.00588166  0.40663758  1
  Rh  Rh219  1  0.20524359  0.80186586  0.60032510  1
  Rh  Rh220  1  -0.00224165  0.80128483  0.19793910  1
  Rh  Rh221  1  0.60487442  0.39186414  0.19226175  1
  Rh  Rh222  1  0.20426861  0.60324434  0.20006581  1
  Rh  Rh223  1  0.59422924  -0.00486536  0.59681959  1
  Rh  Rh224  1  0.19702255  0.60163158  0.60017838  1
  Rh  Rh225  1  0.19661327  0.59985846  0.00799424  1
  Rh  Rh226  1  0.60254709  0.19731088  -0.00689187  1
  Rh  Rh227  1  0.39923893  0.19988483  -0.00319865  1
  Rh  Rh228  1  0.00148856  0.20111297  0.19963777  1
  Rh  Rh229  1  0.60106883  -0.00879607  0.39592848  1
  Rh  Rh230  1  0.79862421  0.80614907  0.60776778  1
  Rh  Rh231  1  0.59359478  0.20120903  0.60656314  1
  Rh  Rh232  1  0.38448071  0.60783843  0.59735057  1
  Rh  Rh233  1  0.19566508  0.38876693  0.19072296  1
  Rh  Rh234  1  0.39214291  0.40303477  0.20096251  1
  Rh  Rh235  1  0.19760637  0.80836595  0.80658711  1
  Rh  Rh236  1  0.79945511  0.59329712  0.60333933  1
  Rh  Rh237  1  0.60492589  0.00419825  0.79219711  1
  Rh  Rh238  1  0.00820650  0.79106938  0.79657774  1
  Rh  Rh239  1  0.39801970  0.00821664  0.39843464  1
  Rh  Rh240  1  0.61357470  0.79631276  -0.00952867  1
  Rh  Rh241  1  0.79430080  0.79048524  0.38803941  1
  Rh  Rh242  1  0.79847710  0.19338976  0.00977999  1
  Rh  Rh243  1  0.40409908  0.79080979  0.40847410  1
  Rh  Rh244  1  0.00594165  0.59867371  0.00411835  1
  Rh  Rh245  1  0.19818867  0.59746751  0.79795679  1
  Rh  Rh246  1  0.79736436  0.20564164  0.79137062  1
  Rh  Rh247  1  0.59866668  0.61372284  0.81815187  1
  Rh  Rh248  1  0.19450177  0.80185084  0.00338357  1
  Rh  Rh249  1  0.38760097  -0.00383827  0.78921556  1
