# generated using pymatgen
data_ZrScNbPdRh
_symmetry_space_group_name_H-M   'P 1'
_cell_length_a   16.56230813
_cell_length_b   16.55915802
_cell_length_c   16.55933415
_cell_angle_alpha   89.99773918
_cell_angle_beta   90.01953417
_cell_angle_gamma   90.00256302
_symmetry_Int_Tables_number   1
_chemical_formula_structural   ZrScNbPdRh
_chemical_formula_sum   'Zr50 Sc50 Nb50 Pd50 Rh50'
_cell_volume   4541.52756382
_cell_formula_units_Z   50
loop_
 _symmetry_equiv_pos_site_id
 _symmetry_equiv_pos_as_xyz
  1  'x, y, z'
loop_
 _atom_site_type_symbol
 _atom_site_label
 _atom_site_symmetry_multiplicity
 _atom_site_fract_x
 _atom_site_fract_y
 _atom_site_fract_z
 _atom_site_occupancy
  Zr  Zr0  1  0.49776281  0.29770236  0.49856051  1
  Zr  Zr1  1  0.31299173  0.90519137  0.10102525  1
  Zr  Zr2  1  0.09841313  0.29061048  0.49683084  1
  Zr  Zr3  1  0.70376241  0.89486566  0.30393501  1
  Zr  Zr4  1  0.69445585  0.30397196  0.10146419  1
  Zr  Zr5  1  0.10204556  0.30295800  0.69782649  1
  Zr  Zr6  1  0.30961306  0.29858318  0.90263700  1
  Zr  Zr7  1  0.69832863  0.90050533  0.11739475  1
  Zr  Zr8  1  0.50024085  0.50163374  0.70373741  1
  Zr  Zr9  1  0.89898755  0.69953014  0.70426892  1
  Zr  Zr10  1  0.30733120  0.10201473  0.69971030  1
  Zr  Zr11  1  0.30253350  0.49708244  0.50125435  1
  Zr  Zr12  1  0.50084019  0.09590772  0.69372900  1
  Zr  Zr13  1  0.10427008  0.51076835  0.10242381  1
  Zr  Zr14  1  0.50523479  0.69955986  0.48657807  1
  Zr  Zr15  1  0.09489242  0.70236827  0.49135194  1
  Zr  Zr16  1  0.69997629  0.09742756  0.51006887  1
  Zr  Zr17  1  0.49936439  0.28925638  0.09431266  1
  Zr  Zr18  1  0.48777339  0.10226653  0.49716916  1
  Zr  Zr19  1  0.89066125  0.69914638  0.50407502  1
  Zr  Zr20  1  0.29773558  0.50656948  0.10035209  1
  Zr  Zr21  1  0.30564547  0.29718885  0.49449113  1
  Zr  Zr22  1  0.50588852  0.30495530  0.69918995  1
  Zr  Zr23  1  0.50029768  0.69345321  0.90051657  1
  Zr  Zr24  1  0.09679410  0.09848338  0.91190463  1
  Zr  Zr25  1  0.30449342  0.90367279  0.71466970  1
  Zr  Zr26  1  0.10990262  0.09942543  0.10338121  1
  Zr  Zr27  1  0.29952972  0.49915150  0.70050933  1
  Zr  Zr28  1  0.09313356  0.70808092  0.89241171  1
  Zr  Zr29  1  0.10724297  0.09860706  0.49874098  1
  Zr  Zr30  1  0.50420870  0.49798316  0.10229253  1
  Zr  Zr31  1  0.88461105  0.89499318  0.49860244  1
  Zr  Zr32  1  0.50836168  0.70002900  0.10362269  1
  Zr  Zr33  1  0.49979732  0.29968962  0.30764605  1
  Zr  Zr34  1  0.10495252  0.29720928  0.30441521  1
  Zr  Zr35  1  0.70248478  0.49245488  0.90117222  1
  Zr  Zr36  1  0.10558777  0.29470208  0.09826517  1
  Zr  Zr37  1  0.90201950  0.29984129  0.30388329  1
  Zr  Zr38  1  0.09862010  0.50648796  0.30279804  1
  Zr  Zr39  1  0.30078727  0.90349514  0.49383301  1
  Zr  Zr40  1  0.89611779  0.49990623  0.69923983  1
  Zr  Zr41  1  0.30857304  0.49950245  0.89890254  1
  Zr  Zr42  1  0.29867787  0.29776292  0.30399401  1
  Zr  Zr43  1  0.49913498  0.90138580  0.70808585  1
  Zr  Zr44  1  0.10374225  0.70225772  0.09414930  1
  Zr  Zr45  1  0.88981703  0.50339587  0.09662719  1
  Zr  Zr46  1  0.90243538  0.89891402  0.90084807  1
  Zr  Zr47  1  0.90104009  0.70176538  0.89958926  1
  Zr  Zr48  1  0.69468607  0.90494999  0.89152335  1
  Zr  Zr49  1  0.10648837  0.90316865  0.89799570  1
  Sc  Sc50  1  0.70569276  0.69730125  0.68983642  1
  Sc  Sc51  1  0.29602923  0.70269876  0.69542979  1
  Sc  Sc52  1  0.89106924  0.50462208  0.89894522  1
  Sc  Sc53  1  0.10495730  0.09565207  0.29770807  1
  Sc  Sc54  1  0.11016992  0.29480885  0.90061965  1
  Sc  Sc55  1  0.30453273  0.70203966  0.49481235  1
  Sc  Sc56  1  0.88240858  0.90035114  0.70267189  1
  Sc  Sc57  1  0.10347843  0.49852637  0.49817080  1
  Sc  Sc58  1  0.69007232  0.70173850  0.29968094  1
  Sc  Sc59  1  0.08928659  0.90592076  0.10247041  1
  Sc  Sc60  1  0.90635878  0.29453542  0.49822308  1
  Sc  Sc61  1  0.29176593  0.49665732  0.30812857  1
  Sc  Sc62  1  0.70148456  0.50156084  0.10944318  1
  Sc  Sc63  1  0.91366276  0.09007585  0.09902056  1
  Sc  Sc64  1  0.10570686  0.51309599  0.89301190  1
  Sc  Sc65  1  0.89116624  0.30444921  0.09964899  1
  Sc  Sc66  1  0.11429430  0.10228850  0.69673541  1
  Sc  Sc67  1  0.50957523  0.50187315  0.30604932  1
  Sc  Sc68  1  0.50016099  0.50039540  0.50488097  1
  Sc  Sc69  1  0.49907909  0.69829877  0.70002993  1
  Sc  Sc70  1  0.11903586  0.89424519  0.70422356  1
  Sc  Sc71  1  0.29701094  0.70282482  0.10111851  1
  Sc  Sc72  1  0.29816804  0.29520941  0.09880896  1
  Sc  Sc73  1  0.69520113  0.29727115  0.88964814  1
  Sc  Sc74  1  0.68713423  0.10343080  0.10955860  1
  Sc  Sc75  1  0.49527051  0.11610848  0.90639950  1
  Sc  Sc76  1  0.70170976  0.69740969  0.10905516  1
  Sc  Sc77  1  0.30495545  0.69607387  0.90203169  1
  Sc  Sc78  1  0.89673433  0.09858285  0.90006420  1
  Sc  Sc79  1  0.90286598  0.70015170  0.10111731  1
  Sc  Sc80  1  0.29770970  0.09632256  0.90023810  1
  Sc  Sc81  1  0.10247089  0.89513993  0.29395949  1
  Sc  Sc82  1  0.88559798  0.30637536  0.89854821  1
  Sc  Sc83  1  0.70316358  0.70282725  0.49207225  1
  Sc  Sc84  1  0.10890154  0.50090299  0.69941426  1
  Sc  Sc85  1  0.88402824  0.10076054  0.69660074  1
  Sc  Sc86  1  0.69441178  0.91913283  0.69828562  1
  Sc  Sc87  1  0.90057279  0.09812635  0.30103321  1
  Sc  Sc88  1  0.89861753  0.50439867  0.48687465  1
  Sc  Sc89  1  0.69642146  0.10424459  0.88892331  1
  Sc  Sc90  1  0.69113665  0.49542378  0.69949907  1
  Sc  Sc91  1  0.49636886  0.89567684  0.29387824  1
  Sc  Sc92  1  0.70051950  0.69365689  0.90024044  1
  Sc  Sc93  1  0.70234793  0.09594304  0.29711542  1
  Sc  Sc94  1  0.89580678  0.89924095  0.28855780  1
  Sc  Sc95  1  0.10396103  0.70214990  0.29293223  1
  Sc  Sc96  1  0.89759743  0.10534654  0.50119380  1
  Sc  Sc97  1  0.29733233  0.08473893  0.30321512  1
  Sc  Sc98  1  0.70820643  0.29717610  0.29306245  1
  Sc  Sc99  1  0.89559720  0.29748759  0.69468675  1
  Nb  Nb100  1  0.49612844  0.09175680  0.10839557  1
  Nb  Nb101  1  0.49045940  0.89270989  0.90345371  1
  Nb  Nb102  1  0.09594073  0.89888848  0.50194576  1
  Nb  Nb103  1  0.50307818  0.90444933  0.50239603  1
  Nb  Nb104  1  0.50152824  0.90378481  0.09555604  1
  Nb  Nb105  1  0.30469845  0.71175263  0.29588572  1
  Nb  Nb106  1  0.29821853  0.89138865  0.29359935  1
  Nb  Nb107  1  0.30334968  0.10018925  0.49941787  1
  Nb  Nb108  1  0.50083162  0.69605654  0.30098215  1
  Nb  Nb109  1  0.69976725  0.10907635  0.70068482  1
  Nb  Nb110  1  0.69996083  0.50201202  0.49955622  1
  Nb  Nb111  1  0.49677595  0.30710713  0.90767836  1
  Nb  Nb112  1  0.50008017  0.49856797  0.89988612  1
  Nb  Nb113  1  0.09535094  0.69960625  0.69980630  1
  Nb  Nb114  1  0.70342260  0.49273042  0.30146457  1
  Nb  Nb115  1  0.69613808  0.89753280  0.49712275  1
  Nb  Nb116  1  0.30568690  0.89671234  0.90019564  1
  Nb  Nb117  1  0.30305563  0.09970863  0.10663933  1
  Nb  Nb118  1  0.89424445  0.90027254  0.09981358  1
  Nb  Nb119  1  0.90388848  0.69408047  0.30711666  1
  Nb  Nb120  1  0.89810267  0.49859167  0.29574370  1
  Nb  Nb121  1  0.29485585  0.30391603  0.70558257  1
  Nb  Nb122  1  0.70109056  0.29763293  0.69718979  1
  Nb  Nb123  1  0.49985088  0.09627800  0.30255463  1
  Nb  Nb124  1  0.69623607  0.29970621  0.50551118  1
  Nb  Nb125  1  0.79499181  0.80781273  0.00368876  1
  Nb  Nb126  1  0.59431730  -0.00256087  0.00218144  1
  Nb  Nb127  1  0.79093008  -0.00198887  0.00437538  1
  Nb  Nb128  1  0.59954809  0.80835775  -0.00064208  1
  Nb  Nb129  1  0.79279883  0.19380006  0.00252841  1
  Nb  Nb130  1  0.59309186  0.39958844  -0.00437577  1
  Nb  Nb131  1  0.40092718  0.60151680  0.20827784  1
  Nb  Nb132  1  0.00245838  0.39675939  0.80277624  1
  Nb  Nb133  1  0.00615873  0.40324839  -0.00062820  1
  Nb  Nb134  1  0.59591042  -0.00203793  0.40377469  1
  Nb  Nb135  1  0.61156969  0.39910264  0.40544318  1
  Nb  Nb136  1  0.19967407  0.40580135  -0.00118893  1
  Nb  Nb137  1  0.00181872  -0.00836394  0.60093471  1
  Nb  Nb138  1  0.00115378  -0.00742291  0.40864222  1
  Nb  Nb139  1  0.00041110  0.60739061  0.60150392  1
  Nb  Nb140  1  0.20366395  0.80805963  -0.00390922  1
  Nb  Nb141  1  0.40139842  0.39900391  0.20170497  1
  Nb  Nb142  1  0.40168186  0.19327698  0.20290401  1
  Nb  Nb143  1  0.00273522  0.00451494  0.79233107  1
  Nb  Nb144  1  0.00144811  0.80247356  0.60053220  1
  Nb  Nb145  1  0.00426897  0.20688684  0.19944675  1
  Nb  Nb146  1  -0.00013978  0.40275750  0.19780059  1
  Nb  Nb147  1  0.79168505  0.39895383  0.59197493  1
  Nb  Nb148  1  0.59825855  0.80857991  0.59409230  1
  Nb  Nb149  1  -0.00021549  0.19959306  0.79975749  1
  Pd  Pd150  1  0.40699978  0.79519654  0.19479936  1
  Pd  Pd151  1  0.20632039  0.60814696  0.80006750  1
  Pd  Pd152  1  0.39724036  0.78850523  0.79939375  1
  Pd  Pd153  1  0.39900438  0.39581960  0.60329541  1
  Pd  Pd154  1  0.20999353  0.20486065  0.59750582  1
  Pd  Pd155  1  -0.00342173  0.59985429  0.20081969  1
  Pd  Pd156  1  0.79306091  0.60391897  0.39014231  1
  Pd  Pd157  1  0.20515944  0.60838412  0.39820669  1
  Pd  Pd158  1  0.19995914  0.79833517  0.59572272  1
  Pd  Pd159  1  0.81183408  0.18960630  0.19046838  1
  Pd  Pd160  1  0.60439861  0.79297398  0.79484276  1
  Pd  Pd161  1  0.40556168  0.20303327  0.79485275  1
  Pd  Pd162  1  0.19980854  0.80061001  0.39846365  1
  Pd  Pd163  1  -0.00666592  0.40872319  0.60126616  1
  Pd  Pd164  1  0.20168751  0.39479850  0.59382946  1
  Pd  Pd165  1  -0.00250133  0.59578473  -0.00637571  1
  Pd  Pd166  1  0.79123098  0.59768983  0.79804439  1
  Pd  Pd167  1  -0.01454058  0.21046862  -0.00205975  1
  Pd  Pd168  1  0.40271827  0.39875978  0.79631856  1
  Pd  Pd169  1  0.20623574  -0.00573357  0.00660084  1
  Pd  Pd170  1  0.39408107  -0.00653444  0.60063983  1
  Pd  Pd171  1  0.79793024  0.60563003  0.20934526  1
  Pd  Pd172  1  0.20157713  0.40098637  0.19612107  1
  Pd  Pd173  1  0.40612597  0.80110335  0.59867765  1
  Pd  Pd174  1  0.19530701  -0.00830913  0.39598008  1
  Pd  Pd175  1  -0.00008020  0.81542102  0.78625705  1
  Pd  Pd176  1  0.60055448  0.60925226  0.59505565  1
  Pd  Pd177  1  0.80010264  0.00404626  0.39968743  1
  Pd  Pd178  1  0.40148244  0.60493927  0.00869768  1
  Pd  Pd179  1  0.40536706  0.80712099  0.39980568  1
  Pd  Pd180  1  -0.00807865  0.80586151  0.39799749  1
  Pd  Pd181  1  0.39626653  0.59430132  0.39332157  1
  Pd  Pd182  1  0.40158185  0.60664670  0.59975315  1
  Pd  Pd183  1  0.60897115  0.59647364  0.00201790  1
  Pd  Pd184  1  0.78809228  0.79864326  0.80055427  1
  Pd  Pd185  1  0.59564625  0.19729203  0.59914454  1
  Pd  Pd186  1  0.60601936  0.60170799  0.79697824  1
  Pd  Pd187  1  0.59468596  0.20049767  0.20877828  1
  Pd  Pd188  1  0.79798311  0.39406776  0.40504158  1
  Pd  Pd189  1  0.40485318  0.00875757  -0.00749206  1
  Pd  Pd190  1  0.19876437  0.19612337  0.80459360  1
  Pd  Pd191  1  0.79568245  0.19829472  0.40319601  1
  Pd  Pd192  1  -0.00347363  0.79670484  0.19862023  1
  Pd  Pd193  1  0.61108367  0.19717516  0.39643327  1
  Pd  Pd194  1  0.59207380  0.20188751  0.79956567  1
  Pd  Pd195  1  0.58583466  0.01028359  0.81050501  1
  Pd  Pd196  1  0.00253961  0.40457248  0.39792139  1
  Pd  Pd197  1  -0.00261709  0.18675158  0.60963896  1
  Pd  Pd198  1  0.20457716  -0.00480301  0.60143383  1
  Pd  Pd199  1  0.19508633  0.60576615  0.59415986  1
  Rh  Rh200  1  0.40106663  0.00121095  0.20916038  1
  Rh  Rh201  1  0.78892759  0.80741893  0.60482997  1
  Rh  Rh202  1  0.80348832  0.58857444  0.59739160  1
  Rh  Rh203  1  0.59418180  0.80738264  0.40084155  1
  Rh  Rh204  1  0.80346536  0.20050169  0.80280137  1
  Rh  Rh205  1  0.39418077  0.19190197  0.00903847  1
  Rh  Rh206  1  0.19446571  0.39760151  0.40887433  1
  Rh  Rh207  1  0.19995895  0.00728991  0.80261544  1
  Rh  Rh208  1  0.39010719  0.18766621  0.39082847  1
  Rh  Rh209  1  0.19783500  0.60781021  -0.00957418  1
  Rh  Rh210  1  0.80310600  0.00719010  0.19537451  1
  Rh  Rh211  1  -0.00466531  -0.00617599  -0.00538167  1
  Rh  Rh212  1  0.21196172  0.19980456  -0.00219349  1
  Rh  Rh213  1  0.59961759  0.59655755  0.20892924  1
  Rh  Rh214  1  0.80140926  0.39591188  0.78670570  1
  Rh  Rh215  1  0.59968999  0.00072315  0.59567369  1
  Rh  Rh216  1  0.41019596  0.40892080  0.39712452  1
  Rh  Rh217  1  0.20135047  0.80503799  0.18853194  1
  Rh  Rh218  1  0.21124372  0.60807162  0.21238520  1
  Rh  Rh219  1  0.79838026  0.00025459  0.59945672  1
  Rh  Rh220  1  0.00045828  0.80361559  0.00575162  1
  Rh  Rh221  1  0.00377352  0.18600004  0.39216361  1
  Rh  Rh222  1  0.78928769  0.39368746  0.00223452  1
  Rh  Rh223  1  0.80832171  0.78882280  0.20222715  1
  Rh  Rh224  1  0.80259638  0.79230719  0.38891763  1
  Rh  Rh225  1  0.80544130  0.40210997  0.20127385  1
  Rh  Rh226  1  0.39498946  0.20895106  0.60773479  1
  Rh  Rh227  1  0.40215816  -0.00645218  0.39526874  1
  Rh  Rh228  1  0.60398423  0.40138865  0.59530423  1
  Rh  Rh229  1  0.20817877  0.79186302  0.80768329  1
  Rh  Rh230  1  0.59489738  -0.00336217  0.20849220  1
  Rh  Rh231  1  0.40164743  0.79344280  0.00219270  1
  Rh  Rh232  1  -0.00028046  0.00628268  0.21035643  1
  Rh  Rh233  1  0.20540194  0.19226068  0.20651158  1
  Rh  Rh234  1  -0.00031284  0.60026591  0.40086004  1
  Rh  Rh235  1  0.60695848  0.20131906  -0.00257254  1
  Rh  Rh236  1  0.00023348  0.58896632  0.79129031  1
  Rh  Rh237  1  0.59776657  0.39826088  0.80561809  1
  Rh  Rh238  1  0.20403128  -0.00929165  0.19743751  1
  Rh  Rh239  1  0.59432096  0.80138640  0.20077902  1
  Rh  Rh240  1  0.79667341  0.61125038  0.00254989  1
  Rh  Rh241  1  0.20687312  0.19228125  0.40005933  1
  Rh  Rh242  1  0.59631298  0.39840073  0.20460680  1
  Rh  Rh243  1  0.40441193  0.00525185  0.80907931  1
  Rh  Rh244  1  0.79857020  0.20802340  0.59794376  1
  Rh  Rh245  1  0.19854506  0.39904795  0.80753500  1
  Rh  Rh246  1  0.80292429  0.00890687  0.80343932  1
  Rh  Rh247  1  0.60632420  0.59246386  0.39898514  1
  Rh  Rh248  1  0.39845686  0.60029533  0.79369094  1
  Rh  Rh249  1  0.39960373  0.40448675  0.00855098  1
