# generated using pymatgen
data_ZrScNbPdRh
_symmetry_space_group_name_H-M   'P 1'
_cell_length_a   16.54863811
_cell_length_b   16.55160291
_cell_length_c   16.55121178
_cell_angle_alpha   90.02500970
_cell_angle_beta   90.03343302
_cell_angle_gamma   90.03905837
_symmetry_Int_Tables_number   1
_chemical_formula_structural   ZrScNbPdRh
_chemical_formula_sum   'Zr50 Sc50 Nb50 Pd50 Rh50'
_cell_volume   4533.48201090
_cell_formula_units_Z   50
loop_
 _symmetry_equiv_pos_site_id
 _symmetry_equiv_pos_as_xyz
  1  'x, y, z'
loop_
 _atom_site_type_symbol
 _atom_site_label
 _atom_site_symmetry_multiplicity
 _atom_site_fract_x
 _atom_site_fract_y
 _atom_site_fract_z
 _atom_site_occupancy
  Zr  Zr0  1  0.50343483  0.09448274  0.69878972  1
  Zr  Zr1  1  0.30600210  0.29923416  0.49500834  1
  Zr  Zr2  1  0.31231471  0.29372404  0.89647631  1
  Zr  Zr3  1  0.70565006  0.29921307  0.90114278  1
  Zr  Zr4  1  0.89640337  0.70330448  0.69339517  1
  Zr  Zr5  1  0.29873192  0.30317815  0.10952631  1
  Zr  Zr6  1  0.89817746  0.50470162  0.70615511  1
  Zr  Zr7  1  0.09681883  0.09706303  0.30251873  1
  Zr  Zr8  1  0.50285024  0.69658504  0.71083229  1
  Zr  Zr9  1  0.29347169  0.88955224  0.71232470  1
  Zr  Zr10  1  0.70249831  0.51249395  0.69643674  1
  Zr  Zr11  1  0.10374629  0.29800736  0.29542276  1
  Zr  Zr12  1  0.10414010  0.08985773  0.49326559  1
  Zr  Zr13  1  0.70441464  0.51483541  0.28641569  1
  Zr  Zr14  1  0.90050193  0.50330040  0.29998933  1
  Zr  Zr15  1  0.11497280  0.70040705  0.29736574  1
  Zr  Zr16  1  0.70711481  0.30239736  0.09972520  1
  Zr  Zr17  1  0.10189056  0.30848262  0.70137591  1
  Zr  Zr18  1  0.30000244  0.09648667  0.69492337  1
  Zr  Zr19  1  0.69261827  0.50116152  0.50374110  1
  Zr  Zr20  1  0.90046938  0.89555027  0.10706067  1
  Zr  Zr21  1  0.09320839  0.09704232  0.10627405  1
  Zr  Zr22  1  0.10223883  0.49451633  0.29321614  1
  Zr  Zr23  1  0.10008710  0.30371279  0.10268743  1
  Zr  Zr24  1  0.70441499  0.30077722  0.49675142  1
  Zr  Zr25  1  0.49142665  0.50774816  0.89523465  1
  Zr  Zr26  1  0.11123473  0.89499594  0.90271960  1
  Zr  Zr27  1  0.89896917  0.09299716  0.90014942  1
  Zr  Zr28  1  0.89856715  0.89736622  0.89928711  1
  Zr  Zr29  1  0.49273872  0.11542333  0.89629435  1
  Zr  Zr30  1  0.50504302  0.89964266  0.69385477  1
  Zr  Zr31  1  0.49351350  0.50658051  0.29770938  1
  Zr  Zr32  1  0.49931857  0.91271608  0.30215650  1
  Zr  Zr33  1  0.30366711  0.10160067  0.49874814  1
  Zr  Zr34  1  0.31163786  0.70290956  0.88677562  1
  Zr  Zr35  1  0.29588036  0.30647017  0.69420069  1
  Zr  Zr36  1  0.90042684  0.89407372  0.30062488  1
  Zr  Zr37  1  0.30169281  0.10043188  0.09910709  1
  Zr  Zr38  1  0.49853149  0.30189009  0.49779387  1
  Zr  Zr39  1  0.90265532  0.70004148  0.29384384  1
  Zr  Zr40  1  0.69910934  0.89232993  0.70071621  1
  Zr  Zr41  1  0.90298276  0.10782409  0.50331794  1
  Zr  Zr42  1  0.90166928  0.30128204  0.30433394  1
  Zr  Zr43  1  0.49560861  0.70157615  0.29799468  1
  Zr  Zr44  1  0.30123744  0.50304450  0.29399866  1
  Zr  Zr45  1  0.30378278  0.69895237  0.29927302  1
  Zr  Zr46  1  0.09447408  0.09789975  0.68967462  1
  Zr  Zr47  1  0.70924569  0.49110404  0.89439516  1
  Zr  Zr48  1  0.49932674  0.09845808  0.11306746  1
  Zr  Zr49  1  0.09306642  0.31517905  0.89946747  1
  Sc  Sc50  1  0.91186625  0.49684523  0.89555791  1
  Sc  Sc51  1  0.91050226  0.88845146  0.49873334  1
  Sc  Sc52  1  0.50547530  0.87884090  0.90550483  1
  Sc  Sc53  1  0.30047002  0.90538347  0.49280099  1
  Sc  Sc54  1  0.69982863  0.89445847  0.90129057  1
  Sc  Sc55  1  0.71282774  0.70239410  0.29594501  1
  Sc  Sc56  1  0.09989918  0.51134370  0.50221335  1
  Sc  Sc57  1  0.69828352  0.10723747  0.49194181  1
  Sc  Sc58  1  0.89736394  0.29777265  0.69052105  1
  Sc  Sc59  1  0.70382454  0.70081734  0.51437074  1
  Sc  Sc60  1  0.09725489  0.08965620  0.90848961  1
  Sc  Sc61  1  0.10388678  0.29211429  0.49210431  1
  Sc  Sc62  1  0.30386778  0.49505551  0.49910091  1
  Sc  Sc63  1  0.70096320  0.10737736  0.11606374  1
  Sc  Sc64  1  0.70011795  0.69863809  0.10651330  1
  Sc  Sc65  1  0.30005068  0.09501123  0.30380315  1
  Sc  Sc66  1  0.29448114  0.89852314  0.10204509  1
  Sc  Sc67  1  0.09684668  0.69325270  0.90764573  1
  Sc  Sc68  1  0.50006783  0.91218862  0.50172435  1
  Sc  Sc69  1  0.90870416  0.69851243  0.49813747  1
  Sc  Sc70  1  0.89348835  0.49189142  0.10222178  1
  Sc  Sc71  1  0.70378976  0.31113588  0.69871906  1
  Sc  Sc72  1  0.49045744  0.30186422  0.71162056  1
  Sc  Sc73  1  0.48977700  0.29337868  0.10828452  1
  Sc  Sc74  1  0.10145734  0.89743248  0.69069856  1
  Sc  Sc75  1  0.49417215  0.89677526  0.10603757  1
  Sc  Sc76  1  0.69406504  0.10162479  0.30141144  1
  Sc  Sc77  1  0.90392493  0.09917189  0.29456191  1
  Sc  Sc78  1  0.49610262  0.30027254  0.30480215  1
  Sc  Sc79  1  0.29482577  0.09785696  0.90005501  1
  Sc  Sc80  1  0.49491874  0.70225673  0.09805417  1
  Sc  Sc81  1  0.69806370  0.29016216  0.30338495  1
  Sc  Sc82  1  0.90843704  0.70306119  0.09320538  1
  Sc  Sc83  1  0.09896127  0.90274396  0.29948494  1
  Sc  Sc84  1  0.10323128  0.70472252  0.09544998  1
  Sc  Sc85  1  0.10962845  0.69753065  0.69129915  1
  Sc  Sc86  1  0.09975282  0.70665303  0.50092795  1
  Sc  Sc87  1  0.69447893  0.09495635  0.89220130  1
  Sc  Sc88  1  0.50370513  0.10311363  0.30634079  1
  Sc  Sc89  1  0.29927788  0.70049476  0.10778789  1
  Sc  Sc90  1  0.49659194  0.49498934  0.49907553  1
  Sc  Sc91  1  0.50106834  0.70014104  0.50267399  1
  Sc  Sc92  1  0.50422572  0.50018926  0.69964882  1
  Sc  Sc93  1  0.90517504  0.69777162  0.90444782  1
  Sc  Sc94  1  0.69205004  0.70945765  0.89879699  1
  Sc  Sc95  1  0.29249514  0.69799327  0.49259327  1
  Sc  Sc96  1  0.30203788  0.89500363  0.29921540  1
  Sc  Sc97  1  0.89707446  0.29018512  0.09695685  1
  Sc  Sc98  1  0.89616854  0.50410853  0.49344650  1
  Sc  Sc99  1  0.28512717  0.50083196  0.70231416  1
  Nb  Nb100  1  0.29459652  0.30535162  0.30339556  1
  Nb  Nb101  1  0.30089336  0.70184248  0.69729809  1
  Nb  Nb102  1  0.89659754  0.29472183  0.89641697  1
  Nb  Nb103  1  0.89843687  0.09170272  0.70150822  1
  Nb  Nb104  1  0.09571964  0.49224600  0.71345646  1
  Nb  Nb105  1  0.29381412  0.50665121  0.90622609  1
  Nb  Nb106  1  0.49820777  0.69527482  0.90428040  1
  Nb  Nb107  1  0.69843739  0.90093900  0.49874971  1
  Nb  Nb108  1  0.69984855  0.09384667  0.70274573  1
  Nb  Nb109  1  0.49481420  0.10090582  0.50128887  1
  Nb  Nb110  1  0.89455531  0.30263845  0.49683740  1
  Nb  Nb111  1  0.09739221  0.89732039  0.48838591  1
  Nb  Nb112  1  0.10362620  0.49995162  0.89889646  1
  Nb  Nb113  1  0.30069538  0.90168893  0.89892129  1
  Nb  Nb114  1  0.10840199  0.50191695  0.08491480  1
  Nb  Nb115  1  0.49837839  0.50303314  0.10257126  1
  Nb  Nb116  1  0.10308505  0.90008802  0.09560757  1
  Nb  Nb117  1  0.70258476  0.90227014  0.30144486  1
  Nb  Nb118  1  0.89940504  0.90515427  0.70539852  1
  Nb  Nb119  1  0.69549794  0.69984835  0.69341519  1
  Nb  Nb120  1  0.90033682  0.09821755  0.10092299  1
  Nb  Nb121  1  0.30418721  0.50186965  0.09858789  1
  Nb  Nb122  1  0.69585408  0.90093057  0.10564352  1
  Nb  Nb123  1  0.69924667  0.50052251  0.09781421  1
  Nb  Nb124  1  0.49936605  0.30365523  0.90477177  1
  Nb  Nb125  1  0.59914925  0.59434173  0.00070372  1
  Nb  Nb126  1  -0.00064497  0.40137234  0.59787374  1
  Nb  Nb127  1  0.60621986  0.80305681  0.39885494  1
  Nb  Nb128  1  0.79529994  -0.00076144  0.00995707  1
  Nb  Nb129  1  0.80040671  -0.00197690  0.60175242  1
  Nb  Nb130  1  0.60190193  0.60597052  0.39597585  1
  Nb  Nb131  1  0.79350437  0.59466537  -0.00068024  1
  Nb  Nb132  1  0.80479805  0.19239693  0.79490805  1
  Nb  Nb133  1  0.59234435  0.40057050  0.00292374  1
  Nb  Nb134  1  0.59671404  0.20259374  0.00138592  1
  Nb  Nb135  1  0.39642581  0.79681025  0.60520068  1
  Nb  Nb136  1  0.19689577  0.20335568  -0.00080926  1
  Nb  Nb137  1  0.40027924  -0.00712152  0.80602039  1
  Nb  Nb138  1  0.00829386  0.59373748  0.19474311  1
  Nb  Nb139  1  0.59781450  0.00330624  0.00611177  1
  Nb  Nb140  1  0.40058663  0.40689725  0.00173553  1
  Nb  Nb141  1  0.79889782  -0.00629862  0.40511725  1
  Nb  Nb142  1  0.40326097  -0.00197324  -0.00606209  1
  Nb  Nb143  1  0.39435591  0.60583325  0.60631007  1
  Nb  Nb144  1  0.60295975  0.80575702  0.20841468  1
  Nb  Nb145  1  -0.00083692  0.80332460  0.79539496  1
  Nb  Nb146  1  -0.00340907  0.19656439  0.79886798  1
  Nb  Nb147  1  0.19203214  0.20119940  0.80132500  1
  Nb  Nb148  1  0.59899490  0.40595288  0.19351531  1
  Nb  Nb149  1  0.59838114  0.19788607  0.60244185  1
  Pd  Pd150  1  0.21052835  0.39408795  -0.00419974  1
  Pd  Pd151  1  0.19697374  0.20169869  0.59886903  1
  Pd  Pd152  1  0.60813378  0.20987795  0.79511191  1
  Pd  Pd153  1  -0.00947176  0.40189810  0.00578241  1
  Pd  Pd154  1  0.19573167  0.60490684  0.80109527  1
  Pd  Pd155  1  0.20970144  0.79112220  -0.00297398  1
  Pd  Pd156  1  0.59198433  -0.01078148  0.81358674  1
  Pd  Pd157  1  0.39462211  0.19879065  0.21587315  1
  Pd  Pd158  1  0.40714950  0.20445678  0.60445879  1
  Pd  Pd159  1  -0.00052614  0.19987738  0.39864121  1
  Pd  Pd160  1  0.19763363  0.40520657  0.40462132  1
  Pd  Pd161  1  0.00706797  0.60556249  0.39129138  1
  Pd  Pd162  1  0.79725447  0.79816063  0.40863899  1
  Pd  Pd163  1  0.60658749  0.40972814  0.38597576  1
  Pd  Pd164  1  0.60022305  0.39902747  0.80022773  1
  Pd  Pd165  1  -0.00576622  -0.00855775  0.00599327  1
  Pd  Pd166  1  0.00518789  0.40042370  0.41031843  1
  Pd  Pd167  1  0.00786329  0.61117608  0.79544413  1
  Pd  Pd168  1  0.80509013  0.80638685  0.59529331  1
  Pd  Pd169  1  0.80773862  0.40900868  0.59801850  1
  Pd  Pd170  1  0.20819784  0.61101740  -0.00012873  1
  Pd  Pd171  1  0.79124355  0.18567488  -0.00469871  1
  Pd  Pd172  1  0.19145532  0.40585506  0.58874873  1
  Pd  Pd173  1  0.19705793  0.00638965  0.79835100  1
  Pd  Pd174  1  0.60726717  0.60180631  0.80791395  1
  Pd  Pd175  1  0.79509755  0.39374435  0.20859663  1
  Pd  Pd176  1  0.79037079  0.40428040  0.39184395  1
  Pd  Pd177  1  0.39091854  0.41139398  0.80085938  1
  Pd  Pd178  1  0.00505334  0.20037457  -0.00432171  1
  Pd  Pd179  1  0.40727642  0.80369380  0.40987236  1
  Pd  Pd180  1  -0.00146228  0.40269505  0.19117884  1
  Pd  Pd181  1  0.79041711  0.19378158  0.60502800  1
  Pd  Pd182  1  0.59294465  0.39232079  0.60625270  1
  Pd  Pd183  1  0.39316244  0.80253879  0.00414585  1
  Pd  Pd184  1  0.79720235  0.61284107  0.80932550  1
  Pd  Pd185  1  0.20161664  0.19362257  0.20095119  1
  Pd  Pd186  1  0.60934379  0.00839451  0.59080058  1
  Pd  Pd187  1  0.79452199  0.79614806  0.00590228  1
  Pd  Pd188  1  0.20591594  0.80486616  0.58847137  1
  Pd  Pd189  1  0.79340632  0.60803381  0.40846695  1
  Pd  Pd190  1  0.01168422  0.79541985  0.20041978  1
  Pd  Pd191  1  0.00233657  0.20881161  0.60067038  1
  Pd  Pd192  1  0.01186058  -0.00497070  0.79961231  1
  Pd  Pd193  1  0.00292622  0.59480341  0.60546877  1
  Pd  Pd194  1  0.20141182  0.59513487  0.40294551  1
  Pd  Pd195  1  -0.00542340  -0.00909419  0.59176795  1
  Pd  Pd196  1  0.80349225  0.79226610  0.80099983  1
  Pd  Pd197  1  0.20363620  -0.01061773  0.59485154  1
  Pd  Pd198  1  0.20117596  -0.00429966  0.20263624  1
  Pd  Pd199  1  0.80046015  0.00394916  0.20451151  1
  Rh  Rh200  1  0.39958951  0.59982823  0.00373268  1
  Rh  Rh201  1  0.39022338  0.19278884  0.78865230  1
  Rh  Rh202  1  0.40129123  0.40091892  0.20124435  1
  Rh  Rh203  1  0.79255806  -0.00119321  0.80115821  1
  Rh  Rh204  1  0.59281959  0.19922746  0.40963062  1
  Rh  Rh205  1  0.39790253  0.19990647  0.39658511  1
  Rh  Rh206  1  0.39779455  0.60446255  0.19308718  1
  Rh  Rh207  1  0.00082588  0.80178331  0.60656791  1
  Rh  Rh208  1  0.00419828  0.80763860  -0.00764832  1
  Rh  Rh209  1  0.60073567  0.21285106  0.19695216  1
  Rh  Rh210  1  -0.00419484  0.20258754  0.20006294  1
  Rh  Rh211  1  0.81721828  0.60813916  0.18542213  1
  Rh  Rh212  1  0.59961291  -0.00406158  0.19983616  1
  Rh  Rh213  1  0.39128976  -0.01078063  0.60764242  1
  Rh  Rh214  1  0.39971043  0.40918429  0.60736063  1
  Rh  Rh215  1  0.80703724  0.40484826  -0.00581836  1
  Rh  Rh216  1  0.00000384  -0.00502393  0.19825053  1
  Rh  Rh217  1  0.39155148  0.59315648  0.79038507  1
  Rh  Rh218  1  0.59871987  0.79692681  0.79800507  1
  Rh  Rh219  1  0.20270707  0.40696261  0.19727037  1
  Rh  Rh220  1  0.19912429  0.80485658  0.39816601  1
  Rh  Rh221  1  0.20674124  0.00379138  0.00625275  1
  Rh  Rh222  1  -0.00597137  0.58697094  0.00778465  1
  Rh  Rh223  1  0.20770103  0.39876910  0.81264527  1
  Rh  Rh224  1  0.00728738  0.79423389  0.39345988  1
  Rh  Rh225  1  0.39402974  -0.00142584  0.19691458  1
  Rh  Rh226  1  0.39971348  0.00550496  0.40006329  1
  Rh  Rh227  1  0.80630718  0.19976648  0.20806841  1
  Rh  Rh228  1  0.20105852  -0.00376636  0.39674946  1
  Rh  Rh229  1  0.60519599  0.00142545  0.40373928  1
  Rh  Rh230  1  0.19799853  0.80714075  0.19968732  1
  Rh  Rh231  1  0.39610641  0.39977034  0.39201241  1
  Rh  Rh232  1  0.59084715  0.60199904  0.59373767  1
  Rh  Rh233  1  0.59354578  0.79694822  0.59519190  1
  Rh  Rh234  1  0.80423751  0.59998592  0.59655093  1
  Rh  Rh235  1  0.40219817  0.80157684  0.20173611  1
  Rh  Rh236  1  0.60179382  0.79572275  0.01452718  1
  Rh  Rh237  1  0.18855195  0.78806920  0.80673976  1
  Rh  Rh238  1  0.19513807  0.59313672  0.18874573  1
  Rh  Rh239  1  0.20414082  0.59700990  0.59896500  1
  Rh  Rh240  1  0.80862450  0.39153007  0.79663268  1
  Rh  Rh241  1  0.80729436  0.19295028  0.39513945  1
  Rh  Rh242  1  0.79608317  0.79827820  0.19450522  1
  Rh  Rh243  1  0.40929604  0.80495865  0.79667988  1
  Rh  Rh244  1  0.40396709  0.59831260  0.41212948  1
  Rh  Rh245  1  0.39834932  0.20034203  0.00603066  1
  Rh  Rh246  1  0.59438878  0.60610768  0.19987045  1
  Rh  Rh247  1  -0.00938417  -0.00104257  0.40171849  1
  Rh  Rh248  1  -0.01111812  0.39221408  0.79134306  1
  Rh  Rh249  1  0.20518532  0.19747921  0.39505484  1
