# generated using pymatgen
data_ZrScNbPdRh
_symmetry_space_group_name_H-M   'P 1'
_cell_length_a   16.55433765
_cell_length_b   16.55529518
_cell_length_c   16.55525490
_cell_angle_alpha   90.02179265
_cell_angle_beta   90.01480901
_cell_angle_gamma   90.00998153
_symmetry_Int_Tables_number   1
_chemical_formula_structural   ZrScNbPdRh
_chemical_formula_sum   'Zr50 Sc50 Nb50 Pd50 Rh50'
_cell_volume   4537.16482868
_cell_formula_units_Z   50
loop_
 _symmetry_equiv_pos_site_id
 _symmetry_equiv_pos_as_xyz
  1  'x, y, z'
loop_
 _atom_site_type_symbol
 _atom_site_label
 _atom_site_symmetry_multiplicity
 _atom_site_fract_x
 _atom_site_fract_y
 _atom_site_fract_z
 _atom_site_occupancy
  Zr  Zr0  1  0.70378803  0.10431456  0.69062835  1
  Zr  Zr1  1  0.90251787  0.09722741  0.30150576  1
  Zr  Zr2  1  0.09954826  0.50107895  0.70340496  1
  Zr  Zr3  1  0.30972516  0.91338785  0.89623014  1
  Zr  Zr4  1  0.29240605  0.09844832  0.09571841  1
  Zr  Zr5  1  0.90172710  0.29899729  0.90216476  1
  Zr  Zr6  1  0.10007708  0.70199793  0.29882244  1
  Zr  Zr7  1  0.49587843  0.51116883  0.89874750  1
  Zr  Zr8  1  0.09655884  0.29517674  0.10387047  1
  Zr  Zr9  1  0.10527465  0.90052179  0.10299930  1
  Zr  Zr10  1  0.30478841  0.50212284  0.29854561  1
  Zr  Zr11  1  0.89825536  0.89780980  0.29905951  1
  Zr  Zr12  1  0.69775317  0.50282108  0.29621680  1
  Zr  Zr13  1  0.69685534  0.49888966  0.69227128  1
  Zr  Zr14  1  0.70342742  0.70029238  0.49592661  1
  Zr  Zr15  1  0.09826027  0.91299489  0.69409864  1
  Zr  Zr16  1  0.90129173  0.29980794  0.50342785  1
  Zr  Zr17  1  0.30582339  0.29452145  0.49863859  1
  Zr  Zr18  1  0.49661158  0.49389412  0.49767487  1
  Zr  Zr19  1  0.89162820  0.10312741  0.50148709  1
  Zr  Zr20  1  0.50438315  0.09974214  0.29304064  1
  Zr  Zr21  1  0.90559607  0.90402078  0.49901111  1
  Zr  Zr22  1  0.89976383  0.10330953  0.10037136  1
  Zr  Zr23  1  0.90893113  0.09755838  0.69491421  1
  Zr  Zr24  1  0.50198454  0.49091759  0.69999963  1
  Zr  Zr25  1  0.09952821  0.48976973  0.89912875  1
  Zr  Zr26  1  0.89559411  0.50055276  0.51241217  1
  Zr  Zr27  1  0.69597931  0.29284593  0.30371631  1
  Zr  Zr28  1  0.09796652  0.51077484  0.50903753  1
  Zr  Zr29  1  0.70390309  0.89868490  0.49663732  1
  Zr  Zr30  1  0.31369672  0.70000439  0.90603034  1
  Zr  Zr31  1  0.29212061  0.69963752  0.29105004  1
  Zr  Zr32  1  0.10070085  0.69931337  0.69088408  1
  Zr  Zr33  1  0.11315786  0.10499609  0.89323501  1
  Zr  Zr34  1  0.49042207  0.70424357  0.08973614  1
  Zr  Zr35  1  0.70062352  0.89563148  0.30064420  1
  Zr  Zr36  1  0.89473167  0.70117378  0.89681046  1
  Zr  Zr37  1  0.11111003  0.70532638  0.10549641  1
  Zr  Zr38  1  0.48932500  0.08768558  0.90281638  1
  Zr  Zr39  1  0.09324351  0.70262107  0.49932965  1
  Zr  Zr40  1  0.69760973  0.09628207  0.90355585  1
  Zr  Zr41  1  0.31315129  0.30179056  0.69881594  1
  Zr  Zr42  1  0.49813993  0.30122222  0.30585877  1
  Zr  Zr43  1  0.09774929  0.50244396  0.29471411  1
  Zr  Zr44  1  0.30368234  0.90019181  0.49427151  1
  Zr  Zr45  1  0.28923472  0.70082026  0.49964338  1
  Zr  Zr46  1  0.29960924  0.09693697  0.48804249  1
  Zr  Zr47  1  0.69430736  0.50230574  0.10046616  1
  Zr  Zr48  1  0.50053711  0.29528757  0.89497636  1
  Zr  Zr49  1  0.10226686  0.29236690  0.70545587  1
  Sc  Sc50  1  0.90219363  0.29955293  0.09463763  1
  Sc  Sc51  1  0.30249140  0.70176079  0.70029563  1
  Sc  Sc52  1  0.90480414  0.30392158  0.28769719  1
  Sc  Sc53  1  0.10160902  0.90241883  0.29984339  1
  Sc  Sc54  1  0.49643601  0.50765566  0.10630919  1
  Sc  Sc55  1  0.30303272  0.50328546  0.71087602  1
  Sc  Sc56  1  0.89612198  0.49375820  0.09891941  1
  Sc  Sc57  1  0.49649606  0.11048786  0.50011599  1
  Sc  Sc58  1  0.10524182  0.90644956  0.90541013  1
  Sc  Sc59  1  0.69865943  0.69837020  0.71052931  1
  Sc  Sc60  1  0.70017761  0.69948079  0.30248205  1
  Sc  Sc61  1  0.49970318  0.70495390  0.49287262  1
  Sc  Sc62  1  0.10192757  0.29198391  0.51030483  1
  Sc  Sc63  1  0.69853423  0.90673480  0.09557951  1
  Sc  Sc64  1  0.10818722  0.09559912  0.50606781  1
  Sc  Sc65  1  0.69549467  0.50337316  0.90567434  1
  Sc  Sc66  1  0.89925564  0.70189364  0.30050763  1
  Sc  Sc67  1  0.10686471  0.69895101  0.90645695  1
  Sc  Sc68  1  0.30076167  0.89961415  0.10169560  1
  Sc  Sc69  1  0.69849698  0.50718979  0.50204102  1
  Sc  Sc70  1  0.50456354  0.09164898  0.09842420  1
  Sc  Sc71  1  0.30189554  0.50410268  0.10186972  1
  Sc  Sc72  1  0.69177174  0.69689655  0.89892692  1
  Sc  Sc73  1  0.29308631  0.28993087  0.90305106  1
  Sc  Sc74  1  0.68903269  0.69459601  0.09551868  1
  Sc  Sc75  1  0.30359829  0.90697266  0.30300289  1
  Sc  Sc76  1  0.90035983  0.49897900  0.69651238  1
  Sc  Sc77  1  0.30369407  0.89874161  0.69982549  1
  Sc  Sc78  1  0.49599702  0.50300297  0.30063457  1
  Sc  Sc79  1  0.90032178  0.90126291  0.10753078  1
  Sc  Sc80  1  0.89535065  0.10648854  0.90085323  1
  Sc  Sc81  1  0.69261191  0.09583456  0.09966849  1
  Sc  Sc82  1  0.89910348  0.49752960  0.89830014  1
  Sc  Sc83  1  0.49748601  0.69742360  0.71257948  1
  Sc  Sc84  1  0.49573607  0.69744487  0.29595105  1
  Sc  Sc85  1  0.29788087  0.29031190  0.30489959  1
  Sc  Sc86  1  0.70180518  0.28810242  0.50318032  1
  Sc  Sc87  1  0.49975735  0.11165574  0.70094737  1
  Sc  Sc88  1  0.69650900  0.29666142  0.09339524  1
  Sc  Sc89  1  0.89829618  0.50347752  0.28797651  1
  Sc  Sc90  1  0.69827217  0.29102867  0.90270796  1
  Sc  Sc91  1  0.10178896  0.49210194  0.09390275  1
  Sc  Sc92  1  0.90802082  0.70777426  0.10665470  1
  Sc  Sc93  1  0.89650521  0.69735966  0.70294589  1
  Sc  Sc94  1  0.10330046  0.89759503  0.50001624  1
  Sc  Sc95  1  0.29480485  0.49901208  0.90417362  1
  Sc  Sc96  1  0.90196315  0.29615537  0.69080379  1
  Sc  Sc97  1  0.69439092  0.88808960  0.89750022  1
  Sc  Sc98  1  0.90431627  0.90267714  0.69538132  1
  Sc  Sc99  1  0.29204337  0.09242565  0.71077357  1
  Nb  Nb100  1  0.50492633  0.90177772  0.09872199  1
  Nb  Nb101  1  0.69746040  0.10495094  0.30527424  1
  Nb  Nb102  1  0.09928121  0.30734716  0.90449979  1
  Nb  Nb103  1  0.29791985  0.49942638  0.50184474  1
  Nb  Nb104  1  0.49926796  0.90078148  0.49416129  1
  Nb  Nb105  1  0.70369072  0.09881289  0.49683916  1
  Nb  Nb106  1  0.30057375  0.70140615  0.10174196  1
  Nb  Nb107  1  0.50004518  0.89788595  0.70213040  1
  Nb  Nb108  1  0.11002254  0.11268573  0.28721561  1
  Nb  Nb109  1  0.50111123  0.90398695  0.30223844  1
  Nb  Nb110  1  0.09985773  0.09807107  0.10581841  1
  Nb  Nb111  1  0.89957266  0.70277072  0.50543477  1
  Nb  Nb112  1  0.30356418  0.30344735  0.10256982  1
  Nb  Nb113  1  0.10103799  0.29956511  0.30012862  1
  Nb  Nb114  1  0.70036101  0.89846959  0.70042927  1
  Nb  Nb115  1  0.30053850  0.10361180  0.29885083  1
  Nb  Nb116  1  0.30128715  0.09430628  0.90199791  1
  Nb  Nb117  1  0.90124514  0.89902629  0.89921754  1
  Nb  Nb118  1  0.50622018  0.30211121  0.69053106  1
  Nb  Nb119  1  0.49800383  0.30078734  0.10557329  1
  Nb  Nb120  1  0.10178617  0.09865749  0.69886554  1
  Nb  Nb121  1  0.49958205  0.89043591  0.90146643  1
  Nb  Nb122  1  0.50183292  0.70889459  0.90245011  1
  Nb  Nb123  1  0.69112448  0.30095386  0.70119712  1
  Nb  Nb124  1  0.48995788  0.29977466  0.51414487  1
  Nb  Nb125  1  0.39846245  0.19942200  0.19648395  1
  Nb  Nb126  1  0.20587901  0.40302395  0.59916317  1
  Nb  Nb127  1  0.79645863  0.80129205  0.59950615  1
  Nb  Nb128  1  0.80429597  0.39937834  0.39999145  1
  Nb  Nb129  1  0.59210022  0.80680634  0.19885137  1
  Nb  Nb130  1  0.60085026  0.00252553  0.40263073  1
  Nb  Nb131  1  0.20196792  0.39402101  0.20478870  1
  Nb  Nb132  1  0.00563590  0.80311309  0.80149099  1
  Nb  Nb133  1  0.79202790  0.39261888  0.79348563  1
  Nb  Nb134  1  0.39869988  0.59570560  0.59531946  1
  Nb  Nb135  1  0.80252526  0.80040073  -0.00316743  1
  Nb  Nb136  1  0.00158999  0.60239909  -0.00123314  1
  Nb  Nb137  1  0.59725759  0.39711150  0.20073204  1
  Nb  Nb138  1  0.00265631  0.00515459  0.00235672  1
  Nb  Nb139  1  0.59968257  -0.00650698  0.79346539  1
  Nb  Nb140  1  0.59837340  -0.00277351  0.59626472  1
  Nb  Nb141  1  0.00620943  0.20197339  0.39454939  1
  Nb  Nb142  1  0.79483632  0.19479642  0.20356797  1
  Nb  Nb143  1  0.79683883  -0.00427104  0.79837715  1
  Nb  Nb144  1  0.19769792  0.80343364  0.80111822  1
  Nb  Nb145  1  0.40248918  0.39342566  0.00436620  1
  Nb  Nb146  1  0.40840275  -0.00563035  0.59682404  1
  Nb  Nb147  1  0.59966325  0.80729874  0.60186324  1
  Nb  Nb148  1  0.00243141  0.39934629  0.40153160  1
  Nb  Nb149  1  0.19528533  0.40029701  0.40299029  1
  Pd  Pd150  1  0.00045427  0.20007545  0.80313999  1
  Pd  Pd151  1  0.39610149  0.79440659  0.39183221  1
  Pd  Pd152  1  0.60736857  0.39881389  0.40371477  1
  Pd  Pd153  1  0.40748159  0.79512068  0.60101692  1
  Pd  Pd154  1  0.59241262  0.19920856  0.41058283  1
  Pd  Pd155  1  0.38998810  0.18422076  0.60602780  1
  Pd  Pd156  1  0.59536345  0.60317553  0.39630931  1
  Pd  Pd157  1  0.20277287  0.60898810  0.80227487  1
  Pd  Pd158  1  0.59860216  0.19257088  0.80112512  1
  Pd  Pd159  1  0.58975905  0.61233660  0.60152200  1
  Pd  Pd160  1  0.80770369  0.59337905  0.39877976  1
  Pd  Pd161  1  0.60520912  0.40161434  0.80785170  1
  Pd  Pd162  1  0.79010034  0.39023533  0.20121921  1
  Pd  Pd163  1  0.39633009  0.00446671  0.19568934  1
  Pd  Pd164  1  0.79626637  0.39807145  -0.00857737  1
  Pd  Pd165  1  0.59055770  0.40308676  0.00412526  1
  Pd  Pd166  1  -0.00111840  0.80065082  0.39643454  1
  Pd  Pd167  1  -0.01078837  0.59473098  0.40097417  1
  Pd  Pd168  1  0.01194358  0.01075275  0.40099097  1
  Pd  Pd169  1  0.00175472  0.59855750  0.18739313  1
  Pd  Pd170  1  0.00806975  0.19399047  -0.00569968  1
  Pd  Pd171  1  0.19826228  0.59647511  0.00452309  1
  Pd  Pd172  1  0.79615547  -0.00019706  0.39550267  1
  Pd  Pd173  1  0.00328388  0.60634493  0.80610567  1
  Pd  Pd174  1  0.80717884  0.60771758  0.00756199  1
  Pd  Pd175  1  0.59242875  0.19452651  0.00195829  1
  Pd  Pd176  1  0.79204302  0.00676294  0.20149149  1
  Pd  Pd177  1  0.21160737  0.80757972  -0.00703188  1
  Pd  Pd178  1  0.19280270  0.00159844  0.39129873  1
  Pd  Pd179  1  0.60677597  0.39447274  0.58569557  1
  Pd  Pd180  1  0.19604184  0.20364922  0.00273410  1
  Pd  Pd181  1  0.20939541  0.19790148  0.60655461  1
  Pd  Pd182  1  0.80465737  -0.00637109  -0.00585854  1
  Pd  Pd183  1  0.19900244  0.59710110  0.39767564  1
  Pd  Pd184  1  -0.00273289  -0.00009968  0.80953813  1
  Pd  Pd185  1  0.80155228  0.19996676  0.79270107  1
  Pd  Pd186  1  0.40344715  0.20109898  0.00614819  1
  Pd  Pd187  1  0.20708087  0.39300300  0.79676317  1
  Pd  Pd188  1  0.40266714  0.80460495  0.20299425  1
  Pd  Pd189  1  0.79901615  0.60967525  0.19208901  1
  Pd  Pd190  1  0.39699667  0.60746004  0.40465194  1
  Pd  Pd191  1  0.00440686  -0.00191531  0.19833541  1
  Pd  Pd192  1  0.39660996  0.19601460  0.79974241  1
  Pd  Pd193  1  -0.01043090  0.39467917  0.79321543  1
  Pd  Pd194  1  0.78708835  0.79308378  0.18880554  1
  Pd  Pd195  1  0.20078242  0.80812447  0.60429226  1
  Pd  Pd196  1  0.79439938  0.58710744  0.79882908  1
  Pd  Pd197  1  0.39707451  0.39826543  0.81222511  1
  Pd  Pd198  1  -0.00331681  0.80120817  -0.00291106  1
  Pd  Pd199  1  0.39313872  0.39640748  0.39809248  1
  Rh  Rh200  1  0.20015591  0.80229465  0.39644398  1
  Rh  Rh201  1  0.21163276  0.59421221  0.60854791  1
  Rh  Rh202  1  0.39868841  0.59413865  0.00265763  1
  Rh  Rh203  1  0.80995214  0.79565349  0.40486123  1
  Rh  Rh204  1  0.19985256  0.59273395  0.19393173  1
  Rh  Rh205  1  0.40603314  0.19669206  0.39375698  1
  Rh  Rh206  1  0.39990150  0.39439788  0.19930178  1
  Rh  Rh207  1  0.60517621  0.80298774  0.00697494  1
  Rh  Rh208  1  0.60505228  -0.00694853  0.20836119  1
  Rh  Rh209  1  0.00435114  0.80373564  0.20683673  1
  Rh  Rh210  1  0.00322563  0.00596101  0.59026244  1
  Rh  Rh211  1  0.01477483  0.39909972  0.60205767  1
  Rh  Rh212  1  0.00574436  0.40206656  0.19824669  1
  Rh  Rh213  1  -0.00831967  0.60540659  0.60490844  1
  Rh  Rh214  1  0.40890295  0.00859875  0.40135296  1
  Rh  Rh215  1  0.79010409  0.39438548  0.60148173  1
  Rh  Rh216  1  0.39549692  0.80004385  0.80252417  1
  Rh  Rh217  1  0.20659266  0.39420490  0.00659745  1
  Rh  Rh218  1  0.00429915  0.19158412  0.59365294  1
  Rh  Rh219  1  0.59710313  -0.00793929  -0.01208900  1
  Rh  Rh220  1  0.19838434  -0.00548736  0.79951050  1
  Rh  Rh221  1  0.59620423  0.60195661  0.20276949  1
  Rh  Rh222  1  0.19285913  0.19998483  0.40161378  1
  Rh  Rh223  1  0.39614544  0.80888318  0.00135020  1
  Rh  Rh224  1  0.81250875  0.20783274  0.38967506  1
  Rh  Rh225  1  0.79924048  -0.00433860  0.60534730  1
  Rh  Rh226  1  0.39567142  0.40901864  0.60270917  1
  Rh  Rh227  1  -0.00822711  0.79756548  0.60659241  1
  Rh  Rh228  1  0.60053837  0.20479484  0.19415491  1
  Rh  Rh229  1  0.20505296  0.80806824  0.20450928  1
  Rh  Rh230  1  0.79848610  0.20399295  0.60421169  1
  Rh  Rh231  1  0.21137722  -0.00155863  0.59949219  1
  Rh  Rh232  1  0.19517073  0.00151079  0.00213794  1
  Rh  Rh233  1  0.81046459  0.80760022  0.79912648  1
  Rh  Rh234  1  0.59402025  0.79976607  0.79757838  1
  Rh  Rh235  1  0.39751582  0.60588744  0.19673720  1
  Rh  Rh236  1  0.59556558  0.80256073  0.39340195  1
  Rh  Rh237  1  0.79860275  0.61017283  0.60378469  1
  Rh  Rh238  1  0.40807092  0.00176517  0.79054672  1
  Rh  Rh239  1  0.60003980  0.19958564  0.59543205  1
  Rh  Rh240  1  -0.00300379  0.40487838  0.00083483  1
  Rh  Rh241  1  0.79639745  0.19959197  0.01083049  1
  Rh  Rh242  1  0.59171863  0.60200388  -0.00173286  1
  Rh  Rh243  1  0.40146708  -0.00524148  0.00833878  1
  Rh  Rh244  1  0.40035664  0.60162396  0.79865107  1
  Rh  Rh245  1  0.20433984  0.20287352  0.79937438  1
  Rh  Rh246  1  -0.00706174  0.19809798  0.20376105  1
  Rh  Rh247  1  0.59828392  0.59936522  0.80226993  1
  Rh  Rh248  1  0.20885058  0.20509578  0.19456316  1
  Rh  Rh249  1  0.20390348  0.00005532  0.20488074  1
