# generated using pymatgen
data_ZrScNbPdRh
_symmetry_space_group_name_H-M   'P 1'
_cell_length_a   16.56395037
_cell_length_b   16.56214076
_cell_length_c   16.55825502
_cell_angle_alpha   90.02006693
_cell_angle_beta   90.00948488
_cell_angle_gamma   89.98148581
_symmetry_Int_Tables_number   1
_chemical_formula_structural   ZrScNbPdRh
_chemical_formula_sum   'Zr50 Sc50 Nb50 Pd50 Rh50'
_cell_volume   4542.49966548
_cell_formula_units_Z   50
loop_
 _symmetry_equiv_pos_site_id
 _symmetry_equiv_pos_as_xyz
  1  'x, y, z'
loop_
 _atom_site_type_symbol
 _atom_site_label
 _atom_site_symmetry_multiplicity
 _atom_site_fract_x
 _atom_site_fract_y
 _atom_site_fract_z
 _atom_site_occupancy
  Zr  Zr0  1  0.30215333  0.50154050  0.90449312  1
  Zr  Zr1  1  0.30779135  0.69500648  0.29431406  1
  Zr  Zr2  1  0.30663626  0.89495064  0.50695225  1
  Zr  Zr3  1  0.90353740  0.50550945  0.70627017  1
  Zr  Zr4  1  0.29716459  0.11058005  0.70207717  1
  Zr  Zr5  1  0.89985755  0.70178175  0.49990119  1
  Zr  Zr6  1  0.10418683  0.90133667  0.89800687  1
  Zr  Zr7  1  0.09985527  0.49954840  0.90675711  1
  Zr  Zr8  1  0.30770336  0.70487469  0.09929894  1
  Zr  Zr9  1  0.09866245  0.69791129  0.89769858  1
  Zr  Zr10  1  0.69727146  0.29207673  0.10806715  1
  Zr  Zr11  1  0.90497735  0.10072989  0.50109053  1
  Zr  Zr12  1  0.89197397  0.10678328  0.90387563  1
  Zr  Zr13  1  0.69676252  0.10099150  0.49693477  1
  Zr  Zr14  1  0.89653833  0.31353643  0.10078297  1
  Zr  Zr15  1  0.90859265  0.48985971  0.29320651  1
  Zr  Zr16  1  0.70105656  0.69606645  0.49077812  1
  Zr  Zr17  1  0.89291682  0.89553724  0.09379295  1
  Zr  Zr18  1  0.89636746  0.10292784  0.69331319  1
  Zr  Zr19  1  0.29902694  0.89844889  0.09421122  1
  Zr  Zr20  1  0.69327691  0.69840218  0.29861240  1
  Zr  Zr21  1  0.49823584  0.09675245  0.69962317  1
  Zr  Zr22  1  0.49970032  0.29974517  0.49948312  1
  Zr  Zr23  1  0.89650920  0.49640867  0.91503479  1
  Zr  Zr24  1  0.50159958  0.70366160  0.29139792  1
  Zr  Zr25  1  0.10099919  0.50107203  0.50723023  1
  Zr  Zr26  1  0.90389810  0.90431887  0.69628143  1
  Zr  Zr27  1  0.50003471  0.90827023  0.49493077  1
  Zr  Zr28  1  0.09714845  0.10468532  0.10620628  1
  Zr  Zr29  1  0.69538382  0.10517003  0.70522943  1
  Zr  Zr30  1  0.69278645  0.30189827  0.49587501  1
  Zr  Zr31  1  0.29736686  0.90045996  0.90800441  1
  Zr  Zr32  1  0.29860075  0.50125302  0.50420619  1
  Zr  Zr33  1  0.50462916  0.70249172  0.70190920  1
  Zr  Zr34  1  0.69305040  0.10001612  0.91390183  1
  Zr  Zr35  1  0.08788087  0.90622698  0.30095335  1
  Zr  Zr36  1  0.89866886  0.90485327  0.29484971  1
  Zr  Zr37  1  0.30178565  0.29915760  0.29867886  1
  Zr  Zr38  1  0.89674499  0.69425823  0.90297279  1
  Zr  Zr39  1  0.69559984  0.29782737  0.69876610  1
  Zr  Zr40  1  0.89636225  0.10178420  0.10037877  1
  Zr  Zr41  1  0.70490575  0.11101665  0.29616937  1
  Zr  Zr42  1  0.09451770  0.69837801  0.68812358  1
  Zr  Zr43  1  0.50276447  0.09548279  0.50023444  1
  Zr  Zr44  1  0.09938942  0.89832567  0.69699159  1
  Zr  Zr45  1  0.49452638  0.90471538  0.69086865  1
  Zr  Zr46  1  0.50181587  0.51133551  0.28697736  1
  Zr  Zr47  1  0.50781031  0.30880067  0.90345812  1
  Zr  Zr48  1  0.11112235  0.30037185  0.10568257  1
  Zr  Zr49  1  0.50136128  0.70908598  0.49647295  1
  Sc  Sc50  1  0.50284289  0.68925421  0.90567957  1
  Sc  Sc51  1  0.69929929  0.49747244  0.49794086  1
  Sc  Sc52  1  0.49210098  0.89449202  0.09421288  1
  Sc  Sc53  1  0.09809986  0.09848239  0.70224718  1
  Sc  Sc54  1  0.09624110  0.29229992  0.49772528  1
  Sc  Sc55  1  0.30409932  0.10788998  0.30123455  1
  Sc  Sc56  1  0.10442877  0.29838943  0.91248004  1
  Sc  Sc57  1  0.70087267  0.50124036  0.70046068  1
  Sc  Sc58  1  0.30599494  0.11138946  0.49634405  1
  Sc  Sc59  1  0.89060133  0.70537120  0.30009405  1
  Sc  Sc60  1  0.09784472  0.49235036  0.10246592  1
  Sc  Sc61  1  0.69414163  0.89594663  0.70628049  1
  Sc  Sc62  1  0.69967478  0.89740180  0.90779722  1
  Sc  Sc63  1  0.30716982  0.49954288  0.30024281  1
  Sc  Sc64  1  0.69636638  0.71745412  0.10000381  1
  Sc  Sc65  1  0.10761145  0.69089337  0.09544149  1
  Sc  Sc66  1  0.10257877  0.69000386  0.29528463  1
  Sc  Sc67  1  0.50897802  0.29458002  0.70199305  1
  Sc  Sc68  1  0.69825203  0.89171299  0.29721830  1
  Sc  Sc69  1  0.08823758  0.89154178  0.50673362  1
  Sc  Sc70  1  0.70511570  0.69829905  0.71030068  1
  Sc  Sc71  1  0.29661584  0.09989555  0.89990010  1
  Sc  Sc72  1  0.68993902  0.90461100  0.49590411  1
  Sc  Sc73  1  0.49479215  0.30926863  0.30056699  1
  Sc  Sc74  1  0.89706327  0.69631718  0.71127689  1
  Sc  Sc75  1  0.69960445  0.50035111  0.30394678  1
  Sc  Sc76  1  0.29985694  0.69833322  0.91139006  1
  Sc  Sc77  1  0.50152505  0.09610286  0.89709507  1
  Sc  Sc78  1  0.90089181  0.89270562  0.90027875  1
  Sc  Sc79  1  0.29965268  0.69597358  0.49879378  1
  Sc  Sc80  1  0.49363277  0.09635294  0.30547471  1
  Sc  Sc81  1  0.10365334  0.29213671  0.68919164  1
  Sc  Sc82  1  0.90178640  0.30085522  0.30534655  1
  Sc  Sc83  1  0.29287547  0.29248904  0.90196076  1
  Sc  Sc84  1  0.09881651  0.29538102  0.30068901  1
  Sc  Sc85  1  0.69439579  0.49890858  0.90690457  1
  Sc  Sc86  1  0.90120233  0.49409781  0.49695085  1
  Sc  Sc87  1  0.10365394  0.49228545  0.29454050  1
  Sc  Sc88  1  0.90832358  0.10035925  0.30273668  1
  Sc  Sc89  1  0.10619331  0.10088586  0.90434489  1
  Sc  Sc90  1  0.50136457  0.50354261  0.70467348  1
  Sc  Sc91  1  0.30023074  0.10128287  0.10563255  1
  Sc  Sc92  1  0.31759259  0.90692992  0.29707091  1
  Sc  Sc93  1  0.70216455  0.70481299  0.89568529  1
  Sc  Sc94  1  0.90179392  0.90655121  0.49644032  1
  Sc  Sc95  1  0.29797530  0.49700356  0.09734496  1
  Sc  Sc96  1  0.50470259  0.49263750  0.49385169  1
  Sc  Sc97  1  0.50474086  0.31126715  0.10529166  1
  Sc  Sc98  1  0.30761330  0.69506467  0.68525201  1
  Sc  Sc99  1  0.09718553  0.90615795  0.08950460  1
  Nb  Nb100  1  0.70262667  0.29431162  0.89365636  1
  Nb  Nb101  1  0.90788206  0.29922148  0.50638313  1
  Nb  Nb102  1  0.89908257  0.29531286  0.69953081  1
  Nb  Nb103  1  0.89255677  0.49840394  0.10110557  1
  Nb  Nb104  1  0.49534706  0.69379065  0.10467143  1
  Nb  Nb105  1  0.89673316  0.69907667  0.10062748  1
  Nb  Nb106  1  0.10064017  0.70147682  0.49665035  1
  Nb  Nb107  1  0.48900576  0.90060122  0.89786456  1
  Nb  Nb108  1  0.29725539  0.29420303  0.10463940  1
  Nb  Nb109  1  0.70984948  0.48702506  0.09847297  1
  Nb  Nb110  1  0.50870307  0.50184096  0.08433982  1
  Nb  Nb111  1  0.29848219  0.89822446  0.69547506  1
  Nb  Nb112  1  0.29902695  0.29846537  0.50043297  1
  Nb  Nb113  1  0.29849330  0.29826463  0.70131162  1
  Nb  Nb114  1  0.69457032  0.09751057  0.09923126  1
  Nb  Nb115  1  0.50316136  0.90559826  0.30458072  1
  Nb  Nb116  1  0.89908265  0.30222824  0.89904637  1
  Nb  Nb117  1  0.10222735  0.50203032  0.70178674  1
  Nb  Nb118  1  0.70610393  0.29830457  0.29765366  1
  Nb  Nb119  1  0.10413885  0.10316595  0.49569391  1
  Nb  Nb120  1  0.51481041  0.10548541  0.09145269  1
  Nb  Nb121  1  0.29679941  0.49946037  0.69825796  1
  Nb  Nb122  1  0.49657512  0.49702136  0.91229510  1
  Nb  Nb123  1  0.09929685  0.09989679  0.30539094  1
  Nb  Nb124  1  0.70038189  0.90814727  0.09566868  1
  Nb  Nb125  1  0.79887177  0.00507014  0.80261941  1
  Nb  Nb126  1  0.19500930  -0.00121555  0.20791835  1
  Nb  Nb127  1  0.00067345  0.39556325  0.79930234  1
  Nb  Nb128  1  0.40517492  0.20291087  0.00693714  1
  Nb  Nb129  1  0.20169090  0.00107692  0.59483718  1
  Nb  Nb130  1  0.60087885  0.60521095  0.59759703  1
  Nb  Nb131  1  0.00097705  0.79739997  0.19419265  1
  Nb  Nb132  1  0.80507979  0.39253217  0.60413201  1
  Nb  Nb133  1  0.19977092  0.40301672  0.79265589  1
  Nb  Nb134  1  0.60069212  0.00128096  0.19380073  1
  Nb  Nb135  1  0.39299343  0.39574244  0.60716091  1
  Nb  Nb136  1  0.00222193  0.59970652  0.40094519  1
  Nb  Nb137  1  0.39600823  0.80371852  0.79966644  1
  Nb  Nb138  1  0.19808872  0.80746323  0.20426810  1
  Nb  Nb139  1  0.19766010  -0.00255417  0.40184031  1
  Nb  Nb140  1  0.19907441  0.80317695  0.39424331  1
  Nb  Nb141  1  0.80497011  0.39172696  0.80048880  1
  Nb  Nb142  1  -0.00678032  0.20790800  0.80215197  1
  Nb  Nb143  1  0.39341938  0.40144005  0.79808240  1
  Nb  Nb144  1  0.79956163  0.79866823  0.59857221  1
  Nb  Nb145  1  0.80191256  0.59685518  0.19126145  1
  Nb  Nb146  1  0.20065030  0.59867768  0.79327155  1
  Nb  Nb147  1  0.79243550  0.00281160  0.19281850  1
  Nb  Nb148  1  0.20604564  0.79631833  0.79338178  1
  Nb  Nb149  1  0.20536136  0.39611812  0.40595717  1
  Pd  Pd150  1  0.59115385  0.81137421  0.19536629  1
  Pd  Pd151  1  0.59200127  0.80127630  -0.00351949  1
  Pd  Pd152  1  0.59226880  0.20147499  0.38960231  1
  Pd  Pd153  1  0.58884859  0.19814428  0.21019779  1
  Pd  Pd154  1  0.19549225  0.59726966  0.39827568  1
  Pd  Pd155  1  0.79655821  0.20860202  0.00628376  1
  Pd  Pd156  1  0.79615436  0.81064578  0.40629501  1
  Pd  Pd157  1  -0.00574891  0.20748533  0.20382037  1
  Pd  Pd158  1  0.40599658  0.00537490  0.19182050  1
  Pd  Pd159  1  0.40761204  0.59729965  0.40382096  1
  Pd  Pd160  1  0.80806022  0.20566096  0.40519868  1
  Pd  Pd161  1  0.20523671  -0.00264644  0.79281648  1
  Pd  Pd162  1  0.58949630  0.80491643  0.80906357  1
  Pd  Pd163  1  0.80269505  0.39573655  0.40392010  1
  Pd  Pd164  1  0.39711310  0.80014236  0.39488751  1
  Pd  Pd165  1  0.60493108  0.40505735  0.20469551  1
  Pd  Pd166  1  0.40999828  0.19815314  0.19401919  1
  Pd  Pd167  1  0.60499019  -0.00609585  0.80686617  1
  Pd  Pd168  1  0.59845580  0.40195260  0.38874942  1
  Pd  Pd169  1  -0.00693510  0.01129108  0.80790742  1
  Pd  Pd170  1  0.40486323  0.20440724  0.60117662  1
  Pd  Pd171  1  0.61168939  0.60497995  0.00685768  1
  Pd  Pd172  1  0.00361534  0.78975551  0.38957080  1
  Pd  Pd173  1  0.39139447  0.38960228  -0.00029372  1
  Pd  Pd174  1  0.61389399  0.59552690  0.18378398  1
  Pd  Pd175  1  0.39559688  0.60155391  0.80369317  1
  Pd  Pd176  1  0.40181366  0.01310400  0.00418184  1
  Pd  Pd177  1  -0.00616340  0.60469735  0.20167472  1
  Pd  Pd178  1  0.20644885  0.59777868  0.19546638  1
  Pd  Pd179  1  -0.00213637  0.00286641  -0.00533613  1
  Pd  Pd180  1  0.80979878  0.59113944  0.38896023  1
  Pd  Pd181  1  0.00506376  0.79383535  0.00473578  1
  Pd  Pd182  1  0.61041997  0.79643298  0.59922258  1
  Pd  Pd183  1  0.60102895  0.40830207  0.80018379  1
  Pd  Pd184  1  0.00047211  0.59755738  0.00927255  1
  Pd  Pd185  1  0.20023851  0.39264531  0.59844519  1
  Pd  Pd186  1  0.79430825  0.59806604  0.60013067  1
  Pd  Pd187  1  -0.00644972  0.60040510  0.59406220  1
  Pd  Pd188  1  0.78852510  -0.00886534  0.60549538  1
  Pd  Pd189  1  0.41279061  0.59136632  0.59414650  1
  Pd  Pd190  1  0.60273060  0.59342607  0.80126531  1
  Pd  Pd191  1  0.39922328  0.40766318  0.19199784  1
  Pd  Pd192  1  0.00071637  0.79724663  0.79800610  1
  Pd  Pd193  1  0.39030262  -0.00284343  0.79844205  1
  Pd  Pd194  1  0.00012285  0.20598519  -0.00084446  1
  Pd  Pd195  1  -0.00158436  0.39807208  0.60598363  1
  Pd  Pd196  1  0.79482456  0.20532773  0.59063968  1
  Pd  Pd197  1  0.79361501  -0.00165097  0.39044272  1
  Pd  Pd198  1  0.40562333  0.20784441  0.81202914  1
  Pd  Pd199  1  0.78699007  0.60833082  0.00648606  1
  Rh  Rh200  1  0.80177143  -0.00099285  -0.00256632  1
  Rh  Rh201  1  0.40535399  0.20469680  0.39978109  1
  Rh  Rh202  1  0.19275455  0.79854541  -0.00019397  1
  Rh  Rh203  1  0.40220220  0.80443656  0.20202574  1
  Rh  Rh204  1  0.80088079  0.19781030  0.80131360  1
  Rh  Rh205  1  0.19843879  0.19235237  0.20760837  1
  Rh  Rh206  1  0.40256672  0.60082016  0.00533633  1
  Rh  Rh207  1  0.39274371  0.39896852  0.40853273  1
  Rh  Rh208  1  0.79368622  0.40229405  0.20967697  1
  Rh  Rh209  1  0.00484948  0.19354236  0.60298719  1
  Rh  Rh210  1  0.20112267  0.20279328  0.39670856  1
  Rh  Rh211  1  -0.00319981  0.19963753  0.40151732  1
  Rh  Rh212  1  0.58972414  -0.01112251  0.00100284  1
  Rh  Rh213  1  0.80762801  0.19819919  0.19944241  1
  Rh  Rh214  1  0.19962941  0.19311605  0.59726386  1
  Rh  Rh215  1  -0.01293088  0.79432997  0.60232597  1
  Rh  Rh216  1  0.59748374  0.19470949  0.59787220  1
  Rh  Rh217  1  0.20451082  0.39734415  0.00072863  1
  Rh  Rh218  1  0.60459466  0.00253181  0.60261642  1
  Rh  Rh219  1  0.59371163  0.19594502  0.80659374  1
  Rh  Rh220  1  0.79063688  0.38917708  -0.00693028  1
  Rh  Rh221  1  0.79718871  0.79625223  -0.00332749  1
  Rh  Rh222  1  0.20975044  0.19452503  0.00598616  1
  Rh  Rh223  1  0.19925852  0.00874741  0.01059199  1
  Rh  Rh224  1  0.39910558  0.59076016  0.18742704  1
  Rh  Rh225  1  0.01140510  0.40277627  0.40256832  1
  Rh  Rh226  1  0.20639491  0.39862278  0.20706930  1
  Rh  Rh227  1  0.59713503  0.21025022  -0.00273164  1
  Rh  Rh228  1  0.79787105  0.58879025  0.81177364  1
  Rh  Rh229  1  0.80325428  0.80124493  0.19587299  1
  Rh  Rh230  1  0.20065133  0.59737233  -0.00043332  1
  Rh  Rh231  1  0.20077640  0.80128141  0.59521042  1
  Rh  Rh232  1  0.80521416  0.81169746  0.79497334  1
  Rh  Rh233  1  0.60048966  0.41008914  0.60435640  1
  Rh  Rh234  1  0.39327144  0.00364724  0.40540380  1
  Rh  Rh235  1  0.00281426  0.39648640  0.00391328  1
  Rh  Rh236  1  0.40398625  0.79654327  0.60299635  1
  Rh  Rh237  1  0.60667152  0.00311488  0.38590078  1
  Rh  Rh238  1  -0.00461669  -0.00344905  0.19089591  1
  Rh  Rh239  1  0.19933546  0.60735749  0.60218261  1
  Rh  Rh240  1  0.00407032  0.39299261  0.19582196  1
  Rh  Rh241  1  0.00407150  0.00459584  0.40954063  1
  Rh  Rh242  1  0.59355255  0.59855471  0.40430662  1
  Rh  Rh243  1  0.01105546  0.00692695  0.59378160  1
  Rh  Rh244  1  0.59758745  0.80282816  0.39573552  1
  Rh  Rh245  1  0.18641472  0.20682164  0.80170301  1
  Rh  Rh246  1  0.40971945  0.79079349  -0.00902522  1
  Rh  Rh247  1  0.61028397  0.39481244  0.00236776  1
  Rh  Rh248  1  0.00435140  0.59350449  0.80669487  1
  Rh  Rh249  1  0.38944767  0.01076622  0.59896388  1
