# generated using pymatgen
data_ZrScNbPdRh
_symmetry_space_group_name_H-M   'P 1'
_cell_length_a   16.55093025
_cell_length_b   16.54957908
_cell_length_c   16.54966221
_cell_angle_alpha   89.98586056
_cell_angle_beta   90.01779740
_cell_angle_gamma   89.97687115
_symmetry_Int_Tables_number   1
_chemical_formula_structural   ZrScNbPdRh
_chemical_formula_sum   'Zr50 Sc50 Nb50 Pd50 Rh50'
_cell_volume   4533.13262398
_cell_formula_units_Z   50
loop_
 _symmetry_equiv_pos_site_id
 _symmetry_equiv_pos_as_xyz
  1  'x, y, z'
loop_
 _atom_site_type_symbol
 _atom_site_label
 _atom_site_symmetry_multiplicity
 _atom_site_fract_x
 _atom_site_fract_y
 _atom_site_fract_z
 _atom_site_occupancy
  Zr  Zr0  1  0.69833291  0.90750690  0.90161594  1
  Zr  Zr1  1  0.10262201  0.89844140  0.90045455  1
  Zr  Zr2  1  0.50314670  0.90011424  0.70907360  1
  Zr  Zr3  1  0.30224836  0.89996275  0.30241764  1
  Zr  Zr4  1  0.69120232  0.69708217  0.29436791  1
  Zr  Zr5  1  0.88330991  0.49012408  0.08866989  1
  Zr  Zr6  1  0.70204733  0.90301062  0.70286456  1
  Zr  Zr7  1  0.10401514  0.70793337  0.50743826  1
  Zr  Zr8  1  0.70102564  0.90458874  0.49668582  1
  Zr  Zr9  1  0.70184610  0.10528934  0.09588292  1
  Zr  Zr10  1  0.68835211  0.30541394  0.29719707  1
  Zr  Zr11  1  0.30396618  0.10592672  0.08780728  1
  Zr  Zr12  1  0.09891369  0.09534245  0.10329215  1
  Zr  Zr13  1  0.10499177  0.09433776  0.70438803  1
  Zr  Zr14  1  0.70778436  0.50111825  0.90490845  1
  Zr  Zr15  1  0.30446990  0.30199660  0.49312166  1
  Zr  Zr16  1  0.09709585  0.70686016  0.89717320  1
  Zr  Zr17  1  0.70469520  0.89661871  0.30010625  1
  Zr  Zr18  1  0.89327397  0.70793912  0.29733715  1
  Zr  Zr19  1  0.49620867  0.29979932  0.30674877  1
  Zr  Zr20  1  0.69433140  0.09753828  0.49896102  1
  Zr  Zr21  1  0.90236889  0.90616693  0.10081145  1
  Zr  Zr22  1  0.50733859  0.29735372  0.70097991  1
  Zr  Zr23  1  0.10898187  0.49471523  0.29679217  1
  Zr  Zr24  1  0.90380571  0.50109393  0.89334776  1
  Zr  Zr25  1  0.10347384  0.30021804  0.70265134  1
  Zr  Zr26  1  0.49699524  0.29917178  0.50220502  1
  Zr  Zr27  1  0.29083845  0.30939048  0.30144694  1
  Zr  Zr28  1  0.30369351  0.30486987  0.10007488  1
  Zr  Zr29  1  0.69403379  0.29950534  0.50831317  1
  Zr  Zr30  1  0.29814118  0.50002084  0.49726986  1
  Zr  Zr31  1  0.90147328  0.08838143  0.71142177  1
  Zr  Zr32  1  0.69848926  0.09313315  0.29526886  1
  Zr  Zr33  1  0.49945404  0.69919598  0.89821223  1
  Zr  Zr34  1  0.90481778  0.49909575  0.30115771  1
  Zr  Zr35  1  0.70245843  0.69608270  0.10324161  1
  Zr  Zr36  1  0.30475119  0.89305605  0.89915735  1
  Zr  Zr37  1  0.29957188  0.10073096  0.69992049  1
  Zr  Zr38  1  0.09678322  0.71099824  0.09734211  1
  Zr  Zr39  1  0.29335094  0.90124355  0.10485718  1
  Zr  Zr40  1  0.50895356  0.50828000  0.30284273  1
  Zr  Zr41  1  0.50426159  0.89495615  0.49627161  1
  Zr  Zr42  1  0.49905826  0.89320422  0.89927305  1
  Zr  Zr43  1  0.48763046  0.50129877  0.50073877  1
  Zr  Zr44  1  0.89696614  0.30342160  0.50119100  1
  Zr  Zr45  1  0.50501194  0.70089398  0.70511821  1
  Zr  Zr46  1  0.89809153  0.89184875  0.49519990  1
  Zr  Zr47  1  0.50171201  0.29217939  0.10931546  1
  Zr  Zr48  1  0.29747943  0.50009480  0.10271931  1
  Zr  Zr49  1  0.90450071  0.70927818  0.09741108  1
  Sc  Sc50  1  0.31036410  0.29503632  0.70271417  1
  Sc  Sc51  1  0.49940756  0.49483695  0.70563928  1
  Sc  Sc52  1  0.30740001  0.49632678  0.69748607  1
  Sc  Sc53  1  0.09362351  0.29410313  0.49650027  1
  Sc  Sc54  1  0.89234192  0.90965866  0.89009022  1
  Sc  Sc55  1  0.09086147  0.29191914  0.08929653  1
  Sc  Sc56  1  0.70316545  0.69540183  0.70962677  1
  Sc  Sc57  1  0.30177446  0.70205724  0.49747054  1
  Sc  Sc58  1  0.29228997  0.09591194  0.30928337  1
  Sc  Sc59  1  0.30298283  0.10029865  0.49993243  1
  Sc  Sc60  1  0.09057532  0.50380426  0.50488467  1
  Sc  Sc61  1  0.49716225  0.10715679  0.49811436  1
  Sc  Sc62  1  0.11253613  0.90890107  0.29367950  1
  Sc  Sc63  1  0.90455484  0.10351362  0.50257330  1
  Sc  Sc64  1  0.09928012  0.29630947  0.30497921  1
  Sc  Sc65  1  0.90618177  0.69507317  0.49722661  1
  Sc  Sc66  1  0.89815744  0.49891566  0.69334950  1
  Sc  Sc67  1  0.70750453  0.49026749  0.50363591  1
  Sc  Sc68  1  0.50391255  0.30229451  0.88927091  1
  Sc  Sc69  1  0.50289922  0.89546487  0.29420792  1
  Sc  Sc70  1  0.90067061  0.49681961  0.50619878  1
  Sc  Sc71  1  0.49307496  0.50053222  0.10225300  1
  Sc  Sc72  1  0.69589858  0.90485423  0.10559236  1
  Sc  Sc73  1  0.08804347  0.49606307  0.70254581  1
  Sc  Sc74  1  0.90553994  0.29175796  0.30367212  1
  Sc  Sc75  1  0.29435869  0.70615541  0.69523689  1
  Sc  Sc76  1  0.69892616  0.49937889  0.70126249  1
  Sc  Sc77  1  0.90732192  0.30368363  0.91984543  1
  Sc  Sc78  1  0.30457691  0.70615594  0.30300639  1
  Sc  Sc79  1  0.69576409  0.70758662  0.49186094  1
  Sc  Sc80  1  0.29953050  0.90294190  0.70054758  1
  Sc  Sc81  1  0.10460309  0.50821716  0.10909201  1
  Sc  Sc82  1  0.49410082  0.50160433  0.89479992  1
  Sc  Sc83  1  0.50464001  0.09672699  0.90525073  1
  Sc  Sc84  1  0.30157612  0.69905987  0.10782242  1
  Sc  Sc85  1  0.89312566  0.90239642  0.29566447  1
  Sc  Sc86  1  0.50055250  0.70524487  0.11098902  1
  Sc  Sc87  1  0.49624387  0.10028776  0.70015081  1
  Sc  Sc88  1  0.89484900  0.69034166  0.70133223  1
  Sc  Sc89  1  0.90871185  0.30372183  0.69622985  1
  Sc  Sc90  1  0.90489751  0.09948374  0.28765612  1
  Sc  Sc91  1  0.29576688  0.89941082  0.49178376  1
  Sc  Sc92  1  0.30365014  0.29810821  0.89564576  1
  Sc  Sc93  1  0.30044015  0.49991101  0.29720094  1
  Sc  Sc94  1  0.09898243  0.10174314  0.30110965  1
  Sc  Sc95  1  0.50174622  0.89618773  0.09692580  1
  Sc  Sc96  1  0.68902694  0.09633821  0.70380646  1
  Sc  Sc97  1  0.09427203  0.69442106  0.29418875  1
  Sc  Sc98  1  0.50530504  0.10872975  0.30016520  1
  Sc  Sc99  1  0.10855472  0.10476623  0.49986503  1
  Nb  Nb100  1  0.70810021  0.69411782  0.89926098  1
  Nb  Nb101  1  0.29358319  0.09670680  0.89995801  1
  Nb  Nb102  1  0.09918950  0.89359506  0.50076745  1
  Nb  Nb103  1  0.89685115  0.09867623  0.90543839  1
  Nb  Nb104  1  0.49911005  0.10091407  0.10750622  1
  Nb  Nb105  1  0.10447981  0.70658318  0.69790333  1
  Nb  Nb106  1  0.09671539  0.30685321  0.89426973  1
  Nb  Nb107  1  0.30022364  0.50366249  0.90284586  1
  Nb  Nb108  1  0.09682503  0.90081940  0.09495178  1
  Nb  Nb109  1  0.70466676  0.30569001  0.09912266  1
  Nb  Nb110  1  0.50140913  0.70135992  0.31161079  1
  Nb  Nb111  1  0.89804913  0.29013064  0.10314258  1
  Nb  Nb112  1  0.90177458  0.10870668  0.09490465  1
  Nb  Nb113  1  0.69745070  0.49603733  0.10540901  1
  Nb  Nb114  1  0.09950685  0.10297449  0.90078716  1
  Nb  Nb115  1  0.70095109  0.50225364  0.28612034  1
  Nb  Nb116  1  0.09978295  0.89209880  0.69704550  1
  Nb  Nb117  1  0.69440645  0.29510611  0.89841851  1
  Nb  Nb118  1  0.70650092  0.10350481  0.90529280  1
  Nb  Nb119  1  0.09972779  0.49744455  0.89462096  1
  Nb  Nb120  1  0.89431946  0.70007023  0.89683733  1
  Nb  Nb121  1  0.30058999  0.69695163  0.89490481  1
  Nb  Nb122  1  0.49928315  0.69789427  0.49259218  1
  Nb  Nb123  1  0.69432305  0.29771472  0.70747484  1
  Nb  Nb124  1  0.89753953  0.90060514  0.70252506  1
  Nb  Nb125  1  0.20077926  0.39697429  0.59921856  1
  Nb  Nb126  1  0.80140790  0.20163141  0.80494723  1
  Nb  Nb127  1  0.79536308  0.20104294  0.60731332  1
  Nb  Nb128  1  0.79716211  0.38814734  0.80324881  1
  Nb  Nb129  1  0.19693418  0.60058082  0.40203233  1
  Nb  Nb130  1  0.59355783  0.60377085  0.59539149  1
  Nb  Nb131  1  -0.00548981  0.39644591  0.19397631  1
  Nb  Nb132  1  0.60544182  0.59677016  0.00167463  1
  Nb  Nb133  1  0.00423429  -0.00678855  0.40784248  1
  Nb  Nb134  1  -0.00031770  0.19665330  0.80998222  1
  Nb  Nb135  1  0.60590975  0.39990362  0.00419369  1
  Nb  Nb136  1  0.00037463  0.00459778  -0.00251692  1
  Nb  Nb137  1  0.00150167  0.60154467  -0.00612645  1
  Nb  Nb138  1  0.40003445  0.00603170  0.19464508  1
  Nb  Nb139  1  0.19897788  0.59966180  -0.00944251  1
  Nb  Nb140  1  0.79875524  0.79865751  -0.00614399  1
  Nb  Nb141  1  0.19882951  0.59904482  0.80302231  1
  Nb  Nb142  1  0.79646420  0.59453375  0.39049310  1
  Nb  Nb143  1  -0.00311748  0.80319376  0.79337030  1
  Nb  Nb144  1  0.20301668  0.20060704  0.19384680  1
  Nb  Nb145  1  0.79348969  0.20126035  0.40470943  1
  Nb  Nb146  1  0.41047636  0.79951197  0.59696126  1
  Nb  Nb147  1  0.19677585  0.40583330  -0.00897531  1
  Nb  Nb148  1  0.00441468  -0.01261448  0.60066643  1
  Nb  Nb149  1  0.80092596  0.80496295  0.60294324  1
  Pd  Pd150  1  0.81335166  0.01192881  0.39718707  1
  Pd  Pd151  1  0.19734432  -0.00076286  -0.00195058  1
  Pd  Pd152  1  0.60773197  0.79104165  -0.00098636  1
  Pd  Pd153  1  0.19677319  0.79534923  0.20598231  1
  Pd  Pd154  1  -0.00991921  0.59317680  0.18802778  1
  Pd  Pd155  1  0.38855228  0.19218793  0.21228385  1
  Pd  Pd156  1  0.19513509  0.59137168  0.60448374  1
  Pd  Pd157  1  0.79453906  0.20353406  0.20735754  1
  Pd  Pd158  1  0.61190043  0.58931672  0.41059960  1
  Pd  Pd159  1  0.39539309  0.79227667  0.00720637  1
  Pd  Pd160  1  0.39283410  0.60225568  0.79112922  1
  Pd  Pd161  1  0.00835417  0.80605070  0.38697057  1
  Pd  Pd162  1  0.80549889  0.00265651  0.59936938  1
  Pd  Pd163  1  0.40494922  0.39511815  -0.00661925  1
  Pd  Pd164  1  0.00446682  0.39943002  0.39820665  1
  Pd  Pd165  1  0.19801584  -0.00604733  0.59441148  1
  Pd  Pd166  1  0.40275195  -0.00674333  0.59623801  1
  Pd  Pd167  1  0.40892221  0.20434043  -0.01035112  1
  Pd  Pd168  1  0.59052751  0.00417530  0.60019948  1
  Pd  Pd169  1  0.59054116  -0.00124352  0.39281755  1
  Pd  Pd170  1  0.40466069  -0.00239683  0.00190049  1
  Pd  Pd171  1  0.80784695  0.38965812  0.20898240  1
  Pd  Pd172  1  0.59498695  0.20570368  0.00102111  1
  Pd  Pd173  1  0.39932141  0.00627709  0.80650663  1
  Pd  Pd174  1  0.00203953  0.60069376  0.40082976  1
  Pd  Pd175  1  0.21018813  0.79348838  0.00166701  1
  Pd  Pd176  1  0.40762968  0.00299544  0.39202229  1
  Pd  Pd177  1  0.59686276  0.40943526  0.60233453  1
  Pd  Pd178  1  -0.01124255  0.79524651  0.60777584  1
  Pd  Pd179  1  0.60088572  0.40875424  0.40397740  1
  Pd  Pd180  1  0.60497394  0.79347557  0.60199913  1
  Pd  Pd181  1  0.19935598  0.20244249  0.80643166  1
  Pd  Pd182  1  0.20956612  0.40588342  0.79571022  1
  Pd  Pd183  1  0.20662242  0.20777997  0.59674870  1
  Pd  Pd184  1  0.80869139  0.59979291  0.19945152  1
  Pd  Pd185  1  0.79784315  0.39932733  0.39218309  1
  Pd  Pd186  1  0.61085938  0.79710971  0.80628303  1
  Pd  Pd187  1  0.40300304  0.60641881  0.00444194  1
  Pd  Pd188  1  0.00352732  0.60760858  0.79488395  1
  Pd  Pd189  1  0.78999716  0.61000264  0.58929031  1
  Pd  Pd190  1  0.40460885  0.19107244  0.80694437  1
  Pd  Pd191  1  0.19884076  0.20906187  -0.00330637  1
  Pd  Pd192  1  0.59631782  0.00158113  0.00532224  1
  Pd  Pd193  1  0.40321968  0.60938381  0.60582601  1
  Pd  Pd194  1  -0.00380627  0.19028758  0.60950319  1
  Pd  Pd195  1  0.00591628  0.81253442  0.21036139  1
  Pd  Pd196  1  0.40701305  0.40431376  0.20706092  1
  Pd  Pd197  1  0.00957443  0.41157928  0.00941064  1
  Pd  Pd198  1  0.40178494  0.60420093  0.20800462  1
  Pd  Pd199  1  0.20219681  -0.00580339  0.80208459  1
  Rh  Rh200  1  0.19029662  0.40766833  0.41378626  1
  Rh  Rh201  1  0.59937042  0.19502907  0.60336322  1
  Rh  Rh202  1  0.80506409  -0.00337110  0.00632594  1
  Rh  Rh203  1  0.21229941  0.80675532  0.59758016  1
  Rh  Rh204  1  0.39785603  0.39973660  0.80121894  1
  Rh  Rh205  1  0.39483595  0.19953634  0.39675396  1
  Rh  Rh206  1  0.20901248  0.01002166  0.19482757  1
  Rh  Rh207  1  0.80031824  0.58785404  0.79551836  1
  Rh  Rh208  1  0.00675749  0.39836106  0.59723006  1
  Rh  Rh209  1  0.00861894  0.20506437  0.20026070  1
  Rh  Rh210  1  0.60192494  0.59663393  0.80290889  1
  Rh  Rh211  1  -0.01500244  0.80980392  -0.01482742  1
  Rh  Rh212  1  0.00099010  0.19228579  -0.00546987  1
  Rh  Rh213  1  0.40257679  0.40537326  0.39276025  1
  Rh  Rh214  1  -0.01056123  0.39154511  0.80041164  1
  Rh  Rh215  1  0.59281684  0.40185342  0.19418607  1
  Rh  Rh216  1  0.19992182  0.79845705  0.79686862  1
  Rh  Rh217  1  0.18438023  0.38413794  0.18369064  1
  Rh  Rh218  1  0.79184265  0.38738299  -0.00642854  1
  Rh  Rh219  1  0.40044137  0.19967367  0.60075374  1
  Rh  Rh220  1  0.39731791  0.39185545  0.60451668  1
  Rh  Rh221  1  0.59900432  0.79995730  0.20299241  1
  Rh  Rh222  1  0.19189526  -0.00131650  0.40762151  1
  Rh  Rh223  1  0.60098568  0.80448704  0.39415862  1
  Rh  Rh224  1  0.00186515  0.60514744  0.60645748  1
  Rh  Rh225  1  0.80341549  0.60952947  0.00526937  1
  Rh  Rh226  1  0.79555808  0.80487395  0.18961200  1
  Rh  Rh227  1  -0.00694576  0.18698781  0.39758196  1
  Rh  Rh228  1  0.59171471  0.59953528  0.19239765  1
  Rh  Rh229  1  0.40298821  0.80119792  0.40336423  1
  Rh  Rh230  1  0.79781557  0.79058632  0.40314138  1
  Rh  Rh231  1  0.60525850  0.20030113  0.40103636  1
  Rh  Rh232  1  0.60670566  0.40917786  0.80806062  1
  Rh  Rh233  1  0.80232858  0.79920489  0.79945468  1
  Rh  Rh234  1  0.60200503  0.18869335  0.80393772  1
  Rh  Rh235  1  0.60702563  0.19924720  0.19750859  1
  Rh  Rh236  1  0.59343962  0.00205465  0.19771135  1
  Rh  Rh237  1  0.79877151  0.20592650  -0.00254481  1
  Rh  Rh238  1  0.79959225  0.00558347  0.19191828  1
  Rh  Rh239  1  0.19454774  0.79214344  0.39660104  1
  Rh  Rh240  1  0.20487647  0.60824607  0.20593610  1
  Rh  Rh241  1  0.79895767  0.38930537  0.61387905  1
  Rh  Rh242  1  0.39307835  0.79758090  0.79043273  1
  Rh  Rh243  1  0.00012436  -0.00125837  0.19820172  1
  Rh  Rh244  1  0.00986109  -0.00275993  0.80209279  1
  Rh  Rh245  1  0.40147401  0.80820084  0.20277235  1
  Rh  Rh246  1  0.39073262  0.60120607  0.39462981  1
  Rh  Rh247  1  0.20232183  0.20176606  0.39553319  1
  Rh  Rh248  1  0.59893315  0.00398243  0.80704275  1
  Rh  Rh249  1  0.78828727  0.00829479  0.80103513  1
