# generated using pymatgen
data_ZrScNbPdRh
_symmetry_space_group_name_H-M   'P 1'
_cell_length_a   16.56740864
_cell_length_b   16.55908894
_cell_length_c   16.56069431
_cell_angle_alpha   89.99894654
_cell_angle_beta   90.01711784
_cell_angle_gamma   90.00936717
_symmetry_Int_Tables_number   1
_chemical_formula_structural   ZrScNbPdRh
_chemical_formula_sum   'Zr50 Sc50 Nb50 Pd50 Rh50'
_cell_volume   4543.28037242
_cell_formula_units_Z   50
loop_
 _symmetry_equiv_pos_site_id
 _symmetry_equiv_pos_as_xyz
  1  'x, y, z'
loop_
 _atom_site_type_symbol
 _atom_site_label
 _atom_site_symmetry_multiplicity
 _atom_site_fract_x
 _atom_site_fract_y
 _atom_site_fract_z
 _atom_site_occupancy
  Zr  Zr0  1  0.49723696  0.09891597  0.89142368  1
  Zr  Zr1  1  0.89344221  0.10462327  0.69434811  1
  Zr  Zr2  1  0.09789314  0.10240284  0.69671242  1
  Zr  Zr3  1  0.30936627  0.70045537  0.69570204  1
  Zr  Zr4  1  0.70341894  0.09803361  0.30169434  1
  Zr  Zr5  1  0.70026669  0.50476127  0.70627108  1
  Zr  Zr6  1  0.49783395  0.69470466  0.10654443  1
  Zr  Zr7  1  0.70471809  0.50004432  0.10054754  1
  Zr  Zr8  1  0.10057271  0.50156445  0.11048866  1
  Zr  Zr9  1  0.89884527  0.09914578  0.10109592  1
  Zr  Zr10  1  0.90200734  0.30497280  0.88983957  1
  Zr  Zr11  1  0.30189908  0.30475156  0.89843647  1
  Zr  Zr12  1  0.10575240  0.89828035  0.10738053  1
  Zr  Zr13  1  0.09952522  0.10086350  0.50752390  1
  Zr  Zr14  1  0.89753769  0.90448739  0.70066723  1
  Zr  Zr15  1  0.10309283  0.89840443  0.90437677  1
  Zr  Zr16  1  0.70271705  0.10199034  0.50086481  1
  Zr  Zr17  1  0.70453512  0.89872331  0.90224123  1
  Zr  Zr18  1  0.49841180  0.49794881  0.69709839  1
  Zr  Zr19  1  0.90376517  0.70445477  0.10443765  1
  Zr  Zr20  1  0.31240264  0.28978274  0.29559402  1
  Zr  Zr21  1  0.30242361  0.30245066  0.49652957  1
  Zr  Zr22  1  0.49841648  0.71108870  0.49046700  1
  Zr  Zr23  1  0.49755109  0.49823204  0.90007664  1
  Zr  Zr24  1  0.30331032  0.70221455  0.89880140  1
  Zr  Zr25  1  0.30014088  0.09703185  0.49926930  1
  Zr  Zr26  1  0.30627676  0.49798836  0.90592250  1
  Zr  Zr27  1  0.69843043  0.90439777  0.29876667  1
  Zr  Zr28  1  0.50935528  0.09683369  0.69676491  1
  Zr  Zr29  1  0.49990333  0.69730448  0.90375217  1
  Zr  Zr30  1  0.89700395  0.29913412  0.29915320  1
  Zr  Zr31  1  0.90057514  0.10614102  0.30551065  1
  Zr  Zr32  1  0.49137894  0.09969917  0.30122834  1
  Zr  Zr33  1  0.29549204  0.49539742  0.50042630  1
  Zr  Zr34  1  0.49431318  0.49784201  0.50330702  1
  Zr  Zr35  1  0.89863737  0.49527695  0.71159734  1
  Zr  Zr36  1  0.70671721  0.89924623  0.69341711  1
  Zr  Zr37  1  0.50568183  0.90310409  0.30643702  1
  Zr  Zr38  1  0.49662897  0.29840374  0.89658648  1
  Zr  Zr39  1  0.70161491  0.28992055  0.69619480  1
  Zr  Zr40  1  0.69487327  0.69778903  0.89252616  1
  Zr  Zr41  1  0.10035320  0.50043137  0.48836765  1
  Zr  Zr42  1  0.70910615  0.29588349  0.09798690  1
  Zr  Zr43  1  0.09203123  0.89241494  0.70367670  1
  Zr  Zr44  1  0.29967804  0.90020337  0.10281390  1
  Zr  Zr45  1  0.89587116  0.89757843  0.50775514  1
  Zr  Zr46  1  0.69972026  0.29416952  0.90217132  1
  Zr  Zr47  1  0.70001438  0.50131589  0.48965075  1
  Zr  Zr48  1  0.69476767  0.69915963  0.31450622  1
  Zr  Zr49  1  0.30513596  0.89676077  0.70451919  1
  Sc  Sc50  1  0.49786872  0.09337384  0.10153127  1
  Sc  Sc51  1  0.90416912  0.29688552  0.49557067  1
  Sc  Sc52  1  0.09316503  0.89457681  0.50363756  1
  Sc  Sc53  1  0.49236253  0.50656432  0.10015280  1
  Sc  Sc54  1  0.70462410  0.50369735  0.89466782  1
  Sc  Sc55  1  0.10143280  0.70460504  0.30220106  1
  Sc  Sc56  1  0.49740367  0.90172020  0.89941972  1
  Sc  Sc57  1  0.70235777  0.89143583  0.49940315  1
  Sc  Sc58  1  0.10572252  0.30755320  0.50879126  1
  Sc  Sc59  1  0.29740853  0.50256901  0.10469407  1
  Sc  Sc60  1  0.49933233  0.29748180  0.30333574  1
  Sc  Sc61  1  0.69838485  0.09764440  0.89981452  1
  Sc  Sc62  1  0.08728868  0.30439885  0.29510918  1
  Sc  Sc63  1  0.30582306  0.90018485  0.90616580  1
  Sc  Sc64  1  0.70047539  0.91085206  0.10218583  1
  Sc  Sc65  1  0.08568984  0.49454423  0.68973720  1
  Sc  Sc66  1  0.09357888  0.30386717  0.09845391  1
  Sc  Sc67  1  0.50398765  0.29481117  0.69544743  1
  Sc  Sc68  1  0.49087202  0.29770282  0.10547785  1
  Sc  Sc69  1  0.89988962  0.89835471  0.90733720  1
  Sc  Sc70  1  0.29906721  0.30320125  0.69050393  1
  Sc  Sc71  1  0.09083248  0.50000699  0.91240048  1
  Sc  Sc72  1  0.30422433  0.69665404  0.49120957  1
  Sc  Sc73  1  0.29919467  0.30667028  0.10018882  1
  Sc  Sc74  1  0.50666401  0.29985578  0.49343793  1
  Sc  Sc75  1  0.30300856  0.09025049  0.10163934  1
  Sc  Sc76  1  0.09391762  0.29977483  0.90330210  1
  Sc  Sc77  1  0.89967232  0.70176978  0.48700042  1
  Sc  Sc78  1  0.31168310  0.49611922  0.69058889  1
  Sc  Sc79  1  0.91013462  0.50330231  0.49681290  1
  Sc  Sc80  1  0.69523477  0.30124903  0.49122169  1
  Sc  Sc81  1  0.30701246  0.89912849  0.50528926  1
  Sc  Sc82  1  0.91275366  0.50026549  0.09900112  1
  Sc  Sc83  1  0.49700894  0.90095444  0.69528419  1
  Sc  Sc84  1  0.89175230  0.89592055  0.10193590  1
  Sc  Sc85  1  0.69494850  0.70875384  0.09635378  1
  Sc  Sc86  1  0.09258268  0.70466925  0.90069776  1
  Sc  Sc87  1  0.49959846  0.70430417  0.70320616  1
  Sc  Sc88  1  0.29606076  0.69264671  0.10200362  1
  Sc  Sc89  1  0.91069473  0.69789802  0.70776846  1
  Sc  Sc90  1  0.09160932  0.30175511  0.69786782  1
  Sc  Sc91  1  0.09603542  0.69364113  0.10822893  1
  Sc  Sc92  1  0.49993793  0.90513710  0.10215646  1
  Sc  Sc93  1  0.89494490  0.89034867  0.29816458  1
  Sc  Sc94  1  0.29233416  0.50339414  0.30046848  1
  Sc  Sc95  1  0.50168630  0.51114766  0.29779147  1
  Sc  Sc96  1  0.90026012  0.30347213  0.10022365  1
  Sc  Sc97  1  0.30253650  0.09512335  0.69409245  1
  Sc  Sc98  1  0.09640533  0.10617760  0.91622006  1
  Sc  Sc99  1  0.90677879  0.49878903  0.30781163  1
  Nb  Nb100  1  0.89682662  0.50457392  0.89833588  1
  Nb  Nb101  1  0.09685899  0.50512289  0.30016430  1
  Nb  Nb102  1  0.70122560  0.70064597  0.69810352  1
  Nb  Nb103  1  0.30074837  0.10096000  0.89530261  1
  Nb  Nb104  1  0.09740479  0.10011982  0.10574758  1
  Nb  Nb105  1  0.28637390  0.89937096  0.28893904  1
  Nb  Nb106  1  0.90125277  0.09676350  0.49610077  1
  Nb  Nb107  1  0.70417057  0.70041928  0.50588598  1
  Nb  Nb108  1  0.89830779  0.69979677  0.90464430  1
  Nb  Nb109  1  0.29879060  0.70366175  0.30041658  1
  Nb  Nb110  1  0.10329818  0.90012141  0.29716762  1
  Nb  Nb111  1  0.10203285  0.69553709  0.50124581  1
  Nb  Nb112  1  0.29785643  0.09671792  0.29665618  1
  Nb  Nb113  1  0.49867540  0.09251997  0.49512591  1
  Nb  Nb114  1  0.10431694  0.69785593  0.70279334  1
  Nb  Nb115  1  0.90603137  0.09893835  0.89155036  1
  Nb  Nb116  1  0.89788033  0.69723810  0.29550355  1
  Nb  Nb117  1  0.49551408  0.70653561  0.29923367  1
  Nb  Nb118  1  0.70362863  0.49677678  0.30229216  1
  Nb  Nb119  1  0.70220028  0.30741828  0.29954897  1
  Nb  Nb120  1  0.90115019  0.30612488  0.70430823  1
  Nb  Nb121  1  0.69955102  0.10069100  0.10395424  1
  Nb  Nb122  1  0.50010785  0.90975353  0.49848396  1
  Nb  Nb123  1  0.09649911  0.10075161  0.29805945  1
  Nb  Nb124  1  0.70259689  0.09649922  0.69965624  1
  Nb  Nb125  1  0.19895253  0.40438680  0.79984153  1
  Nb  Nb126  1  0.60793619  0.39799792  0.20086008  1
  Nb  Nb127  1  0.80249717  0.40250993  0.60407588  1
  Nb  Nb128  1  0.00169623  0.00503819  0.80312260  1
  Nb  Nb129  1  0.19633970  0.19244359  0.20206093  1
  Nb  Nb130  1  0.60036255  0.39767684  0.00216604  1
  Nb  Nb131  1  0.19550236  0.00447837  0.80341871  1
  Nb  Nb132  1  0.00225685  0.00021490  0.39757881  1
  Nb  Nb133  1  0.19476034  -0.00034035  0.39126300  1
  Nb  Nb134  1  0.79974711  0.60109469  0.20403389  1
  Nb  Nb135  1  0.79925430  0.79622582  0.79969148  1
  Nb  Nb136  1  0.20084402  0.19942002  0.80208872  1
  Nb  Nb137  1  0.39501660  0.19617424  -0.00723886  1
  Nb  Nb138  1  0.19877804  0.59564011  0.79383862  1
  Nb  Nb139  1  0.60490061  0.60655769  0.59628782  1
  Nb  Nb140  1  0.19514704  0.60354714  0.60134815  1
  Nb  Nb141  1  0.19630833  0.79034379  0.60220886  1
  Nb  Nb142  1  0.39754256  0.79856764  0.20940779  1
  Nb  Nb143  1  0.00429804  0.00080846  0.20544746  1
  Nb  Nb144  1  0.79756835  0.60143246  0.60045202  1
  Nb  Nb145  1  0.19924634  0.19452477  0.39256565  1
  Nb  Nb146  1  0.80567135  0.60383490  0.00089354  1
  Nb  Nb147  1  0.60103327  0.39688425  0.80320356  1
  Nb  Nb148  1  0.40616659  0.19233287  0.59051537  1
  Nb  Nb149  1  0.60819104  0.20181086  0.20006070  1
  Pd  Pd150  1  0.59797161  0.00162023  -0.00059580  1
  Pd  Pd151  1  0.20335556  0.00449603  -0.00262558  1
  Pd  Pd152  1  0.00846293  0.59587441  0.80733612  1
  Pd  Pd153  1  -0.00392891  0.60445280  0.59722801  1
  Pd  Pd154  1  0.80771482  0.41000735  0.20177069  1
  Pd  Pd155  1  0.58893955  0.20033108  0.00997428  1
  Pd  Pd156  1  0.00292491  0.80205212  0.00653918  1
  Pd  Pd157  1  0.40378180  0.79858727  0.01101344  1
  Pd  Pd158  1  0.19782323  0.78971818  0.00740507  1
  Pd  Pd159  1  0.40480813  0.40566396  0.39148224  1
  Pd  Pd160  1  0.80391520  0.20764873  0.59088335  1
  Pd  Pd161  1  0.80232255  0.40754836  -0.00562195  1
  Pd  Pd162  1  0.60099001  0.80783015  0.79653659  1
  Pd  Pd163  1  -0.00799850  0.20507877  0.00378814  1
  Pd  Pd164  1  0.59301642  0.79927180  0.59781470  1
  Pd  Pd165  1  0.60647295  0.59311402  -0.00040955  1
  Pd  Pd166  1  0.60837115  0.59712229  0.20322255  1
  Pd  Pd167  1  0.80954930  0.19172594  -0.00757463  1
  Pd  Pd168  1  0.60117260  0.19756327  0.39308467  1
  Pd  Pd169  1  -0.00245104  0.78765656  0.59907941  1
  Pd  Pd170  1  -0.00081891  0.80198776  0.39520160  1
  Pd  Pd171  1  0.19771537  -0.01527413  0.60189708  1
  Pd  Pd172  1  0.39180507  0.81268191  0.39412872  1
  Pd  Pd173  1  0.80145411  0.00642756  -0.00216364  1
  Pd  Pd174  1  0.40706359  0.40870996  0.20310756  1
  Pd  Pd175  1  0.39238759  0.20190582  0.78957855  1
  Pd  Pd176  1  0.79799752  0.19511582  0.80307945  1
  Pd  Pd177  1  0.59349587  0.59971246  0.40418244  1
  Pd  Pd178  1  0.60763869  0.40335747  0.60354314  1
  Pd  Pd179  1  0.00960424  0.20278678  0.40623671  1
  Pd  Pd180  1  0.80843722  0.39872910  0.40807833  1
  Pd  Pd181  1  0.20634835  0.20024126  0.00518312  1
  Pd  Pd182  1  0.78841771  0.79379312  0.20283610  1
  Pd  Pd183  1  0.39813234  0.59538143  0.39645820  1
  Pd  Pd184  1  0.19875091  0.39212955  0.20687485  1
  Pd  Pd185  1  0.39787394  0.59821637  0.79914543  1
  Pd  Pd186  1  0.19511475  0.60278395  -0.00635048  1
  Pd  Pd187  1  0.59756562  0.80238831  0.19938799  1
  Pd  Pd188  1  0.80505519  -0.00700540  0.40190370  1
  Pd  Pd189  1  0.20398315  0.79817298  0.79901865  1
  Pd  Pd190  1  0.59552995  0.80734511  0.00526450  1
  Pd  Pd191  1  0.20175709  0.80608136  0.40982379  1
  Pd  Pd192  1  -0.00631938  0.20620127  0.59985706  1
  Pd  Pd193  1  -0.00314892  -0.00400318  0.00469575  1
  Pd  Pd194  1  0.60742512  -0.00311995  0.59392682  1
  Pd  Pd195  1  0.79918039  0.19796381  0.20266993  1
  Pd  Pd196  1  0.19512743  0.40176773  -0.00168857  1
  Pd  Pd197  1  0.19626345  0.38830081  0.38680776  1
  Pd  Pd198  1  0.60403819  -0.00640429  0.79759437  1
  Pd  Pd199  1  0.38799885  -0.00898569  0.39280862  1
  Rh  Rh200  1  0.81208582  0.78703228  0.60890184  1
  Rh  Rh201  1  0.79412206  0.79340056  -0.00623789  1
  Rh  Rh202  1  0.40631702  0.00358328  0.60205409  1
  Rh  Rh203  1  0.79134311  0.39293910  0.79793821  1
  Rh  Rh204  1  0.60007773  0.00941816  0.20070092  1
  Rh  Rh205  1  0.80714486  0.61171696  0.80142615  1
  Rh  Rh206  1  -0.00328503  0.59940424  0.20875353  1
  Rh  Rh207  1  0.79676658  0.20621782  0.40364975  1
  Rh  Rh208  1  0.80442308  0.60150300  0.39833832  1
  Rh  Rh209  1  0.40687172  0.80252670  0.80514776  1
  Rh  Rh210  1  0.80758732  0.00139527  0.20046816  1
  Rh  Rh211  1  0.40786768  0.38393038  0.59586715  1
  Rh  Rh212  1  -0.00585569  0.60353843  0.00060501  1
  Rh  Rh213  1  -0.00527130  0.39930194  -0.00193267  1
  Rh  Rh214  1  0.60295423  0.80523830  0.40471549  1
  Rh  Rh215  1  0.79866670  0.79977029  0.39693098  1
  Rh  Rh216  1  0.40529989  0.60799350  0.58969276  1
  Rh  Rh217  1  0.00142001  0.80574274  0.20364907  1
  Rh  Rh218  1  0.40118297  0.00614368  -0.00570871  1
  Rh  Rh219  1  0.59311520  0.40560424  0.38750777  1
  Rh  Rh220  1  0.19662913  0.60143543  0.20884335  1
  Rh  Rh221  1  0.20292972  0.78877808  0.19693785  1
  Rh  Rh222  1  0.00849056  0.40445993  0.80639638  1
  Rh  Rh223  1  0.00516966  0.19545627  0.79886521  1
  Rh  Rh224  1  0.19689590  0.41167724  0.60888811  1
  Rh  Rh225  1  0.00395730  0.60713928  0.39263146  1
  Rh  Rh226  1  0.60596064  -0.00136908  0.40632255  1
  Rh  Rh227  1  0.39552270  0.60179882  0.00292765  1
  Rh  Rh228  1  0.39523035  -0.00287492  0.79928711  1
  Rh  Rh229  1  0.19822076  0.60431858  0.39982715  1
  Rh  Rh230  1  0.80520487  -0.00273247  0.80405349  1
  Rh  Rh231  1  0.40093023  0.80047294  0.59480206  1
  Rh  Rh232  1  -0.00362392  0.40444486  0.20270956  1
  Rh  Rh233  1  0.39693765  0.19617828  0.40669187  1
  Rh  Rh234  1  0.58921764  0.59620881  0.79286434  1
  Rh  Rh235  1  0.21084309  0.20536750  0.59804845  1
  Rh  Rh236  1  0.40110366  0.39673907  0.78910239  1
  Rh  Rh237  1  -0.00601382  0.00332462  0.59942532  1
  Rh  Rh238  1  0.40244337  -0.01002721  0.20658937  1
  Rh  Rh239  1  0.59610161  0.19145818  0.59322182  1
  Rh  Rh240  1  0.19389747  0.00760205  0.19945341  1
  Rh  Rh241  1  0.40483128  0.39743399  0.01022462  1
  Rh  Rh242  1  0.60797751  0.19870650  0.79574564  1
  Rh  Rh243  1  0.39766195  0.19205260  0.18857349  1
  Rh  Rh244  1  0.79660847  0.00462432  0.59411635  1
  Rh  Rh245  1  -0.00937590  0.80712346  0.80683224  1
  Rh  Rh246  1  0.00121717  0.19934085  0.19277230  1
  Rh  Rh247  1  0.39218235  0.60708717  0.20704033  1
  Rh  Rh248  1  -0.01117441  0.39611236  0.59480635  1
  Rh  Rh249  1  0.00372771  0.39605933  0.40022411  1
