# generated using pymatgen
data_ZrScNbPdRh
_symmetry_space_group_name_H-M   'P 1'
_cell_length_a   16.55574259
_cell_length_b   16.55293461
_cell_length_c   16.55163363
_cell_angle_alpha   89.97628241
_cell_angle_beta   89.97571132
_cell_angle_gamma   89.97658150
_symmetry_Int_Tables_number   1
_chemical_formula_structural   ZrScNbPdRh
_chemical_formula_sum   'Zr50 Sc50 Nb50 Pd50 Rh50'
_cell_volume   4535.90987848
_cell_formula_units_Z   50
loop_
 _symmetry_equiv_pos_site_id
 _symmetry_equiv_pos_as_xyz
  1  'x, y, z'
loop_
 _atom_site_type_symbol
 _atom_site_label
 _atom_site_symmetry_multiplicity
 _atom_site_fract_x
 _atom_site_fract_y
 _atom_site_fract_z
 _atom_site_occupancy
  Zr  Zr0  1  0.50321537  0.50210929  0.49866379  1
  Zr  Zr1  1  0.10510338  0.31408702  0.69600119  1
  Zr  Zr2  1  0.89847011  0.69643388  0.29810424  1
  Zr  Zr3  1  0.91461612  0.09818154  0.90389533  1
  Zr  Zr4  1  0.50171083  0.10684047  0.50010121  1
  Zr  Zr5  1  0.90590141  0.50070722  0.70483313  1
  Zr  Zr6  1  0.89568505  0.09206256  0.50045396  1
  Zr  Zr7  1  0.69693936  0.69965092  0.49738655  1
  Zr  Zr8  1  0.30596755  0.70322784  0.30455269  1
  Zr  Zr9  1  0.10310016  0.50313052  0.29521005  1
  Zr  Zr10  1  0.30631433  0.90288209  0.29741106  1
  Zr  Zr11  1  0.29988298  0.50125237  0.90222857  1
  Zr  Zr12  1  0.30568637  0.89698076  0.90430392  1
  Zr  Zr13  1  0.10487509  0.51517166  0.09915533  1
  Zr  Zr14  1  0.70036204  0.30256818  0.29519737  1
  Zr  Zr15  1  0.10606928  0.69274861  0.91378432  1
  Zr  Zr16  1  0.10170059  0.90884883  0.30113314  1
  Zr  Zr17  1  0.29798274  0.89598603  0.69774391  1
  Zr  Zr18  1  0.49983285  0.30233706  0.30407089  1
  Zr  Zr19  1  0.90131350  0.49919834  0.89444002  1
  Zr  Zr20  1  0.90256614  0.10962887  0.09942973  1
  Zr  Zr21  1  0.89770252  0.70033382  0.50164102  1
  Zr  Zr22  1  0.09936400  0.90073209  0.70058859  1
  Zr  Zr23  1  0.50390476  0.30276546  0.50031747  1
  Zr  Zr24  1  0.29796772  0.10909510  0.90017040  1
  Zr  Zr25  1  0.09748836  0.90346725  0.49725476  1
  Zr  Zr26  1  0.09785782  0.28864424  0.31036089  1
  Zr  Zr27  1  0.49954361  0.90787765  0.89594111  1
  Zr  Zr28  1  0.89307036  0.29680235  0.69516135  1
  Zr  Zr29  1  0.50031177  0.69828336  0.29572814  1
  Zr  Zr30  1  0.50029826  0.50511780  0.09966906  1
  Zr  Zr31  1  0.49161068  0.29585395  0.90045134  1
  Zr  Zr32  1  0.69660652  0.70813322  0.29606254  1
  Zr  Zr33  1  0.10514181  0.70010144  0.29935501  1
  Zr  Zr34  1  0.70194407  0.30221849  0.51365133  1
  Zr  Zr35  1  0.70079152  0.70092971  0.90031219  1
  Zr  Zr36  1  0.70979595  0.91509503  0.50001945  1
  Zr  Zr37  1  0.50122050  0.10094443  0.90274234  1
  Zr  Zr38  1  0.69452035  0.29712751  0.89855869  1
  Zr  Zr39  1  0.70602021  0.49332817  0.89009431  1
  Zr  Zr40  1  0.29950661  0.90020600  0.09715763  1
  Zr  Zr41  1  0.29841177  0.29460756  0.29366803  1
  Zr  Zr42  1  0.90416560  0.30346828  0.49136729  1
  Zr  Zr43  1  0.68872131  0.09727063  0.89641448  1
  Zr  Zr44  1  0.10149348  0.70125336  0.50358441  1
  Zr  Zr45  1  0.29698121  0.10125696  0.30400277  1
  Zr  Zr46  1  0.90018383  0.69682741  0.70067363  1
  Zr  Zr47  1  0.69187302  0.70019979  0.09965801  1
  Zr  Zr48  1  0.10388820  0.10174650  0.48264514  1
  Zr  Zr49  1  0.69621262  0.09062505  0.30536926  1
  Sc  Sc50  1  0.49912788  0.29393735  0.09817371  1
  Sc  Sc51  1  0.09415567  0.89763600  0.90850956  1
  Sc  Sc52  1  0.49795839  0.09804480  0.70482671  1
  Sc  Sc53  1  0.49308253  0.90196984  0.50133764  1
  Sc  Sc54  1  0.30551354  0.50705524  0.49612594  1
  Sc  Sc55  1  0.09774706  0.69847496  0.70755477  1
  Sc  Sc56  1  0.30628706  0.29101959  0.09884868  1
  Sc  Sc57  1  0.89961063  0.69837711  0.10136034  1
  Sc  Sc58  1  0.70142925  0.90996240  0.69086198  1
  Sc  Sc59  1  0.09596945  0.10422895  0.71057708  1
  Sc  Sc60  1  0.49997289  0.09987221  0.09702916  1
  Sc  Sc61  1  0.30050083  0.70633015  0.09499278  1
  Sc  Sc62  1  0.69362903  0.89619118  0.10140459  1
  Sc  Sc63  1  0.89942671  0.50389274  0.10402491  1
  Sc  Sc64  1  0.49564873  0.09381930  0.30274748  1
  Sc  Sc65  1  0.89979303  0.90405567  0.08983668  1
  Sc  Sc66  1  0.49643186  0.90128542  0.09818538  1
  Sc  Sc67  1  0.90647268  0.69892491  0.89689961  1
  Sc  Sc68  1  0.29853063  0.70254629  0.70057970  1
  Sc  Sc69  1  0.69641760  0.50099366  0.30020511  1
  Sc  Sc70  1  0.30120356  0.09805844  0.09824016  1
  Sc  Sc71  1  0.30144713  0.70022994  0.89556682  1
  Sc  Sc72  1  0.10731407  0.28863000  0.10200324  1
  Sc  Sc73  1  0.10796106  0.28970489  0.89325342  1
  Sc  Sc74  1  0.49087569  0.90082072  0.70267552  1
  Sc  Sc75  1  0.69733475  0.09745796  0.09730901  1
  Sc  Sc76  1  0.49485218  0.69346538  0.49903230  1
  Sc  Sc77  1  0.90556815  0.09974537  0.70335083  1
  Sc  Sc78  1  0.49267753  0.70030578  0.90394533  1
  Sc  Sc79  1  0.29574723  0.89990731  0.50691069  1
  Sc  Sc80  1  0.71067540  0.29663897  0.10097000  1
  Sc  Sc81  1  0.30348277  0.70138459  0.50473744  1
  Sc  Sc82  1  0.29899390  0.50879044  0.29788505  1
  Sc  Sc83  1  0.30590324  0.09330833  0.49862853  1
  Sc  Sc84  1  0.29981444  0.49658125  0.70822453  1
  Sc  Sc85  1  0.50396158  0.89808499  0.29441331  1
  Sc  Sc86  1  0.30679545  0.29348632  0.49272490  1
  Sc  Sc87  1  0.48778696  0.50064737  0.89735696  1
  Sc  Sc88  1  0.90900190  0.10284118  0.29736893  1
  Sc  Sc89  1  0.48709773  0.69805205  0.69336421  1
  Sc  Sc90  1  0.69289485  0.49618152  0.10631982  1
  Sc  Sc91  1  0.69948631  0.30594498  0.70310510  1
  Sc  Sc92  1  0.49898362  0.50484728  0.69334080  1
  Sc  Sc93  1  0.29902281  0.30078351  0.71269841  1
  Sc  Sc94  1  0.69671346  0.90454289  0.91014277  1
  Sc  Sc95  1  0.89896014  0.49367479  0.50231036  1
  Sc  Sc96  1  0.89771479  0.29474630  0.29486436  1
  Sc  Sc97  1  0.49642832  0.29870404  0.70523508  1
  Sc  Sc98  1  0.89228226  0.29613494  0.90291504  1
  Sc  Sc99  1  0.89670086  0.49665658  0.30208673  1
  Nb  Nb100  1  0.70348759  0.10093856  0.69284082  1
  Nb  Nb101  1  0.29348250  0.10098648  0.69962699  1
  Nb  Nb102  1  0.10514531  0.89743857  0.09925088  1
  Nb  Nb103  1  0.30171019  0.49105605  0.09630025  1
  Nb  Nb104  1  0.30440071  0.30780347  0.89939121  1
  Nb  Nb105  1  0.70120958  0.50217464  0.69773882  1
  Nb  Nb106  1  0.09677309  0.70632297  0.10170278  1
  Nb  Nb107  1  0.90692505  0.29743134  0.09779823  1
  Nb  Nb108  1  0.70263193  0.70286876  0.69769708  1
  Nb  Nb109  1  0.50363377  0.70234223  0.10401027  1
  Nb  Nb110  1  0.69316533  0.49921159  0.51598472  1
  Nb  Nb111  1  0.10239579  0.09640350  0.29959049  1
  Nb  Nb112  1  0.89741446  0.90264946  0.89114917  1
  Nb  Nb113  1  0.10051373  0.49825082  0.89912992  1
  Nb  Nb114  1  0.09112069  0.48871687  0.50854179  1
  Nb  Nb115  1  0.50041675  0.49703486  0.29422302  1
  Nb  Nb116  1  0.70216587  0.90115499  0.29779655  1
  Nb  Nb117  1  0.09837058  0.30395620  0.49909124  1
  Nb  Nb118  1  0.90229190  0.90138577  0.30471165  1
  Nb  Nb119  1  0.10249126  0.09614419  0.90405420  1
  Nb  Nb120  1  0.89909117  0.90181370  0.50319196  1
  Nb  Nb121  1  0.09462267  0.49765759  0.69913284  1
  Nb  Nb122  1  0.70021303  0.10053049  0.50579988  1
  Nb  Nb123  1  0.90041243  0.90119714  0.69649218  1
  Nb  Nb124  1  0.09571327  0.08673949  0.08751244  1
  Nb  Nb125  1  0.00662871  0.20437840  0.59299659  1
  Nb  Nb126  1  0.79220106  0.19499236  0.40560753  1
  Nb  Nb127  1  0.00591062  0.80454023  0.19832410  1
  Nb  Nb128  1  0.60452217  0.60524097  0.79362399  1
  Nb  Nb129  1  0.19948958  0.00244540  0.80526035  1
  Nb  Nb130  1  0.00509087  0.39630314  0.19340119  1
  Nb  Nb131  1  0.79938194  0.80732254  0.79570325  1
  Nb  Nb132  1  -0.00554147  0.80578249  0.59925821  1
  Nb  Nb133  1  0.19446441  0.39980823  0.40338829  1
  Nb  Nb134  1  0.60448905  0.79789327  0.79329982  1
  Nb  Nb135  1  0.40197074  0.40433040  0.20034245  1
  Nb  Nb136  1  0.19599856  0.20234892  0.59751606  1
  Nb  Nb137  1  0.79432486  0.59804439  -0.00312206  1
  Nb  Nb138  1  0.79432514  0.59772864  0.60303748  1
  Nb  Nb139  1  0.18965080  0.58892909  0.60248877  1
  Nb  Nb140  1  0.80158534  -0.00433483  0.20503298  1
  Nb  Nb141  1  0.40151102  0.39888702  0.59568589  1
  Nb  Nb142  1  0.59810075  0.39750424  -0.00435899  1
  Nb  Nb143  1  0.60363988  0.79831348  0.60173227  1
  Nb  Nb144  1  0.80275416  -0.00166055  0.80051898  1
  Nb  Nb145  1  0.20058406  0.40197840  -0.00103291  1
  Nb  Nb146  1  0.00647542  0.39822355  0.00389258  1
  Nb  Nb147  1  0.00481598  0.59674680  0.40413468  1
  Nb  Nb148  1  0.60229060  0.19932484  0.20523923  1
  Nb  Nb149  1  0.80124410  0.81009467  0.39780211  1
  Pd  Pd150  1  0.80120960  0.40507376  0.00754984  1
  Pd  Pd151  1  0.01003368  0.19888312  0.19714953  1
  Pd  Pd152  1  0.40174298  0.80248157  0.40421928  1
  Pd  Pd153  1  0.79784099  0.19062136  0.80224433  1
  Pd  Pd154  1  -0.00446233  0.79569750  0.39911254  1
  Pd  Pd155  1  0.60872483  0.40584839  0.40274241  1
  Pd  Pd156  1  0.79644088  0.19347710  -0.00453372  1
  Pd  Pd157  1  0.79254867  0.59637755  0.19448503  1
  Pd  Pd158  1  0.20091871  0.00593129  0.19519524  1
  Pd  Pd159  1  0.40234405  0.00245295  0.60154379  1
  Pd  Pd160  1  0.21586839  0.40020879  0.59129517  1
  Pd  Pd161  1  0.20135232  0.20398240  0.00163818  1
  Pd  Pd162  1  0.19160364  0.01166124  0.60497248  1
  Pd  Pd163  1  0.80122252  0.59636155  0.40741121  1
  Pd  Pd164  1  0.59889754  0.19822774  0.79045357  1
  Pd  Pd165  1  0.19718203  0.80554229  0.80744100  1
  Pd  Pd166  1  0.79958263  0.00503041  0.00041892  1
  Pd  Pd167  1  0.00173225  0.20908613  0.79636616  1
  Pd  Pd168  1  0.58931947  -0.00361095  0.60379679  1
  Pd  Pd169  1  0.19388835  0.59239674  0.41174526  1
  Pd  Pd170  1  0.60258597  0.81015616  0.40887748  1
  Pd  Pd171  1  -0.00134068  0.38879322  0.80898943  1
  Pd  Pd172  1  0.19660758  0.59607448  0.79452933  1
  Pd  Pd173  1  0.39158987  0.20524659  0.60683360  1
  Pd  Pd174  1  -0.00864766  0.59559066  0.00027789  1
  Pd  Pd175  1  0.59101893  -0.00679585  0.40348698  1
  Pd  Pd176  1  0.79041122  0.39786046  0.40278126  1
  Pd  Pd177  1  -0.00533217  0.80170533  0.00375055  1
  Pd  Pd178  1  0.20045447  0.79932692  0.20035684  1
  Pd  Pd179  1  0.59013020  0.80334221  -0.00551537  1
  Pd  Pd180  1  0.80828119  0.80813895  0.19955074  1
  Pd  Pd181  1  0.40273913  0.00327538  0.19685143  1
  Pd  Pd182  1  0.80662467  0.79394905  -0.00497925  1
  Pd  Pd183  1  0.59871302  0.20143323  0.61062857  1
  Pd  Pd184  1  0.39556773  0.60691180  0.00416853  1
  Pd  Pd185  1  0.60526406  0.20049081  0.39699381  1
  Pd  Pd186  1  0.39467622  0.59927468  0.19489106  1
  Pd  Pd187  1  0.60223645  0.58974737  -0.01130835  1
  Pd  Pd188  1  0.58941938  0.40874390  0.80000853  1
  Pd  Pd189  1  0.20147362  0.39678228  0.19835176  1
  Pd  Pd190  1  -0.00462855  -0.00486245  0.19372877  1
  Pd  Pd191  1  0.20724820  0.80636230  0.40275838  1
  Pd  Pd192  1  0.39089330  0.40622568  0.39644488  1
  Pd  Pd193  1  -0.00094102  0.79904012  0.79839904  1
  Pd  Pd194  1  0.19393492  0.18574216  0.19372993  1
  Pd  Pd195  1  0.00594354  0.00588601  0.59959278  1
  Pd  Pd196  1  0.38909514  0.00611234  0.79862874  1
  Pd  Pd197  1  0.59865694  0.59465737  0.39459998  1
  Pd  Pd198  1  0.21250574  0.60950929  0.19229810  1
  Pd  Pd199  1  0.80872619  0.40105561  0.19602628  1
  Rh  Rh200  1  -0.00049636  -0.00725461  -0.00039933  1
  Rh  Rh201  1  0.79551486  0.60654569  0.79890366  1
  Rh  Rh202  1  0.20749263  0.20369379  0.40519983  1
  Rh  Rh203  1  -0.00016007  0.60405456  0.59538535  1
  Rh  Rh204  1  0.40386170  0.80063006  0.59785646  1
  Rh  Rh205  1  0.59007656  0.39693854  0.60870167  1
  Rh  Rh206  1  -0.00867814  0.19302350  0.40344715  1
  Rh  Rh207  1  0.59062932  0.39071438  0.19079426  1
  Rh  Rh208  1  -0.00019407  0.60326219  0.20710968  1
  Rh  Rh209  1  0.00910877  0.60135455  0.80692862  1
  Rh  Rh210  1  0.39934493  0.00337951  0.00013894  1
  Rh  Rh211  1  0.60929904  -0.00468297  0.79281504  1
  Rh  Rh212  1  0.40326991  0.79802276  0.19679280  1
  Rh  Rh213  1  0.20868252  0.59870596  0.00338610  1
  Rh  Rh214  1  0.60518425  0.20807262  0.00919232  1
  Rh  Rh215  1  0.20104174  0.19616476  0.79440341  1
  Rh  Rh216  1  0.80350674  0.39410131  0.79389761  1
  Rh  Rh217  1  0.39731736  0.19718411  -0.00224296  1
  Rh  Rh218  1  0.00695098  0.40774368  0.38581077  1
  Rh  Rh219  1  0.80382727  0.40857023  0.60405945  1
  Rh  Rh220  1  0.80553014  0.19450955  0.59514357  1
  Rh  Rh221  1  0.40285970  0.40301341  0.79277995  1
  Rh  Rh222  1  0.41065276  0.20208771  0.20522805  1
  Rh  Rh223  1  0.60488955  0.00386120  0.19644783  1
  Rh  Rh224  1  0.00769030  0.20567589  -0.00146689  1
  Rh  Rh225  1  0.19306083  0.79172205  0.60397945  1
  Rh  Rh226  1  0.40391487  0.79823584  0.00104415  1
  Rh  Rh227  1  0.39690296  0.19709295  0.80055733  1
  Rh  Rh228  1  0.38446593  0.59246951  0.60422257  1
  Rh  Rh229  1  0.20066646  0.80059382  -0.00205492  1
  Rh  Rh230  1  0.80702526  0.00220750  0.39201409  1
  Rh  Rh231  1  -0.01038166  0.39326846  0.60482950  1
  Rh  Rh232  1  0.40710530  0.60021377  0.39408139  1
  Rh  Rh233  1  0.20867209  -0.00590042  0.39822757  1
  Rh  Rh234  1  0.19842642  0.40482740  0.81018039  1
  Rh  Rh235  1  0.80661232  0.00863974  0.61124546  1
  Rh  Rh236  1  0.59440421  0.80373914  0.19705453  1
  Rh  Rh237  1  0.00343637  -0.00351643  0.80467151  1
  Rh  Rh238  1  0.40156032  0.19337973  0.39786701  1
  Rh  Rh239  1  0.40567855  0.79771511  0.80130951  1
  Rh  Rh240  1  0.79163843  0.18767384  0.20852903  1
  Rh  Rh241  1  0.59446723  -0.00260154  0.00561109  1
  Rh  Rh242  1  -0.00358251  0.00376876  0.39774838  1
  Rh  Rh243  1  0.60372349  0.60792234  0.60533901  1
  Rh  Rh244  1  0.60177467  0.60279655  0.20510371  1
  Rh  Rh245  1  0.40503163  0.60201190  0.79698962  1
  Rh  Rh246  1  0.80090123  0.79672356  0.59774359  1
  Rh  Rh247  1  0.20069530  -0.00342006  -0.00483483  1
  Rh  Rh248  1  0.39980533  0.39437782  0.00803883  1
  Rh  Rh249  1  0.39990558  -0.00351898  0.40089529  1
