# generated using pymatgen
data_ZrScNbPdRh
_symmetry_space_group_name_H-M   'P 1'
_cell_length_a   16.56049778
_cell_length_b   16.56364714
_cell_length_c   16.56205957
_cell_angle_alpha   90.01728913
_cell_angle_beta   89.98767453
_cell_angle_gamma   89.97794253
_symmetry_Int_Tables_number   1
_chemical_formula_structural   ZrScNbPdRh
_chemical_formula_sum   'Zr50 Sc50 Nb50 Pd50 Rh50'
_cell_volume   4543.00941813
_cell_formula_units_Z   50
loop_
 _symmetry_equiv_pos_site_id
 _symmetry_equiv_pos_as_xyz
  1  'x, y, z'
loop_
 _atom_site_type_symbol
 _atom_site_label
 _atom_site_symmetry_multiplicity
 _atom_site_fract_x
 _atom_site_fract_y
 _atom_site_fract_z
 _atom_site_occupancy
  Zr  Zr0  1  0.10567646  0.69967488  0.49713541  1
  Zr  Zr1  1  0.90169957  0.49382772  0.50202844  1
  Zr  Zr2  1  0.10446109  0.90513571  0.49957165  1
  Zr  Zr3  1  0.49966056  0.90605773  0.30291378  1
  Zr  Zr4  1  0.49502647  0.50478527  0.09574915  1
  Zr  Zr5  1  0.30341186  0.29932728  0.90269518  1
  Zr  Zr6  1  0.10303230  0.30211535  0.30094209  1
  Zr  Zr7  1  0.90053674  0.89292056  0.71258413  1
  Zr  Zr8  1  0.69346849  0.70220409  0.49881499  1
  Zr  Zr9  1  0.49927723  0.70085387  0.09522298  1
  Zr  Zr10  1  0.29914146  0.70371344  0.50752350  1
  Zr  Zr11  1  0.70283335  0.69876753  0.29975391  1
  Zr  Zr12  1  0.50226638  0.29159185  0.10053200  1
  Zr  Zr13  1  0.29646717  0.09316879  0.90679732  1
  Zr  Zr14  1  0.70131334  0.10160007  0.29561870  1
  Zr  Zr15  1  0.70371057  0.09424827  0.50151794  1
  Zr  Zr16  1  0.70057438  0.89280466  0.90498798  1
  Zr  Zr17  1  0.70306764  0.29897137  0.29839125  1
  Zr  Zr18  1  0.69696689  0.89989209  0.50032752  1
  Zr  Zr19  1  0.50324732  0.90419539  0.09021232  1
  Zr  Zr20  1  0.49781499  0.09810832  0.11423934  1
  Zr  Zr21  1  0.69989034  0.50830130  0.09934947  1
  Zr  Zr22  1  0.90200973  0.70187687  0.89397177  1
  Zr  Zr23  1  0.10688414  0.69539196  0.70582770  1
  Zr  Zr24  1  0.69356010  0.69232745  0.90053466  1
  Zr  Zr25  1  0.09926758  0.90778619  0.10672658  1
  Zr  Zr26  1  0.90516310  0.69543435  0.48855231  1
  Zr  Zr27  1  0.29836357  0.30349436  0.29659874  1
  Zr  Zr28  1  0.30026547  0.29112412  0.48862430  1
  Zr  Zr29  1  0.49562215  0.69779546  0.70126195  1
  Zr  Zr30  1  0.08900030  0.70021211  0.30218637  1
  Zr  Zr31  1  0.30530123  0.89398008  0.90221178  1
  Zr  Zr32  1  0.29167739  0.10019405  0.69847506  1
  Zr  Zr33  1  0.31828125  0.49662118  0.89065553  1
  Zr  Zr34  1  0.69614366  0.09671244  0.69702761  1
  Zr  Zr35  1  0.89650011  0.70052180  0.70692378  1
  Zr  Zr36  1  0.69881725  0.48761261  0.49764754  1
  Zr  Zr37  1  0.71108509  0.10690563  0.89619940  1
  Zr  Zr38  1  0.29997091  0.90009138  0.30587698  1
  Zr  Zr39  1  0.10276405  0.29575637  0.69686160  1
  Zr  Zr40  1  0.50059004  0.31184725  0.90453985  1
  Zr  Zr41  1  0.09993959  0.50555168  0.10203547  1
  Zr  Zr42  1  0.69196370  0.11338263  0.10592277  1
  Zr  Zr43  1  0.29856849  0.30334559  0.70759672  1
  Zr  Zr44  1  0.70099799  0.49466256  0.71327971  1
  Zr  Zr45  1  0.90241656  0.90352141  0.89865659  1
  Zr  Zr46  1  0.29401944  0.09472016  0.50244387  1
  Zr  Zr47  1  0.90462189  0.90076825  0.09720206  1
  Zr  Zr48  1  0.69937348  0.29737771  0.69911366  1
  Zr  Zr49  1  0.49681204  0.70830286  0.90183417  1
  Sc  Sc50  1  0.89593143  0.69515034  0.10988533  1
  Sc  Sc51  1  0.90168644  0.09404704  0.89881693  1
  Sc  Sc52  1  0.69755296  0.30074046  0.10431575  1
  Sc  Sc53  1  0.09939894  0.30020145  0.49371988  1
  Sc  Sc54  1  0.10971012  0.50546686  0.29696530  1
  Sc  Sc55  1  0.10117013  0.89527879  0.29523117  1
  Sc  Sc56  1  0.50027581  0.50163297  0.49552501  1
  Sc  Sc57  1  0.30259187  0.89761088  0.50051738  1
  Sc  Sc58  1  0.48926026  0.50214737  0.29805992  1
  Sc  Sc59  1  0.89503524  0.10229549  0.30514259  1
  Sc  Sc60  1  0.90534300  0.30527042  0.49238826  1
  Sc  Sc61  1  0.90260752  0.50785502  0.09458526  1
  Sc  Sc62  1  0.50864473  0.30068986  0.69730055  1
  Sc  Sc63  1  0.90387874  0.09522723  0.09397281  1
  Sc  Sc64  1  0.90500814  0.30754652  0.69726452  1
  Sc  Sc65  1  0.89802717  0.91001373  0.50131242  1
  Sc  Sc66  1  0.70266614  0.89363782  0.69484850  1
  Sc  Sc67  1  0.49310855  0.89677821  0.69913896  1
  Sc  Sc68  1  0.49743170  0.09260649  0.91955564  1
  Sc  Sc69  1  0.30183922  0.51418126  0.49873581  1
  Sc  Sc70  1  0.10023459  0.90499902  0.70589712  1
  Sc  Sc71  1  0.28924917  0.90232978  0.09661886  1
  Sc  Sc72  1  0.90459013  0.90516277  0.29101906  1
  Sc  Sc73  1  0.10468445  0.70286199  0.89549848  1
  Sc  Sc74  1  0.30236987  0.70037390  0.09923905  1
  Sc  Sc75  1  0.48619772  0.29721427  0.30425976  1
  Sc  Sc76  1  0.49514462  0.70156855  0.49342483  1
  Sc  Sc77  1  0.49205272  0.89556846  0.50052546  1
  Sc  Sc78  1  0.89718893  0.29931778  0.09541606  1
  Sc  Sc79  1  0.09873424  0.70222498  0.10706338  1
  Sc  Sc80  1  0.09616083  0.29980006  0.89471548  1
  Sc  Sc81  1  0.30127015  0.51351134  0.70059435  1
  Sc  Sc82  1  0.31196975  0.10202280  0.30275033  1
  Sc  Sc83  1  0.89472794  0.29755583  0.29944707  1
  Sc  Sc84  1  0.70562347  0.90331650  0.10240762  1
  Sc  Sc85  1  0.49742773  0.09235887  0.50623530  1
  Sc  Sc86  1  0.89522147  0.50559431  0.30105888  1
  Sc  Sc87  1  0.49996622  0.09121876  0.69262830  1
  Sc  Sc88  1  0.89713870  0.09141579  0.71239473  1
  Sc  Sc89  1  0.29600219  0.69644761  0.30317976  1
  Sc  Sc90  1  0.70194452  0.49376660  0.29979794  1
  Sc  Sc91  1  0.30025290  0.70011902  0.70393634  1
  Sc  Sc92  1  0.10023612  0.08787910  0.29980357  1
  Sc  Sc93  1  0.90059286  0.28990848  0.89533102  1
  Sc  Sc94  1  0.09850945  0.49829699  0.49713415  1
  Sc  Sc95  1  0.30385121  0.89951768  0.70174750  1
  Sc  Sc96  1  0.10829717  0.89804287  0.90170326  1
  Sc  Sc97  1  0.09638981  0.30179024  0.08585535  1
  Sc  Sc98  1  0.09928928  0.49729062  0.70246849  1
  Sc  Sc99  1  0.08992983  0.50383186  0.89743850  1
  Nb  Nb100  1  0.29968039  0.50402480  0.11001130  1
  Nb  Nb101  1  0.68813830  0.29721933  0.50441348  1
  Nb  Nb102  1  0.51236845  0.50705688  0.89220092  1
  Nb  Nb103  1  0.09864846  0.09459491  0.51147348  1
  Nb  Nb104  1  0.29412957  0.70461695  0.90096443  1
  Nb  Nb105  1  0.89105315  0.50878648  0.88808783  1
  Nb  Nb106  1  0.29950991  0.50191700  0.28091299  1
  Nb  Nb107  1  0.49946941  0.29915038  0.50290555  1
  Nb  Nb108  1  0.29566132  0.10280546  0.09933602  1
  Nb  Nb109  1  0.70040603  0.69946149  0.69633100  1
  Nb  Nb110  1  0.69436500  0.49626650  0.89827144  1
  Nb  Nb111  1  0.50267004  0.09999731  0.30058429  1
  Nb  Nb112  1  0.69599485  0.70036589  0.10192954  1
  Nb  Nb113  1  0.50326697  0.70761143  0.30004561  1
  Nb  Nb114  1  0.10487477  0.09980041  0.69521604  1
  Nb  Nb115  1  0.10596839  0.09464833  0.09690380  1
  Nb  Nb116  1  0.49999101  0.89854693  0.90265202  1
  Nb  Nb117  1  0.49540716  0.50520235  0.70883748  1
  Nb  Nb118  1  0.70350646  0.90390897  0.30126013  1
  Nb  Nb119  1  0.89975902  0.50449347  0.69997178  1
  Nb  Nb120  1  0.69615575  0.30136137  0.89675553  1
  Nb  Nb121  1  0.90174943  0.69937673  0.29975722  1
  Nb  Nb122  1  0.30033423  0.29852394  0.09910372  1
  Nb  Nb123  1  0.90229280  0.10124714  0.49927709  1
  Nb  Nb124  1  0.09768238  0.09572360  0.89954639  1
  Nb  Nb125  1  -0.00027311  0.18891998  0.59689619  1
  Nb  Nb126  1  0.60255431  0.00374816  0.39578729  1
  Nb  Nb127  1  0.60123871  0.80038428  0.20167935  1
  Nb  Nb128  1  0.60472672  0.59846235  0.60606935  1
  Nb  Nb129  1  0.79533501  0.40603835  -0.01287419  1
  Nb  Nb130  1  0.21025150  0.40743791  0.00167975  1
  Nb  Nb131  1  0.59747533  0.19936138  0.40498482  1
  Nb  Nb132  1  0.59837311  -0.00223217  0.80694409  1
  Nb  Nb133  1  0.79769534  0.59716330  0.60327689  1
  Nb  Nb134  1  0.20755384  0.59383594  -0.00132626  1
  Nb  Nb135  1  0.20879281  0.39694771  0.59837409  1
  Nb  Nb136  1  -0.00102950  0.80234695  0.00197502  1
  Nb  Nb137  1  0.59784989  0.60779363  0.20029358  1
  Nb  Nb138  1  0.19960589  0.19773597  0.19122370  1
  Nb  Nb139  1  0.80160800  0.80039591  0.39359785  1
  Nb  Nb140  1  0.00285222  0.39735581  0.19783077  1
  Nb  Nb141  1  0.80555385  0.19857828  0.59510294  1
  Nb  Nb142  1  0.40438426  0.19685641  0.80060546  1
  Nb  Nb143  1  0.59627011  0.19544397  0.80664058  1
  Nb  Nb144  1  0.00149728  0.79614817  0.60064889  1
  Nb  Nb145  1  0.39635851  0.20547047  0.60198530  1
  Nb  Nb146  1  0.00924561  0.20025188  0.19656231  1
  Nb  Nb147  1  -0.00573423  0.60150084  0.60310217  1
  Nb  Nb148  1  0.40706019  0.80126680  0.20231314  1
  Nb  Nb149  1  0.39874852  0.39810445  0.59924497  1
  Pd  Pd150  1  0.40496398  0.39497740  0.19413769  1
  Pd  Pd151  1  0.20719533  0.79522841  0.20179554  1
  Pd  Pd152  1  -0.00488502  0.40135260  0.80165221  1
  Pd  Pd153  1  0.39296591  0.40933796  0.40442197  1
  Pd  Pd154  1  0.00682890  0.19301202  0.39901685  1
  Pd  Pd155  1  0.19587269  0.80726031  0.60778541  1
  Pd  Pd156  1  0.39540566  0.60181390  -0.00662533  1
  Pd  Pd157  1  0.20236988  0.59834709  0.39657284  1
  Pd  Pd158  1  -0.00978390  0.40374052  -0.00360483  1
  Pd  Pd159  1  -0.00640168  0.81365554  0.40278482  1
  Pd  Pd160  1  0.81040687  0.79433592  0.58949436  1
  Pd  Pd161  1  0.80776184  0.39182658  0.80390463  1
  Pd  Pd162  1  -0.00166199  0.40696001  0.38634559  1
  Pd  Pd163  1  0.80007384  0.20715710  0.00191792  1
  Pd  Pd164  1  0.39833793  0.40329016  0.00820767  1
  Pd  Pd165  1  0.79435679  0.20693074  0.40913804  1
  Pd  Pd166  1  0.59292137  0.39224242  0.38966144  1
  Pd  Pd167  1  0.20065001  0.00113246  0.39704442  1
  Pd  Pd168  1  0.81014252  0.40547656  0.18922109  1
  Pd  Pd169  1  0.19957464  -0.00429456  0.80211312  1
  Pd  Pd170  1  0.19642440  0.40915621  0.80428912  1
  Pd  Pd171  1  0.80236296  0.39472625  0.59827435  1
  Pd  Pd172  1  0.80013352  0.60013625  -0.00328346  1
  Pd  Pd173  1  0.59884447  0.59449951  0.39679151  1
  Pd  Pd174  1  0.80399478  0.00729597  0.19509036  1
  Pd  Pd175  1  0.61167010  0.00580543  -0.00158372  1
  Pd  Pd176  1  0.60513971  0.40170475  0.00596202  1
  Pd  Pd177  1  0.80544187  0.79099360  0.00151696  1
  Pd  Pd178  1  0.79353234  0.00510037  0.00450944  1
  Pd  Pd179  1  0.59138177  0.40404097  0.20577760  1
  Pd  Pd180  1  0.59005582  0.41130716  0.60596434  1
  Pd  Pd181  1  0.80827826  0.00154802  0.60713432  1
  Pd  Pd182  1  -0.00591368  -0.00242074  0.60943415  1
  Pd  Pd183  1  0.19450989  0.20531593  -0.00315042  1
  Pd  Pd184  1  -0.00030044  0.19269104  0.79165087  1
  Pd  Pd185  1  0.40800069  0.00534961  0.80248338  1
  Pd  Pd186  1  0.00663084  0.61137254  -0.00388637  1
  Pd  Pd187  1  0.80040930  0.80082278  0.20355568  1
  Pd  Pd188  1  0.40312603  0.19708725  -0.00036974  1
  Pd  Pd189  1  0.00138499  0.19327286  0.00082860  1
  Pd  Pd190  1  0.20078046  0.19636470  0.81030678  1
  Pd  Pd191  1  0.60101867  0.80513494  0.79502796  1
  Pd  Pd192  1  0.39135460  -0.00622346  0.19433599  1
  Pd  Pd193  1  0.58897544  0.79823900  0.60120921  1
  Pd  Pd194  1  0.79551047  0.59872007  0.40327579  1
  Pd  Pd195  1  -0.00181382  -0.00200290  0.39565235  1
  Pd  Pd196  1  0.19261916  0.39157947  0.18938180  1
  Pd  Pd197  1  0.39696596  0.60335965  0.39388437  1
  Pd  Pd198  1  0.21026074  0.41220993  0.40433024  1
  Pd  Pd199  1  0.19164454  0.18734241  0.39198457  1
  Rh  Rh200  1  0.41004184  0.18940076  0.41082268  1
  Rh  Rh201  1  0.39293112  0.20026187  0.19828328  1
  Rh  Rh202  1  0.41289134  0.59604150  0.59856485  1
  Rh  Rh203  1  0.60599353  0.81222467  0.39383746  1
  Rh  Rh204  1  0.39273255  -0.00381591  0.00751872  1
  Rh  Rh205  1  -0.00198250  0.00993071  0.20094056  1
  Rh  Rh206  1  0.59252856  0.21038055  0.21351976  1
  Rh  Rh207  1  0.39275512  0.79557311  0.39608866  1
  Rh  Rh208  1  0.59481341  0.39447348  0.79790036  1
  Rh  Rh209  1  0.79567931  0.59738192  0.20276542  1
  Rh  Rh210  1  0.60063581  0.60615691  0.79499895  1
  Rh  Rh211  1  0.59582916  -0.01249626  0.60032722  1
  Rh  Rh212  1  0.00883173  -0.00461452  -0.00532997  1
  Rh  Rh213  1  0.01117194  0.39995389  0.60226512  1
  Rh  Rh214  1  0.40600492  0.00274812  0.40554498  1
  Rh  Rh215  1  0.19270265  0.79078488  0.00270136  1
  Rh  Rh216  1  0.39460586  0.80411654  0.00601136  1
  Rh  Rh217  1  0.81336660  0.19677130  0.19274160  1
  Rh  Rh218  1  0.59831523  0.59899241  0.00167613  1
  Rh  Rh219  1  0.39806149  0.79601523  0.60115061  1
  Rh  Rh220  1  0.19593614  0.20733068  0.59190568  1
  Rh  Rh221  1  0.79918514  -0.00640882  0.39865068  1
  Rh  Rh222  1  0.20778910  0.00857932  0.20544125  1
  Rh  Rh223  1  0.00889276  0.80246899  0.80342489  1
  Rh  Rh224  1  0.20067963  0.80075426  0.39965775  1
  Rh  Rh225  1  0.20351536  -0.00937005  0.60323665  1
  Rh  Rh226  1  0.79150089  0.60360117  0.79819950  1
  Rh  Rh227  1  0.40040805  0.61155186  0.80795927  1
  Rh  Rh228  1  0.20120675  0.60980537  0.19576012  1
  Rh  Rh229  1  0.78870396  -0.01065411  0.80090514  1
  Rh  Rh230  1  0.00196534  0.59870181  0.79526289  1
  Rh  Rh231  1  -0.00469553  0.79868008  0.19420155  1
  Rh  Rh232  1  0.41149657  0.39490590  0.79073197  1
  Rh  Rh233  1  0.79802229  0.39279956  0.40322582  1
  Rh  Rh234  1  0.60425887  -0.00551130  0.20417250  1
  Rh  Rh235  1  0.00279578  0.59209988  0.39896827  1
  Rh  Rh236  1  0.60482039  0.80053835  0.00582580  1
  Rh  Rh237  1  0.39771702  0.79804882  0.80226115  1
  Rh  Rh238  1  0.20470694  0.80359556  0.79741140  1
  Rh  Rh239  1  0.59933883  0.19524729  0.59899367  1
  Rh  Rh240  1  0.20513402  0.59572952  0.81035149  1
  Rh  Rh241  1  0.60062523  0.19958707  -0.00543808  1
  Rh  Rh242  1  0.19766214  -0.00126513  -0.00281809  1
  Rh  Rh243  1  0.79016024  0.79766560  0.80530206  1
  Rh  Rh244  1  0.40406319  0.61027795  0.20639129  1
  Rh  Rh245  1  0.00865165  0.00244847  0.80281830  1
  Rh  Rh246  1  0.79771538  0.20503110  0.79097804  1
  Rh  Rh247  1  0.39256499  0.00188162  0.59933136  1
  Rh  Rh248  1  0.18850867  0.59013619  0.60018300  1
  Rh  Rh249  1  -0.00177726  0.59385534  0.20707538  1
