# generated using pymatgen
data_ZrScNbPdRh
_symmetry_space_group_name_H-M   'P 1'
_cell_length_a   16.56379675
_cell_length_b   16.56786975
_cell_length_c   16.55804488
_cell_angle_alpha   90.04067111
_cell_angle_beta   89.97647121
_cell_angle_gamma   89.97740593
_symmetry_Int_Tables_number   1
_chemical_formula_structural   ZrScNbPdRh
_chemical_formula_sum   'Zr50 Sc50 Nb50 Pd50 Rh50'
_cell_volume   4543.96983689
_cell_formula_units_Z   50
loop_
 _symmetry_equiv_pos_site_id
 _symmetry_equiv_pos_as_xyz
  1  'x, y, z'
loop_
 _atom_site_type_symbol
 _atom_site_label
 _atom_site_symmetry_multiplicity
 _atom_site_fract_x
 _atom_site_fract_y
 _atom_site_fract_z
 _atom_site_occupancy
  Zr  Zr0  1  0.30836771  0.89817899  0.70043923  1
  Zr  Zr1  1  0.90974372  0.29800694  0.90099005  1
  Zr  Zr2  1  0.10116143  0.70296855  0.09436771  1
  Zr  Zr3  1  0.29730079  0.90900352  0.30262914  1
  Zr  Zr4  1  0.90142134  0.09710407  0.49619327  1
  Zr  Zr5  1  0.49846152  0.71044047  0.50126596  1
  Zr  Zr6  1  0.30471089  0.49714905  0.89445242  1
  Zr  Zr7  1  0.90201522  0.89588814  0.70583297  1
  Zr  Zr8  1  0.29923968  0.30280283  0.10128599  1
  Zr  Zr9  1  0.69983478  0.70464798  0.70154841  1
  Zr  Zr10  1  0.31246066  0.10187607  0.69992292  1
  Zr  Zr11  1  0.30760591  0.09775702  0.89880578  1
  Zr  Zr12  1  0.30084380  0.50535112  0.49824265  1
  Zr  Zr13  1  0.09922945  0.10113397  0.49569857  1
  Zr  Zr14  1  0.31175792  0.68941368  0.30118575  1
  Zr  Zr15  1  0.69709184  0.50777014  0.29703879  1
  Zr  Zr16  1  0.10016907  0.10068563  0.90397222  1
  Zr  Zr17  1  0.90240407  0.29439793  0.28747102  1
  Zr  Zr18  1  0.69171034  0.90308422  0.29321007  1
  Zr  Zr19  1  0.50345113  0.49986772  0.09618887  1
  Zr  Zr20  1  0.29774510  0.49360655  0.30589354  1
  Zr  Zr21  1  0.90010915  0.89525632  0.09728867  1
  Zr  Zr22  1  0.90478720  0.49690748  0.49745023  1
  Zr  Zr23  1  0.10459651  0.49802255  0.70522880  1
  Zr  Zr24  1  0.10444125  0.09486275  0.69015217  1
  Zr  Zr25  1  0.10287170  0.09689520  0.09305332  1
  Zr  Zr26  1  0.90175125  0.30559883  0.70167354  1
  Zr  Zr27  1  0.09890499  0.30251961  0.69921611  1
  Zr  Zr28  1  0.90135123  0.89109813  0.29576590  1
  Zr  Zr29  1  0.10039448  0.29654729  0.89546666  1
  Zr  Zr30  1  0.50502875  0.09576422  0.09448218  1
  Zr  Zr31  1  0.70012285  0.69665092  0.89698423  1
  Zr  Zr32  1  0.30985098  0.10232188  0.30345166  1
  Zr  Zr33  1  0.09844322  0.90650529  0.49700568  1
  Zr  Zr34  1  0.49662478  0.70331082  0.10950176  1
  Zr  Zr35  1  0.30334907  0.51761526  0.69654456  1
  Zr  Zr36  1  0.50925128  0.89534390  0.10592541  1
  Zr  Zr37  1  0.49971179  0.88709743  0.69627103  1
  Zr  Zr38  1  0.10606240  0.49878212  0.50220402  1
  Zr  Zr39  1  0.69975283  0.69926405  0.50278400  1
  Zr  Zr40  1  0.70394665  0.69869734  0.30070494  1
  Zr  Zr41  1  0.90788014  0.09487223  0.90405625  1
  Zr  Zr42  1  0.50232909  0.50026924  0.89563525  1
  Zr  Zr43  1  0.90281166  0.50911265  0.29429007  1
  Zr  Zr44  1  0.89359079  0.50758950  0.09542317  1
  Zr  Zr45  1  0.50799656  0.11060787  0.49276510  1
  Zr  Zr46  1  0.30079175  0.30008657  0.29455851  1
  Zr  Zr47  1  0.70319405  0.30171198  0.70356770  1
  Zr  Zr48  1  0.49580597  0.29739152  0.30528080  1
  Zr  Zr49  1  0.08591448  0.90180855  0.90037640  1
  Sc  Sc50  1  0.69372081  0.49337917  0.49588502  1
  Sc  Sc51  1  0.30641469  0.90714420  0.49210865  1
  Sc  Sc52  1  0.10084681  0.30398108  0.50483729  1
  Sc  Sc53  1  0.30433474  0.29634547  0.69594502  1
  Sc  Sc54  1  0.30801429  0.29777400  0.90011407  1
  Sc  Sc55  1  0.49854575  0.89683811  0.90639061  1
  Sc  Sc56  1  0.09283884  0.69767040  0.70460906  1
  Sc  Sc57  1  0.10136394  0.09272439  0.29480546  1
  Sc  Sc58  1  0.29389069  0.70375184  0.90396821  1
  Sc  Sc59  1  0.90293381  0.89781589  0.49988853  1
  Sc  Sc60  1  0.09914541  0.50972813  0.10542715  1
  Sc  Sc61  1  0.50024588  0.70063084  0.89800843  1
  Sc  Sc62  1  0.90345508  0.10388522  0.10541269  1
  Sc  Sc63  1  0.89489287  0.09477631  0.69697281  1
  Sc  Sc64  1  0.69219679  0.28961773  0.29246417  1
  Sc  Sc65  1  0.89698286  0.49908035  0.70326845  1
  Sc  Sc66  1  0.09939194  0.29174936  0.10096352  1
  Sc  Sc67  1  0.30219971  0.10208384  0.49992829  1
  Sc  Sc68  1  0.51039083  0.10584111  0.30211174  1
  Sc  Sc69  1  0.70221974  0.10667037  0.69236512  1
  Sc  Sc70  1  0.10323195  0.89884512  0.09764147  1
  Sc  Sc71  1  0.30169437  0.29948065  0.50044916  1
  Sc  Sc72  1  0.70170661  0.50926718  0.71023017  1
  Sc  Sc73  1  0.09660701  0.90498329  0.29803479  1
  Sc  Sc74  1  0.48706501  0.70050903  0.70207161  1
  Sc  Sc75  1  0.09372763  0.69641226  0.49635952  1
  Sc  Sc76  1  0.69642896  0.09112934  0.91190246  1
  Sc  Sc77  1  0.29567249  0.10126501  0.10136190  1
  Sc  Sc78  1  0.90557122  0.30202609  0.50568642  1
  Sc  Sc79  1  0.69606955  0.90098978  0.09465853  1
  Sc  Sc80  1  0.90389223  0.69943898  0.10282963  1
  Sc  Sc81  1  0.90026585  0.69534179  0.90597994  1
  Sc  Sc82  1  0.29999948  0.89511754  0.09672796  1
  Sc  Sc83  1  0.69242638  0.30158647  0.50888908  1
  Sc  Sc84  1  0.30080775  0.68969865  0.50489499  1
  Sc  Sc85  1  0.89608824  0.70419299  0.49206304  1
  Sc  Sc86  1  0.69359769  0.89067307  0.49765456  1
  Sc  Sc87  1  0.29459759  0.49966261  0.11123463  1
  Sc  Sc88  1  0.89198059  0.90214295  0.90104147  1
  Sc  Sc89  1  0.49673256  0.29746800  0.09765461  1
  Sc  Sc90  1  0.90525607  0.09878895  0.29297198  1
  Sc  Sc91  1  0.30681289  0.89778766  0.90224886  1
  Sc  Sc92  1  0.69341507  0.09974141  0.11217601  1
  Sc  Sc93  1  0.51093802  0.29027241  0.70305874  1
  Sc  Sc94  1  0.10084740  0.30758518  0.29586028  1
  Sc  Sc95  1  0.09561207  0.69511599  0.90544149  1
  Sc  Sc96  1  0.09778957  0.50129122  0.30422779  1
  Sc  Sc97  1  0.68576995  0.31010818  0.90775836  1
  Sc  Sc98  1  0.49640903  0.30026415  0.90116106  1
  Sc  Sc99  1  0.69337314  0.69562826  0.10155813  1
  Nb  Nb100  1  0.08552322  0.70506383  0.29861730  1
  Nb  Nb101  1  0.90565222  0.70026833  0.29819698  1
  Nb  Nb102  1  0.69762198  0.49843039  0.09574105  1
  Nb  Nb103  1  0.70213621  0.50578934  0.91085657  1
  Nb  Nb104  1  0.50421705  0.09654453  0.70361571  1
  Nb  Nb105  1  0.50422418  0.49482018  0.49721298  1
  Nb  Nb106  1  0.69841042  0.30251437  0.10139030  1
  Nb  Nb107  1  0.50208139  0.50129314  0.30842133  1
  Nb  Nb108  1  0.49633817  0.09572956  0.89146235  1
  Nb  Nb109  1  0.89673936  0.50369784  0.90547982  1
  Nb  Nb110  1  0.89287018  0.69352280  0.69331292  1
  Nb  Nb111  1  0.69799886  0.89575230  0.89693119  1
  Nb  Nb112  1  0.09970057  0.89773222  0.69928268  1
  Nb  Nb113  1  0.29995271  0.70514931  0.69695868  1
  Nb  Nb114  1  0.89761480  0.29927777  0.10095225  1
  Nb  Nb115  1  0.49766174  0.89521679  0.30864933  1
  Nb  Nb116  1  0.50418507  0.90129836  0.49635671  1
  Nb  Nb117  1  0.49453237  0.51093385  0.70317936  1
  Nb  Nb118  1  0.69990675  0.09801594  0.49410791  1
  Nb  Nb119  1  0.29574661  0.69833300  0.10266018  1
  Nb  Nb120  1  0.70080984  0.90007850  0.70699947  1
  Nb  Nb121  1  0.50490197  0.70034567  0.29927230  1
  Nb  Nb122  1  0.09692461  0.49654850  0.89730944  1
  Nb  Nb123  1  0.50773342  0.31012463  0.50029437  1
  Nb  Nb124  1  0.69780826  0.10187346  0.30510879  1
  Nb  Nb125  1  0.20053870  0.19985403  0.39756148  1
  Nb  Nb126  1  0.79949254  0.20514746  0.81157890  1
  Nb  Nb127  1  0.60182503  0.40496375  0.19791414  1
  Nb  Nb128  1  0.19891729  0.80127034  0.60109187  1
  Nb  Nb129  1  0.60024541  -0.00260474  0.60125115  1
  Nb  Nb130  1  0.59231086  0.59817335  0.60070975  1
  Nb  Nb131  1  0.20101556  0.19157159  0.79736599  1
  Nb  Nb132  1  0.60034572  -0.00428968  0.79604132  1
  Nb  Nb133  1  0.79784408  0.19785277  0.39974963  1
  Nb  Nb134  1  0.79513112  0.40015904  0.19436516  1
  Nb  Nb135  1  0.41233840  0.40740543  0.59945388  1
  Nb  Nb136  1  0.20241434  0.79120833  0.20639756  1
  Nb  Nb137  1  0.80016134  0.39325910  0.38899074  1
  Nb  Nb138  1  0.40697778  -0.00351453  0.20432789  1
  Nb  Nb139  1  0.41545248  0.00129087  0.59808253  1
  Nb  Nb140  1  0.19569593  0.80579534  0.79497854  1
  Nb  Nb141  1  0.79434709  0.00382276  0.39664407  1
  Nb  Nb142  1  0.00084873  0.40462141  -0.00295863  1
  Nb  Nb143  1  0.79982471  0.40311024  0.81530016  1
  Nb  Nb144  1  -0.00562002  0.59958921  0.60164829  1
  Nb  Nb145  1  0.79911734  0.20676693  0.00362769  1
  Nb  Nb146  1  0.19354782  0.40286509  -0.00479072  1
  Nb  Nb147  1  0.39541257  0.60113360  0.00633043  1
  Nb  Nb148  1  0.19865064  0.79608471  0.39639017  1
  Nb  Nb149  1  0.19859809  -0.00329723  0.79681318  1
  Pd  Pd150  1  0.41277474  0.20443552  0.59550919  1
  Pd  Pd151  1  0.19220505  0.60756852  0.39262896  1
  Pd  Pd152  1  0.59498939  0.80049557  0.80348725  1
  Pd  Pd153  1  0.00278894  0.79168966  0.59798047  1
  Pd  Pd154  1  0.59565603  0.60675172  0.40645233  1
  Pd  Pd155  1  0.20574278  0.59171411  -0.00367068  1
  Pd  Pd156  1  0.00012184  0.18780394  0.78849252  1
  Pd  Pd157  1  0.79567239  0.79420244  0.00224520  1
  Pd  Pd158  1  0.40067760  0.79159224  0.00100581  1
  Pd  Pd159  1  0.59291107  0.60751551  -0.00028752  1
  Pd  Pd160  1  0.79423534  0.79389802  0.19327102  1
  Pd  Pd161  1  0.79541958  0.40673925  0.59922920  1
  Pd  Pd162  1  0.80267515  0.59482001  0.40344103  1
  Pd  Pd163  1  0.79179093  -0.01019843  0.59256420  1
  Pd  Pd164  1  0.39676249  0.39704354  0.40671611  1
  Pd  Pd165  1  0.60346291  0.40815497  0.79845128  1
  Pd  Pd166  1  0.79162104  0.00983927  0.80122357  1
  Pd  Pd167  1  0.21029604  0.39092593  0.80079991  1
  Pd  Pd168  1  -0.00309983  0.39378988  0.39735326  1
  Pd  Pd169  1  0.79904239  0.00738750  0.01000366  1
  Pd  Pd170  1  0.40377429  0.39272499  0.78661976  1
  Pd  Pd171  1  0.00191965  -0.00358713  0.19434747  1
  Pd  Pd172  1  0.21319605  -0.00507188  0.59875617  1
  Pd  Pd173  1  0.21267942  0.39905605  0.60269514  1
  Pd  Pd174  1  -0.00466336  0.79256271  0.80370836  1
  Pd  Pd175  1  0.60222279  0.19820029  -0.00263454  1
  Pd  Pd176  1  0.40188837  -0.00247912  0.00892533  1
  Pd  Pd177  1  0.39217761  0.79658432  0.40272970  1
  Pd  Pd178  1  0.40472622  0.59039224  0.19974712  1
  Pd  Pd179  1  -0.00029000  0.40524301  0.18911606  1
  Pd  Pd180  1  0.80134400  0.20350555  0.59508412  1
  Pd  Pd181  1  -0.00612674  -0.00212901  0.60188236  1
  Pd  Pd182  1  0.80422712  0.39480409  -0.00000779  1
  Pd  Pd183  1  -0.00207837  0.19896141  0.60260614  1
  Pd  Pd184  1  0.79884748  0.00362673  0.20142162  1
  Pd  Pd185  1  0.80046613  0.80819539  0.59998353  1
  Pd  Pd186  1  0.39958419  0.19756996  0.00255381  1
  Pd  Pd187  1  0.20456240  -0.00886757  -0.00670961  1
  Pd  Pd188  1  0.00360583  0.20409186  0.39339253  1
  Pd  Pd189  1  0.19249774  0.60437643  0.21130980  1
  Pd  Pd190  1  0.19632074  0.19707782  0.20662540  1
  Pd  Pd191  1  0.80900529  0.79356136  0.80385878  1
  Pd  Pd192  1  -0.00785189  0.59975841  0.79729268  1
  Pd  Pd193  1  0.79774184  0.80671070  0.39674240  1
  Pd  Pd194  1  0.60943909  0.18979660  0.81047605  1
  Pd  Pd195  1  0.79735947  0.59161454  0.59419051  1
  Pd  Pd196  1  0.20138791  0.61089768  0.80273554  1
  Pd  Pd197  1  0.39330337  0.80723495  0.20494433  1
  Pd  Pd198  1  0.59750185  0.41022255  0.61629275  1
  Pd  Pd199  1  0.40866002  0.40586558  0.20081874  1
  Rh  Rh200  1  0.00864618  0.19631735  0.19691781  1
  Rh  Rh201  1  -0.00602094  -0.00282231  0.00805769  1
  Rh  Rh202  1  0.39158964  0.40787087  0.00441029  1
  Rh  Rh203  1  0.59299672  0.20538991  0.19570997  1
  Rh  Rh204  1  0.00270844  0.00158353  0.79356492  1
  Rh  Rh205  1  0.60240569  -0.00506298  0.40216037  1
  Rh  Rh206  1  0.59771861  -0.00718673  -0.00925003  1
  Rh  Rh207  1  -0.00939347  0.41154598  0.80441083  1
  Rh  Rh208  1  0.60138129  0.79555819  0.39348431  1
  Rh  Rh209  1  0.19645807  0.20291517  0.59642377  1
  Rh  Rh210  1  0.20725477  0.20899891  -0.00824043  1
  Rh  Rh211  1  0.60335475  0.79733388  0.60333805  1
  Rh  Rh212  1  0.41119263  0.59937222  0.40406985  1
  Rh  Rh213  1  -0.01008922  -0.00302234  0.39290805  1
  Rh  Rh214  1  0.60003101  0.60218595  0.79592351  1
  Rh  Rh215  1  0.39282643  0.79499586  0.80856999  1
  Rh  Rh216  1  0.39412564  0.60997475  0.81095918  1
  Rh  Rh217  1  0.18587866  0.61029994  0.60507889  1
  Rh  Rh218  1  0.00331483  0.80441393  0.40072167  1
  Rh  Rh219  1  0.38951510  0.80632250  0.58710151  1
  Rh  Rh220  1  0.40199120  0.20412134  0.80038501  1
  Rh  Rh221  1  0.59417784  0.59634682  0.20240021  1
  Rh  Rh222  1  0.40695952  0.18793517  0.19325710  1
  Rh  Rh223  1  0.20114301  0.39186933  0.39929943  1
  Rh  Rh224  1  -0.00328503  0.60214570  0.40527644  1
  Rh  Rh225  1  0.59310054  0.39956409  0.00362611  1
  Rh  Rh226  1  0.00194978  0.59479021  0.00067257  1
  Rh  Rh227  1  0.39612342  0.20722509  0.40557488  1
  Rh  Rh228  1  0.60367508  0.79812326  -0.00200101  1
  Rh  Rh229  1  0.19208752  0.40145046  0.19300130  1
  Rh  Rh230  1  0.60086081  0.19603530  0.59772368  1
  Rh  Rh231  1  0.40755521  -0.00626080  0.79538789  1
  Rh  Rh232  1  -0.00422855  0.80071531  -0.00149094  1
  Rh  Rh233  1  0.41570657  0.00699506  0.39942326  1
  Rh  Rh234  1  0.40995200  0.59671982  0.59014973  1
  Rh  Rh235  1  0.80281613  0.59853842  0.80571643  1
  Rh  Rh236  1  0.79510153  0.60891342  0.00364853  1
  Rh  Rh237  1  0.19463398  0.00572273  0.40091724  1
  Rh  Rh238  1  0.79666119  0.20015869  0.19874261  1
  Rh  Rh239  1  0.00361989  0.41037286  0.60390022  1
  Rh  Rh240  1  0.60822646  0.21218117  0.40532671  1
  Rh  Rh241  1  0.00097858  0.60407612  0.19804880  1
  Rh  Rh242  1  0.60714415  0.39585036  0.38746722  1
  Rh  Rh243  1  0.00574134  0.80179426  0.19409718  1
  Rh  Rh244  1  0.20837661  -0.00642531  0.19484754  1
  Rh  Rh245  1  0.19647216  0.80178248  -0.00068733  1
  Rh  Rh246  1  0.60310070  0.79653703  0.20545147  1
  Rh  Rh247  1  -0.00482981  0.20265086  0.00993050  1
  Rh  Rh248  1  0.59174454  0.00048274  0.20798326  1
  Rh  Rh249  1  0.79984380  0.60339173  0.19492132  1
