# generated using pymatgen
data_ZrScNbPdRh
_symmetry_space_group_name_H-M   'P 1'
_cell_length_a   16.56041298
_cell_length_b   16.56105916
_cell_length_c   16.56138960
_cell_angle_alpha   89.98341308
_cell_angle_beta   90.02292651
_cell_angle_gamma   89.98776384
_symmetry_Int_Tables_number   1
_chemical_formula_structural   ZrScNbPdRh
_chemical_formula_sum   'Zr50 Sc50 Nb50 Pd50 Rh50'
_cell_volume   4542.09258254
_cell_formula_units_Z   50
loop_
 _symmetry_equiv_pos_site_id
 _symmetry_equiv_pos_as_xyz
  1  'x, y, z'
loop_
 _atom_site_type_symbol
 _atom_site_label
 _atom_site_symmetry_multiplicity
 _atom_site_fract_x
 _atom_site_fract_y
 _atom_site_fract_z
 _atom_site_occupancy
  Zr  Zr0  1  0.31401295  0.10294593  0.69880703  1
  Zr  Zr1  1  0.50493532  0.09653939  0.70307536  1
  Zr  Zr2  1  0.30526631  0.70428661  0.10111860  1
  Zr  Zr3  1  0.09399348  0.90121744  0.30106913  1
  Zr  Zr4  1  0.69257437  0.89277775  0.09640261  1
  Zr  Zr5  1  0.10393640  0.50575073  0.50176752  1
  Zr  Zr6  1  0.31428410  0.69953026  0.69482743  1
  Zr  Zr7  1  0.50218596  0.49656304  0.29460831  1
  Zr  Zr8  1  0.31148674  0.90608943  0.69729530  1
  Zr  Zr9  1  0.09917612  0.89647687  0.89899901  1
  Zr  Zr10  1  0.11311599  0.29418181  0.51138278  1
  Zr  Zr11  1  0.69260248  0.30139351  0.50746950  1
  Zr  Zr12  1  0.89941254  0.29768558  0.29986930  1
  Zr  Zr13  1  0.29932197  0.10047047  0.50294546  1
  Zr  Zr14  1  0.50362575  0.70306257  0.10150820  1
  Zr  Zr15  1  0.30209578  0.50524065  0.50130567  1
  Zr  Zr16  1  0.09687014  0.50587674  0.29674802  1
  Zr  Zr17  1  0.10040885  0.49518528  0.89830983  1
  Zr  Zr18  1  0.49636598  0.10746788  0.89558232  1
  Zr  Zr19  1  0.71292146  0.50459517  0.10700589  1
  Zr  Zr20  1  0.89918228  0.09598408  0.29771573  1
  Zr  Zr21  1  0.09981856  0.09588075  0.29538520  1
  Zr  Zr22  1  0.09273063  0.89910765  0.70091078  1
  Zr  Zr23  1  0.30229655  0.49644938  0.09826457  1
  Zr  Zr24  1  0.09477728  0.29924990  0.29300139  1
  Zr  Zr25  1  0.49426416  0.89572800  0.89379878  1
  Zr  Zr26  1  0.91538394  0.70808085  0.29484561  1
  Zr  Zr27  1  0.50420276  0.70079880  0.88843641  1
  Zr  Zr28  1  0.49869352  0.30885215  0.89575227  1
  Zr  Zr29  1  0.28746627  0.09419116  0.10056728  1
  Zr  Zr30  1  0.70740297  0.69541782  0.50586031  1
  Zr  Zr31  1  0.70443233  0.89086250  0.89747228  1
  Zr  Zr32  1  0.09664376  0.09558137  0.90529159  1
  Zr  Zr33  1  0.30341073  0.70046323  0.30819503  1
  Zr  Zr34  1  0.09863273  0.70295763  0.69967176  1
  Zr  Zr35  1  0.09943718  0.70123796  0.30325533  1
  Zr  Zr36  1  0.70791547  0.90492890  0.69763008  1
  Zr  Zr37  1  0.09802027  0.69471484  0.10560830  1
  Zr  Zr38  1  0.49312073  0.10317747  0.09865759  1
  Zr  Zr39  1  0.49753287  0.10881070  0.30365898  1
  Zr  Zr40  1  0.49905000  0.30342977  0.31212393  1
  Zr  Zr41  1  0.10501908  0.69849682  0.48963640  1
  Zr  Zr42  1  0.69545923  0.30352366  0.69428903  1
  Zr  Zr43  1  0.89497223  0.30575817  0.09851013  1
  Zr  Zr44  1  0.89626982  0.10362163  0.49737415  1
  Zr  Zr45  1  0.50015237  0.30211154  0.10692435  1
  Zr  Zr46  1  0.89867572  0.90234062  0.10234060  1
  Zr  Zr47  1  0.30327139  0.49075347  0.90379757  1
  Zr  Zr48  1  0.69523200  0.50097243  0.30437425  1
  Zr  Zr49  1  0.10716480  0.49013074  0.10203607  1
  Sc  Sc50  1  0.89681381  0.49614083  0.28861232  1
  Sc  Sc51  1  0.10208352  0.70877708  0.90192390  1
  Sc  Sc52  1  0.49310915  0.88985711  0.10106455  1
  Sc  Sc53  1  0.50032699  0.90019646  0.29723908  1
  Sc  Sc54  1  0.90479793  0.29578816  0.70229648  1
  Sc  Sc55  1  0.89432347  0.69533990  0.09551589  1
  Sc  Sc56  1  0.49532269  0.69524911  0.29488425  1
  Sc  Sc57  1  0.90535635  0.89683192  0.89652757  1
  Sc  Sc58  1  0.70598265  0.49627441  0.69766696  1
  Sc  Sc59  1  0.89612194  0.69987543  0.69538949  1
  Sc  Sc60  1  0.50724985  0.10697894  0.50566198  1
  Sc  Sc61  1  0.69947216  0.49551227  0.50380660  1
  Sc  Sc62  1  0.30949758  0.29850495  0.50801679  1
  Sc  Sc63  1  0.29687650  0.10109768  0.29910709  1
  Sc  Sc64  1  0.30028372  0.71001820  0.90169845  1
  Sc  Sc65  1  0.50090796  0.49481461  0.71362786  1
  Sc  Sc66  1  0.31081052  0.29793804  0.30883116  1
  Sc  Sc67  1  0.48270571  0.69901784  0.49826182  1
  Sc  Sc68  1  0.30107501  0.90027053  0.09511935  1
  Sc  Sc69  1  0.89545773  0.89638382  0.51862254  1
  Sc  Sc70  1  0.88765456  0.50521386  0.50572620  1
  Sc  Sc71  1  0.69028541  0.09844371  0.30063929  1
  Sc  Sc72  1  0.29225482  0.30418841  0.09658902  1
  Sc  Sc73  1  0.69417239  0.68828647  0.29945898  1
  Sc  Sc74  1  0.30324682  0.49605116  0.69549344  1
  Sc  Sc75  1  0.69555537  0.10046283  0.10348960  1
  Sc  Sc76  1  0.90371738  0.09691208  0.09776970  1
  Sc  Sc77  1  0.69413379  0.10102261  0.89691906  1
  Sc  Sc78  1  0.09176787  0.10270014  0.69388797  1
  Sc  Sc79  1  0.70345423  0.70346117  0.89718519  1
  Sc  Sc80  1  0.69674274  0.30347202  0.30775441  1
  Sc  Sc81  1  0.90981050  0.09985969  0.90123651  1
  Sc  Sc82  1  0.90189975  0.09093644  0.69705326  1
  Sc  Sc83  1  0.70142121  0.29970023  0.90391912  1
  Sc  Sc84  1  0.69272164  0.91097945  0.29235317  1
  Sc  Sc85  1  0.89344953  0.70244535  0.89874424  1
  Sc  Sc86  1  0.88559851  0.29537949  0.50232834  1
  Sc  Sc87  1  0.09940562  0.90752174  0.09413098  1
  Sc  Sc88  1  0.89661343  0.49908973  0.88560379  1
  Sc  Sc89  1  0.08819577  0.28994195  0.89655584  1
  Sc  Sc90  1  0.29772832  0.90626101  0.29689140  1
  Sc  Sc91  1  0.70206420  0.49951078  0.89090980  1
  Sc  Sc92  1  0.30915625  0.49711836  0.29597154  1
  Sc  Sc93  1  0.90537059  0.90699136  0.29224385  1
  Sc  Sc94  1  0.09412109  0.50268475  0.70073559  1
  Sc  Sc95  1  0.30686611  0.09889660  0.90528422  1
  Sc  Sc96  1  0.10201070  0.09438895  0.49373922  1
  Sc  Sc97  1  0.30805992  0.30173358  0.90102712  1
  Sc  Sc98  1  0.89984130  0.69859222  0.50334344  1
  Sc  Sc99  1  0.69211875  0.10290092  0.50928876  1
  Nb  Nb100  1  0.90189604  0.89590794  0.70501922  1
  Nb  Nb101  1  0.90196685  0.29399225  0.89897221  1
  Nb  Nb102  1  0.11325831  0.90170269  0.49799360  1
  Nb  Nb103  1  0.69516573  0.90087711  0.49938520  1
  Nb  Nb104  1  0.90053410  0.49845227  0.09518114  1
  Nb  Nb105  1  0.29535027  0.70213452  0.49782292  1
  Nb  Nb106  1  0.29303592  0.89943195  0.90130960  1
  Nb  Nb107  1  0.50340674  0.70581387  0.70201060  1
  Nb  Nb108  1  0.69310401  0.70450596  0.70015038  1
  Nb  Nb109  1  0.50143383  0.50202655  0.10551232  1
  Nb  Nb110  1  0.30424182  0.90588679  0.49944441  1
  Nb  Nb111  1  0.70185079  0.70052739  0.09066620  1
  Nb  Nb112  1  0.10193635  0.10632472  0.09499635  1
  Nb  Nb113  1  0.70603557  0.30233312  0.09691499  1
  Nb  Nb114  1  0.10252195  0.30036364  0.69970291  1
  Nb  Nb115  1  0.29456575  0.29736289  0.69355135  1
  Nb  Nb116  1  0.70024663  0.10481899  0.70292334  1
  Nb  Nb117  1  0.50400536  0.30376839  0.50379359  1
  Nb  Nb118  1  0.50014208  0.49641177  0.90548228  1
  Nb  Nb119  1  0.50667767  0.90909640  0.50283230  1
  Nb  Nb120  1  0.50031027  0.89780654  0.69806598  1
  Nb  Nb121  1  0.90394631  0.49604493  0.69840707  1
  Nb  Nb122  1  0.49254991  0.29868358  0.69952481  1
  Nb  Nb123  1  0.09657011  0.29788639  0.09733788  1
  Nb  Nb124  1  0.50447531  0.49015933  0.49777755  1
  Nb  Nb125  1  0.19604309  0.40089163  0.40278188  1
  Nb  Nb126  1  0.00351701  0.39844260  0.40779380  1
  Nb  Nb127  1  0.19538091  0.79887822  0.20248291  1
  Nb  Nb128  1  0.79438256  0.80683736  0.39578999  1
  Nb  Nb129  1  0.80056448  0.19719106  0.79916911  1
  Nb  Nb130  1  0.40927402  0.59605143  -0.00092880  1
  Nb  Nb131  1  0.20321362  0.59799038  0.80017231  1
  Nb  Nb132  1  0.79355828  -0.00379434  -0.00078067  1
  Nb  Nb133  1  0.59586137  0.80096173  0.60019818  1
  Nb  Nb134  1  0.19735330  0.39407187  0.79437697  1
  Nb  Nb135  1  0.59419069  0.60619979  0.60607818  1
  Nb  Nb136  1  0.40319699  -0.00021207  0.40766225  1
  Nb  Nb137  1  0.79518184  0.79911307  0.20093678  1
  Nb  Nb138  1  0.20261219  0.00150221  0.80011714  1
  Nb  Nb139  1  0.60291895  0.80261526  0.40868005  1
  Nb  Nb140  1  0.59954418  0.59574568  0.00210950  1
  Nb  Nb141  1  0.60096203  0.40628612  0.00694524  1
  Nb  Nb142  1  0.79444477  -0.00600890  0.40469169  1
  Nb  Nb143  1  0.20650249  0.80269785  0.59061678  1
  Nb  Nb144  1  0.79773916  0.20469158  0.19719744  1
  Nb  Nb145  1  0.59629527  -0.00302070  -0.00334985  1
  Nb  Nb146  1  0.00093049  0.39968708  0.59860342  1
  Nb  Nb147  1  -0.00129386  0.58976263  0.00056846  1
  Nb  Nb148  1  -0.00474718  0.39800025  -0.00036987  1
  Nb  Nb149  1  0.20175057  0.19948427  0.79440122  1
  Pd  Pd150  1  0.20225053  0.20513801  -0.01140655  1
  Pd  Pd151  1  0.20941072  0.60427059  0.20530378  1
  Pd  Pd152  1  0.40234888  0.80483530  0.59283320  1
  Pd  Pd153  1  0.58789264  0.00104142  0.19061957  1
  Pd  Pd154  1  0.20217652  0.20459408  0.39706570  1
  Pd  Pd155  1  -0.00680872  0.19515054  0.19245725  1
  Pd  Pd156  1  0.40400186  -0.00385087  -0.00230634  1
  Pd  Pd157  1  0.80258942  0.38883790  0.79749326  1
  Pd  Pd158  1  0.00498967  0.20649448  0.40811474  1
  Pd  Pd159  1  0.00142515  -0.00280585  0.59341290  1
  Pd  Pd160  1  0.80602679  0.60938261  0.20567853  1
  Pd  Pd161  1  -0.01064659  -0.00966805  0.41187067  1
  Pd  Pd162  1  0.60441024  0.59454849  0.79879453  1
  Pd  Pd163  1  0.80881134  0.60688122  0.39021075  1
  Pd  Pd164  1  0.39446729  0.59692816  0.80678464  1
  Pd  Pd165  1  0.20877095  0.80048120  0.78804075  1
  Pd  Pd166  1  0.80035389  0.40739434  -0.01135530  1
  Pd  Pd167  1  -0.01079280  0.81147787  0.41286984  1
  Pd  Pd168  1  0.20466677  0.20660246  0.20324953  1
  Pd  Pd169  1  -0.00331738  0.59765249  0.59808574  1
  Pd  Pd170  1  -0.00439024  0.79135862  0.00306586  1
  Pd  Pd171  1  0.60807917  0.39599670  0.19768581  1
  Pd  Pd172  1  0.00240202  0.60898540  0.80685634  1
  Pd  Pd173  1  -0.01289647  0.58950238  0.40119573  1
  Pd  Pd174  1  0.59981107  0.20255699  0.00041248  1
  Pd  Pd175  1  0.60116844  -0.00545460  0.80265113  1
  Pd  Pd176  1  0.80118734  0.18773154  -0.00177643  1
  Pd  Pd177  1  0.00797543  0.79835980  0.59241768  1
  Pd  Pd178  1  0.80773368  0.00643943  0.80835573  1
  Pd  Pd179  1  0.59073013  0.60548558  0.41243859  1
  Pd  Pd180  1  0.80433865  0.40325144  0.40144915  1
  Pd  Pd181  1  0.60526563  0.79234797  0.21105469  1
  Pd  Pd182  1  0.19732756  0.00026316  0.60832421  1
  Pd  Pd183  1  0.79719367  0.00692972  0.59571795  1
  Pd  Pd184  1  0.20829568  0.39216333  0.21119339  1
  Pd  Pd185  1  0.20193743  0.60609854  -0.00788653  1
  Pd  Pd186  1  0.39500127  0.20557177  0.00555485  1
  Pd  Pd187  1  0.60417803  0.20909088  0.79890968  1
  Pd  Pd188  1  0.40599796  0.81045248  0.39910189  1
  Pd  Pd189  1  0.40457331  0.59252442  0.39924412  1
  Pd  Pd190  1  0.40100760  -0.00071672  0.20559126  1
  Pd  Pd191  1  0.60769843  0.20724629  0.20264050  1
  Pd  Pd192  1  0.40539750  0.40289781  0.60307985  1
  Pd  Pd193  1  0.20210117  0.60629564  0.60840114  1
  Pd  Pd194  1  0.20585930  0.80984032  0.39621538  1
  Pd  Pd195  1  -0.00488147  0.20456818  0.59560876  1
  Pd  Pd196  1  0.38924703  0.20407030  0.19587724  1
  Pd  Pd197  1  0.78761027  0.19042129  0.39409406  1
  Pd  Pd198  1  0.41252907  0.59000890  0.60209886  1
  Pd  Pd199  1  0.79747310  0.60587384  0.79278480  1
  Rh  Rh200  1  0.00940170  0.00745788  0.19112193  1
  Rh  Rh201  1  0.79468660  0.59866765  0.60992714  1
  Rh  Rh202  1  0.20732904  0.00235087  0.39638238  1
  Rh  Rh203  1  0.59393830  0.20404187  0.60745600  1
  Rh  Rh204  1  -0.00785826  0.79403870  0.79898458  1
  Rh  Rh205  1  0.39720868  0.39454255  0.19815393  1
  Rh  Rh206  1  -0.00508777  0.59357154  0.19033165  1
  Rh  Rh207  1  0.60249553  0.39769698  0.80372115  1
  Rh  Rh208  1  0.79863702  0.00354694  0.19911394  1
  Rh  Rh209  1  0.39131972  0.39487580  0.79214216  1
  Rh  Rh210  1  0.00113303  0.39437846  0.79689272  1
  Rh  Rh211  1  0.20086209  0.18674573  0.60686177  1
  Rh  Rh212  1  0.20939168  0.59010420  0.39199892  1
  Rh  Rh213  1  0.59155690  0.40824886  0.60666026  1
  Rh  Rh214  1  0.19401963  -0.00428247  0.19712340  1
  Rh  Rh215  1  0.39555018  -0.00365485  0.80803595  1
  Rh  Rh216  1  0.39862850  0.60021657  0.19467412  1
  Rh  Rh217  1  -0.00142072  0.19480484  0.79418073  1
  Rh  Rh218  1  0.79967432  0.59564653  -0.00799796  1
  Rh  Rh219  1  0.39024630  0.80291171  0.20690278  1
  Rh  Rh220  1  0.39630267  0.20789363  0.79797060  1
  Rh  Rh221  1  0.60382781  0.80856898  0.79309639  1
  Rh  Rh222  1  0.19568545  0.40622899  0.60097968  1
  Rh  Rh223  1  0.79961315  0.19583702  0.61174371  1
  Rh  Rh224  1  0.60203160  0.40035801  0.40357996  1
  Rh  Rh225  1  0.40368258  0.19356451  0.41029623  1
  Rh  Rh226  1  0.79484799  0.79890720  0.60287400  1
  Rh  Rh227  1  0.00292976  -0.00181284  0.79912989  1
  Rh  Rh228  1  0.80565423  0.80503402  0.00644458  1
  Rh  Rh229  1  -0.00036002  0.40195912  0.19614876  1
  Rh  Rh230  1  0.40992142  0.40171651  0.01055799  1
  Rh  Rh231  1  0.79400788  0.39345774  0.20765582  1
  Rh  Rh232  1  0.19876369  -0.00163178  -0.00559822  1
  Rh  Rh233  1  -0.00440571  -0.00030876  0.00133332  1
  Rh  Rh234  1  0.60419928  0.60333247  0.19244005  1
  Rh  Rh235  1  0.80959658  0.39815919  0.60439846  1
  Rh  Rh236  1  0.41045183  0.00551935  0.59303689  1
  Rh  Rh237  1  -0.00290603  0.20561763  0.00734799  1
  Rh  Rh238  1  0.60138131  -0.00223527  0.60982782  1
  Rh  Rh239  1  0.40176314  0.79597011  -0.00671827  1
  Rh  Rh240  1  0.80462358  0.79705046  0.79123972  1
  Rh  Rh241  1  0.00219772  0.80284826  0.18998721  1
  Rh  Rh242  1  0.19919343  0.80231151  0.01147718  1
  Rh  Rh243  1  0.40861197  0.20141098  0.59949214  1
  Rh  Rh244  1  0.18557826  0.38446043  -0.01213956  1
  Rh  Rh245  1  0.59611787  0.00036905  0.39801870  1
  Rh  Rh246  1  0.59436144  0.79622873  -0.00783001  1
  Rh  Rh247  1  0.60050266  0.20390698  0.40539798  1
  Rh  Rh248  1  0.39688161  0.40303391  0.40761590  1
  Rh  Rh249  1  0.39440852  0.80343422  0.80099970  1
