# generated using pymatgen
data_ZrScNbPdRh
_symmetry_space_group_name_H-M   'P 1'
_cell_length_a   16.55942686
_cell_length_b   16.56578467
_cell_length_c   16.56259235
_cell_angle_alpha   90.01525192
_cell_angle_beta   90.02460187
_cell_angle_gamma   89.98903053
_symmetry_Int_Tables_number   1
_chemical_formula_structural   ZrScNbPdRh
_chemical_formula_sum   'Zr50 Sc50 Nb50 Pd50 Rh50'
_cell_volume   4543.44800561
_cell_formula_units_Z   50
loop_
 _symmetry_equiv_pos_site_id
 _symmetry_equiv_pos_as_xyz
  1  'x, y, z'
loop_
 _atom_site_type_symbol
 _atom_site_label
 _atom_site_symmetry_multiplicity
 _atom_site_fract_x
 _atom_site_fract_y
 _atom_site_fract_z
 _atom_site_occupancy
  Zr  Zr0  1  0.90220198  0.30617408  0.29156821  1
  Zr  Zr1  1  0.09350196  0.11951640  0.70112799  1
  Zr  Zr2  1  0.09550650  0.89991613  0.89868972  1
  Zr  Zr3  1  0.89343834  0.90213922  0.09369761  1
  Zr  Zr4  1  0.09314238  0.49050256  0.70319335  1
  Zr  Zr5  1  0.90072592  0.89059614  0.89841763  1
  Zr  Zr6  1  0.29219565  0.89954921  0.50495837  1
  Zr  Zr7  1  0.29845778  0.10331179  0.10156646  1
  Zr  Zr8  1  0.90582695  0.89783625  0.49912907  1
  Zr  Zr9  1  0.29321409  0.10464458  0.29786017  1
  Zr  Zr10  1  0.10493991  0.69921029  0.10720502  1
  Zr  Zr11  1  0.89554872  0.28978084  0.48749260  1
  Zr  Zr12  1  0.90736185  0.49932968  0.70206280  1
  Zr  Zr13  1  0.90529147  0.50701301  0.90791125  1
  Zr  Zr14  1  0.30472031  0.90538802  0.70558877  1
  Zr  Zr15  1  0.10365558  0.49544121  0.90176676  1
  Zr  Zr16  1  0.70704029  0.30798099  0.30658850  1
  Zr  Zr17  1  0.69528791  0.28450241  0.70159012  1
  Zr  Zr18  1  0.89383013  0.10214961  0.70582987  1
  Zr  Zr19  1  0.70497559  0.30582618  0.09067595  1
  Zr  Zr20  1  0.90032574  0.69143645  0.08452142  1
  Zr  Zr21  1  0.69665930  0.29925045  0.50334219  1
  Zr  Zr22  1  0.70427134  0.89924280  0.90655404  1
  Zr  Zr23  1  0.09933743  0.71123120  0.49951185  1
  Zr  Zr24  1  0.49559400  0.90159719  0.89381699  1
  Zr  Zr25  1  0.69260636  0.90114008  0.29382532  1
  Zr  Zr26  1  0.10278245  0.28797681  0.89853045  1
  Zr  Zr27  1  0.69166733  0.49456690  0.49682766  1
  Zr  Zr28  1  0.29724566  0.70413926  0.10650819  1
  Zr  Zr29  1  0.50429111  0.49378198  0.90054868  1
  Zr  Zr30  1  0.69737862  0.90124660  0.10165466  1
  Zr  Zr31  1  0.49855156  0.90251963  0.70539623  1
  Zr  Zr32  1  0.49778822  0.30305495  0.49654820  1
  Zr  Zr33  1  0.90502866  0.11097382  0.30605808  1
  Zr  Zr34  1  0.09713693  0.90007388  0.49924053  1
  Zr  Zr35  1  0.09886211  0.10147802  0.49530107  1
  Zr  Zr36  1  0.49513847  0.69265480  0.50124542  1
  Zr  Zr37  1  0.09710239  0.09798188  0.29367037  1
  Zr  Zr38  1  0.90337053  0.70261916  0.50437106  1
  Zr  Zr39  1  0.29456800  0.70295083  0.90554127  1
  Zr  Zr40  1  0.91545632  0.29999256  0.69986181  1
  Zr  Zr41  1  0.10536030  0.10264760  0.09803514  1
  Zr  Zr42  1  0.69571728  0.50048616  0.29692312  1
  Zr  Zr43  1  0.70480307  0.70231598  0.90231285  1
  Zr  Zr44  1  0.29397210  0.30385988  0.10789633  1
  Zr  Zr45  1  0.10382945  0.89262151  0.69118903  1
  Zr  Zr46  1  0.50002821  0.50422298  0.50260342  1
  Zr  Zr47  1  0.70013522  0.09517792  0.08866920  1
  Zr  Zr48  1  0.30926793  0.50616198  0.50376113  1
  Zr  Zr49  1  0.70424795  0.89648291  0.69743957  1
  Sc  Sc50  1  0.49318904  0.29525028  0.09195256  1
  Sc  Sc51  1  0.50389866  0.70640536  0.70109684  1
  Sc  Sc52  1  0.49862115  0.89317457  0.50642173  1
  Sc  Sc53  1  0.29331592  0.10672748  0.49775036  1
  Sc  Sc54  1  0.70070101  0.49652722  0.69271028  1
  Sc  Sc55  1  0.91921128  0.69090291  0.30694719  1
  Sc  Sc56  1  0.30277420  0.49354591  0.28843089  1
  Sc  Sc57  1  0.50087319  0.09228238  0.29353800  1
  Sc  Sc58  1  0.89968931  0.09630000  0.49505063  1
  Sc  Sc59  1  0.89957124  0.89500286  0.69875170  1
  Sc  Sc60  1  0.90063167  0.91717922  0.30195498  1
  Sc  Sc61  1  0.30235547  0.70371695  0.29826577  1
  Sc  Sc62  1  0.10101007  0.29186504  0.29091520  1
  Sc  Sc63  1  0.30760682  0.70293130  0.49890683  1
  Sc  Sc64  1  0.29806796  0.89458006  0.10231294  1
  Sc  Sc65  1  0.29857992  0.70513659  0.70423833  1
  Sc  Sc66  1  0.90716101  0.49356488  0.10025017  1
  Sc  Sc67  1  0.90557192  0.09705153  0.10111785  1
  Sc  Sc68  1  0.68887730  0.69955045  0.09940350  1
  Sc  Sc69  1  0.29785456  0.10570437  0.90771577  1
  Sc  Sc70  1  0.69978226  0.50137862  0.09264502  1
  Sc  Sc71  1  0.09572980  0.50626559  0.28889194  1
  Sc  Sc72  1  0.09589386  0.49263720  0.51024657  1
  Sc  Sc73  1  0.69847053  0.29820678  0.90369370  1
  Sc  Sc74  1  0.30335029  0.89722080  0.90023118  1
  Sc  Sc75  1  0.50059007  0.89843486  0.10378979  1
  Sc  Sc76  1  0.69962665  0.70838123  0.70196505  1
  Sc  Sc77  1  0.50702781  0.70449147  0.89719027  1
  Sc  Sc78  1  0.49685606  0.10333726  0.50043347  1
  Sc  Sc79  1  0.49698311  0.11064848  0.70441737  1
  Sc  Sc80  1  0.10541552  0.90644482  0.10311339  1
  Sc  Sc81  1  0.50132241  0.50167265  0.70178953  1
  Sc  Sc82  1  0.49354605  0.10350071  0.90197616  1
  Sc  Sc83  1  0.49936654  0.69704738  0.29050010  1
  Sc  Sc84  1  0.90202135  0.30087920  0.91258150  1
  Sc  Sc85  1  0.69608232  0.70258366  0.51005282  1
  Sc  Sc86  1  0.10275852  0.29196224  0.51293558  1
  Sc  Sc87  1  0.09697760  0.30069514  0.10018425  1
  Sc  Sc88  1  0.10315442  0.69949960  0.29957145  1
  Sc  Sc89  1  0.70637369  0.90448753  0.49821138  1
  Sc  Sc90  1  0.49627444  0.50447646  0.30340528  1
  Sc  Sc91  1  0.09704466  0.70218390  0.90079552  1
  Sc  Sc92  1  0.10667128  0.49868486  0.10251908  1
  Sc  Sc93  1  0.10342661  0.90206655  0.30045055  1
  Sc  Sc94  1  0.49374465  0.09931070  0.09492166  1
  Sc  Sc95  1  0.30497749  0.10228488  0.69813506  1
  Sc  Sc96  1  0.69703775  0.49478028  0.90465561  1
  Sc  Sc97  1  0.69999984  0.08722902  0.30448563  1
  Sc  Sc98  1  0.89831633  0.49987637  0.51016392  1
  Sc  Sc99  1  0.50066791  0.29818873  0.89168949  1
  Nb  Nb100  1  0.29874781  0.30572734  0.90325676  1
  Nb  Nb101  1  0.30575533  0.89752619  0.29640928  1
  Nb  Nb102  1  0.49763847  0.30149359  0.29803497  1
  Nb  Nb103  1  0.69816240  0.69900598  0.29529700  1
  Nb  Nb104  1  0.09878676  0.69967505  0.69888833  1
  Nb  Nb105  1  0.29689216  0.49970538  0.90205837  1
  Nb  Nb106  1  0.49612821  0.69198163  0.10307905  1
  Nb  Nb107  1  0.30239439  0.30027160  0.30467766  1
  Nb  Nb108  1  0.69982618  0.10122562  0.70155885  1
  Nb  Nb109  1  0.70693330  0.10374572  0.89040584  1
  Nb  Nb110  1  0.89509006  0.30353205  0.10682001  1
  Nb  Nb111  1  0.29818071  0.30063612  0.49369149  1
  Nb  Nb112  1  0.49563929  0.49772895  0.10322534  1
  Nb  Nb113  1  0.29718865  0.49626314  0.09671574  1
  Nb  Nb114  1  0.90753562  0.09315627  0.89664863  1
  Nb  Nb115  1  0.49431299  0.29672148  0.69978521  1
  Nb  Nb116  1  0.10248418  0.30239300  0.70128818  1
  Nb  Nb117  1  0.89794158  0.70215589  0.89861506  1
  Nb  Nb118  1  0.50312580  0.89994472  0.29697551  1
  Nb  Nb119  1  0.69739213  0.10584821  0.50325167  1
  Nb  Nb120  1  0.29862724  0.50115536  0.70221685  1
  Nb  Nb121  1  0.09683955  0.09795140  0.89870862  1
  Nb  Nb122  1  0.90087488  0.69943006  0.70429542  1
  Nb  Nb123  1  0.29667649  0.29986211  0.69739877  1
  Nb  Nb124  1  0.90017438  0.49898658  0.29602813  1
  Nb  Nb125  1  0.60493125  0.00811016  0.60622453  1
  Nb  Nb126  1  0.19175851  0.00711806  0.80220662  1
  Nb  Nb127  1  0.60546501  0.20558854  0.20203584  1
  Nb  Nb128  1  0.80298968  0.60219564  0.20551570  1
  Nb  Nb129  1  0.80654462  0.40270107  0.79928872  1
  Nb  Nb130  1  0.39576461  -0.00868869  0.39495503  1
  Nb  Nb131  1  0.59946961  0.20336422  0.39510648  1
  Nb  Nb132  1  0.39827370  0.59502515  0.00252966  1
  Nb  Nb133  1  0.39235731  0.40593470  -0.00154824  1
  Nb  Nb134  1  0.59377296  0.39541167  0.19827299  1
  Nb  Nb135  1  0.39387804  0.59468616  0.80871980  1
  Nb  Nb136  1  0.80565140  0.59938705  0.80050058  1
  Nb  Nb137  1  0.20526959  0.39578145  0.79676613  1
  Nb  Nb138  1  0.80525841  0.79164029  0.20438855  1
  Nb  Nb139  1  0.19844006  0.60075722  0.60312541  1
  Nb  Nb140  1  -0.00833811  0.80165096  0.19713255  1
  Nb  Nb141  1  0.20053149  0.39818849  0.39990490  1
  Nb  Nb142  1  0.20061346  0.59226158  0.40648909  1
  Nb  Nb143  1  0.60838502  0.00739124  0.79934746  1
  Nb  Nb144  1  0.79818283  0.79301634  0.39021984  1
  Nb  Nb145  1  0.79847609  0.60219199  0.39643672  1
  Nb  Nb146  1  0.60162160  0.79999996  0.39378846  1
  Nb  Nb147  1  0.79546939  0.20319057  0.19772055  1
  Nb  Nb148  1  0.00282623  0.39902176  0.39612736  1
  Nb  Nb149  1  0.39503886  0.39379881  0.60720058  1
  Pd  Pd150  1  0.20478174  -0.00264218  0.39543843  1
  Pd  Pd151  1  0.19604185  0.01151833  0.60956473  1
  Pd  Pd152  1  0.59668236  0.19920815  -0.00218506  1
  Pd  Pd153  1  0.20542797  0.40319408  0.59853031  1
  Pd  Pd154  1  0.00441377  -0.00508662  0.78903979  1
  Pd  Pd155  1  0.40549144  0.18979790  0.39362940  1
  Pd  Pd156  1  0.79881349  0.00375880  0.59459735  1
  Pd  Pd157  1  0.60211702  0.60917806  0.40064554  1
  Pd  Pd158  1  0.81031199  0.19207801  0.00050730  1
  Pd  Pd159  1  0.80597400  0.19901643  0.59920521  1
  Pd  Pd160  1  0.20255884  0.79543190  0.39458035  1
  Pd  Pd161  1  0.39389993  0.59914836  0.19949109  1
  Pd  Pd162  1  0.39504226  0.20439247  0.59596860  1
  Pd  Pd163  1  0.39677223  0.79722051  0.60646786  1
  Pd  Pd164  1  -0.00516414  0.19802518  0.00460245  1
  Pd  Pd165  1  0.00831837  0.80033255  0.00752931  1
  Pd  Pd166  1  0.80926533  0.41214815  0.40481356  1
  Pd  Pd167  1  0.19901494  0.80703970  0.80174876  1
  Pd  Pd168  1  0.20576724  -0.00419023  -0.00657851  1
  Pd  Pd169  1  0.79493259  0.60398481  0.60282691  1
  Pd  Pd170  1  0.60987314  0.39574457  0.79380467  1
  Pd  Pd171  1  0.59054708  -0.00177129  0.41215724  1
  Pd  Pd172  1  0.80921031  0.21200070  0.80804638  1
  Pd  Pd173  1  0.39747180  0.40602499  0.40065195  1
  Pd  Pd174  1  0.20954936  0.19853677  0.79991702  1
  Pd  Pd175  1  0.39772989  -0.00359317  0.19985424  1
  Pd  Pd176  1  0.00584862  0.39712394  0.00327132  1
  Pd  Pd177  1  0.60507412  0.59986667  0.79649248  1
  Pd  Pd178  1  0.00119796  0.60686015  0.80489868  1
  Pd  Pd179  1  0.19863150  0.59671902  0.79423779  1
  Pd  Pd180  1  0.60264773  0.60383243  0.60910673  1
  Pd  Pd181  1  0.39228005  0.19986852  0.80604385  1
  Pd  Pd182  1  -0.00075851  0.00683178  0.60681976  1
  Pd  Pd183  1  0.80041739  -0.00581261  0.80375367  1
  Pd  Pd184  1  -0.00021219  0.00011349  0.00276760  1
  Pd  Pd185  1  0.59343487  0.80076800  0.00332567  1
  Pd  Pd186  1  0.39601002  0.40246191  0.79918014  1
  Pd  Pd187  1  0.59128873  0.39594434  0.60966134  1
  Pd  Pd188  1  0.00464830  0.58700544  0.40865743  1
  Pd  Pd189  1  0.19913443  0.60178402  0.00470935  1
  Pd  Pd190  1  0.59475160  0.60003723  0.00128757  1
  Pd  Pd191  1  0.40548688  0.20114645  0.20119554  1
  Pd  Pd192  1  0.40572023  0.00368813  0.59243203  1
  Pd  Pd193  1  0.39414615  -0.00297745  0.00090636  1
  Pd  Pd194  1  0.40570832  0.79415154  0.00426988  1
  Pd  Pd195  1  0.40934756  0.80235360  0.39540768  1
  Pd  Pd196  1  0.80239981  0.00709060  0.20154896  1
  Pd  Pd197  1  0.59466260  0.00292426  -0.00923201  1
  Pd  Pd198  1  0.00726064  0.60510097  0.59845029  1
  Pd  Pd199  1  0.80372832  0.39163902  0.60601062  1
  Rh  Rh200  1  -0.00611110  0.38655039  0.58567804  1
  Rh  Rh201  1  0.79562510  0.59862022  -0.00151479  1
  Rh  Rh202  1  0.39730937  0.59901187  0.61674062  1
  Rh  Rh203  1  0.80622406  0.00653531  -0.01007315  1
  Rh  Rh204  1  0.80512510  0.40584127  -0.00540143  1
  Rh  Rh205  1  0.39560580  0.00794187  0.80543492  1
  Rh  Rh206  1  0.19297760  0.80366622  0.20545334  1
  Rh  Rh207  1  0.80418149  0.79720120  0.59417320  1
  Rh  Rh208  1  0.20086928  0.20237527  0.00353896  1
  Rh  Rh209  1  0.79458865  0.79475285  0.00867411  1
  Rh  Rh210  1  0.59549783  0.00928322  0.18844328  1
  Rh  Rh211  1  0.59088439  0.39679764  0.39335547  1
  Rh  Rh212  1  0.00702011  0.40062908  0.20174293  1
  Rh  Rh213  1  -0.00727081  0.19720156  0.59351122  1
  Rh  Rh214  1  0.19565104  0.20936248  0.39776154  1
  Rh  Rh215  1  -0.00710252  0.20022434  0.19071410  1
  Rh  Rh216  1  0.60378987  0.81088047  0.80155058  1
  Rh  Rh217  1  0.19856210  0.39374916  -0.00279173  1
  Rh  Rh218  1  0.39382235  0.20995642  -0.00261890  1
  Rh  Rh219  1  0.00092908  0.79574668  0.79513874  1
  Rh  Rh220  1  0.40609007  0.80111289  0.19823001  1
  Rh  Rh221  1  0.40454983  0.39501895  0.19393860  1
  Rh  Rh222  1  0.20072941  0.20211975  0.19924304  1
  Rh  Rh223  1  0.60237971  0.80883402  0.59356218  1
  Rh  Rh224  1  -0.00557399  0.60405905  0.18932776  1
  Rh  Rh225  1  0.00292269  0.39055675  0.81213028  1
  Rh  Rh226  1  0.20708037  0.79123755  0.60023059  1
  Rh  Rh227  1  0.78699605  0.18955462  0.39232246  1
  Rh  Rh228  1  -0.00583030  0.81159813  0.38709716  1
  Rh  Rh229  1  0.79253873  0.40595212  0.19149162  1
  Rh  Rh230  1  0.80076443  -0.00030664  0.40520583  1
  Rh  Rh231  1  0.39235907  0.60068646  0.38934630  1
  Rh  Rh232  1  -0.00699450  0.20307101  0.80853870  1
  Rh  Rh233  1  0.59631731  0.79653657  0.19935666  1
  Rh  Rh234  1  0.59352722  0.19597856  0.59539610  1
  Rh  Rh235  1  0.60268347  0.59001697  0.19330474  1
  Rh  Rh236  1  0.20477250  0.19896375  0.60134863  1
  Rh  Rh237  1  0.00274552  -0.00302828  0.19779715  1
  Rh  Rh238  1  0.19584471  0.80386316  0.00174912  1
  Rh  Rh239  1  0.20672284  0.59791536  0.20737729  1
  Rh  Rh240  1  0.80258544  0.79356695  0.79885519  1
  Rh  Rh241  1  0.58812925  0.39555248  0.00681209  1
  Rh  Rh242  1  0.20511128  -0.00180702  0.20111689  1
  Rh  Rh243  1  0.01140747  0.20752884  0.40056299  1
  Rh  Rh244  1  -0.00397101  0.79588429  0.60852364  1
  Rh  Rh245  1  0.00534183  0.00075475  0.39913900  1
  Rh  Rh246  1  0.19769801  0.39894806  0.20743214  1
  Rh  Rh247  1  0.01202396  0.59919408  0.00031332  1
  Rh  Rh248  1  0.59698181  0.19603798  0.80454516  1
  Rh  Rh249  1  0.39976904  0.78845398  0.80235138  1
