# generated using pymatgen
data_ZrScNbPdRh
_symmetry_space_group_name_H-M   'P 1'
_cell_length_a   16.56662743
_cell_length_b   16.56192055
_cell_length_c   16.56475240
_cell_angle_alpha   90.00100994
_cell_angle_beta   89.97917517
_cell_angle_gamma   90.00928038
_symmetry_Int_Tables_number   1
_chemical_formula_structural   ZrScNbPdRh
_chemical_formula_sum   'Zr50 Sc50 Nb50 Pd50 Rh50'
_cell_volume   4544.95634947
_cell_formula_units_Z   50
loop_
 _symmetry_equiv_pos_site_id
 _symmetry_equiv_pos_as_xyz
  1  'x, y, z'
loop_
 _atom_site_type_symbol
 _atom_site_label
 _atom_site_symmetry_multiplicity
 _atom_site_fract_x
 _atom_site_fract_y
 _atom_site_fract_z
 _atom_site_occupancy
  Zr  Zr0  1  0.90088867  0.49971771  0.49805838  1
  Zr  Zr1  1  0.90595800  0.10040740  0.69437463  1
  Zr  Zr2  1  0.50169160  0.29480015  0.89641785  1
  Zr  Zr3  1  0.30007917  0.90751135  0.50000399  1
  Zr  Zr4  1  0.30702979  0.70083056  0.89547918  1
  Zr  Zr5  1  0.10346881  0.69909219  0.10326204  1
  Zr  Zr6  1  0.30068670  0.70177197  0.49013914  1
  Zr  Zr7  1  0.70268953  0.30182349  0.09601900  1
  Zr  Zr8  1  0.50321253  0.90296247  0.30377202  1
  Zr  Zr9  1  0.90028221  0.69808423  0.30791659  1
  Zr  Zr10  1  0.90339402  0.70397903  0.69640520  1
  Zr  Zr11  1  0.29797361  0.30215663  0.89956969  1
  Zr  Zr12  1  0.70073953  0.50063852  0.30321210  1
  Zr  Zr13  1  0.89519848  0.90239784  0.70199701  1
  Zr  Zr14  1  0.49718992  0.90271411  0.69674047  1
  Zr  Zr15  1  0.70453310  0.29881940  0.89196445  1
  Zr  Zr16  1  0.50186804  0.09892381  0.89916996  1
  Zr  Zr17  1  0.30140249  0.50622842  0.49978287  1
  Zr  Zr18  1  0.09816326  0.70114039  0.29036069  1
  Zr  Zr19  1  0.09767149  0.30092072  0.50003017  1
  Zr  Zr20  1  0.49706650  0.30531011  0.29412790  1
  Zr  Zr21  1  0.71735391  0.50172125  0.90457148  1
  Zr  Zr22  1  0.89975755  0.10274091  0.29974996  1
  Zr  Zr23  1  0.30304159  0.70129140  0.70310227  1
  Zr  Zr24  1  0.10051132  0.70530302  0.90424204  1
  Zr  Zr25  1  0.49146191  0.49330754  0.10982322  1
  Zr  Zr26  1  0.50344777  0.69425415  0.09445214  1
  Zr  Zr27  1  0.90482275  0.89836088  0.30738437  1
  Zr  Zr28  1  0.70023508  0.89997150  0.89787557  1
  Zr  Zr29  1  0.09372286  0.88998223  0.09638672  1
  Zr  Zr30  1  0.49465518  0.29348906  0.50702871  1
  Zr  Zr31  1  0.70158466  0.10031392  0.49369885  1
  Zr  Zr32  1  0.10142187  0.89633613  0.30072867  1
  Zr  Zr33  1  0.69105452  0.50354794  0.10382098  1
  Zr  Zr34  1  0.10196944  0.30115329  0.91026754  1
  Zr  Zr35  1  0.09763667  0.89976289  0.49247260  1
  Zr  Zr36  1  0.70546780  0.49705737  0.69736915  1
  Zr  Zr37  1  0.10472941  0.49441408  0.50255468  1
  Zr  Zr38  1  0.50609072  0.50095942  0.29586262  1
  Zr  Zr39  1  0.90181802  0.49735779  0.30235859  1
  Zr  Zr40  1  0.90978611  0.70136337  0.09968189  1
  Zr  Zr41  1  0.70803995  0.30157062  0.50669155  1
  Zr  Zr42  1  0.09560121  0.91564359  0.70073094  1
  Zr  Zr43  1  0.09500163  0.30674472  0.29773008  1
  Zr  Zr44  1  0.50039198  0.89777055  0.90370818  1
  Zr  Zr45  1  0.50530476  0.09505113  0.08673581  1
  Zr  Zr46  1  0.50187839  0.30695089  0.09505733  1
  Zr  Zr47  1  0.48808345  0.09713422  0.49478714  1
  Zr  Zr48  1  0.90266292  0.89327841  0.50096981  1
  Zr  Zr49  1  0.90319191  0.29579733  0.29356309  1
  Sc  Sc50  1  0.10092157  0.69167158  0.70407694  1
  Sc  Sc51  1  0.49007131  0.49649754  0.90905153  1
  Sc  Sc52  1  0.71397988  0.09991738  0.30193073  1
  Sc  Sc53  1  0.29936886  0.49428697  0.89844647  1
  Sc  Sc54  1  0.29476082  0.70129595  0.29644221  1
  Sc  Sc55  1  0.70537602  0.90487027  0.31270790  1
  Sc  Sc56  1  0.10366812  0.10667626  0.29688035  1
  Sc  Sc57  1  0.08979650  0.09415470  0.50368328  1
  Sc  Sc58  1  0.30244598  0.89196328  0.09924611  1
  Sc  Sc59  1  0.49704041  0.70368057  0.69614891  1
  Sc  Sc60  1  0.49488886  0.89906367  0.49509629  1
  Sc  Sc61  1  0.89834122  0.10232945  0.10225342  1
  Sc  Sc62  1  0.29793672  0.10259693  0.30631881  1
  Sc  Sc63  1  0.50115702  0.11154900  0.70017047  1
  Sc  Sc64  1  0.10599376  0.30482901  0.70565318  1
  Sc  Sc65  1  0.70967625  0.29753082  0.69719836  1
  Sc  Sc66  1  0.70045467  0.49758765  0.49669634  1
  Sc  Sc67  1  0.09349885  0.29653462  0.10143413  1
  Sc  Sc68  1  0.90352311  0.50245862  0.71470462  1
  Sc  Sc69  1  0.29218432  0.31304121  0.09984223  1
  Sc  Sc70  1  0.49396678  0.70126320  0.30540746  1
  Sc  Sc71  1  0.30322707  0.30784161  0.70111991  1
  Sc  Sc72  1  0.90571403  0.49299582  0.90071540  1
  Sc  Sc73  1  0.69927503  0.70904069  0.69958893  1
  Sc  Sc74  1  0.30254655  0.90115028  0.70170210  1
  Sc  Sc75  1  0.30304694  0.89178095  0.90224571  1
  Sc  Sc76  1  0.89917002  0.90925608  0.09010460  1
  Sc  Sc77  1  0.90216735  0.09252381  0.90511986  1
  Sc  Sc78  1  0.09450809  0.69507417  0.50128351  1
  Sc  Sc79  1  0.90062108  0.10404963  0.49890260  1
  Sc  Sc80  1  0.29348230  0.09297432  0.70444360  1
  Sc  Sc81  1  0.29778626  0.50643570  0.29285399  1
  Sc  Sc82  1  0.29405844  0.29558712  0.30153801  1
  Sc  Sc83  1  0.29175506  0.09425080  0.10142743  1
  Sc  Sc84  1  0.09893084  0.49075546  0.10271403  1
  Sc  Sc85  1  0.69768841  0.69793281  0.30695937  1
  Sc  Sc86  1  0.70698023  0.10674031  0.70353259  1
  Sc  Sc87  1  0.70370362  0.89786870  0.49796904  1
  Sc  Sc88  1  0.50269069  0.50796875  0.50001828  1
  Sc  Sc89  1  0.70477963  0.89917189  0.70017610  1
  Sc  Sc90  1  0.89717752  0.49398808  0.09093828  1
  Sc  Sc91  1  0.49457755  0.50632605  0.68931076  1
  Sc  Sc92  1  0.29304721  0.50022441  0.69928472  1
  Sc  Sc93  1  0.69237536  0.10179485  0.89919398  1
  Sc  Sc94  1  0.29814006  0.29993527  0.50107470  1
  Sc  Sc95  1  0.70935299  0.30154873  0.29960446  1
  Sc  Sc96  1  0.49628485  0.89643792  0.08731313  1
  Sc  Sc97  1  0.69737414  0.70288517  0.49884923  1
  Sc  Sc98  1  0.29549964  0.89210295  0.30277586  1
  Sc  Sc99  1  0.89865226  0.68488458  0.90020473  1
  Nb  Nb100  1  0.90256740  0.29781955  0.51130192  1
  Nb  Nb101  1  0.70401886  0.09612418  0.09723615  1
  Nb  Nb102  1  0.90511616  0.29642040  0.09521660  1
  Nb  Nb103  1  0.10040989  0.49607872  0.70248653  1
  Nb  Nb104  1  0.50564191  0.30373954  0.70238020  1
  Nb  Nb105  1  0.09253960  0.49508097  0.30313303  1
  Nb  Nb106  1  0.70265613  0.90182062  0.09865079  1
  Nb  Nb107  1  0.89633650  0.70043430  0.50203758  1
  Nb  Nb108  1  0.08824934  0.90488151  0.90226953  1
  Nb  Nb109  1  0.50496521  0.70386103  0.90063727  1
  Nb  Nb110  1  0.10068555  0.09936486  0.89742484  1
  Nb  Nb111  1  0.09571720  0.10053689  0.70521501  1
  Nb  Nb112  1  0.29650868  0.69239388  0.10251272  1
  Nb  Nb113  1  0.69148676  0.69847042  0.91018405  1
  Nb  Nb114  1  0.09912266  0.49686933  0.89202716  1
  Nb  Nb115  1  0.90045803  0.29758371  0.90104491  1
  Nb  Nb116  1  0.30249999  0.10479490  0.50478400  1
  Nb  Nb117  1  0.89735122  0.29456960  0.70066800  1
  Nb  Nb118  1  0.30026101  0.50602325  0.09769182  1
  Nb  Nb119  1  0.29702103  0.10115085  0.90219317  1
  Nb  Nb120  1  0.69856445  0.69862897  0.09645169  1
  Nb  Nb121  1  0.50253366  0.10199197  0.29896366  1
  Nb  Nb122  1  0.48971303  0.69694183  0.50126702  1
  Nb  Nb123  1  0.90027052  0.89943401  0.90179347  1
  Nb  Nb124  1  0.09353472  0.09782047  0.09428089  1
  Nb  Nb125  1  0.20306847  0.59834752  0.00275704  1
  Nb  Nb126  1  0.79473613  0.79648644  0.00029714  1
  Nb  Nb127  1  0.60724916  0.80372939  0.19443435  1
  Nb  Nb128  1  0.60076139  0.19287147  0.19919292  1
  Nb  Nb129  1  0.39570777  0.19863930  0.00059093  1
  Nb  Nb130  1  0.79598806  0.79840058  0.19480297  1
  Nb  Nb131  1  0.60250640  -0.00005817  0.19766561  1
  Nb  Nb132  1  0.00304236  0.19854361  0.80276980  1
  Nb  Nb133  1  0.19006125  -0.00007139  -0.00602629  1
  Nb  Nb134  1  0.59660143  0.19998909  0.39573943  1
  Nb  Nb135  1  0.59994287  0.40533738  0.79628743  1
  Nb  Nb136  1  0.59821739  0.00369926  0.59613946  1
  Nb  Nb137  1  0.80476328  0.60291673  0.59836847  1
  Nb  Nb138  1  0.40140622  0.00350883  0.80809227  1
  Nb  Nb139  1  0.19888003  0.80299202  0.59858310  1
  Nb  Nb140  1  0.00487383  0.00065179  0.19837469  1
  Nb  Nb141  1  -0.00225782  0.80653877  0.80442669  1
  Nb  Nb142  1  0.40135598  0.40277879  0.39900793  1
  Nb  Nb143  1  0.40544548  0.19527544  0.19394026  1
  Nb  Nb144  1  0.80121572  0.20197824  0.00030977  1
  Nb  Nb145  1  0.60034793  0.59976681  0.80762187  1
  Nb  Nb146  1  0.40728023  0.00399273  0.20051587  1
  Nb  Nb147  1  0.79889217  0.60529618  0.19721841  1
  Nb  Nb148  1  -0.00199204  0.39760831  0.60576452  1
  Nb  Nb149  1  0.19620276  0.19403635  0.60224025  1
  Pd  Pd150  1  -0.00418309  0.58981873  0.60493126  1
  Pd  Pd151  1  0.79527364  0.00124005  0.59480371  1
  Pd  Pd152  1  0.40657644  0.80313932  0.19767174  1
  Pd  Pd153  1  0.59689948  0.00290056  0.78854354  1
  Pd  Pd154  1  0.19944309  -0.00682768  0.19285394  1
  Pd  Pd155  1  0.00621236  0.60161540  0.40142047  1
  Pd  Pd156  1  0.19900034  0.00335875  0.59635321  1
  Pd  Pd157  1  0.38823939  0.19721945  0.61275358  1
  Pd  Pd158  1  0.39976147  0.40379448  0.59512518  1
  Pd  Pd159  1  0.39386529  0.19634110  0.79872923  1
  Pd  Pd160  1  0.19224491  0.60038442  0.39186454  1
  Pd  Pd161  1  0.80389979  -0.00698200  0.20263711  1
  Pd  Pd162  1  0.39219960  0.80023002  0.59607383  1
  Pd  Pd163  1  0.01051912  0.58963281  -0.00086770  1
  Pd  Pd164  1  0.19777487  0.20326571  0.79478277  1
  Pd  Pd165  1  0.19964367  0.00824536  0.40055468  1
  Pd  Pd166  1  0.00953775  0.80318436  0.60724985  1
  Pd  Pd167  1  -0.00030000  0.39115303  0.79858140  1
  Pd  Pd168  1  0.19990011  0.59545822  0.80665535  1
  Pd  Pd169  1  0.80111992  0.00827899  0.80416136  1
  Pd  Pd170  1  0.59876472  0.80745864  0.59341242  1
  Pd  Pd171  1  0.79247925  0.60990040  0.79413781  1
  Pd  Pd172  1  0.00090768  0.20040972  0.39933069  1
  Pd  Pd173  1  0.19077929  0.80979674  0.79259062  1
  Pd  Pd174  1  0.60456682  0.19523152  0.59719287  1
  Pd  Pd175  1  0.59393133  0.39070282  0.40527209  1
  Pd  Pd176  1  0.40080199  0.60582837  0.20547476  1
  Pd  Pd177  1  0.20923964  0.40327342  0.39550707  1
  Pd  Pd178  1  0.40860355  0.59566688  0.79846622  1
  Pd  Pd179  1  0.59406464  0.58750689  -0.00487841  1
  Pd  Pd180  1  0.20312038  0.20119292  0.19189983  1
  Pd  Pd181  1  0.20732967  -0.00866682  0.81003548  1
  Pd  Pd182  1  0.20540794  0.80004027  0.00052701  1
  Pd  Pd183  1  0.19967856  0.40459958  0.20319639  1
  Pd  Pd184  1  0.60777846  0.60555976  0.60478515  1
  Pd  Pd185  1  0.40688608  0.40675026  0.79468969  1
  Pd  Pd186  1  0.20270574  0.60743493  0.60212561  1
  Pd  Pd187  1  0.59757105  0.40106771  0.60260986  1
  Pd  Pd188  1  0.39635178  0.60140214  -0.00201015  1
  Pd  Pd189  1  0.80544917  0.79108925  0.81122974  1
  Pd  Pd190  1  0.59652442  0.79582999  0.79709615  1
  Pd  Pd191  1  0.39152930  -0.00131270  0.39054419  1
  Pd  Pd192  1  0.59689741  0.60624744  0.40313926  1
  Pd  Pd193  1  -0.00369721  0.58818300  0.19663186  1
  Pd  Pd194  1  0.20287870  0.19600360  0.00827690  1
  Pd  Pd195  1  0.59720631  0.79584436  0.40006015  1
  Pd  Pd196  1  0.80396038  0.40616015  0.19565361  1
  Pd  Pd197  1  0.19557706  0.19406733  0.41055416  1
  Pd  Pd198  1  0.80753047  0.39200878  0.40176458  1
  Pd  Pd199  1  0.60323789  0.40661146  -0.01142812  1
  Rh  Rh200  1  -0.00525035  0.39942525  0.19588631  1
  Rh  Rh201  1  0.81162017  0.19528115  0.80850759  1
  Rh  Rh202  1  0.80609290  0.39108040  0.00055847  1
  Rh  Rh203  1  0.19608901  0.41137095  -0.00233404  1
  Rh  Rh204  1  0.20474690  0.80146761  0.19769020  1
  Rh  Rh205  1  0.19460319  0.39478242  0.60239821  1
  Rh  Rh206  1  -0.01232872  0.79602250  -0.01024779  1
  Rh  Rh207  1  0.40783649  0.80642913  0.80109929  1
  Rh  Rh208  1  0.40564161  0.00853328  0.61009015  1
  Rh  Rh209  1  0.38705703  0.39724228  0.20575648  1
  Rh  Rh210  1  0.79711885  0.60163980  0.40448783  1
  Rh  Rh211  1  -0.00540550  0.39491413  0.40571490  1
  Rh  Rh212  1  0.19380068  0.79380988  0.40547958  1
  Rh  Rh213  1  0.60963833  -0.00678169  -0.00021206  1
  Rh  Rh214  1  0.79925453  0.79692522  0.39907463  1
  Rh  Rh215  1  0.79942355  0.20789867  0.40514968  1
  Rh  Rh216  1  0.00669804  0.60469821  0.80365971  1
  Rh  Rh217  1  0.40220862  0.20936759  0.39292025  1
  Rh  Rh218  1  0.39789686  0.78654501  0.00283331  1
  Rh  Rh219  1  0.79713837  0.20114063  0.18901216  1
  Rh  Rh220  1  0.79446764  0.00213366  -0.00692248  1
  Rh  Rh221  1  -0.00802974  0.00141272  0.80339912  1
  Rh  Rh222  1  0.00318566  0.39918934  -0.00042119  1
  Rh  Rh223  1  -0.00595773  0.19742387  -0.00553176  1
  Rh  Rh224  1  0.19323636  0.59212446  0.19684378  1
  Rh  Rh225  1  0.00953679  0.20831940  0.61162706  1
  Rh  Rh226  1  0.40242142  0.59446286  0.39621487  1
  Rh  Rh227  1  0.80974536  -0.00178498  0.40695472  1
  Rh  Rh228  1  0.39341749  0.39306676  0.00154726  1
  Rh  Rh229  1  0.39387108  0.60444999  0.60029799  1
  Rh  Rh230  1  0.60336913  0.00773002  0.40195737  1
  Rh  Rh231  1  0.60328784  0.60958405  0.20558522  1
  Rh  Rh232  1  0.61139957  0.39281455  0.20281131  1
  Rh  Rh233  1  0.60468217  0.20972437  0.79217885  1
  Rh  Rh234  1  0.39915586  0.80056597  0.40008016  1
  Rh  Rh235  1  0.20089822  0.40144481  0.80195362  1
  Rh  Rh236  1  0.60399708  0.80637042  0.00373954  1
  Rh  Rh237  1  -0.01008281  0.81057687  0.19974430  1
  Rh  Rh238  1  0.00017257  0.00757418  0.39188360  1
  Rh  Rh239  1  0.80092576  0.19499447  0.59800267  1
  Rh  Rh240  1  0.00485481  0.78960321  0.40209038  1
  Rh  Rh241  1  0.60609573  0.20209998  0.00342887  1
  Rh  Rh242  1  0.80299268  0.60460482  0.00820466  1
  Rh  Rh243  1  0.38319349  0.00627693  -0.00107978  1
  Rh  Rh244  1  0.81362097  0.40874424  0.60681338  1
  Rh  Rh245  1  -0.00559455  -0.00248545  0.59532676  1
  Rh  Rh246  1  0.79754676  0.79452085  0.59532383  1
  Rh  Rh247  1  0.80055849  0.39676563  0.79764207  1
  Rh  Rh248  1  0.00328764  0.19443780  0.19855020  1
  Rh  Rh249  1  0.00207008  0.00384498  0.00393130  1
