# generated using pymatgen
data_ZrScNbPdRh
_symmetry_space_group_name_H-M   'P 1'
_cell_length_a   16.56137037
_cell_length_b   16.55400078
_cell_length_c   16.56094311
_cell_angle_alpha   90.01347675
_cell_angle_beta   90.03536240
_cell_angle_gamma   90.01148392
_symmetry_Int_Tables_number   1
_chemical_formula_structural   ZrScNbPdRh
_chemical_formula_sum   'Zr50 Sc50 Nb50 Pd50 Rh50'
_cell_volume   4540.29636979
_cell_formula_units_Z   50
loop_
 _symmetry_equiv_pos_site_id
 _symmetry_equiv_pos_as_xyz
  1  'x, y, z'
loop_
 _atom_site_type_symbol
 _atom_site_label
 _atom_site_symmetry_multiplicity
 _atom_site_fract_x
 _atom_site_fract_y
 _atom_site_fract_z
 _atom_site_occupancy
  Zr  Zr0  1  0.29003302  0.30899496  0.49635012  1
  Zr  Zr1  1  0.70066603  0.10165148  0.69491162  1
  Zr  Zr2  1  0.29944078  0.09377455  0.69219550  1
  Zr  Zr3  1  0.09400357  0.09288788  0.49995076  1
  Zr  Zr4  1  0.90057885  0.89364114  0.69900790  1
  Zr  Zr5  1  0.90720526  0.49917500  0.29637472  1
  Zr  Zr6  1  0.90111596  0.50716029  0.69550831  1
  Zr  Zr7  1  0.50577761  0.10833703  0.70624087  1
  Zr  Zr8  1  0.49748544  0.51107114  0.70054218  1
  Zr  Zr9  1  0.29739935  0.90415747  0.10183628  1
  Zr  Zr10  1  0.69747086  0.89842659  0.30061900  1
  Zr  Zr11  1  0.89827605  0.90278128  0.09552491  1
  Zr  Zr12  1  0.09774081  0.69876259  0.09783667  1
  Zr  Zr13  1  0.29286944  0.09800216  0.29714812  1
  Zr  Zr14  1  0.71353186  0.10294780  0.50216359  1
  Zr  Zr15  1  0.49202995  0.70012619  0.10333098  1
  Zr  Zr16  1  0.70831065  0.29735240  0.09590939  1
  Zr  Zr17  1  0.50545238  0.29821107  0.89513492  1
  Zr  Zr18  1  0.50325153  0.09606345  0.90085353  1
  Zr  Zr19  1  0.50514332  0.29557837  0.09938024  1
  Zr  Zr20  1  0.09672882  0.10654293  0.30394061  1
  Zr  Zr21  1  0.89529994  0.29655316  0.90845940  1
  Zr  Zr22  1  0.51461105  0.31125746  0.49695751  1
  Zr  Zr23  1  0.70708968  0.70268013  0.10133161  1
  Zr  Zr24  1  0.50007535  0.50670490  0.09936288  1
  Zr  Zr25  1  0.91161939  0.30224484  0.30184061  1
  Zr  Zr26  1  0.10004937  0.88975627  0.49730771  1
  Zr  Zr27  1  0.71175674  0.50410569  0.29677458  1
  Zr  Zr28  1  0.49726450  0.89618284  0.30038427  1
  Zr  Zr29  1  0.29886991  0.70675258  0.09605330  1
  Zr  Zr30  1  0.29768573  0.09542435  0.09690424  1
  Zr  Zr31  1  0.09873791  0.49831807  0.69971399  1
  Zr  Zr32  1  0.89953547  0.90598874  0.50561051  1
  Zr  Zr33  1  0.69495912  0.48452332  0.49807582  1
  Zr  Zr34  1  0.69874687  0.70078140  0.50731309  1
  Zr  Zr35  1  0.70169439  0.09820988  0.30026068  1
  Zr  Zr36  1  0.29525168  0.89309570  0.50920672  1
  Zr  Zr37  1  0.28931852  0.29589435  0.30084707  1
  Zr  Zr38  1  0.71129210  0.09750870  0.10281734  1
  Zr  Zr39  1  0.49005906  0.30768809  0.70773867  1
  Zr  Zr40  1  0.69569060  0.30012143  0.31272788  1
  Zr  Zr41  1  0.90489903  0.09123058  0.70144777  1
  Zr  Zr42  1  0.29881410  0.29615167  0.10461636  1
  Zr  Zr43  1  0.50417108  0.89346722  0.50324030  1
  Zr  Zr44  1  0.69780824  0.90432945  0.50518907  1
  Zr  Zr45  1  0.09470041  0.89541172  0.30458648  1
  Zr  Zr46  1  0.28988362  0.50242066  0.30331009  1
  Zr  Zr47  1  0.90685660  0.69523239  0.30130348  1
  Zr  Zr48  1  0.29106781  0.69215702  0.49786691  1
  Zr  Zr49  1  0.49812418  0.50832065  0.30067589  1
  Sc  Sc50  1  0.50942913  0.10025284  0.29426507  1
  Sc  Sc51  1  0.70659406  0.50178044  0.70235065  1
  Sc  Sc52  1  0.07875593  0.69777599  0.68881534  1
  Sc  Sc53  1  0.90016973  0.70424964  0.09474612  1
  Sc  Sc54  1  0.09273215  0.90291035  0.68931001  1
  Sc  Sc55  1  0.09944200  0.89777522  0.09268711  1
  Sc  Sc56  1  0.89732940  0.50269674  0.89794699  1
  Sc  Sc57  1  0.50001112  0.88535091  0.69658895  1
  Sc  Sc58  1  0.90191423  0.89280396  0.29884406  1
  Sc  Sc59  1  0.30347032  0.50742915  0.89719745  1
  Sc  Sc60  1  0.89590848  0.10709277  0.30574064  1
  Sc  Sc61  1  0.09822596  0.30604854  0.30179236  1
  Sc  Sc62  1  0.09070240  0.50266285  0.90440782  1
  Sc  Sc63  1  0.49491731  0.69743646  0.50473556  1
  Sc  Sc64  1  0.49531898  0.09850445  0.10002234  1
  Sc  Sc65  1  0.69885944  0.30259526  0.69987382  1
  Sc  Sc66  1  0.09158915  0.09395745  0.89726485  1
  Sc  Sc67  1  0.71147811  0.50578186  0.09786842  1
  Sc  Sc68  1  0.30258156  0.70121656  0.90424761  1
  Sc  Sc69  1  0.49110616  0.89938635  0.10219745  1
  Sc  Sc70  1  0.71618757  0.69923446  0.89734122  1
  Sc  Sc71  1  0.70282929  0.69720695  0.69976305  1
  Sc  Sc72  1  0.09231532  0.90126153  0.90677166  1
  Sc  Sc73  1  0.90480824  0.50305899  0.10278086  1
  Sc  Sc74  1  0.31275518  0.70267714  0.69984209  1
  Sc  Sc75  1  0.09882391  0.09645171  0.09400721  1
  Sc  Sc76  1  0.49006223  0.69915818  0.88495358  1
  Sc  Sc77  1  0.30573349  0.69675433  0.30691511  1
  Sc  Sc78  1  0.89787787  0.89902975  0.90046567  1
  Sc  Sc79  1  0.30342231  0.09288540  0.90615329  1
  Sc  Sc80  1  0.50637669  0.29186258  0.29976390  1
  Sc  Sc81  1  0.49999512  0.70559663  0.29600375  1
  Sc  Sc82  1  0.89838530  0.49827184  0.49532042  1
  Sc  Sc83  1  0.29904817  0.89512827  0.90972771  1
  Sc  Sc84  1  0.51002625  0.09276140  0.51132912  1
  Sc  Sc85  1  0.71095422  0.90301334  0.09986643  1
  Sc  Sc86  1  0.70408784  0.30939042  0.89988912  1
  Sc  Sc87  1  0.70795094  0.50318470  0.89709495  1
  Sc  Sc88  1  0.29304328  0.09326497  0.50121755  1
  Sc  Sc89  1  0.09009423  0.30807603  0.89430696  1
  Sc  Sc90  1  0.08928709  0.30176678  0.10749049  1
  Sc  Sc91  1  0.89526662  0.30663978  0.70236582  1
  Sc  Sc92  1  0.30076193  0.49567686  0.69451029  1
  Sc  Sc93  1  0.49998649  0.50082865  0.89305876  1
  Sc  Sc94  1  0.29744187  0.51539090  0.10586556  1
  Sc  Sc95  1  0.49911138  0.50698198  0.50737156  1
  Sc  Sc96  1  0.90365208  0.09256510  0.90547913  1
  Sc  Sc97  1  0.70108414  0.89360429  0.70159052  1
  Sc  Sc98  1  0.69782656  0.08685247  0.89747900  1
  Sc  Sc99  1  0.30737407  0.30589313  0.88939157  1
  Nb  Nb100  1  0.11152160  0.50294809  0.49599151  1
  Nb  Nb101  1  0.90292863  0.29697888  0.49993651  1
  Nb  Nb102  1  0.90448427  0.69914561  0.51075788  1
  Nb  Nb103  1  0.09421904  0.50222366  0.28950196  1
  Nb  Nb104  1  0.89532251  0.69986260  0.69408407  1
  Nb  Nb105  1  0.09608835  0.30061920  0.49411566  1
  Nb  Nb106  1  0.09334508  0.70528519  0.30355085  1
  Nb  Nb107  1  0.89871049  0.28401839  0.09887235  1
  Nb  Nb108  1  0.10181211  0.70418222  0.90078266  1
  Nb  Nb109  1  0.50502229  0.90061959  0.89516934  1
  Nb  Nb110  1  0.29811483  0.89718097  0.69987936  1
  Nb  Nb111  1  0.89647765  0.10763607  0.50624554  1
  Nb  Nb112  1  0.29792907  0.89795192  0.30273037  1
  Nb  Nb113  1  0.69423830  0.89710544  0.90472164  1
  Nb  Nb114  1  0.89743269  0.10412064  0.10246785  1
  Nb  Nb115  1  0.71441134  0.29639034  0.50719940  1
  Nb  Nb116  1  0.29505855  0.50615990  0.49140372  1
  Nb  Nb117  1  0.09548311  0.69767750  0.49243393  1
  Nb  Nb118  1  0.70499056  0.69993114  0.29992907  1
  Nb  Nb119  1  0.10328419  0.49853632  0.11043147  1
  Nb  Nb120  1  0.09923657  0.10279772  0.70125998  1
  Nb  Nb121  1  0.10199237  0.30105359  0.69885117  1
  Nb  Nb122  1  0.90778322  0.70157367  0.89728479  1
  Nb  Nb123  1  0.29593954  0.30005039  0.69876091  1
  Nb  Nb124  1  0.50052656  0.69420957  0.69279700  1
  Nb  Nb125  1  0.60818991  0.60307822  0.39688521  1
  Nb  Nb126  1  0.39945953  0.19814495  0.40821297  1
  Nb  Nb127  1  0.20184576  -0.00383040  0.79403511  1
  Nb  Nb128  1  0.40136628  0.39997463  0.20177956  1
  Nb  Nb129  1  0.39698638  0.39970941  0.39760646  1
  Nb  Nb130  1  0.60482518  0.19749432  -0.00154174  1
  Nb  Nb131  1  0.20168294  0.40020909  0.00583628  1
  Nb  Nb132  1  0.19473935  0.20638979  0.60261783  1
  Nb  Nb133  1  0.00238324  0.20440225  0.60035229  1
  Nb  Nb134  1  0.19227753  0.61069151  0.79938143  1
  Nb  Nb135  1  0.39835636  -0.00226313  0.39982470  1
  Nb  Nb136  1  0.19543954  0.79921096  0.79756986  1
  Nb  Nb137  1  0.00759600  0.39582845  0.59304771  1
  Nb  Nb138  1  0.60154286  0.40185892  0.19927736  1
  Nb  Nb139  1  0.19723986  0.19854543  0.79558976  1
  Nb  Nb140  1  0.39935016  -0.00942136  0.79701233  1
  Nb  Nb141  1  0.60072007  0.61031742  -0.00135589  1
  Nb  Nb142  1  -0.00540991  0.00387583  0.19826174  1
  Nb  Nb143  1  0.60046402  0.79973097  -0.00646075  1
  Nb  Nb144  1  0.39583117  0.20865900  0.59729778  1
  Nb  Nb145  1  0.19802510  0.80079275  0.20779193  1
  Nb  Nb146  1  0.39779918  0.40048695  0.00693657  1
  Nb  Nb147  1  0.19917017  0.20805370  -0.00750655  1
  Nb  Nb148  1  0.79921520  0.79274339  0.40443194  1
  Nb  Nb149  1  0.80137451  0.19568533  0.80116594  1
  Pd  Pd150  1  -0.00175772  0.59928012  0.00280571  1
  Pd  Pd151  1  0.40847722  0.80242209  -0.00674895  1
  Pd  Pd152  1  0.20143163  0.40530407  0.80948942  1
  Pd  Pd153  1  0.80742084  0.39524993  0.40016652  1
  Pd  Pd154  1  0.39824500  0.20519309  -0.00628351  1
  Pd  Pd155  1  0.00296459  0.59329447  0.40426836  1
  Pd  Pd156  1  0.59841436  0.18990238  0.41180968  1
  Pd  Pd157  1  0.80685294  -0.00687844  0.39552425  1
  Pd  Pd158  1  0.59969758  -0.00612539  0.19115871  1
  Pd  Pd159  1  0.60249142  0.80567462  0.18936372  1
  Pd  Pd160  1  0.20276627  -0.00408050  0.40219886  1
  Pd  Pd161  1  0.60259871  0.78908264  0.80148438  1
  Pd  Pd162  1  0.60484533  0.40701727  0.79552017  1
  Pd  Pd163  1  0.39768468  0.40267956  0.59219628  1
  Pd  Pd164  1  0.59780720  0.40709096  0.00350456  1
  Pd  Pd165  1  -0.00460410  0.20198011  0.79730688  1
  Pd  Pd166  1  0.80568903  0.79862381  0.20531261  1
  Pd  Pd167  1  0.19806398  0.61361984  0.20834417  1
  Pd  Pd168  1  0.40242964  0.19852491  0.20992228  1
  Pd  Pd169  1  0.79994957  0.20654309  0.21157077  1
  Pd  Pd170  1  0.40794895  -0.00118054  0.60138601  1
  Pd  Pd171  1  0.59695053  0.20827781  0.59904651  1
  Pd  Pd172  1  0.18632155  -0.00733409  0.19976313  1
  Pd  Pd173  1  0.19611441  0.40238847  0.59829814  1
  Pd  Pd174  1  0.80037675  -0.00169849  0.80129630  1
  Pd  Pd175  1  0.79469885  0.59160008  0.59424201  1
  Pd  Pd176  1  0.39676438  0.80122457  0.40605984  1
  Pd  Pd177  1  0.00478343  0.80382669  0.80112510  1
  Pd  Pd178  1  0.19952944  0.60718191  0.61144251  1
  Pd  Pd179  1  0.59719447  -0.00331037  0.01136742  1
  Pd  Pd180  1  0.79848840  0.60488708  0.40835148  1
  Pd  Pd181  1  0.59502737  0.00526256  0.40146188  1
  Pd  Pd182  1  0.18686864  0.19873583  0.18996841  1
  Pd  Pd183  1  0.80258667  0.39357503  0.19737896  1
  Pd  Pd184  1  -0.00759374  0.40204810  0.79596885  1
  Pd  Pd185  1  0.19391561  0.78642629  0.61028400  1
  Pd  Pd186  1  -0.01119788  0.00110075  0.39394447  1
  Pd  Pd187  1  -0.00028533  0.60306415  0.80144740  1
  Pd  Pd188  1  0.38911534  0.18990057  0.79845488  1
  Pd  Pd189  1  0.59599856  -0.00815606  0.78924278  1
  Pd  Pd190  1  0.40122045  0.00341534  0.20789709  1
  Pd  Pd191  1  0.80965248  0.40785133  0.00391588  1
  Pd  Pd192  1  0.60131107  0.40267991  0.61304321  1
  Pd  Pd193  1  0.60647756  0.59947417  0.19889662  1
  Pd  Pd194  1  0.80211194  0.79929056  0.80173569  1
  Pd  Pd195  1  0.60321552  0.79075218  0.40065915  1
  Pd  Pd196  1  0.00797658  0.19848958  -0.00074728  1
  Pd  Pd197  1  0.60656305  0.60629812  0.80643282  1
  Pd  Pd198  1  0.19766518  0.59294145  -0.00706656  1
  Pd  Pd199  1  -0.00028717  0.40182791  0.00853880  1
  Rh  Rh200  1  0.00143133  0.58893594  0.58831745  1
  Rh  Rh201  1  0.60200287  -0.00538563  0.60822071  1
  Rh  Rh202  1  0.39153693  0.59866569  0.59749759  1
  Rh  Rh203  1  0.39865681  0.79464491  0.59651878  1
  Rh  Rh204  1  0.18757685  0.60374140  0.39075010  1
  Rh  Rh205  1  0.00518325  -0.00891669  0.79866928  1
  Rh  Rh206  1  0.80295790  0.20653534  0.39912238  1
  Rh  Rh207  1  -0.00027269  0.00330121  0.59857790  1
  Rh  Rh208  1  0.39400724  0.80647255  0.80085876  1
  Rh  Rh209  1  0.80994505  0.60549556  0.79730633  1
  Rh  Rh210  1  0.61680273  0.20271342  0.81174875  1
  Rh  Rh211  1  0.80252720  0.00008607  -0.00539025  1
  Rh  Rh212  1  0.80128665  0.80011141  0.59687096  1
  Rh  Rh213  1  0.59444061  0.41195604  0.39023897  1
  Rh  Rh214  1  -0.00402364  0.79791735  -0.00172266  1
  Rh  Rh215  1  0.19725245  0.80101521  -0.00037150  1
  Rh  Rh216  1  0.59946293  0.79415905  0.60620456  1
  Rh  Rh217  1  0.19673619  0.00661502  -0.00861087  1
  Rh  Rh218  1  -0.00693539  0.39734436  0.19352070  1
  Rh  Rh219  1  0.00022764  0.19367907  0.19944106  1
  Rh  Rh220  1  -0.00175563  0.19810759  0.40573168  1
  Rh  Rh221  1  0.80938178  0.00020482  0.20824575  1
  Rh  Rh222  1  0.20111586  0.79263643  0.39470974  1
  Rh  Rh223  1  -0.00171121  0.80046689  0.59388640  1
  Rh  Rh224  1  0.39672202  0.40878599  0.80263065  1
  Rh  Rh225  1  0.38800004  0.79949740  0.20306938  1
  Rh  Rh226  1  0.79384181  0.18992627  -0.01126754  1
  Rh  Rh227  1  0.80930428  0.20446748  0.61035798  1
  Rh  Rh228  1  0.39170642  0.59864768  0.79401054  1
  Rh  Rh229  1  0.80294675  0.60244791  -0.00300040  1
  Rh  Rh230  1  0.39325901  0.60321902  0.20417757  1
  Rh  Rh231  1  0.61062602  0.20190039  0.18968498  1
  Rh  Rh232  1  0.19269280  0.40592955  0.39319461  1
  Rh  Rh233  1  0.80325723  0.39730027  0.80035694  1
  Rh  Rh234  1  0.19990200  0.19568242  0.40792337  1
  Rh  Rh235  1  0.40871743  0.59587118  -0.00561231  1
  Rh  Rh236  1  0.20154811  0.40177625  0.19717478  1
  Rh  Rh237  1  0.40463824  -0.00766329  -0.00631374  1
  Rh  Rh238  1  0.81098583  0.60638899  0.19696327  1
  Rh  Rh239  1  0.19049591  -0.00141387  0.60217349  1
  Rh  Rh240  1  -0.01139981  0.79701529  0.41095477  1
  Rh  Rh241  1  0.79853279  -0.00272098  0.60696381  1
  Rh  Rh242  1  0.79987072  0.80186122  -0.00769895  1
  Rh  Rh243  1  0.00890991  0.41060082  0.40419816  1
  Rh  Rh244  1  0.80640000  0.39940928  0.59872267  1
  Rh  Rh245  1  0.00081640  0.60452117  0.19493100  1
  Rh  Rh246  1  0.40803440  0.59631515  0.40408810  1
  Rh  Rh247  1  0.60520002  0.59809936  0.59644599  1
  Rh  Rh248  1  -0.00486398  0.00164966  0.00832724  1
  Rh  Rh249  1  0.00666812  0.80578048  0.19153854  1
