# generated using pymatgen
data_ZrScNbPdRh
_symmetry_space_group_name_H-M   'P 1'
_cell_length_a   16.55590127
_cell_length_b   16.55326385
_cell_length_c   16.55343911
_cell_angle_alpha   90.01148106
_cell_angle_beta   89.95788904
_cell_angle_gamma   89.99878120
_symmetry_Int_Tables_number   1
_chemical_formula_structural   ZrScNbPdRh
_chemical_formula_sum   'Zr50 Sc50 Nb50 Pd50 Rh50'
_cell_volume   4536.53822821
_cell_formula_units_Z   50
loop_
 _symmetry_equiv_pos_site_id
 _symmetry_equiv_pos_as_xyz
  1  'x, y, z'
loop_
 _atom_site_type_symbol
 _atom_site_label
 _atom_site_symmetry_multiplicity
 _atom_site_fract_x
 _atom_site_fract_y
 _atom_site_fract_z
 _atom_site_occupancy
  Zr  Zr0  1  0.70055291  0.90197856  0.11098894  1
  Zr  Zr1  1  0.49664433  0.30637368  0.89461799  1
  Zr  Zr2  1  0.10266736  0.70594711  0.29579657  1
  Zr  Zr3  1  0.49633117  0.69168650  0.30094180  1
  Zr  Zr4  1  0.09087469  0.70001817  0.69897076  1
  Zr  Zr5  1  0.89765225  0.70344244  0.70254960  1
  Zr  Zr6  1  0.90774335  0.30143988  0.49555436  1
  Zr  Zr7  1  0.70100471  0.69069934  0.70726824  1
  Zr  Zr8  1  0.70384772  0.69622271  0.09064748  1
  Zr  Zr9  1  0.50092019  0.30420839  0.29547728  1
  Zr  Zr10  1  0.09888048  0.70314791  0.50100085  1
  Zr  Zr11  1  0.09974836  0.10055460  0.90250784  1
  Zr  Zr12  1  0.70599537  0.89207118  0.29547464  1
  Zr  Zr13  1  0.09060920  0.50225251  0.70276238  1
  Zr  Zr14  1  0.30388811  0.29916881  0.30528213  1
  Zr  Zr15  1  0.70244275  0.10078940  0.69827775  1
  Zr  Zr16  1  0.70303471  0.29771484  0.90719426  1
  Zr  Zr17  1  0.09617125  0.90230781  0.50217774  1
  Zr  Zr18  1  0.90216834  0.90335961  0.70423677  1
  Zr  Zr19  1  0.50247469  0.10033748  0.10165658  1
  Zr  Zr20  1  0.30299751  0.09285602  0.89722638  1
  Zr  Zr21  1  0.09511699  0.49880694  0.89747940  1
  Zr  Zr22  1  0.30140044  0.30696692  0.11243118  1
  Zr  Zr23  1  0.90148467  0.49629816  0.91043208  1
  Zr  Zr24  1  0.50726653  0.89859745  0.30311579  1
  Zr  Zr25  1  0.48790351  0.90818187  0.89569611  1
  Zr  Zr26  1  0.29827475  0.49873211  0.49906783  1
  Zr  Zr27  1  0.89515240  0.29929124  0.89956815  1
  Zr  Zr28  1  0.10204986  0.29146346  0.29570309  1
  Zr  Zr29  1  0.89795070  0.89705877  0.10209702  1
  Zr  Zr30  1  0.09399768  0.90259150  0.90113127  1
  Zr  Zr31  1  0.50188232  0.50499596  0.10044454  1
  Zr  Zr32  1  0.50434869  0.50238274  0.49458128  1
  Zr  Zr33  1  0.69631490  0.50126507  0.30244437  1
  Zr  Zr34  1  0.49568863  0.10257599  0.30152966  1
  Zr  Zr35  1  0.10878763  0.89458343  0.09721241  1
  Zr  Zr36  1  0.50505999  0.09514215  0.49817689  1
  Zr  Zr37  1  0.29884630  0.29402722  0.69157071  1
  Zr  Zr38  1  0.69889375  0.10509507  0.50183043  1
  Zr  Zr39  1  0.69453858  0.30120040  0.29708171  1
  Zr  Zr40  1  0.09531578  0.10308545  0.10330995  1
  Zr  Zr41  1  0.29447491  0.09465601  0.30354566  1
  Zr  Zr42  1  0.10768478  0.09816330  0.69758959  1
  Zr  Zr43  1  0.90163886  0.09978375  0.10456841  1
  Zr  Zr44  1  0.89199527  0.69776040  0.29737888  1
  Zr  Zr45  1  0.70996100  0.10571712  0.89804162  1
  Zr  Zr46  1  0.50315345  0.89868838  0.69843422  1
  Zr  Zr47  1  0.90151715  0.50458158  0.10058290  1
  Zr  Zr48  1  0.89984612  0.68956253  0.09255233  1
  Zr  Zr49  1  0.70250844  0.29618858  0.49879687  1
  Sc  Sc50  1  0.09902123  0.49841240  0.29711167  1
  Sc  Sc51  1  0.29588264  0.89380110  0.90688469  1
  Sc  Sc52  1  0.31238052  0.50619594  0.10091101  1
  Sc  Sc53  1  0.10330167  0.90477482  0.30593545  1
  Sc  Sc54  1  0.28191944  0.49010737  0.70584031  1
  Sc  Sc55  1  0.69474354  0.30646779  0.68781539  1
  Sc  Sc56  1  0.50666547  0.69014725  0.90407517  1
  Sc  Sc57  1  0.89595930  0.09895633  0.70555059  1
  Sc  Sc58  1  0.70633514  0.89643104  0.89076681  1
  Sc  Sc59  1  0.90477800  0.10671201  0.89698626  1
  Sc  Sc60  1  0.70172219  0.69894184  0.29931168  1
  Sc  Sc61  1  0.90252262  0.50004886  0.50716594  1
  Sc  Sc62  1  0.10650414  0.31024139  0.70224968  1
  Sc  Sc63  1  0.08674646  0.30194565  0.89934766  1
  Sc  Sc64  1  0.09368592  0.90321097  0.70219066  1
  Sc  Sc65  1  0.09500356  0.49719480  0.51170137  1
  Sc  Sc66  1  0.10824938  0.08842135  0.49510879  1
  Sc  Sc67  1  0.29315333  0.70058730  0.70661349  1
  Sc  Sc68  1  0.49499784  0.69634792  0.09949536  1
  Sc  Sc69  1  0.70020748  0.29234690  0.10035492  1
  Sc  Sc70  1  0.90379099  0.30044444  0.70375144  1
  Sc  Sc71  1  0.30724801  0.89931400  0.09924134  1
  Sc  Sc72  1  0.90571951  0.29364949  0.30081761  1
  Sc  Sc73  1  0.90066820  0.50687446  0.69731551  1
  Sc  Sc74  1  0.90146874  0.09913963  0.49768100  1
  Sc  Sc75  1  0.49605785  0.70870026  0.49936514  1
  Sc  Sc76  1  0.68856736  0.51207458  0.89582641  1
  Sc  Sc77  1  0.50454976  0.29146298  0.49833038  1
  Sc  Sc78  1  0.49704775  0.30013604  0.69610159  1
  Sc  Sc79  1  0.49720898  0.10201935  0.69706253  1
  Sc  Sc80  1  0.91229324  0.09689284  0.29614322  1
  Sc  Sc81  1  0.51489584  0.49595543  0.70271401  1
  Sc  Sc82  1  0.69978623  0.68750586  0.50679895  1
  Sc  Sc83  1  0.31778670  0.49354733  0.29754753  1
  Sc  Sc84  1  0.30324772  0.71046038  0.10164150  1
  Sc  Sc85  1  0.30326713  0.31189630  0.88652961  1
  Sc  Sc86  1  0.68586985  0.90524454  0.50189615  1
  Sc  Sc87  1  0.29690494  0.89820828  0.29359771  1
  Sc  Sc88  1  0.90212786  0.70349137  0.50025987  1
  Sc  Sc89  1  0.30367493  0.08838937  0.10757878  1
  Sc  Sc90  1  0.49894195  0.10135968  0.90087395  1
  Sc  Sc91  1  0.29711470  0.10341460  0.50235496  1
  Sc  Sc92  1  0.69745995  0.90624312  0.70247547  1
  Sc  Sc93  1  0.09531236  0.70733214  0.89895276  1
  Sc  Sc94  1  0.89682164  0.30366829  0.09011914  1
  Sc  Sc95  1  0.50530280  0.70114743  0.70008775  1
  Sc  Sc96  1  0.70462758  0.49599003  0.10238300  1
  Sc  Sc97  1  0.30531923  0.89906365  0.71167840  1
  Sc  Sc98  1  0.29703751  0.10201867  0.69512194  1
  Sc  Sc99  1  0.70456227  0.10332059  0.29178442  1
  Nb  Nb100  1  0.50129903  0.90416600  0.09783384  1
  Nb  Nb101  1  0.70033935  0.10216381  0.09401777  1
  Nb  Nb102  1  0.88015708  0.71194246  0.90343483  1
  Nb  Nb103  1  0.29643663  0.69523627  0.90323188  1
  Nb  Nb104  1  0.89848421  0.50315280  0.29636892  1
  Nb  Nb105  1  0.70287018  0.70245426  0.90113240  1
  Nb  Nb106  1  0.49117724  0.49888965  0.90149557  1
  Nb  Nb107  1  0.70096050  0.50450489  0.68851477  1
  Nb  Nb108  1  0.10066302  0.30280764  0.50122017  1
  Nb  Nb109  1  0.89805494  0.89501929  0.89979095  1
  Nb  Nb110  1  0.30040449  0.70135760  0.49834100  1
  Nb  Nb111  1  0.09795037  0.69488875  0.10158934  1
  Nb  Nb112  1  0.50493417  0.29583617  0.09781667  1
  Nb  Nb113  1  0.30127963  0.89610369  0.50245808  1
  Nb  Nb114  1  0.49658126  0.89945430  0.50067543  1
  Nb  Nb115  1  0.09327606  0.50648744  0.09542053  1
  Nb  Nb116  1  0.29770798  0.30225753  0.50280625  1
  Nb  Nb117  1  0.10277607  0.30391665  0.10148442  1
  Nb  Nb118  1  0.50410314  0.49701958  0.29826063  1
  Nb  Nb119  1  0.30272319  0.50086853  0.90289746  1
  Nb  Nb120  1  0.89441055  0.89500205  0.29946507  1
  Nb  Nb121  1  0.10410591  0.09496520  0.29758351  1
  Nb  Nb122  1  0.29740049  0.69737576  0.29944112  1
  Nb  Nb123  1  0.90283296  0.89952796  0.49703982  1
  Nb  Nb124  1  0.70106523  0.49518792  0.51445511  1
  Nb  Nb125  1  0.60353043  0.20299227  0.80172769  1
  Nb  Nb126  1  0.79294704  0.40683263  0.79747180  1
  Nb  Nb127  1  0.39543350  0.59615292  0.60407753  1
  Nb  Nb128  1  0.60515233  -0.00182053  0.00206255  1
  Nb  Nb129  1  0.59212378  0.39963809  -0.00130298  1
  Nb  Nb130  1  0.39687238  0.59241389  0.80196843  1
  Nb  Nb131  1  0.19900628  0.39833409  0.40219048  1
  Nb  Nb132  1  0.79834216  -0.00036400  0.00199367  1
  Nb  Nb133  1  0.20180398  0.59952006  0.39626775  1
  Nb  Nb134  1  0.79925356  0.40403054  0.40081805  1
  Nb  Nb135  1  -0.00166982  0.79681737  0.19796884  1
  Nb  Nb136  1  0.80168140  0.80547532  0.60056081  1
  Nb  Nb137  1  0.20502447  0.20784120  0.00307179  1
  Nb  Nb138  1  0.19891270  0.40479778  0.00479576  1
  Nb  Nb139  1  0.19822636  0.59934428  0.00312974  1
  Nb  Nb140  1  0.39484340  0.20529098  0.00275707  1
  Nb  Nb141  1  0.80453591  -0.00810165  0.39694674  1
  Nb  Nb142  1  0.39694898  0.40354693  0.59513049  1
  Nb  Nb143  1  0.20256039  0.80224031  0.59686998  1
  Nb  Nb144  1  0.00923354  0.20221515  0.59577707  1
  Nb  Nb145  1  0.00197849  0.40334834  0.19474492  1
  Nb  Nb146  1  0.59979817  0.80886628  0.00031412  1
  Nb  Nb147  1  0.40244963  -0.00921278  0.59287749  1
  Nb  Nb148  1  0.00218079  0.59951611  0.39509000  1
  Nb  Nb149  1  0.20056986  0.60137191  0.19875225  1
  Pd  Pd150  1  0.39372195  -0.00678252  0.40178753  1
  Pd  Pd151  1  0.60203750  0.60460253  0.40467964  1
  Pd  Pd152  1  0.40007470  0.20126752  0.40631723  1
  Pd  Pd153  1  0.39704674  0.59972982  0.40283705  1
  Pd  Pd154  1  0.19497501  0.20206566  0.40533716  1
  Pd  Pd155  1  0.61187736  0.00417369  0.39065004  1
  Pd  Pd156  1  0.78992116  0.80304812  0.41444656  1
  Pd  Pd157  1  0.60912310  0.79566343  0.59866671  1
  Pd  Pd158  1  0.60458495  0.60314596  0.19786205  1
  Pd  Pd159  1  0.40323107  0.78549043  0.80750549  1
  Pd  Pd160  1  0.00514377  -0.01173854  0.20527715  1
  Pd  Pd161  1  0.80533848  0.20297291  0.19998902  1
  Pd  Pd162  1  -0.01267386  0.60873388  0.81096657  1
  Pd  Pd163  1  -0.00296678  0.00998525  0.60002577  1
  Pd  Pd164  1  -0.00869144  0.00044705  -0.00402849  1
  Pd  Pd165  1  -0.00064952  0.79461340  0.00316102  1
  Pd  Pd166  1  0.80534742  0.59099933  0.40906966  1
  Pd  Pd167  1  0.59362797  0.78852966  0.19380268  1
  Pd  Pd168  1  0.19986313  0.59988169  0.80648288  1
  Pd  Pd169  1  0.20420228  0.80175789  0.40309766  1
  Pd  Pd170  1  0.60067405  0.00653330  0.20296133  1
  Pd  Pd171  1  0.40765642  0.79509192  -0.00523348  1
  Pd  Pd172  1  0.60480992  0.39883126  0.40641560  1
  Pd  Pd173  1  0.80467976  0.59216283  0.80623818  1
  Pd  Pd174  1  0.59822797  0.79688176  0.80869613  1
  Pd  Pd175  1  0.20465625  0.19204579  0.19554140  1
  Pd  Pd176  1  0.80927964  0.39662082  0.60158984  1
  Pd  Pd177  1  0.39880761  0.39518089  0.00732918  1
  Pd  Pd178  1  0.80746600  0.39484847  0.20658779  1
  Pd  Pd179  1  0.80062830  -0.00584933  0.59045401  1
  Pd  Pd180  1  0.00693365  0.19938277  0.78871762  1
  Pd  Pd181  1  -0.00215964  0.79843085  0.39188799  1
  Pd  Pd182  1  0.00075258  0.40761076  0.39190208  1
  Pd  Pd183  1  0.39771872  0.19655441  0.19680353  1
  Pd  Pd184  1  0.40545424  0.80304527  0.20522924  1
  Pd  Pd185  1  0.80375441  0.19595603  0.39313962  1
  Pd  Pd186  1  0.19706055  0.20764602  0.80966150  1
  Pd  Pd187  1  0.60788196  0.39780625  0.80301386  1
  Pd  Pd188  1  0.19733020  0.41276302  0.20161273  1
  Pd  Pd189  1  0.20148248  -0.00631762  0.79894913  1
  Pd  Pd190  1  0.20345992  0.60634151  0.59845611  1
  Pd  Pd191  1  0.59923341  0.00894432  0.80485720  1
  Pd  Pd192  1  0.19497956  0.80420012  0.79663690  1
  Pd  Pd193  1  0.01031083  0.18805376  0.40510335  1
  Pd  Pd194  1  0.39279760  0.79601040  0.60632430  1
  Pd  Pd195  1  0.60537946  0.79115830  0.40482208  1
  Pd  Pd196  1  0.81215415  0.20306565  0.60364113  1
  Pd  Pd197  1  0.20444490  0.00466834  0.00449430  1
  Pd  Pd198  1  0.40369645  0.19605739  0.80126384  1
  Pd  Pd199  1  0.39735738  0.80355274  0.39113275  1
  Rh  Rh200  1  0.78567747  0.40891469  -0.00823616  1
  Rh  Rh201  1  0.59831790  0.19792541  0.60744420  1
  Rh  Rh202  1  0.19651407  -0.00269452  0.19801082  1
  Rh  Rh203  1  0.59707725  0.39935070  0.18962989  1
  Rh  Rh204  1  -0.00423187  0.79952572  0.80542949  1
  Rh  Rh205  1  -0.00121886  0.39316103  0.60775836  1
  Rh  Rh206  1  0.59200369  0.00153358  0.60342047  1
  Rh  Rh207  1  -0.00408363  0.60431260  0.59348707  1
  Rh  Rh208  1  0.00400049  0.59944974  0.20866888  1
  Rh  Rh209  1  0.19936530  0.39763206  0.59520715  1
  Rh  Rh210  1  0.59163540  0.39836100  0.59241660  1
  Rh  Rh211  1  -0.00233154  0.00396385  0.80551247  1
  Rh  Rh212  1  0.40113410  0.39336803  0.40585295  1
  Rh  Rh213  1  -0.01067590  0.40363117  0.79632392  1
  Rh  Rh214  1  -0.00461859  -0.00158998  0.39525794  1
  Rh  Rh215  1  0.39377820  0.60565128  -0.00429807  1
  Rh  Rh216  1  0.79446184  0.59281563  -0.00633313  1
  Rh  Rh217  1  0.80530416  0.60759017  0.59840203  1
  Rh  Rh218  1  -0.00164436  0.80347651  0.60389024  1
  Rh  Rh219  1  0.60097383  0.59835198  0.00028015  1
  Rh  Rh220  1  0.80970409  0.19116506  0.00603386  1
  Rh  Rh221  1  0.80712527  -0.00245924  0.80922591  1
  Rh  Rh222  1  0.40524627  -0.00707816  0.20666313  1
  Rh  Rh223  1  0.39820279  0.41206861  0.78205680  1
  Rh  Rh224  1  0.39959577  0.19786070  0.59341748  1
  Rh  Rh225  1  0.60143444  0.19514707  0.39295247  1
  Rh  Rh226  1  0.19870284  0.79801860  0.19502734  1
  Rh  Rh227  1  0.79606013  0.80397888  0.78946421  1
  Rh  Rh228  1  0.58948602  0.20056693  -0.00658528  1
  Rh  Rh229  1  0.19187032  0.20088200  0.59511546  1
  Rh  Rh230  1  0.80638593  0.78889691  0.19097351  1
  Rh  Rh231  1  0.59018636  0.60171062  0.59875059  1
  Rh  Rh232  1  0.78960740  0.21606128  0.78752618  1
  Rh  Rh233  1  0.00515416  0.39501747  0.00669159  1
  Rh  Rh234  1  0.21193061  -0.01088520  0.60191387  1
  Rh  Rh235  1  0.20484180  -0.00509948  0.40116551  1
  Rh  Rh236  1  0.80142305  0.00616829  0.20241237  1
  Rh  Rh237  1  -0.00147432  0.20893897  0.19354110  1
  Rh  Rh238  1  0.59431087  0.60064106  0.79941600  1
  Rh  Rh239  1  0.79077318  0.80987398  0.00374451  1
  Rh  Rh240  1  0.00081234  0.61049940  -0.01218373  1
  Rh  Rh241  1  0.41252214  0.40204113  0.19729016  1
  Rh  Rh242  1  0.60061652  0.19850028  0.20230184  1
  Rh  Rh243  1  0.39722119  0.60146897  0.20334609  1
  Rh  Rh244  1  0.79186530  0.59979122  0.19824988  1
  Rh  Rh245  1  0.00413174  0.20406159  0.00441179  1
  Rh  Rh246  1  0.39851819  0.00724827  0.78862133  1
  Rh  Rh247  1  0.19383019  0.39887503  0.80993987  1
  Rh  Rh248  1  0.20091314  0.79260847  0.00089602  1
  Rh  Rh249  1  0.40362129  0.00688318  0.00204103  1
