# generated using pymatgen
data_ZrScNbPdRh
_symmetry_space_group_name_H-M   'P 1'
_cell_length_a   16.56199036
_cell_length_b   16.56273896
_cell_length_c   16.56078896
_cell_angle_alpha   89.99332290
_cell_angle_beta   90.00495707
_cell_angle_gamma   90.01242106
_symmetry_Int_Tables_number   1
_chemical_formula_structural   ZrScNbPdRh
_chemical_formula_sum   'Zr50 Sc50 Nb50 Pd50 Rh50'
_cell_volume   4542.82171250
_cell_formula_units_Z   50
loop_
 _symmetry_equiv_pos_site_id
 _symmetry_equiv_pos_as_xyz
  1  'x, y, z'
loop_
 _atom_site_type_symbol
 _atom_site_label
 _atom_site_symmetry_multiplicity
 _atom_site_fract_x
 _atom_site_fract_y
 _atom_site_fract_z
 _atom_site_occupancy
  Zr  Zr0  1  0.29863187  0.30585522  0.89090135  1
  Zr  Zr1  1  0.90574700  0.50547987  0.50392290  1
  Zr  Zr2  1  0.11185287  0.69244198  0.49454328  1
  Zr  Zr3  1  0.90100961  0.09097329  0.88639488  1
  Zr  Zr4  1  0.10923388  0.89553522  0.30243518  1
  Zr  Zr5  1  0.49586505  0.90023732  0.50100489  1
  Zr  Zr6  1  0.70542459  0.30169406  0.90070608  1
  Zr  Zr7  1  0.30411019  0.89847278  0.10314162  1
  Zr  Zr8  1  0.29150751  0.09498320  0.70108964  1
  Zr  Zr9  1  0.70724369  0.31406444  0.29995407  1
  Zr  Zr10  1  0.29909687  0.50418331  0.49472452  1
  Zr  Zr11  1  0.69738708  0.09705886  0.69988152  1
  Zr  Zr12  1  0.11310226  0.90091961  0.69632146  1
  Zr  Zr13  1  0.49065306  0.29745203  0.89324840  1
  Zr  Zr14  1  0.49199936  0.50045016  0.90372524  1
  Zr  Zr15  1  0.29856614  0.30158234  0.11818813  1
  Zr  Zr16  1  0.10376199  0.30734100  0.89786882  1
  Zr  Zr17  1  0.09220681  0.09815012  0.70195627  1
  Zr  Zr18  1  0.29760670  0.70479106  0.70047655  1
  Zr  Zr19  1  0.50432025  0.09601967  0.90071196  1
  Zr  Zr20  1  0.50294886  0.49998753  0.69559462  1
  Zr  Zr21  1  0.69367374  0.50339451  0.70081684  1
  Zr  Zr22  1  0.29445175  0.69724102  0.30862141  1
  Zr  Zr23  1  0.69960872  0.10001679  0.89211460  1
  Zr  Zr24  1  0.89777789  0.30633237  0.49356856  1
  Zr  Zr25  1  0.49917210  0.31317018  0.49750663  1
  Zr  Zr26  1  0.29839539  0.29711954  0.70172017  1
  Zr  Zr27  1  0.90248671  0.69609890  0.70015391  1
  Zr  Zr28  1  0.90843818  0.10463002  0.08486991  1
  Zr  Zr29  1  0.30130410  0.89512016  0.51111186  1
  Zr  Zr30  1  0.90938408  0.49219249  0.89618902  1
  Zr  Zr31  1  0.10792673  0.29850492  0.69948982  1
  Zr  Zr32  1  0.10482714  0.90055631  0.50049330  1
  Zr  Zr33  1  0.30512002  0.10237266  0.48958361  1
  Zr  Zr34  1  0.30132067  0.69667015  0.89759617  1
  Zr  Zr35  1  0.70068731  0.89178319  0.70250634  1
  Zr  Zr36  1  0.30004072  0.89020125  0.89252633  1
  Zr  Zr37  1  0.50289821  0.69091087  0.70234454  1
  Zr  Zr38  1  0.50383580  0.88414004  0.30279769  1
  Zr  Zr39  1  0.49198662  0.90232234  0.69968917  1
  Zr  Zr40  1  0.49073763  0.09708134  0.09776155  1
  Zr  Zr41  1  0.30550472  0.89414682  0.30142794  1
  Zr  Zr42  1  0.50081967  0.10024039  0.69947547  1
  Zr  Zr43  1  0.08988290  0.10622689  0.90577063  1
  Zr  Zr44  1  0.48715642  0.50416990  0.10284467  1
  Zr  Zr45  1  0.89738977  0.89033025  0.10057478  1
  Zr  Zr46  1  0.30195390  0.11163158  0.28868954  1
  Zr  Zr47  1  0.90282664  0.29447076  0.91066281  1
  Zr  Zr48  1  0.10499726  0.10305681  0.10415163  1
  Zr  Zr49  1  0.90137938  0.89424983  0.71105776  1
  Sc  Sc50  1  0.09789316  0.09206899  0.50430936  1
  Sc  Sc51  1  0.69014067  0.89442023  0.89384513  1
  Sc  Sc52  1  0.30783347  0.10628875  0.89799129  1
  Sc  Sc53  1  0.68973368  0.50281941  0.49375395  1
  Sc  Sc54  1  0.09360090  0.89362960  0.89705990  1
  Sc  Sc55  1  0.89880448  0.49251586  0.30372022  1
  Sc  Sc56  1  0.30366619  0.50762558  0.70158995  1
  Sc  Sc57  1  0.10526712  0.69681967  0.90012433  1
  Sc  Sc58  1  0.69864457  0.70010091  0.70446561  1
  Sc  Sc59  1  0.11073416  0.09800049  0.30642902  1
  Sc  Sc60  1  0.10710027  0.31136646  0.50543079  1
  Sc  Sc61  1  0.69974295  0.50205954  0.90861063  1
  Sc  Sc62  1  0.09740849  0.50179862  0.50448799  1
  Sc  Sc63  1  0.69676519  0.30293088  0.49508141  1
  Sc  Sc64  1  0.10247990  0.69388230  0.70731417  1
  Sc  Sc65  1  0.90406970  0.10396263  0.50484862  1
  Sc  Sc66  1  0.50152796  0.09699619  0.50265800  1
  Sc  Sc67  1  0.68710147  0.49405916  0.10082224  1
  Sc  Sc68  1  0.49339310  0.30427059  0.30074977  1
  Sc  Sc69  1  0.90650691  0.90433695  0.50432240  1
  Sc  Sc70  1  0.89986599  0.89599856  0.29534937  1
  Sc  Sc71  1  0.30125762  0.69880253  0.09819125  1
  Sc  Sc72  1  0.49721076  0.70140394  0.09889247  1
  Sc  Sc73  1  0.69526098  0.09298331  0.08817333  1
  Sc  Sc74  1  0.49676980  0.69785333  0.30168641  1
  Sc  Sc75  1  0.69616506  0.89414810  0.50478336  1
  Sc  Sc76  1  0.70252061  0.11448717  0.31003758  1
  Sc  Sc77  1  0.90143348  0.31298468  0.09923527  1
  Sc  Sc78  1  0.69763589  0.69260207  0.49452898  1
  Sc  Sc79  1  0.68822330  0.70224575  0.29716250  1
  Sc  Sc80  1  0.89461684  0.69007775  0.29969237  1
  Sc  Sc81  1  0.90057358  0.10283615  0.30650089  1
  Sc  Sc82  1  0.29697587  0.30293571  0.30938108  1
  Sc  Sc83  1  0.69747061  0.10907113  0.50470990  1
  Sc  Sc84  1  0.50103918  0.50662645  0.50056043  1
  Sc  Sc85  1  0.90499314  0.69146596  0.09620299  1
  Sc  Sc86  1  0.49957620  0.70131578  0.89988653  1
  Sc  Sc87  1  0.91162450  0.70146151  0.89670041  1
  Sc  Sc88  1  0.90341970  0.29826437  0.69804098  1
  Sc  Sc89  1  0.69728792  0.29421952  0.69928006  1
  Sc  Sc90  1  0.49080121  0.10806126  0.30509742  1
  Sc  Sc91  1  0.49633530  0.30475636  0.69970283  1
  Sc  Sc92  1  0.49463666  0.31135681  0.10110787  1
  Sc  Sc93  1  0.91099294  0.49901338  0.09976018  1
  Sc  Sc94  1  0.50347008  0.50631459  0.29960257  1
  Sc  Sc95  1  0.10082562  0.31586260  0.10435406  1
  Sc  Sc96  1  0.89751548  0.68847038  0.49932731  1
  Sc  Sc97  1  0.69525180  0.89212987  0.10109352  1
  Sc  Sc98  1  0.09983442  0.50544175  0.29696361  1
  Sc  Sc99  1  0.49769038  0.89871998  0.09291437  1
  Nb  Nb100  1  0.70627173  0.69498994  0.09804657  1
  Nb  Nb101  1  0.10754322  0.50570222  0.10037926  1
  Nb  Nb102  1  0.10135653  0.69905697  0.30266281  1
  Nb  Nb103  1  0.29818928  0.89968052  0.69945412  1
  Nb  Nb104  1  0.69866540  0.50719455  0.29599370  1
  Nb  Nb105  1  0.29348733  0.50043351  0.10561233  1
  Nb  Nb106  1  0.08288499  0.50082225  0.70482673  1
  Nb  Nb107  1  0.89601156  0.89467687  0.89646391  1
  Nb  Nb108  1  0.69952513  0.69612695  0.89852339  1
  Nb  Nb109  1  0.30098292  0.30441447  0.50257871  1
  Nb  Nb110  1  0.70412276  0.89572097  0.29553873  1
  Nb  Nb111  1  0.09786513  0.30299554  0.29600354  1
  Nb  Nb112  1  0.49765987  0.70092742  0.49361751  1
  Nb  Nb113  1  0.29974535  0.10181830  0.10121793  1
  Nb  Nb114  1  0.10226052  0.89706479  0.10220318  1
  Nb  Nb115  1  0.30473292  0.69345830  0.50239078  1
  Nb  Nb116  1  0.70045045  0.29884142  0.10138676  1
  Nb  Nb117  1  0.09984893  0.69431427  0.10811722  1
  Nb  Nb118  1  0.49765904  0.89392851  0.90005802  1
  Nb  Nb119  1  0.89993658  0.09112212  0.69795345  1
  Nb  Nb120  1  0.90361016  0.50425236  0.69631205  1
  Nb  Nb121  1  0.30149314  0.50346319  0.29141320  1
  Nb  Nb122  1  0.89923390  0.30333273  0.29653449  1
  Nb  Nb123  1  0.10854318  0.49835331  0.89723910  1
  Nb  Nb124  1  0.29409570  0.50327055  0.90546380  1
  Nb  Nb125  1  0.00149785  -0.00201429  0.19694704  1
  Nb  Nb126  1  0.80077662  0.20194651  0.19564530  1
  Nb  Nb127  1  0.79911502  0.00693316  0.19831801  1
  Nb  Nb128  1  0.79465412  -0.00481259  0.39949329  1
  Nb  Nb129  1  0.80079584  0.00020389  0.60453216  1
  Nb  Nb130  1  0.20460016  0.20024378  0.00600583  1
  Nb  Nb131  1  0.60474169  0.20135167  0.19356746  1
  Nb  Nb132  1  0.39402864  0.20557148  0.59568175  1
  Nb  Nb133  1  0.80253785  0.40861323  0.60180836  1
  Nb  Nb134  1  0.79841535  0.79500433  -0.00521005  1
  Nb  Nb135  1  0.60428562  0.00361175  0.20881616  1
  Nb  Nb136  1  0.80306253  -0.01036594  -0.00522545  1
  Nb  Nb137  1  0.59880487  0.20487963  0.00211095  1
  Nb  Nb138  1  0.00609838  0.79575595  0.59637389  1
  Nb  Nb139  1  -0.00177283  0.20346260  0.20500360  1
  Nb  Nb140  1  0.60592961  -0.00537416  0.39348230  1
  Nb  Nb141  1  0.80126854  0.80293347  0.39665588  1
  Nb  Nb142  1  0.80469612  0.59551387  0.80189316  1
  Nb  Nb143  1  0.59155607  0.79590743  0.59905143  1
  Nb  Nb144  1  0.00147773  0.79496656  0.39877944  1
  Nb  Nb145  1  0.79164015  0.59525684  0.19652513  1
  Nb  Nb146  1  0.00277359  0.21111728  0.39448058  1
  Nb  Nb147  1  0.59768554  0.40201084  0.80396915  1
  Nb  Nb148  1  0.20169276  0.00088203  0.00510778  1
  Nb  Nb149  1  0.00916421  0.79526530  0.20170379  1
  Pd  Pd150  1  0.19755304  0.80072644  0.00123994  1
  Pd  Pd151  1  0.19463532  0.00397433  0.81469145  1
  Pd  Pd152  1  -0.00318017  0.20652437  0.79692156  1
  Pd  Pd153  1  0.79545421  0.41222670  0.40788160  1
  Pd  Pd154  1  0.20180067  0.41331384  0.60768009  1
  Pd  Pd155  1  0.00708347  0.40214791  0.39898875  1
  Pd  Pd156  1  0.79384748  0.19346016  0.00261124  1
  Pd  Pd157  1  0.39437527  0.40209675  0.60177334  1
  Pd  Pd158  1  0.59268730  0.60362974  0.00314695  1
  Pd  Pd159  1  0.40418238  0.79056544  0.60352706  1
  Pd  Pd160  1  -0.00180875  0.39118425  0.79638258  1
  Pd  Pd161  1  0.20254520  0.79042959  0.19678585  1
  Pd  Pd162  1  0.79560901  0.40465930  0.79267396  1
  Pd  Pd163  1  0.00363252  0.20689819  0.59133564  1
  Pd  Pd164  1  0.19579455  0.59355876  0.60889428  1
  Pd  Pd165  1  0.60426564  0.79423203  0.00090115  1
  Pd  Pd166  1  0.59636134  0.79708669  0.19200402  1
  Pd  Pd167  1  0.39908513  0.59866013  0.80168589  1
  Pd  Pd168  1  -0.00591848  -0.00102134  0.39281056  1
  Pd  Pd169  1  0.20621516  0.39678642  0.00539401  1
  Pd  Pd170  1  0.39844767  0.00004637  0.80443422  1
  Pd  Pd171  1  0.20144039  0.19448549  0.58988230  1
  Pd  Pd172  1  0.01013702  0.59444947  -0.00641681  1
  Pd  Pd173  1  0.20008704  0.60368594  0.00284664  1
  Pd  Pd174  1  0.80488286  0.59819314  -0.00098413  1
  Pd  Pd175  1  0.59567756  0.39372916  -0.00520937  1
  Pd  Pd176  1  -0.00601022  0.59843995  0.20621704  1
  Pd  Pd177  1  0.80073539  0.41002158  0.00826986  1
  Pd  Pd178  1  0.20082861  -0.00148662  0.19892191  1
  Pd  Pd179  1  0.19163865  0.20537509  0.40600400  1
  Pd  Pd180  1  0.38719071  0.39904973  0.00275177  1
  Pd  Pd181  1  0.19639079  0.40716415  0.39467100  1
  Pd  Pd182  1  0.80443075  0.80070467  0.58919907  1
  Pd  Pd183  1  0.39684116  0.20902097  0.00671786  1
  Pd  Pd184  1  0.80209533  0.20115691  0.60010347  1
  Pd  Pd185  1  0.39989260  0.41010263  0.39418778  1
  Pd  Pd186  1  0.21045806  -0.00095608  0.40001272  1
  Pd  Pd187  1  0.40969946  -0.00394284  0.20776807  1
  Pd  Pd188  1  0.79086544  0.59715586  0.60408786  1
  Pd  Pd189  1  0.39153434  -0.00680064  -0.00805141  1
  Pd  Pd190  1  0.39670685  0.60765787  0.20204017  1
  Pd  Pd191  1  0.20223441  0.41271720  0.78801734  1
  Pd  Pd192  1  0.00169013  -0.01134820  0.00156213  1
  Pd  Pd193  1  0.40495074  -0.00271357  0.39289246  1
  Pd  Pd194  1  0.80687078  0.20191511  0.79336545  1
  Pd  Pd195  1  0.59389414  0.39798845  0.20479275  1
  Pd  Pd196  1  0.59292165  0.20217579  0.39623603  1
  Pd  Pd197  1  0.59769703  -0.00835360  0.79963368  1
  Pd  Pd198  1  0.00032401  0.79480000  0.00414430  1
  Pd  Pd199  1  0.58888970  0.20846022  0.59718919  1
  Rh  Rh200  1  0.20471855  0.80000104  0.40827391  1
  Rh  Rh201  1  0.20158752  0.59062806  0.39542350  1
  Rh  Rh202  1  0.01285361  0.21849983  0.00946075  1
  Rh  Rh203  1  0.60507289  0.59190689  0.81191573  1
  Rh  Rh204  1  0.79929675  0.78489977  0.81062105  1
  Rh  Rh205  1  0.40291461  0.79776963  0.79737843  1
  Rh  Rh206  1  0.40075997  0.79855225  -0.00288118  1
  Rh  Rh207  1  0.59708569  0.60967984  0.59234534  1
  Rh  Rh208  1  0.39388214  0.59926129  0.00147051  1
  Rh  Rh209  1  0.59578401  0.60196982  0.39625098  1
  Rh  Rh210  1  0.19897166  0.40882906  0.20844393  1
  Rh  Rh211  1  0.60849364  -0.00724280  0.59495040  1
  Rh  Rh212  1  0.19852674  0.79749783  0.79929828  1
  Rh  Rh213  1  0.79502520  -0.00402753  0.79844097  1
  Rh  Rh214  1  0.39929745  0.19380611  0.78759680  1
  Rh  Rh215  1  0.20532252  0.00540395  0.59495316  1
  Rh  Rh216  1  0.00248534  0.60164283  0.39837230  1
  Rh  Rh217  1  0.40001552  0.41084812  0.79855293  1
  Rh  Rh218  1  0.39891445  0.79522267  0.19836460  1
  Rh  Rh219  1  0.19577965  0.19318359  0.81023506  1
  Rh  Rh220  1  0.40186447  0.21005804  0.40912468  1
  Rh  Rh221  1  -0.00527879  -0.00991865  0.60937036  1
  Rh  Rh222  1  0.19855081  0.59403731  0.79900797  1
  Rh  Rh223  1  0.80955661  0.19847554  0.40093198  1
  Rh  Rh224  1  0.39821782  0.40502317  0.20759659  1
  Rh  Rh225  1  0.59135955  0.79823680  0.79521904  1
  Rh  Rh226  1  0.00832597  0.60848964  0.59819385  1
  Rh  Rh227  1  0.59732926  0.20954914  0.80612418  1
  Rh  Rh228  1  -0.00004497  0.59823222  0.80679387  1
  Rh  Rh229  1  0.19359767  0.20571866  0.20011784  1
  Rh  Rh230  1  0.61014924  0.39656425  0.60703593  1
  Rh  Rh231  1  0.80547125  0.78463461  0.19767076  1
  Rh  Rh232  1  -0.00335960  0.39794207  0.60442351  1
  Rh  Rh233  1  0.19839435  0.79178251  0.59854733  1
  Rh  Rh234  1  0.39199930  0.79411895  0.40403295  1
  Rh  Rh235  1  0.39221593  0.01159600  0.60166597  1
  Rh  Rh236  1  0.00619269  -0.00801914  0.79683309  1
  Rh  Rh237  1  0.60244264  0.60217037  0.19366406  1
  Rh  Rh238  1  0.60158219  -0.00172940  -0.00374663  1
  Rh  Rh239  1  0.40167797  0.60107036  0.59517476  1
  Rh  Rh240  1  0.60592778  0.79992170  0.40831945  1
  Rh  Rh241  1  0.79208542  0.60275454  0.38815789  1
  Rh  Rh242  1  0.00838567  0.79941869  0.79273973  1
  Rh  Rh243  1  0.40007849  0.59795689  0.40021616  1
  Rh  Rh244  1  0.59874890  0.40562618  0.39321957  1
  Rh  Rh245  1  0.00375264  0.40392028  0.20131637  1
  Rh  Rh246  1  0.00849647  0.40593685  -0.00057819  1
  Rh  Rh247  1  0.40860011  0.20471349  0.19715065  1
  Rh  Rh248  1  0.79953272  0.40581901  0.19415758  1
  Rh  Rh249  1  0.20204534  0.60078832  0.20048303  1
