# generated using pymatgen
data_ZrScNbPdRh
_symmetry_space_group_name_H-M   'P 1'
_cell_length_a   16.55945716
_cell_length_b   16.56042291
_cell_length_c   16.56039960
_cell_angle_alpha   89.99146838
_cell_angle_beta   90.00454469
_cell_angle_gamma   89.99142539
_symmetry_Int_Tables_number   1
_chemical_formula_structural   ZrScNbPdRh
_chemical_formula_sum   'Zr50 Sc50 Nb50 Pd50 Rh50'
_cell_volume   4541.38499309
_cell_formula_units_Z   50
loop_
 _symmetry_equiv_pos_site_id
 _symmetry_equiv_pos_as_xyz
  1  'x, y, z'
loop_
 _atom_site_type_symbol
 _atom_site_label
 _atom_site_symmetry_multiplicity
 _atom_site_fract_x
 _atom_site_fract_y
 _atom_site_fract_z
 _atom_site_occupancy
  Zr  Zr0  1  0.29451477  0.29711756  0.10606400  1
  Zr  Zr1  1  0.29912494  0.10059597  0.50807820  1
  Zr  Zr2  1  0.70204344  0.90570143  0.70069376  1
  Zr  Zr3  1  0.90615707  0.30472498  0.30894846  1
  Zr  Zr4  1  0.51184837  0.10116911  0.30201682  1
  Zr  Zr5  1  0.89279301  0.49499575  0.89911922  1
  Zr  Zr6  1  0.70163199  0.49980075  0.69867252  1
  Zr  Zr7  1  0.31328312  0.89562407  0.09724760  1
  Zr  Zr8  1  0.10639324  0.70097472  0.69991297  1
  Zr  Zr9  1  0.10207365  0.90142966  0.31272556  1
  Zr  Zr10  1  0.30204681  0.30451857  0.29409325  1
  Zr  Zr11  1  0.10010124  0.69698608  0.08664505  1
  Zr  Zr12  1  0.89805003  0.49237926  0.09681807  1
  Zr  Zr13  1  0.49884128  0.90425633  0.29329521  1
  Zr  Zr14  1  0.09577483  0.89484479  0.70336327  1
  Zr  Zr15  1  0.90748525  0.50647538  0.29791179  1
  Zr  Zr16  1  0.09188797  0.49934404  0.09723873  1
  Zr  Zr17  1  0.89662637  0.10115825  0.29471717  1
  Zr  Zr18  1  0.89046634  0.29831674  0.90122658  1
  Zr  Zr19  1  0.29158090  0.29991093  0.50102785  1
  Zr  Zr20  1  0.69709092  0.50129604  0.09997296  1
  Zr  Zr21  1  0.09814225  0.11276261  0.09805324  1
  Zr  Zr22  1  0.10869951  0.49692232  0.49406062  1
  Zr  Zr23  1  0.89282379  0.49324634  0.49415295  1
  Zr  Zr24  1  0.49912550  0.69886925  0.30246605  1
  Zr  Zr25  1  0.90198706  0.09635877  0.71142431  1
  Zr  Zr26  1  0.10370229  0.30387915  0.70478140  1
  Zr  Zr27  1  0.30287207  0.89945279  0.29779295  1
  Zr  Zr28  1  0.49406832  0.50191357  0.09621574  1
  Zr  Zr29  1  0.70107215  0.10883691  0.91085306  1
  Zr  Zr30  1  0.09357914  0.30019687  0.90410695  1
  Zr  Zr31  1  0.50262831  0.29708569  0.30032334  1
  Zr  Zr32  1  0.10564682  0.09404311  0.50173368  1
  Zr  Zr33  1  0.30208848  0.49893512  0.10328654  1
  Zr  Zr34  1  0.70570282  0.49720712  0.29753090  1
  Zr  Zr35  1  0.30130125  0.50303598  0.50139746  1
  Zr  Zr36  1  0.09371379  0.70977146  0.89321643  1
  Zr  Zr37  1  0.08993900  0.90425197  0.50340929  1
  Zr  Zr38  1  0.50859992  0.29273378  0.50346337  1
  Zr  Zr39  1  0.89937895  0.90162530  0.31462417  1
  Zr  Zr40  1  0.49155602  0.49350424  0.89746471  1
  Zr  Zr41  1  0.50240275  0.10429828  0.89612654  1
  Zr  Zr42  1  0.10679671  0.51008557  0.89650466  1
  Zr  Zr43  1  0.70165578  0.90478583  0.31399963  1
  Zr  Zr44  1  0.50848917  0.50266508  0.69790999  1
  Zr  Zr45  1  0.30498115  0.69826002  0.50662082  1
  Zr  Zr46  1  0.50901580  0.90072845  0.70990462  1
  Zr  Zr47  1  0.70351161  0.69583073  0.29825081  1
  Zr  Zr48  1  0.68915315  0.29824808  0.29878573  1
  Zr  Zr49  1  0.09322129  0.29453806  0.49287720  1
  Sc  Sc50  1  0.50241465  0.29911921  0.10908948  1
  Sc  Sc51  1  0.89800814  0.90241061  0.89797007  1
  Sc  Sc52  1  0.50292232  0.69969636  0.90020437  1
  Sc  Sc53  1  0.10566993  0.50574412  0.69825593  1
  Sc  Sc54  1  0.49744553  0.10591063  0.50292351  1
  Sc  Sc55  1  0.30362585  0.89774996  0.90320131  1
  Sc  Sc56  1  0.49127032  0.69258381  0.09888289  1
  Sc  Sc57  1  0.90419632  0.29770122  0.09532584  1
  Sc  Sc58  1  0.89560944  0.69668209  0.08762571  1
  Sc  Sc59  1  0.09952250  0.09671781  0.70155923  1
  Sc  Sc60  1  0.09743972  0.29818160  0.10369704  1
  Sc  Sc61  1  0.88994163  0.29393438  0.69862151  1
  Sc  Sc62  1  0.29047804  0.49561580  0.69936562  1
  Sc  Sc63  1  0.29844598  0.49767284  0.30131695  1
  Sc  Sc64  1  0.69363732  0.09748713  0.50425792  1
  Sc  Sc65  1  0.69289699  0.69248695  0.70960405  1
  Sc  Sc66  1  0.49942211  0.50124095  0.29498968  1
  Sc  Sc67  1  0.09166838  0.10436020  0.30765684  1
  Sc  Sc68  1  0.88957498  0.50470362  0.69796769  1
  Sc  Sc69  1  0.91585927  0.70035393  0.69723079  1
  Sc  Sc70  1  0.30516220  0.69499801  0.30138113  1
  Sc  Sc71  1  0.28912223  0.69817955  0.90486380  1
  Sc  Sc72  1  0.29896159  0.29920532  0.70202201  1
  Sc  Sc73  1  0.70002330  0.69390433  0.49133496  1
  Sc  Sc74  1  0.50631402  0.09072426  0.09815241  1
  Sc  Sc75  1  0.30706015  0.30850580  0.88946616  1
  Sc  Sc76  1  0.89234213  0.90068473  0.09414538  1
  Sc  Sc77  1  0.09705909  0.10642344  0.88950922  1
  Sc  Sc78  1  0.30092075  0.50182125  0.89659348  1
  Sc  Sc79  1  0.70672262  0.90797978  0.09202785  1
  Sc  Sc80  1  0.90531402  0.69268343  0.49591711  1
  Sc  Sc81  1  0.70649180  0.10387695  0.10387344  1
  Sc  Sc82  1  0.69852996  0.29680328  0.10235354  1
  Sc  Sc83  1  0.30416012  0.09539886  0.89680216  1
  Sc  Sc84  1  0.28588486  0.90333078  0.49879275  1
  Sc  Sc85  1  0.49731868  0.69268409  0.50583748  1
  Sc  Sc86  1  0.91123728  0.10280390  0.50743074  1
  Sc  Sc87  1  0.70375783  0.50329182  0.89096397  1
  Sc  Sc88  1  0.50425902  0.90104963  0.49882306  1
  Sc  Sc89  1  0.69700077  0.09592276  0.70422820  1
  Sc  Sc90  1  0.50509874  0.50712455  0.50298711  1
  Sc  Sc91  1  0.29555041  0.10163277  0.70384066  1
  Sc  Sc92  1  0.09881033  0.89005695  0.09263618  1
  Sc  Sc93  1  0.30877700  0.09953847  0.30254653  1
  Sc  Sc94  1  0.69784244  0.30315384  0.69740872  1
  Sc  Sc95  1  0.70399411  0.49639455  0.50323202  1
  Sc  Sc96  1  0.10269222  0.30489465  0.30080255  1
  Sc  Sc97  1  0.69533456  0.90533336  0.89551469  1
  Sc  Sc98  1  0.49706815  0.90675951  0.90500003  1
  Sc  Sc99  1  0.30598578  0.70042613  0.09536553  1
  Nb  Nb100  1  0.70843768  0.30153697  0.49815590  1
  Nb  Nb101  1  0.09818429  0.50424162  0.29747523  1
  Nb  Nb102  1  0.49411668  0.10513501  0.70138730  1
  Nb  Nb103  1  0.08894491  0.69443164  0.30154484  1
  Nb  Nb104  1  0.50068393  0.29655581  0.89618881  1
  Nb  Nb105  1  0.29511660  0.10096043  0.09482542  1
  Nb  Nb106  1  0.10280805  0.89831564  0.90317978  1
  Nb  Nb107  1  0.70610084  0.70600567  0.90248630  1
  Nb  Nb108  1  0.70388622  0.10298983  0.30210081  1
  Nb  Nb109  1  0.30243320  0.89229141  0.69129990  1
  Nb  Nb110  1  0.90246747  0.89862940  0.69486112  1
  Nb  Nb111  1  0.49919119  0.70278210  0.69327612  1
  Nb  Nb112  1  0.90051126  0.10630966  0.90590962  1
  Nb  Nb113  1  0.30735657  0.70420603  0.68920384  1
  Nb  Nb114  1  0.89017821  0.70255051  0.89338758  1
  Nb  Nb115  1  0.49251899  0.29486644  0.70814213  1
  Nb  Nb116  1  0.90214788  0.09864109  0.09841927  1
  Nb  Nb117  1  0.70658274  0.89607425  0.50344521  1
  Nb  Nb118  1  0.90031099  0.90059837  0.51002569  1
  Nb  Nb119  1  0.69623246  0.29985502  0.90725104  1
  Nb  Nb120  1  0.69957072  0.70412642  0.09640425  1
  Nb  Nb121  1  0.89579927  0.30311853  0.50033936  1
  Nb  Nb122  1  0.90416123  0.69642555  0.29737147  1
  Nb  Nb123  1  0.10179268  0.69600377  0.49783532  1
  Nb  Nb124  1  0.49836902  0.89001767  0.10010151  1
  Nb  Nb125  1  -0.00268802  0.39804637  0.59965281  1
  Nb  Nb126  1  0.40035601  0.79513631  0.79076882  1
  Nb  Nb127  1  0.19982292  0.40001920  0.00205002  1
  Nb  Nb128  1  0.19272532  0.79616856  0.20394211  1
  Nb  Nb129  1  0.80027961  0.80428826  0.60091466  1
  Nb  Nb130  1  0.40250998  0.20177701  -0.00095117  1
  Nb  Nb131  1  0.60278405  0.79774213  0.00559606  1
  Nb  Nb132  1  0.60532093  0.80131193  0.19466460  1
  Nb  Nb133  1  0.60781549  0.80185799  0.60099685  1
  Nb  Nb134  1  0.79985912  0.79693924  0.20456840  1
  Nb  Nb135  1  0.19538672  0.00151021  0.00236271  1
  Nb  Nb136  1  0.79713006  0.20356803  0.40274240  1
  Nb  Nb137  1  0.40116470  -0.00196229  0.60894795  1
  Nb  Nb138  1  0.80166421  0.79996571  0.79392318  1
  Nb  Nb139  1  0.40006131  0.80075219  0.40245606  1
  Nb  Nb140  1  0.19674752  -0.00221280  0.19349707  1
  Nb  Nb141  1  0.40222063  0.39605749  0.40727035  1
  Nb  Nb142  1  0.39917164  0.60830888  0.78909207  1
  Nb  Nb143  1  -0.00317276  0.79730257  0.20432416  1
  Nb  Nb144  1  0.00254728  -0.00454683  0.19481823  1
  Nb  Nb145  1  0.00271073  0.00531245  -0.00022561  1
  Nb  Nb146  1  -0.00329414  0.40120398  0.79690013  1
  Nb  Nb147  1  0.18942737  0.60386700  0.20125315  1
  Nb  Nb148  1  0.40564044  0.39384324  0.59922647  1
  Nb  Nb149  1  0.59678054  0.39588496  -0.00697321  1
  Pd  Pd150  1  0.19518502  0.20084144  0.60606611  1
  Pd  Pd151  1  0.79703506  0.61330550  0.60188558  1
  Pd  Pd152  1  0.39795827  0.00900647  0.19325483  1
  Pd  Pd153  1  0.60193663  0.59905991  -0.00843752  1
  Pd  Pd154  1  0.39465950  -0.00735066  0.79458934  1
  Pd  Pd155  1  0.20333433  0.19516904  0.39220501  1
  Pd  Pd156  1  0.59208844  -0.00122232  0.59808178  1
  Pd  Pd157  1  0.79592273  0.19163944  0.59621775  1
  Pd  Pd158  1  -0.00877308  0.60044562  -0.01129654  1
  Pd  Pd159  1  0.80640492  0.79167753  0.40520517  1
  Pd  Pd160  1  0.39848492  0.20399869  0.40148708  1
  Pd  Pd161  1  0.79004080  0.20162249  0.80002894  1
  Pd  Pd162  1  0.20549894  0.78890014  0.39815558  1
  Pd  Pd163  1  0.60481482  0.20032729  0.60759811  1
  Pd  Pd164  1  -0.01210103  0.80534340  -0.00224356  1
  Pd  Pd165  1  0.80513478  0.01381513  0.41531350  1
  Pd  Pd166  1  -0.00289791  0.79558223  0.40536538  1
  Pd  Pd167  1  0.59829779  0.39582339  0.59949369  1
  Pd  Pd168  1  0.60038919  -0.00441298  0.00018630  1
  Pd  Pd169  1  0.40580032  0.18952019  0.19144533  1
  Pd  Pd170  1  0.59599120  0.60427791  0.19774019  1
  Pd  Pd171  1  0.00510552  0.59005032  0.59336226  1
  Pd  Pd172  1  0.60381001  0.39579002  0.80335175  1
  Pd  Pd173  1  0.80101482  -0.00111131  0.80803373  1
  Pd  Pd174  1  0.20202015  0.60564871  0.39335163  1
  Pd  Pd175  1  0.59654092  0.40693927  0.40405710  1
  Pd  Pd176  1  0.21021993  0.20309941  -0.01356118  1
  Pd  Pd177  1  0.39850850  0.38836048  0.00391237  1
  Pd  Pd178  1  0.20318685  -0.00874085  0.80215033  1
  Pd  Pd179  1  0.80680014  0.60463137  0.19330682  1
  Pd  Pd180  1  -0.00606465  0.59392942  0.80059758  1
  Pd  Pd181  1  0.20516828  0.20236326  0.80557142  1
  Pd  Pd182  1  0.59348876  0.79854596  0.40343951  1
  Pd  Pd183  1  0.39853684  -0.00492742  0.41235463  1
  Pd  Pd184  1  0.80199198  -0.00789904  0.20060718  1
  Pd  Pd185  1  0.21013185  0.80177330  0.80122687  1
  Pd  Pd186  1  0.00104638  -0.00493035  0.80749045  1
  Pd  Pd187  1  0.59491023  0.60323168  0.80735996  1
  Pd  Pd188  1  0.00225785  0.39446413  0.20123266  1
  Pd  Pd189  1  0.79676033  0.59585096  -0.00218885  1
  Pd  Pd190  1  0.60189834  0.59221388  0.40000881  1
  Pd  Pd191  1  0.60612073  0.20028301  0.79433303  1
  Pd  Pd192  1  0.19724189  0.19077646  0.21276762  1
  Pd  Pd193  1  0.59962083  0.00320706  0.40740189  1
  Pd  Pd194  1  0.80373605  0.20989758  0.20300663  1
  Pd  Pd195  1  0.19102339  0.80103225  0.59281939  1
  Pd  Pd196  1  0.61078707  -0.00490010  0.19584526  1
  Pd  Pd197  1  0.80387498  0.00581057  0.59692641  1
  Pd  Pd198  1  0.80156643  0.39181084  0.19971404  1
  Pd  Pd199  1  0.00063785  0.20404405  0.60853153  1
  Rh  Rh200  1  0.80171595  0.20143872  0.00733381  1
  Rh  Rh201  1  0.20370829  0.01009271  0.39156077  1
  Rh  Rh202  1  0.41363326  0.81323446  0.59782621  1
  Rh  Rh203  1  -0.00024779  0.60570855  0.19130359  1
  Rh  Rh204  1  0.80360246  0.39835071  0.60431389  1
  Rh  Rh205  1  0.19178025  0.39952726  0.80973854  1
  Rh  Rh206  1  0.00094351  0.00290043  0.60727591  1
  Rh  Rh207  1  0.39755843  0.58544970  0.60833598  1
  Rh  Rh208  1  0.60138702  0.79549313  0.80433883  1
  Rh  Rh209  1  0.40875124  0.79439894  -0.01339918  1
  Rh  Rh210  1  0.79897394  0.39385473  0.79793096  1
  Rh  Rh211  1  0.19235919  0.41078998  0.19460448  1
  Rh  Rh212  1  -0.00814511  0.19708656  0.40125427  1
  Rh  Rh213  1  0.40180793  0.40962828  0.78470778  1
  Rh  Rh214  1  0.39169420  0.59852402  0.20200764  1
  Rh  Rh215  1  0.79518773  0.80514751  -0.00674030  1
  Rh  Rh216  1  0.40567151  0.40181873  0.20872472  1
  Rh  Rh217  1  -0.00542372  0.20740019  0.79707084  1
  Rh  Rh218  1  0.40285930  0.79353599  0.20839992  1
  Rh  Rh219  1  0.39522307  0.60332633  -0.01249984  1
  Rh  Rh220  1  0.40197428  0.59776906  0.40039030  1
  Rh  Rh221  1  0.00441825  0.40253078  -0.00880183  1
  Rh  Rh222  1  0.00464615  0.40642679  0.40429884  1
  Rh  Rh223  1  0.39735853  0.19920047  0.60761738  1
  Rh  Rh224  1  0.19668600  0.39576270  0.59691983  1
  Rh  Rh225  1  0.59540240  0.40691894  0.19001123  1
  Rh  Rh226  1  0.20266895  -0.00385541  0.60979743  1
  Rh  Rh227  1  0.20658044  0.80793405  0.00388040  1
  Rh  Rh228  1  -0.00646091  0.00635078  0.40208803  1
  Rh  Rh229  1  0.79435049  0.39546120  0.39287647  1
  Rh  Rh230  1  0.80170784  0.59701779  0.39637749  1
  Rh  Rh231  1  0.60139960  0.19066410  0.19692267  1
  Rh  Rh232  1  -0.00810054  0.80576411  0.80346147  1
  Rh  Rh233  1  -0.00288714  0.19996357  0.20380872  1
  Rh  Rh234  1  0.00017017  0.79542098  0.59319838  1
  Rh  Rh235  1  0.80395792  0.60974756  0.79518600  1
  Rh  Rh236  1  0.21153765  0.61089188  0.79057108  1
  Rh  Rh237  1  0.80519773  0.00716610  -0.00624555  1
  Rh  Rh238  1  0.78675564  0.39779403  0.00300960  1
  Rh  Rh239  1  0.20579364  0.59003946  0.00935499  1
  Rh  Rh240  1  0.60118938  0.01097497  0.80605438  1
  Rh  Rh241  1  0.60910126  0.19479475  0.40365378  1
  Rh  Rh242  1  0.19878264  0.60411778  0.60063324  1
  Rh  Rh243  1  0.39583151  0.19760745  0.80411967  1
  Rh  Rh244  1  0.20292356  0.39972485  0.39416437  1
  Rh  Rh245  1  0.00008782  0.59451155  0.40673197  1
  Rh  Rh246  1  -0.00549589  0.19770641  -0.00141063  1
  Rh  Rh247  1  0.39677556  0.00870740  0.00502302  1
  Rh  Rh248  1  0.59161568  0.20756239  0.00519567  1
  Rh  Rh249  1  0.61045212  0.60855832  0.59650839  1
