# generated using pymatgen
data_ZrScNbPdRh
_symmetry_space_group_name_H-M   'P 1'
_cell_length_a   16.56036405
_cell_length_b   16.55749325
_cell_length_c   16.56318003
_cell_angle_alpha   89.96356354
_cell_angle_beta   89.99567354
_cell_angle_gamma   90.01140292
_symmetry_Int_Tables_number   1
_chemical_formula_structural   ZrScNbPdRh
_chemical_formula_sum   'Zr50 Sc50 Nb50 Pd50 Rh50'
_cell_volume   4541.59173446
_cell_formula_units_Z   50
loop_
 _symmetry_equiv_pos_site_id
 _symmetry_equiv_pos_as_xyz
  1  'x, y, z'
loop_
 _atom_site_type_symbol
 _atom_site_label
 _atom_site_symmetry_multiplicity
 _atom_site_fract_x
 _atom_site_fract_y
 _atom_site_fract_z
 _atom_site_occupancy
  Zr  Zr0  1  0.09472172  0.89892952  0.10050664  1
  Zr  Zr1  1  0.88606296  0.49598203  0.30831120  1
  Zr  Zr2  1  0.30516151  0.49847708  0.29639416  1
  Zr  Zr3  1  0.49197606  0.10720719  0.68901083  1
  Zr  Zr4  1  0.50414606  0.91405760  0.49668567  1
  Zr  Zr5  1  0.90011541  0.10110144  0.50403598  1
  Zr  Zr6  1  0.90047303  0.90135818  0.90159635  1
  Zr  Zr7  1  0.89337615  0.09189556  0.10776676  1
  Zr  Zr8  1  0.10346928  0.70529757  0.10215044  1
  Zr  Zr9  1  0.69593276  0.70401119  0.50013282  1
  Zr  Zr10  1  0.49116044  0.29690923  0.90136124  1
  Zr  Zr11  1  0.88944671  0.49732130  0.09509925  1
  Zr  Zr12  1  0.69671444  0.70348157  0.70077883  1
  Zr  Zr13  1  0.90339350  0.90246393  0.29590383  1
  Zr  Zr14  1  0.70424342  0.89730780  0.69463487  1
  Zr  Zr15  1  0.90003701  0.50041263  0.90511703  1
  Zr  Zr16  1  0.89724545  0.30730758  0.10495492  1
  Zr  Zr17  1  0.68791700  0.70012203  0.89649153  1
  Zr  Zr18  1  0.70583297  0.49703778  0.48758259  1
  Zr  Zr19  1  0.49992578  0.10481939  0.10010698  1
  Zr  Zr20  1  0.70357473  0.90184966  0.30717518  1
  Zr  Zr21  1  0.09466712  0.90448713  0.69891756  1
  Zr  Zr22  1  0.30560016  0.90124899  0.49070678  1
  Zr  Zr23  1  0.29801746  0.70265925  0.90367143  1
  Zr  Zr24  1  0.10742583  0.30043491  0.70690720  1
  Zr  Zr25  1  0.29939527  0.90761616  0.29320638  1
  Zr  Zr26  1  0.30002197  0.30658404  0.49418507  1
  Zr  Zr27  1  0.31442529  0.09832255  0.49477792  1
  Zr  Zr28  1  0.50013742  0.50929098  0.29686071  1
  Zr  Zr29  1  0.49528283  0.09811552  0.90628478  1
  Zr  Zr30  1  0.69650947  0.08843091  0.49238046  1
  Zr  Zr31  1  0.70498464  0.10714035  0.29571748  1
  Zr  Zr32  1  0.49453302  0.50174406  0.69850589  1
  Zr  Zr33  1  0.51339017  0.69234690  0.70279978  1
  Zr  Zr34  1  0.30178020  0.29767380  0.10318641  1
  Zr  Zr35  1  0.09651435  0.09960176  0.89611861  1
  Zr  Zr36  1  0.30629708  0.29717319  0.70303561  1
  Zr  Zr37  1  0.30629803  0.68729427  0.70413132  1
  Zr  Zr38  1  0.50818340  0.30095602  0.69938177  1
  Zr  Zr39  1  0.29420495  0.29888819  0.89359818  1
  Zr  Zr40  1  0.10138600  0.90480030  0.49546498  1
  Zr  Zr41  1  0.88949850  0.90392994  0.49963877  1
  Zr  Zr42  1  0.90605610  0.69400442  0.49312610  1
  Zr  Zr43  1  0.49540876  0.28652193  0.49468177  1
  Zr  Zr44  1  0.30179541  0.49824995  0.49241119  1
  Zr  Zr45  1  0.10036821  0.90183658  0.90631403  1
  Zr  Zr46  1  0.29597739  0.49412510  0.69353189  1
  Zr  Zr47  1  0.09539162  0.30175103  0.50252950  1
  Zr  Zr48  1  0.50173352  0.69966042  0.49079501  1
  Zr  Zr49  1  0.89845495  0.89440211  0.09772965  1
  Sc  Sc50  1  0.89886101  0.29305787  0.50215548  1
  Sc  Sc51  1  0.89981700  0.69712211  0.90706340  1
  Sc  Sc52  1  0.67925914  0.50446224  0.69643464  1
  Sc  Sc53  1  0.10289936  0.90046191  0.29208374  1
  Sc  Sc54  1  0.30990938  0.69840800  0.28959448  1
  Sc  Sc55  1  0.70235227  0.30381691  0.29776924  1
  Sc  Sc56  1  0.69377543  0.29763300  0.89718944  1
  Sc  Sc57  1  0.09606074  0.28671216  0.90604705  1
  Sc  Sc58  1  0.50562979  0.89525487  0.68972171  1
  Sc  Sc59  1  0.90656858  0.10204436  0.90133433  1
  Sc  Sc60  1  0.10144989  0.69511787  0.90494491  1
  Sc  Sc61  1  0.10735973  0.09590457  0.29855530  1
  Sc  Sc62  1  0.09905171  0.69813449  0.49785391  1
  Sc  Sc63  1  0.89753922  0.70386884  0.70481338  1
  Sc  Sc64  1  0.69848821  0.09911191  0.90611038  1
  Sc  Sc65  1  0.30523906  0.09864314  0.29447033  1
  Sc  Sc66  1  0.69404136  0.49163695  0.10165569  1
  Sc  Sc67  1  0.90054933  0.70948345  0.30413935  1
  Sc  Sc68  1  0.50654351  0.49810274  0.90713634  1
  Sc  Sc69  1  0.69033442  0.49747057  0.29614020  1
  Sc  Sc70  1  0.89201275  0.90738728  0.70237624  1
  Sc  Sc71  1  0.29759160  0.49999783  0.89254794  1
  Sc  Sc72  1  0.10530122  0.49808102  0.69609640  1
  Sc  Sc73  1  0.09796722  0.49918704  0.50845671  1
  Sc  Sc74  1  0.49946068  0.10383512  0.30137587  1
  Sc  Sc75  1  0.10786170  0.49056134  0.29575544  1
  Sc  Sc76  1  0.49990322  0.30008039  0.10077675  1
  Sc  Sc77  1  0.70549674  0.89741169  0.90151819  1
  Sc  Sc78  1  0.30029023  0.10704160  0.90655007  1
  Sc  Sc79  1  0.30190066  0.89683805  0.09843232  1
  Sc  Sc80  1  0.49953748  0.89830587  0.91320389  1
  Sc  Sc81  1  0.30197238  0.70217153  0.50896787  1
  Sc  Sc82  1  0.29524342  0.88156429  0.68920872  1
  Sc  Sc83  1  0.09881390  0.49904500  0.10203121  1
  Sc  Sc84  1  0.90023832  0.28858437  0.70001785  1
  Sc  Sc85  1  0.11379296  0.69923204  0.69443655  1
  Sc  Sc86  1  0.49841993  0.49775338  0.49328527  1
  Sc  Sc87  1  0.50599057  0.70939121  0.10102168  1
  Sc  Sc88  1  0.91400048  0.50074515  0.69504845  1
  Sc  Sc89  1  0.90224272  0.09582763  0.70310608  1
  Sc  Sc90  1  0.49506935  0.90302136  0.09661028  1
  Sc  Sc91  1  0.10112942  0.10215628  0.09060393  1
  Sc  Sc92  1  0.29822714  0.30538140  0.29879307  1
  Sc  Sc93  1  0.09184226  0.70750567  0.29966450  1
  Sc  Sc94  1  0.69432362  0.70797558  0.09641398  1
  Sc  Sc95  1  0.89983362  0.29758954  0.90806328  1
  Sc  Sc96  1  0.69843336  0.49931119  0.91378531  1
  Sc  Sc97  1  0.69242257  0.29718069  0.49807108  1
  Sc  Sc98  1  0.50323492  0.29648520  0.29736616  1
  Sc  Sc99  1  0.49705573  0.89456884  0.29635239  1
  Nb  Nb100  1  0.70146308  0.10033877  0.10386363  1
  Nb  Nb101  1  0.49919969  0.49981781  0.10133671  1
  Nb  Nb102  1  0.09952096  0.09732677  0.70077372  1
  Nb  Nb103  1  0.70168228  0.29505867  0.11042981  1
  Nb  Nb104  1  0.09952649  0.10111733  0.50020510  1
  Nb  Nb105  1  0.69938246  0.10781745  0.70623060  1
  Nb  Nb106  1  0.51442162  0.69788413  0.29805921  1
  Nb  Nb107  1  0.90120488  0.10846129  0.30588272  1
  Nb  Nb108  1  0.90103822  0.29663727  0.30248171  1
  Nb  Nb109  1  0.68317184  0.69781499  0.29597763  1
  Nb  Nb110  1  0.30538792  0.89998251  0.89700370  1
  Nb  Nb111  1  0.71234047  0.91386268  0.09926945  1
  Nb  Nb112  1  0.10177504  0.30018700  0.30073251  1
  Nb  Nb113  1  0.70188832  0.90533396  0.50222657  1
  Nb  Nb114  1  0.29878900  0.10196922  0.70269794  1
  Nb  Nb115  1  0.50180141  0.70251802  0.90929197  1
  Nb  Nb116  1  0.70122959  0.30066089  0.70167343  1
  Nb  Nb117  1  0.90145591  0.69903157  0.10430081  1
  Nb  Nb118  1  0.30057684  0.50320227  0.10599669  1
  Nb  Nb119  1  0.31189730  0.09930065  0.10363821  1
  Nb  Nb120  1  0.09962763  0.30193912  0.10919812  1
  Nb  Nb121  1  0.90146726  0.49686196  0.50127688  1
  Nb  Nb122  1  0.49937728  0.10144413  0.49252399  1
  Nb  Nb123  1  0.29596488  0.69293782  0.09755253  1
  Nb  Nb124  1  0.09533596  0.49411098  0.89938225  1
  Nb  Nb125  1  0.20723435  -0.00011759  0.79605568  1
  Nb  Nb126  1  0.79931072  0.40351444  0.79285152  1
  Nb  Nb127  1  0.39759812  0.60077850  0.00881485  1
  Nb  Nb128  1  -0.00210368  0.00794983  0.40079499  1
  Nb  Nb129  1  0.20433835  0.60199150  0.39645682  1
  Nb  Nb130  1  0.79732847  0.40285398  0.60596560  1
  Nb  Nb131  1  -0.01107446  0.59829604  0.19879653  1
  Nb  Nb132  1  -0.00191847  0.40016031  0.80413400  1
  Nb  Nb133  1  0.79587202  0.19986370  0.01233812  1
  Nb  Nb134  1  0.60783699  0.00273790  0.19520886  1
  Nb  Nb135  1  -0.00375983  0.39541337  0.39836571  1
  Nb  Nb136  1  0.00093033  0.20618553  0.20580365  1
  Nb  Nb137  1  0.19684939  0.19872830  0.40455126  1
  Nb  Nb138  1  0.20230190  0.19278142  0.59890801  1
  Nb  Nb139  1  0.39656579  -0.00632419  0.79747867  1
  Nb  Nb140  1  0.80067597  0.59420819  0.59971786  1
  Nb  Nb141  1  0.20540840  0.79920517  0.39606980  1
  Nb  Nb142  1  0.59543536  0.00395199  0.79586595  1
  Nb  Nb143  1  0.19904002  0.39907897  0.00539205  1
  Nb  Nb144  1  0.00279070  0.80275588  0.79930499  1
  Nb  Nb145  1  0.40355783  0.79741412  0.80514208  1
  Nb  Nb146  1  0.79858414  0.60668360  0.19978091  1
  Nb  Nb147  1  -0.00221897  0.80476035  0.60007444  1
  Nb  Nb148  1  0.20084367  0.00735134  0.60091416  1
  Nb  Nb149  1  0.79620401  0.59217960  0.79584602  1
  Pd  Pd150  1  0.00424432  0.00915761  0.20451958  1
  Pd  Pd151  1  0.60441513  -0.00407399  0.00050758  1
  Pd  Pd152  1  0.19359323  0.59503606  0.80167069  1
  Pd  Pd153  1  0.59141706  0.81450617  0.80671355  1
  Pd  Pd154  1  0.80705515  0.79200887  0.59698124  1
  Pd  Pd155  1  0.40961568  0.60186463  0.81398568  1
  Pd  Pd156  1  0.40060096  0.79674739  0.19478106  1
  Pd  Pd157  1  0.79268387  0.20520585  0.40551753  1
  Pd  Pd158  1  0.40614746  0.39525228  0.59660976  1
  Pd  Pd159  1  0.79072523  0.19892498  0.59794619  1
  Pd  Pd160  1  0.60057138  0.40068709  0.59188811  1
  Pd  Pd161  1  -0.00463231  0.40464891  0.20803708  1
  Pd  Pd162  1  0.59314871  0.39687322  0.39554582  1
  Pd  Pd163  1  0.19940686  0.80264568  0.80103135  1
  Pd  Pd164  1  0.40553116  0.39536049  0.20298217  1
  Pd  Pd165  1  0.01150418  0.58672996  0.38919359  1
  Pd  Pd166  1  0.60551897  0.00799815  0.60777103  1
  Pd  Pd167  1  0.40482773  0.60005917  0.59240216  1
  Pd  Pd168  1  0.60560918  0.20669699  0.00383290  1
  Pd  Pd169  1  0.79200798  0.00640248  0.80381388  1
  Pd  Pd170  1  0.39111720  0.40867017  -0.00027457  1
  Pd  Pd171  1  0.20858954  0.00100322  -0.00131678  1
  Pd  Pd172  1  0.41135189  0.60914090  0.19259254  1
  Pd  Pd173  1  0.60712658  0.19380927  0.59544303  1
  Pd  Pd174  1  0.59396656  0.19406569  0.80273977  1
  Pd  Pd175  1  0.60615637  0.81636775  0.19116493  1
  Pd  Pd176  1  0.79211272  0.61009542  0.39384743  1
  Pd  Pd177  1  0.00129992  0.60303575  0.79521312  1
  Pd  Pd178  1  0.20008706  0.00614045  0.18717603  1
  Pd  Pd179  1  0.39273359  -0.00668251  0.60866066  1
  Pd  Pd180  1  0.18969320  0.60423538  0.20818275  1
  Pd  Pd181  1  0.60181272  0.38948750  0.00580263  1
  Pd  Pd182  1  0.19860027  0.19579331  0.20446532  1
  Pd  Pd183  1  0.00475640  0.19970454  0.60823093  1
  Pd  Pd184  1  0.59893383  0.80974461  0.40348078  1
  Pd  Pd185  1  0.79703611  0.79405754  -0.00315199  1
  Pd  Pd186  1  0.39745130  0.79509789  0.39201474  1
  Pd  Pd187  1  0.00850014  0.39340807  -0.00265587  1
  Pd  Pd188  1  0.79523993  0.79399015  0.39776999  1
  Pd  Pd189  1  -0.00095425  0.61060634  0.60645276  1
  Pd  Pd190  1  0.79303272  0.79514470  0.20293976  1
  Pd  Pd191  1  0.20268714  0.20303880  0.00560516  1
  Pd  Pd192  1  0.20260563  0.80473169  0.00386159  1
  Pd  Pd193  1  0.40316412  0.40472071  0.80336815  1
  Pd  Pd194  1  0.80345966  0.20315707  0.81065561  1
  Pd  Pd195  1  0.00514267  0.60153892  0.00900517  1
  Pd  Pd196  1  0.78916912  0.60801280  0.00290073  1
  Pd  Pd197  1  0.60355879  0.40475068  0.80521962  1
  Pd  Pd198  1  0.41014673  0.79284189  0.60458776  1
  Pd  Pd199  1  0.20079508  0.58793797  -0.00158226  1
  Rh  Rh200  1  0.19007100  0.40031304  0.81048449  1
  Rh  Rh201  1  0.40980170  0.00196373  0.19697878  1
  Rh  Rh202  1  0.80485052  0.00931892  -0.00727539  1
  Rh  Rh203  1  0.19061029  0.40249818  0.40471884  1
  Rh  Rh204  1  0.19728147  0.19216769  0.79732019  1
  Rh  Rh205  1  0.59115975  0.60070219  0.00775270  1
  Rh  Rh206  1  0.60361047  0.59820907  0.19029505  1
  Rh  Rh207  1  0.80721336  0.20381957  0.19823175  1
  Rh  Rh208  1  -0.00213443  0.79591736  0.19605863  1
  Rh  Rh209  1  0.00478183  0.81341014  0.40447949  1
  Rh  Rh210  1  -0.00741870  0.39176674  0.60278860  1
  Rh  Rh211  1  0.39502972  0.20193894  0.00236393  1
  Rh  Rh212  1  -0.00063464  -0.00295036  0.59253301  1
  Rh  Rh213  1  0.20239148  0.39482684  0.59786827  1
  Rh  Rh214  1  0.60640549  0.81051547  0.00496204  1
  Rh  Rh215  1  0.59486752  0.39813575  0.19782325  1
  Rh  Rh216  1  0.59672805  0.00050288  0.38855472  1
  Rh  Rh217  1  0.39273423  0.20207173  0.39063037  1
  Rh  Rh218  1  0.20486078  0.59487270  0.59116423  1
  Rh  Rh219  1  0.00381852  -0.00407682  0.80430474  1
  Rh  Rh220  1  0.39673463  0.60617698  0.39660095  1
  Rh  Rh221  1  0.19791324  0.00097443  0.40315138  1
  Rh  Rh222  1  0.40084842  0.20235895  0.20162668  1
  Rh  Rh223  1  0.78796244  0.38532069  -0.00567543  1
  Rh  Rh224  1  0.80662599  0.38760647  0.40940489  1
  Rh  Rh225  1  -0.00108777  0.20351526  0.79689208  1
  Rh  Rh226  1  0.80763136  0.00423496  0.39443844  1
  Rh  Rh227  1  0.20535953  0.79886927  0.20322212  1
  Rh  Rh228  1  0.39499300  0.20488460  0.59748689  1
  Rh  Rh229  1  0.40458467  0.19469790  0.80225617  1
  Rh  Rh230  1  -0.00480879  0.00130025  0.00306547  1
  Rh  Rh231  1  0.40838684  0.39756218  0.39138076  1
  Rh  Rh232  1  0.19166349  0.80408673  0.58658577  1
  Rh  Rh233  1  0.79809041  -0.00039599  0.21071462  1
  Rh  Rh234  1  0.59873965  0.19726734  0.20049278  1
  Rh  Rh235  1  -0.01025428  0.19962602  0.01833027  1
  Rh  Rh236  1  0.59722702  0.80417337  0.58860297  1
  Rh  Rh237  1  0.79458311  0.40493240  0.20473786  1
  Rh  Rh238  1  0.60077361  0.59589377  0.58647006  1
  Rh  Rh239  1  0.39241884  0.00263985  -0.00060869  1
  Rh  Rh240  1  0.59965648  0.59241124  0.81028695  1
  Rh  Rh241  1  0.20421302  0.39836927  0.19266860  1
  Rh  Rh242  1  0.80704739  0.79010136  0.80755798  1
  Rh  Rh243  1  0.39623593  0.79237031  0.00038277  1
  Rh  Rh244  1  0.40901198  0.00068103  0.38837710  1
  Rh  Rh245  1  0.60153508  0.59643546  0.40157014  1
  Rh  Rh246  1  -0.00048597  0.79501090  -0.00419451  1
  Rh  Rh247  1  0.60275568  0.19726061  0.39674408  1
  Rh  Rh248  1  0.00924337  0.19927579  0.39099780  1
  Rh  Rh249  1  0.79184626  0.01073014  0.60808235  1
