# generated using pymatgen
data_ZrScNbPdRh
_symmetry_space_group_name_H-M   'P 1'
_cell_length_a   16.55230599
_cell_length_b   16.55672976
_cell_length_c   16.55775150
_cell_angle_alpha   89.99774330
_cell_angle_beta   89.97782961
_cell_angle_gamma   90.00660226
_symmetry_Int_Tables_number   1
_chemical_formula_structural   ZrScNbPdRh
_chemical_formula_sum   'Zr50 Sc50 Nb50 Pd50 Rh50'
_cell_volume   4537.68548837
_cell_formula_units_Z   50
loop_
 _symmetry_equiv_pos_site_id
 _symmetry_equiv_pos_as_xyz
  1  'x, y, z'
loop_
 _atom_site_type_symbol
 _atom_site_label
 _atom_site_symmetry_multiplicity
 _atom_site_fract_x
 _atom_site_fract_y
 _atom_site_fract_z
 _atom_site_occupancy
  Zr  Zr0  1  0.89883722  0.69359788  0.09857186  1
  Zr  Zr1  1  0.71284501  0.30011608  0.49409282  1
  Zr  Zr2  1  0.29585989  0.70160995  0.50017801  1
  Zr  Zr3  1  0.89877162  0.09589423  0.09727687  1
  Zr  Zr4  1  0.29588117  0.11416925  0.09796546  1
  Zr  Zr5  1  0.10568184  0.49294869  0.71499486  1
  Zr  Zr6  1  0.69992239  0.90009779  0.69477058  1
  Zr  Zr7  1  0.50548309  0.90506522  0.29836110  1
  Zr  Zr8  1  0.69159303  0.89716842  0.89940066  1
  Zr  Zr9  1  0.89997124  0.69013986  0.90104720  1
  Zr  Zr10  1  0.50460642  0.49975151  0.51564202  1
  Zr  Zr11  1  0.49754591  0.91006922  0.49576186  1
  Zr  Zr12  1  0.69973630  0.30519478  0.91057672  1
  Zr  Zr13  1  0.10102833  0.89921927  0.89452572  1
  Zr  Zr14  1  0.70485928  0.89407319  0.30104413  1
  Zr  Zr15  1  0.50130570  0.49462586  0.29939427  1
  Zr  Zr16  1  0.90706045  0.90353382  0.90422070  1
  Zr  Zr17  1  0.30371922  0.11126541  0.90333432  1
  Zr  Zr18  1  0.69410728  0.50879707  0.30775348  1
  Zr  Zr19  1  0.10968192  0.69341927  0.90398450  1
  Zr  Zr20  1  0.10689747  0.10012282  0.70038130  1
  Zr  Zr21  1  0.30141811  0.30661120  0.29070863  1
  Zr  Zr22  1  0.90152618  0.10341437  0.70063168  1
  Zr  Zr23  1  0.29986200  0.29617184  0.71326730  1
  Zr  Zr24  1  0.10316442  0.69571865  0.29911804  1
  Zr  Zr25  1  0.50293369  0.70010179  0.50669013  1
  Zr  Zr26  1  0.29524084  0.90774708  0.69471024  1
  Zr  Zr27  1  0.89772244  0.89320698  0.69136108  1
  Zr  Zr28  1  0.90512320  0.50591333  0.70573042  1
  Zr  Zr29  1  0.69942468  0.70758240  0.70264220  1
  Zr  Zr30  1  0.30178375  0.70157338  0.70344173  1
  Zr  Zr31  1  0.29623437  0.70683750  0.29748416  1
  Zr  Zr32  1  0.89320270  0.49009562  0.50904185  1
  Zr  Zr33  1  0.28853974  0.50041767  0.29661337  1
  Zr  Zr34  1  0.70296240  0.50281151  0.90797212  1
  Zr  Zr35  1  0.49609567  0.29813477  0.89913617  1
  Zr  Zr36  1  0.50437818  0.68685882  0.70092856  1
  Zr  Zr37  1  0.50159167  0.70344029  0.89729841  1
  Zr  Zr38  1  0.09530167  0.69478948  0.70075191  1
  Zr  Zr39  1  0.30098591  0.90203379  0.50189115  1
  Zr  Zr40  1  0.51260841  0.69469006  0.29835085  1
  Zr  Zr41  1  0.29732746  0.89879939  0.89318374  1
  Zr  Zr42  1  0.90647505  0.69709482  0.50451532  1
  Zr  Zr43  1  0.50831916  0.11315725  0.69289832  1
  Zr  Zr44  1  0.69772804  0.69959420  0.89802919  1
  Zr  Zr45  1  0.69661490  0.50490405  0.69189883  1
  Zr  Zr46  1  0.49501486  0.30663087  0.69809369  1
  Zr  Zr47  1  0.09171784  0.49583688  0.49316791  1
  Zr  Zr48  1  0.30996913  0.49094746  0.69578307  1
  Zr  Zr49  1  0.90178317  0.10046543  0.90178262  1
  Sc  Sc50  1  0.90032844  0.29219490  0.90858379  1
  Sc  Sc51  1  0.09157672  0.10109042  0.89328164  1
  Sc  Sc52  1  0.70140918  0.10338668  0.49887934  1
  Sc  Sc53  1  0.70413708  0.69316068  0.48669565  1
  Sc  Sc54  1  0.10741858  0.30003822  0.89501856  1
  Sc  Sc55  1  0.29208760  0.90325802  0.30256662  1
  Sc  Sc56  1  0.10583675  0.90428143  0.49332008  1
  Sc  Sc57  1  0.70442288  0.09267723  0.10363120  1
  Sc  Sc58  1  0.89815873  0.90785451  0.29783079  1
  Sc  Sc59  1  0.49986186  0.89694226  0.90922196  1
  Sc  Sc60  1  0.50521296  0.50411172  0.10099193  1
  Sc  Sc61  1  0.70071642  0.90077233  0.49818876  1
  Sc  Sc62  1  0.69911495  0.10949612  0.90159604  1
  Sc  Sc63  1  0.49967874  0.31595808  0.10756415  1
  Sc  Sc64  1  0.29136639  0.69866361  0.09314855  1
  Sc  Sc65  1  0.09946810  0.69835890  0.49678436  1
  Sc  Sc66  1  0.89808337  0.09438549  0.29770012  1
  Sc  Sc67  1  0.70322493  0.30110192  0.30336688  1
  Sc  Sc68  1  0.70066576  0.49097467  0.09625337  1
  Sc  Sc69  1  0.69662203  0.28352290  0.70148849  1
  Sc  Sc70  1  0.30701216  0.89328453  0.10007896  1
  Sc  Sc71  1  0.28335618  0.50824963  0.89967161  1
  Sc  Sc72  1  0.09387779  0.90286279  0.09747835  1
  Sc  Sc73  1  0.90857785  0.49303278  0.28864053  1
  Sc  Sc74  1  0.89628602  0.90157027  0.49296680  1
  Sc  Sc75  1  0.50337798  0.51070302  0.90523389  1
  Sc  Sc76  1  0.89053868  0.29966353  0.10171826  1
  Sc  Sc77  1  0.70573504  0.09666336  0.30265929  1
  Sc  Sc78  1  0.10624555  0.29529857  0.69507550  1
  Sc  Sc79  1  0.88125223  0.69933167  0.29689034  1
  Sc  Sc80  1  0.10793309  0.90658136  0.70311689  1
  Sc  Sc81  1  0.89395212  0.29475518  0.29536717  1
  Sc  Sc82  1  0.49882610  0.09907312  0.91022222  1
  Sc  Sc83  1  0.69740606  0.90596937  0.10644561  1
  Sc  Sc84  1  0.90143657  0.29819229  0.69183647  1
  Sc  Sc85  1  0.50814126  0.29376226  0.50243695  1
  Sc  Sc86  1  0.31031528  0.09428281  0.50285436  1
  Sc  Sc87  1  0.10005852  0.08937426  0.29486226  1
  Sc  Sc88  1  0.50441104  0.09995239  0.31563894  1
  Sc  Sc89  1  0.50657164  0.30276110  0.31048134  1
  Sc  Sc90  1  0.09978117  0.90594234  0.29811107  1
  Sc  Sc91  1  0.50479392  0.89032538  0.68840459  1
  Sc  Sc92  1  0.70262958  0.69635541  0.11385469  1
  Sc  Sc93  1  0.89774317  0.10528950  0.49095071  1
  Sc  Sc94  1  0.49247118  0.70370142  0.09618194  1
  Sc  Sc95  1  0.30138764  0.70405801  0.90146544  1
  Sc  Sc96  1  0.30264342  0.29919799  0.51533104  1
  Sc  Sc97  1  0.50031406  0.10367357  0.49855521  1
  Sc  Sc98  1  0.08809294  0.30546406  0.29724550  1
  Sc  Sc99  1  0.50619003  0.90633580  0.09722936  1
  Nb  Nb100  1  0.30001247  0.49991694  0.50152304  1
  Nb  Nb101  1  0.70037745  0.49541400  0.49746988  1
  Nb  Nb102  1  0.49977899  0.09863305  0.10284723  1
  Nb  Nb103  1  0.09806393  0.49922768  0.11018575  1
  Nb  Nb104  1  0.30118573  0.09623189  0.69923614  1
  Nb  Nb105  1  0.30162423  0.10617822  0.29875094  1
  Nb  Nb106  1  0.70043991  0.29644498  0.10020284  1
  Nb  Nb107  1  0.90249376  0.49721235  0.09301357  1
  Nb  Nb108  1  0.29368462  0.48834920  0.10738001  1
  Nb  Nb109  1  0.50399236  0.49995787  0.69955778  1
  Nb  Nb110  1  0.90964030  0.29390986  0.49859055  1
  Nb  Nb111  1  0.09351507  0.29076338  0.49652743  1
  Nb  Nb112  1  0.09958362  0.49591883  0.29398048  1
  Nb  Nb113  1  0.70260722  0.09972874  0.70182153  1
  Nb  Nb114  1  0.30099357  0.29784201  0.90956086  1
  Nb  Nb115  1  0.10400693  0.29758465  0.09457599  1
  Nb  Nb116  1  0.10202213  0.10524272  0.09799166  1
  Nb  Nb117  1  0.69888987  0.69880805  0.30099204  1
  Nb  Nb118  1  0.09340578  0.50043997  0.89780432  1
  Nb  Nb119  1  0.89832543  0.89690454  0.09987191  1
  Nb  Nb120  1  0.29178023  0.30217022  0.09545066  1
  Nb  Nb121  1  0.89874213  0.49832758  0.90451496  1
  Nb  Nb122  1  0.09316076  0.10600658  0.49922812  1
  Nb  Nb123  1  0.09249295  0.70090869  0.09780102  1
  Nb  Nb124  1  0.90225760  0.70233598  0.69992093  1
  Nb  Nb125  1  -0.00290321  0.79386272  0.79839636  1
  Nb  Nb126  1  0.38736028  0.40127237  0.00282120  1
  Nb  Nb127  1  0.40452601  0.00311732  0.79360177  1
  Nb  Nb128  1  0.19692025  0.20327417  0.40202158  1
  Nb  Nb129  1  0.59814691  0.19827012  0.19727055  1
  Nb  Nb130  1  0.39431752  0.40723934  0.40630039  1
  Nb  Nb131  1  -0.00152209  0.79696332  0.39123781  1
  Nb  Nb132  1  0.39841924  0.59896668  0.39926313  1
  Nb  Nb133  1  0.60142132  0.40411766  0.79863904  1
  Nb  Nb134  1  0.40392464  0.20031150  0.19966804  1
  Nb  Nb135  1  0.80336059  0.80085936  0.00269358  1
  Nb  Nb136  1  0.20071910  0.00611003  0.00000923  1
  Nb  Nb137  1  0.19698008  0.39599026  0.40376746  1
  Nb  Nb138  1  -0.00392984  0.79662598  0.19711182  1
  Nb  Nb139  1  0.79594956  0.00140302  0.79661502  1
  Nb  Nb140  1  0.39825704  0.01237047  0.20209921  1
  Nb  Nb141  1  0.60037692  0.00432992  0.79529585  1
  Nb  Nb142  1  0.39384319  0.59662622  0.20389036  1
  Nb  Nb143  1  0.59677444  0.20397630  0.01331138  1
  Nb  Nb144  1  0.00406083  0.40678619  0.00270830  1
  Nb  Nb145  1  0.40262847  0.79668473  0.39789340  1
  Nb  Nb146  1  0.20168181  0.59188230  0.60020408  1
  Nb  Nb147  1  0.00365136  0.19619392  0.18849532  1
  Nb  Nb148  1  0.00327386  0.00675861  0.59629227  1
  Nb  Nb149  1  0.79840163  0.40314481  0.80216250  1
  Pd  Pd150  1  0.59894429  0.00530560  0.59869758  1
  Pd  Pd151  1  0.00651997  0.39664956  0.60589607  1
  Pd  Pd152  1  0.59974379  0.80007514  0.19361594  1
  Pd  Pd153  1  0.80168099  0.20383640  0.80333161  1
  Pd  Pd154  1  -0.00878645  0.38918252  0.80797597  1
  Pd  Pd155  1  0.19213115  0.40125500  0.59464365  1
  Pd  Pd156  1  0.20112575  0.60375059  0.19101829  1
  Pd  Pd157  1  0.80707044  0.80579437  0.80841115  1
  Pd  Pd158  1  0.59876426  0.80209352  0.40503703  1
  Pd  Pd159  1  0.79577588  0.39095862  0.60954410  1
  Pd  Pd160  1  -0.00974056  0.60221168  0.38876649  1
  Pd  Pd161  1  -0.00347327  0.60486683  0.20542489  1
  Pd  Pd162  1  0.40525713  0.80124113  0.20347236  1
  Pd  Pd163  1  0.80705025  0.00819848  0.59754739  1
  Pd  Pd164  1  0.20695716  0.19273263  0.59346974  1
  Pd  Pd165  1  0.40178638  0.41226866  0.81611595  1
  Pd  Pd166  1  0.79373357  0.40512615  0.20259823  1
  Pd  Pd167  1  0.79422246  0.79176476  0.58759038  1
  Pd  Pd168  1  0.61033133  0.38891855  0.60305099  1
  Pd  Pd169  1  0.00873691  0.00399838  0.00392530  1
  Pd  Pd170  1  0.39248272  0.21089143  0.39929093  1
  Pd  Pd171  1  0.38994678  0.59227311  0.00851888  1
  Pd  Pd172  1  0.40446278  0.19259001  0.79724541  1
  Pd  Pd173  1  -0.00581332  0.39747190  0.39682652  1
  Pd  Pd174  1  0.79612325  0.59554348  0.79698547  1
  Pd  Pd175  1  0.39590594  0.59350408  0.80538812  1
  Pd  Pd176  1  0.80991163  0.40294733  0.39266759  1
  Pd  Pd177  1  0.00270651  0.21007163  0.79694869  1
  Pd  Pd178  1  0.40778919  0.80927602  0.79682513  1
  Pd  Pd179  1  0.79643366  0.58567349  0.19672422  1
  Pd  Pd180  1  0.00637304  0.59106266  0.60175746  1
  Pd  Pd181  1  0.40021921  0.80000457  0.59738701  1
  Pd  Pd182  1  0.60961040  0.39641664  0.20435602  1
  Pd  Pd183  1  0.79153539  -0.00452587  -0.00614166  1
  Pd  Pd184  1  0.19402230  0.40691666  -0.00402268  1
  Pd  Pd185  1  0.19877516  0.80876215  0.00467034  1
  Pd  Pd186  1  0.00976914  0.81085073  0.59475723  1
  Pd  Pd187  1  0.19114626  0.79627508  0.60150968  1
  Pd  Pd188  1  0.20793815  -0.00410122  0.18882080  1
  Pd  Pd189  1  0.19922869  0.59385272  0.40529993  1
  Pd  Pd190  1  0.39368202  -0.00478208  0.00195263  1
  Pd  Pd191  1  0.60762984  0.79374907  0.01256788  1
  Pd  Pd192  1  0.79666085  0.60696649  0.59916693  1
  Pd  Pd193  1  0.81158017  0.58952524  0.39897932  1
  Pd  Pd194  1  0.20285605  0.01211673  0.40414508  1
  Pd  Pd195  1  0.00156122  0.19309979  0.38245466  1
  Pd  Pd196  1  0.19215254  0.20625479  0.21053219  1
  Pd  Pd197  1  0.60440211  0.60866369  0.01033918  1
  Pd  Pd198  1  0.00644302  0.59374455  0.00084512  1
  Pd  Pd199  1  0.18927099  0.80653265  0.19311664  1
  Rh  Rh200  1  0.00403602  0.20761099  0.00423607  1
  Rh  Rh201  1  0.21216202  0.01203993  0.81063934  1
  Rh  Rh202  1  0.39768260  0.20031671  0.60241574  1
  Rh  Rh203  1  0.39523378  -0.00701861  0.39058906  1
  Rh  Rh204  1  0.79892761  0.19472408  0.19825424  1
  Rh  Rh205  1  0.18818061  0.19407555  -0.01083029  1
  Rh  Rh206  1  0.79726848  -0.00071277  0.40024148  1
  Rh  Rh207  1  0.19183173  0.79314264  0.79559632  1
  Rh  Rh208  1  0.59541306  0.59442305  0.40814170  1
  Rh  Rh209  1  0.60886645  0.20014717  0.39511458  1
  Rh  Rh210  1  -0.01168842  -0.01061652  0.78540441  1
  Rh  Rh211  1  -0.00217243  0.00116154  0.19251818  1
  Rh  Rh212  1  0.19359097  0.00880242  0.59028262  1
  Rh  Rh213  1  0.39968827  0.79992467  -0.00048614  1
  Rh  Rh214  1  0.80308676  0.19965932  0.59434953  1
  Rh  Rh215  1  0.60735223  0.00225985  0.40330374  1
  Rh  Rh216  1  0.59811726  0.59901644  0.19534002  1
  Rh  Rh217  1  0.20525854  0.39600115  0.80628506  1
  Rh  Rh218  1  0.59476581  0.00907975  0.20865539  1
  Rh  Rh219  1  0.79309090  0.19684483  0.00619211  1
  Rh  Rh220  1  0.41065271  0.21681132  0.01562019  1
  Rh  Rh221  1  0.79405638  0.60339732  0.00634869  1
  Rh  Rh222  1  0.00160881  0.38912238  0.18728077  1
  Rh  Rh223  1  -0.00521727  0.79580351  0.00024144  1
  Rh  Rh224  1  -0.00021102  0.60402364  0.80369329  1
  Rh  Rh225  1  0.80195684  0.80542230  0.19675112  1
  Rh  Rh226  1  0.18633831  0.39201346  0.20345454  1
  Rh  Rh227  1  0.80517744  0.79951749  0.39860949  1
  Rh  Rh228  1  0.80471583  0.20176621  0.39763580  1
  Rh  Rh229  1  0.60862383  0.20158192  0.59171823  1
  Rh  Rh230  1  0.40346061  0.39476572  0.59601136  1
  Rh  Rh231  1  0.39338120  0.60131165  0.60020259  1
  Rh  Rh232  1  0.19263487  0.59252929  0.00985111  1
  Rh  Rh233  1  0.19693814  0.80367620  0.39807987  1
  Rh  Rh234  1  0.40814902  0.00489768  0.60878469  1
  Rh  Rh235  1  -0.00079269  -0.00467876  0.40566343  1
  Rh  Rh236  1  0.60789787  0.79476763  0.59260679  1
  Rh  Rh237  1  0.61198243  0.60585008  0.59399087  1
  Rh  Rh238  1  -0.00349433  0.19592087  0.60064434  1
  Rh  Rh239  1  0.39995238  0.40295483  0.19857348  1
  Rh  Rh240  1  0.60506816  0.00948520  -0.00628856  1
  Rh  Rh241  1  0.80025949  -0.00338134  0.20128053  1
  Rh  Rh242  1  0.20552447  0.60103341  0.79234453  1
  Rh  Rh243  1  0.81031658  0.39731840  -0.00159946  1
  Rh  Rh244  1  0.58683456  0.39561907  -0.00570399  1
  Rh  Rh245  1  0.59153747  0.80510379  0.79706082  1
  Rh  Rh246  1  0.20150751  0.19784109  0.80292095  1
  Rh  Rh247  1  0.59716587  0.40219723  0.40907632  1
  Rh  Rh248  1  0.60328720  0.59427789  0.80069206  1
  Rh  Rh249  1  0.59644694  0.20031865  0.81007572  1
