# generated using pymatgen
data_ZrScNbPdRh
_symmetry_space_group_name_H-M   'P 1'
_cell_length_a   16.55579701
_cell_length_b   16.55561861
_cell_length_c   16.55398227
_cell_angle_alpha   89.98163344
_cell_angle_beta   89.99719076
_cell_angle_gamma   89.97271269
_symmetry_Int_Tables_number   1
_chemical_formula_structural   ZrScNbPdRh
_chemical_formula_sum   'Zr50 Sc50 Nb50 Pd50 Rh50'
_cell_volume   4537.30443461
_cell_formula_units_Z   50
loop_
 _symmetry_equiv_pos_site_id
 _symmetry_equiv_pos_as_xyz
  1  'x, y, z'
loop_
 _atom_site_type_symbol
 _atom_site_label
 _atom_site_symmetry_multiplicity
 _atom_site_fract_x
 _atom_site_fract_y
 _atom_site_fract_z
 _atom_site_occupancy
  Zr  Zr0  1  0.90103546  0.49966148  0.29057106  1
  Zr  Zr1  1  0.50289897  0.09806762  0.29636551  1
  Zr  Zr2  1  0.89684183  0.69328327  0.29880154  1
  Zr  Zr3  1  0.29741279  0.30286473  0.50308803  1
  Zr  Zr4  1  0.70234699  0.89732026  0.70106273  1
  Zr  Zr5  1  0.69458621  0.50250012  0.10075101  1
  Zr  Zr6  1  0.90359924  0.30156714  0.89956774  1
  Zr  Zr7  1  0.29486235  0.90615635  0.49166213  1
  Zr  Zr8  1  0.49945145  0.89649769  0.30906557  1
  Zr  Zr9  1  0.69474159  0.49584602  0.89668891  1
  Zr  Zr10  1  0.89822284  0.09171023  0.70259595  1
  Zr  Zr11  1  0.90712630  0.09783762  0.89472352  1
  Zr  Zr12  1  0.09403380  0.69663826  0.70960977  1
  Zr  Zr13  1  0.70131384  0.49749650  0.49608348  1
  Zr  Zr14  1  0.89620974  0.49377915  0.10312826  1
  Zr  Zr15  1  0.89466685  0.70394458  0.70119239  1
  Zr  Zr16  1  0.69554066  0.49829234  0.69703867  1
  Zr  Zr17  1  0.09868451  0.50638568  0.10351615  1
  Zr  Zr18  1  0.50229415  0.50955544  0.69868127  1
  Zr  Zr19  1  0.48495111  0.29280520  0.30357843  1
  Zr  Zr20  1  0.69561337  0.89843280  0.50183531  1
  Zr  Zr21  1  0.49361839  0.49801151  0.50378307  1
  Zr  Zr22  1  0.49745403  0.70714180  0.89601568  1
  Zr  Zr23  1  0.09405733  0.90162033  0.90624740  1
  Zr  Zr24  1  0.69975385  0.29789013  0.89750710  1
  Zr  Zr25  1  0.30423661  0.90292347  0.69697826  1
  Zr  Zr26  1  0.28855177  0.69952090  0.09937029  1
  Zr  Zr27  1  0.70359925  0.29903773  0.70145271  1
  Zr  Zr28  1  0.29891781  0.50173255  0.89701534  1
  Zr  Zr29  1  0.49423050  0.10115752  0.50325853  1
  Zr  Zr30  1  0.10669472  0.89454798  0.31639899  1
  Zr  Zr31  1  0.70461864  0.90388953  0.08651711  1
  Zr  Zr32  1  0.70539905  0.30015867  0.50237094  1
  Zr  Zr33  1  0.09467717  0.49695513  0.88785818  1
  Zr  Zr34  1  0.49915012  0.89631575  0.89729027  1
  Zr  Zr35  1  0.69916844  0.10033015  0.29545863  1
  Zr  Zr36  1  0.69193743  0.70239288  0.70059977  1
  Zr  Zr37  1  0.91595454  0.90096856  0.49952201  1
  Zr  Zr38  1  0.29647507  0.09767095  0.90869393  1
  Zr  Zr39  1  0.30486037  0.88953185  0.89910045  1
  Zr  Zr40  1  0.10028494  0.89683875  0.10298485  1
  Zr  Zr41  1  0.10710084  0.10133801  0.09222337  1
  Zr  Zr42  1  0.50321464  0.69758566  0.09980549  1
  Zr  Zr43  1  0.09841397  0.29967892  0.90149771  1
  Zr  Zr44  1  0.91934714  0.91229337  0.29952439  1
  Zr  Zr45  1  0.10613504  0.70114124  0.89839574  1
  Zr  Zr46  1  0.09822496  0.29924778  0.49967767  1
  Zr  Zr47  1  0.29483965  0.30579198  0.30222574  1
  Zr  Zr48  1  0.90109100  0.70218242  0.89671194  1
  Zr  Zr49  1  0.90192760  0.49385892  0.90384193  1
  Sc  Sc50  1  0.69821084  0.90228458  0.89761170  1
  Sc  Sc51  1  0.50124800  0.50012660  0.90715447  1
  Sc  Sc52  1  0.49937286  0.90037357  0.50113017  1
  Sc  Sc53  1  0.10982133  0.69674681  0.29466786  1
  Sc  Sc54  1  0.50505192  0.90030702  0.09280215  1
  Sc  Sc55  1  0.09972714  0.70606104  0.48916776  1
  Sc  Sc56  1  0.89319794  0.69432450  0.09799401  1
  Sc  Sc57  1  0.10278458  0.30887634  0.69362846  1
  Sc  Sc58  1  0.69741421  0.69912482  0.29676671  1
  Sc  Sc59  1  0.50116957  0.30819416  0.49197403  1
  Sc  Sc60  1  0.10432252  0.09805244  0.50120638  1
  Sc  Sc61  1  0.09306525  0.10079145  0.69694942  1
  Sc  Sc62  1  0.70449920  0.09272660  0.89800627  1
  Sc  Sc63  1  0.89634931  0.90329509  0.70102217  1
  Sc  Sc64  1  0.30845041  0.30617877  0.89434501  1
  Sc  Sc65  1  0.68415440  0.90452229  0.29689369  1
  Sc  Sc66  1  0.49935043  0.48366075  0.30394864  1
  Sc  Sc67  1  0.70127203  0.10329737  0.50748620  1
  Sc  Sc68  1  0.49675435  0.31060113  0.70325654  1
  Sc  Sc69  1  0.08801026  0.90145379  0.69617310  1
  Sc  Sc70  1  0.69800833  0.70916427  0.90065720  1
  Sc  Sc71  1  0.89500122  0.69813914  0.49745192  1
  Sc  Sc72  1  0.68870575  0.09937095  0.09789925  1
  Sc  Sc73  1  0.69352420  0.29986838  0.09834215  1
  Sc  Sc74  1  0.70458292  0.69929265  0.50026054  1
  Sc  Sc75  1  0.49855019  0.70165246  0.49887124  1
  Sc  Sc76  1  0.30071206  0.50355438  0.10108717  1
  Sc  Sc77  1  0.90593112  0.49199439  0.70171682  1
  Sc  Sc78  1  0.29668849  0.29321548  0.10791756  1
  Sc  Sc79  1  0.29499603  0.09908978  0.50596990  1
  Sc  Sc80  1  0.10693345  0.49399855  0.50338177  1
  Sc  Sc81  1  0.70446433  0.50152912  0.29339046  1
  Sc  Sc82  1  0.29470415  0.10420776  0.10284296  1
  Sc  Sc83  1  0.50290721  0.08810186  0.89875780  1
  Sc  Sc84  1  0.28983182  0.69413588  0.70386423  1
  Sc  Sc85  1  0.70570342  0.09315690  0.69892437  1
  Sc  Sc86  1  0.50224174  0.30770484  0.90271730  1
  Sc  Sc87  1  0.29648615  0.89449451  0.09177980  1
  Sc  Sc88  1  0.50292715  0.90179090  0.70250794  1
  Sc  Sc89  1  0.90040816  0.29845491  0.69499764  1
  Sc  Sc90  1  0.50059364  0.30620491  0.10334646  1
  Sc  Sc91  1  0.90932053  0.11126910  0.29692431  1
  Sc  Sc92  1  0.69551745  0.69989735  0.10007164  1
  Sc  Sc93  1  0.10369855  0.49478625  0.29468250  1
  Sc  Sc94  1  0.30271851  0.09814430  0.69689072  1
  Sc  Sc95  1  0.30443007  0.11367958  0.30427941  1
  Sc  Sc96  1  0.90254283  0.10285788  0.50410410  1
  Sc  Sc97  1  0.89751432  0.49623496  0.50370629  1
  Sc  Sc98  1  0.69307756  0.29325071  0.30305495  1
  Sc  Sc99  1  0.10263172  0.29604205  0.10114664  1
  Nb  Nb100  1  0.89010864  0.90159391  0.91038185  1
  Nb  Nb101  1  0.50339036  0.50453786  0.10460946  1
  Nb  Nb102  1  0.10592078  0.10271818  0.89875404  1
  Nb  Nb103  1  0.29698077  0.49725723  0.69531834  1
  Nb  Nb104  1  0.30269302  0.69984546  0.30354990  1
  Nb  Nb105  1  0.30140593  0.69050024  0.50022647  1
  Nb  Nb106  1  0.30083283  0.30152846  0.70286591  1
  Nb  Nb107  1  0.09856910  0.09242952  0.29586555  1
  Nb  Nb108  1  0.90121614  0.90345701  0.09673720  1
  Nb  Nb109  1  0.09986595  0.69876007  0.10229855  1
  Nb  Nb110  1  0.30259374  0.70200137  0.89962294  1
  Nb  Nb111  1  0.49884288  0.70291759  0.70003143  1
  Nb  Nb112  1  0.90431780  0.30433571  0.49594322  1
  Nb  Nb113  1  0.30753178  0.51040111  0.50715800  1
  Nb  Nb114  1  0.10307467  0.50448017  0.70376770  1
  Nb  Nb115  1  0.90046394  0.09748002  0.10289109  1
  Nb  Nb116  1  0.50021672  0.10295205  0.69944899  1
  Nb  Nb117  1  0.30043811  0.50671763  0.30518669  1
  Nb  Nb118  1  0.10326034  0.90022473  0.49471823  1
  Nb  Nb119  1  0.50397124  0.70266632  0.29946228  1
  Nb  Nb120  1  0.90127140  0.29663906  0.10176788  1
  Nb  Nb121  1  0.49582678  0.09871842  0.10116304  1
  Nb  Nb122  1  0.29789195  0.89552137  0.29873234  1
  Nb  Nb123  1  0.90647293  0.30035614  0.29900846  1
  Nb  Nb124  1  0.09930876  0.29350229  0.30415850  1
  Nb  Nb125  1  0.00436902  0.59910287  0.60155281  1
  Nb  Nb126  1  0.40034096  0.20491279  0.60609378  1
  Nb  Nb127  1  0.80623007  0.81256880  0.20099558  1
  Nb  Nb128  1  0.80990248  0.39046898  0.39468288  1
  Nb  Nb129  1  0.80231975  -0.00163613  0.39445084  1
  Nb  Nb130  1  0.40334406  0.60329812  0.20767170  1
  Nb  Nb131  1  0.19774767  0.40236173  -0.00296818  1
  Nb  Nb132  1  0.00256262  0.59942978  -0.00015963  1
  Nb  Nb133  1  0.79608923  0.59829258  0.79892460  1
  Nb  Nb134  1  0.39105639  0.79375567  0.59931888  1
  Nb  Nb135  1  0.80331210  0.81306487  0.39077991  1
  Nb  Nb136  1  0.80520153  0.00016409  0.19899048  1
  Nb  Nb137  1  0.39762524  0.79753099  0.20636185  1
  Nb  Nb138  1  -0.00108191  0.59488354  0.40022904  1
  Nb  Nb139  1  -0.00054455  0.79920049  0.19682326  1
  Nb  Nb140  1  0.20277636  -0.00275233  0.20795238  1
  Nb  Nb141  1  0.39587161  -0.00621349  0.20316277  1
  Nb  Nb142  1  0.59492659  0.59827474  0.39589047  1
  Nb  Nb143  1  0.20044712  0.80059787  0.59349458  1
  Nb  Nb144  1  0.39727194  0.60380038  0.79857472  1
  Nb  Nb145  1  0.40453854  0.19643431  0.00154098  1
  Nb  Nb146  1  0.19632125  0.00322735  0.80558075  1
  Nb  Nb147  1  0.80894426  0.19865338  0.00456047  1
  Nb  Nb148  1  0.59686009  0.19700662  0.79536142  1
  Nb  Nb149  1  0.20206623  0.19881579  0.79946418  1
  Pd  Pd150  1  0.59197462  0.20825034  0.60595741  1
  Pd  Pd151  1  0.40126372  0.60435549  0.00070909  1
  Pd  Pd152  1  0.60514323  0.00977793  0.40807415  1
  Pd  Pd153  1  0.39351534  0.00649010  0.39523167  1
  Pd  Pd154  1  0.19062369  0.60675503  0.59823262  1
  Pd  Pd155  1  0.20397638  0.40775465  0.40319947  1
  Pd  Pd156  1  0.39649606  0.00452034  0.79914858  1
  Pd  Pd157  1  0.20210565  0.40230362  0.60019609  1
  Pd  Pd158  1  0.79502748  0.39110241  0.00473384  1
  Pd  Pd159  1  0.00735526  0.20519951  0.79137776  1
  Pd  Pd160  1  0.40228955  0.19549594  0.80289635  1
  Pd  Pd161  1  0.39530747  0.40699335  0.19629917  1
  Pd  Pd162  1  0.80509437  0.19793594  0.40021563  1
  Pd  Pd163  1  0.59829523  0.19703610  0.40498139  1
  Pd  Pd164  1  0.39393110  0.39441678  0.01099149  1
  Pd  Pd165  1  0.00700692  0.39091789  0.19771590  1
  Pd  Pd166  1  -0.00780386  0.81136394  0.80257603  1
  Pd  Pd167  1  0.59698337  -0.00192490  0.60367027  1
  Pd  Pd168  1  0.79256465  0.38597650  0.20504047  1
  Pd  Pd169  1  0.19150520  -0.00431233  0.60777098  1
  Pd  Pd170  1  0.00827913  0.20126821  0.19647765  1
  Pd  Pd171  1  0.60086600  0.80733467  0.19376588  1
  Pd  Pd172  1  0.60040901  0.39567269  0.20620402  1
  Pd  Pd173  1  0.19303615  0.59568073  0.39961821  1
  Pd  Pd174  1  0.19417507  0.59477537  -0.00567457  1
  Pd  Pd175  1  0.59334821  0.20488713  0.19724948  1
  Pd  Pd176  1  0.40518027  0.41302280  0.79674331  1
  Pd  Pd177  1  -0.00095632  0.20062363  0.60116815  1
  Pd  Pd178  1  0.19795826  0.81034669  0.79249294  1
  Pd  Pd179  1  0.39700643  0.00107313  0.00901813  1
  Pd  Pd180  1  0.00098956  0.00496954  0.00141133  1
  Pd  Pd181  1  0.59633722  0.19459958  -0.00968054  1
  Pd  Pd182  1  0.80712823  0.19875452  0.60142792  1
  Pd  Pd183  1  0.60135157  0.60280759  -0.00710432  1
  Pd  Pd184  1  0.80308516  0.80557931  0.59113161  1
  Pd  Pd185  1  0.59908487  0.60731210  0.58850978  1
  Pd  Pd186  1  0.19763118  0.19549523  0.39995407  1
  Pd  Pd187  1  0.40986155  0.59654494  0.39337460  1
  Pd  Pd188  1  0.39584594  0.79708228  0.40497299  1
  Pd  Pd189  1  -0.00062584  0.40684536  0.39889868  1
  Pd  Pd190  1  -0.00395920  0.19718987  0.00356263  1
  Pd  Pd191  1  0.80641145  0.59385024  0.60743470  1
  Pd  Pd192  1  0.80270470  0.40335765  0.79594076  1
  Pd  Pd193  1  -0.00412916  0.79059135  0.00670446  1
  Pd  Pd194  1  0.20080160  0.40091939  0.19523397  1
  Pd  Pd195  1  0.00427938  0.19511263  0.40242381  1
  Pd  Pd196  1  0.59697030  0.39471667  0.59906796  1
  Pd  Pd197  1  0.79760565  0.19894668  0.19366597  1
  Pd  Pd198  1  0.00637016  0.79108283  0.59639702  1
  Pd  Pd199  1  0.79961854  0.60136248  -0.00603629  1
  Rh  Rh200  1  0.60210443  0.00404059  0.79469152  1
  Rh  Rh201  1  0.00144264  0.01334468  0.40887784  1
  Rh  Rh202  1  0.60063236  0.80449609  0.79806819  1
  Rh  Rh203  1  0.40296134  0.19443634  0.19189632  1
  Rh  Rh204  1  0.00665223  0.40551500  0.01217828  1
  Rh  Rh205  1  0.59070058  0.79888068  0.59826460  1
  Rh  Rh206  1  0.59971455  0.80107517  -0.00268643  1
  Rh  Rh207  1  0.19319562  0.19439978  0.21198382  1
  Rh  Rh208  1  0.59840929  0.60442479  0.80434352  1
  Rh  Rh209  1  0.39586392  0.39689223  0.60117590  1
  Rh  Rh210  1  0.00807254  0.00122832  0.19151198  1
  Rh  Rh211  1  0.80395284  0.39662787  0.59462586  1
  Rh  Rh212  1  0.40625244  0.00068437  0.59968366  1
  Rh  Rh213  1  0.21227731  0.21625468  -0.01207173  1
  Rh  Rh214  1  0.79841906  0.59154218  0.39614023  1
  Rh  Rh215  1  0.59475555  -0.00387764  0.19283515  1
  Rh  Rh216  1  0.00381787  0.40478377  0.59967685  1
  Rh  Rh217  1  0.00111908  -0.00494391  0.80621540  1
  Rh  Rh218  1  0.00147802  0.60737732  0.19933584  1
  Rh  Rh219  1  0.39665322  0.79213276  0.78912396  1
  Rh  Rh220  1  0.20904651  0.59887746  0.20607818  1
  Rh  Rh221  1  0.19881449  0.79922670  -0.00353052  1
  Rh  Rh222  1  0.59272228  0.59248404  0.20945206  1
  Rh  Rh223  1  0.38674069  0.40472210  0.40467261  1
  Rh  Rh224  1  -0.01200572  0.59715098  0.79918297  1
  Rh  Rh225  1  0.79243706  0.60799551  0.19360395  1
  Rh  Rh226  1  0.00314271  0.00235611  0.59660304  1
  Rh  Rh227  1  0.19910440  0.39515014  0.80111790  1
  Rh  Rh228  1  0.60926116  0.78900838  0.40579018  1
  Rh  Rh229  1  0.00087374  0.39259304  0.79029526  1
  Rh  Rh230  1  0.79400087  0.19688397  0.80594470  1
  Rh  Rh231  1  0.80276423  -0.00623562  0.80365042  1
  Rh  Rh232  1  0.39722543  0.20196877  0.41403150  1
  Rh  Rh233  1  0.61242068  0.40426152  0.39668002  1
  Rh  Rh234  1  0.39821201  0.60641817  0.61029234  1
  Rh  Rh235  1  0.20765027  0.20179405  0.61023791  1
  Rh  Rh236  1  0.59876177  0.40508492  0.00473867  1
  Rh  Rh237  1  0.59817848  0.00082038  -0.00322375  1
  Rh  Rh238  1  0.20740975  0.59702017  0.80149732  1
  Rh  Rh239  1  0.20047139  -0.00784572  0.00034237  1
  Rh  Rh240  1  0.80435336  -0.00413092  0.59060959  1
  Rh  Rh241  1  0.19877174  0.80266442  0.20277146  1
  Rh  Rh242  1  0.80283935  0.01049652  0.00293649  1
  Rh  Rh243  1  -0.00558834  0.78591210  0.39184812  1
  Rh  Rh244  1  0.79964923  0.79833310  0.00219986  1
  Rh  Rh245  1  0.20287654  0.00984776  0.39238396  1
  Rh  Rh246  1  0.80011892  0.79985756  0.80561870  1
  Rh  Rh247  1  0.21034163  0.79196393  0.40664688  1
  Rh  Rh248  1  0.59639775  0.39521744  0.79994830  1
  Rh  Rh249  1  0.40029844  0.79310820  0.00967272  1
