# generated using pymatgen
data_ZrScNbPdRh
_symmetry_space_group_name_H-M   'P 1'
_cell_length_a   16.56055350
_cell_length_b   16.56107832
_cell_length_c   16.55988757
_cell_angle_alpha   90.02255119
_cell_angle_beta   89.99940152
_cell_angle_gamma   89.99408595
_symmetry_Int_Tables_number   1
_chemical_formula_structural   ZrScNbPdRh
_chemical_formula_sum   'Zr50 Sc50 Nb50 Pd50 Rh50'
_cell_volume   4541.72471725
_cell_formula_units_Z   50
loop_
 _symmetry_equiv_pos_site_id
 _symmetry_equiv_pos_as_xyz
  1  'x, y, z'
loop_
 _atom_site_type_symbol
 _atom_site_label
 _atom_site_symmetry_multiplicity
 _atom_site_fract_x
 _atom_site_fract_y
 _atom_site_fract_z
 _atom_site_occupancy
  Zr  Zr0  1  0.49624619  0.50319537  0.50886722  1
  Zr  Zr1  1  0.89107383  0.49925017  0.49809471  1
  Zr  Zr2  1  0.09889789  0.11074868  0.10063442  1
  Zr  Zr3  1  0.30124702  0.10230068  0.70860608  1
  Zr  Zr4  1  0.90115324  0.49719172  0.69982565  1
  Zr  Zr5  1  0.09571809  0.88470305  0.69939834  1
  Zr  Zr6  1  0.09767719  0.29765535  0.90449917  1
  Zr  Zr7  1  0.50348542  0.51093252  0.10208159  1
  Zr  Zr8  1  0.09791293  0.29610995  0.70335992  1
  Zr  Zr9  1  0.50327436  0.30224956  0.29936033  1
  Zr  Zr10  1  0.90337513  0.49557929  0.89981337  1
  Zr  Zr11  1  0.89459369  0.29892378  0.30242101  1
  Zr  Zr12  1  0.10035580  0.10121015  0.90153518  1
  Zr  Zr13  1  0.10118929  0.50407700  0.29667581  1
  Zr  Zr14  1  0.90122938  0.90161113  0.10416335  1
  Zr  Zr15  1  0.90049458  0.09192866  0.09431921  1
  Zr  Zr16  1  0.09722343  0.10156198  0.70698851  1
  Zr  Zr17  1  0.30167808  0.50429149  0.69669581  1
  Zr  Zr18  1  0.70281403  0.10134447  0.30234998  1
  Zr  Zr19  1  0.30431789  0.08955850  0.89684410  1
  Zr  Zr20  1  0.70344839  0.29415962  0.89756589  1
  Zr  Zr21  1  0.49937767  0.70817349  0.90127510  1
  Zr  Zr22  1  0.09336667  0.28920022  0.29230076  1
  Zr  Zr23  1  0.89836369  0.90160259  0.89939567  1
  Zr  Zr24  1  0.90534894  0.29738178  0.50350289  1
  Zr  Zr25  1  0.70454400  0.90098131  0.70043626  1
  Zr  Zr26  1  0.10157834  0.48839564  0.09867851  1
  Zr  Zr27  1  0.30324133  0.70118031  0.90126168  1
  Zr  Zr28  1  0.29378635  0.70106767  0.70651420  1
  Zr  Zr29  1  0.69590215  0.90242477  0.50297108  1
  Zr  Zr30  1  0.70537138  0.09253920  0.50797740  1
  Zr  Zr31  1  0.89759082  0.09828147  0.69404053  1
  Zr  Zr32  1  0.49741930  0.10225615  0.30063076  1
  Zr  Zr33  1  0.69713727  0.71306481  0.89721824  1
  Zr  Zr34  1  0.69693651  0.50910702  0.50549298  1
  Zr  Zr35  1  0.09963616  0.09503507  0.29906602  1
  Zr  Zr36  1  0.29696750  0.10346216  0.49584515  1
  Zr  Zr37  1  0.70229883  0.30191254  0.29612077  1
  Zr  Zr38  1  0.50410618  0.90305324  0.69785179  1
  Zr  Zr39  1  0.90117858  0.70636352  0.10235716  1
  Zr  Zr40  1  0.49511916  0.70448783  0.69938232  1
  Zr  Zr41  1  0.28608066  0.30102881  0.09378227  1
  Zr  Zr42  1  0.10384297  0.70150869  0.69518451  1
  Zr  Zr43  1  0.30064856  0.90728718  0.49508729  1
  Zr  Zr44  1  0.90336253  0.71352599  0.69847438  1
  Zr  Zr45  1  0.29960330  0.69900258  0.09647615  1
  Zr  Zr46  1  0.69485553  0.49019788  0.69655405  1
  Zr  Zr47  1  0.10176289  0.90262691  0.89998783  1
  Zr  Zr48  1  0.29258090  0.50203985  0.10057762  1
  Zr  Zr49  1  0.10294351  0.69187483  0.10251781  1
  Sc  Sc50  1  0.30629249  0.89306766  0.70167478  1
  Sc  Sc51  1  0.28877316  0.69505970  0.50319687  1
  Sc  Sc52  1  0.89067558  0.49376368  0.29916695  1
  Sc  Sc53  1  0.69694393  0.49427350  0.29984801  1
  Sc  Sc54  1  0.49641480  0.51389170  0.90275354  1
  Sc  Sc55  1  0.10381247  0.49830858  0.70299054  1
  Sc  Sc56  1  0.09693567  0.10099073  0.48770136  1
  Sc  Sc57  1  0.70650669  0.29687843  0.10126576  1
  Sc  Sc58  1  0.30355376  0.29685132  0.31583396  1
  Sc  Sc59  1  0.70281379  0.10241840  0.08987741  1
  Sc  Sc60  1  0.50822995  0.69804274  0.29766159  1
  Sc  Sc61  1  0.89981273  0.10183138  0.90018600  1
  Sc  Sc62  1  0.50047113  0.90622499  0.90271689  1
  Sc  Sc63  1  0.09635966  0.70459938  0.31127967  1
  Sc  Sc64  1  0.50758922  0.28787935  0.89217907  1
  Sc  Sc65  1  0.09721803  0.91383752  0.10900126  1
  Sc  Sc66  1  0.28885261  0.09394010  0.09628970  1
  Sc  Sc67  1  0.90479626  0.49217419  0.09335581  1
  Sc  Sc68  1  0.69555985  0.70637838  0.29824868  1
  Sc  Sc69  1  0.70737030  0.48763033  0.89344442  1
  Sc  Sc70  1  0.89676399  0.71105050  0.30445148  1
  Sc  Sc71  1  0.90996481  0.69805190  0.89902595  1
  Sc  Sc72  1  0.29543268  0.50253555  0.30993715  1
  Sc  Sc73  1  0.29636894  0.90544476  0.08812693  1
  Sc  Sc74  1  0.89902303  0.09961075  0.49615782  1
  Sc  Sc75  1  0.10537065  0.69897854  0.89302633  1
  Sc  Sc76  1  0.70947300  0.30403231  0.50524519  1
  Sc  Sc77  1  0.89481640  0.89626216  0.49360039  1
  Sc  Sc78  1  0.50848717  0.69393681  0.50272710  1
  Sc  Sc79  1  0.69439576  0.90437545  0.89624799  1
  Sc  Sc80  1  0.49598385  0.08252494  0.50236896  1
  Sc  Sc81  1  0.70285838  0.89631171  0.09165844  1
  Sc  Sc82  1  0.90636314  0.09964402  0.30271982  1
  Sc  Sc83  1  0.29283102  0.29454073  0.89392342  1
  Sc  Sc84  1  0.69992471  0.09166301  0.70006028  1
  Sc  Sc85  1  0.29497847  0.09438989  0.30996664  1
  Sc  Sc86  1  0.50295440  0.50064126  0.31202912  1
  Sc  Sc87  1  0.48932448  0.31038439  0.49490609  1
  Sc  Sc88  1  0.10986980  0.29956508  0.50489404  1
  Sc  Sc89  1  0.70533555  0.89779832  0.30289921  1
  Sc  Sc90  1  0.69507834  0.09958672  0.90224131  1
  Sc  Sc91  1  0.28939447  0.30391159  0.69730582  1
  Sc  Sc92  1  0.09466726  0.50010900  0.90186993  1
  Sc  Sc93  1  0.51186741  0.29416163  0.10032538  1
  Sc  Sc94  1  0.51201345  0.89518285  0.30366163  1
  Sc  Sc95  1  0.50440541  0.30172603  0.70820847  1
  Sc  Sc96  1  0.70204759  0.71161462  0.69296784  1
  Sc  Sc97  1  0.90279841  0.29852369  0.10127875  1
  Sc  Sc98  1  0.89959640  0.29248915  0.70023204  1
  Sc  Sc99  1  0.51315958  0.70354780  0.09670760  1
  Nb  Nb100  1  0.29651956  0.48215650  0.50120891  1
  Nb  Nb101  1  0.49926594  0.09936902  0.89703128  1
  Nb  Nb102  1  0.50439903  0.50842612  0.69565162  1
  Nb  Nb103  1  0.89314865  0.69754408  0.49953129  1
  Nb  Nb104  1  0.69523966  0.29516073  0.70608055  1
  Nb  Nb105  1  0.30088139  0.30684975  0.50513785  1
  Nb  Nb106  1  0.49648987  0.10379468  0.71173976  1
  Nb  Nb107  1  0.30309470  0.70279407  0.29638688  1
  Nb  Nb108  1  0.29740574  0.90196835  0.29956536  1
  Nb  Nb109  1  0.29998908  0.89825360  0.90001336  1
  Nb  Nb110  1  0.09942662  0.90409312  0.30447310  1
  Nb  Nb111  1  0.10205099  0.29869997  0.09852094  1
  Nb  Nb112  1  0.10169625  0.50582474  0.49197547  1
  Nb  Nb113  1  0.90070389  0.89955481  0.70085067  1
  Nb  Nb114  1  0.30401973  0.50088771  0.90274392  1
  Nb  Nb115  1  0.09204734  0.70418312  0.50481422  1
  Nb  Nb116  1  0.50295113  0.90612587  0.10126616  1
  Nb  Nb117  1  0.91576220  0.90043932  0.29024728  1
  Nb  Nb118  1  0.71892958  0.70631712  0.49735003  1
  Nb  Nb119  1  0.10273986  0.89264473  0.50088751  1
  Nb  Nb120  1  0.69750493  0.50610399  0.10021502  1
  Nb  Nb121  1  0.69725189  0.69644376  0.09838826  1
  Nb  Nb122  1  0.49994254  0.09618795  0.09042314  1
  Nb  Nb123  1  0.49467219  0.89804154  0.50209034  1
  Nb  Nb124  1  0.89239322  0.30337897  0.89939664  1
  Nb  Nb125  1  0.20353962  0.80482512  0.20699323  1
  Nb  Nb126  1  0.00361961  0.80326425  0.00492155  1
  Nb  Nb127  1  0.39832156  0.80003898  0.39705477  1
  Nb  Nb128  1  0.19304398  -0.00342033  0.60000393  1
  Nb  Nb129  1  0.39811910  0.80430826  0.20175675  1
  Nb  Nb130  1  0.59838592  0.40278923  -0.00017427  1
  Nb  Nb131  1  0.00448342  -0.00988516  0.59880065  1
  Nb  Nb132  1  0.79657240  0.60161048  -0.00025741  1
  Nb  Nb133  1  0.79729458  0.60187281  0.19039346  1
  Nb  Nb134  1  -0.00011298  0.60331845  0.58857041  1
  Nb  Nb135  1  0.59428741  0.19753051  0.60017787  1
  Nb  Nb136  1  0.40184758  0.19720909  0.00098818  1
  Nb  Nb137  1  0.59727591  0.00286937  0.19425322  1
  Nb  Nb138  1  0.60133091  0.19884121  0.40777205  1
  Nb  Nb139  1  0.40009511  0.40831097  0.80349978  1
  Nb  Nb140  1  0.40329173  0.39684859  -0.00069137  1
  Nb  Nb141  1  0.79745922  0.60165819  0.79997590  1
  Nb  Nb142  1  0.40409526  -0.00180652  0.19770911  1
  Nb  Nb143  1  0.39946407  0.39953062  0.19589179  1
  Nb  Nb144  1  -0.00499381  0.60011932  0.20100501  1
  Nb  Nb145  1  0.40197967  0.19973932  0.60240442  1
  Nb  Nb146  1  0.60289314  0.60137695  0.79278538  1
  Nb  Nb147  1  0.39943244  0.19762758  0.19229387  1
  Nb  Nb148  1  0.00308196  0.40256469  0.40315153  1
  Nb  Nb149  1  0.39673237  0.60258846  0.20135496  1
  Pd  Pd150  1  0.60890478  0.60603897  0.40095279  1
  Pd  Pd151  1  0.19529590  0.59488966  -0.00945446  1
  Pd  Pd152  1  0.79466499  0.40150238  0.00733293  1
  Pd  Pd153  1  0.59877130  0.00244774  0.39701904  1
  Pd  Pd154  1  0.58774548  0.40956714  0.80978287  1
  Pd  Pd155  1  0.80538228  0.79766628  -0.00477894  1
  Pd  Pd156  1  0.79812424  0.00409972  0.80503655  1
  Pd  Pd157  1  -0.00850948  0.59678622  0.39737878  1
  Pd  Pd158  1  0.59803252  0.79639088  0.40926992  1
  Pd  Pd159  1  0.80658718  0.19380489  0.19494650  1
  Pd  Pd160  1  0.40534580  0.80654012  0.00593644  1
  Pd  Pd161  1  0.39426933  0.79242662  0.58978402  1
  Pd  Pd162  1  0.39617964  0.60320454  0.40111943  1
  Pd  Pd163  1  0.79375613  0.60175387  0.38542285  1
  Pd  Pd164  1  0.19482937  0.59282866  0.59693823  1
  Pd  Pd165  1  0.60217804  0.79714593  0.59444139  1
  Pd  Pd166  1  0.59366769  0.38832950  0.59532113  1
  Pd  Pd167  1  0.01023256  0.40822207  0.59346509  1
  Pd  Pd168  1  0.20815097  0.39206703  0.21374486  1
  Pd  Pd169  1  -0.00475491  0.80408404  0.40370169  1
  Pd  Pd170  1  0.60012478  0.19174025  0.20006085  1
  Pd  Pd171  1  -0.00186272  0.39294839  0.80044021  1
  Pd  Pd172  1  -0.00141739  0.60261452  0.79027738  1
  Pd  Pd173  1  0.20324572  0.40562104  0.80425627  1
  Pd  Pd174  1  -0.00339984  -0.00065780  0.79574781  1
  Pd  Pd175  1  0.20150650  -0.01093768  0.79237341  1
  Pd  Pd176  1  0.00482329  0.18914141  0.59384501  1
  Pd  Pd177  1  0.80108863  0.39216478  0.60707783  1
  Pd  Pd178  1  0.40577245  0.19952187  0.40737611  1
  Pd  Pd179  1  0.39234981  0.60522111  0.59359047  1
  Pd  Pd180  1  -0.00869984  0.20423798  -0.00196897  1
  Pd  Pd181  1  0.20411401  0.79799678  0.39943697  1
  Pd  Pd182  1  -0.00439442  0.40255127  0.20440547  1
  Pd  Pd183  1  0.40458822  0.39259945  0.61350707  1
  Pd  Pd184  1  0.79859577  0.19211150  0.79714911  1
  Pd  Pd185  1  0.39340995  0.00555832  0.60793100  1
  Pd  Pd186  1  0.59799820  0.40416761  0.19384888  1
  Pd  Pd187  1  0.19107253  0.39220409  0.39461091  1
  Pd  Pd188  1  0.61144811  0.59529852  -0.01609405  1
  Pd  Pd189  1  0.79355555  0.00013237  0.20120429  1
  Pd  Pd190  1  0.21163672  0.19690557  0.20788853  1
  Pd  Pd191  1  0.20168936  0.60615727  0.40089324  1
  Pd  Pd192  1  0.19033299  0.80567609  0.00769741  1
  Pd  Pd193  1  0.20225768  0.19301991  0.59932232  1
  Pd  Pd194  1  0.79308529  0.79921308  0.20284794  1
  Pd  Pd195  1  0.40374676  0.59971370  0.79761713  1
  Pd  Pd196  1  0.79577740  0.20001038  0.40536583  1
  Pd  Pd197  1  0.80177134  0.60367540  0.61133899  1
  Pd  Pd198  1  0.80957002  -0.00625030  0.39278317  1
  Pd  Pd199  1  0.60601251  0.39501993  0.41171201  1
  Rh  Rh200  1  0.20400795  -0.00281104  0.20257815  1
  Rh  Rh201  1  0.19131564  -0.00270670  0.40465370  1
  Rh  Rh202  1  0.40443725  -0.00920802  0.80045768  1
  Rh  Rh203  1  0.59801495  0.20310174  -0.00430760  1
  Rh  Rh204  1  0.79726236  0.00024656  -0.00549266  1
  Rh  Rh205  1  0.59390274  0.80079136  0.79636150  1
  Rh  Rh206  1  0.00097162  0.38983219  -0.00199742  1
  Rh  Rh207  1  0.20704392  0.80549684  0.59646533  1
  Rh  Rh208  1  -0.00290440  0.60608163  0.00825889  1
  Rh  Rh209  1  0.39766465  0.40815186  0.39565032  1
  Rh  Rh210  1  0.60990147  0.61095135  0.60378847  1
  Rh  Rh211  1  0.19928881  0.40235135  -0.00893288  1
  Rh  Rh212  1  0.20225863  0.59626549  0.80479258  1
  Rh  Rh213  1  0.60218379  0.59969527  0.21027665  1
  Rh  Rh214  1  0.19531751  0.00170246  -0.00269695  1
  Rh  Rh215  1  0.59389102  0.00340577  0.60513182  1
  Rh  Rh216  1  0.20475587  0.80239566  0.80436029  1
  Rh  Rh217  1  0.39749878  0.59970629  0.00840010  1
  Rh  Rh218  1  0.59806298  0.80782857  0.00228408  1
  Rh  Rh219  1  0.19814639  0.20559420  0.40145165  1
  Rh  Rh220  1  -0.00601816  0.19625893  0.19540125  1
  Rh  Rh221  1  0.39521619  0.21014167  0.80020039  1
  Rh  Rh222  1  0.80285432  0.80882581  0.59664031  1
  Rh  Rh223  1  0.80030283  0.39817684  0.40234072  1
  Rh  Rh224  1  0.79773271  0.40507802  0.19406385  1
  Rh  Rh225  1  0.80408575  0.20143513  -0.00201388  1
  Rh  Rh226  1  -0.01057952  0.80023333  0.58907703  1
  Rh  Rh227  1  0.80560289  0.39759940  0.79218499  1
  Rh  Rh228  1  0.79015027  0.20066543  0.60546638  1
  Rh  Rh229  1  0.39917232  0.00224311  -0.00078947  1
  Rh  Rh230  1  0.80279235  0.80655963  0.39486904  1
  Rh  Rh231  1  -0.00008516  0.80065315  0.81122820  1
  Rh  Rh232  1  0.19835223  0.19938332  0.80330578  1
  Rh  Rh233  1  0.59659347  0.00223840  0.79928952  1
  Rh  Rh234  1  0.20514854  0.19377933  -0.00676609  1
  Rh  Rh235  1  0.40115331  0.80645972  0.80633564  1
  Rh  Rh236  1  0.00005759  -0.00875796  0.40363404  1
  Rh  Rh237  1  0.00112143  0.00806268  0.20177470  1
  Rh  Rh238  1  0.60106406  0.80821737  0.19280841  1
  Rh  Rh239  1  0.00242167  -0.00369652  0.00026231  1
  Rh  Rh240  1  0.60804323  0.18950873  0.79427279  1
  Rh  Rh241  1  -0.00790644  0.20435934  0.80665267  1
  Rh  Rh242  1  0.01482105  0.79509267  0.19851698  1
  Rh  Rh243  1  0.40997594  -0.01272334  0.38939946  1
  Rh  Rh244  1  0.80422712  0.79965161  0.80272604  1
  Rh  Rh245  1  0.19348872  0.40545272  0.60060607  1
  Rh  Rh246  1  0.00138715  0.20900780  0.40310870  1
  Rh  Rh247  1  0.19661176  0.60951951  0.21052237  1
  Rh  Rh248  1  0.60216507  0.00007911  0.00082835  1
  Rh  Rh249  1  0.81141782  -0.00680889  0.59953743  1
