# generated using pymatgen
data_ZrScNbPdRh
_symmetry_space_group_name_H-M   'P 1'
_cell_length_a   16.56110542
_cell_length_b   16.55733955
_cell_length_c   16.56210751
_cell_angle_alpha   89.98725455
_cell_angle_beta   90.02045433
_cell_angle_gamma   89.99849032
_symmetry_Int_Tables_number   1
_chemical_formula_structural   ZrScNbPdRh
_chemical_formula_sum   'Zr50 Sc50 Nb50 Pd50 Rh50'
_cell_volume   4541.45941854
_cell_formula_units_Z   50
loop_
 _symmetry_equiv_pos_site_id
 _symmetry_equiv_pos_as_xyz
  1  'x, y, z'
loop_
 _atom_site_type_symbol
 _atom_site_label
 _atom_site_symmetry_multiplicity
 _atom_site_fract_x
 _atom_site_fract_y
 _atom_site_fract_z
 _atom_site_occupancy
  Zr  Zr0  1  0.89883202  0.30988928  0.10298859  1
  Zr  Zr1  1  0.30660251  0.30816796  0.90437706  1
  Zr  Zr2  1  0.50644353  0.10212683  0.50720064  1
  Zr  Zr3  1  0.50407745  0.70799439  0.69948113  1
  Zr  Zr4  1  0.70106052  0.50147716  0.70349139  1
  Zr  Zr5  1  0.70031256  0.30224463  0.10437470  1
  Zr  Zr6  1  0.49740115  0.49965250  0.48610603  1
  Zr  Zr7  1  0.49154780  0.30956682  0.29297606  1
  Zr  Zr8  1  0.30278645  0.69282161  0.68460285  1
  Zr  Zr9  1  0.70139935  0.09782765  0.69399484  1
  Zr  Zr10  1  0.69340268  0.90073637  0.29904681  1
  Zr  Zr11  1  0.10642613  0.90051994  0.89912181  1
  Zr  Zr12  1  0.50622502  0.09581060  0.70060768  1
  Zr  Zr13  1  0.91659202  0.49493901  0.29691386  1
  Zr  Zr14  1  0.50176196  0.89947649  0.70521700  1
  Zr  Zr15  1  0.69764033  0.90501858  0.70578501  1
  Zr  Zr16  1  0.30293874  0.89137931  0.69972551  1
  Zr  Zr17  1  0.90023412  0.10664576  0.89698975  1
  Zr  Zr18  1  0.90119839  0.09125888  0.10150950  1
  Zr  Zr19  1  0.50538653  0.90216423  0.90168089  1
  Zr  Zr20  1  0.70219837  0.69159310  0.69867620  1
  Zr  Zr21  1  0.50032714  0.29487166  0.69499674  1
  Zr  Zr22  1  0.30218712  0.70026647  0.09700065  1
  Zr  Zr23  1  0.89279401  0.70233581  0.50883063  1
  Zr  Zr24  1  0.70266752  0.50569628  0.89160174  1
  Zr  Zr25  1  0.50142682  0.29527070  0.09215700  1
  Zr  Zr26  1  0.90392204  0.69939071  0.89934188  1
  Zr  Zr27  1  0.90288483  0.49806465  0.90155268  1
  Zr  Zr28  1  0.30620816  0.49037569  0.29939424  1
  Zr  Zr29  1  0.30080351  0.90609084  0.30047813  1
  Zr  Zr30  1  0.69665115  0.70240057  0.49707629  1
  Zr  Zr31  1  0.69969609  0.70302392  0.29294702  1
  Zr  Zr32  1  0.49921373  0.50318446  0.30079719  1
  Zr  Zr33  1  0.90332808  0.29394301  0.70920695  1
  Zr  Zr34  1  0.90636847  0.90225749  0.50286500  1
  Zr  Zr35  1  0.10398397  0.69910687  0.10540100  1
  Zr  Zr36  1  0.49395649  0.49262751  0.90264423  1
  Zr  Zr37  1  0.70092250  0.09910863  0.10987931  1
  Zr  Zr38  1  0.50535852  0.48854776  0.10685455  1
  Zr  Zr39  1  0.89439774  0.09463666  0.49882478  1
  Zr  Zr40  1  0.09593236  0.51079050  0.89337618  1
  Zr  Zr41  1  0.69905111  0.09317712  0.30071375  1
  Zr  Zr42  1  0.89882402  0.69961675  0.29563337  1
  Zr  Zr43  1  0.70817680  0.28545196  0.29929850  1
  Zr  Zr44  1  0.28714454  0.10308480  0.10449398  1
  Zr  Zr45  1  0.30404484  0.90266446  0.90234335  1
  Zr  Zr46  1  0.30478872  0.51586686  0.50153413  1
  Zr  Zr47  1  0.09500241  0.88904189  0.29807206  1
  Zr  Zr48  1  0.09821434  0.50177480  0.10425714  1
  Zr  Zr49  1  0.09933861  0.30056476  0.49223445  1
  Sc  Sc50  1  0.88843660  0.09670882  0.29757761  1
  Sc  Sc51  1  0.10351960  0.71075185  0.49855955  1
  Sc  Sc52  1  0.29240630  0.09250661  0.90961200  1
  Sc  Sc53  1  0.69356278  0.51300278  0.29728383  1
  Sc  Sc54  1  0.29663513  0.09359619  0.49368223  1
  Sc  Sc55  1  0.50415922  0.30322411  0.50149227  1
  Sc  Sc56  1  0.51016859  0.70529410  0.30097189  1
  Sc  Sc57  1  0.69825672  0.50398671  0.50340876  1
  Sc  Sc58  1  0.89502164  0.29467048  0.50176677  1
  Sc  Sc59  1  0.50255030  0.90002484  0.09620485  1
  Sc  Sc60  1  0.28751630  0.89749590  0.50246393  1
  Sc  Sc61  1  0.29322964  0.49961785  0.09111507  1
  Sc  Sc62  1  0.30683189  0.30058729  0.70051898  1
  Sc  Sc63  1  0.09714495  0.90018156  0.50085217  1
  Sc  Sc64  1  0.10559786  0.89696517  0.69723116  1
  Sc  Sc65  1  0.30146269  0.69458492  0.90470817  1
  Sc  Sc66  1  0.50257199  0.70520717  0.90165630  1
  Sc  Sc67  1  0.69716036  0.70501873  0.89592218  1
  Sc  Sc68  1  0.50953051  0.89297033  0.50002918  1
  Sc  Sc69  1  0.49895187  0.69792640  0.50348744  1
  Sc  Sc70  1  0.10994951  0.08894020  0.28667116  1
  Sc  Sc71  1  0.30233303  0.09456676  0.29390393  1
  Sc  Sc72  1  0.89571192  0.89449949  0.10507098  1
  Sc  Sc73  1  0.89240528  0.49914108  0.71407192  1
  Sc  Sc74  1  0.08829146  0.29678455  0.90031561  1
  Sc  Sc75  1  0.88929538  0.89278206  0.90513025  1
  Sc  Sc76  1  0.69965501  0.89761263  0.09666667  1
  Sc  Sc77  1  0.89852422  0.50476423  0.49427703  1
  Sc  Sc78  1  0.11017306  0.29604056  0.09615170  1
  Sc  Sc79  1  0.09368259  0.09115133  0.50342394  1
  Sc  Sc80  1  0.89555921  0.10119966  0.69561163  1
  Sc  Sc81  1  0.30308760  0.09680085  0.69932617  1
  Sc  Sc82  1  0.30304685  0.50416898  0.89915331  1
  Sc  Sc83  1  0.90025778  0.30137841  0.29606905  1
  Sc  Sc84  1  0.09313823  0.49954570  0.48598053  1
  Sc  Sc85  1  0.49854033  0.90369052  0.29087227  1
  Sc  Sc86  1  0.29336484  0.70967689  0.28814720  1
  Sc  Sc87  1  0.29928833  0.29873543  0.10151861  1
  Sc  Sc88  1  0.31202888  0.90199082  0.10473113  1
  Sc  Sc89  1  0.49576959  0.50905028  0.70591381  1
  Sc  Sc90  1  0.29872527  0.29760865  0.49228246  1
  Sc  Sc91  1  0.10694715  0.69675587  0.71057286  1
  Sc  Sc92  1  0.89857237  0.30199931  0.89887703  1
  Sc  Sc93  1  0.08758691  0.10019832  0.70019813  1
  Sc  Sc94  1  0.70718763  0.29389245  0.90524453  1
  Sc  Sc95  1  0.70776538  0.30009841  0.69575337  1
  Sc  Sc96  1  0.09678496  0.69852091  0.90137642  1
  Sc  Sc97  1  0.70820769  0.09086246  0.90342792  1
  Sc  Sc98  1  0.69919707  0.29915990  0.50638435  1
  Sc  Sc99  1  0.50029200  0.71158983  0.09973292  1
  Nb  Nb100  1  0.30011152  0.70598447  0.49678585  1
  Nb  Nb101  1  0.70429693  0.09557644  0.49689570  1
  Nb  Nb102  1  0.10344135  0.69235602  0.29482617  1
  Nb  Nb103  1  0.49942957  0.29837288  0.90123511  1
  Nb  Nb104  1  0.29562426  0.50318522  0.69918779  1
  Nb  Nb105  1  0.10065876  0.09896288  0.90557086  1
  Nb  Nb106  1  0.89985480  0.89644979  0.69911950  1
  Nb  Nb107  1  0.09991478  0.50212916  0.70157461  1
  Nb  Nb108  1  0.09534552  0.90898542  0.10328444  1
  Nb  Nb109  1  0.70388633  0.91033538  0.49513063  1
  Nb  Nb110  1  0.69363463  0.90090770  0.90231489  1
  Nb  Nb111  1  0.09737181  0.30070459  0.70046805  1
  Nb  Nb112  1  0.10191637  0.50180691  0.29756474  1
  Nb  Nb113  1  0.70132511  0.69468901  0.10936979  1
  Nb  Nb114  1  0.10071714  0.30901151  0.30221525  1
  Nb  Nb115  1  0.50110152  0.10296918  0.90572314  1
  Nb  Nb116  1  0.50285071  0.10239170  0.29259936  1
  Nb  Nb117  1  0.10254929  0.09897740  0.09522431  1
  Nb  Nb118  1  0.88840847  0.69955540  0.10127549  1
  Nb  Nb119  1  0.50067800  0.10317677  0.10693587  1
  Nb  Nb120  1  0.29346633  0.29542810  0.30056077  1
  Nb  Nb121  1  0.89578595  0.49789364  0.10161427  1
  Nb  Nb122  1  0.70133130  0.50563056  0.10317561  1
  Nb  Nb123  1  0.89838417  0.89998505  0.29982425  1
  Nb  Nb124  1  0.89651449  0.70375650  0.69814648  1
  Nb  Nb125  1  0.40621452  0.19711656  0.39263959  1
  Nb  Nb126  1  0.00381937  0.40367702  0.60660157  1
  Nb  Nb127  1  0.79979133  0.59995580  0.00921911  1
  Nb  Nb128  1  0.59512727  0.39154484  0.80289223  1
  Nb  Nb129  1  0.19473559  0.20651278  0.60483317  1
  Nb  Nb130  1  0.19667650  0.40055062  0.79231738  1
  Nb  Nb131  1  0.59586678  0.19913395  0.80556676  1
  Nb  Nb132  1  0.80099623  0.80738043  0.39929972  1
  Nb  Nb133  1  0.19816400  0.80572010  0.00508891  1
  Nb  Nb134  1  0.59811649  0.19479271  0.39571487  1
  Nb  Nb135  1  0.39353751  0.40846394  0.59996556  1
  Nb  Nb136  1  0.39460765  0.80129951  0.40098758  1
  Nb  Nb137  1  0.40371680  -0.00573340  0.60044358  1
  Nb  Nb138  1  -0.00082242  0.59863540  0.60708090  1
  Nb  Nb139  1  0.60702942  0.59765304  0.00704627  1
  Nb  Nb140  1  0.40380853  0.19804806  0.80915986  1
  Nb  Nb141  1  0.00432833  0.19867548  0.38937772  1
  Nb  Nb142  1  -0.00236344  -0.00411752  0.80631327  1
  Nb  Nb143  1  0.00462737  0.00020002  -0.00265407  1
  Nb  Nb144  1  0.19953876  0.20338382  0.79934696  1
  Nb  Nb145  1  0.19897538  0.60484479  0.39018198  1
  Nb  Nb146  1  0.40035467  0.59852964  0.19903416  1
  Nb  Nb147  1  0.19755078  0.40360849  0.60341083  1
  Nb  Nb148  1  0.79830464  0.40111297  0.39613225  1
  Nb  Nb149  1  0.00633329  0.19972428  0.20106978  1
  Pd  Pd150  1  0.79254417  0.40909575  0.21200814  1
  Pd  Pd151  1  0.00557134  0.61256274  0.40685886  1
  Pd  Pd152  1  0.61279735  0.39240021  0.39317964  1
  Pd  Pd153  1  0.20120323  0.39854270  0.19747970  1
  Pd  Pd154  1  0.39530286  0.20021505  0.20172561  1
  Pd  Pd155  1  0.59090042  0.40971610  0.60847413  1
  Pd  Pd156  1  0.79074843  0.81068422  0.59768159  1
  Pd  Pd157  1  0.19341586  0.00946103  0.79064978  1
  Pd  Pd158  1  0.60996235  0.39686860  0.21011349  1
  Pd  Pd159  1  0.79829816  0.59851771  0.39473123  1
  Pd  Pd160  1  0.38763580  0.19702417  0.59320920  1
  Pd  Pd161  1  0.59320610  0.59436650  0.59692023  1
  Pd  Pd162  1  0.80216055  0.19823418  0.00660284  1
  Pd  Pd163  1  0.20773444  0.40959785  0.40589750  1
  Pd  Pd164  1  0.60152251  0.00633213  0.00450477  1
  Pd  Pd165  1  0.60847868  0.19264413  -0.00230479  1
  Pd  Pd166  1  0.80738757  -0.00250354  0.80133349  1
  Pd  Pd167  1  0.00293266  0.00714392  0.38811990  1
  Pd  Pd168  1  0.00110993  0.20314127  0.59049112  1
  Pd  Pd169  1  -0.00368477  0.79592672  0.19508188  1
  Pd  Pd170  1  0.61039823  0.40300762  -0.00767968  1
  Pd  Pd171  1  0.18579752  0.59913464  0.58805092  1
  Pd  Pd172  1  0.40020065  0.60768567  0.79966932  1
  Pd  Pd173  1  0.79131107  0.79421161  0.00179165  1
  Pd  Pd174  1  -0.00526788  0.60310900  0.19283607  1
  Pd  Pd175  1  0.20189645  0.00668621  0.60531644  1
  Pd  Pd176  1  0.81044586  0.40641083  0.59456524  1
  Pd  Pd177  1  0.40291735  0.00722774  0.00877303  1
  Pd  Pd178  1  -0.00310383  0.19890251  0.00849167  1
  Pd  Pd179  1  -0.00567649  0.60269452  0.01050673  1
  Pd  Pd180  1  -0.00404569  0.79275643  0.39911083  1
  Pd  Pd181  1  0.79472645  0.79778743  0.79955748  1
  Pd  Pd182  1  0.40818052  -0.00202556  0.40683581  1
  Pd  Pd183  1  0.00930859  0.79323329  0.60939380  1
  Pd  Pd184  1  0.19175717  0.40238856  -0.01264433  1
  Pd  Pd185  1  0.19831390  0.18863043  0.39637751  1
  Pd  Pd186  1  0.39586336  0.79151059  0.80530526  1
  Pd  Pd187  1  0.41294778  0.59778059  0.00923428  1
  Pd  Pd188  1  0.20085376  0.81013976  0.19227820  1
  Pd  Pd189  1  0.39162968  0.19294047  -0.00018604  1
  Pd  Pd190  1  0.00062253  0.80582211  0.79615905  1
  Pd  Pd191  1  0.58973845  0.00274353  0.39938874  1
  Pd  Pd192  1  0.00388894  0.80459096  0.00775797  1
  Pd  Pd193  1  0.20879682  0.79054997  0.80565439  1
  Pd  Pd194  1  0.39956578  0.00653648  0.79931187  1
  Pd  Pd195  1  0.39289973  0.61805117  0.38503011  1
  Pd  Pd196  1  0.00685472  0.40037564  0.00256517  1
  Pd  Pd197  1  0.19048347  -0.00152850  0.39904966  1
  Pd  Pd198  1  0.79350200  0.40610710  -0.00337719  1
  Pd  Pd199  1  0.60948431  0.80485719  0.60036763  1
  Rh  Rh200  1  0.81187532  0.19857790  0.19102952  1
  Rh  Rh201  1  0.79801064  -0.00904151  0.20041008  1
  Rh  Rh202  1  0.39695765  0.80806529  0.58838196  1
  Rh  Rh203  1  0.19704352  0.79563002  0.60244535  1
  Rh  Rh204  1  0.59697867  -0.00279592  0.19263236  1
  Rh  Rh205  1  0.39528693  0.80370965  -0.00418468  1
  Rh  Rh206  1  0.40059108  0.39486740  0.79131779  1
  Rh  Rh207  1  0.39874176  0.40088183  0.00817744  1
  Rh  Rh208  1  0.79860646  0.19648119  0.59766601  1
  Rh  Rh209  1  0.60662778  0.79461391  0.00076493  1
  Rh  Rh210  1  0.20228060  -0.00836735  0.19530000  1
  Rh  Rh211  1  0.19459469  0.60647908  -0.00288310  1
  Rh  Rh212  1  0.80454304  -0.00743203  0.39675134  1
  Rh  Rh213  1  0.58622528  0.60569348  0.19123986  1
  Rh  Rh214  1  0.40336890  0.00588169  0.19362074  1
  Rh  Rh215  1  0.80248956  -0.00418141  0.60164580  1
  Rh  Rh216  1  0.60196486  0.00572776  0.81092825  1
  Rh  Rh217  1  0.79736882  0.80637240  0.20595576  1
  Rh  Rh218  1  0.80433828  -0.00539918  0.00124142  1
  Rh  Rh219  1  0.60015464  -0.00642986  0.59533411  1
  Rh  Rh220  1  -0.00213185  0.00230793  0.19884293  1
  Rh  Rh221  1  -0.00767525  0.60618033  0.79061017  1
  Rh  Rh222  1  0.59707300  0.20376067  0.20208270  1
  Rh  Rh223  1  0.20133232  0.79794710  0.39494687  1
  Rh  Rh224  1  0.40610956  0.79608906  0.20851650  1
  Rh  Rh225  1  -0.00445023  -0.00633706  0.61243576  1
  Rh  Rh226  1  0.20266340  0.20486040  -0.01022313  1
  Rh  Rh227  1  0.21006458  0.58951305  0.20567253  1
  Rh  Rh228  1  0.59005361  0.59630487  0.80972256  1
  Rh  Rh229  1  0.80595357  0.60929309  0.80559322  1
  Rh  Rh230  1  0.60106926  0.80401031  0.19441691  1
  Rh  Rh231  1  0.00127668  0.40191003  0.79950680  1
  Rh  Rh232  1  0.60185713  0.60508477  0.40405517  1
  Rh  Rh233  1  0.60212037  0.80076127  0.40110133  1
  Rh  Rh234  1  0.80824969  0.59337707  0.60652613  1
  Rh  Rh235  1  0.00418974  0.19228059  0.80331392  1
  Rh  Rh236  1  0.19718482  -0.00849714  0.00869143  1
  Rh  Rh237  1  0.20678154  0.59777559  0.80505929  1
  Rh  Rh238  1  -0.01374744  0.38921044  0.40604963  1
  Rh  Rh239  1  0.01110940  0.39295808  0.19369017  1
  Rh  Rh240  1  0.39623036  0.38779379  0.40832697  1
  Rh  Rh241  1  0.60521111  0.80123427  0.80118486  1
  Rh  Rh242  1  0.80893965  0.59192289  0.20131700  1
  Rh  Rh243  1  0.19361098  0.20560478  0.20705716  1
  Rh  Rh244  1  0.61197858  0.19690256  0.59596526  1
  Rh  Rh245  1  0.40893936  0.59811852  0.60102163  1
  Rh  Rh246  1  0.79937443  0.20301305  0.40673155  1
  Rh  Rh247  1  0.79301865  0.39145530  0.80406264  1
  Rh  Rh248  1  0.39017528  0.40067385  0.19052719  1
  Rh  Rh249  1  0.79206820  0.20085880  0.79740169  1
