# generated using pymatgen
data_ZrScNbPdRh
_symmetry_space_group_name_H-M   'P 1'
_cell_length_a   16.55333544
_cell_length_b   16.55139063
_cell_length_c   16.55507189
_cell_angle_alpha   90.00660256
_cell_angle_beta   90.03158016
_cell_angle_gamma   89.99655493
_symmetry_Int_Tables_number   1
_chemical_formula_structural   ZrScNbPdRh
_chemical_formula_sum   'Zr50 Sc50 Nb50 Pd50 Rh50'
_cell_volume   4535.76980667
_cell_formula_units_Z   50
loop_
 _symmetry_equiv_pos_site_id
 _symmetry_equiv_pos_as_xyz
  1  'x, y, z'
loop_
 _atom_site_type_symbol
 _atom_site_label
 _atom_site_symmetry_multiplicity
 _atom_site_fract_x
 _atom_site_fract_y
 _atom_site_fract_z
 _atom_site_occupancy
  Zr  Zr0  1  0.30447991  0.49526474  0.50693360  1
  Zr  Zr1  1  0.89696795  0.50195302  0.49828469  1
  Zr  Zr2  1  0.29604397  0.50083283  0.89571271  1
  Zr  Zr3  1  0.90468201  0.09630758  0.50132090  1
  Zr  Zr4  1  0.09561160  0.50215595  0.69395735  1
  Zr  Zr5  1  0.09956611  0.69330070  0.30133909  1
  Zr  Zr6  1  0.70100707  0.11099267  0.10747496  1
  Zr  Zr7  1  0.49924841  0.49561890  0.90103808  1
  Zr  Zr8  1  0.09989463  0.49586145  0.30378346  1
  Zr  Zr9  1  0.30264323  0.90218038  0.90145338  1
  Zr  Zr10  1  0.91221614  0.09765202  0.89587784  1
  Zr  Zr11  1  0.10223258  0.69825152  0.50998421  1
  Zr  Zr12  1  0.89607319  0.90207432  0.89523563  1
  Zr  Zr13  1  0.10890625  0.89393029  0.30114802  1
  Zr  Zr14  1  0.30484183  0.69689132  0.50059162  1
  Zr  Zr15  1  0.10028242  0.50776371  0.10060942  1
  Zr  Zr16  1  0.09904646  0.09843759  0.69482553  1
  Zr  Zr17  1  0.69968943  0.49925808  0.89861746  1
  Zr  Zr18  1  0.69133210  0.29447667  0.29396814  1
  Zr  Zr19  1  0.89609577  0.89656186  0.50888967  1
  Zr  Zr20  1  0.70100829  0.89517271  0.49814082  1
  Zr  Zr21  1  0.11765522  0.11038316  0.31012525  1
  Zr  Zr22  1  0.49452459  0.50303942  0.49158709  1
  Zr  Zr23  1  0.89887467  0.69962697  0.49464335  1
  Zr  Zr24  1  0.09354465  0.90797037  0.90642684  1
  Zr  Zr25  1  0.50074053  0.88707971  0.10276303  1
  Zr  Zr26  1  0.29614312  0.70389102  0.30492766  1
  Zr  Zr27  1  0.10810852  0.69622530  0.10495491  1
  Zr  Zr28  1  0.90252787  0.50399816  0.30387728  1
  Zr  Zr29  1  0.70437272  0.90861691  0.69897361  1
  Zr  Zr30  1  0.09879687  0.89722404  0.10263466  1
  Zr  Zr31  1  0.50917221  0.11257376  0.29703332  1
  Zr  Zr32  1  0.69129836  0.09860227  0.70123784  1
  Zr  Zr33  1  0.89842396  0.90214927  0.10240036  1
  Zr  Zr34  1  0.88571123  0.49177422  0.09922636  1
  Zr  Zr35  1  0.69022953  0.09516024  0.50739087  1
  Zr  Zr36  1  0.30305947  0.30730404  0.69257294  1
  Zr  Zr37  1  0.89724184  0.29940005  0.69409370  1
  Zr  Zr38  1  0.10597109  0.30393215  0.69669154  1
  Zr  Zr39  1  0.69782186  0.68681357  0.70445936  1
  Zr  Zr40  1  0.49511136  0.30561828  0.29843073  1
  Zr  Zr41  1  0.49332494  0.30177077  0.50487444  1
  Zr  Zr42  1  0.30782304  0.10734492  0.10263684  1
  Zr  Zr43  1  0.10682693  0.29773306  0.10497256  1
  Zr  Zr44  1  0.70573717  0.69807388  0.90388853  1
  Zr  Zr45  1  0.89206191  0.89930460  0.30274862  1
  Zr  Zr46  1  0.30835180  0.30125565  0.88868803  1
  Zr  Zr47  1  0.69367731  0.29683725  0.70171393  1
  Zr  Zr48  1  0.29645056  0.69967094  0.69646571  1
  Zr  Zr49  1  0.50204220  0.70056576  0.49379958  1
  Sc  Sc50  1  0.50068662  0.50159382  0.70666080  1
  Sc  Sc51  1  0.70423221  0.70285332  0.10228469  1
  Sc  Sc52  1  0.11077945  0.90516842  0.50402924  1
  Sc  Sc53  1  0.09543235  0.50182902  0.89978433  1
  Sc  Sc54  1  0.88442729  0.09616121  0.29269655  1
  Sc  Sc55  1  0.90207176  0.50345253  0.90287198  1
  Sc  Sc56  1  0.30494954  0.10742779  0.68781706  1
  Sc  Sc57  1  0.30147908  0.51741609  0.09779372  1
  Sc  Sc58  1  0.11204043  0.09256980  0.09712166  1
  Sc  Sc59  1  0.69133802  0.09621579  0.90555571  1
  Sc  Sc60  1  0.30502954  0.89991575  0.49946946  1
  Sc  Sc61  1  0.10057010  0.50297805  0.49058102  1
  Sc  Sc62  1  0.69936066  0.29146620  0.51160593  1
  Sc  Sc63  1  0.29977144  0.90868396  0.10050113  1
  Sc  Sc64  1  0.50032652  0.70591724  0.29770118  1
  Sc  Sc65  1  0.30810339  0.89253585  0.70198245  1
  Sc  Sc66  1  0.50285507  0.29426327  0.89535455  1
  Sc  Sc67  1  0.70149635  0.69315875  0.49381357  1
  Sc  Sc68  1  0.70250406  0.70478151  0.30340248  1
  Sc  Sc69  1  0.69971365  0.90125875  0.09352915  1
  Sc  Sc70  1  0.89534849  0.69633682  0.29806993  1
  Sc  Sc71  1  0.30378198  0.70071540  0.89889147  1
  Sc  Sc72  1  0.89815835  0.30141706  0.30423999  1
  Sc  Sc73  1  0.09167255  0.30211872  0.89693995  1
  Sc  Sc74  1  0.50073260  0.29822603  0.10255366  1
  Sc  Sc75  1  0.91266595  0.69983267  0.69611524  1
  Sc  Sc76  1  0.90364233  0.08985333  0.69865233  1
  Sc  Sc77  1  0.49489771  0.29537915  0.70583311  1
  Sc  Sc78  1  0.09273893  0.69724530  0.89768560  1
  Sc  Sc79  1  0.49474183  0.89622726  0.49854649  1
  Sc  Sc80  1  0.49802040  0.50141216  0.29294829  1
  Sc  Sc81  1  0.29211224  0.29866244  0.29030217  1
  Sc  Sc82  1  0.69794827  0.50092012  0.28583014  1
  Sc  Sc83  1  0.90098974  0.29558161  0.49767553  1
  Sc  Sc84  1  0.90172577  0.69679880  0.10280022  1
  Sc  Sc85  1  0.49807496  0.10464057  0.89929031  1
  Sc  Sc86  1  0.69114160  0.30088500  0.90502850  1
  Sc  Sc87  1  0.49120205  0.70599298  0.90415369  1
  Sc  Sc88  1  0.90343318  0.30103836  0.91154155  1
  Sc  Sc89  1  0.09829806  0.89014573  0.69993741  1
  Sc  Sc90  1  0.89786611  0.69781224  0.89743876  1
  Sc  Sc91  1  0.49872039  0.90721329  0.70055446  1
  Sc  Sc92  1  0.49926301  0.90509929  0.90075140  1
  Sc  Sc93  1  0.70073901  0.89757225  0.29170190  1
  Sc  Sc94  1  0.49135108  0.70262053  0.70298197  1
  Sc  Sc95  1  0.30291151  0.49730587  0.31272126  1
  Sc  Sc96  1  0.30071278  0.90114260  0.31204509  1
  Sc  Sc97  1  0.50439857  0.09976465  0.69853881  1
  Sc  Sc98  1  0.50393413  0.10687866  0.09478300  1
  Sc  Sc99  1  0.89025801  0.10463831  0.09783491  1
  Nb  Nb100  1  0.71400579  0.31282422  0.10196764  1
  Nb  Nb101  1  0.29037383  0.10322057  0.49383572  1
  Nb  Nb102  1  0.29195768  0.49174292  0.70261114  1
  Nb  Nb103  1  0.50159928  0.50397217  0.10317244  1
  Nb  Nb104  1  0.70352434  0.49639239  0.69727364  1
  Nb  Nb105  1  0.30602083  0.10203783  0.30302586  1
  Nb  Nb106  1  0.30593072  0.70280810  0.09165080  1
  Nb  Nb107  1  0.09646035  0.30258872  0.30066513  1
  Nb  Nb108  1  0.70015461  0.50118530  0.50513938  1
  Nb  Nb109  1  0.49821924  0.10198782  0.50021136  1
  Nb  Nb110  1  0.69517050  0.10296559  0.29992078  1
  Nb  Nb111  1  0.89784069  0.49552690  0.69339280  1
  Nb  Nb112  1  0.10940404  0.10587578  0.49899242  1
  Nb  Nb113  1  0.48534021  0.69338466  0.09881789  1
  Nb  Nb114  1  0.50287993  0.90091561  0.30235820  1
  Nb  Nb115  1  0.69526679  0.49188295  0.09618855  1
  Nb  Nb116  1  0.30228390  0.29895128  0.09497152  1
  Nb  Nb117  1  0.30345815  0.29668147  0.50791312  1
  Nb  Nb118  1  0.89930779  0.90040667  0.69897887  1
  Nb  Nb119  1  0.30128471  0.09987881  0.90447029  1
  Nb  Nb120  1  0.10257321  0.09961274  0.89508208  1
  Nb  Nb121  1  0.69886490  0.89525757  0.89608380  1
  Nb  Nb122  1  0.89794191  0.29864254  0.10499395  1
  Nb  Nb123  1  0.09604487  0.29097137  0.48547624  1
  Nb  Nb124  1  0.10134101  0.69484195  0.69699986  1
  Nb  Nb125  1  0.59575394  0.59696811  0.00892914  1
  Nb  Nb126  1  0.20459804  0.20134681  -0.00812764  1
  Nb  Nb127  1  0.00110740  0.39539886  0.20006042  1
  Nb  Nb128  1  -0.00008692  0.39855615  0.59351235  1
  Nb  Nb129  1  0.39466981  0.19740023  0.40405953  1
  Nb  Nb130  1  0.20121601  0.19570855  0.80182835  1
  Nb  Nb131  1  0.78955077  0.19603721  0.39955703  1
  Nb  Nb132  1  0.00558506  0.00044234  0.39743343  1
  Nb  Nb133  1  0.60291426  0.79757958  0.60494466  1
  Nb  Nb134  1  0.00437799  0.00407245  0.20792011  1
  Nb  Nb135  1  0.60297313  0.40723783  0.59871515  1
  Nb  Nb136  1  0.20621419  0.39601623  0.00134370  1
  Nb  Nb137  1  0.00336619  0.20044981  0.20193377  1
  Nb  Nb138  1  0.00164448  0.80473549  0.40231279  1
  Nb  Nb139  1  0.40818216  0.00224409  0.20996894  1
  Nb  Nb140  1  0.59638906  0.00257725  0.39471073  1
  Nb  Nb141  1  0.19685751  0.60051149  0.78989831  1
  Nb  Nb142  1  0.80103730  0.20095703  0.80112064  1
  Nb  Nb143  1  0.19968329  0.79848488  0.00251881  1
  Nb  Nb144  1  0.60399750  0.40049108  0.40603800  1
  Nb  Nb145  1  0.60735200  0.80318742  0.80020408  1
  Nb  Nb146  1  0.20114968  0.00655496  0.80299487  1
  Nb  Nb147  1  0.78817465  0.39887882  0.40468342  1
  Nb  Nb148  1  0.79892435  0.39906168  0.79474672  1
  Nb  Nb149  1  0.39732365  0.40153631  0.00424091  1
  Pd  Pd150  1  0.59858653  -0.00214732  0.19899097  1
  Pd  Pd151  1  0.79368536  0.78836487  0.60797646  1
  Pd  Pd152  1  0.00495960  0.40172934  0.00823839  1
  Pd  Pd153  1  0.00002501  0.79186344  0.00012201  1
  Pd  Pd154  1  0.40240700  0.59457099  0.60754071  1
  Pd  Pd155  1  0.21330710  0.80119924  0.19326009  1
  Pd  Pd156  1  0.60334365  0.59262144  0.38887931  1
  Pd  Pd157  1  0.80654636  0.79987359  0.00283033  1
  Pd  Pd158  1  0.19647428  0.79850526  0.80879555  1
  Pd  Pd159  1  0.21097713  0.59513133  0.20831665  1
  Pd  Pd160  1  -0.01175120  0.18842982  0.38822643  1
  Pd  Pd161  1  0.20367708  0.40979875  0.19488768  1
  Pd  Pd162  1  0.00672821  -0.00652144  0.59522880  1
  Pd  Pd163  1  0.39206462  0.80743697  0.20482005  1
  Pd  Pd164  1  0.59209172  0.60044629  0.60097707  1
  Pd  Pd165  1  0.79304177  0.00509716  0.40159455  1
  Pd  Pd166  1  0.39268021  0.40573511  0.19283090  1
  Pd  Pd167  1  0.60090807  0.60990116  0.19586606  1
  Pd  Pd168  1  0.40955685  -0.00092967  0.00906166  1
  Pd  Pd169  1  0.39499926  0.00689119  0.79578549  1
  Pd  Pd170  1  -0.00788331  0.40197826  0.79516393  1
  Pd  Pd171  1  0.81220242  0.59371957  0.79616471  1
  Pd  Pd172  1  0.79818520  0.00923906  0.80473363  1
  Pd  Pd173  1  0.79659090  0.60039939  0.19723156  1
  Pd  Pd174  1  0.39807240  0.00313830  0.59706526  1
  Pd  Pd175  1  0.59204746  0.60757308  0.81108747  1
  Pd  Pd176  1  0.80493007  0.60650552  0.60203326  1
  Pd  Pd177  1  -0.00605206  0.80148840  0.20823294  1
  Pd  Pd178  1  0.00858674  0.19318842  0.01041794  1
  Pd  Pd179  1  -0.00275260  0.01033883  0.01280520  1
  Pd  Pd180  1  -0.00117589  0.20379057  0.79581584  1
  Pd  Pd181  1  0.59589664  -0.00079211  0.00164118  1
  Pd  Pd182  1  0.59791391  0.79153347  -0.00297420  1
  Pd  Pd183  1  0.20660654  0.00196209  0.20694350  1
  Pd  Pd184  1  0.40652306  0.00696171  0.39833432  1
  Pd  Pd185  1  0.59134082  0.39730889  0.00568098  1
  Pd  Pd186  1  0.20437406  0.80608997  0.59921162  1
  Pd  Pd187  1  0.80015133  0.79602593  0.79093027  1
  Pd  Pd188  1  0.79722861  0.00386731  -0.00263562  1
  Pd  Pd189  1  0.18885715  0.39744023  0.58439676  1
  Pd  Pd190  1  0.60188862  0.79250908  0.19806080  1
  Pd  Pd191  1  -0.00032183  0.80106748  0.80016842  1
  Pd  Pd192  1  -0.00523547  0.60247299  0.00371077  1
  Pd  Pd193  1  0.80158532  0.18882520  0.60157438  1
  Pd  Pd194  1  0.00460468  0.20454842  0.59856404  1
  Pd  Pd195  1  0.39385289  0.59907774  0.79781266  1
  Pd  Pd196  1  0.39334387  0.60063048  0.20843853  1
  Pd  Pd197  1  0.20855983  -0.00526635  0.60884790  1
  Pd  Pd198  1  0.79583357  0.20218461  -0.00978401  1
  Pd  Pd199  1  0.20678328  0.39229003  0.40538873  1
  Rh  Rh200  1  0.80368614  0.79672694  0.39713981  1
  Rh  Rh201  1  0.60081505  0.80680308  0.40384008  1
  Rh  Rh202  1  0.40161798  0.79765992  0.39841365  1
  Rh  Rh203  1  0.40619122  0.59331737  -0.00316096  1
  Rh  Rh204  1  -0.00502765  0.59187305  0.19726943  1
  Rh  Rh205  1  0.80094959  0.39884848  -0.01072043  1
  Rh  Rh206  1  0.39442832  0.80677737  0.00108273  1
  Rh  Rh207  1  0.60534136  0.20673156  0.00559237  1
  Rh  Rh208  1  0.20286530  -0.00060378  -0.00626371  1
  Rh  Rh209  1  0.00105525  0.59773673  0.79533986  1
  Rh  Rh210  1  0.19990184  0.60751656  -0.01296180  1
  Rh  Rh211  1  0.40701205  0.40162985  0.79919740  1
  Rh  Rh212  1  0.20034539  0.19635789  0.19516661  1
  Rh  Rh213  1  -0.00866308  0.39781731  0.40112464  1
  Rh  Rh214  1  0.39982410  0.20783577  -0.00450132  1
  Rh  Rh215  1  0.79339915  0.59751332  0.00537279  1
  Rh  Rh216  1  0.79133758  0.59188866  0.39470824  1
  Rh  Rh217  1  0.40066279  0.60615585  0.39250786  1
  Rh  Rh218  1  0.00351700  0.60953455  0.40309186  1
  Rh  Rh219  1  0.20243706  0.60052052  0.40406787  1
  Rh  Rh220  1  0.80040341  0.40025263  0.59747317  1
  Rh  Rh221  1  0.58994787  -0.01096697  0.58957531  1
  Rh  Rh222  1  0.19690672  0.20515977  0.59878991  1
  Rh  Rh223  1  0.40853032  0.80495319  0.80171766  1
  Rh  Rh224  1  0.39948063  0.19812327  0.20546195  1
  Rh  Rh225  1  0.40873194  0.40787329  0.60818707  1
  Rh  Rh226  1  0.59902696  -0.00488458  0.80719327  1
  Rh  Rh227  1  0.20013834  -0.00131037  0.40170601  1
  Rh  Rh228  1  0.80006419  0.80087027  0.19555069  1
  Rh  Rh229  1  0.80450042  0.39805569  0.21071692  1
  Rh  Rh230  1  0.60145167  0.20972550  0.18811315  1
  Rh  Rh231  1  0.80223810  0.00344718  0.60222692  1
  Rh  Rh232  1  0.19178740  0.40167239  0.80827346  1
  Rh  Rh233  1  0.59874280  0.20089660  0.41089783  1
  Rh  Rh234  1  0.79561576  -0.00192713  0.19289992  1
  Rh  Rh235  1  0.00200414  0.80276269  0.59647470  1
  Rh  Rh236  1  0.60387415  0.40032172  0.79262634  1
  Rh  Rh237  1  0.39788148  0.39048252  0.39872683  1
  Rh  Rh238  1  -0.00384355  0.59388177  0.59673977  1
  Rh  Rh239  1  0.39554348  0.19310000  0.79583554  1
  Rh  Rh240  1  0.21150415  0.21343076  0.40212336  1
  Rh  Rh241  1  0.40251249  0.19377382  0.59497960  1
  Rh  Rh242  1  0.20485741  0.59405222  0.60182181  1
  Rh  Rh243  1  0.19701705  0.79633669  0.41043982  1
  Rh  Rh244  1  0.58944557  0.20711383  0.60270109  1
  Rh  Rh245  1  0.59811520  0.39734526  0.19934110  1
  Rh  Rh246  1  0.00548938  -0.00901932  0.79198646  1
  Rh  Rh247  1  0.60326952  0.19437518  0.80364038  1
  Rh  Rh248  1  0.40667213  0.79870104  0.59766217  1
  Rh  Rh249  1  0.80319895  0.20767299  0.20640791  1
