# generated using pymatgen
data_ZrScNbPdRh
_symmetry_space_group_name_H-M   'P 1'
_cell_length_a   16.56019877
_cell_length_b   16.56069721
_cell_length_c   16.55623825
_cell_angle_alpha   89.99341899
_cell_angle_beta   89.99629909
_cell_angle_gamma   89.99322648
_symmetry_Int_Tables_number   1
_chemical_formula_structural   ZrScNbPdRh
_chemical_formula_sum   'Zr50 Sc50 Nb50 Pd50 Rh50'
_cell_volume   4540.52240108
_cell_formula_units_Z   50
loop_
 _symmetry_equiv_pos_site_id
 _symmetry_equiv_pos_as_xyz
  1  'x, y, z'
loop_
 _atom_site_type_symbol
 _atom_site_label
 _atom_site_symmetry_multiplicity
 _atom_site_fract_x
 _atom_site_fract_y
 _atom_site_fract_z
 _atom_site_occupancy
  Zr  Zr0  1  0.29521642  0.49407612  0.68978652  1
  Zr  Zr1  1  0.29746003  0.49974493  0.89800261  1
  Zr  Zr2  1  0.49247617  0.10003997  0.70224406  1
  Zr  Zr3  1  0.30025051  0.29614550  0.50459918  1
  Zr  Zr4  1  0.70186506  0.30314075  0.90688558  1
  Zr  Zr5  1  0.90103996  0.10682056  0.90519936  1
  Zr  Zr6  1  0.09492716  0.29946719  0.09729832  1
  Zr  Zr7  1  0.68501705  0.50074609  0.31013888  1
  Zr  Zr8  1  0.48667129  0.89188437  0.50475266  1
  Zr  Zr9  1  0.91850502  0.50107327  0.30394078  1
  Zr  Zr10  1  0.89484584  0.29865676  0.49841694  1
  Zr  Zr11  1  0.30475229  0.30105909  0.69631986  1
  Zr  Zr12  1  0.69881939  0.29531384  0.10494324  1
  Zr  Zr13  1  0.70109365  0.10337722  0.50193912  1
  Zr  Zr14  1  0.51240784  0.50165914  0.89666573  1
  Zr  Zr15  1  0.09697684  0.10520876  0.29853089  1
  Zr  Zr16  1  0.89223258  0.29614553  0.08844532  1
  Zr  Zr17  1  0.89864123  0.50697116  0.90117544  1
  Zr  Zr18  1  0.50613488  0.09609075  0.29613635  1
  Zr  Zr19  1  0.89449273  0.90942763  0.89939575  1
  Zr  Zr20  1  0.09502137  0.50518622  0.90008212  1
  Zr  Zr21  1  0.70167724  0.70611767  0.69844374  1
  Zr  Zr22  1  0.89684637  0.90352857  0.49296330  1
  Zr  Zr23  1  0.28550681  0.50019570  0.30408150  1
  Zr  Zr24  1  0.09457684  0.70111980  0.69822568  1
  Zr  Zr25  1  0.09600802  0.90541168  0.10190751  1
  Zr  Zr26  1  0.29262916  0.29657055  0.30010846  1
  Zr  Zr27  1  0.89775722  0.09756969  0.10140922  1
  Zr  Zr28  1  0.09828561  0.30779769  0.30091898  1
  Zr  Zr29  1  0.50749393  0.68726901  0.29475982  1
  Zr  Zr30  1  0.89511775  0.50040376  0.49989208  1
  Zr  Zr31  1  0.89793990  0.70328619  0.49896254  1
  Zr  Zr32  1  0.09906208  0.08810113  0.50751628  1
  Zr  Zr33  1  0.49814445  0.29506194  0.88849429  1
  Zr  Zr34  1  0.29747548  0.10208295  0.69915370  1
  Zr  Zr35  1  0.51233221  0.30384163  0.29677363  1
  Zr  Zr36  1  0.50284405  0.90686732  0.29705020  1
  Zr  Zr37  1  0.70217004  0.68860393  0.90362099  1
  Zr  Zr38  1  0.70290232  0.70157073  0.29505277  1
  Zr  Zr39  1  0.29982043  0.50047563  0.09256586  1
  Zr  Zr40  1  0.30041650  0.09690296  0.50845202  1
  Zr  Zr41  1  0.70203097  0.30588349  0.50160913  1
  Zr  Zr42  1  0.49245552  0.09408121  0.90570011  1
  Zr  Zr43  1  0.10497640  0.68786633  0.30069930  1
  Zr  Zr44  1  0.10558358  0.71278314  0.50546833  1
  Zr  Zr45  1  0.30607390  0.10133732  0.30046015  1
  Zr  Zr46  1  0.89343111  0.09746930  0.29900833  1
  Zr  Zr47  1  0.09832054  0.09935165  0.89539759  1
  Zr  Zr48  1  0.89399454  0.29675146  0.70198765  1
  Zr  Zr49  1  0.49851781  0.70212327  0.50081223  1
  Sc  Sc50  1  0.70609603  0.88766387  0.49638773  1
  Sc  Sc51  1  0.08913967  0.30547616  0.89426834  1
  Sc  Sc52  1  0.49907459  0.10231004  0.49752223  1
  Sc  Sc53  1  0.30811972  0.89961367  0.90290458  1
  Sc  Sc54  1  0.70708879  0.69865741  0.49484044  1
  Sc  Sc55  1  0.50202659  0.49814879  0.29671295  1
  Sc  Sc56  1  0.69476671  0.29378616  0.69379157  1
  Sc  Sc57  1  0.29946472  0.30668745  0.09940904  1
  Sc  Sc58  1  0.69687505  0.49604603  0.08239373  1
  Sc  Sc59  1  0.50381682  0.71275558  0.90217617  1
  Sc  Sc60  1  0.10771786  0.90306966  0.30481540  1
  Sc  Sc61  1  0.09516114  0.28449541  0.49985079  1
  Sc  Sc62  1  0.10777667  0.29940477  0.70365483  1
  Sc  Sc63  1  0.30483658  0.89636818  0.31064611  1
  Sc  Sc64  1  0.29718257  0.70236542  0.09825606  1
  Sc  Sc65  1  0.71068285  0.09429011  0.89912561  1
  Sc  Sc66  1  0.89957166  0.51114224  0.70141401  1
  Sc  Sc67  1  0.09577397  0.90426895  0.69505481  1
  Sc  Sc68  1  0.90208776  0.89975633  0.70672364  1
  Sc  Sc69  1  0.69605164  0.09748359  0.29749124  1
  Sc  Sc70  1  0.50839291  0.29796600  0.50846857  1
  Sc  Sc71  1  0.49970569  0.30545588  0.10297137  1
  Sc  Sc72  1  0.89272514  0.90561045  0.10142835  1
  Sc  Sc73  1  0.70468242  0.10504075  0.70485380  1
  Sc  Sc74  1  0.31054531  0.90533000  0.69766584  1
  Sc  Sc75  1  0.50005749  0.71671040  0.69625011  1
  Sc  Sc76  1  0.88938922  0.90443915  0.29519609  1
  Sc  Sc77  1  0.70286695  0.09914036  0.10663053  1
  Sc  Sc78  1  0.30663494  0.09683078  0.09137676  1
  Sc  Sc79  1  0.49922336  0.48980477  0.69546282  1
  Sc  Sc80  1  0.50816095  0.49405215  0.49887797  1
  Sc  Sc81  1  0.90156920  0.69448964  0.30099567  1
  Sc  Sc82  1  0.29948345  0.89403903  0.09525849  1
  Sc  Sc83  1  0.09489339  0.90764647  0.89489433  1
  Sc  Sc84  1  0.30452407  0.09480489  0.89422503  1
  Sc  Sc85  1  0.90502897  0.70307771  0.69997685  1
  Sc  Sc86  1  0.90861341  0.49765539  0.09617500  1
  Sc  Sc87  1  0.10416724  0.50840175  0.49261635  1
  Sc  Sc88  1  0.09920592  0.50263224  0.10004843  1
  Sc  Sc89  1  0.90391674  0.10460812  0.49646226  1
  Sc  Sc90  1  0.50315941  0.50130709  0.10769756  1
  Sc  Sc91  1  0.30296129  0.30567181  0.89635832  1
  Sc  Sc92  1  0.29748615  0.70602165  0.90890645  1
  Sc  Sc93  1  0.69973451  0.89629345  0.91668059  1
  Sc  Sc94  1  0.09009558  0.09810831  0.09515584  1
  Sc  Sc95  1  0.10817897  0.69729872  0.09766710  1
  Sc  Sc96  1  0.89671333  0.09862180  0.71087548  1
  Sc  Sc97  1  0.69604952  0.70452922  0.09744278  1
  Sc  Sc98  1  0.30196650  0.71216758  0.50614952  1
  Sc  Sc99  1  0.89068636  0.70273073  0.10179126  1
  Nb  Nb100  1  0.30492066  0.70166856  0.30197085  1
  Nb  Nb101  1  0.89608353  0.30175032  0.90175927  1
  Nb  Nb102  1  0.90294189  0.70409739  0.89690521  1
  Nb  Nb103  1  0.50577159  0.89913302  0.70158981  1
  Nb  Nb104  1  0.49916195  0.90110606  0.90227466  1
  Nb  Nb105  1  0.29619385  0.69564481  0.70062747  1
  Nb  Nb106  1  0.10829416  0.89943883  0.49892279  1
  Nb  Nb107  1  0.10455261  0.09898283  0.69934820  1
  Nb  Nb108  1  0.28771448  0.89772047  0.50211285  1
  Nb  Nb109  1  0.50048152  0.09436509  0.10224607  1
  Nb  Nb110  1  0.70024109  0.50350808  0.89030395  1
  Nb  Nb111  1  0.69873649  0.89441693  0.69806086  1
  Nb  Nb112  1  0.70315659  0.89331612  0.10850154  1
  Nb  Nb113  1  0.09546373  0.50578963  0.29968567  1
  Nb  Nb114  1  0.09454137  0.70057267  0.89528003  1
  Nb  Nb115  1  0.70029415  0.89879597  0.29781503  1
  Nb  Nb116  1  0.50766161  0.89974292  0.08910808  1
  Nb  Nb117  1  0.69956211  0.50699159  0.70842512  1
  Nb  Nb118  1  0.70190114  0.30068053  0.29605163  1
  Nb  Nb119  1  0.69683884  0.49840109  0.50914839  1
  Nb  Nb120  1  0.30962646  0.49509969  0.50344685  1
  Nb  Nb121  1  0.89864223  0.30151587  0.30340438  1
  Nb  Nb122  1  0.50136420  0.29218488  0.69773450  1
  Nb  Nb123  1  0.49973993  0.69790969  0.09974722  1
  Nb  Nb124  1  0.10086171  0.49884803  0.70064552  1
  Nb  Nb125  1  0.79565349  0.40530981  0.80357956  1
  Nb  Nb126  1  0.00321431  0.80057121  0.20110567  1
  Nb  Nb127  1  0.59791596  0.79965868  0.39215022  1
  Nb  Nb128  1  -0.00276581  0.79974202  -0.00159880  1
  Nb  Nb129  1  0.40838521  0.79659888  0.19838745  1
  Nb  Nb130  1  0.00019770  0.40280584  0.60242448  1
  Nb  Nb131  1  0.20298117  0.00335284  0.20029941  1
  Nb  Nb132  1  0.60670430  0.59772922  0.60243623  1
  Nb  Nb133  1  0.79524130  -0.00339871  0.60179508  1
  Nb  Nb134  1  0.40489880  0.60109078  -0.00353889  1
  Nb  Nb135  1  0.80051483  0.40117531  0.20713435  1
  Nb  Nb136  1  0.79710306  0.58779691  0.20202272  1
  Nb  Nb137  1  0.39439883  0.59564139  0.40198416  1
  Nb  Nb138  1  0.19839296  0.60223533  0.79590351  1
  Nb  Nb139  1  0.59377905  0.19426489  0.00155341  1
  Nb  Nb140  1  0.00471168  0.80268821  0.39776945  1
  Nb  Nb141  1  0.60158414  -0.00763267  0.60562394  1
  Nb  Nb142  1  0.19745044  0.19992933  -0.00450659  1
  Nb  Nb143  1  0.59724013  -0.00903191  0.79989539  1
  Nb  Nb144  1  -0.00772366  0.20602385  0.20345405  1
  Nb  Nb145  1  0.19795726  0.79370149  0.79612640  1
  Nb  Nb146  1  0.40488805  0.19607096  0.20019619  1
  Nb  Nb147  1  0.39488031  0.60410655  0.79859685  1
  Nb  Nb148  1  0.39549497  0.40106177  0.40174322  1
  Nb  Nb149  1  0.79856421  0.79793102  0.80638338  1
  Pd  Pd150  1  0.39819537  0.20639160  0.00648782  1
  Pd  Pd151  1  0.80196704  0.40472147  0.61229714  1
  Pd  Pd152  1  0.20257090  -0.01150209  0.79465060  1
  Pd  Pd153  1  -0.01004941  -0.00022815  0.60503367  1
  Pd  Pd154  1  -0.00473353  0.81083182  0.59397341  1
  Pd  Pd155  1  0.19692923  0.19196399  0.40717481  1
  Pd  Pd156  1  -0.00017135  0.20086485  0.61017440  1
  Pd  Pd157  1  -0.00912145  0.40421005  0.79231949  1
  Pd  Pd158  1  0.20480237  0.00539481  0.39574573  1
  Pd  Pd159  1  0.40971672  0.60032863  0.60226460  1
  Pd  Pd160  1  0.18660133  0.39606730  0.58959399  1
  Pd  Pd161  1  0.20316061  0.80596135  0.20704486  1
  Pd  Pd162  1  -0.00524440  0.39543885  0.19439277  1
  Pd  Pd163  1  0.79695493  0.40660879  0.39363505  1
  Pd  Pd164  1  0.00050550  0.19777484  0.79603584  1
  Pd  Pd165  1  0.39249339  0.79759943  0.79853131  1
  Pd  Pd166  1  0.19202753  0.39352430  -0.00546045  1
  Pd  Pd167  1  0.80142981  0.59841849  0.00729544  1
  Pd  Pd168  1  0.60513907  0.18854398  0.80821095  1
  Pd  Pd169  1  0.60841631  0.00512406  0.00078330  1
  Pd  Pd170  1  0.20021823  0.60046679  0.59625657  1
  Pd  Pd171  1  0.00257499  0.59525391  0.59439875  1
  Pd  Pd172  1  -0.00005530  -0.00637543  0.39352398  1
  Pd  Pd173  1  0.60434612  0.20438295  0.40045474  1
  Pd  Pd174  1  0.79895804  0.59296371  0.39461045  1
  Pd  Pd175  1  0.20407280  0.20552554  0.80755132  1
  Pd  Pd176  1  0.21031113  0.60870287  0.41262675  1
  Pd  Pd177  1  -0.00230152  0.61141621  0.00799124  1
  Pd  Pd178  1  0.40835452  0.20888258  0.39540397  1
  Pd  Pd179  1  0.59521514  0.80292141  0.19990852  1
  Pd  Pd180  1  0.41098281  0.40516459  -0.00207210  1
  Pd  Pd181  1  0.20447360  0.59822348  0.19396703  1
  Pd  Pd182  1  0.79434074  0.19733043  0.39579650  1
  Pd  Pd183  1  0.39732223  -0.00059018  0.40821260  1
  Pd  Pd184  1  0.39096278  0.60155550  0.19883278  1
  Pd  Pd185  1  0.18831820  0.80602368  -0.01072464  1
  Pd  Pd186  1  0.79631923  0.60325032  0.60325856  1
  Pd  Pd187  1  0.60897100  0.80407140  0.81162338  1
  Pd  Pd188  1  0.19634710  0.39778768  0.41024059  1
  Pd  Pd189  1  0.39612301  0.39691430  0.20889020  1
  Pd  Pd190  1  0.00737465  0.39735177  0.41310658  1
  Pd  Pd191  1  0.58591015  0.60941168  0.78923016  1
  Pd  Pd192  1  0.60630467  0.39348955  0.79134705  1
  Pd  Pd193  1  0.60598655  -0.01128013  0.41212562  1
  Pd  Pd194  1  0.40146746  0.40511627  0.79562201  1
  Pd  Pd195  1  0.19482833  0.40633427  0.19547595  1
  Pd  Pd196  1  0.59300747  0.39314534  0.00040002  1
  Pd  Pd197  1  0.20255541  0.00364696  0.00165818  1
  Pd  Pd198  1  0.39371873  -0.00653222  0.19119837  1
  Pd  Pd199  1  0.20163792  0.19136141  0.18446243  1
  Rh  Rh200  1  0.40828464  0.79051797  0.38907505  1
  Rh  Rh201  1  0.20441955  0.81045983  0.61281063  1
  Rh  Rh202  1  0.39146333  0.80209002  0.60695249  1
  Rh  Rh203  1  0.80619985  0.60578290  0.79881581  1
  Rh  Rh204  1  -0.00251376  0.20012995  0.39233706  1
  Rh  Rh205  1  0.79224203  0.00399589  0.40466535  1
  Rh  Rh206  1  0.79568822  0.00127744  0.00923745  1
  Rh  Rh207  1  0.78872245  -0.01342903  0.79363315  1
  Rh  Rh208  1  0.00347818  0.60993424  0.40891404  1
  Rh  Rh209  1  0.39917225  -0.00882830  0.00352454  1
  Rh  Rh210  1  0.80569698  0.79991236  -0.00299219  1
  Rh  Rh211  1  0.19658558  0.79585016  0.39463479  1
  Rh  Rh212  1  0.80331537  0.40698313  -0.00522552  1
  Rh  Rh213  1  0.79130153  0.19389001  -0.00313860  1
  Rh  Rh214  1  -0.00095592  0.40037894  -0.00384323  1
  Rh  Rh215  1  0.00442586  0.20250502  -0.00012989  1
  Rh  Rh216  1  0.19512891  0.19720494  0.60135967  1
  Rh  Rh217  1  0.59361960  0.19577583  0.19387453  1
  Rh  Rh218  1  -0.00447996  0.60741382  0.19386619  1
  Rh  Rh219  1  0.00246432  0.00788223  0.79547262  1
  Rh  Rh220  1  0.59791784  0.39340346  0.40604281  1
  Rh  Rh221  1  0.00251962  0.59923303  0.79687993  1
  Rh  Rh222  1  0.00622532  -0.00014645  0.20584113  1
  Rh  Rh223  1  -0.00054087  0.80585343  0.80885968  1
  Rh  Rh224  1  0.40468461  0.20068685  0.60002759  1
  Rh  Rh225  1  0.80325572  0.18929605  0.59985727  1
  Rh  Rh226  1  0.60579663  -0.00433112  0.19100298  1
  Rh  Rh227  1  0.80540043  0.79547111  0.20223888  1
  Rh  Rh228  1  0.61374887  0.59275555  0.18606758  1
  Rh  Rh229  1  -0.00591690  -0.00376254  -0.00301742  1
  Rh  Rh230  1  0.20117105  -0.00438439  0.60634204  1
  Rh  Rh231  1  0.80883362  0.80595319  0.60971441  1
  Rh  Rh232  1  0.59702701  0.18913564  0.60267293  1
  Rh  Rh233  1  0.40880989  0.39155305  0.59500871  1
  Rh  Rh234  1  0.80494548  0.20629107  0.20644429  1
  Rh  Rh235  1  0.40501615  -0.00485184  0.80191152  1
  Rh  Rh236  1  0.39336348  0.20136532  0.79738970  1
  Rh  Rh237  1  0.60439049  0.40355310  0.60812217  1
  Rh  Rh238  1  0.59547419  0.60432226  0.41392382  1
  Rh  Rh239  1  0.20390178  0.60084955  -0.00652450  1
  Rh  Rh240  1  0.61115721  0.40569403  0.19453811  1
  Rh  Rh241  1  0.79019336  -0.00162837  0.20049773  1
  Rh  Rh242  1  0.40670008  0.79742612  0.00892475  1
  Rh  Rh243  1  0.79696255  0.21160957  0.80578749  1
  Rh  Rh244  1  0.40300660  -0.00225760  0.59629878  1
  Rh  Rh245  1  0.19821287  0.40526077  0.80108273  1
  Rh  Rh246  1  0.80269036  0.79985166  0.38872286  1
  Rh  Rh247  1  0.60299323  0.79881826  0.58576311  1
  Rh  Rh248  1  0.59283104  0.60274826  0.00012821  1
  Rh  Rh249  1  0.60095460  0.79850789  0.00161483  1
