# generated using pymatgen
data_ZrScNbPdRh
_symmetry_space_group_name_H-M   'P 1'
_cell_length_a   16.56068305
_cell_length_b   16.55428321
_cell_length_c   16.55880067
_cell_angle_alpha   90.00624781
_cell_angle_beta   90.04686098
_cell_angle_gamma   89.97443857
_symmetry_Int_Tables_number   1
_chemical_formula_structural   ZrScNbPdRh
_chemical_formula_sum   'Zr50 Sc50 Nb50 Pd50 Rh50'
_cell_volume   4539.59713809
_cell_formula_units_Z   50
loop_
 _symmetry_equiv_pos_site_id
 _symmetry_equiv_pos_as_xyz
  1  'x, y, z'
loop_
 _atom_site_type_symbol
 _atom_site_label
 _atom_site_symmetry_multiplicity
 _atom_site_fract_x
 _atom_site_fract_y
 _atom_site_fract_z
 _atom_site_occupancy
  Zr  Zr0  1  0.50090422  0.29722215  0.90566531  1
  Zr  Zr1  1  0.69904152  0.09089358  0.51022028  1
  Zr  Zr2  1  0.89963469  0.08836346  0.71435276  1
  Zr  Zr3  1  0.10441329  0.89747403  0.29579775  1
  Zr  Zr4  1  0.10511716  0.90783262  0.10342525  1
  Zr  Zr5  1  0.30022413  0.30196171  0.69483917  1
  Zr  Zr6  1  0.11080168  0.89881278  0.50813830  1
  Zr  Zr7  1  0.70786922  0.50216902  0.10051482  1
  Zr  Zr8  1  0.71004072  0.68645398  0.30926766  1
  Zr  Zr9  1  0.90134902  0.10256473  0.50094351  1
  Zr  Zr10  1  0.30226727  0.09633760  0.30857206  1
  Zr  Zr11  1  0.88720316  0.89732867  0.49997865  1
  Zr  Zr12  1  0.49957493  0.70807473  0.89858393  1
  Zr  Zr13  1  0.49216627  0.90603863  0.89658946  1
  Zr  Zr14  1  0.70601052  0.09340112  0.90578923  1
  Zr  Zr15  1  0.30519550  0.10357987  0.49715685  1
  Zr  Zr16  1  0.50196492  0.50736698  0.49915177  1
  Zr  Zr17  1  0.70143298  0.30732406  0.11249948  1
  Zr  Zr18  1  0.10027378  0.09782599  0.29125620  1
  Zr  Zr19  1  0.09423590  0.29968342  0.50371818  1
  Zr  Zr20  1  0.29803428  0.29955050  0.50011656  1
  Zr  Zr21  1  0.09365084  0.50933747  0.30047979  1
  Zr  Zr22  1  0.89926518  0.31016870  0.69990449  1
  Zr  Zr23  1  0.50555819  0.50540676  0.70025908  1
  Zr  Zr24  1  0.50930944  0.89489544  0.48897317  1
  Zr  Zr25  1  0.09335883  0.30715970  0.90307444  1
  Zr  Zr26  1  0.29762755  0.50142816  0.70573527  1
  Zr  Zr27  1  0.89544813  0.69846451  0.89180918  1
  Zr  Zr28  1  0.30248750  0.89409144  0.29983737  1
  Zr  Zr29  1  0.10469814  0.29628011  0.09458928  1
  Zr  Zr30  1  0.90031279  0.50096924  0.70677050  1
  Zr  Zr31  1  0.30459175  0.68993657  0.10387701  1
  Zr  Zr32  1  0.70855063  0.29879120  0.50818483  1
  Zr  Zr33  1  0.69758240  0.90623794  0.10642913  1
  Zr  Zr34  1  0.10489428  0.70031648  0.30414349  1
  Zr  Zr35  1  0.50280961  0.09874869  0.90785457  1
  Zr  Zr36  1  0.90860439  0.69861223  0.29628337  1
  Zr  Zr37  1  0.30671694  0.09010436  0.90394161  1
  Zr  Zr38  1  0.10768887  0.10526210  0.49423467  1
  Zr  Zr39  1  0.70140622  0.69898818  0.09425241  1
  Zr  Zr40  1  0.10355603  0.30648336  0.69442857  1
  Zr  Zr41  1  0.09871276  0.50245061  0.70426772  1
  Zr  Zr42  1  0.10552853  0.69282480  0.90040425  1
  Zr  Zr43  1  0.30036439  0.29859459  0.90391486  1
  Zr  Zr44  1  0.70069097  0.50515114  0.89748887  1
  Zr  Zr45  1  0.11133399  0.69418530  0.50113368  1
  Zr  Zr46  1  0.49651942  0.49416180  0.89166844  1
  Zr  Zr47  1  0.49565258  0.70141282  0.10012407  1
  Zr  Zr48  1  0.90701016  0.10693531  0.29251403  1
  Zr  Zr49  1  0.89812243  0.91010406  0.88687004  1
  Sc  Sc50  1  0.89250889  0.69617899  0.10599983  1
  Sc  Sc51  1  0.90145451  0.88596520  0.70342828  1
  Sc  Sc52  1  0.30286043  0.69486535  0.89882451  1
  Sc  Sc53  1  0.89772884  0.30643483  0.30064658  1
  Sc  Sc54  1  0.70315879  0.09736887  0.28780237  1
  Sc  Sc55  1  0.88877209  0.89817745  0.30058237  1
  Sc  Sc56  1  0.89488353  0.89349206  0.10918387  1
  Sc  Sc57  1  0.50141791  0.49540801  0.30624563  1
  Sc  Sc58  1  0.49865699  0.10674490  0.29835711  1
  Sc  Sc59  1  0.09962286  0.10366259  0.69270681  1
  Sc  Sc60  1  0.49191526  0.89578170  0.69881248  1
  Sc  Sc61  1  0.69374107  0.69847719  0.70450784  1
  Sc  Sc62  1  0.69756845  0.90254782  0.30994676  1
  Sc  Sc63  1  0.50409963  0.30190330  0.29620244  1
  Sc  Sc64  1  0.30321328  0.91115203  0.49811742  1
  Sc  Sc65  1  0.69277474  0.70125029  0.50019338  1
  Sc  Sc66  1  0.31059922  0.09432759  0.68311294  1
  Sc  Sc67  1  0.09841488  0.50144715  0.50453290  1
  Sc  Sc68  1  0.30489788  0.49847134  0.29236237  1
  Sc  Sc69  1  0.69865828  0.50759837  0.48816777  1
  Sc  Sc70  1  0.09275315  0.69901544  0.69233151  1
  Sc  Sc71  1  0.31203462  0.29934801  0.29786105  1
  Sc  Sc72  1  0.70011644  0.69972756  0.90248479  1
  Sc  Sc73  1  0.89461781  0.70086449  0.50150431  1
  Sc  Sc74  1  0.49608339  0.70305550  0.69395401  1
  Sc  Sc75  1  0.09293418  0.69774110  0.11443478  1
  Sc  Sc76  1  0.70237653  0.48950721  0.29918060  1
  Sc  Sc77  1  0.09106538  0.29066363  0.29712625  1
  Sc  Sc78  1  0.49655905  0.89823990  0.09309981  1
  Sc  Sc79  1  0.89229026  0.50618974  0.30238438  1
  Sc  Sc80  1  0.30474518  0.90012476  0.68956050  1
  Sc  Sc81  1  0.49742311  0.09732482  0.50537053  1
  Sc  Sc82  1  0.50644380  0.29295274  0.10425365  1
  Sc  Sc83  1  0.30632493  0.90276366  0.90069035  1
  Sc  Sc84  1  0.89782313  0.49252386  0.89387793  1
  Sc  Sc85  1  0.69688554  0.30731179  0.91086041  1
  Sc  Sc86  1  0.49683543  0.50447355  0.10818752  1
  Sc  Sc87  1  0.09779068  0.90583317  0.89837112  1
  Sc  Sc88  1  0.49404140  0.30045545  0.49302330  1
  Sc  Sc89  1  0.49846627  0.30407974  0.70306692  1
  Sc  Sc90  1  0.11072862  0.49460714  0.09291031  1
  Sc  Sc91  1  0.70234254  0.89507065  0.90033228  1
  Sc  Sc92  1  0.29545201  0.50647775  0.49869027  1
  Sc  Sc93  1  0.70553593  0.89982279  0.69552401  1
  Sc  Sc94  1  0.28701927  0.10173871  0.09877820  1
  Sc  Sc95  1  0.70257520  0.10251236  0.09937020  1
  Sc  Sc96  1  0.50971989  0.09940614  0.09864334  1
  Sc  Sc97  1  0.48248544  0.70096190  0.30412312  1
  Sc  Sc98  1  0.09144813  0.10461879  0.89866445  1
  Sc  Sc99  1  0.28829546  0.50793130  0.89986013  1
  Nb  Nb100  1  0.90626942  0.29138310  0.90257535  1
  Nb  Nb101  1  0.29687547  0.70340456  0.69668878  1
  Nb  Nb102  1  0.29365678  0.31114400  0.09823737  1
  Nb  Nb103  1  0.89692769  0.69362875  0.70209091  1
  Nb  Nb104  1  0.29579489  0.69798529  0.30293444  1
  Nb  Nb105  1  0.49447058  0.89634010  0.29675871  1
  Nb  Nb106  1  0.70370146  0.29746865  0.70099954  1
  Nb  Nb107  1  0.90150730  0.10706134  0.09720867  1
  Nb  Nb108  1  0.89831949  0.48706997  0.49888383  1
  Nb  Nb109  1  0.89945711  0.49803964  0.09821484  1
  Nb  Nb110  1  0.50183139  0.69093901  0.50242463  1
  Nb  Nb111  1  0.50206542  0.09987430  0.69941392  1
  Nb  Nb112  1  0.70258244  0.49576828  0.70519169  1
  Nb  Nb113  1  0.10282831  0.90189928  0.69880802  1
  Nb  Nb114  1  0.29967491  0.49330918  0.09903363  1
  Nb  Nb115  1  0.09741997  0.50507618  0.89910190  1
  Nb  Nb116  1  0.70241845  0.89891759  0.49416669  1
  Nb  Nb117  1  0.30047032  0.69764146  0.50121507  1
  Nb  Nb118  1  0.90437368  0.30463517  0.08968005  1
  Nb  Nb119  1  0.90328947  0.30439229  0.49862542  1
  Nb  Nb120  1  0.69644800  0.10722863  0.69847750  1
  Nb  Nb121  1  0.09377855  0.09766748  0.10534750  1
  Nb  Nb122  1  0.29648645  0.90596588  0.09747261  1
  Nb  Nb123  1  0.69978356  0.29924546  0.30181026  1
  Nb  Nb124  1  0.89894810  0.10383376  0.90377582  1
  Nb  Nb125  1  0.80005667  0.59395594  0.60608391  1
  Nb  Nb126  1  0.19584025  0.39985222  0.39712141  1
  Nb  Nb127  1  0.00010817  -0.00609047  0.59724030  1
  Nb  Nb128  1  0.00386745  0.80479571  0.40305616  1
  Nb  Nb129  1  -0.00657938  0.00427989  0.00494227  1
  Nb  Nb130  1  0.20069059  0.80365200  0.79677519  1
  Nb  Nb131  1  -0.00366960  0.40201627  0.19017152  1
  Nb  Nb132  1  0.20737165  0.19634301  0.79846726  1
  Nb  Nb133  1  0.40335699  0.40735042  0.60100406  1
  Nb  Nb134  1  0.59939801  0.00762316  0.79484023  1
  Nb  Nb135  1  0.61261206  0.20024904  0.40204096  1
  Nb  Nb136  1  0.19813880  0.80048227  0.00146088  1
  Nb  Nb137  1  0.60149470  0.60777362  0.20267717  1
  Nb  Nb138  1  0.59694875  0.79544771  0.20504016  1
  Nb  Nb139  1  0.00152715  0.80028218  -0.00054684  1
  Nb  Nb140  1  0.60430768  0.40269260  0.60356026  1
  Nb  Nb141  1  0.40269233  0.19454532  0.79936308  1
  Nb  Nb142  1  -0.00166906  0.59816812  -0.00142858  1
  Nb  Nb143  1  0.20125977  0.00076469  0.79439969  1
  Nb  Nb144  1  0.79942818  0.20197485  0.80417946  1
  Nb  Nb145  1  0.39392581  0.39997846  0.00479913  1
  Nb  Nb146  1  0.60375729  0.19673330  0.79659417  1
  Nb  Nb147  1  0.79787764  0.20302913  0.40332325  1
  Nb  Nb148  1  0.00177620  -0.00424150  0.40319621  1
  Nb  Nb149  1  0.39696163  -0.00570008  0.20014105  1
  Pd  Pd150  1  0.39385155  0.59919725  0.60309914  1
  Pd  Pd151  1  0.59003690  0.21014098  0.59735663  1
  Pd  Pd152  1  0.80839456  0.80467080  -0.00318380  1
  Pd  Pd153  1  0.19396376  0.19193751  -0.00628950  1
  Pd  Pd154  1  0.00212991  0.20301642  0.79241291  1
  Pd  Pd155  1  0.39629309  0.79647455  0.41029039  1
  Pd  Pd156  1  0.79491840  0.20769503  -0.00035148  1
  Pd  Pd157  1  0.40796210  0.39707088  0.19391656  1
  Pd  Pd158  1  0.20759617  0.79511254  0.19138597  1
  Pd  Pd159  1  0.40302254  0.58946983  -0.00434499  1
  Pd  Pd160  1  0.80558347  0.20665775  0.20085517  1
  Pd  Pd161  1  0.78724453  0.79844977  0.20891324  1
  Pd  Pd162  1  0.20186121  0.21093718  0.39069490  1
  Pd  Pd163  1  0.19092476  0.39735893  0.21162792  1
  Pd  Pd164  1  0.59272966  0.59419863  0.00255209  1
  Pd  Pd165  1  -0.00977675  -0.00817849  0.20089570  1
  Pd  Pd166  1  -0.00698890  0.19616835  0.60754357  1
  Pd  Pd167  1  0.58993489  0.40772125  0.01095730  1
  Pd  Pd168  1  0.80311670  0.39984460  -0.00675623  1
  Pd  Pd169  1  0.60601279  0.39176957  0.79689083  1
  Pd  Pd170  1  -0.00165084  0.80143619  0.59512513  1
  Pd  Pd171  1  0.59096133  -0.00524868  0.20440265  1
  Pd  Pd172  1  0.40139978  0.60699628  0.79858544  1
  Pd  Pd173  1  -0.00616086  0.60492403  0.41147048  1
  Pd  Pd174  1  0.80320219  0.01065218  0.39263891  1
  Pd  Pd175  1  0.00748332  0.79666953  0.80248607  1
  Pd  Pd176  1  0.79462023  0.40989875  0.59801733  1
  Pd  Pd177  1  0.59576155  -0.01263731  0.60549097  1
  Pd  Pd178  1  0.20735382  0.20259436  0.20345577  1
  Pd  Pd179  1  0.00364293  0.40069956  0.39175565  1
  Pd  Pd180  1  0.39771820  0.20276852  0.00973804  1
  Pd  Pd181  1  0.60098213  0.80666239  0.00281610  1
  Pd  Pd182  1  0.60245684  0.80312913  0.60029266  1
  Pd  Pd183  1  -0.01039185  0.59568699  0.59262201  1
  Pd  Pd184  1  0.19983477  0.39617879  0.80646760  1
  Pd  Pd185  1  0.79159105  0.78799340  0.60332725  1
  Pd  Pd186  1  0.60022175  0.80912525  0.79521155  1
  Pd  Pd187  1  0.81194248  0.19685324  0.60611976  1
  Pd  Pd188  1  0.39906256  0.80119880  0.58786713  1
  Pd  Pd189  1  0.59692066  0.00992922  0.39319893  1
  Pd  Pd190  1  0.38895753  0.79995854  -0.00014399  1
  Pd  Pd191  1  0.39434350  0.59607092  0.39655369  1
  Pd  Pd192  1  0.39524446  0.19243686  0.19071750  1
  Pd  Pd193  1  0.59842975  0.60686505  0.80168141  1
  Pd  Pd194  1  0.20230311  0.59477372  0.19887584  1
  Pd  Pd195  1  0.20478224  0.80162151  0.40645132  1
  Pd  Pd196  1  0.59949271  0.79002356  0.39184432  1
  Pd  Pd197  1  0.80502722  -0.00308203  0.60896230  1
  Pd  Pd198  1  0.80813601  -0.00740686  0.00828464  1
  Pd  Pd199  1  0.60458720  0.39224001  0.40774096  1
  Rh  Rh200  1  0.80269703  0.00278523  0.19693828  1
  Rh  Rh201  1  0.38826698  0.40365286  0.40698280  1
  Rh  Rh202  1  0.80947256  0.59813695  0.41231717  1
  Rh  Rh203  1  -0.00783313  0.19768881  0.40114700  1
  Rh  Rh204  1  0.19660941  0.00662923  0.60402196  1
  Rh  Rh205  1  0.20708261  0.59360073  0.39471960  1
  Rh  Rh206  1  0.80978508  0.59738334  -0.00598812  1
  Rh  Rh207  1  -0.00188721  0.58721247  0.18878172  1
  Rh  Rh208  1  0.59918782  0.40742457  0.19930005  1
  Rh  Rh209  1  -0.00155058  0.40846545  0.00023058  1
  Rh  Rh210  1  0.19625649  0.61054483  0.78915633  1
  Rh  Rh211  1  0.00113915  0.40583532  0.60088952  1
  Rh  Rh212  1  0.61030011  0.20098307  0.00262077  1
  Rh  Rh213  1  0.00981312  0.00098545  0.79885500  1
  Rh  Rh214  1  0.40074006  0.00482242  0.01698644  1
  Rh  Rh215  1  0.39788188  0.80508047  0.19569807  1
  Rh  Rh216  1  0.80085031  0.79552734  0.39916783  1
  Rh  Rh217  1  0.20358017  0.19497606  0.60477149  1
  Rh  Rh218  1  0.39381261  0.39600084  0.80386782  1
  Rh  Rh219  1  0.40599252  0.21014358  0.60255795  1
  Rh  Rh220  1  0.59029811  0.60636886  0.39077517  1
  Rh  Rh221  1  0.40184379  0.59779511  0.20549884  1
  Rh  Rh222  1  0.20413733  0.40478522  -0.00786727  1
  Rh  Rh223  1  0.20693505  0.79627035  0.60369415  1
  Rh  Rh224  1  0.39067748  0.79542077  0.79884841  1
  Rh  Rh225  1  0.41157262  -0.00836195  0.59225109  1
  Rh  Rh226  1  -0.00523162  0.21221268  0.18881320  1
  Rh  Rh227  1  0.00069092  0.60105016  0.80497581  1
  Rh  Rh228  1  0.79357088  0.60281115  0.79609183  1
  Rh  Rh229  1  0.79560450  0.79540771  0.79688794  1
  Rh  Rh230  1  0.19486542  0.60516738  0.00968503  1
  Rh  Rh231  1  0.80059019  0.39511226  0.40030390  1
  Rh  Rh232  1  -0.00152151  0.80285642  0.20290212  1
  Rh  Rh233  1  0.78739258  0.00296449  0.79566827  1
  Rh  Rh234  1  0.79691834  0.59722600  0.19999666  1
  Rh  Rh235  1  0.20997405  0.00490721  0.20519848  1
  Rh  Rh236  1  0.41030309  0.00051355  0.39459222  1
  Rh  Rh237  1  0.20312245  0.59991420  0.60564472  1
  Rh  Rh238  1  0.41075393  0.19892682  0.40110191  1
  Rh  Rh239  1  0.61124597  0.59454410  0.60027920  1
  Rh  Rh240  1  0.80882459  0.39865415  0.20070097  1
  Rh  Rh241  1  0.60211511  -0.00675515  -0.00643766  1
  Rh  Rh242  1  0.60456533  0.20112812  0.20546323  1
  Rh  Rh243  1  0.00479365  0.19344298  0.00604606  1
  Rh  Rh244  1  0.18965408  -0.00030809  -0.00808835  1
  Rh  Rh245  1  0.19469064  -0.00100619  0.39562091  1
  Rh  Rh246  1  0.79717503  0.38865038  0.80924417  1
  Rh  Rh247  1  0.20360469  0.40790472  0.58978997  1
  Rh  Rh248  1  0.00101403  0.40012436  0.80245594  1
  Rh  Rh249  1  0.39972783  0.00542931  0.79039854  1
