# generated using pymatgen
data_ZrScNbPdRh
_symmetry_space_group_name_H-M   'P 1'
_cell_length_a   16.56033223
_cell_length_b   16.55931711
_cell_length_c   16.55549890
_cell_angle_alpha   89.97738382
_cell_angle_beta   90.01164491
_cell_angle_gamma   89.97128271
_symmetry_Int_Tables_number   1
_chemical_formula_structural   ZrScNbPdRh
_chemical_formula_sum   'Zr50 Sc50 Nb50 Pd50 Rh50'
_cell_volume   4539.97690249
_cell_formula_units_Z   50
loop_
 _symmetry_equiv_pos_site_id
 _symmetry_equiv_pos_as_xyz
  1  'x, y, z'
loop_
 _atom_site_type_symbol
 _atom_site_label
 _atom_site_symmetry_multiplicity
 _atom_site_fract_x
 _atom_site_fract_y
 _atom_site_fract_z
 _atom_site_occupancy
  Zr  Zr0  1  0.89166457  0.89778139  0.49241418  1
  Zr  Zr1  1  0.29005214  0.69191432  0.30230584  1
  Zr  Zr2  1  0.10092561  0.68971118  0.90571299  1
  Zr  Zr3  1  0.49849670  0.30251941  0.09319042  1
  Zr  Zr4  1  0.90117464  0.69137762  0.89964531  1
  Zr  Zr5  1  0.70055110  0.69260532  0.69987035  1
  Zr  Zr6  1  0.89722876  0.89207625  0.29524125  1
  Zr  Zr7  1  0.10618621  0.89818450  0.89367065  1
  Zr  Zr8  1  0.10115038  0.50524279  0.29776785  1
  Zr  Zr9  1  0.90591968  0.90321004  0.70491868  1
  Zr  Zr10  1  0.70687699  0.89450994  0.90720144  1
  Zr  Zr11  1  0.70554169  0.49970535  0.50829394  1
  Zr  Zr12  1  0.29404257  0.49783577  0.10700863  1
  Zr  Zr13  1  0.49776172  0.89477385  0.11008914  1
  Zr  Zr14  1  0.30094227  0.69162004  0.50363029  1
  Zr  Zr15  1  0.70508485  0.50461156  0.69550385  1
  Zr  Zr16  1  0.30192147  0.50189935  0.89104829  1
  Zr  Zr17  1  0.50845249  0.30480097  0.70296863  1
  Zr  Zr18  1  0.90147861  0.29910153  0.30193243  1
  Zr  Zr19  1  0.10231796  0.71118201  0.50364063  1
  Zr  Zr20  1  0.49275466  0.09724791  0.70174867  1
  Zr  Zr21  1  0.71080616  0.51698571  0.89764471  1
  Zr  Zr22  1  0.50368799  0.30312661  0.90008833  1
  Zr  Zr23  1  0.70107388  0.10129513  0.49969241  1
  Zr  Zr24  1  0.08907669  0.29891478  0.70121162  1
  Zr  Zr25  1  0.70802402  0.50460230  0.10455653  1
  Zr  Zr26  1  0.30190063  0.30101941  0.48726015  1
  Zr  Zr27  1  0.49403958  0.29543011  0.30658971  1
  Zr  Zr28  1  0.50174408  0.51039725  0.30454752  1
  Zr  Zr29  1  0.69553312  0.29770639  0.10057505  1
  Zr  Zr30  1  0.69032899  0.70724663  0.09813355  1
  Zr  Zr31  1  0.49963927  0.10985409  0.89576025  1
  Zr  Zr32  1  0.09987962  0.28539952  0.09163004  1
  Zr  Zr33  1  0.89220621  0.09274424  0.30094154  1
  Zr  Zr34  1  0.29826165  0.49329615  0.31115407  1
  Zr  Zr35  1  0.49543186  0.89309037  0.69321433  1
  Zr  Zr36  1  0.88889689  0.89935982  0.09880571  1
  Zr  Zr37  1  0.09995239  0.10916565  0.90366212  1
  Zr  Zr38  1  0.70497465  0.10738738  0.70376512  1
  Zr  Zr39  1  0.89418437  0.30119174  0.10235610  1
  Zr  Zr40  1  0.50477521  0.29572514  0.50183099  1
  Zr  Zr41  1  0.89946581  0.51473440  0.29865844  1
  Zr  Zr42  1  0.09906910  0.89658500  0.10518902  1
  Zr  Zr43  1  0.90344845  0.10094981  0.49787198  1
  Zr  Zr44  1  0.69931775  0.70173839  0.89689736  1
  Zr  Zr45  1  0.09264446  0.70132400  0.29657952  1
  Zr  Zr46  1  0.50243381  0.50070735  0.10039553  1
  Zr  Zr47  1  0.50468803  0.69831598  0.89671022  1
  Zr  Zr48  1  0.10243422  0.10065786  0.49817690  1
  Zr  Zr49  1  0.29270537  0.90028719  0.10698830  1
  Sc  Sc50  1  0.70629129  0.51119960  0.30260961  1
  Sc  Sc51  1  0.69750865  0.89126858  0.49669231  1
  Sc  Sc52  1  0.69300150  0.09818536  0.29695344  1
  Sc  Sc53  1  0.89541377  0.50449315  0.49222735  1
  Sc  Sc54  1  0.09929519  0.49766621  0.50518637  1
  Sc  Sc55  1  0.49667572  0.09869363  0.49075419  1
  Sc  Sc56  1  0.90224745  0.09500624  0.89759257  1
  Sc  Sc57  1  0.09702120  0.09337175  0.70560468  1
  Sc  Sc58  1  0.89946609  0.70172144  0.11335274  1
  Sc  Sc59  1  0.09657112  0.10003745  0.30585272  1
  Sc  Sc60  1  0.49781406  0.09825298  0.30379943  1
  Sc  Sc61  1  0.90112023  0.30630238  0.50275923  1
  Sc  Sc62  1  0.69266176  0.29879586  0.89451894  1
  Sc  Sc63  1  0.50222180  0.89872319  0.30127623  1
  Sc  Sc64  1  0.30249805  0.08895181  0.49584864  1
  Sc  Sc65  1  0.30292004  0.90389656  0.70512214  1
  Sc  Sc66  1  0.90220179  0.29842690  0.70034884  1
  Sc  Sc67  1  0.70222661  0.30506214  0.69376756  1
  Sc  Sc68  1  0.49685007  0.89619214  0.49963207  1
  Sc  Sc69  1  0.70444839  0.89103117  0.69353915  1
  Sc  Sc70  1  0.10572291  0.29710155  0.30376603  1
  Sc  Sc71  1  0.70111984  0.28978401  0.29376055  1
  Sc  Sc72  1  0.50601437  0.69993312  0.50412054  1
  Sc  Sc73  1  0.90098655  0.09517068  0.10053931  1
  Sc  Sc74  1  0.09783605  0.51526131  0.08996916  1
  Sc  Sc75  1  0.50422888  0.10615851  0.10288981  1
  Sc  Sc76  1  0.90222610  0.10349608  0.70283453  1
  Sc  Sc77  1  0.49839533  0.50704909  0.50599914  1
  Sc  Sc78  1  0.90519200  0.50261201  0.69189566  1
  Sc  Sc79  1  0.50308325  0.49884966  0.89360223  1
  Sc  Sc80  1  0.09902708  0.09904072  0.10408849  1
  Sc  Sc81  1  0.29627930  0.09788076  0.30520534  1
  Sc  Sc82  1  0.90899335  0.69713392  0.69173762  1
  Sc  Sc83  1  0.49474760  0.89079613  0.88745927  1
  Sc  Sc84  1  0.91779891  0.30357017  0.90204138  1
  Sc  Sc85  1  0.50328037  0.70225456  0.69869399  1
  Sc  Sc86  1  0.70060325  0.10154328  0.10719324  1
  Sc  Sc87  1  0.31050368  0.29522054  0.90709682  1
  Sc  Sc88  1  0.29218715  0.70361200  0.89964684  1
  Sc  Sc89  1  0.90211647  0.90444498  0.90535370  1
  Sc  Sc90  1  0.30924473  0.31873990  0.69402880  1
  Sc  Sc91  1  0.10460456  0.89163157  0.70096330  1
  Sc  Sc92  1  0.30080094  0.89741131  0.50955307  1
  Sc  Sc93  1  0.30231251  0.90603274  0.29823475  1
  Sc  Sc94  1  0.70417493  0.10252767  0.90106166  1
  Sc  Sc95  1  0.10423926  0.90028992  0.29747533  1
  Sc  Sc96  1  0.49232135  0.49814095  0.69913134  1
  Sc  Sc97  1  0.69162548  0.69910256  0.30055909  1
  Sc  Sc98  1  0.09161888  0.29293102  0.49590784  1
  Sc  Sc99  1  0.69773585  0.90045056  0.29921678  1
  Nb  Nb100  1  0.70189567  0.90006803  0.09424988  1
  Nb  Nb101  1  0.29369510  0.10405551  0.09471368  1
  Nb  Nb102  1  0.69818681  0.30256055  0.50063723  1
  Nb  Nb103  1  0.30272022  0.09392541  0.89157054  1
  Nb  Nb104  1  0.49580502  0.70064359  0.10726271  1
  Nb  Nb105  1  0.49936793  0.70069257  0.29870220  1
  Nb  Nb106  1  0.89704383  0.49578184  0.09829626  1
  Nb  Nb107  1  0.30236444  0.09857060  0.70295243  1
  Nb  Nb108  1  0.29834976  0.30338453  0.29648413  1
  Nb  Nb109  1  0.90729232  0.50071575  0.90828988  1
  Nb  Nb110  1  0.29554121  0.69468744  0.68845578  1
  Nb  Nb111  1  0.29494324  0.30097860  0.10408845  1
  Nb  Nb112  1  0.11175699  0.70405036  0.09820434  1
  Nb  Nb113  1  0.30410307  0.50012920  0.51476852  1
  Nb  Nb114  1  0.90139226  0.69713555  0.30931507  1
  Nb  Nb115  1  0.10232029  0.90256654  0.50578121  1
  Nb  Nb116  1  0.10320951  0.69536857  0.69809972  1
  Nb  Nb117  1  0.10289476  0.49777407  0.69953918  1
  Nb  Nb118  1  0.29939090  0.90338776  0.90185856  1
  Nb  Nb119  1  0.09419154  0.49585592  0.89661421  1
  Nb  Nb120  1  0.29051880  0.69911510  0.09867117  1
  Nb  Nb121  1  0.10352956  0.30148137  0.89612951  1
  Nb  Nb122  1  0.90010232  0.70067067  0.48511665  1
  Nb  Nb123  1  0.70075929  0.69968595  0.50848859  1
  Nb  Nb124  1  0.29707401  0.50445610  0.68738747  1
  Nb  Nb125  1  0.00140920  -0.00607245  0.59308091  1
  Nb  Nb126  1  0.00569847  0.79508021  0.00475950  1
  Nb  Nb127  1  0.60084486  0.00191624  0.60465996  1
  Nb  Nb128  1  0.39745843  0.60487043  0.19930082  1
  Nb  Nb129  1  0.20649987  0.00269787  -0.00401353  1
  Nb  Nb130  1  0.38724234  0.20784951  0.19782329  1
  Nb  Nb131  1  0.19471927  0.40084378  0.79938122  1
  Nb  Nb132  1  0.60497574  0.39905304  0.40038406  1
  Nb  Nb133  1  0.19556644  0.59442443  0.78916345  1
  Nb  Nb134  1  0.39778172  0.60775011  0.00715769  1
  Nb  Nb135  1  0.60125974  -0.00269796  0.79817343  1
  Nb  Nb136  1  0.79881233  0.20003186  0.40395813  1
  Nb  Nb137  1  0.20650037  0.20385884  0.79614110  1
  Nb  Nb138  1  0.59873800  0.40207837  0.20576452  1
  Nb  Nb139  1  0.80890597  0.41015901  0.80611044  1
  Nb  Nb140  1  0.39741926  -0.00220179  -0.00198529  1
  Nb  Nb141  1  0.19704517  0.39677144  -0.00557446  1
  Nb  Nb142  1  0.59576522  -0.00536324  -0.00326032  1
  Nb  Nb143  1  0.39939318  0.78945001  0.39621382  1
  Nb  Nb144  1  0.80217157  0.20488941  0.00263800  1
  Nb  Nb145  1  0.39414942  0.79847051  0.00602437  1
  Nb  Nb146  1  0.20777458  0.19816869  0.60656322  1
  Nb  Nb147  1  0.39458689  0.19903381  0.60064175  1
  Nb  Nb148  1  0.80385184  0.79423605  0.80122227  1
  Nb  Nb149  1  -0.00296920  0.40494380  0.19471490  1
  Pd  Pd150  1  0.61185466  0.40966101  -0.00120195  1
  Pd  Pd151  1  -0.00484222  0.80453060  0.59646591  1
  Pd  Pd152  1  0.20614712  0.79189289  0.79203646  1
  Pd  Pd153  1  0.80513212  0.20727657  0.59519743  1
  Pd  Pd154  1  0.39807904  0.01434000  0.19713536  1
  Pd  Pd155  1  0.00618068  0.80861344  0.39877453  1
  Pd  Pd156  1  0.39736465  0.19386049  0.00630782  1
  Pd  Pd157  1  0.78873009  0.79308354  0.39368408  1
  Pd  Pd158  1  0.39306364  0.40820940  -0.00325120  1
  Pd  Pd159  1  0.19456331  0.38822415  0.59758335  1
  Pd  Pd160  1  0.59924901  -0.00466101  0.40713150  1
  Pd  Pd161  1  0.80903280  0.79400285  0.60342909  1
  Pd  Pd162  1  0.00032954  0.60072703  0.19230767  1
  Pd  Pd163  1  0.60554188  0.60051255  0.40988369  1
  Pd  Pd164  1  0.00166586  0.40431427  0.39354515  1
  Pd  Pd165  1  0.79406361  -0.00724409  0.79940992  1
  Pd  Pd166  1  0.79119672  0.79454927  0.20644353  1
  Pd  Pd167  1  -0.00198567  0.79630234  0.80748855  1
  Pd  Pd168  1  0.61083099  0.41027989  0.79908343  1
  Pd  Pd169  1  0.18319033  0.39865764  0.19079110  1
  Pd  Pd170  1  0.00851281  0.39961180  0.00934395  1
  Pd  Pd171  1  0.00155535  0.59497867  0.79433548  1
  Pd  Pd172  1  0.20138923  0.19339099  0.20866151  1
  Pd  Pd173  1  0.80010191  -0.00170998  0.60127761  1
  Pd  Pd174  1  0.20161824  -0.00659893  0.39905770  1
  Pd  Pd175  1  0.39547474  0.60769293  0.79687417  1
  Pd  Pd176  1  0.80564712  0.60980463  0.01189406  1
  Pd  Pd177  1  0.40857222  0.40733893  0.40819002  1
  Pd  Pd178  1  0.60208023  -0.00326083  0.19391618  1
  Pd  Pd179  1  0.20761983  0.80800459  0.39962519  1
  Pd  Pd180  1  0.38884106  0.79136386  0.79966225  1
  Pd  Pd181  1  0.00891028  -0.00484106  -0.00045981  1
  Pd  Pd182  1  0.19336636  0.59347716  0.41201093  1
  Pd  Pd183  1  0.00162624  -0.00971952  0.40050498  1
  Pd  Pd184  1  -0.00135623  -0.00278274  0.20408603  1
  Pd  Pd185  1  0.39397684  0.21319868  0.79118505  1
  Pd  Pd186  1  0.38921417  0.79263195  0.20561028  1
  Pd  Pd187  1  0.59490690  0.59811535  0.00087903  1
  Pd  Pd188  1  0.79480377  0.39371415  -0.01167301  1
  Pd  Pd189  1  0.79316967  0.39492964  0.39401941  1
  Pd  Pd190  1  0.00126383  0.60044954  0.58858467  1
  Pd  Pd191  1  0.79744480  0.40322650  0.21062914  1
  Pd  Pd192  1  -0.00144619  0.20079951  0.20426854  1
  Pd  Pd193  1  0.80862059  0.21396677  0.81081349  1
  Pd  Pd194  1  0.59382682  0.19286731  0.60282024  1
  Pd  Pd195  1  -0.00433850  0.40273767  0.59619901  1
  Pd  Pd196  1  0.19233226  0.40110603  0.40872001  1
  Pd  Pd197  1  0.58705297  0.80689787  -0.00036897  1
  Pd  Pd198  1  0.19650845  0.00223168  0.60785487  1
  Pd  Pd199  1  0.40560883  0.40064965  0.20366524  1
  Rh  Rh200  1  0.60455942  0.80320164  0.20288324  1
  Rh  Rh201  1  0.00434411  -0.00072635  0.79651880  1
  Rh  Rh202  1  -0.00349934  0.40695896  0.79750884  1
  Rh  Rh203  1  0.00048883  0.79738452  0.19753692  1
  Rh  Rh204  1  0.79490563  -0.00366912  0.19877460  1
  Rh  Rh205  1  0.80980110  0.60788858  0.59158978  1
  Rh  Rh206  1  0.19669133  0.00588809  0.80238626  1
  Rh  Rh207  1  0.58529654  0.20628893  0.20206717  1
  Rh  Rh208  1  0.81377777  0.59807123  0.79298923  1
  Rh  Rh209  1  0.61036964  0.19141532  -0.00019045  1
  Rh  Rh210  1  0.20694183  0.58944000  -0.00915477  1
  Rh  Rh211  1  0.19757694  0.00728967  0.19728730  1
  Rh  Rh212  1  0.20387211  0.80221632  0.60512843  1
  Rh  Rh213  1  0.59409402  0.79537829  0.40040213  1
  Rh  Rh214  1  0.40693940  0.60474449  0.60503185  1
  Rh  Rh215  1  0.60281101  0.19809329  0.79569065  1
  Rh  Rh216  1  -0.00701771  0.60816960  0.01082009  1
  Rh  Rh217  1  0.40065118  -0.01394908  0.39965389  1
  Rh  Rh218  1  0.80499250  0.19272201  0.20071178  1
  Rh  Rh219  1  0.40551058  0.00572076  0.59583684  1
  Rh  Rh220  1  -0.01064217  0.19420220  0.00028094  1
  Rh  Rh221  1  0.39845661  0.39838561  0.80212359  1
  Rh  Rh222  1  0.00161527  0.19594915  0.80171976  1
  Rh  Rh223  1  0.20869670  0.20063055  -0.01033410  1
  Rh  Rh224  1  0.59796213  0.40502037  0.59428492  1
  Rh  Rh225  1  0.79198825  0.60979224  0.40432832  1
  Rh  Rh226  1  0.60124657  0.80344750  0.59882370  1
  Rh  Rh227  1  0.20016188  0.59841171  0.20143300  1
  Rh  Rh228  1  0.59343674  0.59546758  0.79357544  1
  Rh  Rh229  1  0.61038642  0.20302452  0.39723863  1
  Rh  Rh230  1  0.00558382  0.18853393  0.60182562  1
  Rh  Rh231  1  0.39550285  0.79235892  0.59513820  1
  Rh  Rh232  1  0.20304246  0.19965005  0.40366897  1
  Rh  Rh233  1  0.59758770  0.59872990  0.60300013  1
  Rh  Rh234  1  0.39815913  0.60297822  0.39943688  1
  Rh  Rh235  1  -0.00726295  0.20048198  0.39637028  1
  Rh  Rh236  1  0.19169866  0.60027536  0.59822435  1
  Rh  Rh237  1  0.59784361  0.59832263  0.19755487  1
  Rh  Rh238  1  0.19848819  0.80970142  0.00053164  1
  Rh  Rh239  1  0.40693604  -0.00508278  0.80406808  1
  Rh  Rh240  1  0.81242096  0.79320403  -0.00468861  1
  Rh  Rh241  1  0.79959344  0.60916438  0.19909899  1
  Rh  Rh242  1  0.39084889  0.19469330  0.39695307  1
  Rh  Rh243  1  0.79136839  0.00311639  0.39752744  1
  Rh  Rh244  1  0.61214405  0.80415734  0.79446491  1
  Rh  Rh245  1  0.00747257  0.60294494  0.40712682  1
  Rh  Rh246  1  0.79078881  0.01258953  0.00542665  1
  Rh  Rh247  1  0.20007669  0.79756460  0.20856920  1
  Rh  Rh248  1  0.80565222  0.39760545  0.60691099  1
  Rh  Rh249  1  0.40667183  0.39616341  0.59253715  1
