# generated using pymatgen
data_ZrScNbPdRh
_symmetry_space_group_name_H-M   'P 1'
_cell_length_a   16.55195987
_cell_length_b   16.55383624
_cell_length_c   16.55307270
_cell_angle_alpha   89.99835885
_cell_angle_beta   89.99879147
_cell_angle_gamma   89.98022386
_symmetry_Int_Tables_number   1
_chemical_formula_structural   ZrScNbPdRh
_chemical_formula_sum   'Zr50 Sc50 Nb50 Pd50 Rh50'
_cell_volume   4535.51570906
_cell_formula_units_Z   50
loop_
 _symmetry_equiv_pos_site_id
 _symmetry_equiv_pos_as_xyz
  1  'x, y, z'
loop_
 _atom_site_type_symbol
 _atom_site_label
 _atom_site_symmetry_multiplicity
 _atom_site_fract_x
 _atom_site_fract_y
 _atom_site_fract_z
 _atom_site_occupancy
  Zr  Zr0  1  0.70296356  0.29672925  0.10729754  1
  Zr  Zr1  1  0.10322448  0.69912630  0.50704695  1
  Zr  Zr2  1  0.49946890  0.50368322  0.90280581  1
  Zr  Zr3  1  0.89848238  0.90097990  0.89751807  1
  Zr  Zr4  1  0.29503230  0.29651279  0.70480514  1
  Zr  Zr5  1  0.29925208  0.11116084  0.30609901  1
  Zr  Zr6  1  0.90159077  0.49031220  0.90669828  1
  Zr  Zr7  1  0.30743228  0.69339235  0.30588227  1
  Zr  Zr8  1  0.29774014  0.69929966  0.50279135  1
  Zr  Zr9  1  0.89504485  0.90458840  0.69616986  1
  Zr  Zr10  1  0.51185193  0.49680928  0.09791890  1
  Zr  Zr11  1  0.09421919  0.49975514  0.50276281  1
  Zr  Zr12  1  0.08937486  0.90110766  0.30189466  1
  Zr  Zr13  1  0.29491724  0.90303690  0.09223545  1
  Zr  Zr14  1  0.10199765  0.09917911  0.89579866  1
  Zr  Zr15  1  0.29304340  0.49833533  0.89728569  1
  Zr  Zr16  1  0.89956492  0.70687739  0.10775255  1
  Zr  Zr17  1  0.30895448  0.29536165  0.48914242  1
  Zr  Zr18  1  0.49377892  0.69539902  0.89719066  1
  Zr  Zr19  1  0.50450718  0.10482379  0.09996377  1
  Zr  Zr20  1  0.49168004  0.50179998  0.29277508  1
  Zr  Zr21  1  0.69942544  0.50035561  0.91383155  1
  Zr  Zr22  1  0.09497833  0.69659971  0.30474288  1
  Zr  Zr23  1  0.50896758  0.08911344  0.29240856  1
  Zr  Zr24  1  0.50190398  0.89725495  0.50737874  1
  Zr  Zr25  1  0.09434459  0.10959055  0.30341252  1
  Zr  Zr26  1  0.89987336  0.89958506  0.10225789  1
  Zr  Zr27  1  0.70383709  0.69193548  0.10705387  1
  Zr  Zr28  1  0.69290010  0.50453186  0.29526649  1
  Zr  Zr29  1  0.50816337  0.69869966  0.29758830  1
  Zr  Zr30  1  0.69429475  0.69609835  0.89940530  1
  Zr  Zr31  1  0.70711414  0.89147875  0.49823644  1
  Zr  Zr32  1  0.29720096  0.50372074  0.49751682  1
  Zr  Zr33  1  0.91003012  0.10316591  0.69490191  1
  Zr  Zr34  1  0.70526919  0.91090838  0.89392511  1
  Zr  Zr35  1  0.50527430  0.10123860  0.90399006  1
  Zr  Zr36  1  0.29251415  0.09852430  0.69911557  1
  Zr  Zr37  1  0.69868479  0.30080234  0.69183743  1
  Zr  Zr38  1  0.30327419  0.89679553  0.50780665  1
  Zr  Zr39  1  0.50029171  0.70505305  0.49482288  1
  Zr  Zr40  1  0.49805207  0.69978592  0.09550915  1
  Zr  Zr41  1  0.10576415  0.89918350  0.89981324  1
  Zr  Zr42  1  0.49617782  0.70341454  0.70224434  1
  Zr  Zr43  1  0.30182362  0.90048034  0.30018024  1
  Zr  Zr44  1  0.90397433  0.30280961  0.70300649  1
  Zr  Zr45  1  0.29806705  0.10046065  0.50310221  1
  Zr  Zr46  1  0.49767956  0.29415168  0.30380829  1
  Zr  Zr47  1  0.09995893  0.49758422  0.09314802  1
  Zr  Zr48  1  0.50363322  0.29909859  0.69289809  1
  Zr  Zr49  1  0.71221467  0.89838186  0.10081793  1
  Sc  Sc50  1  0.49361176  0.90641408  0.89402418  1
  Sc  Sc51  1  0.09598398  0.70587015  0.08907562  1
  Sc  Sc52  1  0.70889923  0.70076363  0.69458512  1
  Sc  Sc53  1  0.10092756  0.29220317  0.09816018  1
  Sc  Sc54  1  0.90825258  0.50245689  0.31468626  1
  Sc  Sc55  1  0.50074275  0.09039954  0.69892820  1
  Sc  Sc56  1  0.49865776  0.30351208  0.09845228  1
  Sc  Sc57  1  0.70074070  0.09259866  0.69751018  1
  Sc  Sc58  1  0.09551628  0.89798609  0.09706030  1
  Sc  Sc59  1  0.28794162  0.30413007  0.29896047  1
  Sc  Sc60  1  0.90147917  0.49779934  0.50404110  1
  Sc  Sc61  1  0.09745640  0.49999789  0.89854320  1
  Sc  Sc62  1  0.30370637  0.49179391  0.09730087  1
  Sc  Sc63  1  0.49159286  0.49539640  0.50097929  1
  Sc  Sc64  1  0.10015248  0.90198990  0.70545995  1
  Sc  Sc65  1  0.29244019  0.29664883  0.90221490  1
  Sc  Sc66  1  0.90380207  0.70134425  0.70508028  1
  Sc  Sc67  1  0.29449400  0.90139370  0.89585818  1
  Sc  Sc68  1  0.49472134  0.50765515  0.69952501  1
  Sc  Sc69  1  0.50804739  0.10103116  0.49993584  1
  Sc  Sc70  1  0.91160107  0.70406596  0.90018114  1
  Sc  Sc71  1  0.90635495  0.49649909  0.70265220  1
  Sc  Sc72  1  0.70133460  0.70540793  0.30571267  1
  Sc  Sc73  1  0.10122975  0.50030928  0.70996498  1
  Sc  Sc74  1  0.71685430  0.29979675  0.90316649  1
  Sc  Sc75  1  0.29687096  0.09945839  0.09787554  1
  Sc  Sc76  1  0.29940247  0.69754506  0.70571945  1
  Sc  Sc77  1  0.69961674  0.90518080  0.29934039  1
  Sc  Sc78  1  0.88554367  0.69608586  0.50047627  1
  Sc  Sc79  1  0.10042836  0.70572525  0.70693403  1
  Sc  Sc80  1  0.69927508  0.10094059  0.09989949  1
  Sc  Sc81  1  0.10093370  0.30010740  0.90112706  1
  Sc  Sc82  1  0.09379888  0.29763625  0.70251151  1
  Sc  Sc83  1  0.09260432  0.10175400  0.50653662  1
  Sc  Sc84  1  0.89813732  0.09942298  0.30177882  1
  Sc  Sc85  1  0.90224676  0.28901391  0.09046347  1
  Sc  Sc86  1  0.89267112  0.10800233  0.89230287  1
  Sc  Sc87  1  0.29368843  0.09957562  0.89925975  1
  Sc  Sc88  1  0.09082105  0.30012588  0.49631058  1
  Sc  Sc89  1  0.29259907  0.30075943  0.09683722  1
  Sc  Sc90  1  0.89204146  0.90652982  0.29460029  1
  Sc  Sc91  1  0.10146509  0.49277961  0.31056072  1
  Sc  Sc92  1  0.70223174  0.09909031  0.48935165  1
  Sc  Sc93  1  0.49037394  0.29843899  0.90725302  1
  Sc  Sc94  1  0.70792337  0.49863544  0.69493273  1
  Sc  Sc95  1  0.10264458  0.70311407  0.89616885  1
  Sc  Sc96  1  0.90378128  0.09474900  0.49399795  1
  Sc  Sc97  1  0.09607028  0.89947872  0.51010987  1
  Sc  Sc98  1  0.50134077  0.91432724  0.10670551  1
  Sc  Sc99  1  0.09940853  0.10925337  0.10037931  1
  Nb  Nb100  1  0.69339679  0.09798198  0.89124914  1
  Nb  Nb101  1  0.70481577  0.10836968  0.29354311  1
  Nb  Nb102  1  0.50676768  0.29721855  0.50342889  1
  Nb  Nb103  1  0.90231194  0.09949657  0.10123416  1
  Nb  Nb104  1  0.90366640  0.70548022  0.30091241  1
  Nb  Nb105  1  0.89614180  0.49931723  0.10384200  1
  Nb  Nb106  1  0.29626678  0.49948658  0.69838171  1
  Nb  Nb107  1  0.09128736  0.29576281  0.29564626  1
  Nb  Nb108  1  0.89941370  0.29913559  0.49967730  1
  Nb  Nb109  1  0.09939889  0.10262146  0.69865369  1
  Nb  Nb110  1  0.29868000  0.50223349  0.29846990  1
  Nb  Nb111  1  0.71063783  0.49625397  0.09977022  1
  Nb  Nb112  1  0.69550744  0.29881580  0.50145117  1
  Nb  Nb113  1  0.89814727  0.29396101  0.30268938  1
  Nb  Nb114  1  0.30409097  0.70759976  0.90581376  1
  Nb  Nb115  1  0.31556291  0.90242842  0.70072179  1
  Nb  Nb116  1  0.89836309  0.90456919  0.49310409  1
  Nb  Nb117  1  0.69605379  0.90087658  0.70213135  1
  Nb  Nb118  1  0.90506684  0.29730522  0.89495209  1
  Nb  Nb119  1  0.70680369  0.29091942  0.30284928  1
  Nb  Nb120  1  0.49637087  0.89846959  0.69725124  1
  Nb  Nb121  1  0.70548322  0.50298959  0.49846987  1
  Nb  Nb122  1  0.69959368  0.69474214  0.49690104  1
  Nb  Nb123  1  0.29799178  0.70686544  0.09760062  1
  Nb  Nb124  1  0.50079431  0.90016949  0.29803804  1
  Nb  Nb125  1  0.40258686  0.20168098  0.59723328  1
  Nb  Nb126  1  0.60492639  0.39473750  0.40380263  1
  Nb  Nb127  1  0.20141510  0.60097256  0.19927018  1
  Nb  Nb128  1  0.80515634  0.39866197  0.20482971  1
  Nb  Nb129  1  0.39874306  0.40230758  0.79755850  1
  Nb  Nb130  1  0.19810844  -0.00120966  0.20668911  1
  Nb  Nb131  1  0.00223070  0.60179695  0.60108397  1
  Nb  Nb132  1  0.40130744  -0.00203208  0.39968757  1
  Nb  Nb133  1  0.60283110  0.20205357  0.80214501  1
  Nb  Nb134  1  0.20096500  0.00061488  0.40016142  1
  Nb  Nb135  1  0.20400087  0.40149417  0.60105527  1
  Nb  Nb136  1  0.80259769  0.59634584  0.80742542  1
  Nb  Nb137  1  0.60048242  0.80665151  0.79630775  1
  Nb  Nb138  1  -0.00933478  0.80124560  0.40405320  1
  Nb  Nb139  1  0.00120862  0.59514556  0.19773894  1
  Nb  Nb140  1  -0.00592961  0.00558745  -0.00103626  1
  Nb  Nb141  1  -0.00640847  0.39840526  0.20145242  1
  Nb  Nb142  1  0.60179331  0.80214384  -0.00496566  1
  Nb  Nb143  1  0.60666220  0.60235462  0.59059665  1
  Nb  Nb144  1  0.40095476  0.19697216  0.20257258  1
  Nb  Nb145  1  0.79360768  0.39197977  0.40060217  1
  Nb  Nb146  1  0.39817784  0.80061976  0.19870213  1
  Nb  Nb147  1  0.59768331  0.39757954  0.80137843  1
  Nb  Nb148  1  0.80096254  0.20616463  0.59304771  1
  Nb  Nb149  1  0.20355399  0.79630178  0.20116886  1
  Pd  Pd150  1  0.19821329  0.21086654  0.59384616  1
  Pd  Pd151  1  -0.00502655  0.60204154  0.00342755  1
  Pd  Pd152  1  0.39807356  0.00235681  -0.00500408  1
  Pd  Pd153  1  0.80959880  0.59524713  0.21322171  1
  Pd  Pd154  1  0.20076601  0.60689276  0.80272308  1
  Pd  Pd155  1  0.40498606  0.80380749  0.39525441  1
  Pd  Pd156  1  0.39259417  0.39418707  0.60443970  1
  Pd  Pd157  1  0.80595774  0.39839963  0.59392485  1
  Pd  Pd158  1  0.40329748  0.40207048  0.39525284  1
  Pd  Pd159  1  0.79559895  0.40608229  0.80246776  1
  Pd  Pd160  1  0.60411443  -0.00659038  0.00259923  1
  Pd  Pd161  1  0.39719721  0.00730062  0.80345971  1
  Pd  Pd162  1  0.80489730  0.01312730  -0.00147641  1
  Pd  Pd163  1  0.60363493  0.38858763  -0.00560814  1
  Pd  Pd164  1  0.79739312  0.79193541  -0.00501981  1
  Pd  Pd165  1  0.20614820  0.80343415  0.61433094  1
  Pd  Pd166  1  0.59294476  0.59083512  0.40453860  1
  Pd  Pd167  1  0.19436378  -0.00519643  0.60151880  1
  Pd  Pd168  1  0.00017697  0.39181886  0.00461229  1
  Pd  Pd169  1  0.40312031  0.60524868  0.59825758  1
  Pd  Pd170  1  0.79778782  0.79349223  0.79981328  1
  Pd  Pd171  1  0.59881571  0.41429918  0.59847450  1
  Pd  Pd172  1  0.80409658  0.79904741  0.60022361  1
  Pd  Pd173  1  0.19614337  0.39423457  0.40544058  1
  Pd  Pd174  1  0.39496430  0.60198196  0.18879227  1
  Pd  Pd175  1  0.40628073  0.20056935  0.79529875  1
  Pd  Pd176  1  0.19017708  0.80621238  0.39927402  1
  Pd  Pd177  1  0.19828653  0.59761880  0.39670141  1
  Pd  Pd178  1  0.79433856  0.19639540  0.78881156  1
  Pd  Pd179  1  0.40851258  0.81255406  0.00308438  1
  Pd  Pd180  1  0.60586248  0.39298545  0.20635506  1
  Pd  Pd181  1  0.61005942  0.59678558  0.78541379  1
  Pd  Pd182  1  0.80290394  0.59587223  0.39496939  1
  Pd  Pd183  1  0.81034515  0.60816234  -0.00517839  1
  Pd  Pd184  1  -0.00139632  0.00084267  0.80320194  1
  Pd  Pd185  1  0.00518160  0.00682889  0.19301366  1
  Pd  Pd186  1  0.19067464  0.40453433  0.19913704  1
  Pd  Pd187  1  0.60892181  0.20816020  -0.00649776  1
  Pd  Pd188  1  -0.01045498  0.79541755  0.59574525  1
  Pd  Pd189  1  0.60666980  -0.00021130  0.59643615  1
  Pd  Pd190  1  0.39215626  0.19861811  0.00721517  1
  Pd  Pd191  1  0.39452076  0.39045477  0.19899882  1
  Pd  Pd192  1  0.60581495  0.79342828  0.60478027  1
  Pd  Pd193  1  0.39212498  0.59355678  0.00417371  1
  Pd  Pd194  1  0.20403126  0.60343769  0.00157848  1
  Pd  Pd195  1  0.60036247  0.19910666  0.39804925  1
  Pd  Pd196  1  0.79837306  0.19344107  -0.00124709  1
  Pd  Pd197  1  0.60127940  -0.00629112  0.40042175  1
  Pd  Pd198  1  0.79846462  0.00723939  0.59527747  1
  Pd  Pd199  1  0.59799507  0.80568933  0.19359203  1
  Rh  Rh200  1  0.20244634  -0.00221101  0.79074619  1
  Rh  Rh201  1  0.60164986  0.59928532  0.19495038  1
  Rh  Rh202  1  0.59655702  -0.00158537  0.79591037  1
  Rh  Rh203  1  0.60338322  0.19012422  0.60445905  1
  Rh  Rh204  1  0.80383800  0.59876262  0.60810302  1
  Rh  Rh205  1  -0.00730803  0.20460650  0.19958921  1
  Rh  Rh206  1  0.39205230  0.00378945  0.20678926  1
  Rh  Rh207  1  0.00281015  -0.00642491  0.40524534  1
  Rh  Rh208  1  0.00054903  -0.00183820  0.60046671  1
  Rh  Rh209  1  0.40396584  0.59513956  0.40395693  1
  Rh  Rh210  1  -0.00507593  0.59925013  0.79600620  1
  Rh  Rh211  1  0.60424565  0.80509406  0.39930655  1
  Rh  Rh212  1  0.39420666  0.79249148  0.60511235  1
  Rh  Rh213  1  0.20493521  0.19724855  0.19927919  1
  Rh  Rh214  1  0.18685392  0.00449728  0.00789673  1
  Rh  Rh215  1  0.39994344  0.80133717  0.80075694  1
  Rh  Rh216  1  0.38963779  0.59529645  0.80475008  1
  Rh  Rh217  1  0.61260415  -0.00155367  0.19653522  1
  Rh  Rh218  1  0.80336122  0.19949704  0.40677588  1
  Rh  Rh219  1  0.39519306  0.40208055  -0.00708601  1
  Rh  Rh220  1  0.59526049  0.20277146  0.20101395  1
  Rh  Rh221  1  0.20212491  0.39761857  0.79677084  1
  Rh  Rh222  1  0.79695313  0.80038654  0.20884218  1
  Rh  Rh223  1  -0.00445674  0.20089825  0.40215395  1
  Rh  Rh224  1  0.19178279  0.59330035  0.60807565  1
  Rh  Rh225  1  0.00197800  0.80682021  0.79980116  1
  Rh  Rh226  1  0.18600813  0.20136302  0.40505624  1
  Rh  Rh227  1  0.40291740  0.00706678  0.59532630  1
  Rh  Rh228  1  0.80698752  0.19807385  0.19669853  1
  Rh  Rh229  1  0.80320255  0.00627393  0.79236521  1
  Rh  Rh230  1  0.80288692  0.80264733  0.39646963  1
  Rh  Rh231  1  0.79776465  0.00934638  0.20056162  1
  Rh  Rh232  1  0.00647145  0.40485212  0.60472807  1
  Rh  Rh233  1  0.79651568  0.00225474  0.39517588  1
  Rh  Rh234  1  0.19800269  0.79702129  -0.00225463  1
  Rh  Rh235  1  -0.00654655  0.61296703  0.40889698  1
  Rh  Rh236  1  0.41450980  0.19022200  0.40111291  1
  Rh  Rh237  1  0.00447053  0.20176663  0.80248482  1
  Rh  Rh238  1  -0.00741192  0.38982407  0.39484980  1
  Rh  Rh239  1  0.19593592  0.39741938  -0.00103610  1
  Rh  Rh240  1  0.20978122  0.80240941  0.79924457  1
  Rh  Rh241  1  0.19931651  0.19862451  -0.00180729  1
  Rh  Rh242  1  0.80722540  0.39177652  0.00854396  1
  Rh  Rh243  1  0.00020236  0.80986112  -0.00580001  1
  Rh  Rh244  1  0.19211330  0.19739346  0.79985434  1
  Rh  Rh245  1  0.60323468  0.60372488  0.01113329  1
  Rh  Rh246  1  0.00460089  0.79355907  0.20571768  1
  Rh  Rh247  1  -0.00490208  0.20266598  0.59715253  1
  Rh  Rh248  1  -0.00119640  0.19238753  -0.00911326  1
  Rh  Rh249  1  0.00390683  0.39698647  0.80561735  1
