# generated using pymatgen
data_ZrScNbPdRh
_symmetry_space_group_name_H-M   'P 1'
_cell_length_a   16.56178527
_cell_length_b   16.56682325
_cell_length_c   16.57083894
_cell_angle_alpha   89.98579422
_cell_angle_beta   90.01746634
_cell_angle_gamma   89.98352720
_symmetry_Int_Tables_number   1
_chemical_formula_structural   ZrScNbPdRh
_chemical_formula_sum   'Zr50 Sc50 Nb50 Pd50 Rh50'
_cell_volume   4546.64277075
_cell_formula_units_Z   50
loop_
 _symmetry_equiv_pos_site_id
 _symmetry_equiv_pos_as_xyz
  1  'x, y, z'
loop_
 _atom_site_type_symbol
 _atom_site_label
 _atom_site_symmetry_multiplicity
 _atom_site_fract_x
 _atom_site_fract_y
 _atom_site_fract_z
 _atom_site_occupancy
  Zr  Zr0  1  0.49962658  0.69724660  0.49498110  1
  Zr  Zr1  1  0.69696147  0.30115040  0.50758253  1
  Zr  Zr2  1  0.09190587  0.89764600  0.29837159  1
  Zr  Zr3  1  0.49434182  0.09959901  0.69939132  1
  Zr  Zr4  1  0.49453490  0.89204614  0.49945917  1
  Zr  Zr5  1  0.29846938  0.10786783  0.51022543  1
  Zr  Zr6  1  0.89615090  0.90271934  0.91607693  1
  Zr  Zr7  1  0.71080544  0.49695699  0.69737587  1
  Zr  Zr8  1  0.50093462  0.69587956  0.09849064  1
  Zr  Zr9  1  0.69790592  0.10565793  0.69740128  1
  Zr  Zr10  1  0.69770868  0.89746260  0.70476963  1
  Zr  Zr11  1  0.09273609  0.89630437  0.69600789  1
  Zr  Zr12  1  0.90668476  0.50229545  0.30351402  1
  Zr  Zr13  1  0.49931185  0.69416144  0.90126008  1
  Zr  Zr14  1  0.49808132  0.70319028  0.69888806  1
  Zr  Zr15  1  0.49554076  0.48897330  0.70071050  1
  Zr  Zr16  1  0.49826024  0.30386086  0.50865013  1
  Zr  Zr17  1  0.50608446  0.89892373  0.88910782  1
  Zr  Zr18  1  0.49755566  0.30196618  0.28464436  1
  Zr  Zr19  1  0.70339611  0.89224774  0.49606913  1
  Zr  Zr20  1  0.70135017  0.10309909  0.50044529  1
  Zr  Zr21  1  0.69913201  0.09792063  0.29716191  1
  Zr  Zr22  1  0.50576949  0.29477823  0.70244144  1
  Zr  Zr23  1  0.90126263  0.50119163  0.69958786  1
  Zr  Zr24  1  0.09749633  0.10287027  0.50216438  1
  Zr  Zr25  1  0.50247946  0.50020671  0.49457204  1
  Zr  Zr26  1  0.50059251  0.30184387  0.10228374  1
  Zr  Zr27  1  0.69427586  0.69621840  0.90363880  1
  Zr  Zr28  1  0.49769859  0.30064873  0.88881793  1
  Zr  Zr29  1  0.89236554  0.49082883  0.89917198  1
  Zr  Zr30  1  0.50160459  0.10438974  0.11010785  1
  Zr  Zr31  1  0.50051391  0.10032832  0.29537628  1
  Zr  Zr32  1  0.10299642  0.10883581  0.90252999  1
  Zr  Zr33  1  0.09675352  0.89544197  0.10339890  1
  Zr  Zr34  1  0.29520876  0.29154053  0.90755553  1
  Zr  Zr35  1  0.69854275  0.49910222  0.49462236  1
  Zr  Zr36  1  0.70755831  0.69530841  0.70057643  1
  Zr  Zr37  1  0.49754419  0.50331767  0.89836819  1
  Zr  Zr38  1  0.10006979  0.30266883  0.69837053  1
  Zr  Zr39  1  0.09738208  0.09959839  0.70780311  1
  Zr  Zr40  1  0.29937649  0.68923323  0.89927630  1
  Zr  Zr41  1  0.90761640  0.10558083  0.90245057  1
  Zr  Zr42  1  0.71866528  0.69893046  0.30032490  1
  Zr  Zr43  1  0.29570115  0.90483420  0.10239021  1
  Zr  Zr44  1  0.28854686  0.30450171  0.50426915  1
  Zr  Zr45  1  0.09373033  0.69471565  0.70105590  1
  Zr  Zr46  1  0.49894536  0.90746782  0.29649607  1
  Zr  Zr47  1  0.90926323  0.30459615  0.29948715  1
  Zr  Zr48  1  0.09723320  0.31332203  0.09271230  1
  Zr  Zr49  1  0.29712626  0.50031230  0.89909742  1
  Sc  Sc50  1  0.29905708  0.88926558  0.29127836  1
  Sc  Sc51  1  0.09615643  0.90934269  0.90563148  1
  Sc  Sc52  1  0.90719761  0.10544699  0.29632298  1
  Sc  Sc53  1  0.30296085  0.69946371  0.47695256  1
  Sc  Sc54  1  0.49620524  0.90531679  0.10828209  1
  Sc  Sc55  1  0.70512662  0.50519403  0.89832282  1
  Sc  Sc56  1  0.91075472  0.50131449  0.49970542  1
  Sc  Sc57  1  0.70244086  0.69688182  0.09674829  1
  Sc  Sc58  1  0.09876675  0.09400440  0.10521869  1
  Sc  Sc59  1  0.48499307  0.69424356  0.29703863  1
  Sc  Sc60  1  0.09239041  0.49975651  0.69424695  1
  Sc  Sc61  1  0.70212054  0.30624426  0.11362129  1
  Sc  Sc62  1  0.70732335  0.09654430  0.10712132  1
  Sc  Sc63  1  0.09527708  0.69329732  0.90431173  1
  Sc  Sc64  1  0.49977608  0.09994770  0.50423842  1
  Sc  Sc65  1  0.30344798  0.29792572  0.69585215  1
  Sc  Sc66  1  0.29910855  0.69099628  0.70683541  1
  Sc  Sc67  1  0.90458125  0.69457787  0.69865367  1
  Sc  Sc68  1  0.10116872  0.50078661  0.91674172  1
  Sc  Sc69  1  0.89858695  0.30921905  0.70675849  1
  Sc  Sc70  1  0.70266036  0.50315705  0.10484842  1
  Sc  Sc71  1  0.70745885  0.09071240  0.88857833  1
  Sc  Sc72  1  0.29666891  0.90765044  0.89460642  1
  Sc  Sc73  1  0.89946941  0.69860442  0.90312382  1
  Sc  Sc74  1  0.90491822  0.49422373  0.10354283  1
  Sc  Sc75  1  0.09547118  0.69550112  0.10520862  1
  Sc  Sc76  1  0.29966369  0.30111479  0.10957782  1
  Sc  Sc77  1  0.29502272  0.10293115  0.09710581  1
  Sc  Sc78  1  0.70597485  0.69144712  0.50075498  1
  Sc  Sc79  1  0.90438158  0.10826527  0.49488075  1
  Sc  Sc80  1  0.28948347  0.11092100  0.29050571  1
  Sc  Sc81  1  0.90194061  0.90088061  0.10911671  1
  Sc  Sc82  1  0.49725261  0.10806954  0.88818473  1
  Sc  Sc83  1  0.89844636  0.10218455  0.70501559  1
  Sc  Sc84  1  0.50321346  0.50172784  0.10848599  1
  Sc  Sc85  1  0.30237178  0.89169086  0.49509359  1
  Sc  Sc86  1  0.28966825  0.50014401  0.10538410  1
  Sc  Sc87  1  0.70613400  0.90397367  0.29313189  1
  Sc  Sc88  1  0.29378913  0.49740536  0.70486637  1
  Sc  Sc89  1  0.90522706  0.30552882  0.10383019  1
  Sc  Sc90  1  0.70762773  0.30881636  0.30220934  1
  Sc  Sc91  1  0.50097024  0.50238168  0.29436688  1
  Sc  Sc92  1  0.70378183  0.89523247  0.90028585  1
  Sc  Sc93  1  0.89945414  0.09507646  0.10253028  1
  Sc  Sc94  1  0.90507948  0.30482088  0.49309943  1
  Sc  Sc95  1  0.90302723  0.88917798  0.69968278  1
  Sc  Sc96  1  0.90486031  0.70660940  0.10444402  1
  Sc  Sc97  1  0.90636889  0.70054082  0.30146741  1
  Sc  Sc98  1  0.10223513  0.30983896  0.49930839  1
  Sc  Sc99  1  0.29513702  0.69700742  0.29033830  1
  Nb  Nb100  1  0.09589151  0.10388747  0.30467600  1
  Nb  Nb101  1  0.90536606  0.70560683  0.49213780  1
  Nb  Nb102  1  0.70582020  0.90364033  0.09764617  1
  Nb  Nb103  1  0.29818384  0.09418349  0.70286546  1
  Nb  Nb104  1  0.30050162  0.89727643  0.69638575  1
  Nb  Nb105  1  0.10239608  0.51016074  0.29774379  1
  Nb  Nb106  1  0.29273059  0.50018956  0.49410777  1
  Nb  Nb107  1  0.29704575  0.09847988  0.89955263  1
  Nb  Nb108  1  0.89748815  0.89313577  0.30327077  1
  Nb  Nb109  1  0.29975947  0.30504970  0.30055544  1
  Nb  Nb110  1  0.49471274  0.89866698  0.69483562  1
  Nb  Nb111  1  0.70651503  0.50182678  0.30026816  1
  Nb  Nb112  1  0.91000510  0.89433571  0.49446007  1
  Nb  Nb113  1  0.09511657  0.89930493  0.50117482  1
  Nb  Nb114  1  0.10040350  0.29593104  0.30042827  1
  Nb  Nb115  1  0.09679589  0.50026708  0.10956469  1
  Nb  Nb116  1  0.29819555  0.50465102  0.30166341  1
  Nb  Nb117  1  0.10313275  0.50379783  0.49589158  1
  Nb  Nb118  1  0.10107279  0.69347891  0.30025034  1
  Nb  Nb119  1  0.70203905  0.30014067  0.89627482  1
  Nb  Nb120  1  0.30260837  0.70905364  0.10360875  1
  Nb  Nb121  1  0.69664482  0.29720590  0.70132702  1
  Nb  Nb122  1  0.90496461  0.29995874  0.90635508  1
  Nb  Nb123  1  0.09543540  0.70116280  0.49544363  1
  Nb  Nb124  1  0.09107910  0.29660673  0.90167822  1
  Nb  Nb125  1  0.79863811  0.20650491  -0.00429156  1
  Nb  Nb126  1  0.39856328  0.20596072  0.39768419  1
  Nb  Nb127  1  0.19952907  -0.00823969  0.60050103  1
  Nb  Nb128  1  0.19784349  0.80026362  0.79831893  1
  Nb  Nb129  1  0.19909512  0.60244673  0.58783469  1
  Nb  Nb130  1  0.19631249  0.00039506  0.40323367  1
  Nb  Nb131  1  0.39669477  0.80342273  -0.00107344  1
  Nb  Nb132  1  0.00368475  0.20395038  0.60366502  1
  Nb  Nb133  1  0.19314781  0.39384828  0.80867042  1
  Nb  Nb134  1  0.40195012  0.00317571  -0.00480378  1
  Nb  Nb135  1  0.39130135  0.39943212  0.39551701  1
  Nb  Nb136  1  0.39061208  0.00762887  0.39687800  1
  Nb  Nb137  1  0.80102274  -0.00529908  0.59289749  1
  Nb  Nb138  1  0.59510615  0.20435870  0.39781043  1
  Nb  Nb139  1  0.39481184  0.59496166  0.59236357  1
  Nb  Nb140  1  0.60189318  0.79739415  0.39096929  1
  Nb  Nb141  1  0.80854049  -0.00541356  0.40251662  1
  Nb  Nb142  1  0.19658627  0.79687539  0.59912889  1
  Nb  Nb143  1  0.59949512  -0.00897827  0.60392148  1
  Nb  Nb144  1  0.59943392  0.39466915  -0.00362163  1
  Nb  Nb145  1  0.60429913  0.79969560  0.20208366  1
  Nb  Nb146  1  0.60886659  0.20179032  -0.00314363  1
  Nb  Nb147  1  0.20507804  0.79796178  -0.00139359  1
  Nb  Nb148  1  0.40249117  0.39902971  0.00010940  1
  Nb  Nb149  1  0.59742978  0.00472882  0.00051048  1
  Pd  Pd150  1  0.60469126  0.60760624  0.20693816  1
  Pd  Pd151  1  0.80469260  0.40433684  0.40297223  1
  Pd  Pd152  1  0.79730740  0.19876142  0.39438729  1
  Pd  Pd153  1  0.60358007  0.79775548  0.59503636  1
  Pd  Pd154  1  0.20021897  0.19844480  0.39943204  1
  Pd  Pd155  1  0.81288151  0.20313118  0.60146891  1
  Pd  Pd156  1  -0.00866788  0.59550668  0.00516999  1
  Pd  Pd157  1  -0.00724613  0.00736607  0.60113400  1
  Pd  Pd158  1  0.00019495  0.58976866  0.81084061  1
  Pd  Pd159  1  0.00663739  0.40604812  0.80785196  1
  Pd  Pd160  1  0.80423943  0.20344522  0.19651430  1
  Pd  Pd161  1  0.39947715  -0.00030860  0.80256728  1
  Pd  Pd162  1  0.81151531  0.59788923  0.19500533  1
  Pd  Pd163  1  0.80533081  0.39659176  0.59516390  1
  Pd  Pd164  1  0.39087082  0.40621551  0.59512504  1
  Pd  Pd165  1  0.18953176  0.20581132  0.19302416  1
  Pd  Pd166  1  0.20532776  0.20506942  0.79519103  1
  Pd  Pd167  1  0.61033382  0.40592815  0.80160813  1
  Pd  Pd168  1  0.19585945  0.40318862  0.38942675  1
  Pd  Pd169  1  0.80469653  0.20691572  0.80327933  1
  Pd  Pd170  1  0.60036288  0.59513731  0.79196797  1
  Pd  Pd171  1  0.19791947  0.00041115  0.20981481  1
  Pd  Pd172  1  0.79325347  0.39448026  0.00607354  1
  Pd  Pd173  1  0.39143237  0.79993745  0.80544509  1
  Pd  Pd174  1  0.00553409  0.20130040  0.19202401  1
  Pd  Pd175  1  0.59354660  0.81123556  0.01076688  1
  Pd  Pd176  1  -0.00838406  -0.00637835  0.80322235  1
  Pd  Pd177  1  -0.00234299  0.00211373  0.39465722  1
  Pd  Pd178  1  0.19703482  -0.00607938  0.79617628  1
  Pd  Pd179  1  0.19491741  0.80431418  0.39917054  1
  Pd  Pd180  1  0.60364345  0.60768007  0.38730054  1
  Pd  Pd181  1  0.40601530  0.19792559  0.00165848  1
  Pd  Pd182  1  0.19493391  0.40108676  0.20672111  1
  Pd  Pd183  1  0.59351480  0.39490666  0.38858462  1
  Pd  Pd184  1  0.00133706  0.00474942  0.00623079  1
  Pd  Pd185  1  0.39581606  0.59420319  0.01227864  1
  Pd  Pd186  1  0.39720831  -0.00277018  0.59366317  1
  Pd  Pd187  1  0.59911932  -0.00095190  0.40805432  1
  Pd  Pd188  1  0.38603611  0.78504476  0.59913423  1
  Pd  Pd189  1  0.81117484  0.60051146  0.59052583  1
  Pd  Pd190  1  0.80822490  0.79910893  0.59755883  1
  Pd  Pd191  1  0.80545429  0.79500153  0.80550254  1
  Pd  Pd192  1  0.80194518  0.79429461  0.00586982  1
  Pd  Pd193  1  0.59452263  0.59447818  0.60624554  1
  Pd  Pd194  1  0.19989422  0.60642190  0.01269539  1
  Pd  Pd195  1  0.00205310  0.80214998  0.81410285  1
  Pd  Pd196  1  0.19271691  0.19984735  0.01131302  1
  Pd  Pd197  1  0.60184060  0.79399473  0.79680760  1
  Pd  Pd198  1  0.80926115  -0.00739742  0.79398357  1
  Pd  Pd199  1  0.80675434  0.60088218  0.00564415  1
  Rh  Rh200  1  0.20384785  -0.00078562  -0.00274182  1
  Rh  Rh201  1  0.80519958  0.40670793  0.20580997  1
  Rh  Rh202  1  0.79664471  0.80392775  0.19312791  1
  Rh  Rh203  1  0.80806580  0.59473568  0.40462555  1
  Rh  Rh204  1  0.00545084  0.79421317  0.39406727  1
  Rh  Rh205  1  0.39276286  0.41104858  0.19998349  1
  Rh  Rh206  1  0.38593713  0.00915992  0.20086488  1
  Rh  Rh207  1  0.80923528  -0.00327723  0.20913949  1
  Rh  Rh208  1  0.00058186  0.39715220  0.59447845  1
  Rh  Rh209  1  0.59667488  0.00012341  0.79478348  1
  Rh  Rh210  1  0.38846750  0.19737636  0.79254199  1
  Rh  Rh211  1  0.79760433  0.39554961  0.79985952  1
  Rh  Rh212  1  0.18989183  0.79204344  0.19467810  1
  Rh  Rh213  1  0.19693018  0.41163718  0.60891170  1
  Rh  Rh214  1  0.79260035  0.00834192  0.00058133  1
  Rh  Rh215  1  0.80477718  0.60543921  0.80203805  1
  Rh  Rh216  1  -0.00193598  0.40607513  -0.00148964  1
  Rh  Rh217  1  -0.00000261  0.59992680  0.20079040  1
  Rh  Rh218  1  0.20009705  0.60337819  0.19742017  1
  Rh  Rh219  1  -0.00361710  0.00048418  0.20710896  1
  Rh  Rh220  1  0.60402795  0.58704365  0.00053642  1
  Rh  Rh221  1  0.60764220  0.40366927  0.60851504  1
  Rh  Rh222  1  0.60946824  -0.00792346  0.18902290  1
  Rh  Rh223  1  0.01150305  0.40333203  0.39412205  1
  Rh  Rh224  1  -0.00431486  0.19930251  0.00878570  1
  Rh  Rh225  1  -0.00121318  0.79106005  0.59520234  1
  Rh  Rh226  1  0.38395980  0.39321956  0.80853093  1
  Rh  Rh227  1  0.39781984  0.58839469  0.39964190  1
  Rh  Rh228  1  0.80084192  0.80160560  0.40068169  1
  Rh  Rh229  1  0.00056256  0.79567155  0.20658383  1
  Rh  Rh230  1  0.40633747  0.59719530  0.78844669  1
  Rh  Rh231  1  0.00228749  0.60312216  0.40097568  1
  Rh  Rh232  1  0.00892333  0.40141636  0.20807207  1
  Rh  Rh233  1  0.40014821  0.20175367  0.60277981  1
  Rh  Rh234  1  0.18744812  0.59317322  0.79213564  1
  Rh  Rh235  1  0.00733769  0.20839143  0.40518645  1
  Rh  Rh236  1  0.61275140  0.20396846  0.20350730  1
  Rh  Rh237  1  0.40915062  0.79699370  0.19495222  1
  Rh  Rh238  1  0.40567588  0.80763237  0.38657816  1
  Rh  Rh239  1  0.39125686  0.19755459  0.20173929  1
  Rh  Rh240  1  0.19186252  0.19215775  0.60981691  1
  Rh  Rh241  1  0.39155980  0.59613432  0.19681507  1
  Rh  Rh242  1  0.19562253  0.60312553  0.39799568  1
  Rh  Rh243  1  0.00666554  0.80050890  0.00022607  1
  Rh  Rh244  1  -0.00555409  0.20586558  0.79518308  1
  Rh  Rh245  1  0.59581689  0.19544569  0.59746882  1
  Rh  Rh246  1  0.00190774  0.60366042  0.59007101  1
  Rh  Rh247  1  0.20421161  0.39758681  -0.00369466  1
  Rh  Rh248  1  0.60830186  0.40910141  0.20050052  1
  Rh  Rh249  1  0.60723571  0.19571012  0.80226909  1
