# generated using pymatgen
data_ZrScNbPdRh
_symmetry_space_group_name_H-M   'P 1'
_cell_length_a   16.56599145
_cell_length_b   16.56255833
_cell_length_c   16.55850347
_cell_angle_alpha   89.98818044
_cell_angle_beta   90.01584575
_cell_angle_gamma   89.99670900
_symmetry_Int_Tables_number   1
_chemical_formula_structural   ZrScNbPdRh
_chemical_formula_sum   'Zr50 Sc50 Nb50 Pd50 Rh50'
_cell_volume   4543.24241674
_cell_formula_units_Z   50
loop_
 _symmetry_equiv_pos_site_id
 _symmetry_equiv_pos_as_xyz
  1  'x, y, z'
loop_
 _atom_site_type_symbol
 _atom_site_label
 _atom_site_symmetry_multiplicity
 _atom_site_fract_x
 _atom_site_fract_y
 _atom_site_fract_z
 _atom_site_occupancy
  Zr  Zr0  1  0.10608545  0.48854157  0.49591342  1
  Zr  Zr1  1  0.49455803  0.69622474  0.09632676  1
  Zr  Zr2  1  0.89627955  0.09737702  0.49846838  1
  Zr  Zr3  1  0.89663895  0.29867435  0.09546076  1
  Zr  Zr4  1  0.70357927  0.09560304  0.10024099  1
  Zr  Zr5  1  0.30472798  0.09378793  0.69995034  1
  Zr  Zr6  1  0.90595958  0.10296655  0.10778526  1
  Zr  Zr7  1  0.10570161  0.89906389  0.69413891  1
  Zr  Zr8  1  0.09698596  0.29205020  0.69870183  1
  Zr  Zr9  1  0.70057680  0.09313952  0.69729860  1
  Zr  Zr10  1  0.08656407  0.09351159  0.29139238  1
  Zr  Zr11  1  0.70568408  0.09147631  0.49982822  1
  Zr  Zr12  1  0.50468603  0.09537648  0.50289555  1
  Zr  Zr13  1  0.29977614  0.49812824  0.29792562  1
  Zr  Zr14  1  0.50143340  0.29652509  0.90376622  1
  Zr  Zr15  1  0.70101927  0.30297037  0.30160180  1
  Zr  Zr16  1  0.89200039  0.51407384  0.89640505  1
  Zr  Zr17  1  0.69537387  0.09702709  0.90420136  1
  Zr  Zr18  1  0.10035813  0.89786496  0.29158281  1
  Zr  Zr19  1  0.90253165  0.28747512  0.49353439  1
  Zr  Zr20  1  0.88960872  0.70278470  0.49630725  1
  Zr  Zr21  1  0.90299255  0.30047748  0.29335378  1
  Zr  Zr22  1  0.49262389  0.50469315  0.50769354  1
  Zr  Zr23  1  0.09692819  0.30552553  0.30907242  1
  Zr  Zr24  1  0.50272906  0.90577411  0.90289918  1
  Zr  Zr25  1  0.30274505  0.89632406  0.10021729  1
  Zr  Zr26  1  0.29697090  0.90564581  0.69926129  1
  Zr  Zr27  1  0.29618093  0.89343458  0.51430701  1
  Zr  Zr28  1  0.30193738  0.68885280  0.89712643  1
  Zr  Zr29  1  0.09988707  0.69879541  0.90420191  1
  Zr  Zr30  1  0.69923569  0.70036867  0.31119744  1
  Zr  Zr31  1  0.30201237  0.30215549  0.90811022  1
  Zr  Zr32  1  0.70244403  0.50106227  0.09941513  1
  Zr  Zr33  1  0.09686581  0.90385802  0.50183844  1
  Zr  Zr34  1  0.50404231  0.89941481  0.49515430  1
  Zr  Zr35  1  0.31018771  0.30283787  0.10312730  1
  Zr  Zr36  1  0.49052214  0.70062988  0.89974276  1
  Zr  Zr37  1  0.30071809  0.29495101  0.69506338  1
  Zr  Zr38  1  0.69657185  0.30840533  0.70947279  1
  Zr  Zr39  1  0.90583191  0.71476708  0.89890301  1
  Zr  Zr40  1  0.29876520  0.70284248  0.29340408  1
  Zr  Zr41  1  0.90110335  0.90196249  0.49807568  1
  Zr  Zr42  1  0.69741877  0.50274262  0.49546749  1
  Zr  Zr43  1  0.28920222  0.30903909  0.50043211  1
  Zr  Zr44  1  0.50566944  0.09849263  0.29862473  1
  Zr  Zr45  1  0.31210008  0.10319774  0.30082861  1
  Zr  Zr46  1  0.70546890  0.90075201  0.70142025  1
  Zr  Zr47  1  0.49489140  0.30026423  0.29679305  1
  Zr  Zr48  1  0.49648236  0.70091012  0.50841826  1
  Zr  Zr49  1  0.49807213  0.70171153  0.30533684  1
  Sc  Sc50  1  0.09916654  0.29499471  0.89866297  1
  Sc  Sc51  1  0.09931943  0.70112182  0.70286579  1
  Sc  Sc52  1  0.29603692  0.09495447  0.09038348  1
  Sc  Sc53  1  0.89479705  0.29345429  0.69952215  1
  Sc  Sc54  1  0.71013110  0.90671583  0.89851988  1
  Sc  Sc55  1  0.50483113  0.30594403  0.50898798  1
  Sc  Sc56  1  0.10002304  0.50247535  0.69999042  1
  Sc  Sc57  1  0.89614920  0.69554644  0.69924888  1
  Sc  Sc58  1  0.08995332  0.28815456  0.09267455  1
  Sc  Sc59  1  0.09913925  0.70368392  0.10064942  1
  Sc  Sc60  1  0.70569394  0.90748872  0.09736425  1
  Sc  Sc61  1  0.09140050  0.69920388  0.29210731  1
  Sc  Sc62  1  0.30802354  0.29828832  0.29803583  1
  Sc  Sc63  1  0.49638780  0.29185593  0.10053708  1
  Sc  Sc64  1  0.49518388  0.50774148  0.90176870  1
  Sc  Sc65  1  0.71486797  0.69584342  0.90358419  1
  Sc  Sc66  1  0.11427453  0.50794643  0.89683992  1
  Sc  Sc67  1  0.70178073  0.49364586  0.89109162  1
  Sc  Sc68  1  0.89644725  0.10005578  0.89499065  1
  Sc  Sc69  1  0.31276459  0.90958993  0.89967946  1
  Sc  Sc70  1  0.30414124  0.90093885  0.29252430  1
  Sc  Sc71  1  0.70639066  0.29190571  0.09631343  1
  Sc  Sc72  1  0.89514097  0.28578440  0.89237779  1
  Sc  Sc73  1  0.71037788  0.49643449  0.69697987  1
  Sc  Sc74  1  0.89593642  0.89803352  0.09794753  1
  Sc  Sc75  1  0.49530006  0.90673281  0.69752415  1
  Sc  Sc76  1  0.49627344  0.50685876  0.10401666  1
  Sc  Sc77  1  0.90172174  0.50812456  0.50963774  1
  Sc  Sc78  1  0.09029831  0.50144728  0.29697051  1
  Sc  Sc79  1  0.69638583  0.90100216  0.30291513  1
  Sc  Sc80  1  0.30015675  0.50334808  0.70380775  1
  Sc  Sc81  1  0.10128217  0.50750264  0.09445193  1
  Sc  Sc82  1  0.70134836  0.69515501  0.09799346  1
  Sc  Sc83  1  0.90061485  0.89577559  0.29981610  1
  Sc  Sc84  1  0.30899251  0.70531703  0.69583911  1
  Sc  Sc85  1  0.09663494  0.29571339  0.50742579  1
  Sc  Sc86  1  0.50205127  0.90730990  0.30043992  1
  Sc  Sc87  1  0.08865764  0.70681299  0.50553376  1
  Sc  Sc88  1  0.08878305  0.10210115  0.50453760  1
  Sc  Sc89  1  0.50612366  0.50724250  0.30399864  1
  Sc  Sc90  1  0.51107263  0.09926710  0.09587199  1
  Sc  Sc91  1  0.90286004  0.90163483  0.71422993  1
  Sc  Sc92  1  0.08835796  0.89708138  0.89376847  1
  Sc  Sc93  1  0.09863419  0.09492658  0.70106393  1
  Sc  Sc94  1  0.30228114  0.10178416  0.50841063  1
  Sc  Sc95  1  0.70347886  0.29538769  0.89936845  1
  Sc  Sc96  1  0.70065494  0.89523075  0.50127140  1
  Sc  Sc97  1  0.89661375  0.49445388  0.10231797  1
  Sc  Sc98  1  0.70141193  0.30178655  0.50233734  1
  Sc  Sc99  1  0.89782650  0.70677218  0.09130225  1
  Nb  Nb100  1  0.30153661  0.50312113  0.49869282  1
  Nb  Nb101  1  0.69488310  0.70547006  0.69110219  1
  Nb  Nb102  1  0.89974625  0.49656087  0.70365840  1
  Nb  Nb103  1  0.89927560  0.89676299  0.90481674  1
  Nb  Nb104  1  0.70069977  0.70308818  0.50951875  1
  Nb  Nb105  1  0.89732702  0.10340101  0.30766713  1
  Nb  Nb106  1  0.10481261  0.90734696  0.10192505  1
  Nb  Nb107  1  0.29752109  0.49924619  0.90171279  1
  Nb  Nb108  1  0.50533180  0.89566133  0.09747241  1
  Nb  Nb109  1  0.69693416  0.50004786  0.30106535  1
  Nb  Nb110  1  0.89764619  0.49999504  0.29759388  1
  Nb  Nb111  1  0.30613764  0.69680144  0.49779011  1
  Nb  Nb112  1  0.89639542  0.69687717  0.30112831  1
  Nb  Nb113  1  0.30362030  0.10213723  0.89796705  1
  Nb  Nb114  1  0.09737763  0.09496896  0.09799927  1
  Nb  Nb115  1  0.89519517  0.10372504  0.70178226  1
  Nb  Nb116  1  0.49994115  0.49380481  0.70358483  1
  Nb  Nb117  1  0.29711619  0.49855075  0.09497610  1
  Nb  Nb118  1  0.49902021  0.10542527  0.69556574  1
  Nb  Nb119  1  0.69999294  0.09969490  0.30025592  1
  Nb  Nb120  1  0.49693879  0.10112354  0.89736001  1
  Nb  Nb121  1  0.49965220  0.69269365  0.70100799  1
  Nb  Nb122  1  0.29830009  0.70019515  0.09826469  1
  Nb  Nb123  1  0.50008250  0.30601312  0.70235947  1
  Nb  Nb124  1  0.10150278  0.10647158  0.90890462  1
  Nb  Nb125  1  -0.00421513  0.40194656  -0.01214871  1
  Nb  Nb126  1  0.60023258  0.40021241  0.00399924  1
  Nb  Nb127  1  0.19819171  -0.00002414  0.39960796  1
  Nb  Nb128  1  0.59014491  0.19598240  0.79477155  1
  Nb  Nb129  1  0.60082172  0.79264897  0.79934889  1
  Nb  Nb130  1  0.40029509  0.39798795  0.80101171  1
  Nb  Nb131  1  0.20393856  0.80170513  -0.00118220  1
  Nb  Nb132  1  0.59888139  0.60548228  0.79162028  1
  Nb  Nb133  1  0.00448641  0.00346917  0.00266395  1
  Nb  Nb134  1  0.20525394  0.60298489  0.58941025  1
  Nb  Nb135  1  0.60251759  0.19575244  0.39858882  1
  Nb  Nb136  1  0.20074786  0.79850501  0.40204132  1
  Nb  Nb137  1  0.19684225  0.19904797  0.20131729  1
  Nb  Nb138  1  0.20558052  0.19228172  0.80610291  1
  Nb  Nb139  1  0.20278457  0.60532574  0.40427342  1
  Nb  Nb140  1  0.59722122  0.79807328  0.19334922  1
  Nb  Nb141  1  0.59835397  0.80070001  -0.00286801  1
  Nb  Nb142  1  0.20363165  0.80076503  0.80576363  1
  Nb  Nb143  1  0.19795982  0.19397094  0.39427099  1
  Nb  Nb144  1  0.20065960  0.39518460  0.19480483  1
  Nb  Nb145  1  0.80198625  0.59966963  0.21105041  1
  Nb  Nb146  1  0.60351929  0.40208310  0.19742865  1
  Nb  Nb147  1  0.39941495  0.40532816  0.40505387  1
  Nb  Nb148  1  -0.00453439  0.40386668  0.80242816  1
  Nb  Nb149  1  0.80357427  0.40605640  0.39476437  1
  Pd  Pd150  1  0.00303259  0.79764955  0.39550756  1
  Pd  Pd151  1  0.20391245  0.20246732  0.00433332  1
  Pd  Pd152  1  0.40097763  0.80648734  0.79546381  1
  Pd  Pd153  1  0.18869230  0.39659025  0.00662934  1
  Pd  Pd154  1  0.40212792  0.20520963  0.59297127  1
  Pd  Pd155  1  -0.01164925  0.40604941  0.40751275  1
  Pd  Pd156  1  0.39960238  0.20394503  0.80037862  1
  Pd  Pd157  1  0.39753067  0.59802624  0.19988778  1
  Pd  Pd158  1  0.80704130  0.39737374  0.59123948  1
  Pd  Pd159  1  0.40809335  0.80153962  0.19953323  1
  Pd  Pd160  1  -0.00468649  0.80057822  0.19249862  1
  Pd  Pd161  1  0.40738341  0.00406550  0.18906304  1
  Pd  Pd162  1  0.79979805  -0.00789604  0.39339707  1
  Pd  Pd163  1  0.40973898  0.40785125  -0.00104098  1
  Pd  Pd164  1  0.40349586  0.21019255  0.41337476  1
  Pd  Pd165  1  0.80905309  0.80598943  0.60573157  1
  Pd  Pd166  1  0.59576398  -0.00066725  0.79573609  1
  Pd  Pd167  1  -0.00666710  0.39622547  0.60695210  1
  Pd  Pd168  1  0.00869470  0.40005524  0.18618869  1
  Pd  Pd169  1  -0.00776723  0.00275577  0.60774969  1
  Pd  Pd170  1  0.19554132  -0.00070511  0.81074974  1
  Pd  Pd171  1  0.39056834  -0.00730420  0.40822953  1
  Pd  Pd172  1  0.19438002  -0.00966263  -0.01132759  1
  Pd  Pd173  1  0.80014642  0.19690460  0.20322938  1
  Pd  Pd174  1  0.79192186  0.60766252  0.78961965  1
  Pd  Pd175  1  0.40617816  0.00610504  0.00657690  1
  Pd  Pd176  1  -0.00134382  0.00717720  0.80635685  1
  Pd  Pd177  1  0.80435844  -0.00124719  0.20811989  1
  Pd  Pd178  1  0.79392078  0.20276378  0.60405985  1
  Pd  Pd179  1  0.80038699  0.39823687  -0.01044891  1
  Pd  Pd180  1  0.60409628  0.40666667  0.60099586  1
  Pd  Pd181  1  0.79093409  0.79338433  0.20071397  1
  Pd  Pd182  1  0.60499040  0.59928512  -0.01185114  1
  Pd  Pd183  1  0.20069315  0.40781142  0.61122793  1
  Pd  Pd184  1  -0.01130394  0.60383651  0.19002180  1
  Pd  Pd185  1  0.20722218  0.00863108  0.20517493  1
  Pd  Pd186  1  0.19901498  0.39268086  0.79729693  1
  Pd  Pd187  1  0.80156521  0.59517324  0.40044241  1
  Pd  Pd188  1  0.00476070  0.60017898  0.40341975  1
  Pd  Pd189  1  0.60411510  0.20498765  0.20178973  1
  Pd  Pd190  1  0.39437008  0.80767886  0.39830184  1
  Pd  Pd191  1  0.00579302  0.59983482  0.60142570  1
  Pd  Pd192  1  0.00306012  0.59781630  0.79805342  1
  Pd  Pd193  1  0.19656445  0.59446806  0.20158322  1
  Pd  Pd194  1  0.60436306  0.59121728  0.60621923  1
  Pd  Pd195  1  -0.00493577  0.59561429  0.00227580  1
  Pd  Pd196  1  0.60677668  0.20191679  0.60044232  1
  Pd  Pd197  1  0.59343838  0.80832378  0.60637219  1
  Pd  Pd198  1  0.59614414  0.60698186  0.40871429  1
  Pd  Pd199  1  -0.00978654  0.80060244  0.60877392  1
  Rh  Rh200  1  0.60044635  0.79714932  0.39960839  1
  Rh  Rh201  1  0.81270910  0.00353368  -0.00170086  1
  Rh  Rh202  1  0.78590581  0.19405221  0.79477812  1
  Rh  Rh203  1  0.40425259  0.41001551  0.20479228  1
  Rh  Rh204  1  0.60270542  0.20301377  -0.00649726  1
  Rh  Rh205  1  0.40662576  0.80195790  0.60347055  1
  Rh  Rh206  1  -0.00057963  -0.00049353  0.39700852  1
  Rh  Rh207  1  0.39678493  0.40254976  0.60297003  1
  Rh  Rh208  1  0.60275143  -0.00724706  0.19845899  1
  Rh  Rh209  1  0.40674180  0.00519630  0.79797205  1
  Rh  Rh210  1  0.40401469  -0.00139040  0.59739637  1
  Rh  Rh211  1  0.39768324  0.59528613  0.39535639  1
  Rh  Rh212  1  0.40237747  0.58997161  0.79460955  1
  Rh  Rh213  1  0.00206657  0.20357013  0.20275044  1
  Rh  Rh214  1  0.00997182  0.81374393  0.00824449  1
  Rh  Rh215  1  0.39051067  0.59438991  0.00426177  1
  Rh  Rh216  1  0.20550589  0.60566597  0.00623904  1
  Rh  Rh217  1  0.19607222  0.19281560  0.60111430  1
  Rh  Rh218  1  0.39714546  0.79931960  0.00270526  1
  Rh  Rh219  1  0.80603101  0.00227591  0.80196207  1
  Rh  Rh220  1  0.19509549  0.00929460  0.59150755  1
  Rh  Rh221  1  0.79767353  0.80274314  0.40167223  1
  Rh  Rh222  1  0.59592631  0.39228932  0.39309894  1
  Rh  Rh223  1  0.79187760  0.80493030  -0.00262583  1
  Rh  Rh224  1  0.39548693  0.18658280  0.18742319  1
  Rh  Rh225  1  0.60930153  0.60261982  0.20218219  1
  Rh  Rh226  1  0.81254133  0.39628258  0.80222421  1
  Rh  Rh227  1  0.60050563  -0.00443939  0.00164401  1
  Rh  Rh228  1  0.60657713  0.00432666  0.39967918  1
  Rh  Rh229  1  0.39472533  0.59693443  0.60857552  1
  Rh  Rh230  1  -0.00762013  0.19641253  -0.00448688  1
  Rh  Rh231  1  0.00351273  0.79804987  0.79566728  1
  Rh  Rh232  1  -0.01022139  -0.00885507  0.19422891  1
  Rh  Rh233  1  0.79682185  0.60095813  0.60252693  1
  Rh  Rh234  1  0.79302704  0.40587769  0.20642274  1
  Rh  Rh235  1  0.79645200  0.79748983  0.80048520  1
  Rh  Rh236  1  0.80122271  0.19165890  0.00026015  1
  Rh  Rh237  1  0.19939299  0.78781550  0.60179521  1
  Rh  Rh238  1  0.40055299  0.18958812  0.00330675  1
  Rh  Rh239  1  0.80637551  0.60007202  0.00950004  1
  Rh  Rh240  1  0.00508119  0.19498740  0.39732154  1
  Rh  Rh241  1  0.58993594  0.40168170  0.80966180  1
  Rh  Rh242  1  -0.00643833  0.19336877  0.60560529  1
  Rh  Rh243  1  0.79363089  0.20417768  0.39611287  1
  Rh  Rh244  1  0.19839957  0.79884481  0.19563399  1
  Rh  Rh245  1  0.00738098  0.19813927  0.79839674  1
  Rh  Rh246  1  0.20537552  0.60939455  0.78892568  1
  Rh  Rh247  1  0.20634856  0.39994944  0.38973508  1
  Rh  Rh248  1  0.59880695  -0.00512384  0.60085478  1
  Rh  Rh249  1  0.80824325  -0.00622996  0.60466970  1
