# generated using pymatgen
data_ZrScNbPdRh
_symmetry_space_group_name_H-M   'P 1'
_cell_length_a   16.55994909
_cell_length_b   16.55872488
_cell_length_c   16.55842931
_cell_angle_alpha   89.99046522
_cell_angle_beta   89.99393654
_cell_angle_gamma   90.00713482
_symmetry_Int_Tables_number   1
_chemical_formula_structural   ZrScNbPdRh
_chemical_formula_sum   'Zr50 Sc50 Nb50 Pd50 Rh50'
_cell_volume   4540.51395066
_cell_formula_units_Z   50
loop_
 _symmetry_equiv_pos_site_id
 _symmetry_equiv_pos_as_xyz
  1  'x, y, z'
loop_
 _atom_site_type_symbol
 _atom_site_label
 _atom_site_symmetry_multiplicity
 _atom_site_fract_x
 _atom_site_fract_y
 _atom_site_fract_z
 _atom_site_occupancy
  Zr  Zr0  1  0.50045171  0.49933138  0.10162866  1
  Zr  Zr1  1  0.49953355  0.10902651  0.10202223  1
  Zr  Zr2  1  0.91722552  0.69210473  0.49381342  1
  Zr  Zr3  1  0.69966928  0.10125153  0.10911964  1
  Zr  Zr4  1  0.30177306  0.30839846  0.30173609  1
  Zr  Zr5  1  0.70821349  0.70048783  0.29615754  1
  Zr  Zr6  1  0.48944995  0.09832671  0.49662027  1
  Zr  Zr7  1  0.10085227  0.70597690  0.89488273  1
  Zr  Zr8  1  0.30847630  0.10743542  0.30683052  1
  Zr  Zr9  1  0.09467819  0.49783519  0.90220919  1
  Zr  Zr10  1  0.29556679  0.49754641  0.11105191  1
  Zr  Zr11  1  0.69395300  0.70827428  0.90003991  1
  Zr  Zr12  1  0.09863750  0.89030232  0.50465466  1
  Zr  Zr13  1  0.70138224  0.50477522  0.49764058  1
  Zr  Zr14  1  0.70077852  0.50003086  0.91023953  1
  Zr  Zr15  1  0.69043306  0.89583713  0.11196911  1
  Zr  Zr16  1  0.29833615  0.30025389  0.09950063  1
  Zr  Zr17  1  0.10836308  0.89020647  0.29974685  1
  Zr  Zr18  1  0.10099181  0.69763429  0.30770711  1
  Zr  Zr19  1  0.10867316  0.10026186  0.89834916  1
  Zr  Zr20  1  0.68822862  0.69996103  0.50287986  1
  Zr  Zr21  1  0.69578648  0.69611084  0.09718620  1
  Zr  Zr22  1  0.29269621  0.70180647  0.30075880  1
  Zr  Zr23  1  0.90170310  0.90123746  0.29719212  1
  Zr  Zr24  1  0.91079891  0.29425704  0.10585803  1
  Zr  Zr25  1  0.09553392  0.29701301  0.50293238  1
  Zr  Zr26  1  0.50326784  0.51098257  0.49451116  1
  Zr  Zr27  1  0.69390789  0.90352484  0.30407816  1
  Zr  Zr28  1  0.29809080  0.09788868  0.08939581  1
  Zr  Zr29  1  0.49626912  0.29693247  0.29495246  1
  Zr  Zr30  1  0.89779852  0.70692316  0.10524155  1
  Zr  Zr31  1  0.68532733  0.30203557  0.10055373  1
  Zr  Zr32  1  0.89869606  0.69998077  0.70351159  1
  Zr  Zr33  1  0.69423015  0.10526631  0.89766542  1
  Zr  Zr34  1  0.49428879  0.90072902  0.90536962  1
  Zr  Zr35  1  0.10741957  0.29743171  0.90449276  1
  Zr  Zr36  1  0.89706888  0.50339951  0.89187477  1
  Zr  Zr37  1  0.89846476  0.50136859  0.09062273  1
  Zr  Zr38  1  0.30853888  0.90383445  0.49857127  1
  Zr  Zr39  1  0.49751661  0.29528883  0.70003125  1
  Zr  Zr40  1  0.70282832  0.89659544  0.50001121  1
  Zr  Zr41  1  0.09947260  0.70332799  0.10544680  1
  Zr  Zr42  1  0.30524560  0.69283089  0.70088654  1
  Zr  Zr43  1  0.70352429  0.08993846  0.49319346  1
  Zr  Zr44  1  0.09799549  0.89995904  0.10316474  1
  Zr  Zr45  1  0.90514439  0.10202051  0.90316650  1
  Zr  Zr46  1  0.90671977  0.90961458  0.10354954  1
  Zr  Zr47  1  0.09653653  0.30086301  0.30597018  1
  Zr  Zr48  1  0.70941637  0.89675286  0.69705957  1
  Zr  Zr49  1  0.50238890  0.29757205  0.90004812  1
  Sc  Sc50  1  0.71714221  0.50798991  0.69720172  1
  Sc  Sc51  1  0.69634135  0.09337527  0.29841065  1
  Sc  Sc52  1  0.09066041  0.10243923  0.08687153  1
  Sc  Sc53  1  0.50324379  0.29341771  0.49462158  1
  Sc  Sc54  1  0.69715233  0.70589131  0.69290834  1
  Sc  Sc55  1  0.70252742  0.30334365  0.50174139  1
  Sc  Sc56  1  0.29072816  0.29994613  0.70196267  1
  Sc  Sc57  1  0.69611227  0.30157725  0.89939500  1
  Sc  Sc58  1  0.30547889  0.50362144  0.30270627  1
  Sc  Sc59  1  0.49837304  0.88926092  0.49368463  1
  Sc  Sc60  1  0.10249589  0.70287346  0.69054530  1
  Sc  Sc61  1  0.70092539  0.49870193  0.31062669  1
  Sc  Sc62  1  0.09930712  0.50051119  0.50630470  1
  Sc  Sc63  1  0.49457605  0.49952002  0.90618691  1
  Sc  Sc64  1  0.89473224  0.29613690  0.68526286  1
  Sc  Sc65  1  0.50208252  0.70052534  0.90891408  1
  Sc  Sc66  1  0.29920380  0.70872856  0.90794938  1
  Sc  Sc67  1  0.10678354  0.49781387  0.29833045  1
  Sc  Sc68  1  0.90612434  0.70194322  0.89781553  1
  Sc  Sc69  1  0.50010559  0.70641041  0.09744474  1
  Sc  Sc70  1  0.90790045  0.30110826  0.30297792  1
  Sc  Sc71  1  0.70240550  0.10118439  0.70442626  1
  Sc  Sc72  1  0.10063574  0.10867265  0.50396657  1
  Sc  Sc73  1  0.09939582  0.10768046  0.31052214  1
  Sc  Sc74  1  0.69339719  0.90175468  0.88454120  1
  Sc  Sc75  1  0.48325602  0.51368908  0.69840545  1
  Sc  Sc76  1  0.89735496  0.09839531  0.29064496  1
  Sc  Sc77  1  0.89524756  0.50208327  0.31722147  1
  Sc  Sc78  1  0.90009149  0.49358983  0.50369888  1
  Sc  Sc79  1  0.69937513  0.29271836  0.70094776  1
  Sc  Sc80  1  0.49856899  0.30233614  0.10231529  1
  Sc  Sc81  1  0.89640861  0.30433747  0.89992379  1
  Sc  Sc82  1  0.30311131  0.69842387  0.49846717  1
  Sc  Sc83  1  0.10526707  0.89562386  0.69963222  1
  Sc  Sc84  1  0.11223724  0.89796599  0.89626185  1
  Sc  Sc85  1  0.49216812  0.10011549  0.89414135  1
  Sc  Sc86  1  0.29715398  0.90799774  0.70033976  1
  Sc  Sc87  1  0.29343708  0.29546962  0.49305841  1
  Sc  Sc88  1  0.90608795  0.09695201  0.51349401  1
  Sc  Sc89  1  0.30648416  0.90019810  0.08510410  1
  Sc  Sc90  1  0.69620313  0.30197192  0.30191872  1
  Sc  Sc91  1  0.29383124  0.49496882  0.69900029  1
  Sc  Sc92  1  0.30584646  0.69389298  0.10612698  1
  Sc  Sc93  1  0.49594333  0.10358010  0.69806219  1
  Sc  Sc94  1  0.30099412  0.49010142  0.90205377  1
  Sc  Sc95  1  0.29619604  0.29292065  0.89834044  1
  Sc  Sc96  1  0.49800458  0.90332799  0.69642081  1
  Sc  Sc97  1  0.10609125  0.10265499  0.69131716  1
  Sc  Sc98  1  0.48989511  0.70328911  0.30117985  1
  Sc  Sc99  1  0.30047542  0.09906260  0.69769176  1
  Nb  Nb100  1  0.90532789  0.09757002  0.70008998  1
  Nb  Nb101  1  0.90298196  0.29681950  0.49116913  1
  Nb  Nb102  1  0.29942202  0.09788447  0.49885312  1
  Nb  Nb103  1  0.49690912  0.90120769  0.29368442  1
  Nb  Nb104  1  0.89740271  0.09850423  0.09647934  1
  Nb  Nb105  1  0.89594228  0.90905443  0.69451872  1
  Nb  Nb106  1  0.30614509  0.49092053  0.50049486  1
  Nb  Nb107  1  0.49721023  0.10151067  0.29990541  1
  Nb  Nb108  1  0.50307290  0.90177981  0.10377418  1
  Nb  Nb109  1  0.50139405  0.69808441  0.51677503  1
  Nb  Nb110  1  0.09918636  0.49429299  0.10131764  1
  Nb  Nb111  1  0.29376055  0.08149198  0.89917029  1
  Nb  Nb112  1  0.10681938  0.30134070  0.70117492  1
  Nb  Nb113  1  0.10406906  0.70083696  0.49508637  1
  Nb  Nb114  1  0.89067180  0.90280202  0.88729452  1
  Nb  Nb115  1  0.49711041  0.69640352  0.69174941  1
  Nb  Nb116  1  0.10560844  0.48847629  0.70039211  1
  Nb  Nb117  1  0.90675500  0.50042753  0.70219106  1
  Nb  Nb118  1  0.69670496  0.49834321  0.10061712  1
  Nb  Nb119  1  0.49833511  0.49576096  0.29776279  1
  Nb  Nb120  1  0.89589936  0.90764578  0.50411485  1
  Nb  Nb121  1  0.30255751  0.90705611  0.89503807  1
  Nb  Nb122  1  0.30648273  0.89816585  0.30516400  1
  Nb  Nb123  1  0.10367507  0.30791996  0.10401570  1
  Nb  Nb124  1  0.90162376  0.69465295  0.30179598  1
  Nb  Nb125  1  0.59785432  0.40958473  0.79175044  1
  Nb  Nb126  1  0.59820673  0.59796843  0.79810530  1
  Nb  Nb127  1  0.19657616  0.59848774  0.80461122  1
  Nb  Nb128  1  0.19834642  0.20147374  0.19736664  1
  Nb  Nb129  1  0.59471298  0.40708350  0.60638874  1
  Nb  Nb130  1  0.60076281  0.00048070  0.00440250  1
  Nb  Nb131  1  0.19293284  0.59557580  0.00212847  1
  Nb  Nb132  1  0.80741054  0.79928372  0.40246186  1
  Nb  Nb133  1  -0.00343883  0.59949677  0.20145802  1
  Nb  Nb134  1  0.80029609  0.81214422  -0.00219077  1
  Nb  Nb135  1  0.80445911  0.19763672  0.40282366  1
  Nb  Nb136  1  0.20291057  -0.00222483  0.39976137  1
  Nb  Nb137  1  0.60000379  0.59416870  0.20059025  1
  Nb  Nb138  1  0.60255454  -0.00126890  0.59482437  1
  Nb  Nb139  1  0.00149808  0.39759148  0.79028499  1
  Nb  Nb140  1  0.79852159  0.40308778  0.19538962  1
  Nb  Nb141  1  -0.00399941  0.00214452  0.79380887  1
  Nb  Nb142  1  0.40084902  -0.00116921  0.20397204  1
  Nb  Nb143  1  0.00280494  -0.00543594  0.40545207  1
  Nb  Nb144  1  0.00331420  0.20247886  0.79360235  1
  Nb  Nb145  1  0.40260737  0.39961762  0.59400042  1
  Nb  Nb146  1  0.39925294  0.80057710  0.80025327  1
  Nb  Nb147  1  0.79637220  -0.00066704  0.00041028  1
  Nb  Nb148  1  0.80104762  0.19554775  0.00780806  1
  Nb  Nb149  1  0.20734429  0.00290434  0.20503757  1
  Pd  Pd150  1  0.59287576  0.00256895  0.79428456  1
  Pd  Pd151  1  0.20405551  0.79761575  0.00574588  1
  Pd  Pd152  1  0.59615048  0.79359613  0.39441177  1
  Pd  Pd153  1  0.38921073  0.19480342  0.80326491  1
  Pd  Pd154  1  0.80771756  0.20225133  0.80470623  1
  Pd  Pd155  1  -0.00662829  0.81034081  -0.00910935  1
  Pd  Pd156  1  -0.00660363  0.80151763  0.60550701  1
  Pd  Pd157  1  0.60468399  0.19550022  0.59745431  1
  Pd  Pd158  1  -0.00880061  0.41337065  0.20930644  1
  Pd  Pd159  1  -0.00186041  0.39340709  -0.00699293  1
  Pd  Pd160  1  0.21086210  0.79755999  0.59875251  1
  Pd  Pd161  1  0.01063310  0.59722410  0.78896743  1
  Pd  Pd162  1  0.58697341  -0.00235245  0.40346101  1
  Pd  Pd163  1  0.58691680  0.79380445  0.79112687  1
  Pd  Pd164  1  0.39561670  0.80422255  0.60645019  1
  Pd  Pd165  1  0.39886607  0.39642285  0.00341263  1
  Pd  Pd166  1  -0.00218090  0.39534226  0.60200779  1
  Pd  Pd167  1  0.00040696  -0.01057581  -0.01368525  1
  Pd  Pd168  1  0.80156791  0.61254053  -0.00669574  1
  Pd  Pd169  1  0.00309023  0.60525316  0.00669934  1
  Pd  Pd170  1  0.81088327  0.78952362  0.58988446  1
  Pd  Pd171  1  0.80153621  0.80674253  0.20140805  1
  Pd  Pd172  1  0.60672538  0.19724991  0.39714628  1
  Pd  Pd173  1  0.79660269  0.39914177  0.59993876  1
  Pd  Pd174  1  0.79742475  0.19413718  0.59228384  1
  Pd  Pd175  1  0.79896611  0.39416491  0.79071812  1
  Pd  Pd176  1  0.39542381  0.19796572  -0.00952127  1
  Pd  Pd177  1  0.21416004  0.80720824  0.19011266  1
  Pd  Pd178  1  0.80062273  0.58719574  0.20262439  1
  Pd  Pd179  1  0.39123031  0.59987760  -0.00023978  1
  Pd  Pd180  1  0.39561510  0.80482334  0.19479134  1
  Pd  Pd181  1  0.80721887  0.60608319  0.59427822  1
  Pd  Pd182  1  -0.00485894  0.80589625  0.39845767  1
  Pd  Pd183  1  0.19396309  0.40536728  0.40450663  1
  Pd  Pd184  1  0.20152485  0.59180803  0.40808964  1
  Pd  Pd185  1  0.00572532  0.59741256  0.60542254  1
  Pd  Pd186  1  0.19703978  0.00186270  0.59309591  1
  Pd  Pd187  1  0.01428025  0.01155652  0.20876929  1
  Pd  Pd188  1  0.39719042  0.60739759  0.81480865  1
  Pd  Pd189  1  0.39928485  0.60494501  0.40107660  1
  Pd  Pd190  1  0.79203089  0.60891602  0.80446783  1
  Pd  Pd191  1  -0.00195985  0.81040348  0.79358097  1
  Pd  Pd192  1  0.00970557  0.19192665  0.19955411  1
  Pd  Pd193  1  0.20277754  0.59607887  0.59978108  1
  Pd  Pd194  1  0.79723131  0.20882892  0.20459320  1
  Pd  Pd195  1  0.40141159  0.39904136  0.79171484  1
  Pd  Pd196  1  0.59704719  0.39660960  0.40538478  1
  Pd  Pd197  1  0.59589117  0.60957215  0.38863864  1
  Pd  Pd198  1  0.38998945  0.20689577  0.59613048  1
  Pd  Pd199  1  0.79930532  0.38781392  0.00821168  1
  Rh  Rh200  1  0.58861339  0.00682056  0.19916101  1
  Rh  Rh201  1  0.40042146  0.80107227  -0.00191259  1
  Rh  Rh202  1  -0.01275227  0.18713630  0.40422370  1
  Rh  Rh203  1  0.40176965  -0.00255006  0.39575510  1
  Rh  Rh204  1  0.59491657  0.40119798  -0.00810567  1
  Rh  Rh205  1  0.59705313  0.20570631  0.79965384  1
  Rh  Rh206  1  0.20890887  0.80237463  0.40924326  1
  Rh  Rh207  1  0.59428801  0.80940531  0.60519009  1
  Rh  Rh208  1  0.20073133  0.19173033  0.79733303  1
  Rh  Rh209  1  0.19735402  0.40433898  0.80668054  1
  Rh  Rh210  1  0.60521317  0.40893715  0.20774471  1
  Rh  Rh211  1  0.00665289  -0.00586494  0.60131061  1
  Rh  Rh212  1  0.19428037  -0.00752564  0.00482672  1
  Rh  Rh213  1  0.20204663  0.19665526  0.39753763  1
  Rh  Rh214  1  0.39978159  0.20723579  0.40407901  1
  Rh  Rh215  1  0.60167704  0.59068221  0.61282315  1
  Rh  Rh216  1  0.40058580  0.40135887  0.20137688  1
  Rh  Rh217  1  0.40981140  0.00325864  0.00412853  1
  Rh  Rh218  1  -0.00163096  0.20860208  -0.00374423  1
  Rh  Rh219  1  0.60494273  0.81271482  -0.00046915  1
  Rh  Rh220  1  0.40881788  0.59740429  0.20358387  1
  Rh  Rh221  1  0.40689081  0.00195525  0.60012221  1
  Rh  Rh222  1  0.20006789  0.20097359  0.00598527  1
  Rh  Rh223  1  0.80348589  0.00871837  0.79824204  1
  Rh  Rh224  1  -0.00087652  0.79017808  0.20868658  1
  Rh  Rh225  1  0.79872368  0.60995406  0.41132894  1
  Rh  Rh226  1  0.39862232  -0.00249135  0.79493342  1
  Rh  Rh227  1  0.59731550  0.59478038  0.00154740  1
  Rh  Rh228  1  0.40720561  0.39959090  0.40489294  1
  Rh  Rh229  1  0.39156433  0.59343561  0.59049464  1
  Rh  Rh230  1  0.79307077  0.00801277  0.60687473  1
  Rh  Rh231  1  0.19420525  0.00126642  0.79336973  1
  Rh  Rh232  1  0.20210029  0.40441623  0.00087079  1
  Rh  Rh233  1  0.81394698  0.00227172  0.39587171  1
  Rh  Rh234  1  0.80379791  0.79429276  0.80081288  1
  Rh  Rh235  1  0.79775422  -0.00344918  0.19794339  1
  Rh  Rh236  1  0.19073233  0.59727539  0.19557688  1
  Rh  Rh237  1  0.00989416  0.59129567  0.39646162  1
  Rh  Rh238  1  0.00420459  0.40576075  0.40395916  1
  Rh  Rh239  1  0.20393964  0.20271958  0.59814709  1
  Rh  Rh240  1  0.21290946  0.79318913  0.79551293  1
  Rh  Rh241  1  0.20003180  0.39567166  0.20527654  1
  Rh  Rh242  1  0.60055124  0.19522138  -0.00205288  1
  Rh  Rh243  1  0.59885441  0.19946884  0.20876821  1
  Rh  Rh244  1  0.39396510  0.19899019  0.19804734  1
  Rh  Rh245  1  0.40224460  0.79266589  0.40266192  1
  Rh  Rh246  1  0.20705712  0.39534913  0.59277078  1
  Rh  Rh247  1  0.80217362  0.38688288  0.39632706  1
  Rh  Rh248  1  0.00236453  0.20687424  0.60603107  1
  Rh  Rh249  1  0.59400374  0.78681822  0.20701660  1
