# generated using pymatgen
data_ZrScNbPdRh
_symmetry_space_group_name_H-M   'P 1'
_cell_length_a   16.55989123
_cell_length_b   16.56615054
_cell_length_c   16.56258252
_cell_angle_alpha   89.97577888
_cell_angle_beta   89.98846685
_cell_angle_gamma   90.02401808
_symmetry_Int_Tables_number   1
_chemical_formula_structural   ZrScNbPdRh
_chemical_formula_sum   'Zr50 Sc50 Nb50 Pd50 Rh50'
_cell_volume   4543.67283717
_cell_formula_units_Z   50
loop_
 _symmetry_equiv_pos_site_id
 _symmetry_equiv_pos_as_xyz
  1  'x, y, z'
loop_
 _atom_site_type_symbol
 _atom_site_label
 _atom_site_symmetry_multiplicity
 _atom_site_fract_x
 _atom_site_fract_y
 _atom_site_fract_z
 _atom_site_occupancy
  Zr  Zr0  1  0.70081171  0.30376667  0.09222338  1
  Zr  Zr1  1  0.49410929  0.49520987  0.29630047  1
  Zr  Zr2  1  0.89418881  0.70254725  0.89584244  1
  Zr  Zr3  1  0.70469168  0.50366304  0.29838425  1
  Zr  Zr4  1  0.69927643  0.70595679  0.10296273  1
  Zr  Zr5  1  0.89194182  0.49667090  0.50133784  1
  Zr  Zr6  1  0.89741938  0.50952444  0.30221597  1
  Zr  Zr7  1  0.68873474  0.69961346  0.90248611  1
  Zr  Zr8  1  0.50253011  0.70709617  0.70960987  1
  Zr  Zr9  1  0.29788148  0.48398830  0.09862667  1
  Zr  Zr10  1  0.10077585  0.50896572  0.29664593  1
  Zr  Zr11  1  0.29984857  0.09142352  0.30173566  1
  Zr  Zr12  1  0.49039047  0.10131258  0.50310321  1
  Zr  Zr13  1  0.29379201  0.91277287  0.49682450  1
  Zr  Zr14  1  0.91131060  0.50301851  0.08288604  1
  Zr  Zr15  1  0.90099294  0.49924047  0.89180996  1
  Zr  Zr16  1  0.09869786  0.90669269  0.69608780  1
  Zr  Zr17  1  0.08538960  0.70235176  0.29758521  1
  Zr  Zr18  1  0.70390331  0.70767529  0.70145823  1
  Zr  Zr19  1  0.70626029  0.30382819  0.89084565  1
  Zr  Zr20  1  0.09708204  0.69858938  0.69781967  1
  Zr  Zr21  1  0.10862124  0.30852702  0.09750719  1
  Zr  Zr22  1  0.09133867  0.49366977  0.90301765  1
  Zr  Zr23  1  0.09769078  0.09557097  0.29875544  1
  Zr  Zr24  1  0.49727094  0.09444503  0.10190290  1
  Zr  Zr25  1  0.30096506  0.70403194  0.70098571  1
  Zr  Zr26  1  0.71559239  0.69845449  0.29628028  1
  Zr  Zr27  1  0.50567218  0.70001515  0.09309551  1
  Zr  Zr28  1  0.70303453  0.48485159  0.70037982  1
  Zr  Zr29  1  0.48981443  0.29541012  0.49483086  1
  Zr  Zr30  1  0.29558420  0.09575991  0.10477623  1
  Zr  Zr31  1  0.70897370  0.90501004  0.50309116  1
  Zr  Zr32  1  0.29328305  0.30386297  0.70010597  1
  Zr  Zr33  1  0.90243397  0.30444202  0.90579576  1
  Zr  Zr34  1  0.49843578  0.29943344  0.10129146  1
  Zr  Zr35  1  0.70020081  0.10527697  0.89642214  1
  Zr  Zr36  1  0.50569347  0.49621258  0.70003154  1
  Zr  Zr37  1  0.89650120  0.10383988  0.30486307  1
  Zr  Zr38  1  0.90508406  0.50527839  0.69883554  1
  Zr  Zr39  1  0.50510751  0.89523907  0.11213760  1
  Zr  Zr40  1  0.89966513  0.70355137  0.10625648  1
  Zr  Zr41  1  0.69695829  0.10642685  0.69506146  1
  Zr  Zr42  1  0.29999172  0.70549347  0.50015180  1
  Zr  Zr43  1  0.49803177  0.90421381  0.49903091  1
  Zr  Zr44  1  0.71310698  0.90157260  0.90869283  1
  Zr  Zr45  1  0.90224674  0.90722151  0.90176838  1
  Zr  Zr46  1  0.09413089  0.08482025  0.50709889  1
  Zr  Zr47  1  0.89976210  0.89202146  0.30301884  1
  Zr  Zr48  1  0.90267195  0.10523563  0.10130609  1
  Zr  Zr49  1  0.50101473  0.29689746  0.30204893  1
  Sc  Sc50  1  0.29700255  0.89395507  0.69695188  1
  Sc  Sc51  1  0.29724418  0.48601353  0.49996202  1
  Sc  Sc52  1  0.90046272  0.10411291  0.90588790  1
  Sc  Sc53  1  0.49838127  0.90537005  0.30007605  1
  Sc  Sc54  1  0.30541430  0.30670984  0.90255993  1
  Sc  Sc55  1  0.89266741  0.90289818  0.09631434  1
  Sc  Sc56  1  0.08688138  0.09567271  0.90686443  1
  Sc  Sc57  1  0.09865428  0.69775652  0.48939947  1
  Sc  Sc58  1  0.51237072  0.49885425  0.90045610  1
  Sc  Sc59  1  0.49283266  0.70235675  0.51244111  1
  Sc  Sc60  1  0.70603507  0.30065206  0.51136083  1
  Sc  Sc61  1  0.09117149  0.50110096  0.49922223  1
  Sc  Sc62  1  0.09502501  0.69612472  0.10427682  1
  Sc  Sc63  1  0.29233846  0.70286357  0.29908013  1
  Sc  Sc64  1  0.49589945  0.49332553  0.50749608  1
  Sc  Sc65  1  0.30214636  0.09286032  0.68240194  1
  Sc  Sc66  1  0.90059816  0.69735451  0.70289597  1
  Sc  Sc67  1  0.29887056  0.49823677  0.29810151  1
  Sc  Sc68  1  0.89976153  0.29483782  0.69800298  1
  Sc  Sc69  1  0.50316478  0.29945983  0.90480047  1
  Sc  Sc70  1  0.69984291  0.89933022  0.30558058  1
  Sc  Sc71  1  0.29424409  0.89314009  0.90700181  1
  Sc  Sc72  1  0.29835679  0.90704182  0.10373620  1
  Sc  Sc73  1  0.89854778  0.29235349  0.30266375  1
  Sc  Sc74  1  0.10395843  0.90530912  0.10055064  1
  Sc  Sc75  1  0.89953135  0.69257149  0.49719727  1
  Sc  Sc76  1  0.10214250  0.09705395  0.10594038  1
  Sc  Sc77  1  0.29989135  0.71224523  0.10349762  1
  Sc  Sc78  1  0.30431393  0.48626386  0.89768488  1
  Sc  Sc79  1  0.09423085  0.30740853  0.50489394  1
  Sc  Sc80  1  0.50552121  0.90389725  0.69486394  1
  Sc  Sc81  1  0.30216124  0.89924417  0.30051396  1
  Sc  Sc82  1  0.30270768  0.09227737  0.91271403  1
  Sc  Sc83  1  0.89156929  0.89852343  0.69907701  1
  Sc  Sc84  1  0.69194491  0.09931813  0.09293999  1
  Sc  Sc85  1  0.49847200  0.89008368  0.89656930  1
  Sc  Sc86  1  0.49674134  0.70634493  0.28413667  1
  Sc  Sc87  1  0.30171559  0.49097268  0.69856739  1
  Sc  Sc88  1  0.51056171  0.29797519  0.69109670  1
  Sc  Sc89  1  0.69858838  0.90631780  0.69188913  1
  Sc  Sc90  1  0.89789225  0.29514499  0.50089361  1
  Sc  Sc91  1  0.09780999  0.48779872  0.70034632  1
  Sc  Sc92  1  0.09745615  0.70496604  0.89463698  1
  Sc  Sc93  1  0.30597733  0.30606813  0.30627892  1
  Sc  Sc94  1  0.89791873  0.09969223  0.50271181  1
  Sc  Sc95  1  0.50741746  0.09827829  0.90638710  1
  Sc  Sc96  1  0.50436026  0.49794381  0.10438381  1
  Sc  Sc97  1  0.09363671  0.89952068  0.30584377  1
  Sc  Sc98  1  0.09701272  0.29880973  0.30401633  1
  Sc  Sc99  1  0.70107914  0.28924944  0.29992846  1
  Nb  Nb100  1  0.70680474  0.09492485  0.49469955  1
  Nb  Nb101  1  0.30304881  0.29681438  0.09732507  1
  Nb  Nb102  1  0.30321785  0.70121224  0.89890584  1
  Nb  Nb103  1  0.49791655  0.09761525  0.69826880  1
  Nb  Nb104  1  0.70472915  0.90142993  0.10271211  1
  Nb  Nb105  1  0.90563757  0.90672280  0.49895008  1
  Nb  Nb106  1  0.09438751  0.10412679  0.69861237  1
  Nb  Nb107  1  0.70490985  0.29745432  0.70102591  1
  Nb  Nb108  1  0.69870361  0.69562624  0.49945682  1
  Nb  Nb109  1  0.50469185  0.10539365  0.30326980  1
  Nb  Nb110  1  0.70225554  0.50090972  0.49881550  1
  Nb  Nb111  1  0.70448021  0.49519537  0.90120343  1
  Nb  Nb112  1  0.30006679  0.10121969  0.49855640  1
  Nb  Nb113  1  0.09108110  0.90269903  0.49902911  1
  Nb  Nb114  1  0.49632958  0.69854911  0.89991108  1
  Nb  Nb115  1  0.09781710  0.90656438  0.90101170  1
  Nb  Nb116  1  0.89959727  0.30444863  0.10156352  1
  Nb  Nb117  1  0.70036457  0.09797109  0.30931611  1
  Nb  Nb118  1  0.70188348  0.50513425  0.09708773  1
  Nb  Nb119  1  0.10362240  0.30009948  0.89109736  1
  Nb  Nb120  1  0.90217959  0.70171196  0.29461958  1
  Nb  Nb121  1  0.10264961  0.50263605  0.09654616  1
  Nb  Nb122  1  0.90164632  0.10362149  0.69632661  1
  Nb  Nb123  1  0.10175563  0.29344497  0.70313711  1
  Nb  Nb124  1  0.29914553  0.28985563  0.50167782  1
  Nb  Nb125  1  0.20521431  0.59856191  -0.00516182  1
  Nb  Nb126  1  0.20600260  0.59849613  0.80229179  1
  Nb  Nb127  1  0.39784963  0.00365181  0.79709585  1
  Nb  Nb128  1  -0.00187449  0.40436877  0.19448513  1
  Nb  Nb129  1  0.80590553  0.40197914  0.19145747  1
  Nb  Nb130  1  0.40406202  0.60046392  0.40061976  1
  Nb  Nb131  1  0.59786155  0.60121730  0.40485223  1
  Nb  Nb132  1  0.20135618  0.60015505  0.60391616  1
  Nb  Nb133  1  0.39765991  0.19112907  0.79464266  1
  Nb  Nb134  1  0.60300376  0.79095448  0.40549096  1
  Nb  Nb135  1  0.19524199  0.19877315  0.59958135  1
  Nb  Nb136  1  0.60413091  0.40500791  0.40395565  1
  Nb  Nb137  1  0.20003028  0.19225803  0.79994616  1
  Nb  Nb138  1  0.39682900  0.60292434  -0.00538046  1
  Nb  Nb139  1  0.19985887  0.20477837  -0.00402482  1
  Nb  Nb140  1  -0.00004205  0.80581573  0.59280779  1
  Nb  Nb141  1  0.79385277  0.00598591  0.20398655  1
  Nb  Nb142  1  0.60685831  0.59887541  0.59806738  1
  Nb  Nb143  1  0.79894875  0.00985519  0.79757174  1
  Nb  Nb144  1  0.20202027  0.19532377  0.40923135  1
  Nb  Nb145  1  0.79376787  0.59786811  -0.00251639  1
  Nb  Nb146  1  0.19793850  0.00630204  0.79967925  1
  Nb  Nb147  1  0.40064694  0.19649800  0.20081448  1
  Nb  Nb148  1  -0.00044079  0.80544957  -0.00408159  1
  Nb  Nb149  1  0.40004987  0.60345979  0.80506302  1
  Pd  Pd150  1  0.39538077  0.19917888  -0.00176058  1
  Pd  Pd151  1  0.40782108  0.79303322  0.39437256  1
  Pd  Pd152  1  -0.00509115  0.00355950  0.79452851  1
  Pd  Pd153  1  0.59077962  0.20431169  0.80015086  1
  Pd  Pd154  1  0.20889966  0.59588438  0.40806998  1
  Pd  Pd155  1  0.60168457  0.59610505  0.79497824  1
  Pd  Pd156  1  0.61128326  0.39762265  0.20639384  1
  Pd  Pd157  1  0.79602167  0.60093821  0.60481228  1
  Pd  Pd158  1  0.79282333  0.19793451  0.19533725  1
  Pd  Pd159  1  0.59990749  0.60263042  0.20528244  1
  Pd  Pd160  1  0.39056766  0.60211493  0.19511018  1
  Pd  Pd161  1  0.19662817  0.39531217  0.21103060  1
  Pd  Pd162  1  0.18991195  0.79738597  0.59072176  1
  Pd  Pd163  1  0.59762008  -0.00324355  0.40278667  1
  Pd  Pd164  1  0.39972876  0.80212273  0.00574607  1
  Pd  Pd165  1  0.00749656  0.19649491  0.40941154  1
  Pd  Pd166  1  -0.00932382  -0.00651756  0.19896048  1
  Pd  Pd167  1  0.80175814  0.79643887  0.40785688  1
  Pd  Pd168  1  0.00433728  0.20932364  0.19744847  1
  Pd  Pd169  1  0.79817932  0.19886346  0.00066850  1
  Pd  Pd170  1  -0.00538471  0.39490376  0.60395652  1
  Pd  Pd171  1  0.79123754  0.59896548  0.80194458  1
  Pd  Pd172  1  -0.00391376  0.40155760  0.39277270  1
  Pd  Pd173  1  0.60070433  0.19595719  0.19633658  1
  Pd  Pd174  1  -0.00302351  0.80523359  0.79660216  1
  Pd  Pd175  1  0.60174927  0.19752943  0.59107003  1
  Pd  Pd176  1  0.81025413  0.79629795  0.59408203  1
  Pd  Pd177  1  0.60772153  0.81385364  0.80169793  1
  Pd  Pd178  1  0.59993278  -0.00399525  0.80160473  1
  Pd  Pd179  1  0.41249632  0.39418266  0.79958780  1
  Pd  Pd180  1  0.60003905  0.80903821  -0.00039105  1
  Pd  Pd181  1  0.19773241  0.80505269  0.80392649  1
  Pd  Pd182  1  0.20723944  0.60296955  0.18955482  1
  Pd  Pd183  1  0.19458281  0.80537877  0.39725114  1
  Pd  Pd184  1  0.01003245  0.20556293  0.00598638  1
  Pd  Pd185  1  0.60829588  0.20622946  0.41225126  1
  Pd  Pd186  1  0.40534912  -0.01376285  -0.00511090  1
  Pd  Pd187  1  0.18935401  0.79377657  0.00166128  1
  Pd  Pd188  1  0.39985169  0.39255170  0.60197404  1
  Pd  Pd189  1  -0.00250386  0.20111592  0.80260568  1
  Pd  Pd190  1  0.60743985  0.00054106  0.20550390  1
  Pd  Pd191  1  0.19277384  0.80534002  0.20323147  1
  Pd  Pd192  1  0.39787241  0.59499797  0.60213832  1
  Pd  Pd193  1  0.59844306  0.40104856  -0.00098702  1
  Pd  Pd194  1  0.19579686  0.39462659  0.40051238  1
  Pd  Pd195  1  0.59602233  -0.00903711  -0.00290299  1
  Pd  Pd196  1  0.79556224  0.38959220  0.39310981  1
  Pd  Pd197  1  0.20706242  0.20717571  0.20625022  1
  Pd  Pd198  1  0.60090327  0.79770714  0.59447540  1
  Pd  Pd199  1  0.40052596  0.81009222  0.60298852  1
  Rh  Rh200  1  0.79910809  0.81185086  0.20000361  1
  Rh  Rh201  1  0.60463331  0.40042862  0.59322252  1
  Rh  Rh202  1  0.19484415  0.39817233  0.59595161  1
  Rh  Rh203  1  0.80493463  0.00044336  0.39554657  1
  Rh  Rh204  1  0.81002810  0.59090402  0.18669218  1
  Rh  Rh205  1  -0.00558800  0.60040660  0.40103730  1
  Rh  Rh206  1  0.19584895  0.40137946  0.80252358  1
  Rh  Rh207  1  0.60062022  0.39211554  0.80076187  1
  Rh  Rh208  1  0.80558336  0.39648183  0.60398848  1
  Rh  Rh209  1  0.40435430  0.00436618  0.20593413  1
  Rh  Rh210  1  -0.00312974  0.59369147  0.19912142  1
  Rh  Rh211  1  0.00859692  0.59796489  0.79961770  1
  Rh  Rh212  1  -0.00114116  -0.00529011  0.01018709  1
  Rh  Rh213  1  0.41032715  0.40705605  0.00394068  1
  Rh  Rh214  1  0.00077114  0.80679891  0.19107400  1
  Rh  Rh215  1  0.80021624  0.19594928  0.59965076  1
  Rh  Rh216  1  0.39271920  0.19274854  0.38938721  1
  Rh  Rh217  1  0.79634420  0.20071600  0.40752903  1
  Rh  Rh218  1  0.80201742  0.60521562  0.40263093  1
  Rh  Rh219  1  0.39908620  0.80519590  0.79811721  1
  Rh  Rh220  1  0.79464402  0.81021341  0.79796579  1
  Rh  Rh221  1  0.39564321  0.80482623  0.19843392  1
  Rh  Rh222  1  0.00670097  0.60488658  0.59821164  1
  Rh  Rh223  1  0.80422792  0.00758818  0.60512001  1
  Rh  Rh224  1  0.19565780  0.00074133  0.39770898  1
  Rh  Rh225  1  0.19286544  0.00754037  -0.00501191  1
  Rh  Rh226  1  -0.00601861  0.79692026  0.40738120  1
  Rh  Rh227  1  0.40038187  -0.00672990  0.60337811  1
  Rh  Rh228  1  0.19970404  0.39897508  -0.00857580  1
  Rh  Rh229  1  0.60069811  0.00882858  0.59098215  1
  Rh  Rh230  1  0.19888481  0.00144528  0.60273540  1
  Rh  Rh231  1  0.00283198  0.61520226  -0.00742555  1
  Rh  Rh232  1  0.00620080  0.39070468  0.00155228  1
  Rh  Rh233  1  -0.01096895  -0.00506382  0.60768142  1
  Rh  Rh234  1  0.79886219  0.40705110  0.00239464  1
  Rh  Rh235  1  0.40434608  0.40668903  0.40305561  1
  Rh  Rh236  1  0.19603973  -0.00895871  0.20809986  1
  Rh  Rh237  1  0.80807516  0.39617986  0.79452863  1
  Rh  Rh238  1  0.60876279  0.80286326  0.20930977  1
  Rh  Rh239  1  0.00305558  0.20130641  0.59730719  1
  Rh  Rh240  1  0.60083982  0.59625865  0.00021545  1
  Rh  Rh241  1  -0.00626361  0.00338531  0.39587162  1
  Rh  Rh242  1  0.40481085  0.00441569  0.39747897  1
  Rh  Rh243  1  0.60316062  0.20472945  -0.00298020  1
  Rh  Rh244  1  0.39777854  0.39064100  0.19768291  1
  Rh  Rh245  1  -0.00419135  0.39212729  0.79351146  1
  Rh  Rh246  1  0.80690678  0.19702490  0.79700195  1
  Rh  Rh247  1  0.39431779  0.20472730  0.60938028  1
  Rh  Rh248  1  0.80431622  0.79171761  0.00267961  1
  Rh  Rh249  1  0.79990272  0.01130234  0.00387228  1
