# generated using pymatgen
data_ZrScNbPdRh
_symmetry_space_group_name_H-M   'P 1'
_cell_length_a   16.56368674
_cell_length_b   16.56275681
_cell_length_c   16.56583478
_cell_angle_alpha   89.98854700
_cell_angle_beta   89.95504031
_cell_angle_gamma   89.99844330
_symmetry_Int_Tables_number   1
_chemical_formula_structural   ZrScNbPdRh
_chemical_formula_sum   'Zr50 Sc50 Nb50 Pd50 Rh50'
_cell_volume   4544.67484636
_cell_formula_units_Z   50
loop_
 _symmetry_equiv_pos_site_id
 _symmetry_equiv_pos_as_xyz
  1  'x, y, z'
loop_
 _atom_site_type_symbol
 _atom_site_label
 _atom_site_symmetry_multiplicity
 _atom_site_fract_x
 _atom_site_fract_y
 _atom_site_fract_z
 _atom_site_occupancy
  Zr  Zr0  1  0.89690805  0.48818527  0.69492582  1
  Zr  Zr1  1  0.68613832  0.70590048  0.70354413  1
  Zr  Zr2  1  0.70043016  0.69955792  0.09767243  1
  Zr  Zr3  1  0.50123011  0.50127263  0.09777167  1
  Zr  Zr4  1  0.29394118  0.69989869  0.30075243  1
  Zr  Zr5  1  0.50060968  0.70212829  0.10388861  1
  Zr  Zr6  1  0.70192042  0.69484847  0.90271023  1
  Zr  Zr7  1  0.49395612  0.29482788  0.69819086  1
  Zr  Zr8  1  0.50533263  0.90043978  0.10106887  1
  Zr  Zr9  1  0.29777095  0.10172803  0.30210554  1
  Zr  Zr10  1  0.29579702  0.10187493  0.90792205  1
  Zr  Zr11  1  0.89680248  0.50429231  0.29322262  1
  Zr  Zr12  1  0.09342433  0.50257601  0.29111485  1
  Zr  Zr13  1  0.48497422  0.10716034  0.89860417  1
  Zr  Zr14  1  0.10238788  0.69193309  0.90552887  1
  Zr  Zr15  1  0.50917446  0.30619970  0.30243962  1
  Zr  Zr16  1  0.69983508  0.69400223  0.29753880  1
  Zr  Zr17  1  0.29921241  0.70473007  0.90576271  1
  Zr  Zr18  1  0.11721102  0.90181309  0.50607732  1
  Zr  Zr19  1  0.10799663  0.70190442  0.49918510  1
  Zr  Zr20  1  0.30165568  0.69348052  0.10015423  1
  Zr  Zr21  1  0.29859896  0.50392694  0.28972207  1
  Zr  Zr22  1  0.89003717  0.29558151  0.89768051  1
  Zr  Zr23  1  0.89609053  0.69764412  0.49526127  1
  Zr  Zr24  1  0.50719740  0.29984243  0.50148345  1
  Zr  Zr25  1  0.09716404  0.89868016  0.70654026  1
  Zr  Zr26  1  0.29283086  0.50262999  0.89498444  1
  Zr  Zr27  1  0.89985239  0.30175997  0.28757124  1
  Zr  Zr28  1  0.88765344  0.09972702  0.50257509  1
  Zr  Zr29  1  0.69108735  0.08853205  0.68329539  1
  Zr  Zr30  1  0.10060855  0.30043559  0.10151653  1
  Zr  Zr31  1  0.69853128  0.89921254  0.90247903  1
  Zr  Zr32  1  0.89966517  0.29977481  0.50842095  1
  Zr  Zr33  1  0.10083970  0.29924573  0.90871752  1
  Zr  Zr34  1  0.10256693  0.89187157  0.89381579  1
  Zr  Zr35  1  0.70873375  0.90473490  0.50675215  1
  Zr  Zr36  1  0.11051253  0.49370970  0.70401383  1
  Zr  Zr37  1  0.49307163  0.90335821  0.90558820  1
  Zr  Zr38  1  0.09561855  0.90900378  0.29282337  1
  Zr  Zr39  1  0.30894090  0.88774670  0.08545317  1
  Zr  Zr40  1  0.29502199  0.50941884  0.50670000  1
  Zr  Zr41  1  0.10345033  0.49927818  0.09002345  1
  Zr  Zr42  1  0.30160360  0.50007241  0.69919079  1
  Zr  Zr43  1  0.89609720  0.49793983  0.50662178  1
  Zr  Zr44  1  0.90295184  0.29622578  0.09502797  1
  Zr  Zr45  1  0.90270022  0.10387866  0.89764709  1
  Zr  Zr46  1  0.50978116  0.89957646  0.70230973  1
  Zr  Zr47  1  0.70592687  0.10324019  0.30471891  1
  Zr  Zr48  1  0.29787445  0.31199679  0.70542485  1
  Zr  Zr49  1  0.09135011  0.70133306  0.29514658  1
  Sc  Sc50  1  0.89759491  0.49547193  0.10347990  1
  Sc  Sc51  1  0.69820425  0.50609356  0.50286060  1
  Sc  Sc52  1  0.49931488  0.69901414  0.69998125  1
  Sc  Sc53  1  0.09331324  0.29664277  0.50491160  1
  Sc  Sc54  1  0.50397306  0.69242007  0.88662844  1
  Sc  Sc55  1  0.10587927  0.10429854  0.30164171  1
  Sc  Sc56  1  0.70294961  0.50233661  0.90498957  1
  Sc  Sc57  1  0.90193076  0.29352925  0.70034879  1
  Sc  Sc58  1  0.09577941  0.09612926  0.90020450  1
  Sc  Sc59  1  0.50536195  0.69674129  0.29260826  1
  Sc  Sc60  1  0.09807344  0.50087270  0.51004506  1
  Sc  Sc61  1  0.29700073  0.90047924  0.69003893  1
  Sc  Sc62  1  0.30212008  0.30500295  0.51124781  1
  Sc  Sc63  1  0.89104446  0.89101213  0.50016861  1
  Sc  Sc64  1  0.89922362  0.89802319  0.90981543  1
  Sc  Sc65  1  0.49681677  0.50685377  0.70395875  1
  Sc  Sc66  1  0.90501667  0.10764146  0.30098786  1
  Sc  Sc67  1  0.48974783  0.31345192  0.09116780  1
  Sc  Sc68  1  0.50965713  0.50376175  0.29475249  1
  Sc  Sc69  1  0.71118094  0.10167151  0.90513342  1
  Sc  Sc70  1  0.49768257  0.70117964  0.50383011  1
  Sc  Sc71  1  0.70336793  0.50507442  0.09529287  1
  Sc  Sc72  1  0.50693489  0.10433107  0.51270534  1
  Sc  Sc73  1  0.50223701  0.90239057  0.28939777  1
  Sc  Sc74  1  0.90258763  0.69970064  0.09704392  1
  Sc  Sc75  1  0.90454148  0.69905197  0.69725067  1
  Sc  Sc76  1  0.49647091  0.09343106  0.09899538  1
  Sc  Sc77  1  0.10179938  0.10661265  0.49381202  1
  Sc  Sc78  1  0.70148276  0.09520536  0.09580437  1
  Sc  Sc79  1  0.30205238  0.90668347  0.31255349  1
  Sc  Sc80  1  0.49760092  0.09499407  0.69855840  1
  Sc  Sc81  1  0.29886407  0.11243953  0.10455555  1
  Sc  Sc82  1  0.29388480  0.29472523  0.28616615  1
  Sc  Sc83  1  0.70427205  0.50134120  0.70200518  1
  Sc  Sc84  1  0.09502251  0.70734387  0.70510717  1
  Sc  Sc85  1  0.30875894  0.29563458  0.90873421  1
  Sc  Sc86  1  0.90217492  0.69656110  0.30035076  1
  Sc  Sc87  1  0.90258962  0.89268007  0.30801791  1
  Sc  Sc88  1  0.70815044  0.30717851  0.69757479  1
  Sc  Sc89  1  0.50618606  0.50459324  0.49949970  1
  Sc  Sc90  1  0.49678904  0.09600988  0.28911078  1
  Sc  Sc91  1  0.30656017  0.09484382  0.70577887  1
  Sc  Sc92  1  0.89437235  0.50495560  0.89790171  1
  Sc  Sc93  1  0.69779407  0.90580452  0.09616755  1
  Sc  Sc94  1  0.29707993  0.89914813  0.89521744  1
  Sc  Sc95  1  0.09149198  0.09405413  0.71537847  1
  Sc  Sc96  1  0.90041903  0.69982745  0.90193052  1
  Sc  Sc97  1  0.29938269  0.08258571  0.50157755  1
  Sc  Sc98  1  0.71375969  0.31035748  0.09522563  1
  Sc  Sc99  1  0.31213872  0.69739631  0.69426595  1
  Nb  Nb100  1  0.50410060  0.49585493  0.90779357  1
  Nb  Nb101  1  0.90346209  0.90206487  0.10613117  1
  Nb  Nb102  1  0.50178340  0.30073923  0.90160168  1
  Nb  Nb103  1  0.10118048  0.70447576  0.09745738  1
  Nb  Nb104  1  0.10122125  0.30159221  0.70348395  1
  Nb  Nb105  1  0.90121807  0.09474999  0.70458153  1
  Nb  Nb106  1  0.30898763  0.88728751  0.50141341  1
  Nb  Nb107  1  0.69967385  0.30206839  0.30001246  1
  Nb  Nb108  1  0.48976129  0.90033505  0.49624094  1
  Nb  Nb109  1  0.10204112  0.50090012  0.89619999  1
  Nb  Nb110  1  0.69682098  0.70401210  0.49407584  1
  Nb  Nb111  1  0.70275313  0.30045219  0.90016345  1
  Nb  Nb112  1  0.90045313  0.89798165  0.69964381  1
  Nb  Nb113  1  0.69842265  0.09931189  0.49777868  1
  Nb  Nb114  1  0.29404200  0.30593581  0.09242981  1
  Nb  Nb115  1  0.09592379  0.08484173  0.10452962  1
  Nb  Nb116  1  0.30383557  0.49309207  0.09829221  1
  Nb  Nb117  1  0.90354463  0.09106786  0.09735953  1
  Nb  Nb118  1  0.08903839  0.90012014  0.10497917  1
  Nb  Nb119  1  0.70195218  0.90147440  0.30092162  1
  Nb  Nb120  1  0.70026159  0.89982159  0.70169203  1
  Nb  Nb121  1  0.09377836  0.29896817  0.30858578  1
  Nb  Nb122  1  0.69433814  0.29003685  0.49278961  1
  Nb  Nb123  1  0.30265599  0.71161451  0.49856964  1
  Nb  Nb124  1  0.70145627  0.49865272  0.29616238  1
  Nb  Nb125  1  0.59996922  0.20915678  -0.00316719  1
  Nb  Nb126  1  -0.00074896  -0.00017327  0.40823807  1
  Nb  Nb127  1  0.60433004  0.20777428  0.19525469  1
  Nb  Nb128  1  0.60472961  -0.00265961  0.40393495  1
  Nb  Nb129  1  0.39443131  0.40281522  0.39762720  1
  Nb  Nb130  1  0.00569167  0.40018569  0.80384366  1
  Nb  Nb131  1  0.60485936  0.80579855  0.40127987  1
  Nb  Nb132  1  0.79476781  0.39546248  0.39643695  1
  Nb  Nb133  1  0.19237478  -0.00466598  0.00965315  1
  Nb  Nb134  1  -0.00520919  -0.00192271  0.60027690  1
  Nb  Nb135  1  0.60095702  0.20498770  0.80469408  1
  Nb  Nb136  1  0.59778888  0.79761036  -0.00201922  1
  Nb  Nb137  1  0.39353875  0.59999894  0.39927954  1
  Nb  Nb138  1  0.79720350  0.80598709  0.79524685  1
  Nb  Nb139  1  0.19638112  0.39920902  0.39677548  1
  Nb  Nb140  1  0.80142186  -0.00518363  0.79129543  1
  Nb  Nb141  1  0.19432094  0.80353988  0.19298294  1
  Nb  Nb142  1  0.40002096  0.59371143  -0.00035333  1
  Nb  Nb143  1  0.80020092  0.80604729  0.19811431  1
  Nb  Nb144  1  0.40114157  0.20531018  0.40039321  1
  Nb  Nb145  1  0.80643861  -0.00401834  0.20054766  1
  Nb  Nb146  1  0.19786574  0.20108716  0.61277964  1
  Nb  Nb147  1  -0.00329598  0.39905676  0.39669535  1
  Nb  Nb148  1  0.59798676  0.39414974  0.80904841  1
  Nb  Nb149  1  0.20019604  0.20467152  0.79983242  1
  Pd  Pd150  1  0.00433542  0.19216244  0.00512801  1
  Pd  Pd151  1  0.00686937  0.18845707  0.60718805  1
  Pd  Pd152  1  0.79362906  0.60927798  0.60483178  1
  Pd  Pd153  1  0.40845393  0.40990283  0.59334172  1
  Pd  Pd154  1  0.19192664  0.01170273  0.60886565  1
  Pd  Pd155  1  0.21265753  -0.00816456  0.19290432  1
  Pd  Pd156  1  0.00247502  0.59236432  0.40662382  1
  Pd  Pd157  1  0.60750113  0.39803867  0.18716903  1
  Pd  Pd158  1  0.38894630  -0.00556463  0.19410604  1
  Pd  Pd159  1  0.41210323  0.79115710  0.38998553  1
  Pd  Pd160  1  0.39419838  -0.00873876  0.79693753  1
  Pd  Pd161  1  0.41174156  0.01089879  0.40308724  1
  Pd  Pd162  1  0.79638834  0.59334441  0.39947991  1
  Pd  Pd163  1  0.00150478  0.80471122  0.59217992  1
  Pd  Pd164  1  0.80647987  0.20852441  0.40031242  1
  Pd  Pd165  1  0.40936736  0.21090915  0.19813115  1
  Pd  Pd166  1  0.59929733  0.60047244  0.60238045  1
  Pd  Pd167  1  0.58974543  0.18710817  0.39190882  1
  Pd  Pd168  1  0.40097190  0.39606943  0.20574729  1
  Pd  Pd169  1  0.19537842  0.80691972  0.38946795  1
  Pd  Pd170  1  0.40557458  0.40359266  0.80700928  1
  Pd  Pd171  1  0.19346629  0.60395396  0.19139236  1
  Pd  Pd172  1  0.60506995  0.41019508  0.40354698  1
  Pd  Pd173  1  0.00448075  0.60054859  0.60555198  1
  Pd  Pd174  1  0.00203616  -0.00431244  -0.00782782  1
  Pd  Pd175  1  0.80083765  0.60751065  0.79260380  1
  Pd  Pd176  1  -0.00559512  0.59479709  0.00259613  1
  Pd  Pd177  1  0.19819571  0.59491157  0.40035055  1
  Pd  Pd178  1  0.39854337  0.80298076  0.79557887  1
  Pd  Pd179  1  0.19150470  0.20004960  0.19552820  1
  Pd  Pd180  1  -0.00875410  0.40593288  -0.00803598  1
  Pd  Pd181  1  0.00729636  0.19357743  0.19741189  1
  Pd  Pd182  1  0.00668095  0.80751231  0.40937547  1
  Pd  Pd183  1  0.79474027  0.19283238  0.18967505  1
  Pd  Pd184  1  -0.00227305  0.59335770  0.79609921  1
  Pd  Pd185  1  0.19872201  0.61182698  0.60953171  1
  Pd  Pd186  1  0.59448945  0.80491996  0.59034646  1
  Pd  Pd187  1  0.39169598  0.80492331  0.21005873  1
  Pd  Pd188  1  0.21188421  0.20939171  0.41269568  1
  Pd  Pd189  1  0.00076038  0.79888317  -0.00195352  1
  Pd  Pd190  1  0.78786507  0.18876045  0.78711869  1
  Pd  Pd191  1  0.38857182  0.19159375  0.59587868  1
  Pd  Pd192  1  0.79347084  0.20033410  0.60692253  1
  Pd  Pd193  1  0.60327423  0.40083814  0.60827445  1
  Pd  Pd194  1  0.19353736  0.39687517  0.20268753  1
  Pd  Pd195  1  0.60498963  0.01278614  0.81032305  1
  Pd  Pd196  1  0.20997187  0.79255486  0.79043734  1
  Pd  Pd197  1  0.59681005  0.00927154  -0.00764374  1
  Pd  Pd198  1  0.79779001  0.78916611  0.60742498  1
  Pd  Pd199  1  0.20261788  0.61240071  0.79133643  1
  Rh  Rh200  1  0.39703113  0.20298601  0.79584213  1
  Rh  Rh201  1  0.40463953  -0.00609307  0.60043609  1
  Rh  Rh202  1  -0.00991465  0.00620246  0.21275450  1
  Rh  Rh203  1  0.60879857  0.39677036  -0.00243715  1
  Rh  Rh204  1  0.59275106  0.60618333  0.00059979  1
  Rh  Rh205  1  0.19185372  0.39217333  0.58921533  1
  Rh  Rh206  1  0.38828474  0.00693415  0.00641486  1
  Rh  Rh207  1  0.59209037  -0.01139829  0.58917311  1
  Rh  Rh208  1  0.20508304  0.40257941  -0.00363194  1
  Rh  Rh209  1  0.80757197  0.00031679  0.60571391  1
  Rh  Rh210  1  0.20444033  0.79410890  0.60528513  1
  Rh  Rh211  1  0.80868332  0.00070425  0.00108997  1
  Rh  Rh212  1  0.80371516  0.00161165  0.39423919  1
  Rh  Rh213  1  0.80215189  0.40190901  0.80345286  1
  Rh  Rh214  1  0.79337991  0.79161735  0.39198354  1
  Rh  Rh215  1  0.61080613  0.80221210  0.19786891  1
  Rh  Rh216  1  0.18846021  0.80746366  0.00595709  1
  Rh  Rh217  1  0.00489994  0.39858636  0.19902256  1
  Rh  Rh218  1  0.78710627  0.39361927  0.58474565  1
  Rh  Rh219  1  0.79819418  0.19659254  0.00726801  1
  Rh  Rh220  1  0.40599704  0.20123349  0.01259307  1
  Rh  Rh221  1  0.80539224  0.40365854  -0.00412136  1
  Rh  Rh222  1  0.00531255  0.20985026  0.79964717  1
  Rh  Rh223  1  0.60157385  0.80306332  0.80952119  1
  Rh  Rh224  1  0.40642770  0.80356253  0.60497204  1
  Rh  Rh225  1  0.79368873  0.80165093  0.00337572  1
  Rh  Rh226  1  0.20546345  0.59587181  0.00416201  1
  Rh  Rh227  1  -0.00453578  0.79355238  0.19618878  1
  Rh  Rh228  1  0.40303061  0.59741286  0.19858102  1
  Rh  Rh229  1  0.61207056  0.01188041  0.20719415  1
  Rh  Rh230  1  0.00485598  0.40000751  0.60546439  1
  Rh  Rh231  1  0.60771930  0.20848925  0.60897397  1
  Rh  Rh232  1  0.80033331  0.60628313  0.19617265  1
  Rh  Rh233  1  0.19172376  0.19057445  0.00338438  1
  Rh  Rh234  1  0.19652627  0.39127449  0.81394407  1
  Rh  Rh235  1  -0.00141844  0.60193794  0.18810201  1
  Rh  Rh236  1  0.59631417  0.60684966  0.39915880  1
  Rh  Rh237  1  0.60242980  0.58501396  0.80024840  1
  Rh  Rh238  1  0.39115969  0.40740644  -0.00727003  1
  Rh  Rh239  1  0.80759061  0.59856683  0.00371217  1
  Rh  Rh240  1  0.60589064  0.59267868  0.19694989  1
  Rh  Rh241  1  0.40002773  0.59574207  0.80667926  1
  Rh  Rh242  1  0.20310234  0.00678299  0.80885618  1
  Rh  Rh243  1  0.41532440  0.78529222  -0.00921222  1
  Rh  Rh244  1  0.19649637  -0.00242275  0.40060454  1
  Rh  Rh245  1  0.40196301  0.60234207  0.59091847  1
  Rh  Rh246  1  0.79550066  0.40399170  0.20309780  1
  Rh  Rh247  1  -0.00995947  0.79757877  0.80771401  1
  Rh  Rh248  1  -0.00621925  0.20122929  0.40150333  1
  Rh  Rh249  1  -0.00980349  -0.01005761  0.80177134  1
