# generated using pymatgen
data_ZrScNbPdRh
_symmetry_space_group_name_H-M   'P 1'
_cell_length_a   16.56398234
_cell_length_b   16.56371992
_cell_length_c   16.55358932
_cell_angle_alpha   89.95592550
_cell_angle_beta   89.97245611
_cell_angle_gamma   90.03454956
_symmetry_Int_Tables_number   1
_chemical_formula_structural   ZrScNbPdRh
_chemical_formula_sum   'Zr50 Sc50 Nb50 Pd50 Rh50'
_cell_volume   4541.65934315
_cell_formula_units_Z   50
loop_
 _symmetry_equiv_pos_site_id
 _symmetry_equiv_pos_as_xyz
  1  'x, y, z'
loop_
 _atom_site_type_symbol
 _atom_site_label
 _atom_site_symmetry_multiplicity
 _atom_site_fract_x
 _atom_site_fract_y
 _atom_site_fract_z
 _atom_site_occupancy
  Zr  Zr0  1  0.08844810  0.89943080  0.70373563  1
  Zr  Zr1  1  0.49462758  0.69796965  0.89493657  1
  Zr  Zr2  1  0.29862570  0.69791489  0.89823729  1
  Zr  Zr3  1  0.89983279  0.10123124  0.10414337  1
  Zr  Zr4  1  0.29880830  0.10059444  0.89567280  1
  Zr  Zr5  1  0.28977947  0.49594450  0.10445123  1
  Zr  Zr6  1  0.69603054  0.29676545  0.29951892  1
  Zr  Zr7  1  0.90142140  0.90639484  0.09467544  1
  Zr  Zr8  1  0.89661521  0.89070305  0.30069594  1
  Zr  Zr9  1  0.89469922  0.49605158  0.69964887  1
  Zr  Zr10  1  0.29795647  0.30576560  0.30623887  1
  Zr  Zr11  1  0.29445333  0.29496556  0.50426252  1
  Zr  Zr12  1  0.30213581  0.88948417  0.89816575  1
  Zr  Zr13  1  0.49135171  0.10594107  0.10616114  1
  Zr  Zr14  1  0.30391218  0.91389458  0.30312097  1
  Zr  Zr15  1  0.89779281  0.30229748  0.30463210  1
  Zr  Zr16  1  0.29525989  0.10402115  0.69240470  1
  Zr  Zr17  1  0.09448572  0.70414405  0.29975567  1
  Zr  Zr18  1  0.50195619  0.49136044  0.30501549  1
  Zr  Zr19  1  0.09413736  0.89205387  0.09451608  1
  Zr  Zr20  1  0.69908553  0.29980435  0.91271575  1
  Zr  Zr21  1  0.29983831  0.69653288  0.50559095  1
  Zr  Zr22  1  0.50326254  0.30013770  0.89953835  1
  Zr  Zr23  1  0.69861935  0.90126157  0.30561827  1
  Zr  Zr24  1  0.50673481  0.49646132  0.50274672  1
  Zr  Zr25  1  0.70303321  0.10246228  0.89830192  1
  Zr  Zr26  1  0.30363959  0.10339215  0.30291224  1
  Zr  Zr27  1  0.49743970  0.29884068  0.69631907  1
  Zr  Zr28  1  0.69879419  0.69753604  0.50733444  1
  Zr  Zr29  1  0.88865315  0.49989546  0.10023530  1
  Zr  Zr30  1  0.70242284  0.90608212  0.09854154  1
  Zr  Zr31  1  0.50205989  0.71210604  0.50532654  1
  Zr  Zr32  1  0.70117046  0.90877538  0.89811590  1
  Zr  Zr33  1  0.49946766  0.10412996  0.69968449  1
  Zr  Zr34  1  0.10651864  0.10744175  0.50613236  1
  Zr  Zr35  1  0.50474138  0.70498947  0.30297959  1
  Zr  Zr36  1  0.89397228  0.70031754  0.49644339  1
  Zr  Zr37  1  0.49601139  0.69904937  0.09967756  1
  Zr  Zr38  1  0.30524766  0.90631219  0.50361394  1
  Zr  Zr39  1  0.29539881  0.50090421  0.89067116  1
  Zr  Zr40  1  0.30305791  0.49722817  0.69842032  1
  Zr  Zr41  1  0.50180649  0.09970241  0.30019977  1
  Zr  Zr42  1  0.10361217  0.10200981  0.30427019  1
  Zr  Zr43  1  0.29584055  0.49826026  0.49969529  1
  Zr  Zr44  1  0.30075033  0.49879245  0.30088501  1
  Zr  Zr45  1  0.10518101  0.50052583  0.70445984  1
  Zr  Zr46  1  0.91101208  0.29951049  0.50516994  1
  Zr  Zr47  1  0.29956316  0.89900272  0.09971968  1
  Zr  Zr48  1  0.30204016  0.29337320  0.09487624  1
  Zr  Zr49  1  0.89657894  0.49410844  0.50006176  1
  Sc  Sc50  1  0.88789694  0.89751381  0.50636330  1
  Sc  Sc51  1  0.08446781  0.90108837  0.89560846  1
  Sc  Sc52  1  0.70307048  0.70181010  0.09882566  1
  Sc  Sc53  1  0.69759993  0.90244367  0.49883546  1
  Sc  Sc54  1  0.90005727  0.70005165  0.09590683  1
  Sc  Sc55  1  0.09596690  0.10449899  0.88986394  1
  Sc  Sc56  1  0.28943121  0.29707807  0.89856658  1
  Sc  Sc57  1  0.09626542  0.69263760  0.50492613  1
  Sc  Sc58  1  0.09911700  0.49668063  0.50576595  1
  Sc  Sc59  1  0.30474900  0.90844095  0.70101853  1
  Sc  Sc60  1  0.09050012  0.09982905  0.10222728  1
  Sc  Sc61  1  0.50428147  0.89476591  0.09658540  1
  Sc  Sc62  1  0.49290293  0.50610503  0.09875512  1
  Sc  Sc63  1  0.11590889  0.49854963  0.30353183  1
  Sc  Sc64  1  0.50711821  0.10559687  0.89847531  1
  Sc  Sc65  1  0.90125385  0.29904076  0.89639541  1
  Sc  Sc66  1  0.50571375  0.28875149  0.09548768  1
  Sc  Sc67  1  0.30112584  0.10054491  0.10639678  1
  Sc  Sc68  1  0.71263404  0.70674977  0.29928608  1
  Sc  Sc69  1  0.71645610  0.49265243  0.29988758  1
  Sc  Sc70  1  0.69779048  0.29677112  0.49838520  1
  Sc  Sc71  1  0.30055117  0.69554782  0.09123270  1
  Sc  Sc72  1  0.51375521  0.10157410  0.50322767  1
  Sc  Sc73  1  0.90148706  0.49494922  0.90262236  1
  Sc  Sc74  1  0.49895658  0.89542668  0.90018981  1
  Sc  Sc75  1  0.69573974  0.10315200  0.69361657  1
  Sc  Sc76  1  0.09478016  0.29856792  0.69932389  1
  Sc  Sc77  1  0.89437153  0.69782382  0.89144610  1
  Sc  Sc78  1  0.50207315  0.29118611  0.30628098  1
  Sc  Sc79  1  0.30524133  0.69306693  0.70156547  1
  Sc  Sc80  1  0.09264002  0.90109426  0.29771168  1
  Sc  Sc81  1  0.09597314  0.30624017  0.89645673  1
  Sc  Sc82  1  0.49374928  0.89566513  0.69050544  1
  Sc  Sc83  1  0.71104724  0.29755262  0.70211852  1
  Sc  Sc84  1  0.70465599  0.10248919  0.30860547  1
  Sc  Sc85  1  0.89778380  0.30064977  0.09628780  1
  Sc  Sc86  1  0.09932125  0.30665789  0.31016059  1
  Sc  Sc87  1  0.50276194  0.30001629  0.49409008  1
  Sc  Sc88  1  0.10163801  0.30582234  0.09037905  1
  Sc  Sc89  1  0.89976969  0.70971894  0.69814291  1
  Sc  Sc90  1  0.90253534  0.30344327  0.69946643  1
  Sc  Sc91  1  0.10265769  0.49391573  0.90415140  1
  Sc  Sc92  1  0.70745367  0.09175984  0.50263476  1
  Sc  Sc93  1  0.70072321  0.10734162  0.09846869  1
  Sc  Sc94  1  0.89365817  0.11006339  0.69849480  1
  Sc  Sc95  1  0.70510019  0.68747169  0.70108698  1
  Sc  Sc96  1  0.29515300  0.68668404  0.30022698  1
  Sc  Sc97  1  0.70356132  0.49913251  0.89062985  1
  Sc  Sc98  1  0.50111692  0.69577327  0.69657216  1
  Sc  Sc99  1  0.70940611  0.90723943  0.69885348  1
  Nb  Nb100  1  0.50104656  0.90092285  0.30901186  1
  Nb  Nb101  1  0.30164319  0.29964523  0.69713101  1
  Nb  Nb102  1  0.50780672  0.49843667  0.71123142  1
  Nb  Nb103  1  0.89446505  0.90379234  0.88683103  1
  Nb  Nb104  1  0.70033576  0.50307187  0.69302086  1
  Nb  Nb105  1  0.50264410  0.49750324  0.89036158  1
  Nb  Nb106  1  0.70037069  0.69973135  0.89220213  1
  Nb  Nb107  1  0.90343511  0.09876945  0.30574387  1
  Nb  Nb108  1  0.10551349  0.90831639  0.50226645  1
  Nb  Nb109  1  0.28528711  0.09615590  0.49932227  1
  Nb  Nb110  1  0.70229489  0.49829498  0.09947109  1
  Nb  Nb111  1  0.10297887  0.69910454  0.90089722  1
  Nb  Nb112  1  0.09755033  0.70089775  0.70058151  1
  Nb  Nb113  1  0.90320983  0.09754078  0.50007253  1
  Nb  Nb114  1  0.70305988  0.50381142  0.50969755  1
  Nb  Nb115  1  0.09710510  0.70099154  0.09142457  1
  Nb  Nb116  1  0.09266034  0.49720995  0.09995791  1
  Nb  Nb117  1  0.50177155  0.89353989  0.48756424  1
  Nb  Nb118  1  0.90357290  0.69759174  0.29827006  1
  Nb  Nb119  1  0.90384443  0.89988245  0.71085028  1
  Nb  Nb120  1  0.90216549  0.49933027  0.29744532  1
  Nb  Nb121  1  0.70046127  0.30727361  0.10189812  1
  Nb  Nb122  1  0.09494296  0.30054637  0.50178931  1
  Nb  Nb123  1  0.89622752  0.09533985  0.90231782  1
  Nb  Nb124  1  0.09778118  0.09457485  0.69713160  1
  Nb  Nb125  1  0.19874548  0.80503502  0.40351918  1
  Nb  Nb126  1  -0.00227509  0.00164932  0.60066076  1
  Nb  Nb127  1  -0.00048089  0.40846737  0.20137202  1
  Nb  Nb128  1  0.40325679  0.39637042  0.19604782  1
  Nb  Nb129  1  0.19235298  0.79502128  0.79638198  1
  Nb  Nb130  1  -0.00592053  0.59628190  0.39179584  1
  Nb  Nb131  1  0.60642096  0.59317075  0.20048367  1
  Nb  Nb132  1  0.40127683  0.40237067  -0.00321162  1
  Nb  Nb133  1  0.39497881  0.00168732  -0.00148815  1
  Nb  Nb134  1  0.59752465  -0.00139828  0.20549558  1
  Nb  Nb135  1  0.60500665  0.59777566  0.40019634  1
  Nb  Nb136  1  -0.00368633  0.00217640  0.40761538  1
  Nb  Nb137  1  0.39638918  0.80179057  0.20688787  1
  Nb  Nb138  1  0.60602647  0.79715255  0.80039496  1
  Nb  Nb139  1  0.19855594  0.20377087  0.20382991  1
  Nb  Nb140  1  0.00660214  0.60307444  0.79880468  1
  Nb  Nb141  1  0.40885816  0.59849101  0.40433474  1
  Nb  Nb142  1  0.79802962  0.80794744  -0.01154074  1
  Nb  Nb143  1  0.20004944  0.79896618  0.20009047  1
  Nb  Nb144  1  0.00054530  0.59748969  0.19918320  1
  Nb  Nb145  1  0.20090882  -0.00224498  -0.00357793  1
  Nb  Nb146  1  0.60155588  0.40180220  0.19412846  1
  Nb  Nb147  1  0.60501805  0.40625461  0.60615717  1
  Nb  Nb148  1  0.19571558  0.80364658  0.60265300  1
  Nb  Nb149  1  0.60193406  0.59616915  -0.00341688  1
  Pd  Pd150  1  0.80482523  0.20142462  0.00051645  1
  Pd  Pd151  1  -0.00009199  0.20178656  -0.00488310  1
  Pd  Pd152  1  0.79319856  0.60471878  -0.00590709  1
  Pd  Pd153  1  0.39662544  0.20403900  0.80201107  1
  Pd  Pd154  1  0.79713426  0.39517324  0.40717220  1
  Pd  Pd155  1  0.00225124  0.19757507  0.40106417  1
  Pd  Pd156  1  -0.00132819  0.59908431  -0.00474213  1
  Pd  Pd157  1  0.19058437  0.18971416  0.00448974  1
  Pd  Pd158  1  0.59315891  0.40963442  0.00588260  1
  Pd  Pd159  1  0.80508015  0.79821169  0.18961988  1
  Pd  Pd160  1  0.40784085  0.00765309  0.59165479  1
  Pd  Pd161  1  0.40739744  0.40071605  0.59885811  1
  Pd  Pd162  1  0.19453212  0.39402886  0.60342398  1
  Pd  Pd163  1  0.19747629  -0.00885306  0.80283352  1
  Pd  Pd164  1  0.79452445  0.00697468  0.20605468  1
  Pd  Pd165  1  0.00336375  0.80207673  0.41231780  1
  Pd  Pd166  1  0.80101642  0.19979992  0.40842712  1
  Pd  Pd167  1  0.19691132  0.59386751  0.00170528  1
  Pd  Pd168  1  0.39952453  0.19392898  0.41084484  1
  Pd  Pd169  1  0.80114935  0.01205118  0.79086043  1
  Pd  Pd170  1  0.19018369  0.60841882  0.19131686  1
  Pd  Pd171  1  0.19166329  0.00136218  0.19269424  1
  Pd  Pd172  1  0.79989491  0.19999964  0.20093226  1
  Pd  Pd173  1  0.40894220  0.00096139  0.80555304  1
  Pd  Pd174  1  0.59212315  -0.00856822  0.79105493  1
  Pd  Pd175  1  0.40079099  0.19315201  0.58931841  1
  Pd  Pd176  1  0.19520151  0.20486795  0.79193625  1
  Pd  Pd177  1  0.00666679  0.21417385  0.20246785  1
  Pd  Pd178  1  0.60688835  0.79175570  -0.00764490  1
  Pd  Pd179  1  0.40694726  0.01234406  0.41350513  1
  Pd  Pd180  1  0.60794693  0.20631196  0.79575100  1
  Pd  Pd181  1  0.79872924  0.59984765  0.39643110  1
  Pd  Pd182  1  0.00293370  0.00673100  -0.00761895  1
  Pd  Pd183  1  0.40152909  0.59057820  -0.00884005  1
  Pd  Pd184  1  -0.00229302  -0.00090684  0.20816510  1
  Pd  Pd185  1  0.59027202  0.00959288  0.00775765  1
  Pd  Pd186  1  0.59699947  -0.00826021  0.59949805  1
  Pd  Pd187  1  0.00143252  0.80664060  0.59121493  1
  Pd  Pd188  1  0.38665883  0.79277402  0.39372006  1
  Pd  Pd189  1  0.79991928  0.20304524  0.59407212  1
  Pd  Pd190  1  0.79408880  0.80117371  0.60699660  1
  Pd  Pd191  1  -0.00645833  0.59675787  0.60145636  1
  Pd  Pd192  1  0.40816245  0.59402021  0.60040824  1
  Pd  Pd193  1  -0.00508586  0.19914773  0.79767749  1
  Pd  Pd194  1  0.79771627  0.39793373  0.80350218  1
  Pd  Pd195  1  0.60862297  0.80699374  0.61082719  1
  Pd  Pd196  1  0.61167265  0.39324630  0.79381487  1
  Pd  Pd197  1  -0.01350874  0.79687929  -0.01148754  1
  Pd  Pd198  1  0.39403890  0.39235772  0.80499397  1
  Pd  Pd199  1  0.59851002  0.80165188  0.20167927  1
  Rh  Rh200  1  0.40107996  0.19783992  -0.01159744  1
  Rh  Rh201  1  0.59616472  0.59465749  0.59982167  1
  Rh  Rh202  1  0.80210548  0.39243312  0.19854825  1
  Rh  Rh203  1  0.40281021  0.59761449  0.79595275  1
  Rh  Rh204  1  0.80909794  -0.00290385  0.39784887  1
  Rh  Rh205  1  0.19615295  0.20735920  0.60635214  1
  Rh  Rh206  1  0.79333743  0.80169825  0.79959240  1
  Rh  Rh207  1  0.80124478  0.60482372  0.19994523  1
  Rh  Rh208  1  0.00122297  0.40844925  0.79963415  1
  Rh  Rh209  1  0.79439869  0.39410823  0.59614514  1
  Rh  Rh210  1  0.00260475  0.19483438  0.60524636  1
  Rh  Rh211  1  0.61387747  0.40540089  0.40296339  1
  Rh  Rh212  1  0.41410478  -0.01207133  0.19185044  1
  Rh  Rh213  1  0.39165723  0.21239567  0.20862810  1
  Rh  Rh214  1  0.80109894  0.39805761  -0.00433683  1
  Rh  Rh215  1  0.60550263  0.19339273  0.40364800  1
  Rh  Rh216  1  0.39483721  0.40104948  0.40107411  1
  Rh  Rh217  1  0.79757851  0.80023099  0.40314254  1
  Rh  Rh218  1  0.80039846  0.19956410  0.80590117  1
  Rh  Rh219  1  0.19758248  0.38991839  0.19432729  1
  Rh  Rh220  1  0.59928398  0.00114991  0.39876775  1
  Rh  Rh221  1  0.60269007  0.21027450  0.60281440  1
  Rh  Rh222  1  0.00098299  0.79225586  0.19112646  1
  Rh  Rh223  1  0.61078053  0.79496247  0.40260193  1
  Rh  Rh224  1  0.19342766  -0.00319011  0.39716986  1
  Rh  Rh225  1  0.00572374  0.41016772  0.39535187  1
  Rh  Rh226  1  0.19497119  0.80336626  -0.00407278  1
  Rh  Rh227  1  -0.01044844  0.01376046  0.79337696  1
  Rh  Rh228  1  0.81026763  0.60270995  0.60476097  1
  Rh  Rh229  1  0.19568640  -0.00451034  0.61076505  1
  Rh  Rh230  1  0.40099448  0.80338181  0.00724890  1
  Rh  Rh231  1  0.80481548  0.00090364  -0.00162708  1
  Rh  Rh232  1  0.19661302  0.60428969  0.40947357  1
  Rh  Rh233  1  0.19584950  0.39782568  0.41376696  1
  Rh  Rh234  1  0.59988858  0.60331086  0.80330873  1
  Rh  Rh235  1  0.00244336  0.40096700  0.60303314  1
  Rh  Rh236  1  0.80827613  0.59583577  0.79576068  1
  Rh  Rh237  1  0.20440918  0.40363844  -0.00200701  1
  Rh  Rh238  1  0.80866555  0.00080231  0.60436442  1
  Rh  Rh239  1  0.60362537  0.19596570  0.00303693  1
  Rh  Rh240  1  0.19935508  0.60363035  0.60371957  1
  Rh  Rh241  1  0.40940625  0.60045900  0.21253027  1
  Rh  Rh242  1  0.19884184  0.20556820  0.39824628  1
  Rh  Rh243  1  0.00111480  0.78875723  0.80770867  1
  Rh  Rh244  1  -0.00546436  0.39888660  0.00513687  1
  Rh  Rh245  1  0.60643250  0.19909711  0.19963915  1
  Rh  Rh246  1  0.40050956  0.79528136  0.79191252  1
  Rh  Rh247  1  0.20193503  0.39135291  0.79333964  1
  Rh  Rh248  1  0.19398415  0.60586392  0.79804423  1
  Rh  Rh249  1  0.39230052  0.80309833  0.60347529  1
