# generated using pymatgen
data_ZrScNbPdRh
_symmetry_space_group_name_H-M   'P 1'
_cell_length_a   16.55937320
_cell_length_b   16.56312770
_cell_length_c   16.55864372
_cell_angle_alpha   90.01702788
_cell_angle_beta   90.00622868
_cell_angle_gamma   89.98521214
_symmetry_Int_Tables_number   1
_chemical_formula_structural   ZrScNbPdRh
_chemical_formula_sum   'Zr50 Sc50 Nb50 Pd50 Rh50'
_cell_volume   4541.62184158
_cell_formula_units_Z   50
loop_
 _symmetry_equiv_pos_site_id
 _symmetry_equiv_pos_as_xyz
  1  'x, y, z'
loop_
 _atom_site_type_symbol
 _atom_site_label
 _atom_site_symmetry_multiplicity
 _atom_site_fract_x
 _atom_site_fract_y
 _atom_site_fract_z
 _atom_site_occupancy
  Zr  Zr0  1  0.30305511  0.50561036  0.30287258  1
  Zr  Zr1  1  0.69904583  0.09942231  0.09831310  1
  Zr  Zr2  1  0.50396508  0.89644319  0.29731137  1
  Zr  Zr3  1  0.69935903  0.09722639  0.90486350  1
  Zr  Zr4  1  0.90650627  0.30008202  0.49276340  1
  Zr  Zr5  1  0.08859653  0.49949253  0.50166827  1
  Zr  Zr6  1  0.30232313  0.69331724  0.29876881  1
  Zr  Zr7  1  0.30218263  0.68584454  0.69743751  1
  Zr  Zr8  1  0.10372226  0.09568320  0.10433569  1
  Zr  Zr9  1  0.30261740  0.70746680  0.09671702  1
  Zr  Zr10  1  0.70397883  0.10176860  0.70123488  1
  Zr  Zr11  1  0.90062859  0.70460064  0.90024299  1
  Zr  Zr12  1  0.29309083  0.09591297  0.49247000  1
  Zr  Zr13  1  0.69958495  0.29743050  0.29862386  1
  Zr  Zr14  1  0.30339770  0.89555621  0.90936140  1
  Zr  Zr15  1  0.30475864  0.10431754  0.89666750  1
  Zr  Zr16  1  0.50210427  0.69976001  0.30767604  1
  Zr  Zr17  1  0.10061922  0.10076296  0.70052053  1
  Zr  Zr18  1  0.49348193  0.09828075  0.30010034  1
  Zr  Zr19  1  0.89229326  0.69766539  0.09083905  1
  Zr  Zr20  1  0.70404765  0.09265322  0.50781481  1
  Zr  Zr21  1  0.30827309  0.69680926  0.50152515  1
  Zr  Zr22  1  0.29801163  0.50313884  0.90219512  1
  Zr  Zr23  1  0.49335556  0.10691957  0.49281977  1
  Zr  Zr24  1  0.09392485  0.90195728  0.70015002  1
  Zr  Zr25  1  0.09852408  0.29673594  0.10400549  1
  Zr  Zr26  1  0.69622300  0.10176902  0.29497986  1
  Zr  Zr27  1  0.50524602  0.29951413  0.10273255  1
  Zr  Zr28  1  0.51033077  0.89072352  0.50745288  1
  Zr  Zr29  1  0.09679826  0.69900187  0.09669058  1
  Zr  Zr30  1  0.89819669  0.50921712  0.10289496  1
  Zr  Zr31  1  0.70166301  0.29242795  0.10423626  1
  Zr  Zr32  1  0.69901878  0.90801528  0.69130606  1
  Zr  Zr33  1  0.10258429  0.50501973  0.69544140  1
  Zr  Zr34  1  0.70439592  0.90158332  0.29525195  1
  Zr  Zr35  1  0.49392995  0.48715808  0.09993632  1
  Zr  Zr36  1  0.90769348  0.90589920  0.49968859  1
  Zr  Zr37  1  0.70008684  0.49777561  0.10902759  1
  Zr  Zr38  1  0.69753092  0.30192749  0.70104327  1
  Zr  Zr39  1  0.69081957  0.69742027  0.29627520  1
  Zr  Zr40  1  0.29797322  0.09284382  0.10631760  1
  Zr  Zr41  1  0.89619040  0.49935197  0.49933273  1
  Zr  Zr42  1  0.09994614  0.70132845  0.89603872  1
  Zr  Zr43  1  0.50112904  0.50579798  0.30018678  1
  Zr  Zr44  1  0.10171394  0.29495061  0.50586250  1
  Zr  Zr45  1  0.50171312  0.09929509  0.90024601  1
  Zr  Zr46  1  0.90153738  0.69953291  0.28905496  1
  Zr  Zr47  1  0.49184542  0.29927139  0.69194359  1
  Zr  Zr48  1  0.50048307  0.50523015  0.70553027  1
  Zr  Zr49  1  0.29063198  0.90512498  0.69822441  1
  Sc  Sc50  1  0.89945593  0.09771699  0.08914174  1
  Sc  Sc51  1  0.70518580  0.50343745  0.50026528  1
  Sc  Sc52  1  0.29533876  0.11187660  0.70028038  1
  Sc  Sc53  1  0.49986696  0.49382828  0.49736661  1
  Sc  Sc54  1  0.30059915  0.50347388  0.10347541  1
  Sc  Sc55  1  0.90425985  0.09443527  0.30671495  1
  Sc  Sc56  1  0.09380499  0.69772458  0.30417138  1
  Sc  Sc57  1  0.09081341  0.51332179  0.30395857  1
  Sc  Sc58  1  0.70507278  0.70194804  0.70657972  1
  Sc  Sc59  1  0.29317089  0.70172037  0.90053186  1
  Sc  Sc60  1  0.90642245  0.09691417  0.50490439  1
  Sc  Sc61  1  0.30531600  0.31057270  0.09328706  1
  Sc  Sc62  1  0.10190040  0.90037072  0.89992892  1
  Sc  Sc63  1  0.70570154  0.29899733  0.89657078  1
  Sc  Sc64  1  0.30796369  0.49956804  0.50466790  1
  Sc  Sc65  1  0.50457779  0.29569682  0.31176943  1
  Sc  Sc66  1  0.89692699  0.69970638  0.51028324  1
  Sc  Sc67  1  0.09457339  0.28562044  0.30419721  1
  Sc  Sc68  1  0.90170746  0.70219986  0.70448595  1
  Sc  Sc69  1  0.10265229  0.50880248  0.90250211  1
  Sc  Sc70  1  0.70307039  0.70457459  0.89851017  1
  Sc  Sc71  1  0.49917733  0.71053926  0.10973731  1
  Sc  Sc72  1  0.29662242  0.10053093  0.30331124  1
  Sc  Sc73  1  0.50135351  0.09964544  0.69675011  1
  Sc  Sc74  1  0.09229562  0.29964146  0.90395434  1
  Sc  Sc75  1  0.50687777  0.89868977  0.90376194  1
  Sc  Sc76  1  0.70129771  0.49497725  0.69767188  1
  Sc  Sc77  1  0.69681390  0.70115901  0.49568998  1
  Sc  Sc78  1  0.29171310  0.29020771  0.30464246  1
  Sc  Sc79  1  0.51383473  0.89818594  0.69924165  1
  Sc  Sc80  1  0.49517128  0.29867897  0.91048844  1
  Sc  Sc81  1  0.89535124  0.89379110  0.09707209  1
  Sc  Sc82  1  0.89310078  0.29181768  0.70510677  1
  Sc  Sc83  1  0.91081386  0.90325070  0.90125203  1
  Sc  Sc84  1  0.69420067  0.49714235  0.88790941  1
  Sc  Sc85  1  0.49340221  0.30156152  0.50198359  1
  Sc  Sc86  1  0.51172272  0.70456197  0.89068912  1
  Sc  Sc87  1  0.89833199  0.29727908  0.29888088  1
  Sc  Sc88  1  0.49353291  0.89845603  0.09444824  1
  Sc  Sc89  1  0.69182507  0.89614062  0.89880416  1
  Sc  Sc90  1  0.69718855  0.89676197  0.09454387  1
  Sc  Sc91  1  0.90459457  0.10158249  0.70064159  1
  Sc  Sc92  1  0.90322684  0.50774577  0.89796398  1
  Sc  Sc93  1  0.10746939  0.10153845  0.30326899  1
  Sc  Sc94  1  0.90364324  0.89566443  0.69743039  1
  Sc  Sc95  1  0.30009162  0.90530352  0.09780246  1
  Sc  Sc96  1  0.10044885  0.50508111  0.09151268  1
  Sc  Sc97  1  0.68832849  0.30391850  0.50427989  1
  Sc  Sc98  1  0.50540186  0.09786680  0.09338491  1
  Sc  Sc99  1  0.30290645  0.91762761  0.30190841  1
  Nb  Nb100  1  0.69972979  0.69900938  0.09327973  1
  Nb  Nb101  1  0.70705076  0.50599461  0.30240942  1
  Nb  Nb102  1  0.50097005  0.50257314  0.90095844  1
  Nb  Nb103  1  0.50366855  0.70056393  0.50479423  1
  Nb  Nb104  1  0.29629918  0.29950202  0.69786055  1
  Nb  Nb105  1  0.89125365  0.50196297  0.29979658  1
  Nb  Nb106  1  0.30052823  0.29644042  0.50967405  1
  Nb  Nb107  1  0.70319780  0.90133075  0.50034582  1
  Nb  Nb108  1  0.29753521  0.90301030  0.49836650  1
  Nb  Nb109  1  0.90340624  0.30380805  0.09525083  1
  Nb  Nb110  1  0.10543533  0.90462848  0.10251720  1
  Nb  Nb111  1  0.10120949  0.90455447  0.50087756  1
  Nb  Nb112  1  0.10554700  0.30185625  0.69765442  1
  Nb  Nb113  1  0.90474630  0.89615941  0.30246696  1
  Nb  Nb114  1  0.10227930  0.70403419  0.69507939  1
  Nb  Nb115  1  0.30333313  0.49763644  0.70451347  1
  Nb  Nb116  1  0.50044882  0.70239255  0.69333003  1
  Nb  Nb117  1  0.30075053  0.29731247  0.89273714  1
  Nb  Nb118  1  0.09098621  0.89490043  0.30642547  1
  Nb  Nb119  1  0.90688975  0.10485712  0.89182016  1
  Nb  Nb120  1  0.89739055  0.50148607  0.69451704  1
  Nb  Nb121  1  0.10164525  0.70231015  0.50574463  1
  Nb  Nb122  1  0.08546536  0.09661674  0.89762527  1
  Nb  Nb123  1  0.90417546  0.29579454  0.90011621  1
  Nb  Nb124  1  0.09880871  0.09402392  0.49922982  1
  Nb  Nb125  1  0.20001293  0.19719326  -0.00546933  1
  Nb  Nb126  1  0.79615239  0.19788583  0.40304854  1
  Nb  Nb127  1  0.39218463  0.39818374  0.80028819  1
  Nb  Nb128  1  0.20098457  0.39586511  0.79476179  1
  Nb  Nb129  1  0.40124558  0.19902724  0.19914171  1
  Nb  Nb130  1  0.80248657  0.80699025  0.39619704  1
  Nb  Nb131  1  0.00328536  -0.01100488  0.20309606  1
  Nb  Nb132  1  0.19674736  0.40090697  0.40284901  1
  Nb  Nb133  1  0.19924511  0.80338626  0.40293561  1
  Nb  Nb134  1  0.39736295  0.80126736  0.40598951  1
  Nb  Nb135  1  0.59723728  0.59719340  0.00231457  1
  Nb  Nb136  1  0.19720047  0.80005312  0.59455358  1
  Nb  Nb137  1  0.39921823  -0.00506771  0.79569702  1
  Nb  Nb138  1  0.80749172  0.39593313  0.00286652  1
  Nb  Nb139  1  0.19161967  0.40141026  0.20851789  1
  Nb  Nb140  1  0.40007987  0.80189185  0.79189043  1
  Nb  Nb141  1  0.41065711  0.60049905  -0.00209240  1
  Nb  Nb142  1  0.59533537  0.60518513  0.60231356  1
  Nb  Nb143  1  0.60001365  0.20073821  0.79909660  1
  Nb  Nb144  1  0.00232830  0.39933422  0.79327645  1
  Nb  Nb145  1  0.19378970  0.80614093  0.20669178  1
  Nb  Nb146  1  0.80174829  0.00463187  0.80290635  1
  Nb  Nb147  1  -0.00350886  0.40303038  0.19870166  1
  Nb  Nb148  1  0.39605846  -0.00315192  0.59858063  1
  Nb  Nb149  1  0.60425777  -0.00338813  0.40257188  1
  Pd  Pd150  1  0.59411878  0.60013681  0.19185421  1
  Pd  Pd151  1  0.79957898  0.00098438  0.40012149  1
  Pd  Pd152  1  -0.00647477  0.60520368  0.60421552  1
  Pd  Pd153  1  0.39121367  0.38982103  0.21474027  1
  Pd  Pd154  1  0.19816317  0.39439592  -0.00199348  1
  Pd  Pd155  1  0.80304771  0.20625471  0.59153700  1
  Pd  Pd156  1  0.19516083  0.60040052  0.19559521  1
  Pd  Pd157  1  0.19730101  0.59728932  0.40961780  1
  Pd  Pd158  1  0.80670140  0.39803365  0.19862128  1
  Pd  Pd159  1  0.39362166  0.80782043  0.60354054  1
  Pd  Pd160  1  0.80313862  -0.00732467  -0.00883719  1
  Pd  Pd161  1  0.81196363  0.19123645  0.20357964  1
  Pd  Pd162  1  0.81259362  0.40330485  0.80612537  1
  Pd  Pd163  1  0.59724754  0.19835503  0.60149037  1
  Pd  Pd164  1  0.79792235  0.59650567  0.79860810  1
  Pd  Pd165  1  0.58719820  0.38804869  0.80269829  1
  Pd  Pd166  1  0.80222421  0.20445054  -0.00476919  1
  Pd  Pd167  1  0.79344085  0.39275445  0.40162177  1
  Pd  Pd168  1  -0.00385904  0.79100884  0.40950957  1
  Pd  Pd169  1  0.60029906  0.39921195  0.21191679  1
  Pd  Pd170  1  0.39334036  0.19770301  0.01027490  1
  Pd  Pd171  1  0.79423010  0.79611840  0.19903319  1
  Pd  Pd172  1  0.00354279  0.80267086  0.19093586  1
  Pd  Pd173  1  0.00157142  0.59834456  0.79413827  1
  Pd  Pd174  1  0.78746729  0.58955110  -0.01036234  1
  Pd  Pd175  1  0.38817521  0.80894834  0.21016940  1
  Pd  Pd176  1  0.20196634  0.59727727  0.59281744  1
  Pd  Pd177  1  0.00025045  0.19999264  0.60368846  1
  Pd  Pd178  1  0.80339051  0.61208622  0.39943938  1
  Pd  Pd179  1  0.00410468  0.80546020  0.00102784  1
  Pd  Pd180  1  -0.00994564  0.39398507  0.60941347  1
  Pd  Pd181  1  0.20387546  0.79602089  0.79331898  1
  Pd  Pd182  1  0.81195778  0.00286467  0.19639731  1
  Pd  Pd183  1  0.61186828  0.40061508  -0.00486953  1
  Pd  Pd184  1  0.79810725  0.80002752  0.59474130  1
  Pd  Pd185  1  0.60651970  0.40776913  0.39956429  1
  Pd  Pd186  1  0.20232069  0.00399083  0.80752937  1
  Pd  Pd187  1  0.39053390  0.39194108  0.39650596  1
  Pd  Pd188  1  -0.01134222  0.60850231  0.40508725  1
  Pd  Pd189  1  -0.00407513  0.40842153  -0.00329465  1
  Pd  Pd190  1  0.18784955  0.20384626  0.80817242  1
  Pd  Pd191  1  0.40250103  0.60612762  0.80945037  1
  Pd  Pd192  1  0.80306471  0.81465649  0.80416326  1
  Pd  Pd193  1  0.59441477  -0.00272375  0.19610734  1
  Pd  Pd194  1  0.00449138  0.19372629  0.00328757  1
  Pd  Pd195  1  -0.00933633  0.19264547  0.20070587  1
  Pd  Pd196  1  0.80288352  0.39472816  0.59801816  1
  Pd  Pd197  1  0.19588537  0.00680657  -0.01089259  1
  Pd  Pd198  1  0.20601457  0.40586600  0.59676113  1
  Pd  Pd199  1  0.00563460  0.39955932  0.38687439  1
  Rh  Rh200  1  0.79800082  0.80289760  -0.00666645  1
  Rh  Rh201  1  0.81170596  -0.00371357  0.60963630  1
  Rh  Rh202  1  0.21371026  0.21109363  0.18561153  1
  Rh  Rh203  1  0.20017237  0.20452263  0.41163928  1
  Rh  Rh204  1  -0.00591940  -0.00107579  0.79760313  1
  Rh  Rh205  1  0.40961522  0.60422508  0.40712446  1
  Rh  Rh206  1  0.40334641  0.00084493  -0.00650807  1
  Rh  Rh207  1  0.00163871  -0.00018307  0.00633842  1
  Rh  Rh208  1  0.18942502  -0.00457926  0.39559912  1
  Rh  Rh209  1  0.00244309  0.00246693  0.60331764  1
  Rh  Rh210  1  0.40738419  0.78875673  -0.01438185  1
  Rh  Rh211  1  0.61045352  0.19063316  0.40472276  1
  Rh  Rh212  1  0.60583094  0.80083442  0.19323540  1
  Rh  Rh213  1  0.59644073  0.41166251  0.59933048  1
  Rh  Rh214  1  0.59944104  0.59255054  0.40881471  1
  Rh  Rh215  1  0.39648521  0.40689720  -0.01056936  1
  Rh  Rh216  1  0.39181986  0.20679782  0.39715216  1
  Rh  Rh217  1  -0.00159120  0.59598579  0.19834591  1
  Rh  Rh218  1  0.40445076  0.00599515  0.19524230  1
  Rh  Rh219  1  0.00180785  0.79807668  0.79929011  1
  Rh  Rh220  1  0.58885543  0.00897426  0.59047713  1
  Rh  Rh221  1  0.40781166  0.59896627  0.19022586  1
  Rh  Rh222  1  0.19869940  0.00352753  0.59817334  1
  Rh  Rh223  1  0.19108971  -0.00962281  0.21263515  1
  Rh  Rh224  1  0.41083165  0.20141033  0.79533689  1
  Rh  Rh225  1  0.20883387  0.60610299  0.00419566  1
  Rh  Rh226  1  0.41552736  -0.01377149  0.41071509  1
  Rh  Rh227  1  0.39105555  0.19195012  0.59641467  1
  Rh  Rh228  1  0.00514697  0.79927464  0.59932721  1
  Rh  Rh229  1  0.61541168  0.78895039  0.60490588  1
  Rh  Rh230  1  0.60145627  0.00741025  0.80223488  1
  Rh  Rh231  1  0.00503329  0.20973890  0.79473197  1
  Rh  Rh232  1  0.79607716  0.19300267  0.80722185  1
  Rh  Rh233  1  0.79585653  0.60687997  0.20247916  1
  Rh  Rh234  1  0.60506880  0.20408480  -0.00586627  1
  Rh  Rh235  1  0.19516508  0.80040920  0.00903744  1
  Rh  Rh236  1  0.60387271  0.80635937  0.39935261  1
  Rh  Rh237  1  0.59971326  0.79975192  0.79260318  1
  Rh  Rh238  1  0.19957251  0.19295025  0.59597199  1
  Rh  Rh239  1  0.60311759  0.60352937  0.79634990  1
  Rh  Rh240  1  -0.00494020  0.19214743  0.40321717  1
  Rh  Rh241  1  0.00622824  0.00468178  0.39615557  1
  Rh  Rh242  1  0.58968188  0.19895381  0.20094683  1
  Rh  Rh243  1  0.39738194  0.40348927  0.60597218  1
  Rh  Rh244  1  0.59921817  0.79136887  0.00415128  1
  Rh  Rh245  1  0.19463774  0.59798139  0.79775144  1
  Rh  Rh246  1  0.79347098  0.59953849  0.60714986  1
  Rh  Rh247  1  -0.00039840  0.60364424  -0.00423313  1
  Rh  Rh248  1  0.59953814  -0.00549460  0.00514696  1
  Rh  Rh249  1  0.41022546  0.58991370  0.59750812  1
