# generated using pymatgen
data_ZrScNbPdRh
_symmetry_space_group_name_H-M   'P 1'
_cell_length_a   16.55948333
_cell_length_b   16.55673538
_cell_length_c   16.56308187
_cell_angle_alpha   90.00972380
_cell_angle_beta   90.00828558
_cell_angle_gamma   89.98716839
_symmetry_Int_Tables_number   1
_chemical_formula_structural   ZrScNbPdRh
_chemical_formula_sum   'Zr50 Sc50 Nb50 Pd50 Rh50'
_cell_volume   4541.11621674
_cell_formula_units_Z   50
loop_
 _symmetry_equiv_pos_site_id
 _symmetry_equiv_pos_as_xyz
  1  'x, y, z'
loop_
 _atom_site_type_symbol
 _atom_site_label
 _atom_site_symmetry_multiplicity
 _atom_site_fract_x
 _atom_site_fract_y
 _atom_site_fract_z
 _atom_site_occupancy
  Zr  Zr0  1  0.89638173  0.29872937  0.90336353  1
  Zr  Zr1  1  0.69978526  0.50024887  0.49248097  1
  Zr  Zr2  1  0.09153743  0.49411131  0.49722483  1
  Zr  Zr3  1  0.89267476  0.69631022  0.69691691  1
  Zr  Zr4  1  0.49626916  0.29400821  0.69832244  1
  Zr  Zr5  1  0.70023250  0.09743584  0.70190835  1
  Zr  Zr6  1  0.49754926  0.69155065  0.70165304  1
  Zr  Zr7  1  0.10516519  0.29344404  0.89898471  1
  Zr  Zr8  1  0.10987898  0.89498888  0.69262816  1
  Zr  Zr9  1  0.49553793  0.68941404  0.10163681  1
  Zr  Zr10  1  0.28438338  0.90156911  0.50276594  1
  Zr  Zr11  1  0.10186771  0.10473054  0.29695887  1
  Zr  Zr12  1  0.89007408  0.90301120  0.69705745  1
  Zr  Zr13  1  0.89899350  0.51129198  0.49888290  1
  Zr  Zr14  1  0.29600963  0.69531417  0.70170196  1
  Zr  Zr15  1  0.30879953  0.09019332  0.90524426  1
  Zr  Zr16  1  0.29767557  0.69953710  0.09959142  1
  Zr  Zr17  1  0.90101075  0.69753792  0.10795928  1
  Zr  Zr18  1  0.10332600  0.69933341  0.10876542  1
  Zr  Zr19  1  0.30390057  0.90631366  0.30855735  1
  Zr  Zr20  1  0.29506878  0.50031606  0.49682608  1
  Zr  Zr21  1  0.70830584  0.49732765  0.89762137  1
  Zr  Zr22  1  0.90537377  0.90082798  0.49355027  1
  Zr  Zr23  1  0.49756984  0.89904259  0.29349083  1
  Zr  Zr24  1  0.69833156  0.90101339  0.10297030  1
  Zr  Zr25  1  0.49412729  0.88918641  0.09734326  1
  Zr  Zr26  1  0.90511041  0.89642277  0.29870825  1
  Zr  Zr27  1  0.90049816  0.49556156  0.90741774  1
  Zr  Zr28  1  0.49284602  0.90765719  0.89941461  1
  Zr  Zr29  1  0.91327208  0.29164295  0.69896328  1
  Zr  Zr30  1  0.10684633  0.89686893  0.09938395  1
  Zr  Zr31  1  0.89639582  0.10566099  0.09241903  1
  Zr  Zr32  1  0.30606458  0.50915881  0.70510437  1
  Zr  Zr33  1  0.89726106  0.10755258  0.89206631  1
  Zr  Zr34  1  0.90373897  0.10269242  0.49868763  1
  Zr  Zr35  1  0.29969608  0.69658847  0.49590380  1
  Zr  Zr36  1  0.30193189  0.89990886  0.90699172  1
  Zr  Zr37  1  0.70037960  0.10685444  0.29067672  1
  Zr  Zr38  1  0.30601192  0.29441238  0.49360404  1
  Zr  Zr39  1  0.49237013  0.49887514  0.90094406  1
  Zr  Zr40  1  0.30207646  0.90405985  0.09860280  1
  Zr  Zr41  1  0.09652316  0.89883280  0.31240187  1
  Zr  Zr42  1  0.89172822  0.69157555  0.90066653  1
  Zr  Zr43  1  0.69880124  0.89868213  0.28898234  1
  Zr  Zr44  1  0.29846916  0.50150092  0.30935896  1
  Zr  Zr45  1  0.90778423  0.70028323  0.29701122  1
  Zr  Zr46  1  0.10369547  0.89914237  0.90479474  1
  Zr  Zr47  1  0.89537650  0.90185080  0.89805446  1
  Zr  Zr48  1  0.69531951  0.09953324  0.10536153  1
  Zr  Zr49  1  0.49771943  0.70112342  0.29818428  1
  Sc  Sc50  1  0.30314247  0.10514479  0.69116061  1
  Sc  Sc51  1  0.10706485  0.50089868  0.69909211  1
  Sc  Sc52  1  0.50633822  0.90811592  0.70822066  1
  Sc  Sc53  1  0.70744620  0.10266114  0.90329762  1
  Sc  Sc54  1  0.69056874  0.89797129  0.88925992  1
  Sc  Sc55  1  0.89886088  0.49865946  0.10268688  1
  Sc  Sc56  1  0.51096944  0.70010815  0.49586263  1
  Sc  Sc57  1  0.70166203  0.49854260  0.11195462  1
  Sc  Sc58  1  0.48925219  0.30879811  0.29712694  1
  Sc  Sc59  1  0.10445847  0.69818198  0.91155794  1
  Sc  Sc60  1  0.10634410  0.10106077  0.09955280  1
  Sc  Sc61  1  0.89874255  0.50468982  0.29535400  1
  Sc  Sc62  1  0.48988450  0.29669029  0.90287611  1
  Sc  Sc63  1  0.50056809  0.09715046  0.69906336  1
  Sc  Sc64  1  0.30223566  0.50461333  0.09561866  1
  Sc  Sc65  1  0.69142243  0.69594416  0.10329839  1
  Sc  Sc66  1  0.69943589  0.49433642  0.29962444  1
  Sc  Sc67  1  0.90828755  0.31450709  0.50489162  1
  Sc  Sc68  1  0.69437260  0.69509470  0.29304109  1
  Sc  Sc69  1  0.69343490  0.89661877  0.51084647  1
  Sc  Sc70  1  0.30513417  0.09415331  0.49458264  1
  Sc  Sc71  1  0.70446427  0.30403661  0.69988206  1
  Sc  Sc72  1  0.70031181  0.29572552  0.11400752  1
  Sc  Sc73  1  0.50362537  0.50878120  0.48966800  1
  Sc  Sc74  1  0.49715495  0.11492570  0.10537306  1
  Sc  Sc75  1  0.29784766  0.30046359  0.90030891  1
  Sc  Sc76  1  0.10919127  0.28627783  0.09478739  1
  Sc  Sc77  1  0.89968151  0.30090940  0.09885154  1
  Sc  Sc78  1  0.49717614  0.10528811  0.50988608  1
  Sc  Sc79  1  0.30524978  0.10383326  0.29799378  1
  Sc  Sc80  1  0.29394533  0.50156562  0.90033751  1
  Sc  Sc81  1  0.10474570  0.50649643  0.09596130  1
  Sc  Sc82  1  0.69703726  0.70908685  0.69625063  1
  Sc  Sc83  1  0.29579379  0.69882988  0.30056635  1
  Sc  Sc84  1  0.09896616  0.69967588  0.48995224  1
  Sc  Sc85  1  0.69525120  0.90367465  0.70131961  1
  Sc  Sc86  1  0.50337156  0.70448896  0.90967239  1
  Sc  Sc87  1  0.89924758  0.89611444  0.10537008  1
  Sc  Sc88  1  0.70526172  0.30465489  0.49776315  1
  Sc  Sc89  1  0.10621002  0.10402110  0.49782608  1
  Sc  Sc90  1  0.89378215  0.29298489  0.30117877  1
  Sc  Sc91  1  0.49377053  0.90379216  0.49549080  1
  Sc  Sc92  1  0.50434631  0.50267376  0.29806621  1
  Sc  Sc93  1  0.09799820  0.50932303  0.30651939  1
  Sc  Sc94  1  0.10842111  0.69691835  0.70226440  1
  Sc  Sc95  1  0.30636777  0.29549233  0.10000558  1
  Sc  Sc96  1  0.70484881  0.49575768  0.70100274  1
  Sc  Sc97  1  0.90762884  0.10188065  0.29942646  1
  Sc  Sc98  1  0.69122321  0.10309469  0.50925425  1
  Sc  Sc99  1  0.90172110  0.49339845  0.68729664  1
  Nb  Nb100  1  0.09762488  0.90141228  0.49911171  1
  Nb  Nb101  1  0.10461630  0.30289881  0.50201018  1
  Nb  Nb102  1  0.10883724  0.28922024  0.69535617  1
  Nb  Nb103  1  0.69884725  0.30326458  0.89417499  1
  Nb  Nb104  1  0.50116533  0.09665300  0.89795916  1
  Nb  Nb105  1  0.10664925  0.29968632  0.30274137  1
  Nb  Nb106  1  0.29842064  0.30176440  0.69499560  1
  Nb  Nb107  1  0.09341991  0.11357277  0.70287550  1
  Nb  Nb108  1  0.49929259  0.49365588  0.09577315  1
  Nb  Nb109  1  0.49686520  0.31254497  0.09424406  1
  Nb  Nb110  1  0.30146077  0.69390112  0.89887913  1
  Nb  Nb111  1  0.90265591  0.10149599  0.70069032  1
  Nb  Nb112  1  0.89275778  0.70180097  0.50097599  1
  Nb  Nb113  1  0.70062153  0.30125059  0.30438137  1
  Nb  Nb114  1  0.50441329  0.09595021  0.30190303  1
  Nb  Nb115  1  0.09832385  0.69966839  0.29568104  1
  Nb  Nb116  1  0.50631872  0.29896252  0.50409156  1
  Nb  Nb117  1  0.69920215  0.69396424  0.89384309  1
  Nb  Nb118  1  0.49872430  0.49845004  0.70141301  1
  Nb  Nb119  1  0.70446256  0.70072319  0.49799301  1
  Nb  Nb120  1  0.10196467  0.10024526  0.89928900  1
  Nb  Nb121  1  0.29618732  0.89551057  0.70059492  1
  Nb  Nb122  1  0.29222302  0.30601596  0.30265922  1
  Nb  Nb123  1  0.09748113  0.49517486  0.89977847  1
  Nb  Nb124  1  0.29385589  0.09892319  0.10087150  1
  Nb  Nb125  1  0.59906651  0.39555854  0.00100094  1
  Nb  Nb126  1  0.19852316  0.39604455  0.20685838  1
  Nb  Nb127  1  0.60154729  0.00559592  0.39259637  1
  Nb  Nb128  1  0.00764276  0.39863791  0.80219314  1
  Nb  Nb129  1  0.00553011  0.00174468  0.79617451  1
  Nb  Nb130  1  -0.00146450  0.59552128  0.80405847  1
  Nb  Nb131  1  0.39344204  0.80103056  0.60631143  1
  Nb  Nb132  1  0.19686705  0.00380251  0.79539879  1
  Nb  Nb133  1  0.59345687  0.00444327  0.00098248  1
  Nb  Nb134  1  0.59164803  0.40194334  0.60008109  1
  Nb  Nb135  1  0.00505914  0.00158771  0.60469518  1
  Nb  Nb136  1  0.80747791  0.19868181  0.60339618  1
  Nb  Nb137  1  -0.00073894  0.80183181  0.59897338  1
  Nb  Nb138  1  0.79297893  -0.00294791  0.39760632  1
  Nb  Nb139  1  0.60059926  0.59607023  0.80232816  1
  Nb  Nb140  1  0.39445681  0.79912300  0.79791810  1
  Nb  Nb141  1  0.59810309  0.20387209  0.39480673  1
  Nb  Nb142  1  0.00052888  0.00354402  -0.00622362  1
  Nb  Nb143  1  0.01172391  0.39398560  0.20294913  1
  Nb  Nb144  1  -0.00218038  0.79837721  0.79718494  1
  Nb  Nb145  1  0.40195204  0.40145183  0.60022745  1
  Nb  Nb146  1  0.79808089  0.79860941  0.40136492  1
  Nb  Nb147  1  0.60049504  0.20310767  0.80535032  1
  Nb  Nb148  1  0.79426030  0.79362850  -0.00331766  1
  Nb  Nb149  1  0.20579330  0.39231862  0.59979001  1
  Pd  Pd150  1  0.58812611  0.80541187  0.60368127  1
  Pd  Pd151  1  0.39618140  0.59273141  0.20284757  1
  Pd  Pd152  1  0.58854087  0.21487416  0.20760052  1
  Pd  Pd153  1  0.40513095  0.60025679  0.58922519  1
  Pd  Pd154  1  0.00955206  0.39301488  0.00715871  1
  Pd  Pd155  1  0.81186956  0.00526610  0.20431971  1
  Pd  Pd156  1  0.40864323  0.40264720  0.40584852  1
  Pd  Pd157  1  0.79182658  0.60152289  0.01208282  1
  Pd  Pd158  1  0.79242017  0.19377439  0.40847738  1
  Pd  Pd159  1  0.60283818  0.20374262  -0.00561875  1
  Pd  Pd160  1  0.39975137  0.19460993  0.79838937  1
  Pd  Pd161  1  0.79464173  -0.00778404  -0.00315734  1
  Pd  Pd162  1  0.40875389  0.19726419  0.39557403  1
  Pd  Pd163  1  0.38943354  0.40707003  0.19787527  1
  Pd  Pd164  1  0.20011673  -0.00015008  0.20740639  1
  Pd  Pd165  1  0.00006721  0.20672210  0.19484203  1
  Pd  Pd166  1  0.79683880  0.60652558  0.38982686  1
  Pd  Pd167  1  -0.00924104  0.80247339  -0.00175881  1
  Pd  Pd168  1  0.59444089  0.39886450  0.80125740  1
  Pd  Pd169  1  0.78909484  0.20923739  0.00442127  1
  Pd  Pd170  1  0.00280516  0.59966048  0.00125535  1
  Pd  Pd171  1  0.19498995  0.01417458  0.60441752  1
  Pd  Pd172  1  0.39827379  0.20408804  0.20414990  1
  Pd  Pd173  1  0.81465752  0.39864261  0.79290932  1
  Pd  Pd174  1  0.78888952  0.59820469  0.60361499  1
  Pd  Pd175  1  0.00679507  0.60811443  0.60450381  1
  Pd  Pd176  1  0.20237073  0.39864092  0.00994073  1
  Pd  Pd177  1  0.60691032  0.59251297  0.60429536  1
  Pd  Pd178  1  0.80068140  0.00519505  0.59186645  1
  Pd  Pd179  1  -0.00546468  0.39781115  0.38850165  1
  Pd  Pd180  1  0.00127447  0.00127517  0.18992994  1
  Pd  Pd181  1  0.19173338  0.59663202  0.59301311  1
  Pd  Pd182  1  0.21375374  0.19142248  0.80324611  1
  Pd  Pd183  1  0.20053289  0.79844112  0.80980784  1
  Pd  Pd184  1  0.40314091  0.00612610  0.19530830  1
  Pd  Pd185  1  0.20389640  0.19486236  0.40076545  1
  Pd  Pd186  1  0.39389469  0.39763526  0.79946752  1
  Pd  Pd187  1  0.60644790  0.80481667  -0.00252020  1
  Pd  Pd188  1  0.79720302  0.79968323  0.80220461  1
  Pd  Pd189  1  0.60500670  0.58730432  -0.00268454  1
  Pd  Pd190  1  0.59923702  0.39719507  0.19944039  1
  Pd  Pd191  1  0.39725629  0.19712461  0.00233877  1
  Pd  Pd192  1  0.78833694  0.39378642  0.01181082  1
  Pd  Pd193  1  0.40102544  -0.00790130  0.60372471  1
  Pd  Pd194  1  0.60690146  0.80655771  0.39789453  1
  Pd  Pd195  1  0.20493912  0.80544883  0.20996979  1
  Pd  Pd196  1  0.00343288  0.20792668  0.40469373  1
  Pd  Pd197  1  0.19875687  0.40155712  0.79382304  1
  Pd  Pd198  1  0.80923097  0.40280229  0.39692910  1
  Pd  Pd199  1  0.39793848  0.79964570  0.40715559  1
  Rh  Rh200  1  0.20143637  0.59983194  -0.00331337  1
  Rh  Rh201  1  0.00532714  0.59043549  0.19734973  1
  Rh  Rh202  1  0.80973132  0.39641504  0.20562751  1
  Rh  Rh203  1  -0.00368975  0.78982081  0.40496683  1
  Rh  Rh204  1  0.19943998  0.78951986  0.58929573  1
  Rh  Rh205  1  0.80100238  0.80210184  0.59334981  1
  Rh  Rh206  1  0.00906021  0.80453585  0.19856063  1
  Rh  Rh207  1  0.79337890  0.39605568  0.59591845  1
  Rh  Rh208  1  0.79855720  0.60045445  0.20140194  1
  Rh  Rh209  1  -0.00056343  0.19869000  0.58968168  1
  Rh  Rh210  1  0.01772130  0.39663106  0.61170341  1
  Rh  Rh211  1  0.00227222  0.20473426  0.80786658  1
  Rh  Rh212  1  0.59473180  0.79377227  0.19646674  1
  Rh  Rh213  1  0.60679948  0.01328954  0.80858710  1
  Rh  Rh214  1  0.39697802  0.40213513  -0.00151184  1
  Rh  Rh215  1  0.59056084  0.78898209  0.79837257  1
  Rh  Rh216  1  0.59465366  0.59408691  0.20021898  1
  Rh  Rh217  1  0.39597423  0.20287652  0.59804264  1
  Rh  Rh218  1  0.79605604  0.79188518  0.19709656  1
  Rh  Rh219  1  0.60576017  0.60307594  0.39552863  1
  Rh  Rh220  1  0.39300005  0.78965389  -0.00433029  1
  Rh  Rh221  1  0.79184532  0.20303919  0.79166844  1
  Rh  Rh222  1  0.19377188  0.60411055  0.39771026  1
  Rh  Rh223  1  0.39269122  0.79678870  0.20144835  1
  Rh  Rh224  1  0.38931850  -0.00345564  0.79126435  1
  Rh  Rh225  1  0.20699613  0.79413376  0.00140509  1
  Rh  Rh226  1  0.19668780  0.00603160  0.39532056  1
  Rh  Rh227  1  0.19533740  0.39928384  0.40212364  1
  Rh  Rh228  1  0.79884770  0.59473557  0.79076748  1
  Rh  Rh229  1  0.19817675  0.79852909  0.39741476  1
  Rh  Rh230  1  0.80567725  0.20071397  0.19882509  1
  Rh  Rh231  1  0.40749580  0.00440618  0.40040441  1
  Rh  Rh232  1  0.58732216  -0.00129878  0.19186239  1
  Rh  Rh233  1  0.59765110  0.39351508  0.40354526  1
  Rh  Rh234  1  0.40565329  0.60425740  0.39752745  1
  Rh  Rh235  1  0.19994872  0.59303174  0.20480363  1
  Rh  Rh236  1  0.20950727  0.20407744  0.20075786  1
  Rh  Rh237  1  0.40975279  0.01156392  0.01481013  1
  Rh  Rh238  1  0.19558099  0.00701833  -0.00219696  1
  Rh  Rh239  1  0.79765933  0.00220095  0.80114827  1
  Rh  Rh240  1  0.59256839  -0.00353889  0.59319907  1
  Rh  Rh241  1  -0.00349714  0.60467109  0.40021613  1
  Rh  Rh242  1  0.20957863  0.19350198  -0.00316409  1
  Rh  Rh243  1  0.18915553  0.59742993  0.81103178  1
  Rh  Rh244  1  0.61114046  0.21066419  0.60353512  1
  Rh  Rh245  1  0.40880299  0.60777535  0.81178284  1
  Rh  Rh246  1  0.00136947  0.19450586  -0.00189625  1
  Rh  Rh247  1  0.39711591  0.59978235  -0.00170125  1
  Rh  Rh248  1  0.20455068  0.20074664  0.59188779  1
  Rh  Rh249  1  0.00197570  0.00972145  0.40319026  1
