# generated using pymatgen
data_ZrScNbPdRh
_symmetry_space_group_name_H-M   'P 1'
_cell_length_a   16.55410523
_cell_length_b   16.55136043
_cell_length_c   16.55306782
_cell_angle_alpha   89.97693599
_cell_angle_beta   89.99253770
_cell_angle_gamma   89.98975439
_symmetry_Int_Tables_number   1
_chemical_formula_structural   ZrScNbPdRh
_chemical_formula_sum   'Zr50 Sc50 Nb50 Pd50 Rh50'
_cell_volume   4535.42360877
_cell_formula_units_Z   50
loop_
 _symmetry_equiv_pos_site_id
 _symmetry_equiv_pos_as_xyz
  1  'x, y, z'
loop_
 _atom_site_type_symbol
 _atom_site_label
 _atom_site_symmetry_multiplicity
 _atom_site_fract_x
 _atom_site_fract_y
 _atom_site_fract_z
 _atom_site_occupancy
  Zr  Zr0  1  0.71081794  0.70337376  0.30157832  1
  Zr  Zr1  1  0.29903261  0.50170041  0.69567354  1
  Zr  Zr2  1  0.10785671  0.49424737  0.48926905  1
  Zr  Zr3  1  0.10771816  0.09891210  0.10987018  1
  Zr  Zr4  1  0.90084529  0.70621135  0.10194934  1
  Zr  Zr5  1  0.50001024  0.50102549  0.50170502  1
  Zr  Zr6  1  0.89826938  0.89844874  0.89952693  1
  Zr  Zr7  1  0.09937643  0.70414730  0.09944956  1
  Zr  Zr8  1  0.70036187  0.50449514  0.29435970  1
  Zr  Zr9  1  0.69569590  0.90104496  0.69368457  1
  Zr  Zr10  1  0.70013185  0.70330467  0.10139172  1
  Zr  Zr11  1  0.29347854  0.50748164  0.30590354  1
  Zr  Zr12  1  0.29151165  0.70268443  0.70214909  1
  Zr  Zr13  1  0.29553975  0.70500652  0.11453344  1
  Zr  Zr14  1  0.70174770  0.91182995  0.49615133  1
  Zr  Zr15  1  0.29996136  0.10519271  0.49876838  1
  Zr  Zr16  1  0.49925892  0.30569621  0.10589371  1
  Zr  Zr17  1  0.50561135  0.30269004  0.90202465  1
  Zr  Zr18  1  0.29976993  0.09844601  0.90642074  1
  Zr  Zr19  1  0.30506495  0.49885184  0.10874629  1
  Zr  Zr20  1  0.90039309  0.90493418  0.69762577  1
  Zr  Zr21  1  0.89474945  0.51009567  0.69832299  1
  Zr  Zr22  1  0.50070142  0.10416977  0.30521957  1
  Zr  Zr23  1  0.10470511  0.49822321  0.09514367  1
  Zr  Zr24  1  0.10208251  0.10277736  0.90647816  1
  Zr  Zr25  1  0.09454154  0.09546041  0.69587289  1
  Zr  Zr26  1  0.88860599  0.89733947  0.30080933  1
  Zr  Zr27  1  0.09791732  0.30564281  0.90436686  1
  Zr  Zr28  1  0.89466286  0.30641201  0.69560881  1
  Zr  Zr29  1  0.89762366  0.69603895  0.50614609  1
  Zr  Zr30  1  0.89181003  0.90227766  0.09463340  1
  Zr  Zr31  1  0.89839645  0.50482153  0.89577254  1
  Zr  Zr32  1  0.49368765  0.29927348  0.49619293  1
  Zr  Zr33  1  0.69382861  0.70044723  0.49895010  1
  Zr  Zr34  1  0.70231932  0.08866378  0.30457422  1
  Zr  Zr35  1  0.50645808  0.69523062  0.69489408  1
  Zr  Zr36  1  0.90256480  0.90380653  0.50108243  1
  Zr  Zr37  1  0.30390559  0.69109542  0.49259765  1
  Zr  Zr38  1  0.70318711  0.31154886  0.30281129  1
  Zr  Zr39  1  0.49463162  0.70465597  0.30513782  1
  Zr  Zr40  1  0.30451226  0.49571272  0.49802101  1
  Zr  Zr41  1  0.09448899  0.91008380  0.30385289  1
  Zr  Zr42  1  0.30415230  0.10205224  0.70265362  1
  Zr  Zr43  1  0.31101889  0.91193675  0.09800328  1
  Zr  Zr44  1  0.09618676  0.90332296  0.90241199  1
  Zr  Zr45  1  0.50313002  0.49462535  0.10221609  1
  Zr  Zr46  1  0.69860864  0.49260558  0.49567739  1
  Zr  Zr47  1  0.30037605  0.29736236  0.69713457  1
  Zr  Zr48  1  0.71243798  0.10350970  0.10597855  1
  Zr  Zr49  1  0.30366196  0.28921019  0.89807410  1
  Sc  Sc50  1  0.28731338  0.51089467  0.90495984  1
  Sc  Sc51  1  0.29713193  0.90075955  0.69974674  1
  Sc  Sc52  1  0.50918355  0.70948858  0.09644860  1
  Sc  Sc53  1  0.30625744  0.29831812  0.30603189  1
  Sc  Sc54  1  0.50256187  0.90795129  0.28971101  1
  Sc  Sc55  1  0.30495435  0.29781673  0.10190557  1
  Sc  Sc56  1  0.51770916  0.49467050  0.90238436  1
  Sc  Sc57  1  0.10536931  0.89869416  0.10093471  1
  Sc  Sc58  1  0.10031560  0.30704297  0.10787635  1
  Sc  Sc59  1  0.50350422  0.29386115  0.70391666  1
  Sc  Sc60  1  0.69527900  0.49659164  0.69935778  1
  Sc  Sc61  1  0.10027894  0.10483941  0.30672254  1
  Sc  Sc62  1  0.10184332  0.49538302  0.29412947  1
  Sc  Sc63  1  0.29774697  0.10548293  0.29641745  1
  Sc  Sc64  1  0.11270331  0.69703204  0.89513891  1
  Sc  Sc65  1  0.69744660  0.29048239  0.70254263  1
  Sc  Sc66  1  0.70539935  0.10566723  0.88837874  1
  Sc  Sc67  1  0.09514818  0.70418872  0.51049021  1
  Sc  Sc68  1  0.89657160  0.48941270  0.10331423  1
  Sc  Sc69  1  0.50076183  0.09893652  0.50809949  1
  Sc  Sc70  1  0.69740924  0.09826007  0.69880548  1
  Sc  Sc71  1  0.70226716  0.90004284  0.90330313  1
  Sc  Sc72  1  0.69884481  0.68472882  0.69638026  1
  Sc  Sc73  1  0.88870835  0.09607268  0.70239674  1
  Sc  Sc74  1  0.10438390  0.69535410  0.28623523  1
  Sc  Sc75  1  0.69981048  0.68353050  0.90621896  1
  Sc  Sc76  1  0.88909942  0.29905026  0.90734699  1
  Sc  Sc77  1  0.10081944  0.89800317  0.68033663  1
  Sc  Sc78  1  0.30696904  0.89037566  0.29303696  1
  Sc  Sc79  1  0.29085236  0.90213343  0.50634445  1
  Sc  Sc80  1  0.49496021  0.09811477  0.89245894  1
  Sc  Sc81  1  0.30557958  0.90373242  0.90030065  1
  Sc  Sc82  1  0.89603685  0.49462545  0.50680220  1
  Sc  Sc83  1  0.49371888  0.89794009  0.90355535  1
  Sc  Sc84  1  0.29925109  0.30575605  0.49525421  1
  Sc  Sc85  1  0.50368971  0.49319926  0.29508778  1
  Sc  Sc86  1  0.50687372  0.49964898  0.69701355  1
  Sc  Sc87  1  0.49159932  0.09934953  0.11146194  1
  Sc  Sc88  1  0.89566867  0.10097200  0.49273124  1
  Sc  Sc89  1  0.09589652  0.30785420  0.69940699  1
  Sc  Sc90  1  0.50002974  0.10070389  0.70075158  1
  Sc  Sc91  1  0.89360850  0.09287075  0.90069317  1
  Sc  Sc92  1  0.90482968  0.30054784  0.30028579  1
  Sc  Sc93  1  0.29934661  0.71091996  0.89768178  1
  Sc  Sc94  1  0.08722056  0.50489083  0.70417628  1
  Sc  Sc95  1  0.71369786  0.30432245  0.10165960  1
  Sc  Sc96  1  0.50288304  0.69331490  0.49890136  1
  Sc  Sc97  1  0.89267965  0.30293403  0.49345784  1
  Sc  Sc98  1  0.50178651  0.90764752  0.69982035  1
  Sc  Sc99  1  0.10304857  0.29715627  0.30641677  1
  Nb  Nb100  1  0.09801639  0.50021775  0.90252315  1
  Nb  Nb101  1  0.90555607  0.69107156  0.69836440  1
  Nb  Nb102  1  0.10078993  0.09213500  0.49523746  1
  Nb  Nb103  1  0.09849775  0.90436122  0.49693638  1
  Nb  Nb104  1  0.09496351  0.29160922  0.49303849  1
  Nb  Nb105  1  0.70160729  0.48997369  0.90579843  1
  Nb  Nb106  1  0.89844173  0.10803241  0.10583519  1
  Nb  Nb107  1  0.69360106  0.89739759  0.10425216  1
  Nb  Nb108  1  0.89676610  0.29042303  0.10101566  1
  Nb  Nb109  1  0.90478028  0.09380799  0.29197501  1
  Nb  Nb110  1  0.70394900  0.29761012  0.49746451  1
  Nb  Nb111  1  0.89629552  0.50557298  0.30137728  1
  Nb  Nb112  1  0.50117997  0.29718738  0.29844544  1
  Nb  Nb113  1  0.69877874  0.10158458  0.49655571  1
  Nb  Nb114  1  0.70073753  0.90028434  0.30174982  1
  Nb  Nb115  1  0.69612191  0.30071762  0.90112753  1
  Nb  Nb116  1  0.29561672  0.70011672  0.30262878  1
  Nb  Nb117  1  0.69717768  0.49752791  0.09784779  1
  Nb  Nb118  1  0.89888828  0.70058218  0.30153726  1
  Nb  Nb119  1  0.50258032  0.70039919  0.89797643  1
  Nb  Nb120  1  0.50582618  0.89780168  0.50327173  1
  Nb  Nb121  1  0.09387688  0.69789716  0.69436427  1
  Nb  Nb122  1  0.50844871  0.90328935  0.09332012  1
  Nb  Nb123  1  0.29527757  0.09715782  0.09671498  1
  Nb  Nb124  1  0.89815328  0.69438174  0.89250047  1
  Nb  Nb125  1  0.60169182  0.00383706  0.00683292  1
  Nb  Nb126  1  0.20047203  0.40283929  0.80364282  1
  Nb  Nb127  1  0.00193168  0.19899669  0.59610404  1
  Nb  Nb128  1  -0.00326181  0.20078966  0.80169961  1
  Nb  Nb129  1  0.80184410  0.78934717  0.79463044  1
  Nb  Nb130  1  0.60207396  0.80935746  0.39886026  1
  Nb  Nb131  1  -0.00537668  0.19820558  0.00680971  1
  Nb  Nb132  1  0.00008627  0.59978357  -0.00437779  1
  Nb  Nb133  1  0.39517536  0.40587335  0.80358954  1
  Nb  Nb134  1  0.40347869  0.79833272  0.59634174  1
  Nb  Nb135  1  0.60433822  0.19799384  0.00334151  1
  Nb  Nb136  1  0.19606489  0.00488615  0.80039144  1
  Nb  Nb137  1  0.19783475  0.59935013  0.59955933  1
  Nb  Nb138  1  0.60611351  0.20297084  0.40267203  1
  Nb  Nb139  1  0.79349313  0.40170808  0.80554485  1
  Nb  Nb140  1  0.80129221  0.79685884  0.60451912  1
  Nb  Nb141  1  -0.00514291  0.60402629  0.39379083  1
  Nb  Nb142  1  0.40406191  0.60435439  -0.00198329  1
  Nb  Nb143  1  0.60283048  0.79318495  0.80182541  1
  Nb  Nb144  1  0.19452721  0.79839001  0.39898082  1
  Nb  Nb145  1  -0.00037268  0.79706936  0.39788460  1
  Nb  Nb146  1  -0.00308154  0.79197496  0.79303052  1
  Nb  Nb147  1  0.40479164  0.59963513  0.80597207  1
  Nb  Nb148  1  0.40301993  -0.00329732  0.40353388  1
  Nb  Nb149  1  0.19017387  0.19960470  0.59356485  1
  Pd  Pd150  1  0.59631157  0.59832579  0.00339797  1
  Pd  Pd151  1  -0.00929186  0.39866361  0.00258640  1
  Pd  Pd152  1  0.39372711  0.41199586  -0.01011472  1
  Pd  Pd153  1  0.40909537  0.59150532  0.39144641  1
  Pd  Pd154  1  0.40862516  0.39444809  0.60836096  1
  Pd  Pd155  1  0.39933510  -0.00646935  0.59709665  1
  Pd  Pd156  1  0.39799483  0.79536324  0.00644499  1
  Pd  Pd157  1  0.60814150  0.20540773  0.20163586  1
  Pd  Pd158  1  0.59607562  0.60631477  0.20262993  1
  Pd  Pd159  1  -0.00359602  0.39866063  0.20357287  1
  Pd  Pd160  1  0.80390483  0.19678228  0.59914572  1
  Pd  Pd161  1  0.20330626  0.60704886  0.00697401  1
  Pd  Pd162  1  0.00188784  0.39766551  0.59222364  1
  Pd  Pd163  1  0.21082529  0.39508305  -0.00288353  1
  Pd  Pd164  1  -0.00486915  0.40611502  0.39630372  1
  Pd  Pd165  1  0.20729764  0.80710625  0.00129737  1
  Pd  Pd166  1  0.19374874  0.20855880  0.01209229  1
  Pd  Pd167  1  0.40006949  0.80969340  0.40783345  1
  Pd  Pd168  1  0.80271383  0.59393583  0.40608935  1
  Pd  Pd169  1  0.80350114  0.59783131  0.19086292  1
  Pd  Pd170  1  0.59906911  0.79967818  0.20879486  1
  Pd  Pd171  1  -0.00143413  0.59451172  0.19656955  1
  Pd  Pd172  1  0.39265374  0.19966017  0.20032463  1
  Pd  Pd173  1  0.40777390  0.60428059  0.19778300  1
  Pd  Pd174  1  0.20701388  -0.00275439  0.20856904  1
  Pd  Pd175  1  0.79212365  0.79486711  -0.00796253  1
  Pd  Pd176  1  -0.00021008  0.00860749  0.01174166  1
  Pd  Pd177  1  0.18852765  0.20230016  0.79109303  1
  Pd  Pd178  1  0.20728316  0.39324085  0.20734654  1
  Pd  Pd179  1  0.00232221  0.79009059  -0.01171790  1
  Pd  Pd180  1  0.00651881  0.20435023  0.20180524  1
  Pd  Pd181  1  0.60101785  0.19912385  0.59491100  1
  Pd  Pd182  1  0.00054454  0.80743779  0.20592903  1
  Pd  Pd183  1  0.41093701  0.19288970  0.00424225  1
  Pd  Pd184  1  0.80104773  0.19778043  0.39144932  1
  Pd  Pd185  1  0.40963136  0.79820510  0.78965054  1
  Pd  Pd186  1  0.59986567  -0.00739215  0.80997367  1
  Pd  Pd187  1  0.60218019  0.38988908  0.60266619  1
  Pd  Pd188  1  -0.00503108  -0.00557970  0.19315202  1
  Pd  Pd189  1  0.79226149  0.00441370  -0.00070951  1
  Pd  Pd190  1  0.00303037  -0.00067403  0.79807138  1
  Pd  Pd191  1  -0.00674694  0.39591697  0.80382973  1
  Pd  Pd192  1  0.40920389  0.80265598  0.19213523  1
  Pd  Pd193  1  0.21301178  -0.00610480  0.39169733  1
  Pd  Pd194  1  0.18804963  0.81323668  0.79536847  1
  Pd  Pd195  1  0.59349341  0.39660248  0.39946952  1
  Pd  Pd196  1  0.79883951  0.20372841  0.21541694  1
  Pd  Pd197  1  0.60196029  0.00436949  0.19477558  1
  Pd  Pd198  1  0.80667572  0.59596818  0.00896756  1
  Pd  Pd199  1  0.19105633  0.39962690  0.60257585  1
  Rh  Rh200  1  0.40987303  0.00597328  0.00153798  1
  Rh  Rh201  1  -0.00819280  0.80402055  0.60010096  1
  Rh  Rh202  1  0.20074846  -0.00574749  -0.00372871  1
  Rh  Rh203  1  -0.00514471  0.00970607  0.59133164  1
  Rh  Rh204  1  0.79948581  0.19492101  -0.00487222  1
  Rh  Rh205  1  0.59755283  0.60550160  0.39349854  1
  Rh  Rh206  1  0.20297672  0.39201509  0.39562430  1
  Rh  Rh207  1  0.80037406  0.40007862  -0.00057791  1
  Rh  Rh208  1  0.60574827  0.39560008  0.19616345  1
  Rh  Rh209  1  0.79828663  0.80100544  0.40986859  1
  Rh  Rh210  1  0.20827008  0.79019446  0.59012959  1
  Rh  Rh211  1  0.19721254  0.59240660  0.79090059  1
  Rh  Rh212  1  0.40777593  0.20402245  0.80031571  1
  Rh  Rh213  1  0.60241961  0.39772703  0.79574761  1
  Rh  Rh214  1  0.79008483  0.39780946  0.60578827  1
  Rh  Rh215  1  0.19692171  0.80729911  0.20696104  1
  Rh  Rh216  1  0.59998968  0.80003807  0.59996907  1
  Rh  Rh217  1  0.78847646  0.59422462  0.79887278  1
  Rh  Rh218  1  0.39792811  0.39826259  0.20899608  1
  Rh  Rh219  1  0.60507429  0.80862897  -0.01025433  1
  Rh  Rh220  1  0.20023153  0.20099956  0.40425092  1
  Rh  Rh221  1  0.79314194  -0.00925065  0.79927372  1
  Rh  Rh222  1  0.40335277  0.40402597  0.39320962  1
  Rh  Rh223  1  0.80141077  -0.00572066  0.19843017  1
  Rh  Rh224  1  0.80705787  0.00481674  0.39712031  1
  Rh  Rh225  1  0.80433495  0.40322624  0.20261349  1
  Rh  Rh226  1  0.59816372  0.19839454  0.80784842  1
  Rh  Rh227  1  0.40616655  0.19510087  0.40268508  1
  Rh  Rh228  1  0.20175461  0.00895464  0.60462839  1
  Rh  Rh229  1  0.39249922  -0.00110619  0.79841566  1
  Rh  Rh230  1  0.19895478  0.59566078  0.19672770  1
  Rh  Rh231  1  0.59954297  0.59926707  0.80598034  1
  Rh  Rh232  1  0.79705623  0.00294304  0.59855551  1
  Rh  Rh233  1  -0.00723890  0.00144184  0.39928273  1
  Rh  Rh234  1  0.59094238  0.00104718  0.40357923  1
  Rh  Rh235  1  0.60135818  0.00865064  0.59894699  1
  Rh  Rh236  1  0.39656203  0.00443736  0.20537600  1
  Rh  Rh237  1  0.00924077  0.58686990  0.58600857  1
  Rh  Rh238  1  0.60957748  0.38986918  0.01136442  1
  Rh  Rh239  1  -0.00408536  0.19287083  0.40067483  1
  Rh  Rh240  1  0.18484270  0.61246994  0.40390130  1
  Rh  Rh241  1  0.80492190  0.40478683  0.39642162  1
  Rh  Rh242  1  0.79211730  0.59830537  0.59602420  1
  Rh  Rh243  1  0.39393551  0.20391511  0.59861308  1
  Rh  Rh244  1  0.60489280  0.58999209  0.59291953  1
  Rh  Rh245  1  0.80611910  0.20927075  0.79923608  1
  Rh  Rh246  1  0.01084614  0.60671925  0.81028945  1
  Rh  Rh247  1  0.39375871  0.60902668  0.61008902  1
  Rh  Rh248  1  0.20292791  0.20318009  0.19944251  1
  Rh  Rh249  1  0.79783250  0.80427724  0.19604038  1
