# generated using pymatgen
data_ZrScNbPdRh
_symmetry_space_group_name_H-M   'P 1'
_cell_length_a   16.55694181
_cell_length_b   16.55659373
_cell_length_c   16.55707885
_cell_angle_alpha   89.98506824
_cell_angle_beta   89.97740685
_cell_angle_gamma   89.99502954
_symmetry_Int_Tables_number   1
_chemical_formula_structural   ZrScNbPdRh
_chemical_formula_sum   'Zr50 Sc50 Nb50 Pd50 Rh50'
_cell_volume   4538.73452560
_cell_formula_units_Z   50
loop_
 _symmetry_equiv_pos_site_id
 _symmetry_equiv_pos_as_xyz
  1  'x, y, z'
loop_
 _atom_site_type_symbol
 _atom_site_label
 _atom_site_symmetry_multiplicity
 _atom_site_fract_x
 _atom_site_fract_y
 _atom_site_fract_z
 _atom_site_occupancy
  Zr  Zr0  1  0.09620221  0.89734875  0.90607513  1
  Zr  Zr1  1  0.10299658  0.30497233  0.89705663  1
  Zr  Zr2  1  0.09265858  0.90602299  0.70817648  1
  Zr  Zr3  1  0.70265861  0.89932618  0.29780174  1
  Zr  Zr4  1  0.30121133  0.49207329  0.10531145  1
  Zr  Zr5  1  0.49589601  0.29907227  0.70372609  1
  Zr  Zr6  1  0.70153049  0.69531551  0.50225734  1
  Zr  Zr7  1  0.70472780  0.30023169  0.30135251  1
  Zr  Zr8  1  0.91429568  0.09945280  0.30131066  1
  Zr  Zr9  1  0.70529616  0.29279054  0.90408197  1
  Zr  Zr10  1  0.09397972  0.09249162  0.10972209  1
  Zr  Zr11  1  0.10000242  0.49842079  0.49732192  1
  Zr  Zr12  1  0.29979112  0.70416945  0.90237664  1
  Zr  Zr13  1  0.49383190  0.10287069  0.89919618  1
  Zr  Zr14  1  0.29840077  0.50473197  0.30087590  1
  Zr  Zr15  1  0.29701105  0.09419116  0.49403394  1
  Zr  Zr16  1  0.50212289  0.29837200  0.49837175  1
  Zr  Zr17  1  0.90516171  0.09628161  0.69811010  1
  Zr  Zr18  1  0.49832269  0.49949335  0.70754654  1
  Zr  Zr19  1  0.30336735  0.09754166  0.29432881  1
  Zr  Zr20  1  0.29943652  0.70657698  0.29107770  1
  Zr  Zr21  1  0.70454478  0.69656239  0.09720288  1
  Zr  Zr22  1  0.09514616  0.70278207  0.89951136  1
  Zr  Zr23  1  0.50016482  0.69521650  0.90386073  1
  Zr  Zr24  1  0.50508684  0.70388219  0.50431119  1
  Zr  Zr25  1  0.49430849  0.30273654  0.10015027  1
  Zr  Zr26  1  0.09685300  0.29411425  0.29499446  1
  Zr  Zr27  1  0.49992830  0.09508824  0.49750489  1
  Zr  Zr28  1  0.50117857  0.50462338  0.29666972  1
  Zr  Zr29  1  0.90100376  0.90274291  0.89921699  1
  Zr  Zr30  1  0.10511719  0.50288354  0.29733914  1
  Zr  Zr31  1  0.29899600  0.29659013  0.30067992  1
  Zr  Zr32  1  0.49712360  0.90264198  0.30056200  1
  Zr  Zr33  1  0.49818383  0.70542225  0.29787432  1
  Zr  Zr34  1  0.88506758  0.09783346  0.90884902  1
  Zr  Zr35  1  0.09683625  0.90132783  0.29560766  1
  Zr  Zr36  1  0.49585012  0.30663335  0.89887700  1
  Zr  Zr37  1  0.10138563  0.30225411  0.69850134  1
  Zr  Zr38  1  0.89475362  0.29872066  0.30718613  1
  Zr  Zr39  1  0.69976699  0.10284060  0.89980936  1
  Zr  Zr40  1  0.70513522  0.29726737  0.49627662  1
  Zr  Zr41  1  0.49379242  0.90065123  0.51017250  1
  Zr  Zr42  1  0.70717536  0.70301673  0.29299550  1
  Zr  Zr43  1  0.10317367  0.70001989  0.69883456  1
  Zr  Zr44  1  0.89828898  0.30012041  0.50447317  1
  Zr  Zr45  1  0.89902518  0.70023677  0.49287152  1
  Zr  Zr46  1  0.70015546  0.89814317  0.49884307  1
  Zr  Zr47  1  0.90289359  0.10028830  0.49455860  1
  Zr  Zr48  1  0.10441124  0.31092317  0.09728554  1
  Zr  Zr49  1  0.90034216  0.50421880  0.09865181  1
  Sc  Sc50  1  0.69455571  0.68991148  0.69439511  1
  Sc  Sc51  1  0.90359684  0.68774890  0.89738866  1
  Sc  Sc52  1  0.90071918  0.70542646  0.29920403  1
  Sc  Sc53  1  0.10014149  0.09534540  0.50064922  1
  Sc  Sc54  1  0.50340203  0.70668242  0.10265621  1
  Sc  Sc55  1  0.70053982  0.91504910  0.90242735  1
  Sc  Sc56  1  0.09775475  0.69864099  0.49613151  1
  Sc  Sc57  1  0.10524292  0.09438637  0.30181947  1
  Sc  Sc58  1  0.90294345  0.68636271  0.70890906  1
  Sc  Sc59  1  0.29805168  0.69223723  0.70134094  1
  Sc  Sc60  1  0.50593011  0.09955198  0.69561737  1
  Sc  Sc61  1  0.50598804  0.49574519  0.49534817  1
  Sc  Sc62  1  0.10925903  0.09227947  0.89630623  1
  Sc  Sc63  1  0.90281948  0.70038372  0.10744236  1
  Sc  Sc64  1  0.50075522  0.49839402  0.89977641  1
  Sc  Sc65  1  0.70710475  0.50442075  0.10065718  1
  Sc  Sc66  1  0.69708176  0.10091820  0.49918355  1
  Sc  Sc67  1  0.09355821  0.49808805  0.90035125  1
  Sc  Sc68  1  0.69980691  0.51161547  0.90482844  1
  Sc  Sc69  1  0.89714040  0.50494527  0.50541437  1
  Sc  Sc70  1  0.50177257  0.69586761  0.69785560  1
  Sc  Sc71  1  0.49941559  0.49909970  0.09485190  1
  Sc  Sc72  1  0.29364198  0.48226738  0.49386662  1
  Sc  Sc73  1  0.09987493  0.49820531  0.69480498  1
  Sc  Sc74  1  0.70605548  0.50644401  0.49845704  1
  Sc  Sc75  1  0.09734636  0.89757802  0.09922108  1
  Sc  Sc76  1  0.29549413  0.89761337  0.68124562  1
  Sc  Sc77  1  0.49898995  0.10100883  0.11207980  1
  Sc  Sc78  1  0.69570037  0.10132658  0.09294689  1
  Sc  Sc79  1  0.69515785  0.89564543  0.10470445  1
  Sc  Sc80  1  0.09841096  0.70335555  0.29561889  1
  Sc  Sc81  1  0.30327707  0.49610170  0.89223409  1
  Sc  Sc82  1  0.89437793  0.30920886  0.09991816  1
  Sc  Sc83  1  0.10859152  0.30606184  0.50597055  1
  Sc  Sc84  1  0.70166058  0.29204894  0.69739356  1
  Sc  Sc85  1  0.49650317  0.89954658  0.10303054  1
  Sc  Sc86  1  0.10958679  0.89952862  0.49831718  1
  Sc  Sc87  1  0.69966905  0.29818894  0.09750735  1
  Sc  Sc88  1  0.49928785  0.28603206  0.29925978  1
  Sc  Sc89  1  0.49805121  0.90187255  0.91431052  1
  Sc  Sc90  1  0.69333481  0.90730880  0.70004574  1
  Sc  Sc91  1  0.29998950  0.89871088  0.30014827  1
  Sc  Sc92  1  0.29669958  0.90728711  0.92070608  1
  Sc  Sc93  1  0.70778955  0.50380560  0.30224850  1
  Sc  Sc94  1  0.90217186  0.89270551  0.30566741  1
  Sc  Sc95  1  0.69709652  0.09743950  0.70119611  1
  Sc  Sc96  1  0.29516812  0.30445628  0.70670349  1
  Sc  Sc97  1  0.29396703  0.71869099  0.50234597  1
  Sc  Sc98  1  0.29657562  0.49845207  0.70108742  1
  Sc  Sc99  1  0.29031321  0.10858660  0.70920505  1
  Nb  Nb100  1  0.30301471  0.29636686  0.49896325  1
  Nb  Nb101  1  0.10264262  0.50604105  0.10270370  1
  Nb  Nb102  1  0.50708568  0.09678220  0.29424769  1
  Nb  Nb103  1  0.89449303  0.49301689  0.29736101  1
  Nb  Nb104  1  0.30331690  0.29699204  0.09623019  1
  Nb  Nb105  1  0.29583895  0.89623492  0.09950008  1
  Nb  Nb106  1  0.30650039  0.90603396  0.49339266  1
  Nb  Nb107  1  0.10307933  0.69834066  0.10328891  1
  Nb  Nb108  1  0.90074266  0.29920861  0.89853384  1
  Nb  Nb109  1  0.69427820  0.09817777  0.29186848  1
  Nb  Nb110  1  0.30056784  0.10109447  0.90280575  1
  Nb  Nb111  1  0.90056796  0.89679475  0.49730281  1
  Nb  Nb112  1  0.90561876  0.30366128  0.69792009  1
  Nb  Nb113  1  0.70248536  0.70185762  0.90303845  1
  Nb  Nb114  1  0.90166780  0.90888614  0.09528256  1
  Nb  Nb115  1  0.89574039  0.49695507  0.70284755  1
  Nb  Nb116  1  0.49952113  0.89844481  0.70071080  1
  Nb  Nb117  1  0.89685006  0.50074089  0.89173049  1
  Nb  Nb118  1  0.89949927  0.09594171  0.09818836  1
  Nb  Nb119  1  0.29513388  0.70877505  0.09867380  1
  Nb  Nb120  1  0.70413971  0.50124726  0.69714161  1
  Nb  Nb121  1  0.30004193  0.29211861  0.89723942  1
  Nb  Nb122  1  0.29798418  0.09124381  0.09313258  1
  Nb  Nb123  1  0.09777271  0.10301357  0.70444136  1
  Nb  Nb124  1  0.89991249  0.89887564  0.70480026  1
  Nb  Nb125  1  0.79476116  0.79821763  0.80127708  1
  Nb  Nb126  1  0.39952221  0.59591653  0.59002951  1
  Nb  Nb127  1  0.60350351  0.39961986  0.60382480  1
  Nb  Nb128  1  0.39784289  0.60498996  0.40394855  1
  Nb  Nb129  1  0.60063184  0.39890420  0.20281796  1
  Nb  Nb130  1  0.00049570  0.20138322  -0.00370492  1
  Nb  Nb131  1  0.59929730  0.80090420  0.80304304  1
  Nb  Nb132  1  0.40063286  0.80838552  0.80025190  1
  Nb  Nb133  1  0.60019735  0.80026047  0.40031641  1
  Nb  Nb134  1  0.80621373  0.80288294  0.60678774  1
  Nb  Nb135  1  0.19914557  0.60024723  0.00858604  1
  Nb  Nb136  1  0.80366595  0.00494440  0.19966879  1
  Nb  Nb137  1  0.80203236  0.19127615  0.20186389  1
  Nb  Nb138  1  0.39047767  0.60380124  0.00433737  1
  Nb  Nb139  1  0.20294831  0.80453884  0.80321615  1
  Nb  Nb140  1  0.39702078  -0.00571234  0.80025213  1
  Nb  Nb141  1  -0.00769763  0.80444021  0.60186611  1
  Nb  Nb142  1  0.80600473  0.39996324  0.79869254  1
  Nb  Nb143  1  0.80925778  -0.00715555  0.59785904  1
  Nb  Nb144  1  -0.00182034  0.40225793  0.39705550  1
  Nb  Nb145  1  0.39152284  0.19980248  0.00089734  1
  Nb  Nb146  1  0.39441416  0.20301866  0.59477040  1
  Nb  Nb147  1  0.20294195  0.19918986  0.00183788  1
  Nb  Nb148  1  -0.00325441  0.20232203  0.80149306  1
  Nb  Nb149  1  0.80188329  0.80024645  -0.00496929  1
  Pd  Pd150  1  0.59779170  -0.00505331  0.40096903  1
  Pd  Pd151  1  0.60301496  0.59499472  0.19342411  1
  Pd  Pd152  1  0.19457337  0.59895299  0.80813230  1
  Pd  Pd153  1  0.40598543  0.39537418  0.20974282  1
  Pd  Pd154  1  0.79927373  0.18980834  0.60385469  1
  Pd  Pd155  1  0.59062897  -0.00424862  0.80335290  1
  Pd  Pd156  1  -0.00932657  0.79459298  0.00648731  1
  Pd  Pd157  1  -0.00161674  0.40151486  0.79621359  1
  Pd  Pd158  1  -0.00261639  0.40184362  0.20320929  1
  Pd  Pd159  1  0.19756039  0.00417294  0.60348438  1
  Pd  Pd160  1  0.60408599  0.60353946  0.80206383  1
  Pd  Pd161  1  -0.00419011  0.40202830  0.00045817  1
  Pd  Pd162  1  0.00210430  0.59823873  0.00077120  1
  Pd  Pd163  1  0.20702488  0.40494667  -0.00675639  1
  Pd  Pd164  1  0.20976572  0.60956821  0.40670904  1
  Pd  Pd165  1  0.19410606  0.20008132  0.40226933  1
  Pd  Pd166  1  0.40204990  0.40082444  0.60175439  1
  Pd  Pd167  1  0.59897080  0.60579381  0.39735763  1
  Pd  Pd168  1  0.00157916  -0.00706928  0.59316483  1
  Pd  Pd169  1  -0.00850134  0.20845612  0.18789729  1
  Pd  Pd170  1  0.19754630  0.80285734  0.39592189  1
  Pd  Pd171  1  0.39595014  -0.00437868  0.19708873  1
  Pd  Pd172  1  0.60647233  0.80276827  -0.00375859  1
  Pd  Pd173  1  0.00614085  0.20172275  0.60023434  1
  Pd  Pd174  1  0.60497912  0.40151094  0.39769005  1
  Pd  Pd175  1  -0.00509230  0.59381737  0.39027757  1
  Pd  Pd176  1  0.20223827  0.39794930  0.20511705  1
  Pd  Pd177  1  0.21019477  0.59617010  0.58851421  1
  Pd  Pd178  1  0.58845995  0.19808870  0.00319916  1
  Pd  Pd179  1  0.21183510  -0.01053264  0.79855858  1
  Pd  Pd180  1  0.39913731  0.60532556  0.19471586  1
  Pd  Pd181  1  0.40167350  0.19235729  0.40033109  1
  Pd  Pd182  1  -0.00390726  0.01121774  0.81124483  1
  Pd  Pd183  1  -0.00285008  0.60139891  0.20640231  1
  Pd  Pd184  1  0.20395102  0.19612590  0.19195488  1
  Pd  Pd185  1  0.80575651  0.20299441  0.79054391  1
  Pd  Pd186  1  -0.00271115  0.60199450  0.60202930  1
  Pd  Pd187  1  0.80257332  0.00513526  0.39707692  1
  Pd  Pd188  1  0.39296554  0.01238584  0.61163908  1
  Pd  Pd189  1  0.20456385  0.19865787  0.59964029  1
  Pd  Pd190  1  0.59426651  0.00403126  0.00796305  1
  Pd  Pd191  1  0.01154189  0.20765320  0.41093338  1
  Pd  Pd192  1  0.59902881  0.20147815  0.79927721  1
  Pd  Pd193  1  0.60289357  0.19523631  0.39738824  1
  Pd  Pd194  1  0.79752885  0.40539307  -0.00727153  1
  Pd  Pd195  1  0.40276882  0.40210869  0.39266925  1
  Pd  Pd196  1  0.60806300  0.40539850  0.00494878  1
  Pd  Pd197  1  0.79464632  0.40067496  0.60244277  1
  Pd  Pd198  1  0.61631342  0.39947450  0.79759516  1
  Pd  Pd199  1  0.39666998  0.79104140  0.60839971  1
  Rh  Rh200  1  0.39387687  0.40128859  -0.00779194  1
  Rh  Rh201  1  0.40133139  0.00309842  0.39291570  1
  Rh  Rh202  1  0.80630174  0.60071034  0.39308475  1
  Rh  Rh203  1  0.78981079  -0.00740558  0.01157382  1
  Rh  Rh204  1  0.20232597  -0.00374963  0.39591981  1
  Rh  Rh205  1  0.19348575  0.79605783  0.00046970  1
  Rh  Rh206  1  0.00000910  0.79310455  0.79381668  1
  Rh  Rh207  1  0.39471104  0.39835405  0.80237884  1
  Rh  Rh208  1  0.00732286  0.80170150  0.40527189  1
  Rh  Rh209  1  0.80758640  0.59838347  0.20372185  1
  Rh  Rh210  1  0.60774165  0.80536202  0.60344768  1
  Rh  Rh211  1  0.59257795  0.59975189  0.00473577  1
  Rh  Rh212  1  0.19277313  0.38937698  0.39250894  1
  Rh  Rh213  1  0.40468534  0.79949936  0.40273192  1
  Rh  Rh214  1  0.39406423  0.19528952  0.19486231  1
  Rh  Rh215  1  0.80556975  0.60694822  0.60435713  1
  Rh  Rh216  1  0.00582834  0.00941171  -0.00440850  1
  Rh  Rh217  1  -0.00104734  0.40542106  0.59309967  1
  Rh  Rh218  1  0.00711209  0.59004560  0.79642462  1
  Rh  Rh219  1  -0.00764637  -0.00883028  0.20375972  1
  Rh  Rh220  1  0.59397419  0.20475257  0.59968448  1
  Rh  Rh221  1  0.19059431  0.20073397  0.80505057  1
  Rh  Rh222  1  0.60401866  -0.00199187  0.19640087  1
  Rh  Rh223  1  0.20318134  0.39872721  0.60271701  1
  Rh  Rh224  1  0.20393501  -0.00625495  0.19705374  1
  Rh  Rh225  1  0.18893356  0.80316992  0.60562599  1
  Rh  Rh226  1  -0.00065941  0.80295399  0.19590104  1
  Rh  Rh227  1  0.60764300  0.20694640  0.20013982  1
  Rh  Rh228  1  0.20156532  0.60397821  0.19497375  1
  Rh  Rh229  1  0.00563167  -0.00615024  0.40290651  1
  Rh  Rh230  1  0.39669521  0.80636870  0.19342778  1
  Rh  Rh231  1  0.81024391  0.81182041  0.18754438  1
  Rh  Rh232  1  0.59256539  0.58251598  0.60234576  1
  Rh  Rh233  1  0.59848731  0.80209814  0.20616606  1
  Rh  Rh234  1  0.40182635  0.60422705  0.79856534  1
  Rh  Rh235  1  0.80712191  0.20286770  0.01150766  1
  Rh  Rh236  1  0.80702491  0.40832927  0.40768983  1
  Rh  Rh237  1  0.79347693  0.79401604  0.40497499  1
  Rh  Rh238  1  0.40081904  0.79629417  0.00172452  1
  Rh  Rh239  1  0.19976090  0.40305878  0.80118621  1
  Rh  Rh240  1  0.80813065  0.60624561  -0.00025054  1
  Rh  Rh241  1  0.79450626  0.18729677  0.39259475  1
  Rh  Rh242  1  0.19198697  0.00367410  0.00667774  1
  Rh  Rh243  1  0.79709540  -0.00326624  0.79097667  1
  Rh  Rh244  1  0.79132909  0.39680057  0.19670949  1
  Rh  Rh245  1  0.40026152  0.19429205  0.79696655  1
  Rh  Rh246  1  0.40425917  0.00598862  0.00202635  1
  Rh  Rh247  1  0.60489732  0.00039556  0.59880052  1
  Rh  Rh248  1  0.79301615  0.59762060  0.79854284  1
  Rh  Rh249  1  0.19630394  0.80465489  0.19721862  1
