# generated using pymatgen
data_ZrScNbPdRh
_symmetry_space_group_name_H-M   'P 1'
_cell_length_a   16.54840539
_cell_length_b   16.55139894
_cell_length_c   16.55063877
_cell_angle_alpha   90.04615423
_cell_angle_beta   90.00295217
_cell_angle_gamma   90.02044990
_symmetry_Int_Tables_number   1
_chemical_formula_structural   ZrScNbPdRh
_chemical_formula_sum   'Zr50 Sc50 Nb50 Pd50 Rh50'
_cell_volume   4533.20593516
_cell_formula_units_Z   50
loop_
 _symmetry_equiv_pos_site_id
 _symmetry_equiv_pos_as_xyz
  1  'x, y, z'
loop_
 _atom_site_type_symbol
 _atom_site_label
 _atom_site_symmetry_multiplicity
 _atom_site_fract_x
 _atom_site_fract_y
 _atom_site_fract_z
 _atom_site_occupancy
  Zr  Zr0  1  0.31453774  0.29791951  0.50250064  1
  Zr  Zr1  1  0.30354392  0.30351417  0.09627163  1
  Zr  Zr2  1  0.30968642  0.50289906  0.70209155  1
  Zr  Zr3  1  0.90513990  0.90783737  0.70549575  1
  Zr  Zr4  1  0.89419630  0.89580310  0.89904466  1
  Zr  Zr5  1  0.30013686  0.30387239  0.30038155  1
  Zr  Zr6  1  0.30951806  0.70226873  0.29772363  1
  Zr  Zr7  1  0.09616577  0.10874097  0.30395715  1
  Zr  Zr8  1  0.50493396  0.49343026  0.49722618  1
  Zr  Zr9  1  0.90334991  0.69917011  0.49659051  1
  Zr  Zr10  1  0.50258529  0.69060226  0.30169809  1
  Zr  Zr11  1  0.09593596  0.49732554  0.90916735  1
  Zr  Zr12  1  0.70348169  0.30794530  0.50175613  1
  Zr  Zr13  1  0.69466812  0.09561493  0.29709137  1
  Zr  Zr14  1  0.69948830  0.50222754  0.49663551  1
  Zr  Zr15  1  0.30118960  0.10861556  0.70954051  1
  Zr  Zr16  1  0.09471314  0.69266194  0.30189879  1
  Zr  Zr17  1  0.90072807  0.49668100  0.70975821  1
  Zr  Zr18  1  0.89409643  0.89224112  0.50001999  1
  Zr  Zr19  1  0.10171273  0.10002791  0.89479200  1
  Zr  Zr20  1  0.09657044  0.29715518  0.48780705  1
  Zr  Zr21  1  0.70080324  0.50681082  0.29987651  1
  Zr  Zr22  1  0.89609524  0.70071302  0.89873960  1
  Zr  Zr23  1  0.49333536  0.10078879  0.50334094  1
  Zr  Zr24  1  0.49891461  0.70367678  0.10520300  1
  Zr  Zr25  1  0.09335154  0.08639144  0.69389732  1
  Zr  Zr26  1  0.29399030  0.49885510  0.09762889  1
  Zr  Zr27  1  0.49587578  0.30435345  0.30466928  1
  Zr  Zr28  1  0.09861084  0.89841730  0.51143632  1
  Zr  Zr29  1  0.30124442  0.90058027  0.11397858  1
  Zr  Zr30  1  0.50362128  0.10678753  0.89954868  1
  Zr  Zr31  1  0.10503559  0.69629890  0.49626570  1
  Zr  Zr32  1  0.70155216  0.90289263  0.30263497  1
  Zr  Zr33  1  0.49977003  0.50522647  0.89782038  1
  Zr  Zr34  1  0.90703239  0.30275784  0.30601242  1
  Zr  Zr35  1  0.09418344  0.49515966  0.29759227  1
  Zr  Zr36  1  0.10387921  0.90234844  0.29200980  1
  Zr  Zr37  1  0.50493972  0.09819991  0.29858334  1
  Zr  Zr38  1  0.70294526  0.69003109  0.10489432  1
  Zr  Zr39  1  0.10126550  0.09668030  0.50122582  1
  Zr  Zr40  1  0.09318608  0.10476693  0.10103297  1
  Zr  Zr41  1  0.09122142  0.89590106  0.89683778  1
  Zr  Zr42  1  0.71222153  0.70881193  0.50672449  1
  Zr  Zr43  1  0.31020545  0.09578304  0.30146398  1
  Zr  Zr44  1  0.89802153  0.49567220  0.50550138  1
  Zr  Zr45  1  0.30048819  0.50772675  0.50144266  1
  Zr  Zr46  1  0.51345460  0.90638367  0.51466584  1
  Zr  Zr47  1  0.30007941  0.89739117  0.89428548  1
  Zr  Zr48  1  0.69577044  0.30361100  0.08859103  1
  Zr  Zr49  1  0.50521140  0.89987379  0.90303168  1
  Sc  Sc50  1  0.89558531  0.10163554  0.49655211  1
  Sc  Sc51  1  0.70013819  0.90053234  0.09807129  1
  Sc  Sc52  1  0.30226029  0.49862110  0.91096806  1
  Sc  Sc53  1  0.90191988  0.50333461  0.09424169  1
  Sc  Sc54  1  0.29725339  0.89367696  0.69948071  1
  Sc  Sc55  1  0.89686500  0.70312186  0.10018623  1
  Sc  Sc56  1  0.89201237  0.30763630  0.69997833  1
  Sc  Sc57  1  0.31136351  0.10548310  0.10754428  1
  Sc  Sc58  1  0.48903523  0.30649665  0.69582078  1
  Sc  Sc59  1  0.69790523  0.29659913  0.90169476  1
  Sc  Sc60  1  0.69150698  0.09292177  0.49044347  1
  Sc  Sc61  1  0.49946174  0.50046237  0.69809617  1
  Sc  Sc62  1  0.49936463  0.50646695  0.09684776  1
  Sc  Sc63  1  0.90069724  0.69613090  0.29396446  1
  Sc  Sc64  1  0.49930672  0.89440615  0.70139634  1
  Sc  Sc65  1  0.90309891  0.31146534  0.89800558  1
  Sc  Sc66  1  0.09335772  0.69837013  0.90461961  1
  Sc  Sc67  1  0.89547229  0.10615841  0.29058537  1
  Sc  Sc68  1  0.08771019  0.30727895  0.70232532  1
  Sc  Sc69  1  0.49922746  0.29278985  0.09406559  1
  Sc  Sc70  1  0.49762044  0.70369438  0.90428070  1
  Sc  Sc71  1  0.09941699  0.50895857  0.49880373  1
  Sc  Sc72  1  0.48995847  0.90335182  0.29918284  1
  Sc  Sc73  1  0.70884412  0.69423550  0.30021888  1
  Sc  Sc74  1  0.70368798  0.30063024  0.70481162  1
  Sc  Sc75  1  0.30496095  0.69853980  0.10133948  1
  Sc  Sc76  1  0.49946841  0.69669214  0.70480873  1
  Sc  Sc77  1  0.69501597  0.09491242  0.10076800  1
  Sc  Sc78  1  0.69689192  0.90227537  0.90339779  1
  Sc  Sc79  1  0.09157512  0.69683680  0.09673324  1
  Sc  Sc80  1  0.50476704  0.09542709  0.70254383  1
  Sc  Sc81  1  0.09577078  0.30373562  0.90322675  1
  Sc  Sc82  1  0.89543421  0.89173752  0.29299638  1
  Sc  Sc83  1  0.50762532  0.90428899  0.09565512  1
  Sc  Sc84  1  0.09373870  0.90079970  0.10371418  1
  Sc  Sc85  1  0.30194606  0.69563108  0.50279185  1
  Sc  Sc86  1  0.68799397  0.89080257  0.69071192  1
  Sc  Sc87  1  0.30802780  0.49692376  0.30342493  1
  Sc  Sc88  1  0.50454710  0.10202305  0.10236675  1
  Sc  Sc89  1  0.70584192  0.50027734  0.70794895  1
  Sc  Sc90  1  0.10864559  0.70021813  0.68926879  1
  Sc  Sc91  1  0.88684848  0.69471258  0.70122568  1
  Sc  Sc92  1  0.31077090  0.89822263  0.50952748  1
  Sc  Sc93  1  0.70495905  0.29515936  0.30489020  1
  Sc  Sc94  1  0.30532459  0.69935636  0.69437588  1
  Sc  Sc95  1  0.09232101  0.31301783  0.09297202  1
  Sc  Sc96  1  0.49345019  0.69790935  0.50093176  1
  Sc  Sc97  1  0.09237232  0.50098367  0.69524465  1
  Sc  Sc98  1  0.10216439  0.89701479  0.69768490  1
  Sc  Sc99  1  0.69836634  0.69699469  0.89844667  1
  Nb  Nb100  1  0.70272461  0.10314372  0.88859107  1
  Nb  Nb101  1  0.29894266  0.30203465  0.70131488  1
  Nb  Nb102  1  0.50207515  0.29764853  0.90595844  1
  Nb  Nb103  1  0.29738612  0.89912565  0.29866268  1
  Nb  Nb104  1  0.30656095  0.28703665  0.89329727  1
  Nb  Nb105  1  0.70942466  0.10568371  0.70799074  1
  Nb  Nb106  1  0.10249930  0.29924946  0.30186551  1
  Nb  Nb107  1  0.10626535  0.50272154  0.09499477  1
  Nb  Nb108  1  0.29839036  0.10018810  0.50816228  1
  Nb  Nb109  1  0.89830122  0.49941138  0.29738130  1
  Nb  Nb110  1  0.89991736  0.10438175  0.09367845  1
  Nb  Nb111  1  0.30081291  0.10353760  0.89736029  1
  Nb  Nb112  1  0.89855644  0.30140756  0.50331519  1
  Nb  Nb113  1  0.89344910  0.50483254  0.89326154  1
  Nb  Nb114  1  0.88776256  0.09029547  0.88644587  1
  Nb  Nb115  1  0.89691141  0.29392761  0.09810866  1
  Nb  Nb116  1  0.89171245  0.09922109  0.70320462  1
  Nb  Nb117  1  0.29482871  0.69813778  0.90085218  1
  Nb  Nb118  1  0.50597844  0.50597224  0.30251518  1
  Nb  Nb119  1  0.70107877  0.49829133  0.09837077  1
  Nb  Nb120  1  0.89709314  0.90246596  0.09304130  1
  Nb  Nb121  1  0.70215909  0.49613461  0.91224029  1
  Nb  Nb122  1  0.50696053  0.30280798  0.50942550  1
  Nb  Nb123  1  0.69931298  0.69594336  0.69412680  1
  Nb  Nb124  1  0.70038017  0.89924495  0.50023593  1
  Nb  Nb125  1  0.19596686  0.59392405  0.19853312  1
  Nb  Nb126  1  0.19830114  0.20383719  0.60230983  1
  Nb  Nb127  1  0.20469279  0.19730781  -0.00077974  1
  Nb  Nb128  1  0.60468831  0.40688104  0.19814633  1
  Nb  Nb129  1  -0.00967492  0.00452938  -0.00179971  1
  Nb  Nb130  1  0.80683912  0.19227131  -0.00482432  1
  Nb  Nb131  1  0.20171570  0.80521478  -0.00045275  1
  Nb  Nb132  1  0.60175173  0.20292321  0.59897440  1
  Nb  Nb133  1  0.20383554  0.80666287  0.39536821  1
  Nb  Nb134  1  0.60320105  0.80191151  0.40143582  1
  Nb  Nb135  1  0.59645474  0.40150119  0.81017309  1
  Nb  Nb136  1  0.39381668  0.00294573  -0.00674764  1
  Nb  Nb137  1  -0.00517420  0.19973412  0.60037678  1
  Nb  Nb138  1  -0.00955736  0.19158592  0.79539633  1
  Nb  Nb139  1  0.19621737  0.20821176  0.20096960  1
  Nb  Nb140  1  0.20388983  -0.00364940  0.40232627  1
  Nb  Nb141  1  0.20436337  0.39437538  0.60238039  1
  Nb  Nb142  1  0.00396852  -0.00219710  0.39789252  1
  Nb  Nb143  1  0.60159396  0.79713482  0.20690423  1
  Nb  Nb144  1  0.20667654  0.39903198  0.79838314  1
  Nb  Nb145  1  0.20198540  0.59491082  0.80495980  1
  Nb  Nb146  1  0.79406421  0.00131464  0.60280448  1
  Nb  Nb147  1  0.60782558  0.60069543  0.59895526  1
  Nb  Nb148  1  0.80030825  0.40061076  0.19582187  1
  Nb  Nb149  1  0.20165424  0.00228388  -0.00038090  1
  Pd  Pd150  1  -0.01209455  -0.00052779  0.20042773  1
  Pd  Pd151  1  0.80367127  -0.00088241  0.19557399  1
  Pd  Pd152  1  0.79566632  0.00514622  -0.00043751  1
  Pd  Pd153  1  0.00302046  0.78601564  0.78902320  1
  Pd  Pd154  1  0.79208553  0.79525986  0.00232816  1
  Pd  Pd155  1  -0.00657752  0.79088363  0.60894739  1
  Pd  Pd156  1  0.39993271  0.60368810  0.00045693  1
  Pd  Pd157  1  0.80817913  0.39636198  0.00049514  1
  Pd  Pd158  1  0.39668823  0.00117868  0.61382909  1
  Pd  Pd159  1  0.20143996  0.01453669  0.19928744  1
  Pd  Pd160  1  0.59742147  0.20407966  0.40696312  1
  Pd  Pd161  1  0.19506479  0.78823790  0.80295640  1
  Pd  Pd162  1  0.19602686  0.39974856  0.19989655  1
  Pd  Pd163  1  0.19990573  -0.00501236  0.79764183  1
  Pd  Pd164  1  0.60179020  0.79593582  0.80219688  1
  Pd  Pd165  1  0.80008695  0.19701132  0.40213052  1
  Pd  Pd166  1  0.59303570  0.21211369  0.79053603  1
  Pd  Pd167  1  0.59935608  0.60431792  0.00050110  1
  Pd  Pd168  1  -0.00061315  0.40690978  0.40547657  1
  Pd  Pd169  1  -0.00635535  0.40054047  0.19190691  1
  Pd  Pd170  1  0.40177584  0.39672364  0.80876479  1
  Pd  Pd171  1  0.00759656  0.60514804  0.79650024  1
  Pd  Pd172  1  0.00550779  0.80520189  0.39530508  1
  Pd  Pd173  1  0.40323517  0.80588752  0.40573999  1
  Pd  Pd174  1  0.79247657  0.20532602  0.19235212  1
  Pd  Pd175  1  0.79483774  0.40525081  0.60638895  1
  Pd  Pd176  1  0.41262156  0.40611051  0.19628751  1
  Pd  Pd177  1  0.40303252  -0.00137595  0.80032181  1
  Pd  Pd178  1  0.60420514  0.39647029  0.39095719  1
  Pd  Pd179  1  -0.00850319  0.59965124  0.00080484  1
  Pd  Pd180  1  0.60547202  -0.00395222  0.79614661  1
  Pd  Pd181  1  0.20240121  0.40547806  0.40754911  1
  Pd  Pd182  1  0.00338500  0.21131092  0.19822501  1
  Pd  Pd183  1  -0.00490099  0.60480055  0.60513972  1
  Pd  Pd184  1  0.39526117  0.80782535  0.00478898  1
  Pd  Pd185  1  0.40407482  0.39763235  -0.00355231  1
  Pd  Pd186  1  0.60189949  0.21043205  0.19862733  1
  Pd  Pd187  1  0.40421409  0.20035318  0.40054906  1
  Pd  Pd188  1  0.39928674  -0.00640601  0.40653556  1
  Pd  Pd189  1  0.19616764  0.78527746  0.19708440  1
  Pd  Pd190  1  0.21128159  0.19511260  0.40082582  1
  Pd  Pd191  1  0.78943838  0.80331605  0.79404518  1
  Pd  Pd192  1  0.80672295  0.60126931  0.39971684  1
  Pd  Pd193  1  0.79617143  0.19437730  0.59397681  1
  Pd  Pd194  1  -0.00499494  0.19649287  -0.01460843  1
  Pd  Pd195  1  -0.00390872  0.79769290  0.19481746  1
  Pd  Pd196  1  0.40210997  0.79392168  0.79831252  1
  Pd  Pd197  1  0.60416406  0.59554319  0.79621931  1
  Pd  Pd198  1  0.80825417  0.00011673  0.40055583  1
  Pd  Pd199  1  0.18631313  0.21036854  0.79704715  1
  Rh  Rh200  1  0.60171109  0.61062186  0.41252156  1
  Rh  Rh201  1  0.80767989  0.21218647  0.80896229  1
  Rh  Rh202  1  0.59195699  -0.00829857  0.39733507  1
  Rh  Rh203  1  0.39738107  0.19329250  -0.00166725  1
  Rh  Rh204  1  0.40800794  -0.00078369  0.19260356  1
  Rh  Rh205  1  0.80880735  0.59157482  0.19668500  1
  Rh  Rh206  1  0.00096163  0.00208822  0.80578514  1
  Rh  Rh207  1  0.80222590  0.60151706  -0.00463746  1
  Rh  Rh208  1  0.41199697  0.59729598  0.59850294  1
  Rh  Rh209  1  0.78533173  -0.01434152  0.78921240  1
  Rh  Rh210  1  0.20028807  0.61239909  0.00360598  1
  Rh  Rh211  1  0.00520755  0.39196581  0.59131694  1
  Rh  Rh212  1  0.61233616  0.01502142  0.60705379  1
  Rh  Rh213  1  0.40192505  0.59411302  0.40005926  1
  Rh  Rh214  1  0.40995510  0.80528135  0.19918091  1
  Rh  Rh215  1  0.20646775  0.38710124  -0.01121158  1
  Rh  Rh216  1  0.60520849  0.79381690  0.00885974  1
  Rh  Rh217  1  0.61051229  0.19119331  -0.00325233  1
  Rh  Rh218  1  0.79672048  0.79729953  0.39298811  1
  Rh  Rh219  1  0.59728248  -0.00811400  0.20219896  1
  Rh  Rh220  1  0.00243562  0.59370537  0.19523698  1
  Rh  Rh221  1  0.40031034  0.20393588  0.20461600  1
  Rh  Rh222  1  -0.01837537  0.00437704  0.58977220  1
  Rh  Rh223  1  0.20554003  0.79870146  0.58926208  1
  Rh  Rh224  1  0.59368359  0.78635472  0.59454398  1
  Rh  Rh225  1  0.79812102  0.59271691  0.60262705  1
  Rh  Rh226  1  0.39388358  0.59129947  0.19967202  1
  Rh  Rh227  1  0.39609290  0.40597020  0.59435120  1
  Rh  Rh228  1  -0.00876302  0.59268046  0.39977443  1
  Rh  Rh229  1  0.59070961  0.40452803  -0.00113632  1
  Rh  Rh230  1  0.80516999  0.40079479  0.39387564  1
  Rh  Rh231  1  0.21149883  0.00169644  0.60377580  1
  Rh  Rh232  1  0.40486021  0.40292439  0.40420775  1
  Rh  Rh233  1  -0.01025362  0.19640617  0.40364910  1
  Rh  Rh234  1  -0.00878204  0.40769644  0.00157534  1
  Rh  Rh235  1  0.79547660  0.80069562  0.19569687  1
  Rh  Rh236  1  0.79052637  0.40095792  0.81036344  1
  Rh  Rh237  1  0.00365130  0.40126901  0.80508373  1
  Rh  Rh238  1  0.20215820  0.59075369  0.61026248  1
  Rh  Rh239  1  0.39244480  0.60615130  0.80719548  1
  Rh  Rh240  1  0.40311950  0.19659068  0.60736279  1
  Rh  Rh241  1  0.20624656  0.60708946  0.38712464  1
  Rh  Rh242  1  0.60626371  0.39972285  0.61388772  1
  Rh  Rh243  1  0.59814711  0.00752630  -0.00601418  1
  Rh  Rh244  1  0.00053656  0.80816003  0.00519565  1
  Rh  Rh245  1  0.80555766  0.80862950  0.61091481  1
  Rh  Rh246  1  0.79253685  0.59877739  0.80613647  1
  Rh  Rh247  1  0.40444100  0.79752221  0.60397493  1
  Rh  Rh248  1  0.41095558  0.20265018  0.79592379  1
  Rh  Rh249  1  0.59904088  0.59838985  0.19832980  1
