# generated using pymatgen
data_ZrScNbPdRh
_symmetry_space_group_name_H-M   'P 1'
_cell_length_a   16.56243638
_cell_length_b   16.55966746
_cell_length_c   16.55656561
_cell_angle_alpha   90.01221105
_cell_angle_beta   90.00305140
_cell_angle_gamma   90.01449797
_symmetry_Int_Tables_number   1
_chemical_formula_structural   ZrScNbPdRh
_chemical_formula_sum   'Zr50 Sc50 Nb50 Pd50 Rh50'
_cell_volume   4540.94314599
_cell_formula_units_Z   50
loop_
 _symmetry_equiv_pos_site_id
 _symmetry_equiv_pos_as_xyz
  1  'x, y, z'
loop_
 _atom_site_type_symbol
 _atom_site_label
 _atom_site_symmetry_multiplicity
 _atom_site_fract_x
 _atom_site_fract_y
 _atom_site_fract_z
 _atom_site_occupancy
  Zr  Zr0  1  0.69414911  0.70257328  0.50693275  1
  Zr  Zr1  1  0.10158281  0.90054558  0.50359909  1
  Zr  Zr2  1  0.90598766  0.10379506  0.70708666  1
  Zr  Zr3  1  0.70550372  0.69585905  0.11194839  1
  Zr  Zr4  1  0.30282749  0.50534228  0.09734387  1
  Zr  Zr5  1  0.10586627  0.90214075  0.09505993  1
  Zr  Zr6  1  0.10108707  0.49957170  0.49799598  1
  Zr  Zr7  1  0.68895655  0.10640855  0.71289925  1
  Zr  Zr8  1  0.30099941  0.69571026  0.90150436  1
  Zr  Zr9  1  0.90103511  0.89692340  0.71276109  1
  Zr  Zr10  1  0.29727865  0.30147964  0.70779123  1
  Zr  Zr11  1  0.30106892  0.50128477  0.89747006  1
  Zr  Zr12  1  0.29879654  0.69824108  0.50549584  1
  Zr  Zr13  1  0.90571679  0.69749233  0.50232391  1
  Zr  Zr14  1  0.90457265  0.70630197  0.29132491  1
  Zr  Zr15  1  0.09987676  0.50031187  0.29861681  1
  Zr  Zr16  1  0.90622536  0.29551013  0.89565542  1
  Zr  Zr17  1  0.29672845  0.69866523  0.29758754  1
  Zr  Zr18  1  0.68984277  0.88791708  0.70319597  1
  Zr  Zr19  1  0.10020191  0.31177126  0.90603738  1
  Zr  Zr20  1  0.30001254  0.49514740  0.69508135  1
  Zr  Zr21  1  0.69873173  0.90239276  0.29780780  1
  Zr  Zr22  1  0.89641256  0.29513050  0.29855217  1
  Zr  Zr23  1  0.69378856  0.09567763  0.09772601  1
  Zr  Zr24  1  0.89517185  0.09850380  0.30133017  1
  Zr  Zr25  1  0.09487822  0.29896622  0.71091872  1
  Zr  Zr26  1  0.09492725  0.89656826  0.89785578  1
  Zr  Zr27  1  0.49892146  0.91372904  0.10346697  1
  Zr  Zr28  1  0.49519314  0.50055718  0.30620899  1
  Zr  Zr29  1  0.49664222  0.10369233  0.09840830  1
  Zr  Zr30  1  0.89575803  0.09581765  0.10150776  1
  Zr  Zr31  1  0.29842795  0.90845230  0.89824649  1
  Zr  Zr32  1  0.30419308  0.09850103  0.70563425  1
  Zr  Zr33  1  0.29762157  0.89792584  0.70695458  1
  Zr  Zr34  1  0.29751013  0.70232147  0.09984012  1
  Zr  Zr35  1  0.10042688  0.69831738  0.29634991  1
  Zr  Zr36  1  0.49341078  0.50075380  0.49757018  1
  Zr  Zr37  1  0.71045597  0.50445250  0.08896620  1
  Zr  Zr38  1  0.49979172  0.91027981  0.50367207  1
  Zr  Zr39  1  0.51040267  0.70201321  0.30562253  1
  Zr  Zr40  1  0.09104588  0.09266786  0.69895722  1
  Zr  Zr41  1  0.09437791  0.09954920  0.49548850  1
  Zr  Zr42  1  0.69782276  0.30519690  0.50671578  1
  Zr  Zr43  1  0.09829511  0.49957537  0.70914801  1
  Zr  Zr44  1  0.69416168  0.50398611  0.49737323  1
  Zr  Zr45  1  0.50528259  0.71463791  0.70828718  1
  Zr  Zr46  1  0.50042332  0.90163377  0.30757976  1
  Zr  Zr47  1  0.90773277  0.10372999  0.50687626  1
  Zr  Zr48  1  0.09737105  0.89617328  0.29524400  1
  Zr  Zr49  1  0.09673932  0.70024869  0.70861886  1
  Sc  Sc50  1  0.30145716  0.29741432  0.89512701  1
  Sc  Sc51  1  0.10852080  0.48406622  0.09739272  1
  Sc  Sc52  1  0.89659483  0.71120481  0.09611885  1
  Sc  Sc53  1  0.29565025  0.70050115  0.70416622  1
  Sc  Sc54  1  0.30254583  0.91012053  0.29918552  1
  Sc  Sc55  1  0.51054965  0.69875892  0.09548593  1
  Sc  Sc56  1  0.10088786  0.29666117  0.29440325  1
  Sc  Sc57  1  0.90320086  0.71362067  0.89312808  1
  Sc  Sc58  1  0.69979964  0.29606471  0.10443079  1
  Sc  Sc59  1  0.90116570  0.49136642  0.29757240  1
  Sc  Sc60  1  0.69124629  0.10548450  0.49802029  1
  Sc  Sc61  1  0.70601799  0.10337395  0.29531733  1
  Sc  Sc62  1  0.29509516  0.09908517  0.29339109  1
  Sc  Sc63  1  0.30279631  0.09091813  0.09982218  1
  Sc  Sc64  1  0.90131649  0.30195425  0.49136782  1
  Sc  Sc65  1  0.49927775  0.28992078  0.69698309  1
  Sc  Sc66  1  0.70502709  0.50312829  0.28491988  1
  Sc  Sc67  1  0.49358454  0.29395201  0.89792183  1
  Sc  Sc68  1  0.69550949  0.70659578  0.91221334  1
  Sc  Sc69  1  0.89866077  0.49516610  0.90474966  1
  Sc  Sc70  1  0.69774098  0.49694398  0.68058216  1
  Sc  Sc71  1  0.90758957  0.50261739  0.49591768  1
  Sc  Sc72  1  0.49982585  0.29517469  0.09909600  1
  Sc  Sc73  1  0.10854586  0.70972135  0.10330811  1
  Sc  Sc74  1  0.90521763  0.50739739  0.69815431  1
  Sc  Sc75  1  0.50167296  0.69694782  0.49325360  1
  Sc  Sc76  1  0.90300051  0.90721254  0.49899353  1
  Sc  Sc77  1  0.69496101  0.90171035  0.50276583  1
  Sc  Sc78  1  0.50148119  0.49826386  0.09926558  1
  Sc  Sc79  1  0.50529145  0.10064122  0.89580474  1
  Sc  Sc80  1  0.09883680  0.69162368  0.50021673  1
  Sc  Sc81  1  0.49521979  0.69843721  0.89939995  1
  Sc  Sc82  1  0.10221524  0.09263541  0.90577622  1
  Sc  Sc83  1  0.30088581  0.29622493  0.10373372  1
  Sc  Sc84  1  0.90508629  0.29939427  0.09950500  1
  Sc  Sc85  1  0.09456955  0.29518954  0.48961202  1
  Sc  Sc86  1  0.69369267  0.28449818  0.89502473  1
  Sc  Sc87  1  0.30576826  0.90499858  0.49771553  1
  Sc  Sc88  1  0.48978988  0.49693543  0.69695682  1
  Sc  Sc89  1  0.89699138  0.70138962  0.70253121  1
  Sc  Sc90  1  0.30252584  0.09613659  0.49685337  1
  Sc  Sc91  1  0.49903837  0.30226608  0.28885565  1
  Sc  Sc92  1  0.29535772  0.31121167  0.49795722  1
  Sc  Sc93  1  0.70371847  0.90087703  0.09623890  1
  Sc  Sc94  1  0.10690983  0.10407222  0.10085792  1
  Sc  Sc95  1  0.30403120  0.09841690  0.89972141  1
  Sc  Sc96  1  0.50185409  0.09746566  0.29411011  1
  Sc  Sc97  1  0.50602207  0.29538647  0.50475613  1
  Sc  Sc98  1  0.48659758  0.50259677  0.89784414  1
  Sc  Sc99  1  0.29998366  0.49202534  0.30774571  1
  Nb  Nb100  1  0.70174417  0.70158183  0.70093116  1
  Nb  Nb101  1  0.90240617  0.29839303  0.70278290  1
  Nb  Nb102  1  0.09719280  0.69323449  0.89913367  1
  Nb  Nb103  1  0.90535898  0.90112082  0.09796829  1
  Nb  Nb104  1  0.70263238  0.30114642  0.30619493  1
  Nb  Nb105  1  0.49763598  0.90509422  0.70481488  1
  Nb  Nb106  1  0.70239091  0.49668129  0.89830981  1
  Nb  Nb107  1  0.89441970  0.50792659  0.09954204  1
  Nb  Nb108  1  0.89720384  0.89911887  0.29186529  1
  Nb  Nb109  1  0.89864189  0.08912358  0.90355559  1
  Nb  Nb110  1  0.30563739  0.50115982  0.50145217  1
  Nb  Nb111  1  0.69867763  0.30233575  0.69735897  1
  Nb  Nb112  1  0.10207619  0.29660132  0.09486422  1
  Nb  Nb113  1  0.09940382  0.09593595  0.29857763  1
  Nb  Nb114  1  0.09659365  0.50391450  0.89761172  1
  Nb  Nb115  1  0.10545452  0.89623217  0.70244270  1
  Nb  Nb116  1  0.49966385  0.89476597  0.88619511  1
  Nb  Nb117  1  0.49311771  0.10130496  0.50809846  1
  Nb  Nb118  1  0.69933058  0.09605230  0.90336660  1
  Nb  Nb119  1  0.70160529  0.70440422  0.30281090  1
  Nb  Nb120  1  0.31022789  0.29533363  0.30386301  1
  Nb  Nb121  1  0.49461250  0.09471335  0.69221275  1
  Nb  Nb122  1  0.69867653  0.90616537  0.89716177  1
  Nb  Nb123  1  0.30238472  0.90286836  0.09925932  1
  Nb  Nb124  1  0.89977013  0.90411523  0.91204924  1
  Nb  Nb125  1  0.79642323  -0.00058536  0.80774446  1
  Nb  Nb126  1  0.79431291  0.39752883  0.79431471  1
  Nb  Nb127  1  0.60451567  0.40121170  -0.00900247  1
  Nb  Nb128  1  0.80087081  0.20274250  0.60936324  1
  Nb  Nb129  1  0.79899178  0.00694982  0.61228846  1
  Nb  Nb130  1  0.80084685  0.79939842  0.39610811  1
  Nb  Nb131  1  0.60786948  0.59591743  0.79771821  1
  Nb  Nb132  1  0.00245972  0.39651656  0.60535216  1
  Nb  Nb133  1  0.40288972  0.80632597  0.60379487  1
  Nb  Nb134  1  0.19897078  0.79936247  0.39915901  1
  Nb  Nb135  1  0.78823706  0.59812807  0.79942024  1
  Nb  Nb136  1  0.40103297  0.80049625  0.19620501  1
  Nb  Nb137  1  0.00372280  0.59989363  0.00155426  1
  Nb  Nb138  1  0.40135396  0.20151112  0.39851243  1
  Nb  Nb139  1  -0.00061815  0.59536170  0.18799142  1
  Nb  Nb140  1  0.60482189  0.39795625  0.39388963  1
  Nb  Nb141  1  0.60480378  0.40259558  0.79893247  1
  Nb  Nb142  1  0.39959334  0.80933150  0.00258594  1
  Nb  Nb143  1  0.80100136  0.18900646  -0.00575318  1
  Nb  Nb144  1  0.19576065  0.19653181  0.60262650  1
  Nb  Nb145  1  0.79805477  0.60940771  0.39557060  1
  Nb  Nb146  1  0.00517413  0.80159761  0.60630675  1
  Nb  Nb147  1  0.19740730  0.00215507  0.60542060  1
  Nb  Nb148  1  0.40005166  0.60560607  0.20259347  1
  Nb  Nb149  1  -0.00204025  -0.00265252  0.20106184  1
  Pd  Pd150  1  0.59282074  0.80889556  -0.00088326  1
  Pd  Pd151  1  0.18924696  0.59828694  0.00545875  1
  Pd  Pd152  1  0.18955825  0.39208462  0.59832047  1
  Pd  Pd153  1  0.20663554  0.39337053  0.20370792  1
  Pd  Pd154  1  0.00010053  0.80192732  0.40719405  1
  Pd  Pd155  1  0.79689256  -0.00241702  0.40969109  1
  Pd  Pd156  1  0.39401731  0.79846741  0.40199391  1
  Pd  Pd157  1  0.40335465  0.38930192  0.59752672  1
  Pd  Pd158  1  -0.00089292  0.40093746  0.19228160  1
  Pd  Pd159  1  0.60269770  0.19969526  0.20459193  1
  Pd  Pd160  1  0.19585752  0.59820505  0.60438695  1
  Pd  Pd161  1  0.81095795  0.61168771  -0.01241329  1
  Pd  Pd162  1  0.19705446  0.39578131  0.39534155  1
  Pd  Pd163  1  0.59587384  0.59422931  0.20131116  1
  Pd  Pd164  1  0.81400886  0.39891583  0.60184132  1
  Pd  Pd165  1  0.80850617  0.80915064  0.59414525  1
  Pd  Pd166  1  0.00990544  0.19249075  0.81514004  1
  Pd  Pd167  1  0.79518676  0.41029282  0.39903899  1
  Pd  Pd168  1  0.21051949  0.39665385  -0.00366963  1
  Pd  Pd169  1  0.60685526  0.00527696  0.60424642  1
  Pd  Pd170  1  0.79930881  0.19674401  0.41037277  1
  Pd  Pd171  1  0.39433565  0.19782014  0.00020500  1
  Pd  Pd172  1  0.80431805  0.59871066  0.59913499  1
  Pd  Pd173  1  0.59960724  0.00936285  0.39862731  1
  Pd  Pd174  1  0.40471978  0.39404664  0.00007079  1
  Pd  Pd175  1  0.59342628  0.59152914  -0.00979168  1
  Pd  Pd176  1  -0.00389730  0.40642624  0.00688409  1
  Pd  Pd177  1  0.40528869  0.61244367  0.60694320  1
  Pd  Pd178  1  0.20123632  -0.00431633  0.40245585  1
  Pd  Pd179  1  0.80091792  0.39379125  0.19376378  1
  Pd  Pd180  1  0.20531297  0.60029316  0.40190271  1
  Pd  Pd181  1  0.00344862  0.19430665  0.19997754  1
  Pd  Pd182  1  0.20382804  0.80186051  -0.00862468  1
  Pd  Pd183  1  -0.00286416  -0.00218936  0.39197446  1
  Pd  Pd184  1  0.39677819  0.40470408  0.19588187  1
  Pd  Pd185  1  0.80073200  0.19925414  0.80228382  1
  Pd  Pd186  1  0.19288545  0.19275921  0.80317905  1
  Pd  Pd187  1  0.20313791  0.20194372  0.19940580  1
  Pd  Pd188  1  -0.00158523  0.19310210  -0.00128126  1
  Pd  Pd189  1  0.79777316  0.80222632  -0.00037013  1
  Pd  Pd190  1  0.59227209  -0.00328118  -0.00674652  1
  Pd  Pd191  1  0.38718281  0.20556642  0.59231687  1
  Pd  Pd192  1  0.20672589  0.19901642  -0.00045323  1
  Pd  Pd193  1  0.79474058  0.38227215  -0.00775752  1
  Pd  Pd194  1  0.60502263  0.40245640  0.19527282  1
  Pd  Pd195  1  0.20499418  0.59786688  0.79744539  1
  Pd  Pd196  1  0.59152192  0.20468583  0.39300941  1
  Pd  Pd197  1  0.20744146  0.19970965  0.40169714  1
  Pd  Pd198  1  0.58788657  0.60189290  0.60891136  1
  Pd  Pd199  1  0.59658076  0.80551854  0.19455498  1
  Rh  Rh200  1  -0.00848563  0.59574253  0.38402022  1
  Rh  Rh201  1  0.20315198  0.40488394  0.80847189  1
  Rh  Rh202  1  0.40575222  -0.00326212  -0.00981377  1
  Rh  Rh203  1  0.40531988  0.01516241  0.39604833  1
  Rh  Rh204  1  -0.01271061  0.59734795  0.81235245  1
  Rh  Rh205  1  0.19567857  0.00310907  0.79801550  1
  Rh  Rh206  1  -0.00067594  0.21487208  0.59697678  1
  Rh  Rh207  1  0.79092962  0.80041956  0.80889887  1
  Rh  Rh208  1  0.58748943  0.80070658  0.59409217  1
  Rh  Rh209  1  0.39248042  -0.00587675  0.60617535  1
  Rh  Rh210  1  0.40009643  -0.00012182  0.20418340  1
  Rh  Rh211  1  0.59043011  0.40101016  0.59882396  1
  Rh  Rh212  1  0.59729672  -0.00065102  0.79962425  1
  Rh  Rh213  1  0.00625307  0.60037321  0.60429945  1
  Rh  Rh214  1  0.39743421  0.19551397  0.20383087  1
  Rh  Rh215  1  -0.01075764  0.40847928  0.79694026  1
  Rh  Rh216  1  0.19784290  0.58714634  0.19526081  1
  Rh  Rh217  1  0.40410385  0.60270621  0.79250133  1
  Rh  Rh218  1  0.00343191  0.80277532  0.80028915  1
  Rh  Rh219  1  0.00434877  0.79472742  0.00034366  1
  Rh  Rh220  1  0.19852638  0.79574131  0.81055554  1
  Rh  Rh221  1  -0.00188087  -0.00583806  0.80619586  1
  Rh  Rh222  1  0.40888809  0.38997651  0.40671300  1
  Rh  Rh223  1  0.40600890  0.60950878  0.00963001  1
  Rh  Rh224  1  0.39204790  0.60081284  0.39606891  1
  Rh  Rh225  1  0.60689272  0.80551632  0.40690137  1
  Rh  Rh226  1  0.60993051  0.59103188  0.39020015  1
  Rh  Rh227  1  0.19300990  -0.00006794  0.19716293  1
  Rh  Rh228  1  0.39256472  0.79910878  0.80226415  1
  Rh  Rh229  1  -0.00140423  0.19912369  0.38800329  1
  Rh  Rh230  1  0.79730264  0.20433955  0.19479863  1
  Rh  Rh231  1  0.00361291  0.39874701  0.40255006  1
  Rh  Rh232  1  0.80939339  0.60386254  0.20576980  1
  Rh  Rh233  1  -0.00133048  -0.01388382  0.60775674  1
  Rh  Rh234  1  0.58955045  0.20398820  0.79684614  1
  Rh  Rh235  1  0.79754713  -0.00077895  -0.00107232  1
  Rh  Rh236  1  0.40493392  0.19528402  0.79833731  1
  Rh  Rh237  1  0.60654585  0.79239383  0.81126290  1
  Rh  Rh238  1  0.60395791  0.20496064  0.00194871  1
  Rh  Rh239  1  0.20209032  0.00206192  0.00063217  1
  Rh  Rh240  1  0.40840003  0.00515817  0.80235258  1
  Rh  Rh241  1  0.20267972  0.80617992  0.59219929  1
  Rh  Rh242  1  0.00451376  0.00149409  0.00832366  1
  Rh  Rh243  1  0.60408828  0.19475764  0.60349148  1
  Rh  Rh244  1  0.60469012  0.00154788  0.20267608  1
  Rh  Rh245  1  0.00028592  0.80215054  0.18770031  1
  Rh  Rh246  1  0.80261351  -0.00593757  0.19391594  1
  Rh  Rh247  1  0.40433960  0.39603144  0.79656681  1
  Rh  Rh248  1  0.21125096  0.81272511  0.20899571  1
  Rh  Rh249  1  0.79637732  0.80734922  0.20032724  1
