# generated using pymatgen
data_ZrScNbPdRh
_symmetry_space_group_name_H-M   'P 1'
_cell_length_a   16.55090144
_cell_length_b   16.55542126
_cell_length_c   16.55555610
_cell_angle_alpha   90.02747285
_cell_angle_beta   89.99752454
_cell_angle_gamma   89.97910000
_symmetry_Int_Tables_number   1
_chemical_formula_structural   ZrScNbPdRh
_chemical_formula_sum   'Zr50 Sc50 Nb50 Pd50 Rh50'
_cell_volume   4536.33984381
_cell_formula_units_Z   50
loop_
 _symmetry_equiv_pos_site_id
 _symmetry_equiv_pos_as_xyz
  1  'x, y, z'
loop_
 _atom_site_type_symbol
 _atom_site_label
 _atom_site_symmetry_multiplicity
 _atom_site_fract_x
 _atom_site_fract_y
 _atom_site_fract_z
 _atom_site_occupancy
  Zr  Zr0  1  0.70207413  0.30647527  0.30279119  1
  Zr  Zr1  1  0.89273739  0.09046699  0.30079884  1
  Zr  Zr2  1  0.89932536  0.10714118  0.88857742  1
  Zr  Zr3  1  0.50055118  0.89744403  0.49658851  1
  Zr  Zr4  1  0.50860368  0.29241081  0.89494505  1
  Zr  Zr5  1  0.70135278  0.69952991  0.50116336  1
  Zr  Zr6  1  0.30370606  0.70180859  0.70059538  1
  Zr  Zr7  1  0.29951220  0.49924563  0.89870763  1
  Zr  Zr8  1  0.90729583  0.71113639  0.90107900  1
  Zr  Zr9  1  0.10085855  0.30090778  0.09507201  1
  Zr  Zr10  1  0.09219943  0.29531277  0.49954695  1
  Zr  Zr11  1  0.70516731  0.50640509  0.70493322  1
  Zr  Zr12  1  0.50305360  0.10153911  0.89412039  1
  Zr  Zr13  1  0.49522896  0.69644674  0.89990669  1
  Zr  Zr14  1  0.50337123  0.50029777  0.90148688  1
  Zr  Zr15  1  0.89599275  0.10314760  0.49655746  1
  Zr  Zr16  1  0.69776824  0.30347331  0.69223386  1
  Zr  Zr17  1  0.91244381  0.28645138  0.30706230  1
  Zr  Zr18  1  0.89624409  0.50319070  0.89886240  1
  Zr  Zr19  1  0.70055542  0.29833910  0.50179380  1
  Zr  Zr20  1  0.10241453  0.70262399  0.09840617  1
  Zr  Zr21  1  0.50510382  0.70247505  0.50010555  1
  Zr  Zr22  1  0.29734438  0.30045024  0.51053662  1
  Zr  Zr23  1  0.10319223  0.69348659  0.29748262  1
  Zr  Zr24  1  0.50431128  0.70101716  0.29781994  1
  Zr  Zr25  1  0.90389488  0.10008191  0.10751774  1
  Zr  Zr26  1  0.89858671  0.51138925  0.70099732  1
  Zr  Zr27  1  0.89774928  0.50068154  0.09694368  1
  Zr  Zr28  1  0.69538302  0.89848784  0.09565381  1
  Zr  Zr29  1  0.29138719  0.90029943  0.49278499  1
  Zr  Zr30  1  0.49786541  0.90617125  0.10578846  1
  Zr  Zr31  1  0.89625727  0.70008532  0.30745851  1
  Zr  Zr32  1  0.29904532  0.31253046  0.29742841  1
  Zr  Zr33  1  0.50135737  0.29317532  0.52075567  1
  Zr  Zr34  1  0.30951437  0.49585198  0.29819500  1
  Zr  Zr35  1  0.69636725  0.90133647  0.51813481  1
  Zr  Zr36  1  0.29651975  0.30322176  0.09500613  1
  Zr  Zr37  1  0.10510933  0.89765613  0.50278671  1
  Zr  Zr38  1  0.09985513  0.29707721  0.90223785  1
  Zr  Zr39  1  0.70265790  0.89679050  0.70918632  1
  Zr  Zr40  1  0.29698311  0.89906313  0.69677890  1
  Zr  Zr41  1  0.28936621  0.70021160  0.89997272  1
  Zr  Zr42  1  0.10847743  0.70368386  0.49676609  1
  Zr  Zr43  1  0.11311090  0.49875555  0.30245170  1
  Zr  Zr44  1  0.49936098  0.11161992  0.69693258  1
  Zr  Zr45  1  0.30093276  0.70194490  0.09797771  1
  Zr  Zr46  1  0.49638842  0.31351289  0.30070876  1
  Zr  Zr47  1  0.70828847  0.90499171  0.29038789  1
  Zr  Zr48  1  0.10614752  0.29761863  0.69421090  1
  Zr  Zr49  1  0.29711591  0.69577523  0.29815131  1
  Sc  Sc50  1  0.10157066  0.10197440  0.89150696  1
  Sc  Sc51  1  0.69836857  0.10364910  0.09893145  1
  Sc  Sc52  1  0.09935651  0.49347345  0.50875266  1
  Sc  Sc53  1  0.29299706  0.09662471  0.50033704  1
  Sc  Sc54  1  0.50791966  0.90096222  0.69886351  1
  Sc  Sc55  1  0.69744858  0.69840951  0.30589574  1
  Sc  Sc56  1  0.09567947  0.90801647  0.69470557  1
  Sc  Sc57  1  0.49959469  0.50514349  0.09832999  1
  Sc  Sc58  1  0.08947533  0.09937472  0.28979366  1
  Sc  Sc59  1  0.30076282  0.50130605  0.50328362  1
  Sc  Sc60  1  0.50065094  0.69936192  0.10533907  1
  Sc  Sc61  1  0.09783523  0.09896267  0.69912431  1
  Sc  Sc62  1  0.29289910  0.30705680  0.89811877  1
  Sc  Sc63  1  0.69690089  0.70750485  0.89779588  1
  Sc  Sc64  1  0.30453423  0.49720120  0.09717027  1
  Sc  Sc65  1  0.10848906  0.50119372  0.89615945  1
  Sc  Sc66  1  0.29713936  0.09342808  0.89821642  1
  Sc  Sc67  1  0.50812771  0.30846030  0.09376499  1
  Sc  Sc68  1  0.89621181  0.70057396  0.50700582  1
  Sc  Sc69  1  0.50728157  0.50478084  0.50528719  1
  Sc  Sc70  1  0.90167877  0.89372998  0.50902464  1
  Sc  Sc71  1  0.69957981  0.08761955  0.69559520  1
  Sc  Sc72  1  0.49986572  0.50146356  0.69688122  1
  Sc  Sc73  1  0.50294216  0.69965065  0.69820395  1
  Sc  Sc74  1  0.29539793  0.08501650  0.09330647  1
  Sc  Sc75  1  0.09222919  0.69784243  0.71363438  1
  Sc  Sc76  1  0.09449366  0.89044852  0.89453825  1
  Sc  Sc77  1  0.69969518  0.50568398  0.90020000  1
  Sc  Sc78  1  0.70494261  0.49969856  0.50248574  1
  Sc  Sc79  1  0.69982781  0.49539814  0.09386644  1
  Sc  Sc80  1  0.69713347  0.49986861  0.30965778  1
  Sc  Sc81  1  0.29230293  0.10498829  0.70049516  1
  Sc  Sc82  1  0.89808713  0.49774165  0.30205671  1
  Sc  Sc83  1  0.29744162  0.90304852  0.89240118  1
  Sc  Sc84  1  0.10405903  0.09904779  0.09449530  1
  Sc  Sc85  1  0.89724718  0.90465480  0.70382811  1
  Sc  Sc86  1  0.30345057  0.70527901  0.50440390  1
  Sc  Sc87  1  0.29390159  0.08681289  0.30178269  1
  Sc  Sc88  1  0.89663900  0.29054912  0.69760597  1
  Sc  Sc89  1  0.49499309  0.90322447  0.88957118  1
  Sc  Sc90  1  0.10787933  0.89869931  0.09681675  1
  Sc  Sc91  1  0.49506066  0.08827958  0.29606466  1
  Sc  Sc92  1  0.69472071  0.70701974  0.10035207  1
  Sc  Sc93  1  0.89251242  0.89557624  0.10429925  1
  Sc  Sc94  1  0.09648244  0.49974066  0.70521566  1
  Sc  Sc95  1  0.90233947  0.29799995  0.50110672  1
  Sc  Sc96  1  0.90721267  0.09393600  0.69647708  1
  Sc  Sc97  1  0.90064549  0.30147805  0.09077409  1
  Sc  Sc98  1  0.69887282  0.30366761  0.09220355  1
  Sc  Sc99  1  0.10140905  0.09400775  0.50677099  1
  Nb  Nb100  1  0.90227077  0.90013368  0.29760866  1
  Nb  Nb101  1  0.49904661  0.50534654  0.30095708  1
  Nb  Nb102  1  0.89269768  0.69120155  0.70888963  1
  Nb  Nb103  1  0.49818032  0.10159310  0.09603351  1
  Nb  Nb104  1  0.49880768  0.89837555  0.30059436  1
  Nb  Nb105  1  0.09067634  0.50290821  0.10678736  1
  Nb  Nb106  1  0.49824402  0.29793200  0.70067935  1
  Nb  Nb107  1  0.69750731  0.09799703  0.49532799  1
  Nb  Nb108  1  0.29631808  0.90149449  0.29550573  1
  Nb  Nb109  1  0.10513111  0.89786543  0.30565041  1
  Nb  Nb110  1  0.90773218  0.69739732  0.10462721  1
  Nb  Nb111  1  0.49995548  0.10092071  0.50061182  1
  Nb  Nb112  1  0.70354238  0.90643140  0.89667665  1
  Nb  Nb113  1  0.10145193  0.29922427  0.29918250  1
  Nb  Nb114  1  0.90348526  0.50967404  0.50170127  1
  Nb  Nb115  1  0.29360030  0.49796683  0.70450629  1
  Nb  Nb116  1  0.89979060  0.29699926  0.89418882  1
  Nb  Nb117  1  0.70007757  0.28535988  0.89572792  1
  Nb  Nb118  1  0.30661758  0.30723167  0.69632913  1
  Nb  Nb119  1  0.09803754  0.70066269  0.90703499  1
  Nb  Nb120  1  0.69599281  0.10352461  0.89855748  1
  Nb  Nb121  1  0.30008860  0.90053759  0.09579351  1
  Nb  Nb122  1  0.89481010  0.90386576  0.89941841  1
  Nb  Nb123  1  0.70621122  0.69753908  0.70494449  1
  Nb  Nb124  1  0.70423509  0.10177261  0.30663042  1
  Nb  Nb125  1  -0.00001586  0.80024974  0.20713278  1
  Nb  Nb126  1  0.40487282  0.60055487  0.39715582  1
  Nb  Nb127  1  0.80367850  0.60054601  0.19742256  1
  Nb  Nb128  1  0.00217099  0.59866382  0.40261830  1
  Nb  Nb129  1  0.59532585  0.19473090  0.39836225  1
  Nb  Nb130  1  0.60197150  0.00102157  0.39918220  1
  Nb  Nb131  1  0.39382678  0.59678344  0.80070498  1
  Nb  Nb132  1  0.40268044  0.00187316  0.59535336  1
  Nb  Nb133  1  0.60174033  0.00288247  -0.00632808  1
  Nb  Nb134  1  -0.00652034  0.39378109  0.80441214  1
  Nb  Nb135  1  0.59772420  0.19869363  0.20695459  1
  Nb  Nb136  1  0.00314224  0.60520394  0.00079344  1
  Nb  Nb137  1  0.20446140  0.20376231  0.20237753  1
  Nb  Nb138  1  0.40228403  0.19615619  0.00286935  1
  Nb  Nb139  1  0.19928704  0.20452944  0.39265631  1
  Nb  Nb140  1  0.39944954  0.20085909  0.39820142  1
  Nb  Nb141  1  0.60190487  0.39212514  0.79738911  1
  Nb  Nb142  1  -0.00232755  -0.00982879  0.39488170  1
  Nb  Nb143  1  0.39546985  0.80592109  0.00230978  1
  Nb  Nb144  1  0.40011780  0.19924571  0.19795788  1
  Nb  Nb145  1  -0.00977418  -0.00493667  -0.00620799  1
  Nb  Nb146  1  0.00503349  0.39962912  0.20207283  1
  Nb  Nb147  1  0.20228441  0.60124775  0.60797394  1
  Nb  Nb148  1  0.79761201  0.00228056  -0.00784404  1
  Nb  Nb149  1  0.79572030  0.20117092  0.20683494  1
  Pd  Pd150  1  0.80985012  0.40493434  0.59696374  1
  Pd  Pd151  1  0.80382266  0.79533991  0.61142604  1
  Pd  Pd152  1  0.80185277  0.80059222  0.00052061  1
  Pd  Pd153  1  0.61128399  0.59425163  0.19799940  1
  Pd  Pd154  1  0.00442628  0.40869134  -0.00489277  1
  Pd  Pd155  1  0.40691620  0.40291916  0.79853033  1
  Pd  Pd156  1  0.60443771  0.00657715  0.20019863  1
  Pd  Pd157  1  0.80134280  0.19689480  0.00618986  1
  Pd  Pd158  1  0.40851596  0.40316246  0.41670969  1
  Pd  Pd159  1  0.79329942  0.39286952  -0.01244636  1
  Pd  Pd160  1  0.58737584  0.80859386  -0.00638225  1
  Pd  Pd161  1  0.19505920  0.59168315  0.00730686  1
  Pd  Pd162  1  0.39449110  0.79457570  0.39469784  1
  Pd  Pd163  1  0.19698677  0.80531755  0.20130443  1
  Pd  Pd164  1  0.40425404  0.39282457  -0.00268619  1
  Pd  Pd165  1  0.18760698  -0.00650758  -0.01313191  1
  Pd  Pd166  1  0.00881300  0.60860566  0.59596936  1
  Pd  Pd167  1  0.00032674  0.79864244  0.39870016  1
  Pd  Pd168  1  0.39901035  0.80281396  0.19847426  1
  Pd  Pd169  1  0.79768554  0.39566736  0.80467328  1
  Pd  Pd170  1  0.59396092  0.39830078  0.41188538  1
  Pd  Pd171  1  0.80821913  0.39793770  0.20135655  1
  Pd  Pd172  1  0.40459012  0.80863218  0.60182390  1
  Pd  Pd173  1  0.79419510  0.19266455  0.78654379  1
  Pd  Pd174  1  0.20893882  0.59189249  0.19022397  1
  Pd  Pd175  1  0.40193356  0.00271677  0.40382954  1
  Pd  Pd176  1  -0.00035816  0.79261409  0.61115600  1
  Pd  Pd177  1  0.40267754  0.40945136  0.60077466  1
  Pd  Pd178  1  0.19852700  0.39828360  0.41128824  1
  Pd  Pd179  1  -0.00032817  0.19042863  -0.00154306  1
  Pd  Pd180  1  -0.00101352  0.40845779  0.39691112  1
  Pd  Pd181  1  0.20507961  0.20426737  0.79901108  1
  Pd  Pd182  1  0.61012031  0.80998121  0.39402701  1
  Pd  Pd183  1  0.80031617  0.61293808  0.00303212  1
  Pd  Pd184  1  -0.00478570  0.80636047  0.79183787  1
  Pd  Pd185  1  0.60349828  0.60394317  0.00450112  1
  Pd  Pd186  1  0.81014505  0.39995071  0.40671293  1
  Pd  Pd187  1  0.38713467  0.20324274  0.80636666  1
  Pd  Pd188  1  0.59960647  0.40465524  0.19649291  1
  Pd  Pd189  1  -0.00900409  0.39918580  0.61178969  1
  Pd  Pd190  1  0.39273133  0.00247684  0.19881252  1
  Pd  Pd191  1  0.39873266  0.00291083  0.78721881  1
  Pd  Pd192  1  0.80096674  -0.01409778  0.41074963  1
  Pd  Pd193  1  0.60670780  0.60208972  0.60410016  1
  Pd  Pd194  1  0.19288346  0.80328251  0.79492586  1
  Pd  Pd195  1  0.80155033  0.79037623  0.19951992  1
  Pd  Pd196  1  0.59778532  0.79898380  0.80056563  1
  Pd  Pd197  1  0.79392054  0.80863801  0.40426056  1
  Pd  Pd198  1  0.79690092  0.19130378  0.60346243  1
  Pd  Pd199  1  0.00820581  -0.01287432  0.19491667  1
  Rh  Rh200  1  0.79981762  0.00570320  0.80135823  1
  Rh  Rh201  1  0.59550931  0.59577341  0.79771937  1
  Rh  Rh202  1  0.60176010  0.00263267  0.80179548  1
  Rh  Rh203  1  0.60418338  0.79213877  0.60928918  1
  Rh  Rh204  1  0.19869745  -0.00093136  0.20178383  1
  Rh  Rh205  1  0.01145407  0.18317942  0.40427895  1
  Rh  Rh206  1  0.80310445  0.00084420  0.59902784  1
  Rh  Rh207  1  0.20063644  0.19987202  0.59708682  1
  Rh  Rh208  1  0.00132274  0.20941156  0.19150615  1
  Rh  Rh209  1  0.41035814  0.40215687  0.18892351  1
  Rh  Rh210  1  0.19255102  0.39266268  0.79543733  1
  Rh  Rh211  1  0.79405956  0.20772800  0.39834590  1
  Rh  Rh212  1  -0.00024793  0.19493845  0.59866967  1
  Rh  Rh213  1  0.60077462  0.40601761  0.60739256  1
  Rh  Rh214  1  0.59530365  0.59872970  0.40176058  1
  Rh  Rh215  1  0.59912846  0.80276943  0.20585360  1
  Rh  Rh216  1  0.19395376  -0.00255481  0.79736790  1
  Rh  Rh217  1  -0.00760396  0.59809534  0.20469120  1
  Rh  Rh218  1  0.80265391  0.79694162  0.79991352  1
  Rh  Rh219  1  0.79342031  0.00719060  0.18918175  1
  Rh  Rh220  1  0.20679563  0.80808151  -0.00510298  1
  Rh  Rh221  1  0.00010188  0.59447831  0.81258729  1
  Rh  Rh222  1  0.40098980  0.79288835  0.80608426  1
  Rh  Rh223  1  0.19410185  0.40981136  0.00240871  1
  Rh  Rh224  1  0.79710375  0.60972736  0.81320006  1
  Rh  Rh225  1  0.60982977  0.19310535  0.60022688  1
  Rh  Rh226  1  0.21084926  0.19262158  0.00419462  1
  Rh  Rh227  1  0.20769591  0.79872827  0.39232199  1
  Rh  Rh228  1  0.60983237  0.20120939  0.78556768  1
  Rh  Rh229  1  0.18724507  0.00667853  0.39306212  1
  Rh  Rh230  1  0.59704093  0.19618737  0.00870401  1
  Rh  Rh231  1  0.39697809  0.60809314  -0.00365421  1
  Rh  Rh232  1  0.20177534  0.60401739  0.79482605  1
  Rh  Rh233  1  -0.00169028  0.80268435  0.00958568  1
  Rh  Rh234  1  0.20707849  0.00058719  0.60464358  1
  Rh  Rh235  1  0.19219401  0.79257915  0.60974756  1
  Rh  Rh236  1  0.38812865  0.19120354  0.59743682  1
  Rh  Rh237  1  0.00348811  0.20680831  0.79412562  1
  Rh  Rh238  1  0.79711561  0.60371910  0.59675183  1
  Rh  Rh239  1  0.40115867  0.59742820  0.20335667  1
  Rh  Rh240  1  0.19250131  0.40099766  0.18978065  1
  Rh  Rh241  1  0.40836322  -0.00204603  -0.00320140  1
  Rh  Rh242  1  0.00144117  -0.00128776  0.80655061  1
  Rh  Rh243  1  0.20386369  0.59677843  0.41374014  1
  Rh  Rh244  1  -0.00428389  0.00023342  0.59035003  1
  Rh  Rh245  1  0.80550216  0.59467242  0.39826975  1
  Rh  Rh246  1  0.19980634  0.40573441  0.60452234  1
  Rh  Rh247  1  0.60828165  0.39867922  -0.01494777  1
  Rh  Rh248  1  0.39167884  0.59716231  0.60230817  1
  Rh  Rh249  1  0.59195408  0.00372609  0.59640445  1
