# generated using pymatgen
data_ZrScNbPdRh
_symmetry_space_group_name_H-M   'P 1'
_cell_length_a   16.55497964
_cell_length_b   16.55726088
_cell_length_c   16.55517133
_cell_angle_alpha   90.04729065
_cell_angle_beta   89.98236240
_cell_angle_gamma   90.03416959
_symmetry_Int_Tables_number   1
_chemical_formula_structural   ZrScNbPdRh
_chemical_formula_sum   'Zr50 Sc50 Nb50 Pd50 Rh50'
_cell_volume   4537.85460340
_cell_formula_units_Z   50
loop_
 _symmetry_equiv_pos_site_id
 _symmetry_equiv_pos_as_xyz
  1  'x, y, z'
loop_
 _atom_site_type_symbol
 _atom_site_label
 _atom_site_symmetry_multiplicity
 _atom_site_fract_x
 _atom_site_fract_y
 _atom_site_fract_z
 _atom_site_occupancy
  Zr  Zr0  1  0.10779968  0.10165974  0.10852833  1
  Zr  Zr1  1  0.49689710  0.09578674  0.10260225  1
  Zr  Zr2  1  0.08833550  0.89028365  0.69072279  1
  Zr  Zr3  1  0.10340123  0.31156170  0.90021425  1
  Zr  Zr4  1  0.09936721  0.70298282  0.90821088  1
  Zr  Zr5  1  0.90194822  0.10569114  0.30153817  1
  Zr  Zr6  1  0.09825833  0.29860414  0.70540220  1
  Zr  Zr7  1  0.49938765  0.90531824  0.10118741  1
  Zr  Zr8  1  0.90351958  0.89691358  0.31164446  1
  Zr  Zr9  1  0.70728106  0.49942828  0.69723216  1
  Zr  Zr10  1  0.70016657  0.89904851  0.09122598  1
  Zr  Zr11  1  0.90261241  0.50948247  0.70148291  1
  Zr  Zr12  1  0.29808435  0.10143555  0.69720832  1
  Zr  Zr13  1  0.69174175  0.70931522  0.90485247  1
  Zr  Zr14  1  0.09835657  0.49794224  0.70641941  1
  Zr  Zr15  1  0.09980746  0.49070068  0.09578459  1
  Zr  Zr16  1  0.49500876  0.90294520  0.49814644  1
  Zr  Zr17  1  0.90072653  0.49737141  0.10741943  1
  Zr  Zr18  1  0.10564911  0.50526863  0.50646428  1
  Zr  Zr19  1  0.71228188  0.89991768  0.49785952  1
  Zr  Zr20  1  0.29829132  0.50347382  0.89984847  1
  Zr  Zr21  1  0.90647968  0.50177455  0.89808307  1
  Zr  Zr22  1  0.89118421  0.89758566  0.89661584  1
  Zr  Zr23  1  0.09451472  0.70221344  0.10715763  1
  Zr  Zr24  1  0.48341097  0.69864558  0.29656242  1
  Zr  Zr25  1  0.69837113  0.08982215  0.10293864  1
  Zr  Zr26  1  0.50332034  0.10415142  0.49490788  1
  Zr  Zr27  1  0.48829125  0.29817362  0.10218167  1
  Zr  Zr28  1  0.70209163  0.09753355  0.89645918  1
  Zr  Zr29  1  0.70220757  0.30267091  0.30758693  1
  Zr  Zr30  1  0.30687129  0.69808400  0.70608401  1
  Zr  Zr31  1  0.70025573  0.50561698  0.49778902  1
  Zr  Zr32  1  0.09629010  0.89692583  0.90700180  1
  Zr  Zr33  1  0.30040805  0.10887602  0.08992813  1
  Zr  Zr34  1  0.49740894  0.89383375  0.89909125  1
  Zr  Zr35  1  0.09615882  0.69360271  0.69741907  1
  Zr  Zr36  1  0.70746700  0.30105022  0.50208264  1
  Zr  Zr37  1  0.70846200  0.90355321  0.70149738  1
  Zr  Zr38  1  0.10721997  0.29692821  0.09981985  1
  Zr  Zr39  1  0.89793014  0.09989894  0.09999209  1
  Zr  Zr40  1  0.50313104  0.29522210  0.69824246  1
  Zr  Zr41  1  0.70017212  0.29473148  0.89243251  1
  Zr  Zr42  1  0.09635073  0.30249061  0.49131328  1
  Zr  Zr43  1  0.70123630  0.90439607  0.29495411  1
  Zr  Zr44  1  0.10813157  0.70894478  0.50044144  1
  Zr  Zr45  1  0.30214434  0.69814367  0.10169602  1
  Zr  Zr46  1  0.29758494  0.49542047  0.69562853  1
  Zr  Zr47  1  0.30438458  0.49680690  0.49989317  1
  Zr  Zr48  1  0.89908323  0.30045809  0.49116512  1
  Zr  Zr49  1  0.70443103  0.29938629  0.70092759  1
  Sc  Sc50  1  0.49325158  0.30095112  0.49080918  1
  Sc  Sc51  1  0.29826659  0.90386174  0.10030610  1
  Sc  Sc52  1  0.69871565  0.69175863  0.50009670  1
  Sc  Sc53  1  0.69475055  0.50207188  0.89429512  1
  Sc  Sc54  1  0.29375821  0.11029845  0.49695284  1
  Sc  Sc55  1  0.90285909  0.49281041  0.29900270  1
  Sc  Sc56  1  0.09951003  0.89646952  0.09600295  1
  Sc  Sc57  1  0.29908939  0.70373050  0.49452768  1
  Sc  Sc58  1  0.49677079  0.49582302  0.09840384  1
  Sc  Sc59  1  0.89557669  0.09795519  0.90416914  1
  Sc  Sc60  1  0.89790236  0.09684641  0.49725008  1
  Sc  Sc61  1  0.91238203  0.70065397  0.29399681  1
  Sc  Sc62  1  0.70459471  0.69007234  0.30872012  1
  Sc  Sc63  1  0.49385077  0.09074007  0.90756827  1
  Sc  Sc64  1  0.70126966  0.49550305  0.30335511  1
  Sc  Sc65  1  0.10098057  0.10457645  0.69502695  1
  Sc  Sc66  1  0.49964993  0.69294196  0.49609304  1
  Sc  Sc67  1  0.70481488  0.09692633  0.30559726  1
  Sc  Sc68  1  0.30140765  0.89933431  0.30455131  1
  Sc  Sc69  1  0.70104151  0.89837926  0.90015510  1
  Sc  Sc70  1  0.29973861  0.50179478  0.10258394  1
  Sc  Sc71  1  0.28728782  0.09640133  0.29203901  1
  Sc  Sc72  1  0.48880988  0.70066658  0.09051106  1
  Sc  Sc73  1  0.90680191  0.30017397  0.10632665  1
  Sc  Sc74  1  0.69654789  0.49910219  0.10597749  1
  Sc  Sc75  1  0.29147761  0.29719444  0.69313999  1
  Sc  Sc76  1  0.89597120  0.70826128  0.49474977  1
  Sc  Sc77  1  0.50516468  0.30109185  0.90360226  1
  Sc  Sc78  1  0.10942003  0.49459673  0.29379598  1
  Sc  Sc79  1  0.50069639  0.50611232  0.90383372  1
  Sc  Sc80  1  0.09900691  0.10046023  0.49281386  1
  Sc  Sc81  1  0.30481727  0.50831251  0.29864846  1
  Sc  Sc82  1  0.70215834  0.30558146  0.10625478  1
  Sc  Sc83  1  0.30346581  0.30444339  0.50050246  1
  Sc  Sc84  1  0.31370293  0.89003543  0.70066071  1
  Sc  Sc85  1  0.09676124  0.10743647  0.90328334  1
  Sc  Sc86  1  0.70297957  0.10113387  0.49757838  1
  Sc  Sc87  1  0.90201161  0.49410602  0.50151765  1
  Sc  Sc88  1  0.49142214  0.91073776  0.29805376  1
  Sc  Sc89  1  0.90493751  0.29292860  0.89831960  1
  Sc  Sc90  1  0.49777087  0.49967807  0.49615437  1
  Sc  Sc91  1  0.90319548  0.30228866  0.30109102  1
  Sc  Sc92  1  0.09567177  0.29582987  0.29632072  1
  Sc  Sc93  1  0.89332005  0.09007661  0.69143611  1
  Sc  Sc94  1  0.30513743  0.30378910  0.29939252  1
  Sc  Sc95  1  0.89752778  0.70722498  0.89539159  1
  Sc  Sc96  1  0.10030561  0.89914237  0.30934681  1
  Sc  Sc97  1  0.70115113  0.69645454  0.70293517  1
  Sc  Sc98  1  0.50043227  0.50613228  0.70614382  1
  Sc  Sc99  1  0.69838999  0.10808841  0.69474278  1
  Nb  Nb100  1  0.29752498  0.90107869  0.50286865  1
  Nb  Nb101  1  0.29684804  0.90122497  0.90306325  1
  Nb  Nb102  1  0.09821638  0.09936183  0.29315082  1
  Nb  Nb103  1  0.90122002  0.70006992  0.10295472  1
  Nb  Nb104  1  0.09825484  0.89806684  0.50239564  1
  Nb  Nb105  1  0.89423812  0.30193028  0.68852089  1
  Nb  Nb106  1  0.90634535  0.71073325  0.70725893  1
  Nb  Nb107  1  0.30093235  0.29210182  0.90174205  1
  Nb  Nb108  1  0.29579639  0.69889540  0.29446643  1
  Nb  Nb109  1  0.30673400  0.70138478  0.90677368  1
  Nb  Nb110  1  0.30192067  0.09585318  0.89790867  1
  Nb  Nb111  1  0.50112058  0.09804303  0.69867314  1
  Nb  Nb112  1  0.09785061  0.50016451  0.89953445  1
  Nb  Nb113  1  0.91199365  0.90557539  0.51568967  1
  Nb  Nb114  1  0.90027357  0.89741629  0.69732515  1
  Nb  Nb115  1  0.49048770  0.69789237  0.89004851  1
  Nb  Nb116  1  0.49973120  0.50077806  0.30241818  1
  Nb  Nb117  1  0.70105472  0.70062441  0.10267459  1
  Nb  Nb118  1  0.10423395  0.70342792  0.30403723  1
  Nb  Nb119  1  0.50485048  0.10608629  0.30172117  1
  Nb  Nb120  1  0.90264399  0.89286447  0.09968676  1
  Nb  Nb121  1  0.50270754  0.30013020  0.30062216  1
  Nb  Nb122  1  0.30181902  0.29065733  0.09260308  1
  Nb  Nb123  1  0.49514653  0.71421884  0.70591966  1
  Nb  Nb124  1  0.50071906  0.89613162  0.69849506  1
  Nb  Nb125  1  0.80152835  0.60267961  0.00613944  1
  Nb  Nb126  1  0.80268677  0.40530620  -0.00236857  1
  Nb  Nb127  1  0.20015575  0.79410158  0.20516373  1
  Nb  Nb128  1  0.39471809  0.39204123  0.80128701  1
  Nb  Nb129  1  0.60346394  0.40052029  0.60109773  1
  Nb  Nb130  1  0.59615405  0.80244078  0.59992523  1
  Nb  Nb131  1  0.19828186  0.60291500  0.80677506  1
  Nb  Nb132  1  0.20287196  0.79893082  0.80671906  1
  Nb  Nb133  1  -0.00448625  0.20640371  0.59892966  1
  Nb  Nb134  1  0.20317012  -0.00882711  0.59985683  1
  Nb  Nb135  1  0.60178880  0.79509586  0.20231239  1
  Nb  Nb136  1  0.39963376  0.60361224  0.60453589  1
  Nb  Nb137  1  -0.00399590  0.59955086  0.00307612  1
  Nb  Nb138  1  0.60036738  0.19684747  0.00803602  1
  Nb  Nb139  1  0.00061851  -0.00637505  0.79635291  1
  Nb  Nb140  1  0.59527265  0.60560232  0.20156745  1
  Nb  Nb141  1  0.79961082  0.79668668  0.19518360  1
  Nb  Nb142  1  0.59464646  0.20071492  0.20440652  1
  Nb  Nb143  1  0.40069619  0.00148794  0.59912132  1
  Nb  Nb144  1  0.59852729  0.80218420  0.39751072  1
  Nb  Nb145  1  0.39850268  0.19793990  0.80154964  1
  Nb  Nb146  1  0.19913644  -0.00773120  0.79837426  1
  Nb  Nb147  1  0.01095462  0.60241404  0.39881144  1
  Nb  Nb148  1  0.59279810  -0.00169553  0.79193652  1
  Nb  Nb149  1  0.00046536  0.00051708  0.20087794  1
  Pd  Pd150  1  0.20982881  0.39511614  0.19921654  1
  Pd  Pd151  1  0.19513828  0.39293320  0.59767546  1
  Pd  Pd152  1  0.00336927  0.20328250  0.00314179  1
  Pd  Pd153  1  0.59510842  0.40151384  0.20174784  1
  Pd  Pd154  1  0.59983198  0.20682717  0.59087863  1
  Pd  Pd155  1  0.79786443  0.60841988  0.80844102  1
  Pd  Pd156  1  0.39221072  0.19601454  0.39258248  1
  Pd  Pd157  1  0.79307383  0.20412483  0.20233868  1
  Pd  Pd158  1  -0.00487415  0.00088700  0.00109834  1
  Pd  Pd159  1  0.79672685  0.79618888  0.39340556  1
  Pd  Pd160  1  0.20210071  0.19389319  0.80572672  1
  Pd  Pd161  1  0.60051417  -0.00309903  0.60190435  1
  Pd  Pd162  1  0.59262046  0.40297369  0.79700227  1
  Pd  Pd163  1  0.19848228  0.00510172  -0.00352061  1
  Pd  Pd164  1  0.39165942  0.00565570  0.20145410  1
  Pd  Pd165  1  0.81035199  0.60834860  0.59850278  1
  Pd  Pd166  1  0.39498885  0.40356617  0.20251716  1
  Pd  Pd167  1  0.60860894  0.39484196  0.00035034  1
  Pd  Pd168  1  0.39470873  0.40219781  -0.00633922  1
  Pd  Pd169  1  -0.01069579  0.18915161  0.79014172  1
  Pd  Pd170  1  0.19472666  0.59999268  0.00218226  1
  Pd  Pd171  1  -0.00920573  0.60786364  0.58880799  1
  Pd  Pd172  1  0.20086888  0.20591504  0.39231604  1
  Pd  Pd173  1  0.79688341  0.79201168  0.60368526  1
  Pd  Pd174  1  0.79446038  0.60083299  0.20244816  1
  Pd  Pd175  1  0.20711402  0.80125928  0.60800385  1
  Pd  Pd176  1  0.39927589  0.79919701  0.40134157  1
  Pd  Pd177  1  0.59784659  0.40036765  0.40860521  1
  Pd  Pd178  1  0.00044932  0.39741438  0.60066552  1
  Pd  Pd179  1  0.81110789  -0.00826937  0.19922998  1
  Pd  Pd180  1  0.40067033  0.19692312  0.60048457  1
  Pd  Pd181  1  0.81666980  0.59571021  0.39688714  1
  Pd  Pd182  1  0.39019446  0.01246362  0.40285946  1
  Pd  Pd183  1  0.80811351  0.39901354  0.80540073  1
  Pd  Pd184  1  0.39730867  0.19521934  0.21005803  1
  Pd  Pd185  1  0.60289841  -0.00296103  0.39750710  1
  Pd  Pd186  1  0.00758905  0.59312536  0.20482351  1
  Pd  Pd187  1  0.59890275  0.60465410  0.79722786  1
  Pd  Pd188  1  0.81030169  0.19383657  0.79291121  1
  Pd  Pd189  1  0.60021643  0.60270239  0.00644073  1
  Pd  Pd190  1  0.39870365  0.00037183  0.79476384  1
  Pd  Pd191  1  0.79377210  0.20904185  0.00611163  1
  Pd  Pd192  1  0.21075777  0.39786989  0.00124877  1
  Pd  Pd193  1  0.58936116  0.79636060  0.00540805  1
  Pd  Pd194  1  0.00136807  0.00375745  0.39966985  1
  Pd  Pd195  1  0.19905451  -0.00228039  0.40451507  1
  Pd  Pd196  1  0.59045132  0.60299951  0.60697224  1
  Pd  Pd197  1  0.20055062  0.59763538  0.39741815  1
  Pd  Pd198  1  -0.00918189  0.39447863  0.79623622  1
  Pd  Pd199  1  0.20268503  0.39940184  0.39495566  1
  Rh  Rh200  1  0.60278955  0.20263180  0.39675585  1
  Rh  Rh201  1  0.00511046  0.39539110  0.20262311  1
  Rh  Rh202  1  0.40614496  0.59212662  0.19654498  1
  Rh  Rh203  1  0.00252517  0.79692895  0.40918089  1
  Rh  Rh204  1  0.79451630  0.79610732  0.79429819  1
  Rh  Rh205  1  0.21037726  0.60443808  0.60621287  1
  Rh  Rh206  1  0.58842082  0.18457801  0.81373721  1
  Rh  Rh207  1  0.39505190  0.59756954  0.40559644  1
  Rh  Rh208  1  0.39629953  0.59286497  0.79795311  1
  Rh  Rh209  1  0.21095280  0.79848439  0.00648727  1
  Rh  Rh210  1  0.41287734  0.40635568  0.60961589  1
  Rh  Rh211  1  0.18983273  -0.01441598  0.20188082  1
  Rh  Rh212  1  0.79756389  0.00163160  0.59636046  1
  Rh  Rh213  1  0.18742942  0.20214452  0.59014731  1
  Rh  Rh214  1  0.40711447  0.79605560  0.58902923  1
  Rh  Rh215  1  0.19685910  0.60455095  0.19831989  1
  Rh  Rh216  1  0.80019295  0.19861699  0.39841931  1
  Rh  Rh217  1  0.80006588  0.00232534  0.79690167  1
  Rh  Rh218  1  0.00706066  0.41170501  0.39603705  1
  Rh  Rh219  1  0.39843450  0.80524856  -0.00211791  1
  Rh  Rh220  1  0.00536884  0.60731799  0.80815602  1
  Rh  Rh221  1  0.39349946  0.80450524  0.81165631  1
  Rh  Rh222  1  -0.00686979  0.78986728  0.59326071  1
  Rh  Rh223  1  0.19617060  0.19901199  -0.00718046  1
  Rh  Rh224  1  0.60420328  0.00244702  -0.01181218  1
  Rh  Rh225  1  0.40698390  0.20003763  -0.01029739  1
  Rh  Rh226  1  0.40254778  0.59711434  -0.00041116  1
  Rh  Rh227  1  0.00061857  0.19583366  0.40291984  1
  Rh  Rh228  1  0.00262265  0.81029788  0.20275624  1
  Rh  Rh229  1  -0.01003438  0.79431248  -0.00119285  1
  Rh  Rh230  1  0.59588692  0.00140476  0.20804399  1
  Rh  Rh231  1  0.00922375  0.00943399  0.60292864  1
  Rh  Rh232  1  0.80810031  -0.00217334  0.40607514  1
  Rh  Rh233  1  0.80653641  0.19648247  0.59700116  1
  Rh  Rh234  1  0.80527455  0.79478530  0.00514949  1
  Rh  Rh235  1  0.80241831  -0.00345546  0.00034519  1
  Rh  Rh236  1  0.80197004  0.40589850  0.40003039  1
  Rh  Rh237  1  0.60407116  0.80431089  0.79437196  1
  Rh  Rh238  1  0.20630119  0.40397282  0.80451219  1
  Rh  Rh239  1  0.00138297  0.19532777  0.19830580  1
  Rh  Rh240  1  0.79780381  0.40582535  0.59731943  1
  Rh  Rh241  1  0.59098122  0.60516792  0.38834643  1
  Rh  Rh242  1  0.40170454  0.40346145  0.39241799  1
  Rh  Rh243  1  0.20690481  0.20887963  0.20322453  1
  Rh  Rh244  1  0.39512028  0.80542710  0.19683564  1
  Rh  Rh245  1  0.39387422  -0.00567790  0.00371336  1
  Rh  Rh246  1  0.00309506  0.80444829  0.80384176  1
  Rh  Rh247  1  0.80106099  0.39761183  0.19800541  1
  Rh  Rh248  1  -0.00648380  0.40124166  -0.00016577  1
  Rh  Rh249  1  0.20383804  0.80556541  0.39476094  1
