# generated using pymatgen
data_ZrScNbPdRh
_symmetry_space_group_name_H-M   'P 1'
_cell_length_a   16.55641530
_cell_length_b   16.55536327
_cell_length_c   16.55704769
_cell_angle_alpha   89.99624157
_cell_angle_beta   90.03183095
_cell_angle_gamma   90.01749602
_symmetry_Int_Tables_number   1
_chemical_formula_structural   ZrScNbPdRh
_chemical_formula_sum   'Zr50 Sc50 Nb50 Pd50 Rh50'
_cell_volume   4538.24395585
_cell_formula_units_Z   50
loop_
 _symmetry_equiv_pos_site_id
 _symmetry_equiv_pos_as_xyz
  1  'x, y, z'
loop_
 _atom_site_type_symbol
 _atom_site_label
 _atom_site_symmetry_multiplicity
 _atom_site_fract_x
 _atom_site_fract_y
 _atom_site_fract_z
 _atom_site_occupancy
  Zr  Zr0  1  0.11054932  0.89007231  0.49830973  1
  Zr  Zr1  1  0.69760152  0.10304669  0.70783225  1
  Zr  Zr2  1  0.31348101  0.69824037  0.09553245  1
  Zr  Zr3  1  0.70729079  0.29954469  0.10730099  1
  Zr  Zr4  1  0.49911272  0.30011194  0.69285796  1
  Zr  Zr5  1  0.89300187  0.91137694  0.49605118  1
  Zr  Zr6  1  0.50350166  0.89893125  0.49430432  1
  Zr  Zr7  1  0.90274571  0.50270592  0.10421566  1
  Zr  Zr8  1  0.49338042  0.89705753  0.30413251  1
  Zr  Zr9  1  0.90483318  0.30691224  0.50277877  1
  Zr  Zr10  1  0.29099361  0.30321483  0.50152360  1
  Zr  Zr11  1  0.50242281  0.49446921  0.49574084  1
  Zr  Zr12  1  0.10203378  0.30015148  0.09586224  1
  Zr  Zr13  1  0.09442107  0.89192915  0.70516343  1
  Zr  Zr14  1  0.09886200  0.89693654  0.90461107  1
  Zr  Zr15  1  0.30338885  0.89485280  0.49054566  1
  Zr  Zr16  1  0.30657886  0.10025867  0.69742930  1
  Zr  Zr17  1  0.30500698  0.10370557  0.89552037  1
  Zr  Zr18  1  0.49747135  0.68771301  0.29818360  1
  Zr  Zr19  1  0.49725096  0.09946952  0.49844146  1
  Zr  Zr20  1  0.69343662  0.69655354  0.30171702  1
  Zr  Zr21  1  0.10022001  0.09956233  0.70198451  1
  Zr  Zr22  1  0.50250764  0.89904799  0.69591908  1
  Zr  Zr23  1  0.10141728  0.89881438  0.09932779  1
  Zr  Zr24  1  0.30196090  0.10596848  0.09995937  1
  Zr  Zr25  1  0.90317736  0.69452547  0.09041641  1
  Zr  Zr26  1  0.30266374  0.69927427  0.90088851  1
  Zr  Zr27  1  0.30017460  0.69735778  0.69567670  1
  Zr  Zr28  1  0.09959842  0.49526804  0.89781904  1
  Zr  Zr29  1  0.30235679  0.89663289  0.09419098  1
  Zr  Zr30  1  0.90083937  0.69535164  0.70056641  1
  Zr  Zr31  1  0.49668952  0.70319215  0.70189594  1
  Zr  Zr32  1  0.49844630  0.70283678  0.90627957  1
  Zr  Zr33  1  0.10950412  0.30150883  0.30923481  1
  Zr  Zr34  1  0.91008767  0.29517816  0.90460521  1
  Zr  Zr35  1  0.49579344  0.50163934  0.68991230  1
  Zr  Zr36  1  0.69737769  0.50236464  0.29927134  1
  Zr  Zr37  1  0.90288435  0.50457551  0.50534128  1
  Zr  Zr38  1  0.70665462  0.29420687  0.70040509  1
  Zr  Zr39  1  0.10450616  0.49861730  0.29496780  1
  Zr  Zr40  1  0.70821339  0.50161528  0.69367492  1
  Zr  Zr41  1  0.28934540  0.30554394  0.90071647  1
  Zr  Zr42  1  0.49810050  0.31532332  0.30332490  1
  Zr  Zr43  1  0.48904077  0.50857729  0.10630397  1
  Zr  Zr44  1  0.90069738  0.10305156  0.49831900  1
  Zr  Zr45  1  0.49931500  0.89810336  0.10131318  1
  Zr  Zr46  1  0.69382670  0.90030373  0.50362376  1
  Zr  Zr47  1  0.70497037  0.50119013  0.49693457  1
  Zr  Zr48  1  0.90467508  0.49831801  0.30735852  1
  Zr  Zr49  1  0.49584830  0.49531927  0.90262893  1
  Sc  Sc50  1  0.89533091  0.30559434  0.29762172  1
  Sc  Sc51  1  0.49581568  0.09440503  0.29812170  1
  Sc  Sc52  1  0.09701468  0.11339098  0.90119471  1
  Sc  Sc53  1  0.09531164  0.49904005  0.50030166  1
  Sc  Sc54  1  0.69121832  0.89990172  0.09858079  1
  Sc  Sc55  1  0.70637165  0.09805833  0.49752812  1
  Sc  Sc56  1  0.89872520  0.30307286  0.69736505  1
  Sc  Sc57  1  0.88983642  0.89535931  0.70501057  1
  Sc  Sc58  1  0.10568346  0.68987109  0.50259670  1
  Sc  Sc59  1  0.89750522  0.11258857  0.10310327  1
  Sc  Sc60  1  0.69953351  0.70477163  0.89966788  1
  Sc  Sc61  1  0.51124203  0.89688986  0.89767275  1
  Sc  Sc62  1  0.30504769  0.69722325  0.30995702  1
  Sc  Sc63  1  0.70616395  0.50053650  0.89976218  1
  Sc  Sc64  1  0.90275542  0.69280176  0.89823026  1
  Sc  Sc65  1  0.29481931  0.70129089  0.49990957  1
  Sc  Sc66  1  0.09419252  0.69314207  0.89951914  1
  Sc  Sc67  1  0.89417080  0.10648448  0.70567620  1
  Sc  Sc68  1  0.69962981  0.10029550  0.89271639  1
  Sc  Sc69  1  0.49634132  0.09924152  0.70687504  1
  Sc  Sc70  1  0.69703385  0.29626216  0.89638013  1
  Sc  Sc71  1  0.09874771  0.30638399  0.69938485  1
  Sc  Sc72  1  0.70400662  0.69295635  0.10268221  1
  Sc  Sc73  1  0.30015891  0.10102613  0.30166718  1
  Sc  Sc74  1  0.30038205  0.10010370  0.50125785  1
  Sc  Sc75  1  0.29423489  0.30047761  0.69525622  1
  Sc  Sc76  1  0.69616214  0.69953712  0.50182928  1
  Sc  Sc77  1  0.29235695  0.50126030  0.70008443  1
  Sc  Sc78  1  0.29637512  0.30375839  0.10611654  1
  Sc  Sc79  1  0.69774510  0.89769161  0.89121964  1
  Sc  Sc80  1  0.70604640  0.30002048  0.49347057  1
  Sc  Sc81  1  0.70651232  0.10593754  0.30139041  1
  Sc  Sc82  1  0.09653664  0.10775261  0.48991260  1
  Sc  Sc83  1  0.89894810  0.69666527  0.28985012  1
  Sc  Sc84  1  0.70593321  0.30343950  0.30227313  1
  Sc  Sc85  1  0.90217296  0.49810379  0.70263432  1
  Sc  Sc86  1  0.49587177  0.69630502  0.49560241  1
  Sc  Sc87  1  0.29156014  0.50202783  0.90035512  1
  Sc  Sc88  1  0.10459963  0.69388670  0.30932369  1
  Sc  Sc89  1  0.89945992  0.29926912  0.10499743  1
  Sc  Sc90  1  0.10205961  0.69010115  0.69985307  1
  Sc  Sc91  1  0.70280534  0.09972902  0.10444721  1
  Sc  Sc92  1  0.49298600  0.30265459  0.89746516  1
  Sc  Sc93  1  0.90634009  0.89014059  0.88930548  1
  Sc  Sc94  1  0.09161245  0.90574029  0.30112055  1
  Sc  Sc95  1  0.09870350  0.69367355  0.09561134  1
  Sc  Sc96  1  0.09865047  0.49976350  0.70020494  1
  Sc  Sc97  1  0.70321309  0.70743331  0.69688298  1
  Sc  Sc98  1  0.91303429  0.88736026  0.11012149  1
  Sc  Sc99  1  0.48855441  0.30856576  0.09478862  1
  Nb  Nb100  1  0.91079186  0.08210360  0.30647904  1
  Nb  Nb101  1  0.90117914  0.50041836  0.90261066  1
  Nb  Nb102  1  0.09855171  0.09841780  0.10495866  1
  Nb  Nb103  1  0.49900717  0.70329826  0.09889471  1
  Nb  Nb104  1  0.50201359  0.30093550  0.49824049  1
  Nb  Nb105  1  0.29614401  0.90254782  0.90428526  1
  Nb  Nb106  1  0.69808296  0.89459159  0.30153261  1
  Nb  Nb107  1  0.30066950  0.30679283  0.30016901  1
  Nb  Nb108  1  0.50388141  0.10171517  0.89903864  1
  Nb  Nb109  1  0.28741559  0.50480579  0.10405238  1
  Nb  Nb110  1  0.09888214  0.30696729  0.89928906  1
  Nb  Nb111  1  0.90343415  0.69968780  0.49935250  1
  Nb  Nb112  1  0.09732453  0.30579503  0.50239877  1
  Nb  Nb113  1  0.30894939  0.49375509  0.29431128  1
  Nb  Nb114  1  0.30129348  0.50587472  0.50601412  1
  Nb  Nb115  1  0.90074519  0.90086742  0.30194950  1
  Nb  Nb116  1  0.50157885  0.09816956  0.09965472  1
  Nb  Nb117  1  0.69852475  0.49898106  0.09644260  1
  Nb  Nb118  1  0.49890827  0.50318292  0.30026425  1
  Nb  Nb119  1  0.69406401  0.89806204  0.70043314  1
  Nb  Nb120  1  0.90044119  0.09951755  0.90596381  1
  Nb  Nb121  1  0.29905486  0.89721335  0.69757295  1
  Nb  Nb122  1  0.29907723  0.89715198  0.29918559  1
  Nb  Nb123  1  0.10846820  0.50071120  0.09944439  1
  Nb  Nb124  1  0.09386383  0.09635466  0.29669539  1
  Nb  Nb125  1  0.80219773  0.80340995  0.39681414  1
  Nb  Nb126  1  0.19828445  -0.00110613  0.19884558  1
  Nb  Nb127  1  0.59258465  0.20590325  0.19582150  1
  Nb  Nb128  1  0.19878376  -0.00573823  0.60510470  1
  Nb  Nb129  1  0.20415705  -0.00445150  0.79984739  1
  Nb  Nb130  1  0.59958768  0.40633219  0.79319711  1
  Nb  Nb131  1  0.20570430  0.80378969  0.20182856  1
  Nb  Nb132  1  0.59812353  0.40568127  0.19697944  1
  Nb  Nb133  1  0.39926092  0.21248060  0.40033669  1
  Nb  Nb134  1  0.59720850  0.20128966  0.59575752  1
  Nb  Nb135  1  0.59263165  0.19584458  0.00461074  1
  Nb  Nb136  1  0.00622705  0.19477052  0.20818395  1
  Nb  Nb137  1  0.59658972  0.59701902  0.00083886  1
  Nb  Nb138  1  -0.00453160  0.80015288  0.59391695  1
  Nb  Nb139  1  0.80288737  0.80404161  0.00279441  1
  Nb  Nb140  1  0.00294325  -0.00395078  0.60084078  1
  Nb  Nb141  1  0.80917166  -0.00516405  0.00228756  1
  Nb  Nb142  1  -0.00527869  0.00506626  0.00146364  1
  Nb  Nb143  1  0.59391668  0.79569943  0.20196663  1
  Nb  Nb144  1  0.20611220  0.80359433  0.80191403  1
  Nb  Nb145  1  0.80700762  -0.00707744  0.20356330  1
  Nb  Nb146  1  0.59708796  0.59569446  0.80070829  1
  Nb  Nb147  1  -0.00762996  0.79890193  0.40478211  1
  Nb  Nb148  1  0.80382798  0.40414258  0.00109418  1
  Nb  Nb149  1  0.40641592  0.00525089  -0.00407105  1
  Pd  Pd150  1  0.79037624  0.19837848  -0.00530585  1
  Pd  Pd151  1  0.60587548  0.00651123  -0.00498196  1
  Pd  Pd152  1  0.20590324  0.58967470  0.40111073  1
  Pd  Pd153  1  0.80043994  -0.00287383  0.80595445  1
  Pd  Pd154  1  0.39599088  0.40040474  0.79288232  1
  Pd  Pd155  1  0.60765576  0.00170209  0.20684951  1
  Pd  Pd156  1  0.19889480  0.20150977  0.79707990  1
  Pd  Pd157  1  0.20677150  0.61135886  0.20233873  1
  Pd  Pd158  1  -0.00262666  0.40436113  0.00482784  1
  Pd  Pd159  1  0.39222392  -0.00057826  0.19617559  1
  Pd  Pd160  1  0.39703080  0.80890686  0.80599137  1
  Pd  Pd161  1  0.80068785  0.39457960  0.80857213  1
  Pd  Pd162  1  0.19772517  0.19955432  -0.00121574  1
  Pd  Pd163  1  -0.00705043  0.20874212  0.39171760  1
  Pd  Pd164  1  0.79208674  0.80413529  0.19639306  1
  Pd  Pd165  1  0.19699487  0.19660528  0.20564176  1
  Pd  Pd166  1  0.39969048  0.21015249  0.79912356  1
  Pd  Pd167  1  0.40265699  0.79727521  0.59095620  1
  Pd  Pd168  1  -0.00223690  0.20498384  0.79451658  1
  Pd  Pd169  1  0.61198922  0.39246212  0.59968721  1
  Pd  Pd170  1  0.40522311  0.20577587  0.20849014  1
  Pd  Pd171  1  0.00597532  0.60346393  0.20204783  1
  Pd  Pd172  1  0.38364970  0.40748236  0.00530634  1
  Pd  Pd173  1  0.19855625  0.00432514  0.39808783  1
  Pd  Pd174  1  0.79531147  0.60491150  0.80286931  1
  Pd  Pd175  1  0.39102843  0.39933805  0.59887885  1
  Pd  Pd176  1  0.39980568  0.59345883  0.79992243  1
  Pd  Pd177  1  0.19729456  0.78697248  0.00023763  1
  Pd  Pd178  1  0.19277252  0.19542945  0.59730125  1
  Pd  Pd179  1  0.60433906  0.00633951  0.39195171  1
  Pd  Pd180  1  0.80388641  0.60892771  0.40017941  1
  Pd  Pd181  1  0.40418084  0.19974769  -0.00175260  1
  Pd  Pd182  1  0.80102571  0.59628092  0.20068740  1
  Pd  Pd183  1  0.39554813  -0.00475120  0.59450129  1
  Pd  Pd184  1  0.81138196  0.20020593  0.39611009  1
  Pd  Pd185  1  0.20612607  0.19549088  0.39898928  1
  Pd  Pd186  1  0.00629713  0.39227317  0.20158551  1
  Pd  Pd187  1  0.19780572  0.01213281  -0.00211832  1
  Pd  Pd188  1  0.40228486  -0.00930743  0.80728350  1
  Pd  Pd189  1  0.00035137  0.00516494  0.80301730  1
  Pd  Pd190  1  0.60005261  0.01033562  0.60544644  1
  Pd  Pd191  1  0.01321441  0.78883365  0.21033201  1
  Pd  Pd192  1  0.59411961  0.20019542  0.39603738  1
  Pd  Pd193  1  0.80241302  0.00553432  0.61020079  1
  Pd  Pd194  1  0.60779133  0.39700283  -0.00177180  1
  Pd  Pd195  1  0.00219008  0.19783858  0.60349183  1
  Pd  Pd196  1  0.39232345  0.40286919  0.40665990  1
  Pd  Pd197  1  0.80157602  0.79886064  0.59418664  1
  Pd  Pd198  1  0.20165066  0.41169172  0.40535549  1
  Pd  Pd199  1  0.60064572  0.60741650  0.60226101  1
  Rh  Rh200  1  0.20116059  0.60587337  0.80199948  1
  Rh  Rh201  1  0.60908118  0.78917332  0.01064222  1
  Rh  Rh202  1  -0.00095687  0.60236321  0.39745618  1
  Rh  Rh203  1  0.79587645  0.41013679  0.19620521  1
  Rh  Rh204  1  0.40613302  0.81284738  -0.00795075  1
  Rh  Rh205  1  0.79501339  0.60024442  -0.00457336  1
  Rh  Rh206  1  0.39551094  0.00577727  0.40002855  1
  Rh  Rh207  1  0.39797719  0.40350407  0.19441851  1
  Rh  Rh208  1  0.59555030  0.79685257  0.59881103  1
  Rh  Rh209  1  0.81090741  0.18857587  0.21413561  1
  Rh  Rh210  1  -0.00678399  0.80104395  -0.00437030  1
  Rh  Rh211  1  0.19734080  0.39799847  0.79677992  1
  Rh  Rh212  1  0.20104529  0.39982890  0.19952789  1
  Rh  Rh213  1  0.39090614  0.60132951  0.20324663  1
  Rh  Rh214  1  0.60179720  0.79626505  0.39620837  1
  Rh  Rh215  1  0.80339888  0.40273842  0.40229630  1
  Rh  Rh216  1  -0.00098983  0.39965981  0.80025968  1
  Rh  Rh217  1  0.60212963  0.79434399  0.79202381  1
  Rh  Rh218  1  0.00496853  0.59010661  -0.00177906  1
  Rh  Rh219  1  0.01104852  -0.00742509  0.41259602  1
  Rh  Rh220  1  0.79383073  0.19762444  0.59661014  1
  Rh  Rh221  1  0.00344825  0.39904205  0.40030299  1
  Rh  Rh222  1  -0.00427634  0.00637280  0.18913933  1
  Rh  Rh223  1  0.40132501  0.79532064  0.39972981  1
  Rh  Rh224  1  0.60615667  0.40362227  0.39569681  1
  Rh  Rh225  1  0.59688049  0.59671405  0.40716470  1
  Rh  Rh226  1  0.59153492  0.20950486  0.80035859  1
  Rh  Rh227  1  0.19943814  0.59423678  0.59854804  1
  Rh  Rh228  1  0.39942420  0.59271205  -0.00200958  1
  Rh  Rh229  1  -0.00104343  0.59267773  0.80022516  1
  Rh  Rh230  1  0.19482435  0.79898500  0.38779988  1
  Rh  Rh231  1  -0.00087899  0.60280672  0.60108756  1
  Rh  Rh232  1  0.19456677  0.40415746  0.59693016  1
  Rh  Rh233  1  0.19842844  0.59946409  -0.00103959  1
  Rh  Rh234  1  0.40111163  0.79346086  0.20810191  1
  Rh  Rh235  1  0.40529494  0.20411041  0.59031121  1
  Rh  Rh236  1  0.19941456  0.40236907  0.00384171  1
  Rh  Rh237  1  0.80241380  0.60253248  0.59871116  1
  Rh  Rh238  1  0.79596497  0.79821777  0.80484513  1
  Rh  Rh239  1  0.59860479  -0.00272526  0.79482007  1
  Rh  Rh240  1  0.19595053  0.79709739  0.61034496  1
  Rh  Rh241  1  0.80876959  0.20395584  0.80794882  1
  Rh  Rh242  1  0.59901696  0.59931236  0.19019123  1
  Rh  Rh243  1  0.00154695  0.40213749  0.60168093  1
  Rh  Rh244  1  0.39715427  0.60183906  0.59568666  1
  Rh  Rh245  1  0.80230563  0.39932693  0.59626011  1
  Rh  Rh246  1  0.39601943  0.59136817  0.40494936  1
  Rh  Rh247  1  0.78831804  -0.00399002  0.39127823  1
  Rh  Rh248  1  0.00467700  0.19740293  0.00803345  1
  Rh  Rh249  1  0.00537226  0.78501334  0.79392317  1
