# generated using pymatgen
data_ZrScNbPdRh
_symmetry_space_group_name_H-M   'P 1'
_cell_length_a   16.55946093
_cell_length_b   16.55835233
_cell_length_c   16.55822793
_cell_angle_alpha   89.99853218
_cell_angle_beta   89.96936697
_cell_angle_gamma   89.99153390
_symmetry_Int_Tables_number   1
_chemical_formula_structural   ZrScNbPdRh
_chemical_formula_sum   'Zr50 Sc50 Nb50 Pd50 Rh50'
_cell_volume   4540.22215603
_cell_formula_units_Z   50
loop_
 _symmetry_equiv_pos_site_id
 _symmetry_equiv_pos_as_xyz
  1  'x, y, z'
loop_
 _atom_site_type_symbol
 _atom_site_label
 _atom_site_symmetry_multiplicity
 _atom_site_fract_x
 _atom_site_fract_y
 _atom_site_fract_z
 _atom_site_occupancy
  Zr  Zr0  1  0.70321023  0.90170345  0.10375870  1
  Zr  Zr1  1  0.89714482  0.89510162  0.09827134  1
  Zr  Zr2  1  0.49262174  0.89046529  0.89701756  1
  Zr  Zr3  1  0.49092382  0.50489078  0.10066591  1
  Zr  Zr4  1  0.49619570  0.51108016  0.29638769  1
  Zr  Zr5  1  0.09125769  0.29768210  0.29916855  1
  Zr  Zr6  1  0.09561167  0.50465056  0.50137309  1
  Zr  Zr7  1  0.30467052  0.50315596  0.70405479  1
  Zr  Zr8  1  0.70562653  0.89402068  0.90439633  1
  Zr  Zr9  1  0.70277939  0.29287953  0.10652626  1
  Zr  Zr10  1  0.30317156  0.69711919  0.30933611  1
  Zr  Zr11  1  0.69301162  0.30402012  0.49632741  1
  Zr  Zr12  1  0.49687042  0.90241894  0.30276820  1
  Zr  Zr13  1  0.70846235  0.69348121  0.29878395  1
  Zr  Zr14  1  0.29923670  0.29796273  0.69535071  1
  Zr  Zr15  1  0.69872563  0.50222536  0.30409088  1
  Zr  Zr16  1  0.49294693  0.09168929  0.69278269  1
  Zr  Zr17  1  0.69958421  0.29484956  0.90060429  1
  Zr  Zr18  1  0.49824226  0.10232305  0.89987307  1
  Zr  Zr19  1  0.29659254  0.09303201  0.89271480  1
  Zr  Zr20  1  0.50190328  0.30333876  0.69834414  1
  Zr  Zr21  1  0.10057178  0.89694639  0.09974865  1
  Zr  Zr22  1  0.70545950  0.70158826  0.09865112  1
  Zr  Zr23  1  0.08788047  0.30586728  0.89555068  1
  Zr  Zr24  1  0.90298263  0.89664673  0.89060507  1
  Zr  Zr25  1  0.10492461  0.49183522  0.69814083  1
  Zr  Zr26  1  0.69983908  0.68745780  0.69720916  1
  Zr  Zr27  1  0.69729089  0.90375505  0.49813422  1
  Zr  Zr28  1  0.49298574  0.10389162  0.49347310  1
  Zr  Zr29  1  0.29716443  0.31094695  0.10547271  1
  Zr  Zr30  1  0.29783261  0.89276581  0.30202384  1
  Zr  Zr31  1  0.30704268  0.09314078  0.31001459  1
  Zr  Zr32  1  0.50432331  0.30367052  0.89510173  1
  Zr  Zr33  1  0.89677765  0.29796850  0.48782571  1
  Zr  Zr34  1  0.70032478  0.69874731  0.49809458  1
  Zr  Zr35  1  0.89924107  0.49637499  0.90037935  1
  Zr  Zr36  1  0.71134197  0.50411430  0.50563326  1
  Zr  Zr37  1  0.90763044  0.69443524  0.49599691  1
  Zr  Zr38  1  0.90327178  0.90213164  0.29002141  1
  Zr  Zr39  1  0.70777792  0.30188714  0.29984157  1
  Zr  Zr40  1  0.09447083  0.09958868  0.10661719  1
  Zr  Zr41  1  0.70014850  0.10571087  0.90349259  1
  Zr  Zr42  1  0.30067163  0.70154337  0.89570821  1
  Zr  Zr43  1  0.89444511  0.10186579  0.49438061  1
  Zr  Zr44  1  0.69789738  0.31131232  0.70135913  1
  Zr  Zr45  1  0.49625303  0.70602297  0.50538187  1
  Zr  Zr46  1  0.50310398  0.89387466  0.10659709  1
  Zr  Zr47  1  0.69588022  0.69782666  0.90682819  1
  Zr  Zr48  1  0.29740438  0.50952262  0.90440368  1
  Zr  Zr49  1  0.70335074  0.50320687  0.89429534  1
  Sc  Sc50  1  0.69676268  0.10528264  0.28936580  1
  Sc  Sc51  1  0.29682955  0.51627339  0.51005229  1
  Sc  Sc52  1  0.49329330  0.89851456  0.69069062  1
  Sc  Sc53  1  0.09275856  0.30700182  0.50200813  1
  Sc  Sc54  1  0.50229473  0.10146228  0.11004320  1
  Sc  Sc55  1  0.89205131  0.50386241  0.09265120  1
  Sc  Sc56  1  0.70320861  0.51114465  0.10303950  1
  Sc  Sc57  1  0.50665802  0.50212432  0.70674782  1
  Sc  Sc58  1  0.48972703  0.29692175  0.10104284  1
  Sc  Sc59  1  0.90192975  0.89840155  0.49650918  1
  Sc  Sc60  1  0.10543528  0.69806590  0.50433312  1
  Sc  Sc61  1  0.30205056  0.89995315  0.69873397  1
  Sc  Sc62  1  0.10592354  0.89426962  0.89753503  1
  Sc  Sc63  1  0.50906877  0.69676081  0.10046317  1
  Sc  Sc64  1  0.30392517  0.28371043  0.50149997  1
  Sc  Sc65  1  0.89059914  0.29951616  0.10356182  1
  Sc  Sc66  1  0.10280729  0.70047364  0.89951822  1
  Sc  Sc67  1  0.30262011  0.10126652  0.09919174  1
  Sc  Sc68  1  0.70641735  0.09903894  0.69336920  1
  Sc  Sc69  1  0.90522690  0.50031287  0.50332363  1
  Sc  Sc70  1  0.89633763  0.10631088  0.88682000  1
  Sc  Sc71  1  0.50177453  0.28848936  0.30355743  1
  Sc  Sc72  1  0.10112180  0.29972811  0.70042314  1
  Sc  Sc73  1  0.09666547  0.89182306  0.69953874  1
  Sc  Sc74  1  0.10398765  0.70550166  0.69637686  1
  Sc  Sc75  1  0.10048994  0.09867290  0.89315540  1
  Sc  Sc76  1  0.90299048  0.70616019  0.90757937  1
  Sc  Sc77  1  0.10656094  0.89555348  0.50355405  1
  Sc  Sc78  1  0.30726539  0.30719696  0.90091456  1
  Sc  Sc79  1  0.11003565  0.50753032  0.29832559  1
  Sc  Sc80  1  0.29486695  0.90070861  0.50018068  1
  Sc  Sc81  1  0.10457865  0.10178567  0.70480312  1
  Sc  Sc82  1  0.29566550  0.09423963  0.69254071  1
  Sc  Sc83  1  0.70606595  0.10081659  0.10243238  1
  Sc  Sc84  1  0.91042340  0.70653048  0.70202107  1
  Sc  Sc85  1  0.30546922  0.30289565  0.29386923  1
  Sc  Sc86  1  0.09971912  0.08734242  0.49257151  1
  Sc  Sc87  1  0.29366994  0.69857686  0.09998104  1
  Sc  Sc88  1  0.89648215  0.29695223  0.30079945  1
  Sc  Sc89  1  0.70494844  0.90500439  0.69629215  1
  Sc  Sc90  1  0.09994518  0.70037416  0.09273764  1
  Sc  Sc91  1  0.49339283  0.50199160  0.89963642  1
  Sc  Sc92  1  0.51365339  0.50681172  0.49175148  1
  Sc  Sc93  1  0.49596685  0.69471783  0.91098949  1
  Sc  Sc94  1  0.89226248  0.50222567  0.30537918  1
  Sc  Sc95  1  0.89186968  0.29792171  0.89820284  1
  Sc  Sc96  1  0.69810440  0.10218615  0.50308583  1
  Sc  Sc97  1  0.69499073  0.90087613  0.29620991  1
  Sc  Sc98  1  0.30011792  0.09361746  0.50463939  1
  Sc  Sc99  1  0.10896613  0.69939545  0.30322615  1
  Nb  Nb100  1  0.90222388  0.09464970  0.11107022  1
  Nb  Nb101  1  0.89980142  0.90059150  0.69695841  1
  Nb  Nb102  1  0.91255965  0.10003240  0.30001995  1
  Nb  Nb103  1  0.10133140  0.90621336  0.30894765  1
  Nb  Nb104  1  0.49857416  0.09454126  0.29977894  1
  Nb  Nb105  1  0.30147803  0.49671311  0.29125718  1
  Nb  Nb106  1  0.09045670  0.09532749  0.30053503  1
  Nb  Nb107  1  0.09726270  0.50242316  0.90268393  1
  Nb  Nb108  1  0.89744281  0.09735863  0.69554593  1
  Nb  Nb109  1  0.30363196  0.90049960  0.90403605  1
  Nb  Nb110  1  0.50052043  0.69875711  0.30465578  1
  Nb  Nb111  1  0.49726416  0.70375477  0.69372734  1
  Nb  Nb112  1  0.09814694  0.30166875  0.10253926  1
  Nb  Nb113  1  0.29134012  0.50007918  0.11349202  1
  Nb  Nb114  1  0.49716370  0.30062631  0.50090311  1
  Nb  Nb115  1  0.90020383  0.70467380  0.10871037  1
  Nb  Nb116  1  0.90260252  0.70018311  0.29800104  1
  Nb  Nb117  1  0.10140988  0.50293638  0.09957505  1
  Nb  Nb118  1  0.88528059  0.49830362  0.70237094  1
  Nb  Nb119  1  0.29938271  0.70382970  0.51070621  1
  Nb  Nb120  1  0.31027557  0.69471430  0.68079450  1
  Nb  Nb121  1  0.89855506  0.29016282  0.70606897  1
  Nb  Nb122  1  0.71200354  0.50201754  0.70256225  1
  Nb  Nb123  1  0.50701036  0.90803768  0.50202100  1
  Nb  Nb124  1  0.29705866  0.90182119  0.09890065  1
  Nb  Nb125  1  0.80394703  0.00417655  0.39272239  1
  Nb  Nb126  1  0.80290783  0.79870322  0.59763876  1
  Nb  Nb127  1  0.19526770  0.19937972  0.39135110  1
  Nb  Nb128  1  -0.00187203  0.60083449  0.19733213  1
  Nb  Nb129  1  0.00266383  0.58982334  0.80169690  1
  Nb  Nb130  1  -0.00765722  0.00133722  0.60530672  1
  Nb  Nb131  1  -0.00802430  0.19437775  0.60232892  1
  Nb  Nb132  1  0.59675866  0.79666089  0.79519398  1
  Nb  Nb133  1  0.40503524  0.40057388  0.59184774  1
  Nb  Nb134  1  0.59945767  0.40076838  0.19747610  1
  Nb  Nb135  1  0.59511982  -0.00381496  -0.00287386  1
  Nb  Nb136  1  0.00258106  0.79973391  0.39370046  1
  Nb  Nb137  1  0.00244619  0.40831973  0.19411520  1
  Nb  Nb138  1  0.40077531  0.19901561  0.79643897  1
  Nb  Nb139  1  0.39860848  -0.00789149  0.00010817  1
  Nb  Nb140  1  0.39707895  0.40308255  0.40433570  1
  Nb  Nb141  1  0.19177889  0.40556944  0.00452481  1
  Nb  Nb142  1  0.20935116  0.40040876  0.39833122  1
  Nb  Nb143  1  0.19324642  0.20795107  0.00411146  1
  Nb  Nb144  1  0.19771123  -0.00032782  0.20579889  1
  Nb  Nb145  1  0.60076903  0.40024377  0.00467805  1
  Nb  Nb146  1  0.59758456  -0.00549793  0.80428487  1
  Nb  Nb147  1  -0.00032402  0.19615432  0.00536961  1
  Nb  Nb148  1  -0.00437666  0.00323400  0.00062733  1
  Nb  Nb149  1  0.19518532  0.19602150  0.20354829  1
  Pd  Pd150  1  0.21126565  0.39779649  0.58678834  1
  Pd  Pd151  1  0.39893603  0.79094118  0.19604443  1
  Pd  Pd152  1  0.19834401  0.00628118  0.00437463  1
  Pd  Pd153  1  0.59680149  0.59306365  0.60093482  1
  Pd  Pd154  1  0.20588303  0.59739566  0.40292924  1
  Pd  Pd155  1  0.01177647  0.79313481  0.20570795  1
  Pd  Pd156  1  -0.00297977  0.39447177  0.00772252  1
  Pd  Pd157  1  0.39721727  0.40813181  0.00126230  1
  Pd  Pd158  1  -0.00319581  0.60434554  0.00067784  1
  Pd  Pd159  1  0.39932808  0.79300680  0.79304019  1
  Pd  Pd160  1  0.40691561  0.60820056  0.79773741  1
  Pd  Pd161  1  0.59930842  0.19649482  0.60154969  1
  Pd  Pd162  1  0.19696329  -0.01204027  0.79273299  1
  Pd  Pd163  1  0.80604731  0.80604860  0.39887229  1
  Pd  Pd164  1  0.79080456  0.39951847  0.00200114  1
  Pd  Pd165  1  0.81334529  0.61241585  0.80389531  1
  Pd  Pd166  1  0.59897610  0.19006996  0.78645010  1
  Pd  Pd167  1  0.59611749  0.20038626  0.01185352  1
  Pd  Pd168  1  -0.00046276  0.59817238  0.61365578  1
  Pd  Pd169  1  0.60313611  0.19502806  0.39724703  1
  Pd  Pd170  1  0.39606607  0.59622482  0.40822588  1
  Pd  Pd171  1  0.59157949  0.60529961  0.80374823  1
  Pd  Pd172  1  -0.01134488  0.39117943  0.60903120  1
  Pd  Pd173  1  0.79966146  0.21022595  0.59962345  1
  Pd  Pd174  1  0.39515986  0.19760388  0.20425149  1
  Pd  Pd175  1  0.39117872  0.19484736  -0.00547061  1
  Pd  Pd176  1  0.00476293  0.41303612  0.38862610  1
  Pd  Pd177  1  0.00480322  -0.00046008  0.79812492  1
  Pd  Pd178  1  0.19393224  0.60532560  0.79307301  1
  Pd  Pd179  1  0.79501683  0.79241893  0.79061192  1
  Pd  Pd180  1  0.60301280  0.79208712  0.20866671  1
  Pd  Pd181  1  0.60675455  0.00989675  0.39480152  1
  Pd  Pd182  1  0.20501145  0.39761247  0.80918562  1
  Pd  Pd183  1  0.59918430  0.79642741  0.39463392  1
  Pd  Pd184  1  0.39567628  0.79623611  0.01071257  1
  Pd  Pd185  1  0.18489414  0.19430466  0.58758219  1
  Pd  Pd186  1  0.39489811  -0.00147903  0.19519041  1
  Pd  Pd187  1  0.60762313  0.80424509  0.60682125  1
  Pd  Pd188  1  -0.00865076  0.40326287  0.79134532  1
  Pd  Pd189  1  0.80545548  0.00788708  -0.00333105  1
  Pd  Pd190  1  0.19641037  0.80037246  0.20259416  1
  Pd  Pd191  1  0.59284633  0.39955279  0.39076920  1
  Pd  Pd192  1  0.20897064  0.79795652  0.79258833  1
  Pd  Pd193  1  0.59686154  0.41200254  0.60032723  1
  Pd  Pd194  1  0.80754933  0.39252623  0.59685741  1
  Pd  Pd195  1  0.20215188  0.79676756  -0.00376008  1
  Pd  Pd196  1  0.20564665  0.20881112  0.80843226  1
  Pd  Pd197  1  0.79339032  0.00279715  0.80036521  1
  Pd  Pd198  1  0.40017565  0.80510337  0.40952872  1
  Pd  Pd199  1  0.39551413  0.61286407  0.19553488  1
  Rh  Rh200  1  0.60139562  0.61072181  0.39928050  1
  Rh  Rh201  1  0.40124379  0.00400160  0.80283952  1
  Rh  Rh202  1  0.39594561  0.39580947  0.79080852  1
  Rh  Rh203  1  0.80540219  -0.00869284  0.59018745  1
  Rh  Rh204  1  0.00827848  0.19645749  0.41157963  1
  Rh  Rh205  1  0.19674149  0.60633961  0.19889080  1
  Rh  Rh206  1  0.80019043  0.40362397  0.40466960  1
  Rh  Rh207  1  0.41237844  0.59169331  0.59751706  1
  Rh  Rh208  1  0.81032568  0.60776015  0.60093554  1
  Rh  Rh209  1  0.20300731  0.00236002  0.39668166  1
  Rh  Rh210  1  0.20149083  0.59753838  0.00240410  1
  Rh  Rh211  1  0.00204338  0.60391708  0.38982041  1
  Rh  Rh212  1  0.60147868  0.60096086  0.20158622  1
  Rh  Rh213  1  -0.00642965  0.21098020  0.19527018  1
  Rh  Rh214  1  0.39138757  0.60077552  0.00736057  1
  Rh  Rh215  1  0.20682879  0.80100255  0.60338074  1
  Rh  Rh216  1  0.19399948  0.60151140  0.60702305  1
  Rh  Rh217  1  0.59579824  0.20368678  0.19992644  1
  Rh  Rh218  1  0.60002633  0.58840133  -0.00032770  1
  Rh  Rh219  1  0.00052497  0.80680502  -0.00266209  1
  Rh  Rh220  1  0.59946720  0.00236295  0.19519199  1
  Rh  Rh221  1  0.41413976  0.39834651  0.21078308  1
  Rh  Rh222  1  0.39855218  0.80879975  0.59247546  1
  Rh  Rh223  1  0.39629853  0.20216794  0.39705240  1
  Rh  Rh224  1  0.00521538  -0.01003177  0.19506756  1
  Rh  Rh225  1  0.79476818  0.80012947  0.20382198  1
  Rh  Rh226  1  0.80534691  0.59832252  0.40399327  1
  Rh  Rh227  1  0.80424767  0.79633711  0.00309082  1
  Rh  Rh228  1  0.81194064  0.19230822  0.00502495  1
  Rh  Rh229  1  0.19030310  -0.00189754  0.60491404  1
  Rh  Rh230  1  0.79893685  0.40593569  0.20123869  1
  Rh  Rh231  1  0.79362169  0.19117198  0.39195711  1
  Rh  Rh232  1  0.60566054  0.40863115  0.80640212  1
  Rh  Rh233  1  0.81038206  0.19320720  0.20565133  1
  Rh  Rh234  1  0.00308608  0.79380484  0.80286230  1
  Rh  Rh235  1  0.40336659  -0.00876394  0.40647844  1
  Rh  Rh236  1  0.79998686  0.00476524  0.20817316  1
  Rh  Rh237  1  0.80066012  0.39304103  0.80054377  1
  Rh  Rh238  1  0.79137672  0.20067533  0.79205096  1
  Rh  Rh239  1  -0.00145992  0.19853051  0.79711587  1
  Rh  Rh240  1  -0.00465934  0.80781544  0.59056220  1
  Rh  Rh241  1  0.40303801  0.20204080  0.60604992  1
  Rh  Rh242  1  0.39713709  -0.00666682  0.58980168  1
  Rh  Rh243  1  0.59827025  0.00204416  0.60291783  1
  Rh  Rh244  1  0.60021909  0.80443364  -0.00363642  1
  Rh  Rh245  1  0.18993859  0.39722335  0.20414558  1
  Rh  Rh246  1  0.80524041  0.60779439  -0.00108542  1
  Rh  Rh247  1  0.80903578  0.59982781  0.19863913  1
  Rh  Rh248  1  0.19680029  0.79532633  0.40605696  1
  Rh  Rh249  1  -0.00575074  -0.00892232  0.40660831  1
