# generated using pymatgen
data_ZrScNbPdRh
_symmetry_space_group_name_H-M   'P 1'
_cell_length_a   16.56671594
_cell_length_b   16.56513403
_cell_length_c   16.56021946
_cell_angle_alpha   89.98679927
_cell_angle_beta   89.97753849
_cell_angle_gamma   89.97051851
_symmetry_Int_Tables_number   1
_chemical_formula_structural   ZrScNbPdRh
_chemical_formula_sum   'Zr50 Sc50 Nb50 Pd50 Rh50'
_cell_volume   4544.61780191
_cell_formula_units_Z   50
loop_
 _symmetry_equiv_pos_site_id
 _symmetry_equiv_pos_as_xyz
  1  'x, y, z'
loop_
 _atom_site_type_symbol
 _atom_site_label
 _atom_site_symmetry_multiplicity
 _atom_site_fract_x
 _atom_site_fract_y
 _atom_site_fract_z
 _atom_site_occupancy
  Zr  Zr0  1  0.70052047  0.09988878  0.50099788  1
  Zr  Zr1  1  0.30297644  0.09605581  0.30626882  1
  Zr  Zr2  1  0.69446929  0.10211851  0.30554963  1
  Zr  Zr3  1  0.10233379  0.88914170  0.30244237  1
  Zr  Zr4  1  0.90199791  0.09884167  0.09481718  1
  Zr  Zr5  1  0.50762174  0.29703315  0.30355454  1
  Zr  Zr6  1  0.50162557  0.69672804  0.70805091  1
  Zr  Zr7  1  0.30349896  0.49910757  0.90981622  1
  Zr  Zr8  1  0.31017624  0.50515948  0.30533048  1
  Zr  Zr9  1  0.71461238  0.09551909  0.89955127  1
  Zr  Zr10  1  0.49951186  0.68947774  0.51330941  1
  Zr  Zr11  1  0.70406750  0.90932855  0.69934397  1
  Zr  Zr12  1  0.90054545  0.69760208  0.29441356  1
  Zr  Zr13  1  0.70939252  0.89771963  0.90103035  1
  Zr  Zr14  1  0.70408301  0.29293651  0.69557364  1
  Zr  Zr15  1  0.10019879  0.70613083  0.90473989  1
  Zr  Zr16  1  0.90087218  0.70618866  0.69779590  1
  Zr  Zr17  1  0.70293592  0.90117402  0.50065289  1
  Zr  Zr18  1  0.50300381  0.10588984  0.69481821  1
  Zr  Zr19  1  0.89702374  0.49338618  0.49684273  1
  Zr  Zr20  1  0.49483410  0.09868393  0.10242261  1
  Zr  Zr21  1  0.09803309  0.09949231  0.10051074  1
  Zr  Zr22  1  0.30110507  0.89528453  0.30867734  1
  Zr  Zr23  1  0.29678740  0.89769640  0.90379140  1
  Zr  Zr24  1  0.70833564  0.49980034  0.50141700  1
  Zr  Zr25  1  0.50310799  0.10308254  0.48778500  1
  Zr  Zr26  1  0.10025021  0.30354365  0.89190265  1
  Zr  Zr27  1  0.29917817  0.10535988  0.89810322  1
  Zr  Zr28  1  0.29823129  0.10440530  0.49713975  1
  Zr  Zr29  1  0.30067285  0.09621781  0.09436032  1
  Zr  Zr30  1  0.50613558  0.69389743  0.90611043  1
  Zr  Zr31  1  0.30263501  0.29600171  0.50223033  1
  Zr  Zr32  1  0.70312025  0.29946638  0.89610502  1
  Zr  Zr33  1  0.30037051  0.70061748  0.70089497  1
  Zr  Zr34  1  0.09304283  0.70076931  0.10236370  1
  Zr  Zr35  1  0.09750537  0.30153728  0.09964177  1
  Zr  Zr36  1  0.30107818  0.70560882  0.49797830  1
  Zr  Zr37  1  0.90324842  0.29636827  0.70197228  1
  Zr  Zr38  1  0.49259011  0.69772392  0.29301468  1
  Zr  Zr39  1  0.10127313  0.30017862  0.70284378  1
  Zr  Zr40  1  0.10100254  0.30157226  0.29386539  1
  Zr  Zr41  1  0.50120087  0.30191697  0.89646063  1
  Zr  Zr42  1  0.90435708  0.10071575  0.70339679  1
  Zr  Zr43  1  0.29780477  0.30123540  0.30443181  1
  Zr  Zr44  1  0.09860302  0.09784949  0.30550408  1
  Zr  Zr45  1  0.69835682  0.89025497  0.09687391  1
  Zr  Zr46  1  0.90334320  0.90782852  0.30564704  1
  Zr  Zr47  1  0.10039251  0.30200878  0.50275894  1
  Zr  Zr48  1  0.29774071  0.70732583  0.30201255  1
  Zr  Zr49  1  0.50315685  0.90151888  0.49424863  1
  Sc  Sc50  1  0.50623432  0.70318122  0.09655415  1
  Sc  Sc51  1  0.51260050  0.29609634  0.69968253  1
  Sc  Sc52  1  0.09559063  0.90310364  0.49462790  1
  Sc  Sc53  1  0.50547231  0.51440536  0.69712063  1
  Sc  Sc54  1  0.70612216  0.90030082  0.30288942  1
  Sc  Sc55  1  0.29809672  0.29974601  0.89846162  1
  Sc  Sc56  1  0.30394942  0.11388295  0.70124753  1
  Sc  Sc57  1  0.29630507  0.50424729  0.70791033  1
  Sc  Sc58  1  0.71343947  0.10741921  0.10658087  1
  Sc  Sc59  1  0.10634193  0.49258529  0.89636925  1
  Sc  Sc60  1  0.70132727  0.69797124  0.68668657  1
  Sc  Sc61  1  0.88972157  0.69842577  0.50496197  1
  Sc  Sc62  1  0.30033889  0.70043391  0.09148283  1
  Sc  Sc63  1  0.09947288  0.48859321  0.09976334  1
  Sc  Sc64  1  0.50614575  0.90553516  0.70707396  1
  Sc  Sc65  1  0.90345085  0.10310625  0.49250431  1
  Sc  Sc66  1  0.31209937  0.50539941  0.49863304  1
  Sc  Sc67  1  0.89295246  0.70038032  0.10208473  1
  Sc  Sc68  1  0.89735254  0.10127423  0.29797531  1
  Sc  Sc69  1  0.89297519  0.49974294  0.09930023  1
  Sc  Sc70  1  0.08889847  0.89312710  0.69845635  1
  Sc  Sc71  1  0.50998733  0.30478036  0.10691768  1
  Sc  Sc72  1  0.10058166  0.10272696  0.49667837  1
  Sc  Sc73  1  0.30010755  0.69534414  0.89663740  1
  Sc  Sc74  1  0.90646936  0.29574515  0.90368058  1
  Sc  Sc75  1  0.89662515  0.50390864  0.69043272  1
  Sc  Sc76  1  0.49002619  0.10254429  0.89421707  1
  Sc  Sc77  1  0.89557467  0.29813819  0.50051631  1
  Sc  Sc78  1  0.88922640  0.49688794  0.29767590  1
  Sc  Sc79  1  0.50634820  0.51134784  0.89826522  1
  Sc  Sc80  1  0.49082440  0.89416081  0.10053537  1
  Sc  Sc81  1  0.69767372  0.49910407  0.69683595  1
  Sc  Sc82  1  0.09634131  0.70445463  0.70195727  1
  Sc  Sc83  1  0.29150516  0.29765177  0.70095555  1
  Sc  Sc84  1  0.48726897  0.89954566  0.29737467  1
  Sc  Sc85  1  0.89507280  0.29699027  0.10050974  1
  Sc  Sc86  1  0.89952478  0.29872326  0.30536339  1
  Sc  Sc87  1  0.89843019  0.89854958  0.70236107  1
  Sc  Sc88  1  0.09080769  0.89542308  0.90205334  1
  Sc  Sc89  1  0.09324282  0.10027448  0.90130568  1
  Sc  Sc90  1  0.90020699  0.90067274  0.09437017  1
  Sc  Sc91  1  0.69869292  0.29688134  0.28728548  1
  Sc  Sc92  1  0.29152833  0.30381021  0.09541183  1
  Sc  Sc93  1  0.09025190  0.71140050  0.50435646  1
  Sc  Sc94  1  0.49941150  0.50724937  0.09653146  1
  Sc  Sc95  1  0.50398852  0.29203443  0.50349490  1
  Sc  Sc96  1  0.50107757  0.89778911  0.90088213  1
  Sc  Sc97  1  0.70392407  0.49964452  0.10856778  1
  Sc  Sc98  1  0.09860173  0.89232916  0.09082267  1
  Sc  Sc99  1  0.89922111  0.90085311  0.50177204  1
  Nb  Nb100  1  0.10315433  0.10213212  0.70241528  1
  Nb  Nb101  1  0.09850579  0.69656067  0.29786933  1
  Nb  Nb102  1  0.09864888  0.49517291  0.69640804  1
  Nb  Nb103  1  0.30064560  0.90236377  0.49763228  1
  Nb  Nb104  1  0.30036207  0.90529914  0.10490020  1
  Nb  Nb105  1  0.09604378  0.49854290  0.50201257  1
  Nb  Nb106  1  0.70426340  0.30472672  0.50424005  1
  Nb  Nb107  1  0.89706787  0.89525093  0.90228746  1
  Nb  Nb108  1  0.29722861  0.49640568  0.10131476  1
  Nb  Nb109  1  0.50442021  0.10169243  0.29882508  1
  Nb  Nb110  1  0.29804799  0.89979706  0.69932832  1
  Nb  Nb111  1  0.89243987  0.69875716  0.89883869  1
  Nb  Nb112  1  0.88925084  0.50983474  0.90077848  1
  Nb  Nb113  1  0.69760739  0.29813862  0.09643691  1
  Nb  Nb114  1  0.70161922  0.69461929  0.91072266  1
  Nb  Nb115  1  0.70558553  0.50826971  0.90361534  1
  Nb  Nb116  1  0.49786189  0.49915961  0.49351673  1
  Nb  Nb117  1  0.69972558  0.69531563  0.29430870  1
  Nb  Nb118  1  0.70580960  0.10035408  0.70077847  1
  Nb  Nb119  1  0.69675187  0.70208952  0.10066153  1
  Nb  Nb120  1  0.49986034  0.49693214  0.30414197  1
  Nb  Nb121  1  0.69689913  0.70102392  0.49562657  1
  Nb  Nb122  1  0.69597998  0.49891691  0.30157277  1
  Nb  Nb123  1  0.90026012  0.08591558  0.90589340  1
  Nb  Nb124  1  0.10038067  0.49868908  0.29946873  1
  Nb  Nb125  1  0.60542428  0.19946391  -0.00017705  1
  Nb  Nb126  1  0.60294752  0.40518740  0.40041939  1
  Nb  Nb127  1  0.80018449  0.40539097  0.80573980  1
  Nb  Nb128  1  -0.00482177  0.59834819  0.80489231  1
  Nb  Nb129  1  0.60280426  0.59875941  0.39573863  1
  Nb  Nb130  1  0.39408279  -0.00202885  0.59853182  1
  Nb  Nb131  1  0.40483352  0.40230521  0.79643795  1
  Nb  Nb132  1  0.40078076  0.20216545  0.20364261  1
  Nb  Nb133  1  0.00473086  0.59601930  0.39717912  1
  Nb  Nb134  1  0.59809478  0.00135234  0.19748665  1
  Nb  Nb135  1  0.40055200  0.40131687  0.20345733  1
  Nb  Nb136  1  0.60328803  0.00520391  0.00497129  1
  Nb  Nb137  1  0.60888548  0.79367026  0.80491164  1
  Nb  Nb138  1  0.20428139  -0.00200839  0.60531978  1
  Nb  Nb139  1  0.61031155  0.40000976  -0.00316406  1
  Nb  Nb140  1  0.19190780  0.59580040  0.59558087  1
  Nb  Nb141  1  0.18851021  0.59979579  0.40100583  1
  Nb  Nb142  1  0.60336594  0.78891584  0.39879016  1
  Nb  Nb143  1  -0.00615473  0.59966539  -0.00853684  1
  Nb  Nb144  1  0.39748797  0.80919965  0.60351074  1
  Nb  Nb145  1  0.19707404  0.59724200  0.20477681  1
  Nb  Nb146  1  0.19963859  -0.00027340  0.79288205  1
  Nb  Nb147  1  0.19613992  0.40942458  0.40220937  1
  Nb  Nb148  1  0.40500414  0.40219755  0.60378948  1
  Nb  Nb149  1  0.20353462  -0.00581581  0.19903465  1
  Pd  Pd150  1  -0.00674855  0.39656702  0.60151668  1
  Pd  Pd151  1  0.00299049  0.60297271  0.59985798  1
  Pd  Pd152  1  0.21204677  0.41039457  0.59537722  1
  Pd  Pd153  1  0.18894729  0.59868200  0.79465804  1
  Pd  Pd154  1  0.20652970  0.19078937  0.19890924  1
  Pd  Pd155  1  0.19899805  0.80212013  0.59630923  1
  Pd  Pd156  1  0.59407943  0.40453782  0.59441619  1
  Pd  Pd157  1  -0.01032013  0.40247679  0.19950913  1
  Pd  Pd158  1  0.79996605  0.79822466  0.39873832  1
  Pd  Pd159  1  0.19552481  0.80658174  0.80164588  1
  Pd  Pd160  1  0.20447138  0.79829347  0.19098562  1
  Pd  Pd161  1  0.19230257  -0.00407703  -0.00381628  1
  Pd  Pd162  1  0.40752250  0.80167116  0.79943411  1
  Pd  Pd163  1  0.39226703  0.00162259  0.79410781  1
  Pd  Pd164  1  0.00558677  0.00129301  0.59690682  1
  Pd  Pd165  1  0.81062025  0.20111821  0.80515483  1
  Pd  Pd166  1  0.00311316  0.19841884  0.59667046  1
  Pd  Pd167  1  0.79520989  -0.00162354  0.19801059  1
  Pd  Pd168  1  0.80045075  0.39434386  0.20277633  1
  Pd  Pd169  1  -0.00631692  0.20090256  0.20314508  1
  Pd  Pd170  1  0.79534491  0.20499135  0.39871068  1
  Pd  Pd171  1  0.79354296  0.79533370  0.79587992  1
  Pd  Pd172  1  0.60314487  0.18784244  0.80589773  1
  Pd  Pd173  1  0.81047258  0.00620083  0.59755058  1
  Pd  Pd174  1  0.59920334  0.59583085  0.19892953  1
  Pd  Pd175  1  0.59508926  0.00499414  0.59937711  1
  Pd  Pd176  1  0.00070030  0.20007652  -0.00311716  1
  Pd  Pd177  1  0.00020802  0.40094747  0.39710511  1
  Pd  Pd178  1  0.59708504  0.80882886  0.20920981  1
  Pd  Pd179  1  0.19093149  0.59520725  0.00947424  1
  Pd  Pd180  1  -0.00706471  0.80687482  0.19739386  1
  Pd  Pd181  1  0.41014280  0.39962282  0.00213000  1
  Pd  Pd182  1  0.80253404  0.60204355  0.39609124  1
  Pd  Pd183  1  -0.00611860  0.40721554  -0.00286176  1
  Pd  Pd184  1  0.00039416  0.58991633  0.19545383  1
  Pd  Pd185  1  0.60237777  0.41171164  0.80363302  1
  Pd  Pd186  1  0.79697462  0.59941637  0.78797726  1
  Pd  Pd187  1  0.40657857  0.21307246  0.00915195  1
  Pd  Pd188  1  0.39769862  0.79725077  -0.00057661  1
  Pd  Pd189  1  0.00238858  -0.00314428  0.80272032  1
  Pd  Pd190  1  0.79857937  0.39806893  -0.00329477  1
  Pd  Pd191  1  0.19411683  0.20401780  -0.00496343  1
  Pd  Pd192  1  0.59691112  0.80359500  0.60448269  1
  Pd  Pd193  1  0.60138451  0.00165618  0.80964288  1
  Pd  Pd194  1  0.80442431  0.80341297  0.20175893  1
  Pd  Pd195  1  -0.01189410  0.41144383  0.79913997  1
  Pd  Pd196  1  -0.01003280  0.79197156  0.40325529  1
  Pd  Pd197  1  0.00822017  -0.00745109  0.19635331  1
  Pd  Pd198  1  0.40594010  -0.00462306  -0.00663494  1
  Pd  Pd199  1  0.39435789  0.59899076  0.18953799  1
  Rh  Rh200  1  0.59525047  0.40908337  0.19806132  1
  Rh  Rh201  1  0.21057580  0.40835262  0.20739642  1
  Rh  Rh202  1  -0.01185235  0.79218137  -0.00274822  1
  Rh  Rh203  1  0.39791581  0.59393852  0.80540987  1
  Rh  Rh204  1  0.61260697  0.60914916  0.79981601  1
  Rh  Rh205  1  0.41221213  0.79334127  0.41108031  1
  Rh  Rh206  1  0.80267271  0.00318621  0.40265915  1
  Rh  Rh207  1  0.20917475  0.40179913  0.79988966  1
  Rh  Rh208  1  0.19450284  0.19481184  0.80384939  1
  Rh  Rh209  1  0.60766428  0.59232025  0.59242549  1
  Rh  Rh210  1  0.81056858  -0.00022833  0.79581666  1
  Rh  Rh211  1  0.19328914  0.20978035  0.40108745  1
  Rh  Rh212  1  -0.00680781  0.80479600  0.59787412  1
  Rh  Rh213  1  0.39721335  0.00397271  0.20527991  1
  Rh  Rh214  1  0.79759931  0.80327708  0.59813077  1
  Rh  Rh215  1  0.39873383  0.60156600  0.00208132  1
  Rh  Rh216  1  0.39344984  0.79584243  0.19137478  1
  Rh  Rh217  1  0.80489061  0.39506817  0.60983483  1
  Rh  Rh218  1  0.59844346  0.18978914  0.19043370  1
  Rh  Rh219  1  0.40530781  0.61121356  0.40064400  1
  Rh  Rh220  1  0.61165944  0.21301400  0.40685613  1
  Rh  Rh221  1  0.61107059  0.59354872  0.01089879  1
  Rh  Rh222  1  0.00266955  0.20338069  0.39836395  1
  Rh  Rh223  1  0.79467779  0.60073968  0.19830058  1
  Rh  Rh224  1  0.38991712  0.59687783  0.60720957  1
  Rh  Rh225  1  0.20530622  0.80142602  0.00137139  1
  Rh  Rh226  1  0.78964044  0.39086439  0.39433728  1
  Rh  Rh227  1  0.19300106  0.19302405  0.60080416  1
  Rh  Rh228  1  0.80248033  0.19936974  -0.00240549  1
  Rh  Rh229  1  0.80257327  0.79345679  0.00310533  1
  Rh  Rh230  1  0.19625660  -0.00568144  0.39950075  1
  Rh  Rh231  1  0.60790324  0.19440680  0.59622036  1
  Rh  Rh232  1  0.59751371  -0.01371917  0.38574984  1
  Rh  Rh233  1  0.40359964  0.00325608  0.40299454  1
  Rh  Rh234  1  0.80517817  0.20236642  0.20174020  1
  Rh  Rh235  1  0.19701690  0.39671027  -0.00287038  1
  Rh  Rh236  1  0.60246559  0.80463447  -0.00727388  1
  Rh  Rh237  1  0.79866122  0.60116958  0.59855322  1
  Rh  Rh238  1  0.40148762  0.21446088  0.79347410  1
  Rh  Rh239  1  -0.00045218  0.00235888  0.40065238  1
  Rh  Rh240  1  0.19268437  0.79655627  0.40741961  1
  Rh  Rh241  1  -0.00174743  0.19181320  0.80603355  1
  Rh  Rh242  1  0.40470081  0.38870737  0.40533563  1
  Rh  Rh243  1  0.80065418  0.19480841  0.59727710  1
  Rh  Rh244  1  0.40329012  0.20096894  0.39466967  1
  Rh  Rh245  1  0.79805301  0.60607406  0.01248635  1
  Rh  Rh246  1  -0.00705480  0.79416149  0.80603961  1
  Rh  Rh247  1  0.79864920  -0.00409078  0.00677169  1
  Rh  Rh248  1  0.40271723  0.20367515  0.60409538  1
  Rh  Rh249  1  -0.00056277  -0.00478772  -0.00135484  1
