# generated using pymatgen
data_ZrScNbPdRh
_symmetry_space_group_name_H-M   'P 1'
_cell_length_a   16.55356888
_cell_length_b   16.55479868
_cell_length_c   16.55589244
_cell_angle_alpha   89.99959673
_cell_angle_beta   89.97077715
_cell_angle_gamma   90.00910121
_symmetry_Int_Tables_number   1
_chemical_formula_structural   ZrScNbPdRh
_chemical_formula_sum   'Zr50 Sc50 Nb50 Pd50 Rh50'
_cell_volume   4536.99267644
_cell_formula_units_Z   50
loop_
 _symmetry_equiv_pos_site_id
 _symmetry_equiv_pos_as_xyz
  1  'x, y, z'
loop_
 _atom_site_type_symbol
 _atom_site_label
 _atom_site_symmetry_multiplicity
 _atom_site_fract_x
 _atom_site_fract_y
 _atom_site_fract_z
 _atom_site_occupancy
  Zr  Zr0  1  0.89952920  0.70941674  0.70723891  1
  Zr  Zr1  1  0.29686744  0.10292512  0.70380740  1
  Zr  Zr2  1  0.70438696  0.90558360  0.10426113  1
  Zr  Zr3  1  0.69317734  0.49163065  0.09400975  1
  Zr  Zr4  1  0.30021636  0.49753348  0.29465555  1
  Zr  Zr5  1  0.29813478  0.10359183  0.10948992  1
  Zr  Zr6  1  0.10322380  0.68801214  0.69815241  1
  Zr  Zr7  1  0.49832065  0.30024770  0.70228511  1
  Zr  Zr8  1  0.70057970  0.69241267  0.69873683  1
  Zr  Zr9  1  0.90184197  0.50132436  0.30930306  1
  Zr  Zr10  1  0.10276777  0.29367397  0.10584777  1
  Zr  Zr11  1  0.30537035  0.50481275  0.89783941  1
  Zr  Zr12  1  0.29939941  0.90803754  0.29543461  1
  Zr  Zr13  1  0.09774957  0.30160497  0.89008392  1
  Zr  Zr14  1  0.70194843  0.29787341  0.90334262  1
  Zr  Zr15  1  0.28946700  0.50385819  0.69754758  1
  Zr  Zr16  1  0.09150831  0.69113580  0.89719682  1
  Zr  Zr17  1  0.30130156  0.29661467  0.29819071  1
  Zr  Zr18  1  0.50289815  0.49535653  0.69924551  1
  Zr  Zr19  1  0.50169749  0.49416567  0.09448606  1
  Zr  Zr20  1  0.09679419  0.10689119  0.69935462  1
  Zr  Zr21  1  0.09229169  0.90336399  0.10412366  1
  Zr  Zr22  1  0.70256476  0.89986501  0.49843083  1
  Zr  Zr23  1  0.50282192  0.10201651  0.48363287  1
  Zr  Zr24  1  0.50157077  0.09587639  0.88725955  1
  Zr  Zr25  1  0.09894524  0.10481223  0.89851738  1
  Zr  Zr26  1  0.69793663  0.69801823  0.89142919  1
  Zr  Zr27  1  0.30677573  0.49435259  0.09779674  1
  Zr  Zr28  1  0.09906322  0.90163712  0.30372252  1
  Zr  Zr29  1  0.49533752  0.90205190  0.90498773  1
  Zr  Zr30  1  0.09089022  0.90364672  0.90611215  1
  Zr  Zr31  1  0.90180106  0.50105155  0.10685652  1
  Zr  Zr32  1  0.50435617  0.90722102  0.70597347  1
  Zr  Zr33  1  0.90206857  0.70411698  0.10474809  1
  Zr  Zr34  1  0.50099441  0.30241615  0.49868053  1
  Zr  Zr35  1  0.30004239  0.29811899  0.89615598  1
  Zr  Zr36  1  0.89822438  0.11469064  0.30286561  1
  Zr  Zr37  1  0.90235482  0.89676892  0.89305512  1
  Zr  Zr38  1  0.50155827  0.09549891  0.29831474  1
  Zr  Zr39  1  0.90438992  0.09510100  0.89008539  1
  Zr  Zr40  1  0.50806780  0.70214504  0.50222308  1
  Zr  Zr41  1  0.50157920  0.49881427  0.90023254  1
  Zr  Zr42  1  0.50614712  0.49856946  0.50430002  1
  Zr  Zr43  1  0.70028044  0.70308054  0.49845437  1
  Zr  Zr44  1  0.09807351  0.90269813  0.49897560  1
  Zr  Zr45  1  0.29642411  0.69930784  0.70008962  1
  Zr  Zr46  1  0.69631301  0.29385147  0.09237683  1
  Zr  Zr47  1  0.50059780  0.70292114  0.90142595  1
  Zr  Zr48  1  0.09984342  0.09899602  0.29894008  1
  Zr  Zr49  1  0.09421877  0.70365533  0.09777261  1
  Sc  Sc50  1  0.50140881  0.29914905  0.89512935  1
  Sc  Sc51  1  0.89412437  0.88412990  0.50957260  1
  Sc  Sc52  1  0.49990758  0.28546209  0.29936884  1
  Sc  Sc53  1  0.50772727  0.09828578  0.10330091  1
  Sc  Sc54  1  0.10189388  0.50935466  0.10315057  1
  Sc  Sc55  1  0.50229258  0.89703099  0.49917247  1
  Sc  Sc56  1  0.69843854  0.89900876  0.29624291  1
  Sc  Sc57  1  0.29969217  0.89220191  0.69709676  1
  Sc  Sc58  1  0.10083795  0.89452087  0.69332821  1
  Sc  Sc59  1  0.09480827  0.29345975  0.30272227  1
  Sc  Sc60  1  0.89423867  0.69751555  0.49189645  1
  Sc  Sc61  1  0.30443324  0.70063079  0.28874625  1
  Sc  Sc62  1  0.09603309  0.09896941  0.10789770  1
  Sc  Sc63  1  0.10606133  0.10624148  0.50673350  1
  Sc  Sc64  1  0.88910433  0.49480467  0.70279577  1
  Sc  Sc65  1  0.89255876  0.30259951  0.89133530  1
  Sc  Sc66  1  0.29589763  0.30089134  0.49717984  1
  Sc  Sc67  1  0.10237362  0.29326635  0.50219621  1
  Sc  Sc68  1  0.29319344  0.89890017  0.50304058  1
  Sc  Sc69  1  0.71265357  0.89906985  0.69936376  1
  Sc  Sc70  1  0.90361631  0.49718089  0.89227654  1
  Sc  Sc71  1  0.90182447  0.90178387  0.09905828  1
  Sc  Sc72  1  0.70525545  0.30528909  0.70204126  1
  Sc  Sc73  1  0.89373852  0.09547262  0.10378726  1
  Sc  Sc74  1  0.69933716  0.50557439  0.29378285  1
  Sc  Sc75  1  0.69376028  0.70064802  0.10998723  1
  Sc  Sc76  1  0.50130908  0.70723960  0.70011909  1
  Sc  Sc77  1  0.30366209  0.30069037  0.10625220  1
  Sc  Sc78  1  0.68942401  0.90663638  0.90101476  1
  Sc  Sc79  1  0.50743554  0.89749533  0.10214452  1
  Sc  Sc80  1  0.70013557  0.29197221  0.30207222  1
  Sc  Sc81  1  0.89692754  0.12372809  0.50735604  1
  Sc  Sc82  1  0.31313292  0.90254657  0.10143619  1
  Sc  Sc83  1  0.09554706  0.71060551  0.49921514  1
  Sc  Sc84  1  0.30208539  0.68919645  0.09743898  1
  Sc  Sc85  1  0.71184521  0.09994290  0.70597724  1
  Sc  Sc86  1  0.29480099  0.30545064  0.70235897  1
  Sc  Sc87  1  0.50602426  0.50055744  0.29223869  1
  Sc  Sc88  1  0.29655222  0.49072577  0.49969072  1
  Sc  Sc89  1  0.30845315  0.10052346  0.30258447  1
  Sc  Sc90  1  0.70472343  0.50176016  0.51484419  1
  Sc  Sc91  1  0.89386904  0.29166354  0.69910719  1
  Sc  Sc92  1  0.89104918  0.89301689  0.29198975  1
  Sc  Sc93  1  0.69228801  0.09967477  0.29794934  1
  Sc  Sc94  1  0.10083392  0.30048362  0.70106067  1
  Sc  Sc95  1  0.10659548  0.50088586  0.50177171  1
  Sc  Sc96  1  0.69830484  0.09704233  0.09847904  1
  Sc  Sc97  1  0.71203574  0.29980984  0.50411751  1
  Sc  Sc98  1  0.09656201  0.50102270  0.30036044  1
  Sc  Sc99  1  0.10035168  0.49530807  0.70810476  1
  Nb  Nb100  1  0.90175101  0.49400363  0.49925477  1
  Nb  Nb101  1  0.89991540  0.29811776  0.10313347  1
  Nb  Nb102  1  0.69891636  0.50075577  0.89498581  1
  Nb  Nb103  1  0.09638537  0.70791625  0.30218619  1
  Nb  Nb104  1  0.69903443  0.10180807  0.49565993  1
  Nb  Nb105  1  0.50196872  0.29720970  0.09100463  1
  Nb  Nb106  1  0.49719299  0.90256755  0.29781407  1
  Nb  Nb107  1  0.30538231  0.69899792  0.50096970  1
  Nb  Nb108  1  0.89822760  0.30632710  0.49441317  1
  Nb  Nb109  1  0.89872932  0.70151735  0.90006642  1
  Nb  Nb110  1  0.89074606  0.69834893  0.29922583  1
  Nb  Nb111  1  0.69573663  0.10327539  0.90638082  1
  Nb  Nb112  1  0.69477914  0.50012017  0.70328705  1
  Nb  Nb113  1  0.30097354  0.89969596  0.90431548  1
  Nb  Nb114  1  0.89961337  0.30146763  0.30534669  1
  Nb  Nb115  1  0.90266855  0.09699080  0.70252363  1
  Nb  Nb116  1  0.50425106  0.69750750  0.10838347  1
  Nb  Nb117  1  0.90026977  0.90535435  0.69999084  1
  Nb  Nb118  1  0.51158382  0.70271637  0.29605200  1
  Nb  Nb119  1  0.49931793  0.10223592  0.69920691  1
  Nb  Nb120  1  0.30179551  0.09839971  0.90157032  1
  Nb  Nb121  1  0.70389925  0.70389934  0.30091823  1
  Nb  Nb122  1  0.09653680  0.49507825  0.89732427  1
  Nb  Nb123  1  0.29782018  0.70640351  0.89567519  1
  Nb  Nb124  1  0.30068105  0.10037924  0.50946054  1
  Nb  Nb125  1  0.80437384  0.00535475  0.40489149  1
  Nb  Nb126  1  0.40445419  0.79463156  0.39413211  1
  Nb  Nb127  1  0.40425008  0.00719186  0.60000079  1
  Nb  Nb128  1  0.20338413  0.80191837  -0.00317819  1
  Nb  Nb129  1  0.59990672  0.19391677  0.59975684  1
  Nb  Nb130  1  0.60221999  0.39980351  0.40360021  1
  Nb  Nb131  1  0.20197130  -0.00224526  0.80748301  1
  Nb  Nb132  1  -0.01010602  0.00286730  0.40852998  1
  Nb  Nb133  1  0.39833478  0.60213954  0.59464880  1
  Nb  Nb134  1  0.80636655  0.39262651  0.20076019  1
  Nb  Nb135  1  -0.00452539  0.20642808  0.00164374  1
  Nb  Nb136  1  -0.00950109  0.00253214  0.59996241  1
  Nb  Nb137  1  0.40049017  0.19567699  -0.00319023  1
  Nb  Nb138  1  0.79893252  0.60161905  -0.00436130  1
  Nb  Nb139  1  -0.00618543  0.59398987  0.59794056  1
  Nb  Nb140  1  -0.00844749  0.40053207  0.59372802  1
  Nb  Nb141  1  0.40386115  0.19550651  0.59956719  1
  Nb  Nb142  1  0.80035594  0.79317936  -0.00502306  1
  Nb  Nb143  1  0.20498526  -0.00108968  -0.00281461  1
  Nb  Nb144  1  0.19538925  0.80126689  0.19511743  1
  Nb  Nb145  1  0.60033599  0.00934354  0.59900010  1
  Nb  Nb146  1  0.40122384  0.60451310  0.40035582  1
  Nb  Nb147  1  0.19515006  0.40214769  -0.00325457  1
  Nb  Nb148  1  0.20638148  0.60877103  0.39861071  1
  Nb  Nb149  1  0.00344904  0.39578719  0.00263212  1
  Pd  Pd150  1  0.39055863  -0.00608694  0.79337146  1
  Pd  Pd151  1  0.80803075  0.40787717  0.00100904  1
  Pd  Pd152  1  0.60377140  0.39670111  0.80353883  1
  Pd  Pd153  1  0.41208330  0.39185528  0.20352407  1
  Pd  Pd154  1  0.40513789  0.60354215  0.79152872  1
  Pd  Pd155  1  -0.00890243  0.59109864  -0.00351355  1
  Pd  Pd156  1  0.40317215  0.00845453  0.00770408  1
  Pd  Pd157  1  0.19854981  0.79598855  0.59674105  1
  Pd  Pd158  1  0.80319894  0.00829378  0.59225984  1
  Pd  Pd159  1  0.40517141  0.60778815  0.00012176  1
  Pd  Pd160  1  0.19275630  0.40309877  0.39668921  1
  Pd  Pd161  1  0.80171200  -0.00559853  -0.00649923  1
  Pd  Pd162  1  0.19818713  0.00899122  0.40505705  1
  Pd  Pd163  1  -0.00022943  0.39705638  0.20024605  1
  Pd  Pd164  1  0.79393059  0.59587250  0.19414205  1
  Pd  Pd165  1  0.39709109  0.79193336  0.00800617  1
  Pd  Pd166  1  0.60360462  0.59270281  0.39778969  1
  Pd  Pd167  1  0.40001791  0.79911279  0.19858117  1
  Pd  Pd168  1  0.01089709  0.39536335  0.40613168  1
  Pd  Pd169  1  0.21170823  0.79434211  0.39214978  1
  Pd  Pd170  1  0.79103690  0.59494014  0.40327630  1
  Pd  Pd171  1  0.79309199  -0.00175204  0.80781581  1
  Pd  Pd172  1  0.80864457  0.19226619  -0.00375125  1
  Pd  Pd173  1  0.78888297  0.40564326  0.39347752  1
  Pd  Pd174  1  0.00838282  0.60448792  0.40650276  1
  Pd  Pd175  1  0.40057922  0.80253606  0.79867278  1
  Pd  Pd176  1  0.20384383  0.19321150  0.39860980  1
  Pd  Pd177  1  0.00219981  0.60624574  0.20979796  1
  Pd  Pd178  1  0.60403685  0.38865181  0.20717062  1
  Pd  Pd179  1  0.60561858  0.80564884  0.79647774  1
  Pd  Pd180  1  0.19199175  0.80436279  0.80606049  1
  Pd  Pd181  1  0.79433440  0.20199083  0.19876694  1
  Pd  Pd182  1  0.20109408  0.20070494  0.00207445  1
  Pd  Pd183  1  0.00875134  0.80151648  0.79450060  1
  Pd  Pd184  1  0.19355842  0.40056279  0.19838701  1
  Pd  Pd185  1  0.39142551  0.39916534  0.60224716  1
  Pd  Pd186  1  0.60625602  0.80943958  0.60740284  1
  Pd  Pd187  1  0.80804680  0.60216499  0.60073449  1
  Pd  Pd188  1  0.19378077  0.60688355  0.20716284  1
  Pd  Pd189  1  0.39533844  -0.00954122  0.40845758  1
  Pd  Pd190  1  0.60372726  0.60428808  0.00259922  1
  Pd  Pd191  1  0.59841005  0.80706070  0.39252975  1
  Pd  Pd192  1  0.40898103  0.59804342  0.20245619  1
  Pd  Pd193  1  0.40882810  0.40449648  0.39144861  1
  Pd  Pd194  1  0.80442301  0.59522537  0.80313308  1
  Pd  Pd195  1  -0.01314660  0.80574320  0.39606042  1
  Pd  Pd196  1  0.60969272  0.19840487  0.79358929  1
  Pd  Pd197  1  0.60644578  0.79916940  0.00545752  1
  Pd  Pd198  1  -0.01279348  0.00176767  0.21012413  1
  Pd  Pd199  1  0.20068501  0.59944382  -0.00527931  1
  Rh  Rh200  1  -0.00077168  0.79852459  0.20847460  1
  Rh  Rh201  1  0.60006330  -0.00360121  0.20231854  1
  Rh  Rh202  1  0.20378401  0.40603480  0.80518701  1
  Rh  Rh203  1  0.59267532  0.59836680  0.79676338  1
  Rh  Rh204  1  0.59647033  0.00367929  -0.00108142  1
  Rh  Rh205  1  0.79640720  0.79725571  0.19441627  1
  Rh  Rh206  1  0.39551239  0.38815799  -0.00173982  1
  Rh  Rh207  1  -0.00283579  0.20161959  0.19792045  1
  Rh  Rh208  1  0.20257277  -0.00555820  0.19186123  1
  Rh  Rh209  1  0.20195680  0.19657776  0.79772198  1
  Rh  Rh210  1  0.80388173  0.39908013  0.60425050  1
  Rh  Rh211  1  0.79812072  0.00515630  0.21037161  1
  Rh  Rh212  1  -0.00366462  0.79583610  0.60429673  1
  Rh  Rh213  1  -0.00295959  0.20517755  0.60197190  1
  Rh  Rh214  1  0.79913683  0.79159300  0.60460051  1
  Rh  Rh215  1  0.59787603  0.39610779  -0.01000975  1
  Rh  Rh216  1  0.79564101  0.80601583  0.80444376  1
  Rh  Rh217  1  0.19805680  -0.00068972  0.60905268  1
  Rh  Rh218  1  0.79812394  0.19563265  0.80347007  1
  Rh  Rh219  1  0.39036127  0.20077470  0.40549658  1
  Rh  Rh220  1  0.00206571  0.01419948  0.00680819  1
  Rh  Rh221  1  0.60832947  -0.00753625  0.39993381  1
  Rh  Rh222  1  0.59466287  0.60121387  0.60830296  1
  Rh  Rh223  1  0.39774378  0.40206110  0.79885005  1
  Rh  Rh224  1  0.60180078  0.80285332  0.20300784  1
  Rh  Rh225  1  0.79520785  0.19985744  0.60515112  1
  Rh  Rh226  1  0.20804340  0.20789067  0.60323928  1
  Rh  Rh227  1  0.61120717  0.39137113  0.59615753  1
  Rh  Rh228  1  0.18993486  0.39645096  0.60115048  1
  Rh  Rh229  1  -0.00593656  0.39716109  0.79354665  1
  Rh  Rh230  1  -0.00737224  0.20654426  0.80067365  1
  Rh  Rh231  1  0.19782416  0.60220573  0.58900081  1
  Rh  Rh232  1  0.40769958  0.00270927  0.19652105  1
  Rh  Rh233  1  0.59092505  0.19444728  -0.00349823  1
  Rh  Rh234  1  0.20053472  0.19820132  0.21012284  1
  Rh  Rh235  1  0.79879809  0.80265249  0.39385676  1
  Rh  Rh236  1  0.00235777  0.19915836  0.40396001  1
  Rh  Rh237  1  -0.00558035  0.79869697  -0.00196828  1
  Rh  Rh238  1  0.39697720  0.20338061  0.80054013  1
  Rh  Rh239  1  -0.00473178  0.59435608  0.79187456  1
  Rh  Rh240  1  0.60829572  0.21127198  0.40677855  1
  Rh  Rh241  1  0.60092544  0.20098470  0.19394267  1
  Rh  Rh242  1  0.60883493  0.00375490  0.79445653  1
  Rh  Rh243  1  0.19875495  0.59777154  0.80908041  1
  Rh  Rh244  1  0.79580611  0.19857927  0.39914626  1
  Rh  Rh245  1  0.40087079  0.80304853  0.59322110  1
  Rh  Rh246  1  0.00999958  -0.00484100  0.78532592  1
  Rh  Rh247  1  0.79369382  0.40262542  0.79945924  1
  Rh  Rh248  1  0.60109028  0.60116049  0.19921398  1
  Rh  Rh249  1  0.40713274  0.20057762  0.19119012  1
