# generated using pymatgen
data_ZrScNbPdRh
_symmetry_space_group_name_H-M   'P 1'
_cell_length_a   16.56250026
_cell_length_b   16.56306474
_cell_length_c   16.55762557
_cell_angle_alpha   89.96809712
_cell_angle_beta   90.01018278
_cell_angle_gamma   90.01713944
_symmetry_Int_Tables_number   1
_chemical_formula_structural   ZrScNbPdRh
_chemical_formula_sum   'Zr50 Sc50 Nb50 Pd50 Rh50'
_cell_volume   4542.18230768
_cell_formula_units_Z   50
loop_
 _symmetry_equiv_pos_site_id
 _symmetry_equiv_pos_as_xyz
  1  'x, y, z'
loop_
 _atom_site_type_symbol
 _atom_site_label
 _atom_site_symmetry_multiplicity
 _atom_site_fract_x
 _atom_site_fract_y
 _atom_site_fract_z
 _atom_site_occupancy
  Zr  Zr0  1  0.28513094  0.09652107  0.10280210  1
  Zr  Zr1  1  0.09925287  0.50308682  0.29740595  1
  Zr  Zr2  1  0.69040113  0.30155728  0.90166969  1
  Zr  Zr3  1  0.90241964  0.30102219  0.10132712  1
  Zr  Zr4  1  0.70242897  0.09747309  0.90086010  1
  Zr  Zr5  1  0.90604775  0.70923778  0.30173783  1
  Zr  Zr6  1  0.69745809  0.29550172  0.10545548  1
  Zr  Zr7  1  0.28462911  0.29693687  0.69172161  1
  Zr  Zr8  1  0.48867960  0.70475970  0.29733532  1
  Zr  Zr9  1  0.70609706  0.30205067  0.50275152  1
  Zr  Zr10  1  0.10316155  0.09623377  0.89732398  1
  Zr  Zr11  1  0.49738549  0.89986381  0.69654219  1
  Zr  Zr12  1  0.10145044  0.89975282  0.90002081  1
  Zr  Zr13  1  0.50244789  0.30071809  0.09307828  1
  Zr  Zr14  1  0.30079626  0.29168686  0.49526542  1
  Zr  Zr15  1  0.70518631  0.89832828  0.09023089  1
  Zr  Zr16  1  0.49976320  0.50316729  0.29665515  1
  Zr  Zr17  1  0.09277488  0.09620899  0.50027243  1
  Zr  Zr18  1  0.90386991  0.10097288  0.90329244  1
  Zr  Zr19  1  0.10661904  0.90153396  0.69559981  1
  Zr  Zr20  1  0.70404487  0.70900433  0.49996850  1
  Zr  Zr21  1  0.10586828  0.69968145  0.90090912  1
  Zr  Zr22  1  0.29938591  0.29499595  0.10227304  1
  Zr  Zr23  1  0.29770205  0.50290699  0.89199628  1
  Zr  Zr24  1  0.70091066  0.10345094  0.29725001  1
  Zr  Zr25  1  0.69828922  0.90224109  0.30967405  1
  Zr  Zr26  1  0.29087470  0.49647362  0.10079247  1
  Zr  Zr27  1  0.90969818  0.30673140  0.69963374  1
  Zr  Zr28  1  0.48946181  0.09121272  0.70805453  1
  Zr  Zr29  1  0.90199315  0.70348865  0.69403577  1
  Zr  Zr30  1  0.70200361  0.29528544  0.69843304  1
  Zr  Zr31  1  0.10231382  0.89748541  0.50493119  1
  Zr  Zr32  1  0.30477443  0.69775921  0.70225469  1
  Zr  Zr33  1  0.50240200  0.90391611  0.49375871  1
  Zr  Zr34  1  0.69219306  0.50032596  0.70482662  1
  Zr  Zr35  1  0.70353194  0.51912515  0.09970999  1
  Zr  Zr36  1  0.50393374  0.49678921  0.89519733  1
  Zr  Zr37  1  0.50444666  0.90271833  0.29833563  1
  Zr  Zr38  1  0.90085840  0.10588042  0.50128582  1
  Zr  Zr39  1  0.30365733  0.88589903  0.29787035  1
  Zr  Zr40  1  0.09407772  0.69230340  0.10136954  1
  Zr  Zr41  1  0.88841195  0.69004795  0.09990393  1
  Zr  Zr42  1  0.90137817  0.10585608  0.10422745  1
  Zr  Zr43  1  0.69932946  0.90565888  0.50887352  1
  Zr  Zr44  1  0.09275621  0.70900885  0.49670080  1
  Zr  Zr45  1  0.70342741  0.10338722  0.09837416  1
  Zr  Zr46  1  0.08793569  0.89728293  0.30206777  1
  Zr  Zr47  1  0.50534870  0.69318791  0.09380727  1
  Zr  Zr48  1  0.29008191  0.89133269  0.90044659  1
  Zr  Zr49  1  0.70042024  0.09723983  0.70108607  1
  Sc  Sc50  1  0.50481494  0.50785563  0.51047889  1
  Sc  Sc51  1  0.29840348  0.70388383  0.49673286  1
  Sc  Sc52  1  0.69980255  0.50008312  0.50398173  1
  Sc  Sc53  1  0.70489397  0.49836687  0.29541450  1
  Sc  Sc54  1  0.10365043  0.30416881  0.51314899  1
  Sc  Sc55  1  0.09691391  0.49385239  0.49259379  1
  Sc  Sc56  1  0.08958388  0.29544163  0.10280274  1
  Sc  Sc57  1  0.30220279  0.10022850  0.51058686  1
  Sc  Sc58  1  0.09524766  0.70067472  0.69328124  1
  Sc  Sc59  1  0.50011512  0.50597861  0.70012201  1
  Sc  Sc60  1  0.30395844  0.10651425  0.29676845  1
  Sc  Sc61  1  0.30044560  0.30370609  0.88707324  1
  Sc  Sc62  1  0.10545521  0.09694143  0.69674715  1
  Sc  Sc63  1  0.29518125  0.50071113  0.49680257  1
  Sc  Sc64  1  0.90351508  0.89546093  0.09870442  1
  Sc  Sc65  1  0.10017067  0.50991318  0.89370216  1
  Sc  Sc66  1  0.89135569  0.90069082  0.90343620  1
  Sc  Sc67  1  0.09697202  0.30535067  0.30386068  1
  Sc  Sc68  1  0.91144075  0.10138381  0.30797051  1
  Sc  Sc69  1  0.50114034  0.49450560  0.10232154  1
  Sc  Sc70  1  0.71220999  0.70280382  0.70096783  1
  Sc  Sc71  1  0.29704729  0.29756650  0.29536291  1
  Sc  Sc72  1  0.90383120  0.29771523  0.49824029  1
  Sc  Sc73  1  0.89970743  0.90442933  0.49872365  1
  Sc  Sc74  1  0.11186528  0.89902923  0.10032286  1
  Sc  Sc75  1  0.91393798  0.29447681  0.90062222  1
  Sc  Sc76  1  0.49853251  0.70370854  0.89860428  1
  Sc  Sc77  1  0.50272372  0.88867260  0.09463564  1
  Sc  Sc78  1  0.50141227  0.30124462  0.89950344  1
  Sc  Sc79  1  0.50381948  0.09152651  0.30472616  1
  Sc  Sc80  1  0.48848184  0.10178253  0.49920648  1
  Sc  Sc81  1  0.89426233  0.29640729  0.30964649  1
  Sc  Sc82  1  0.29136670  0.49780426  0.30163866  1
  Sc  Sc83  1  0.51137468  0.09910300  0.10356869  1
  Sc  Sc84  1  0.49513843  0.29841451  0.28865322  1
  Sc  Sc85  1  0.49160930  0.89484487  0.89362470  1
  Sc  Sc86  1  0.29708027  0.69718396  0.30422236  1
  Sc  Sc87  1  0.51209776  0.29904224  0.69778203  1
  Sc  Sc88  1  0.29797558  0.89655999  0.50287676  1
  Sc  Sc89  1  0.49408588  0.69914962  0.70072063  1
  Sc  Sc90  1  0.49356971  0.70211485  0.50457308  1
  Sc  Sc91  1  0.91284909  0.51051110  0.70248382  1
  Sc  Sc92  1  0.90701256  0.51236770  0.90179186  1
  Sc  Sc93  1  0.88872961  0.89765722  0.69895081  1
  Sc  Sc94  1  0.90182489  0.70040104  0.89920407  1
  Sc  Sc95  1  0.89892395  0.10486683  0.70055726  1
  Sc  Sc96  1  0.70758637  0.10287805  0.50526473  1
  Sc  Sc97  1  0.30171248  0.49957817  0.70433485  1
  Sc  Sc98  1  0.90550822  0.49555708  0.30473908  1
  Sc  Sc99  1  0.29725849  0.70801908  0.10403128  1
  Nb  Nb100  1  0.90283398  0.69563229  0.50357830  1
  Nb  Nb101  1  0.09424093  0.70075271  0.30859634  1
  Nb  Nb102  1  0.49218916  0.09369138  0.89880489  1
  Nb  Nb103  1  0.10353439  0.29850189  0.89802611  1
  Nb  Nb104  1  0.10561956  0.49394269  0.69539941  1
  Nb  Nb105  1  0.70080712  0.90014157  0.70305635  1
  Nb  Nb106  1  0.89577603  0.49918518  0.49857646  1
  Nb  Nb107  1  0.90009788  0.90631401  0.29635331  1
  Nb  Nb108  1  0.70407464  0.30346494  0.30271808  1
  Nb  Nb109  1  0.70929137  0.69887920  0.29505588  1
  Nb  Nb110  1  0.08867522  0.49615443  0.10118265  1
  Nb  Nb111  1  0.10221830  0.31711928  0.70310194  1
  Nb  Nb112  1  0.29964276  0.69404327  0.89614846  1
  Nb  Nb113  1  0.70612898  0.89655928  0.89861139  1
  Nb  Nb114  1  0.50171767  0.30081043  0.49875273  1
  Nb  Nb115  1  0.29929999  0.90286737  0.69842935  1
  Nb  Nb116  1  0.29958231  0.90038920  0.09792684  1
  Nb  Nb117  1  0.30176353  0.09754225  0.89424970  1
  Nb  Nb118  1  0.29969756  0.09295869  0.70315159  1
  Nb  Nb119  1  0.69861231  0.70129670  0.09529395  1
  Nb  Nb120  1  0.10045300  0.09670697  0.29707717  1
  Nb  Nb121  1  0.90239282  0.49678449  0.09960793  1
  Nb  Nb122  1  0.70062666  0.50345187  0.89834963  1
  Nb  Nb123  1  0.09842505  0.09765227  0.10767879  1
  Nb  Nb124  1  0.69990320  0.70018337  0.91341266  1
  Nb  Nb125  1  0.59875611  -0.00298200  -0.00960203  1
  Nb  Nb126  1  0.59783791  0.39927140  0.39863235  1
  Nb  Nb127  1  0.61065789  0.79212512  0.19918975  1
  Nb  Nb128  1  0.79959144  0.40425182  0.80454762  1
  Nb  Nb129  1  0.19310141  0.19183366  0.40022556  1
  Nb  Nb130  1  0.19132750  0.39652837  -0.00191990  1
  Nb  Nb131  1  0.79989248  0.40617132  -0.00151565  1
  Nb  Nb132  1  0.80257292  0.60589935  0.40252960  1
  Nb  Nb133  1  0.39551529  0.00190131  0.00055216  1
  Nb  Nb134  1  0.80199994  0.39916964  0.19240921  1
  Nb  Nb135  1  0.39682769  -0.00764753  0.19138599  1
  Nb  Nb136  1  0.00510230  0.00512795  0.00464841  1
  Nb  Nb137  1  0.80253899  -0.00187829  0.20337065  1
  Nb  Nb138  1  0.61211272  0.80528438  0.80189614  1
  Nb  Nb139  1  0.60033616  0.20944270  0.40123930  1
  Nb  Nb140  1  0.19624455  0.59884619  0.60067059  1
  Nb  Nb141  1  0.40088141  0.39461947  0.59366651  1
  Nb  Nb142  1  0.39350046  0.59735099  -0.00412795  1
  Nb  Nb143  1  0.19933179  0.20054408  -0.00417570  1
  Nb  Nb144  1  0.00111523  0.80323351  0.79878419  1
  Nb  Nb145  1  0.60596550  0.60488748  0.39454338  1
  Nb  Nb146  1  0.80470550  0.40396482  0.60714359  1
  Nb  Nb147  1  0.19669168  0.00164643  0.39630127  1
  Nb  Nb148  1  0.39424080  0.19084782  -0.00443660  1
  Nb  Nb149  1  0.40703538  0.39691152  0.40444248  1
  Pd  Pd150  1  0.38770714  -0.00055865  0.39354994  1
  Pd  Pd151  1  0.19593300  0.19758500  0.79765545  1
  Pd  Pd152  1  0.19904474  0.60530858  0.20228333  1
  Pd  Pd153  1  0.01151946  0.19941455  0.78958358  1
  Pd  Pd154  1  -0.00932444  -0.00374216  0.60756290  1
  Pd  Pd155  1  0.79789528  0.80786652  0.19813680  1
  Pd  Pd156  1  0.00177405  0.40523629  -0.00897359  1
  Pd  Pd157  1  0.39337831  0.79497249  -0.00097564  1
  Pd  Pd158  1  0.80841548  0.80095775  0.40563246  1
  Pd  Pd159  1  -0.00061997  0.40795988  0.80866439  1
  Pd  Pd160  1  0.40801089  0.18792966  0.19410058  1
  Pd  Pd161  1  0.60830800  0.41031741  0.00846962  1
  Pd  Pd162  1  0.38951140  0.39900490  -0.00286517  1
  Pd  Pd163  1  0.18977725  0.39375264  0.19466233  1
  Pd  Pd164  1  0.39691251  0.40388562  0.20547919  1
  Pd  Pd165  1  0.59398663  0.18858324  0.59389900  1
  Pd  Pd166  1  0.60104080  0.79404875  0.61069411  1
  Pd  Pd167  1  0.39662955  0.80337297  0.59631413  1
  Pd  Pd168  1  0.60429514  0.61187907  0.59835896  1
  Pd  Pd169  1  0.20428721  -0.00723073  0.21210113  1
  Pd  Pd170  1  0.80186470  0.21074755  -0.00752158  1
  Pd  Pd171  1  0.80147519  0.60119602  0.80352067  1
  Pd  Pd172  1  -0.00676047  0.59803605  0.20490446  1
  Pd  Pd173  1  0.00034903  0.39477341  0.40298684  1
  Pd  Pd174  1  0.59677045  0.79111376  0.39459462  1
  Pd  Pd175  1  0.00960216  0.59251641  0.59338646  1
  Pd  Pd176  1  -0.00125727  0.80376839  -0.00255116  1
  Pd  Pd177  1  0.19374303  0.60342917  0.40698440  1
  Pd  Pd178  1  0.38989623  0.59845323  0.19131509  1
  Pd  Pd179  1  0.19577799  0.79317348  0.79092615  1
  Pd  Pd180  1  0.20118505  0.59657638  0.00438222  1
  Pd  Pd181  1  0.59346990  0.19441884  0.80401944  1
  Pd  Pd182  1  0.40441153  0.59332564  0.40652429  1
  Pd  Pd183  1  0.60003539  0.60583090  0.20648550  1
  Pd  Pd184  1  -0.00784087  -0.00816096  0.80019197  1
  Pd  Pd185  1  0.40367856  0.20432484  0.61194332  1
  Pd  Pd186  1  0.59968982  0.61521411  0.80262802  1
  Pd  Pd187  1  0.79886367  0.59421208  0.59811016  1
  Pd  Pd188  1  0.60016170  -0.00805633  0.80564761  1
  Pd  Pd189  1  -0.00059475  0.20565194  0.21153956  1
  Pd  Pd190  1  0.59570565  0.00934684  0.59751963  1
  Pd  Pd191  1  0.80560943  0.00125249  0.79717943  1
  Pd  Pd192  1  0.59513589  0.20185361  0.20876409  1
  Pd  Pd193  1  0.80309585  0.00675025  0.39705194  1
  Pd  Pd194  1  0.19163743  0.79339632  0.20420684  1
  Pd  Pd195  1  0.40558483  0.39328241  0.78491157  1
  Pd  Pd196  1  0.80390788  0.20903994  0.80490791  1
  Pd  Pd197  1  0.40145995  0.20868796  0.79696157  1
  Pd  Pd198  1  0.00774275  0.20424560  0.60605171  1
  Pd  Pd199  1  0.00245226  0.80018287  0.19210609  1
  Rh  Rh200  1  0.60160599  0.39930844  0.79734928  1
  Rh  Rh201  1  0.19559774  0.19197645  0.59897785  1
  Rh  Rh202  1  0.39897288  0.80146124  0.79698125  1
  Rh  Rh203  1  0.40712264  0.60112256  0.80713877  1
  Rh  Rh204  1  0.79475926  0.40980107  0.40251337  1
  Rh  Rh205  1  0.20028362  0.79040984  0.00465808  1
  Rh  Rh206  1  0.39711838  -0.00434405  0.60043338  1
  Rh  Rh207  1  0.60303257  0.01610921  0.41427614  1
  Rh  Rh208  1  0.00255178  -0.00304472  0.40179345  1
  Rh  Rh209  1  0.18929512  0.20467997  0.20422283  1
  Rh  Rh210  1  0.19603067  0.80405711  0.39455209  1
  Rh  Rh211  1  0.40756718  0.80333818  0.19345214  1
  Rh  Rh212  1  0.00794479  0.60996890  0.79555337  1
  Rh  Rh213  1  0.00112595  0.60002760  0.00289991  1
  Rh  Rh214  1  0.01230142  0.19018742  0.00048285  1
  Rh  Rh215  1  0.20648620  0.79046038  0.60439215  1
  Rh  Rh216  1  0.59135300  0.59531435  -0.00760568  1
  Rh  Rh217  1  0.19435829  0.40433158  0.80666443  1
  Rh  Rh218  1  0.79544099  0.19530986  0.40034731  1
  Rh  Rh219  1  0.80664410  0.19953177  0.20982812  1
  Rh  Rh220  1  0.20762847  0.40952579  0.59603080  1
  Rh  Rh221  1  -0.00544152  -0.00235961  0.19272397  1
  Rh  Rh222  1  -0.00798130  0.80670642  0.40530018  1
  Rh  Rh223  1  0.20616495  0.38934028  0.40010964  1
  Rh  Rh224  1  0.40228223  0.80096039  0.40687362  1
  Rh  Rh225  1  0.81141222  0.59215954  0.21156415  1
  Rh  Rh226  1  0.60961375  0.39839160  0.20049627  1
  Rh  Rh227  1  -0.00486173  0.59969479  0.40225908  1
  Rh  Rh228  1  -0.00595990  0.40605932  0.59621365  1
  Rh  Rh229  1  0.80240028  0.80612223  0.59398450  1
  Rh  Rh230  1  0.79949243  0.79447048  0.80574834  1
  Rh  Rh231  1  -0.00721787  0.80802254  0.60335349  1
  Rh  Rh232  1  0.40124269  0.20550591  0.39274975  1
  Rh  Rh233  1  0.80460889  0.00319164  0.00675393  1
  Rh  Rh234  1  0.80651336  0.79272007  -0.00254298  1
  Rh  Rh235  1  0.38744685  0.59196977  0.59819831  1
  Rh  Rh236  1  0.01044796  0.20386149  0.40246681  1
  Rh  Rh237  1  0.60053124  0.40323822  0.59776733  1
  Rh  Rh238  1  0.20581866  -0.00190828  0.79656246  1
  Rh  Rh239  1  0.80153300  0.00238792  0.60549510  1
  Rh  Rh240  1  0.80845673  0.20700960  0.60276234  1
  Rh  Rh241  1  0.19801207  0.00516392  -0.00311455  1
  Rh  Rh242  1  0.58840472  0.18849602  -0.00944815  1
  Rh  Rh243  1  0.38873847  -0.01201054  0.80399176  1
  Rh  Rh244  1  -0.00622962  0.39852146  0.20625612  1
  Rh  Rh245  1  0.20714989  0.00139250  0.59446853  1
  Rh  Rh246  1  0.19472075  0.60305175  0.78702331  1
  Rh  Rh247  1  0.60322508  0.80603410  -0.00532214  1
  Rh  Rh248  1  0.80265539  0.59805660  -0.00679327  1
  Rh  Rh249  1  0.60246602  -0.01570702  0.18609668  1
