# generated using pymatgen
data_ZrScNbPdRh
_symmetry_space_group_name_H-M   'P 1'
_cell_length_a   16.56572032
_cell_length_b   16.55914636
_cell_length_c   16.56171091
_cell_angle_alpha   89.97367661
_cell_angle_beta   90.01994212
_cell_angle_gamma   90.02916293
_symmetry_Int_Tables_number   1
_chemical_formula_structural   ZrScNbPdRh
_chemical_formula_sum   'Zr50 Sc50 Nb50 Pd50 Rh50'
_cell_volume   4543.11092668
_cell_formula_units_Z   50
loop_
 _symmetry_equiv_pos_site_id
 _symmetry_equiv_pos_as_xyz
  1  'x, y, z'
loop_
 _atom_site_type_symbol
 _atom_site_label
 _atom_site_symmetry_multiplicity
 _atom_site_fract_x
 _atom_site_fract_y
 _atom_site_fract_z
 _atom_site_occupancy
  Zr  Zr0  1  0.90177074  0.90074905  0.29208167  1
  Zr  Zr1  1  0.29723487  0.49812656  0.49336474  1
  Zr  Zr2  1  0.89564075  0.89551962  0.70238460  1
  Zr  Zr3  1  0.09995355  0.69863418  0.49719957  1
  Zr  Zr4  1  0.09849473  0.09615117  0.30234959  1
  Zr  Zr5  1  0.10312874  0.30966707  0.29336637  1
  Zr  Zr6  1  0.30151887  0.49986027  0.70773197  1
  Zr  Zr7  1  0.70168419  0.50169958  0.29616008  1
  Zr  Zr8  1  0.69528163  0.70011179  0.90991587  1
  Zr  Zr9  1  0.69379268  0.09857652  0.69505060  1
  Zr  Zr10  1  0.90274108  0.69569823  0.50535670  1
  Zr  Zr11  1  0.09889535  0.50614246  0.70640340  1
  Zr  Zr12  1  0.30945488  0.91370336  0.69381313  1
  Zr  Zr13  1  0.28425236  0.89897246  0.10010832  1
  Zr  Zr14  1  0.09218713  0.90367326  0.70508868  1
  Zr  Zr15  1  0.49349647  0.10653830  0.10097246  1
  Zr  Zr16  1  0.69355097  0.49168710  0.70162070  1
  Zr  Zr17  1  0.90045679  0.69514026  0.29299275  1
  Zr  Zr18  1  0.89949236  0.29464043  0.10065180  1
  Zr  Zr19  1  0.50528314  0.90246981  0.30293934  1
  Zr  Zr20  1  0.69853003  0.89752588  0.70350644  1
  Zr  Zr21  1  0.70228798  0.49756661  0.50870925  1
  Zr  Zr22  1  0.11421529  0.49348905  0.10110634  1
  Zr  Zr23  1  0.10226485  0.09559612  0.10305690  1
  Zr  Zr24  1  0.30738199  0.69486444  0.09771019  1
  Zr  Zr25  1  0.10296900  0.50161222  0.30498848  1
  Zr  Zr26  1  0.69836435  0.50151384  0.09386246  1
  Zr  Zr27  1  0.29603354  0.49615858  0.29850378  1
  Zr  Zr28  1  0.49987286  0.49344728  0.50572331  1
  Zr  Zr29  1  0.09819314  0.10053838  0.70110164  1
  Zr  Zr30  1  0.69599625  0.08947116  0.89923653  1
  Zr  Zr31  1  0.90162205  0.10213546  0.49427593  1
  Zr  Zr32  1  0.30302599  0.29763447  0.70047083  1
  Zr  Zr33  1  0.10597593  0.09648072  0.49986480  1
  Zr  Zr34  1  0.70451911  0.89709281  0.90082142  1
  Zr  Zr35  1  0.10035713  0.89908237  0.90852323  1
  Zr  Zr36  1  0.50518097  0.49909966  0.10179940  1
  Zr  Zr37  1  0.50949981  0.49544095  0.89707454  1
  Zr  Zr38  1  0.49819568  0.89390197  0.50306939  1
  Zr  Zr39  1  0.30796428  0.30298493  0.50239481  1
  Zr  Zr40  1  0.48956047  0.09597445  0.70511690  1
  Zr  Zr41  1  0.09223348  0.69638764  0.69591953  1
  Zr  Zr42  1  0.69710411  0.90145731  0.30136561  1
  Zr  Zr43  1  0.09115272  0.69720931  0.89445271  1
  Zr  Zr44  1  0.69672493  0.29423460  0.50905286  1
  Zr  Zr45  1  0.89273324  0.90068256  0.49835869  1
  Zr  Zr46  1  0.30804562  0.69987559  0.70558655  1
  Zr  Zr47  1  0.88951451  0.70036487  0.09703644  1
  Zr  Zr48  1  0.49845437  0.30139255  0.29703705  1
  Zr  Zr49  1  0.09875143  0.50983309  0.49722122  1
  Sc  Sc50  1  0.90044420  0.49590017  0.30194411  1
  Sc  Sc51  1  0.50681412  0.90158322  0.10425855  1
  Sc  Sc52  1  0.89784861  0.70201493  0.70014096  1
  Sc  Sc53  1  0.89217636  0.29866409  0.49705736  1
  Sc  Sc54  1  0.50084084  0.90126593  0.69879482  1
  Sc  Sc55  1  0.30338989  0.30479974  0.89662528  1
  Sc  Sc56  1  0.50470622  0.09837853  0.29665213  1
  Sc  Sc57  1  0.49132975  0.30075512  0.69159381  1
  Sc  Sc58  1  0.89407899  0.70538564  0.89947706  1
  Sc  Sc59  1  0.50855288  0.90110818  0.89963334  1
  Sc  Sc60  1  0.30045573  0.50680139  0.09503643  1
  Sc  Sc61  1  0.89896188  0.89375168  0.89656630  1
  Sc  Sc62  1  0.68495777  0.69945243  0.50888546  1
  Sc  Sc63  1  0.71320799  0.09401428  0.09530381  1
  Sc  Sc64  1  0.30780808  0.69411658  0.90419929  1
  Sc  Sc65  1  0.51111134  0.10326840  0.50081948  1
  Sc  Sc66  1  0.70709644  0.29956756  0.30455660  1
  Sc  Sc67  1  0.09203668  0.10449949  0.89791862  1
  Sc  Sc68  1  0.30441482  0.89361324  0.90454033  1
  Sc  Sc69  1  0.49361023  0.09899668  0.89607654  1
  Sc  Sc70  1  0.89959597  0.29748306  0.70190948  1
  Sc  Sc71  1  0.89691186  0.50638057  0.69672161  1
  Sc  Sc72  1  0.10475608  0.89878219  0.48527214  1
  Sc  Sc73  1  0.89766141  0.30250127  0.29734917  1
  Sc  Sc74  1  0.10056565  0.29216670  0.71017257  1
  Sc  Sc75  1  0.90036115  0.09941929  0.90519325  1
  Sc  Sc76  1  0.90078689  0.29820052  0.90225306  1
  Sc  Sc77  1  0.69500684  0.90801205  0.50579768  1
  Sc  Sc78  1  0.10051748  0.30015483  0.89876224  1
  Sc  Sc79  1  0.89883514  0.49491126  0.89073722  1
  Sc  Sc80  1  0.89976102  0.10364379  0.10248228  1
  Sc  Sc81  1  0.89678337  0.49944850  0.49897210  1
  Sc  Sc82  1  0.29982622  0.09573367  0.10819152  1
  Sc  Sc83  1  0.50012436  0.69953122  0.89817022  1
  Sc  Sc84  1  0.29214564  0.89371904  0.30020309  1
  Sc  Sc85  1  0.69848761  0.09608119  0.30580404  1
  Sc  Sc86  1  0.29544821  0.71146383  0.49126106  1
  Sc  Sc87  1  0.50230184  0.50156341  0.70389414  1
  Sc  Sc88  1  0.10909631  0.49706719  0.89588514  1
  Sc  Sc89  1  0.10685859  0.70137398  0.09713812  1
  Sc  Sc90  1  0.90239450  0.10232860  0.70468613  1
  Sc  Sc91  1  0.51596836  0.70454703  0.30528892  1
  Sc  Sc92  1  0.50379406  0.50079081  0.29585942  1
  Sc  Sc93  1  0.30400904  0.10537855  0.69544139  1
  Sc  Sc94  1  0.10042482  0.70181590  0.30678209  1
  Sc  Sc95  1  0.70477251  0.89878668  0.09601911  1
  Sc  Sc96  1  0.70134240  0.10129031  0.49817171  1
  Sc  Sc97  1  0.30812058  0.30878210  0.09701590  1
  Sc  Sc98  1  0.89078884  0.50262068  0.11224734  1
  Sc  Sc99  1  0.09840132  0.29171715  0.49415511  1
  Nb  Nb100  1  0.29986718  0.09464662  0.90186766  1
  Nb  Nb101  1  0.30186632  0.10578039  0.30212134  1
  Nb  Nb102  1  0.69412427  0.69394250  0.70229087  1
  Nb  Nb103  1  0.29870058  0.49935205  0.89882765  1
  Nb  Nb104  1  0.69718290  0.69544260  0.10143275  1
  Nb  Nb105  1  0.69683570  0.49506077  0.89325007  1
  Nb  Nb106  1  0.10202730  0.29628869  0.09710923  1
  Nb  Nb107  1  0.50331640  0.29882713  0.90507631  1
  Nb  Nb108  1  0.90316663  0.90193586  0.10190789  1
  Nb  Nb109  1  0.29820897  0.90655120  0.50307873  1
  Nb  Nb110  1  0.09791572  0.90024168  0.28242776  1
  Nb  Nb111  1  0.49891799  0.70019336  0.50266704  1
  Nb  Nb112  1  0.29656550  0.09476914  0.50107969  1
  Nb  Nb113  1  0.29971836  0.30535007  0.30633066  1
  Nb  Nb114  1  0.70077246  0.70225075  0.30052162  1
  Nb  Nb115  1  0.50497802  0.30170951  0.09417859  1
  Nb  Nb116  1  0.50481753  0.69863713  0.69502374  1
  Nb  Nb117  1  0.69816162  0.31809963  0.89575933  1
  Nb  Nb118  1  0.10108253  0.90483731  0.10841023  1
  Nb  Nb119  1  0.70103007  0.29946585  0.70247744  1
  Nb  Nb120  1  0.70448005  0.30342490  0.09476515  1
  Nb  Nb121  1  0.89539233  0.09155123  0.30027202  1
  Nb  Nb122  1  0.30730674  0.69762306  0.30000133  1
  Nb  Nb123  1  0.50773219  0.69588129  0.09514565  1
  Nb  Nb124  1  0.49750705  0.30145481  0.49487818  1
  Nb  Nb125  1  0.00252864  -0.00693119  0.00879410  1
  Nb  Nb126  1  0.39594146  0.19775409  0.40033465  1
  Nb  Nb127  1  0.40386807  0.60474652  0.40214371  1
  Nb  Nb128  1  0.39278396  0.00382970  0.40272270  1
  Nb  Nb129  1  0.60425386  0.20755220  0.18748460  1
  Nb  Nb130  1  0.19480585  0.40207989  0.60267935  1
  Nb  Nb131  1  0.20034156  0.80306747  0.79388510  1
  Nb  Nb132  1  0.79348181  0.60790206  0.39929709  1
  Nb  Nb133  1  0.40247522  0.60546565  0.59484791  1
  Nb  Nb134  1  0.40240199  0.79290846  0.19778105  1
  Nb  Nb135  1  0.79554984  0.79434011  0.39812715  1
  Nb  Nb136  1  0.78611835  0.59849838  0.80068373  1
  Nb  Nb137  1  0.39574449  0.00000632  0.00477985  1
  Nb  Nb138  1  0.00756083  0.40064060  0.60134473  1
  Nb  Nb139  1  0.20242775  0.19912872  0.00550173  1
  Nb  Nb140  1  0.60113747  0.20807447  0.80444067  1
  Nb  Nb141  1  -0.00021331  -0.00023307  0.59536254  1
  Nb  Nb142  1  0.20232394  -0.00205953  0.80227335  1
  Nb  Nb143  1  -0.00033918  0.59205111  0.00160524  1
  Nb  Nb144  1  0.20199082  0.80701030  0.60454028  1
  Nb  Nb145  1  0.20428372  0.20572061  0.20269323  1
  Nb  Nb146  1  0.78578206  0.20454292  0.80277031  1
  Nb  Nb147  1  0.00310787  0.40225908  0.00713269  1
  Nb  Nb148  1  0.60035014  0.39556603  0.40574209  1
  Nb  Nb149  1  0.60417636  0.20912779  -0.00227092  1
  Pd  Pd150  1  0.20048226  0.78941683  -0.00814463  1
  Pd  Pd151  1  0.80552787  0.00577407  0.80082307  1
  Pd  Pd152  1  -0.00129154  0.39743474  0.40760816  1
  Pd  Pd153  1  0.20417261  0.60861840  0.80642146  1
  Pd  Pd154  1  0.39810855  0.20755356  0.20352094  1
  Pd  Pd155  1  -0.00462969  0.20462662  0.39023385  1
  Pd  Pd156  1  0.78983982  0.79340322  0.59546432  1
  Pd  Pd157  1  0.39556939  0.79590225  0.59988055  1
  Pd  Pd158  1  0.20439881  0.20614566  0.39686988  1
  Pd  Pd159  1  0.80612520  0.59148802  -0.01012883  1
  Pd  Pd160  1  0.81056569  0.40648460  0.00021229  1
  Pd  Pd161  1  0.40284715  0.80462105  0.80038222  1
  Pd  Pd162  1  -0.00176235  0.79883231  0.00851197  1
  Pd  Pd163  1  0.00691843  0.80924914  0.59381281  1
  Pd  Pd164  1  0.39267943  -0.01221334  0.20306827  1
  Pd  Pd165  1  0.40825779  0.59129892  -0.00722238  1
  Pd  Pd166  1  0.60924820  0.39283257  0.20460924  1
  Pd  Pd167  1  0.79274841  0.20281289  -0.01120776  1
  Pd  Pd168  1  -0.00111744  0.39697171  0.79897724  1
  Pd  Pd169  1  -0.00339409  0.20242821  0.59975250  1
  Pd  Pd170  1  0.60020308  0.59300376  0.40297978  1
  Pd  Pd171  1  0.19699627  0.60637813  0.20469445  1
  Pd  Pd172  1  -0.00479879  0.80325295  0.39620247  1
  Pd  Pd173  1  0.39504021  0.19572437  -0.00461583  1
  Pd  Pd174  1  0.79947256  0.19777332  0.39711303  1
  Pd  Pd175  1  0.59835294  0.79651087  0.19269860  1
  Pd  Pd176  1  0.20347064  0.78806962  0.20474020  1
  Pd  Pd177  1  0.81013157  0.39584379  0.60541067  1
  Pd  Pd178  1  0.20297850  -0.00609626  0.39053839  1
  Pd  Pd179  1  0.40963203  0.80767526  0.00857900  1
  Pd  Pd180  1  0.79337078  0.19497916  0.20605898  1
  Pd  Pd181  1  0.59156970  0.20168907  0.60817306  1
  Pd  Pd182  1  0.40064591  0.80219302  0.39338141  1
  Pd  Pd183  1  0.39976566  0.40850700  -0.00295514  1
  Pd  Pd184  1  0.59152513  0.00618379  0.00589142  1
  Pd  Pd185  1  0.59721608  0.79772497  0.79977543  1
  Pd  Pd186  1  0.20100980  0.20613054  0.59978184  1
  Pd  Pd187  1  0.40622291  0.39699524  0.80206648  1
  Pd  Pd188  1  0.39705122  0.40330437  0.19692054  1
  Pd  Pd189  1  0.00779904  0.59866670  0.19249412  1
  Pd  Pd190  1  0.21147455  0.60447136  0.59822414  1
  Pd  Pd191  1  -0.00228331  0.40429150  0.19375461  1
  Pd  Pd192  1  0.79563209  0.80306276  0.19923035  1
  Pd  Pd193  1  0.41247364  0.60636633  0.20853942  1
  Pd  Pd194  1  0.00041680  -0.00635184  0.40016926  1
  Pd  Pd195  1  0.80590010  0.00943579  0.60156805  1
  Pd  Pd196  1  0.60926318  0.01081349  0.19207970  1
  Pd  Pd197  1  0.00228077  0.19648019  0.20664177  1
  Pd  Pd198  1  0.20627778  0.19387102  0.80938341  1
  Pd  Pd199  1  0.00369125  0.79118495  0.19248472  1
  Rh  Rh200  1  0.79804593  0.80408698  0.00488993  1
  Rh  Rh201  1  0.21013836  0.39392311  0.19544536  1
  Rh  Rh202  1  0.80430575  0.40128098  0.79429123  1
  Rh  Rh203  1  0.19618131  0.59945286  -0.00816980  1
  Rh  Rh204  1  0.79813188  -0.00531557  0.39651773  1
  Rh  Rh205  1  0.40976800  0.40346370  0.39170722  1
  Rh  Rh206  1  0.40840324  0.00861172  0.58717019  1
  Rh  Rh207  1  0.59422463  0.20674242  0.38958859  1
  Rh  Rh208  1  -0.01149870  0.59916281  0.39758076  1
  Rh  Rh209  1  0.79442214  0.60456392  0.60245441  1
  Rh  Rh210  1  0.19896244  0.80282130  0.39672525  1
  Rh  Rh211  1  0.39250542  0.40979243  0.60473531  1
  Rh  Rh212  1  0.60816888  0.80478012  0.40796382  1
  Rh  Rh213  1  -0.00116281  0.79753996  0.79926428  1
  Rh  Rh214  1  0.60087339  0.80232635  0.60452517  1
  Rh  Rh215  1  0.00097640  0.00030201  0.80641850  1
  Rh  Rh216  1  0.40245773  0.20357760  0.80575400  1
  Rh  Rh217  1  0.79233413  0.40775035  0.40015606  1
  Rh  Rh218  1  -0.01688718  0.60359789  0.80698937  1
  Rh  Rh219  1  0.79818610  0.39634582  0.19842980  1
  Rh  Rh220  1  0.59663965  -0.00074054  0.60233676  1
  Rh  Rh221  1  0.59598225  0.00097271  0.79630458  1
  Rh  Rh222  1  -0.01219485  0.20149123  0.80485459  1
  Rh  Rh223  1  0.60148078  0.40014365  0.00343030  1
  Rh  Rh224  1  0.58978571  0.38964218  0.79022638  1
  Rh  Rh225  1  -0.00455605  0.59212694  0.59990223  1
  Rh  Rh226  1  0.40202292  0.19244273  0.58864561  1
  Rh  Rh227  1  0.39519755  -0.00603027  0.81267414  1
  Rh  Rh228  1  0.59843939  0.59719743  -0.00219061  1
  Rh  Rh229  1  0.79228594  0.60147098  0.20480004  1
  Rh  Rh230  1  0.20228933  0.39707458  0.79589344  1
  Rh  Rh231  1  0.59663266  0.39192303  0.60014598  1
  Rh  Rh232  1  0.00713308  0.20074101  0.00026245  1
  Rh  Rh233  1  0.40698165  0.59704950  0.80040215  1
  Rh  Rh234  1  0.20908699  0.60738822  0.39342653  1
  Rh  Rh235  1  0.20455118  0.00619943  0.21070786  1
  Rh  Rh236  1  0.80048142  0.00110354  0.20004794  1
  Rh  Rh237  1  0.19750710  0.00749186  -0.00676626  1
  Rh  Rh238  1  0.59985279  0.79928316  0.00428817  1
  Rh  Rh239  1  0.59356247  0.59767433  0.60365476  1
  Rh  Rh240  1  0.19936188  0.39312523  -0.00494414  1
  Rh  Rh241  1  0.19232641  0.39584197  0.40912192  1
  Rh  Rh242  1  0.80226340  0.19724123  0.60538042  1
  Rh  Rh243  1  0.60146829  0.60477002  0.80242555  1
  Rh  Rh244  1  0.60178741  0.60491606  0.19674588  1
  Rh  Rh245  1  0.79220826  0.78971047  0.79790493  1
  Rh  Rh246  1  0.81490650  -0.00886055  -0.00064416  1
  Rh  Rh247  1  -0.00742034  0.00633407  0.19641864  1
  Rh  Rh248  1  0.59333474  -0.00132899  0.40608101  1
  Rh  Rh249  1  0.19070258  -0.00382780  0.60656129  1
