# generated using pymatgen
data_ZrScNbPdRh
_symmetry_space_group_name_H-M   'P 1'
_cell_length_a   16.55066115
_cell_length_b   16.55248546
_cell_length_c   16.55450915
_cell_angle_alpha   89.92796936
_cell_angle_beta   89.99141156
_cell_angle_gamma   89.93976419
_symmetry_Int_Tables_number   1
_chemical_formula_structural   ZrScNbPdRh
_chemical_formula_sum   'Zr50 Sc50 Nb50 Pd50 Rh50'
_cell_volume   4535.17742711
_cell_formula_units_Z   50
loop_
 _symmetry_equiv_pos_site_id
 _symmetry_equiv_pos_as_xyz
  1  'x, y, z'
loop_
 _atom_site_type_symbol
 _atom_site_label
 _atom_site_symmetry_multiplicity
 _atom_site_fract_x
 _atom_site_fract_y
 _atom_site_fract_z
 _atom_site_occupancy
  Zr  Zr0  1  0.09850586  0.70847304  0.90667613  1
  Zr  Zr1  1  0.49537295  0.30007354  0.30076847  1
  Zr  Zr2  1  0.50698023  0.09297922  0.50511719  1
  Zr  Zr3  1  0.50274056  0.10553423  0.70004604  1
  Zr  Zr4  1  0.49968917  0.29037312  0.49841096  1
  Zr  Zr5  1  0.29852121  0.09642952  0.71275748  1
  Zr  Zr6  1  0.31507351  0.69677298  0.90218577  1
  Zr  Zr7  1  0.30192507  0.69651146  0.30149045  1
  Zr  Zr8  1  0.89312550  0.10727470  0.69641033  1
  Zr  Zr9  1  0.69914312  0.50087813  0.10142457  1
  Zr  Zr10  1  0.51365827  0.49313545  0.70665806  1
  Zr  Zr11  1  0.69291572  0.89675482  0.29523498  1
  Zr  Zr12  1  0.30053462  0.09589239  0.49769861  1
  Zr  Zr13  1  0.09128394  0.90364838  0.89785016  1
  Zr  Zr14  1  0.29172674  0.29017487  0.70444763  1
  Zr  Zr15  1  0.29709545  0.29851288  0.29518440  1
  Zr  Zr16  1  0.08999392  0.49871663  0.30249828  1
  Zr  Zr17  1  0.30878292  0.30336770  0.10054199  1
  Zr  Zr18  1  0.29731735  0.30027903  0.91143928  1
  Zr  Zr19  1  0.89297199  0.69982799  0.89683677  1
  Zr  Zr20  1  0.09827972  0.50021898  0.10152934  1
  Zr  Zr21  1  0.70317572  0.09790912  0.89668757  1
  Zr  Zr22  1  0.50638455  0.49339886  0.49030966  1
  Zr  Zr23  1  0.70088614  0.50146781  0.30602068  1
  Zr  Zr24  1  0.70398700  0.29733357  0.90713006  1
  Zr  Zr25  1  0.30119872  0.10305428  0.90473874  1
  Zr  Zr26  1  0.90676635  0.70617433  0.49652281  1
  Zr  Zr27  1  0.90031743  0.90017409  0.29649381  1
  Zr  Zr28  1  0.08766877  0.69586031  0.29733062  1
  Zr  Zr29  1  0.08941297  0.10268414  0.50580579  1
  Zr  Zr30  1  0.30038814  0.90725797  0.30169316  1
  Zr  Zr31  1  0.49556204  0.09967908  0.10144236  1
  Zr  Zr32  1  0.70291527  0.89390047  0.90469689  1
  Zr  Zr33  1  0.10113998  0.49562892  0.70747483  1
  Zr  Zr34  1  0.50379801  0.89698917  0.30437789  1
  Zr  Zr35  1  0.50122269  0.50876223  0.29423669  1
  Zr  Zr36  1  0.10024044  0.10274805  0.29531276  1
  Zr  Zr37  1  0.70878772  0.69966781  0.49974491  1
  Zr  Zr38  1  0.89434907  0.69990402  0.10817679  1
  Zr  Zr39  1  0.89729312  0.90994225  0.50291176  1
  Zr  Zr40  1  0.30339260  0.49751526  0.90128146  1
  Zr  Zr41  1  0.09498345  0.29850351  0.29476248  1
  Zr  Zr42  1  0.09826109  0.11366781  0.70519049  1
  Zr  Zr43  1  0.09129026  0.29956166  0.49903883  1
  Zr  Zr44  1  0.30740512  0.89995011  0.50307699  1
  Zr  Zr45  1  0.10005432  0.70541249  0.10449619  1
  Zr  Zr46  1  0.49924694  0.69647110  0.09545720  1
  Zr  Zr47  1  0.70076042  0.89336976  0.09848325  1
  Zr  Zr48  1  0.69381798  0.10128560  0.69412548  1
  Zr  Zr49  1  0.30569723  0.70161678  0.69952135  1
  Sc  Sc50  1  0.89792658  0.10185994  0.29884065  1
  Sc  Sc51  1  0.70292055  0.29351424  0.29430571  1
  Sc  Sc52  1  0.90531461  0.89995459  0.90383099  1
  Sc  Sc53  1  0.89624220  0.09893696  0.09998175  1
  Sc  Sc54  1  0.89484736  0.49866105  0.48307629  1
  Sc  Sc55  1  0.50327509  0.50343893  0.90313613  1
  Sc  Sc56  1  0.50654673  0.30422239  0.90942138  1
  Sc  Sc57  1  0.69480872  0.70414402  0.28735180  1
  Sc  Sc58  1  0.89252669  0.29580120  0.48987782  1
  Sc  Sc59  1  0.90249019  0.49489378  0.90498988  1
  Sc  Sc60  1  0.50361627  0.89553492  0.90497677  1
  Sc  Sc61  1  0.89976999  0.10297656  0.89813933  1
  Sc  Sc62  1  0.09954680  0.90410787  0.28836885  1
  Sc  Sc63  1  0.49726160  0.70128712  0.48432377  1
  Sc  Sc64  1  0.50070044  0.09604868  0.29752169  1
  Sc  Sc65  1  0.68575527  0.29452621  0.70393188  1
  Sc  Sc66  1  0.69469332  0.89197039  0.70585617  1
  Sc  Sc67  1  0.90337804  0.89674090  0.09394664  1
  Sc  Sc68  1  0.69752641  0.90867858  0.49452728  1
  Sc  Sc69  1  0.30187421  0.70207769  0.51009178  1
  Sc  Sc70  1  0.70098976  0.10064664  0.29976295  1
  Sc  Sc71  1  0.89675725  0.50557465  0.29580122  1
  Sc  Sc72  1  0.29831356  0.50229758  0.70438138  1
  Sc  Sc73  1  0.49540834  0.09297165  0.90418647  1
  Sc  Sc74  1  0.09702454  0.31023537  0.89264089  1
  Sc  Sc75  1  0.09874073  0.70640732  0.69467466  1
  Sc  Sc76  1  0.50357998  0.69951240  0.90209346  1
  Sc  Sc77  1  0.89842495  0.51276939  0.71352347  1
  Sc  Sc78  1  0.69970870  0.29744884  0.49146699  1
  Sc  Sc79  1  0.71106609  0.69829448  0.70988386  1
  Sc  Sc80  1  0.50063946  0.90356798  0.69876426  1
  Sc  Sc81  1  0.50237558  0.90411983  0.10010934  1
  Sc  Sc82  1  0.09108599  0.89960035  0.50456677  1
  Sc  Sc83  1  0.89259364  0.29633692  0.29797999  1
  Sc  Sc84  1  0.30054884  0.49458997  0.09759147  1
  Sc  Sc85  1  0.11593446  0.29986610  0.09777670  1
  Sc  Sc86  1  0.09902066  0.49405018  0.90154455  1
  Sc  Sc87  1  0.69694052  0.10272886  0.09894335  1
  Sc  Sc88  1  0.89706596  0.70631977  0.70195937  1
  Sc  Sc89  1  0.30291747  0.10602368  0.09776123  1
  Sc  Sc90  1  0.30631000  0.49438771  0.29328640  1
  Sc  Sc91  1  0.50023050  0.70172705  0.70998825  1
  Sc  Sc92  1  0.30724927  0.89939376  0.69918380  1
  Sc  Sc93  1  0.88876496  0.50135419  0.09643657  1
  Sc  Sc94  1  0.30643893  0.09463913  0.29907927  1
  Sc  Sc95  1  0.30527232  0.29131958  0.49715315  1
  Sc  Sc96  1  0.29526518  0.69780241  0.09310044  1
  Sc  Sc97  1  0.69684444  0.50564187  0.89768804  1
  Sc  Sc98  1  0.31206551  0.90830205  0.89808894  1
  Sc  Sc99  1  0.10128192  0.10637030  0.10402959  1
  Nb  Nb100  1  0.29816348  0.49785369  0.50584834  1
  Nb  Nb101  1  0.88233063  0.09444812  0.49996253  1
  Nb  Nb102  1  0.90377380  0.29886238  0.71418567  1
  Nb  Nb103  1  0.70232980  0.70667270  0.90541078  1
  Nb  Nb104  1  0.70317651  0.50011228  0.50306920  1
  Nb  Nb105  1  0.70448827  0.30242024  0.09763590  1
  Nb  Nb106  1  0.30145061  0.89982843  0.10202877  1
  Nb  Nb107  1  0.90509633  0.89842978  0.70574665  1
  Nb  Nb108  1  0.49846680  0.70460783  0.29441794  1
  Nb  Nb109  1  0.10161280  0.69723743  0.49779400  1
  Nb  Nb110  1  0.89879597  0.30212255  0.90146068  1
  Nb  Nb111  1  0.50948815  0.30650086  0.09965115  1
  Nb  Nb112  1  0.09338481  0.30179618  0.69725457  1
  Nb  Nb113  1  0.50354133  0.89547000  0.50193426  1
  Nb  Nb114  1  0.70245137  0.49584029  0.69860160  1
  Nb  Nb115  1  0.88960990  0.30755135  0.08929732  1
  Nb  Nb116  1  0.50094637  0.49123293  0.09802210  1
  Nb  Nb117  1  0.49774114  0.29975877  0.69690230  1
  Nb  Nb118  1  0.90161364  0.70320749  0.29477422  1
  Nb  Nb119  1  0.71300576  0.09795885  0.50330551  1
  Nb  Nb120  1  0.10639981  0.89492511  0.09187142  1
  Nb  Nb121  1  0.10139992  0.09821395  0.90241801  1
  Nb  Nb122  1  0.10105455  0.90688284  0.70787976  1
  Nb  Nb123  1  0.70538925  0.70244164  0.08949466  1
  Nb  Nb124  1  0.09601126  0.49763083  0.50067635  1
  Nb  Nb125  1  0.19513458  0.00265550  0.60809239  1
  Nb  Nb126  1  0.80093087  0.40284387  0.60715586  1
  Nb  Nb127  1  0.79785786  0.39520990  0.79715637  1
  Nb  Nb128  1  0.20075157  0.80287749  0.80094995  1
  Nb  Nb129  1  0.19686438  0.59665420  0.40815202  1
  Nb  Nb130  1  0.40402163  0.39352697  0.79521894  1
  Nb  Nb131  1  0.80113978  -0.00150928  0.79671020  1
  Nb  Nb132  1  0.19831836  0.40106166  0.40542559  1
  Nb  Nb133  1  0.20150548  0.60979657  0.80327918  1
  Nb  Nb134  1  -0.00560763  0.39516079  0.19182731  1
  Nb  Nb135  1  0.19545343  0.19997800  0.39927022  1
  Nb  Nb136  1  0.80441937  0.80101626  0.39475693  1
  Nb  Nb137  1  0.59903025  0.79329253  0.59431441  1
  Nb  Nb138  1  -0.00120186  0.60538777  0.00391744  1
  Nb  Nb139  1  0.41076554  0.59009831  0.59922839  1
  Nb  Nb140  1  0.19653530  0.39620225  0.59767662  1
  Nb  Nb141  1  0.79573632  -0.00601847  0.19771788  1
  Nb  Nb142  1  0.19546029  0.79454217  0.40194567  1
  Nb  Nb143  1  0.00333096  0.59528169  0.59237734  1
  Nb  Nb144  1  0.60540303  0.59773096  0.59773207  1
  Nb  Nb145  1  0.19642078  -0.00377834  0.00065052  1
  Nb  Nb146  1  0.39980984  0.79856584  0.20181290  1
  Nb  Nb147  1  -0.00293629  0.20972842  -0.00265502  1
  Nb  Nb148  1  -0.00642826  0.40156623  0.60477510  1
  Nb  Nb149  1  0.39947046  0.39902119  0.60303467  1
  Pd  Pd150  1  0.39526618  0.60171223  0.18990256  1
  Pd  Pd151  1  0.60152002  0.00141371  0.00244920  1
  Pd  Pd152  1  -0.00704285  0.19259060  0.39990286  1
  Pd  Pd153  1  -0.01803064  0.20702509  0.59545783  1
  Pd  Pd154  1  0.19866654  0.59537461  0.60471893  1
  Pd  Pd155  1  0.40970754  0.20649437  0.81186175  1
  Pd  Pd156  1  0.20338786  0.00628321  0.18944837  1
  Pd  Pd157  1  0.80808322  0.59302362  0.60110533  1
  Pd  Pd158  1  0.39808840  0.00281138  0.60512004  1
  Pd  Pd159  1  0.60134129  0.20124511  0.19739319  1
  Pd  Pd160  1  0.40322596  0.80770086  0.80169399  1
  Pd  Pd161  1  -0.00019922  0.00438570  0.39721319  1
  Pd  Pd162  1  0.60553845  0.39373774  0.39258064  1
  Pd  Pd163  1  0.60382003  0.60312643  0.19464297  1
  Pd  Pd164  1  0.18880752  -0.00217752  0.40971314  1
  Pd  Pd165  1  0.79424916  0.80956703  0.59696930  1
  Pd  Pd166  1  -0.00446357  -0.00280738  0.18984867  1
  Pd  Pd167  1  0.60190278  0.00615900  0.40005176  1
  Pd  Pd168  1  0.80246142  0.39986890  0.20388199  1
  Pd  Pd169  1  0.21273338  0.81005428  -0.01163022  1
  Pd  Pd170  1  -0.01146686  0.20998203  0.18500030  1
  Pd  Pd171  1  0.19488266  0.59516712  -0.00566518  1
  Pd  Pd172  1  0.60234936  0.39773053  0.20632949  1
  Pd  Pd173  1  0.60386967  0.39595665  0.59422024  1
  Pd  Pd174  1  0.60130352  0.60013185  0.00011417  1
  Pd  Pd175  1  0.79612203  0.21586968  0.60263547  1
  Pd  Pd176  1  0.00447371  0.01065235  0.00749417  1
  Pd  Pd177  1  0.59685650  0.19546543  0.00037145  1
  Pd  Pd178  1  0.60383077  0.19218975  0.40049207  1
  Pd  Pd179  1  0.19512221  0.81137963  0.60110237  1
  Pd  Pd180  1  0.39263924  0.59704003  0.40601949  1
  Pd  Pd181  1  0.80171109  0.60978982  0.39059715  1
  Pd  Pd182  1  0.20392912  0.59418395  0.20622058  1
  Pd  Pd183  1  0.20400464  0.79882098  0.20804326  1
  Pd  Pd184  1  0.80391225  0.19309580  0.00278742  1
  Pd  Pd185  1  0.39347473  0.80144303  0.39747361  1
  Pd  Pd186  1  0.39649643  0.19716382  0.60171907  1
  Pd  Pd187  1  0.00256058  0.80713178  0.39609252  1
  Pd  Pd188  1  0.59232069  0.20182414  0.80964482  1
  Pd  Pd189  1  0.60172384  -0.00456889  0.80192138  1
  Pd  Pd190  1  0.39357488  0.39999989  0.40255497  1
  Pd  Pd191  1  -0.00895662  0.01007632  0.79578662  1
  Pd  Pd192  1  0.60701046  0.60725863  0.79806550  1
  Pd  Pd193  1  0.00124375  0.00349769  0.61055282  1
  Pd  Pd194  1  0.79170535  -0.01191527  0.61236128  1
  Pd  Pd195  1  0.60464717  0.60878490  0.39974990  1
  Pd  Pd196  1  0.19200219  0.20643701  0.81216659  1
  Pd  Pd197  1  0.40223903  0.20059302  0.19936574  1
  Pd  Pd198  1  0.00757657  0.60754248  0.80263247  1
  Pd  Pd199  1  0.00028116  0.79903324  0.60483963  1
  Rh  Rh200  1  0.39728643  0.19223879  0.39487387  1
  Rh  Rh201  1  0.40616894  0.40111428  -0.00220548  1
  Rh  Rh202  1  0.41196796  -0.00099924  0.40226978  1
  Rh  Rh203  1  0.60910598  0.79406684  0.40600833  1
  Rh  Rh204  1  0.60484563  0.00194005  0.19665013  1
  Rh  Rh205  1  -0.01009032  0.59148999  0.19015183  1
  Rh  Rh206  1  0.79789892  -0.00415769  0.38810743  1
  Rh  Rh207  1  0.00247913  0.80694817  0.19476347  1
  Rh  Rh208  1  0.79549311  0.59494147  0.80846823  1
  Rh  Rh209  1  0.80076215  0.80347246  0.20259638  1
  Rh  Rh210  1  -0.00206446  0.60162780  0.40383743  1
  Rh  Rh211  1  0.79860328  0.19556808  0.19342989  1
  Rh  Rh212  1  0.41689395  0.78924991  0.59808275  1
  Rh  Rh213  1  -0.00984847  0.40333157  0.79790506  1
  Rh  Rh214  1  0.80200581  0.59991607  -0.00463983  1
  Rh  Rh215  1  0.00362046  0.20032146  0.81229640  1
  Rh  Rh216  1  0.00153214  0.39906959  0.00834511  1
  Rh  Rh217  1  0.80444796  0.80890571  0.80491191  1
  Rh  Rh218  1  0.41015499  0.00094830  0.79827337  1
  Rh  Rh219  1  -0.00552314  0.39812369  0.39297978  1
  Rh  Rh220  1  0.40190999  -0.00765238  0.19846097  1
  Rh  Rh221  1  0.79559035  0.39898220  0.39878864  1
  Rh  Rh222  1  0.20981589  0.19370513  0.20588874  1
  Rh  Rh223  1  0.79790038  0.00055651  -0.00167434  1
  Rh  Rh224  1  0.60269500  0.39339720  0.80736519  1
  Rh  Rh225  1  0.19284101  0.40622261  0.20573204  1
  Rh  Rh226  1  0.60425004  -0.00738050  0.59828146  1
  Rh  Rh227  1  0.20896548  0.40081792  0.79702425  1
  Rh  Rh228  1  -0.00688418  0.79180097  0.00643602  1
  Rh  Rh229  1  0.39387402  -0.00117756  0.00609132  1
  Rh  Rh230  1  0.41038148  0.20568626  0.00411344  1
  Rh  Rh231  1  0.59770813  0.79639591  0.00160940  1
  Rh  Rh232  1  0.79791580  0.19338914  0.39724963  1
  Rh  Rh233  1  0.80716440  0.80029448  -0.00245528  1
  Rh  Rh234  1  0.40986283  0.40032140  0.19741393  1
  Rh  Rh235  1  0.00289330  0.79804330  0.79507950  1
  Rh  Rh236  1  0.60010233  0.79573410  0.79873243  1
  Rh  Rh237  1  0.60568887  0.40441688  0.00265954  1
  Rh  Rh238  1  0.79264788  0.60269258  0.20267832  1
  Rh  Rh239  1  0.40060262  0.80259077  0.00860585  1
  Rh  Rh240  1  0.40574550  0.59143214  0.00540137  1
  Rh  Rh241  1  0.59062009  0.79468889  0.18816230  1
  Rh  Rh242  1  0.39844755  0.58900922  0.79597611  1
  Rh  Rh243  1  0.18943076  0.19500811  -0.00429451  1
  Rh  Rh244  1  0.79544931  0.20080002  0.79767034  1
  Rh  Rh245  1  0.20036465  -0.00501389  0.80349920  1
  Rh  Rh246  1  0.60529175  0.20068724  0.59061514  1
  Rh  Rh247  1  0.19887988  0.40113943  0.00026435  1
  Rh  Rh248  1  0.20334629  0.19534075  0.59261007  1
  Rh  Rh249  1  0.79042439  0.40831290  -0.00996459  1
