# generated using pymatgen
data_ZrScNbPdRh
_symmetry_space_group_name_H-M   'P 1'
_cell_length_a   16.55675724
_cell_length_b   16.55803141
_cell_length_c   16.56267202
_cell_angle_alpha   89.97917722
_cell_angle_beta   90.02798623
_cell_angle_gamma   90.00203385
_symmetry_Int_Tables_number   1
_chemical_formula_structural   ZrScNbPdRh
_chemical_formula_sum   'Zr50 Sc50 Nb50 Pd50 Rh50'
_cell_volume   4540.61107813
_cell_formula_units_Z   50
loop_
 _symmetry_equiv_pos_site_id
 _symmetry_equiv_pos_as_xyz
  1  'x, y, z'
loop_
 _atom_site_type_symbol
 _atom_site_label
 _atom_site_symmetry_multiplicity
 _atom_site_fract_x
 _atom_site_fract_y
 _atom_site_fract_z
 _atom_site_occupancy
  Zr  Zr0  1  0.09060466  0.89406261  0.50015812  1
  Zr  Zr1  1  0.89286579  0.30644818  0.50260695  1
  Zr  Zr2  1  0.50069899  0.29921333  0.09500534  1
  Zr  Zr3  1  0.10361367  0.50496470  0.49535176  1
  Zr  Zr4  1  0.09906125  0.50224519  0.29798181  1
  Zr  Zr5  1  0.70625466  0.70365049  0.49376225  1
  Zr  Zr6  1  0.10067797  0.29644911  0.89773689  1
  Zr  Zr7  1  0.69219433  0.69381206  0.29857736  1
  Zr  Zr8  1  0.50077381  0.29768668  0.49659199  1
  Zr  Zr9  1  0.89407372  0.09156055  0.50747361  1
  Zr  Zr10  1  0.50116106  0.49718715  0.70048495  1
  Zr  Zr11  1  0.50166435  0.29679083  0.68717384  1
  Zr  Zr12  1  0.49621763  0.09916309  0.10027845  1
  Zr  Zr13  1  0.49758791  0.50297988  0.09906761  1
  Zr  Zr14  1  0.69926233  0.08994199  0.10691310  1
  Zr  Zr15  1  0.09721436  0.09462244  0.71628868  1
  Zr  Zr16  1  0.30285720  0.49882077  0.89999219  1
  Zr  Zr17  1  0.90016842  0.30344950  0.10321860  1
  Zr  Zr18  1  0.50855122  0.89652894  0.50167711  1
  Zr  Zr19  1  0.50435569  0.50301020  0.89849040  1
  Zr  Zr20  1  0.69913091  0.50575242  0.70714660  1
  Zr  Zr21  1  0.09827420  0.70479859  0.89110607  1
  Zr  Zr22  1  0.09613175  0.30003159  0.10259982  1
  Zr  Zr23  1  0.90773736  0.70504390  0.90608763  1
  Zr  Zr24  1  0.70126875  0.10050461  0.69167857  1
  Zr  Zr25  1  0.70702870  0.29821549  0.70086643  1
  Zr  Zr26  1  0.70711313  0.50071580  0.49443283  1
  Zr  Zr27  1  0.29952877  0.30159930  0.70183318  1
  Zr  Zr28  1  0.30286918  0.09466921  0.69715039  1
  Zr  Zr29  1  0.30324321  0.90348298  0.10690589  1
  Zr  Zr30  1  0.49917869  0.70603714  0.90086079  1
  Zr  Zr31  1  0.09960626  0.70159010  0.29605244  1
  Zr  Zr32  1  0.89423513  0.10522235  0.70375079  1
  Zr  Zr33  1  0.29393730  0.09451731  0.30389400  1
  Zr  Zr34  1  0.28833764  0.10213977  0.90284533  1
  Zr  Zr35  1  0.70098537  0.30051699  0.09774699  1
  Zr  Zr36  1  0.49760833  0.90351714  0.70593288  1
  Zr  Zr37  1  0.30835577  0.71198454  0.29832586  1
  Zr  Zr38  1  0.48790760  0.49957759  0.50580582  1
  Zr  Zr39  1  0.50132533  0.70182192  0.11223291  1
  Zr  Zr40  1  0.30121951  0.29525819  0.08907981  1
  Zr  Zr41  1  0.50247279  0.70428671  0.49042194  1
  Zr  Zr42  1  0.30000567  0.50549349  0.69365450  1
  Zr  Zr43  1  0.69757437  0.09540519  0.30341651  1
  Zr  Zr44  1  0.90730825  0.69796935  0.10215617  1
  Zr  Zr45  1  0.10062795  0.70242643  0.49836322  1
  Zr  Zr46  1  0.09739852  0.51056935  0.10602448  1
  Zr  Zr47  1  0.91083486  0.89844871  0.30518170  1
  Zr  Zr48  1  0.50049559  0.89108242  0.89487323  1
  Zr  Zr49  1  0.70613917  0.90226034  0.49691896  1
  Sc  Sc50  1  0.69233651  0.90564823  0.70047988  1
  Sc  Sc51  1  0.30298733  0.69579056  0.10061088  1
  Sc  Sc52  1  0.09780075  0.09218333  0.29489756  1
  Sc  Sc53  1  0.49394345  0.30898348  0.90750270  1
  Sc  Sc54  1  0.50276660  0.71194080  0.70260955  1
  Sc  Sc55  1  0.89500994  0.50464848  0.49871705  1
  Sc  Sc56  1  0.89626260  0.69873484  0.30071597  1
  Sc  Sc57  1  0.90495556  0.70029072  0.69988868  1
  Sc  Sc58  1  0.29539621  0.50613258  0.10239787  1
  Sc  Sc59  1  0.29861571  0.70559714  0.89994540  1
  Sc  Sc60  1  0.09255470  0.90507209  0.89081304  1
  Sc  Sc61  1  0.49200800  0.08821302  0.89469950  1
  Sc  Sc62  1  0.89244069  0.89339961  0.09660922  1
  Sc  Sc63  1  0.50015415  0.52232301  0.29785609  1
  Sc  Sc64  1  0.89926051  0.70951435  0.49729746  1
  Sc  Sc65  1  0.29905389  0.89636319  0.70179967  1
  Sc  Sc66  1  0.71230090  0.08599700  0.88437283  1
  Sc  Sc67  1  0.29415597  0.50393298  0.30178309  1
  Sc  Sc68  1  0.10798639  0.09091068  0.49347813  1
  Sc  Sc69  1  0.70533388  0.71130474  0.10689463  1
  Sc  Sc70  1  0.90047370  0.30676283  0.69996423  1
  Sc  Sc71  1  0.70135007  0.69665003  0.89178897  1
  Sc  Sc72  1  0.10299921  0.30780593  0.49593817  1
  Sc  Sc73  1  0.28657662  0.90046266  0.50394273  1
  Sc  Sc74  1  0.50376451  0.10307677  0.50267736  1
  Sc  Sc75  1  0.70407642  0.29229427  0.30823799  1
  Sc  Sc76  1  0.90322651  0.09840062  0.29679870  1
  Sc  Sc77  1  0.30661020  0.29930905  0.49569031  1
  Sc  Sc78  1  0.29790563  0.69230243  0.50813939  1
  Sc  Sc79  1  0.70269689  0.49592456  0.89156998  1
  Sc  Sc80  1  0.91111866  0.09085353  0.09900130  1
  Sc  Sc81  1  0.29588131  0.30407688  0.31155371  1
  Sc  Sc82  1  0.89469721  0.30332163  0.89171275  1
  Sc  Sc83  1  0.29658574  0.30174705  0.90456799  1
  Sc  Sc84  1  0.70190581  0.89576172  0.90066373  1
  Sc  Sc85  1  0.90998329  0.90398269  0.68565411  1
  Sc  Sc86  1  0.70507320  0.69750748  0.70340032  1
  Sc  Sc87  1  0.69719141  0.89963913  0.29823484  1
  Sc  Sc88  1  0.09724105  0.10067814  0.09519588  1
  Sc  Sc89  1  0.90033087  0.29997728  0.29260761  1
  Sc  Sc90  1  0.09776050  0.30144683  0.29432184  1
  Sc  Sc91  1  0.50981946  0.09888609  0.30662562  1
  Sc  Sc92  1  0.30514741  0.89856530  0.90007613  1
  Sc  Sc93  1  0.70911514  0.49939918  0.11148145  1
  Sc  Sc94  1  0.69771334  0.10038459  0.49708540  1
  Sc  Sc95  1  0.29965915  0.09367704  0.09250984  1
  Sc  Sc96  1  0.09915576  0.90367104  0.11555413  1
  Sc  Sc97  1  0.50213532  0.09307725  0.69210078  1
  Sc  Sc98  1  0.09863257  0.50579786  0.89491790  1
  Sc  Sc99  1  0.90091046  0.49489510  0.70935626  1
  Nb  Nb100  1  0.88917577  0.49817543  0.29106957  1
  Nb  Nb101  1  0.09540923  0.30735780  0.69671449  1
  Nb  Nb102  1  0.30038477  0.10167417  0.50100696  1
  Nb  Nb103  1  0.50155921  0.30036265  0.30127407  1
  Nb  Nb104  1  0.10722528  0.69744601  0.70284536  1
  Nb  Nb105  1  0.09957792  0.88631671  0.69995150  1
  Nb  Nb106  1  0.69572793  0.89932459  0.09928969  1
  Nb  Nb107  1  0.70071406  0.29245717  0.89988006  1
  Nb  Nb108  1  0.11420675  0.90012581  0.30619056  1
  Nb  Nb109  1  0.70069886  0.30045473  0.50106110  1
  Nb  Nb110  1  0.89993497  0.50320106  0.90386542  1
  Nb  Nb111  1  0.08818724  0.10011377  0.89981490  1
  Nb  Nb112  1  0.28783037  0.69807680  0.70816396  1
  Nb  Nb113  1  0.48785037  0.88676238  0.30156773  1
  Nb  Nb114  1  0.29328578  0.90241749  0.29835005  1
  Nb  Nb115  1  0.89837514  0.89956966  0.89947950  1
  Nb  Nb116  1  0.91098960  0.09104180  0.89682543  1
  Nb  Nb117  1  0.50028217  0.71041032  0.30040506  1
  Nb  Nb118  1  0.50294684  0.89456847  0.09784351  1
  Nb  Nb119  1  0.09698801  0.49764664  0.69778291  1
  Nb  Nb120  1  0.09820609  0.69715320  0.09521553  1
  Nb  Nb121  1  0.29576199  0.49661929  0.50285210  1
  Nb  Nb122  1  0.90198101  0.89478676  0.49910320  1
  Nb  Nb123  1  0.70653223  0.50113831  0.30151992  1
  Nb  Nb124  1  0.89846526  0.49888537  0.10440278  1
  Nb  Nb125  1  0.80413439  0.59772252  0.00160662  1
  Nb  Nb126  1  -0.00239591  0.20318343  0.40755389  1
  Nb  Nb127  1  0.00687213  0.20227495  0.59887011  1
  Nb  Nb128  1  0.59866080  0.19939683  0.80379611  1
  Nb  Nb129  1  0.39845697  0.20342636  0.20561098  1
  Nb  Nb130  1  -0.00570928  0.40313333  0.39563966  1
  Nb  Nb131  1  0.40557108  0.39531544  0.20278000  1
  Nb  Nb132  1  0.40186166  0.19955762  0.79810993  1
  Nb  Nb133  1  0.19257862  0.79924308  0.00458603  1
  Nb  Nb134  1  0.79870864  0.19517595  0.19143480  1
  Nb  Nb135  1  0.80023267  0.19137120  -0.00324440  1
  Nb  Nb136  1  0.19489272  0.20189549  0.60333692  1
  Nb  Nb137  1  0.20636233  0.19964185  0.19732484  1
  Nb  Nb138  1  0.60019655  0.60049486  0.59593558  1
  Nb  Nb139  1  0.19879030  0.40255752  0.60134306  1
  Nb  Nb140  1  0.00843930  0.59901608  0.60288817  1
  Nb  Nb141  1  0.81031550  0.80477509  0.80250870  1
  Nb  Nb142  1  0.59995543  0.40245635  0.39683477  1
  Nb  Nb143  1  0.39759443  0.60328242  0.79649742  1
  Nb  Nb144  1  0.60571146  0.60165958  0.00402466  1
  Nb  Nb145  1  -0.00571392  0.40645562  0.00212863  1
  Nb  Nb146  1  0.60710166  0.18957848  -0.00903650  1
  Nb  Nb147  1  0.60022235  -0.00511394  0.00420967  1
  Nb  Nb148  1  0.59777232  0.40088109  0.21010141  1
  Nb  Nb149  1  0.39554707  -0.00611169  0.39963039  1
  Pd  Pd150  1  0.20015740  0.79425159  0.19199356  1
  Pd  Pd151  1  0.80830213  -0.00342982  0.20213217  1
  Pd  Pd152  1  0.40728835  0.61445483  0.60853286  1
  Pd  Pd153  1  0.80586597  0.60039473  0.60385931  1
  Pd  Pd154  1  0.40410943  -0.00712565  -0.00400943  1
  Pd  Pd155  1  0.60913088  0.79438146  0.60475039  1
  Pd  Pd156  1  0.80384934  -0.00270661  0.39662345  1
  Pd  Pd157  1  0.00950573  0.81206673  0.00498049  1
  Pd  Pd158  1  0.80128108  0.80310003  0.20672490  1
  Pd  Pd159  1  0.80117581  0.40188070  -0.00615395  1
  Pd  Pd160  1  0.80715115  0.19657007  0.39638726  1
  Pd  Pd161  1  0.20947310  0.39452691  0.19889594  1
  Pd  Pd162  1  0.40452327  0.40999253  0.39130273  1
  Pd  Pd163  1  0.40277907  0.18950774  0.39522163  1
  Pd  Pd164  1  -0.01059635  0.59727757  0.40096304  1
  Pd  Pd165  1  0.00183743  0.80253959  0.20277775  1
  Pd  Pd166  1  0.20223483  0.20076933  0.79728547  1
  Pd  Pd167  1  0.19074504  0.20244734  0.39949814  1
  Pd  Pd168  1  0.79916964  0.80454995  0.60987281  1
  Pd  Pd169  1  0.20786854  0.60838671  0.39460484  1
  Pd  Pd170  1  0.18907580  -0.00910790  -0.00219296  1
  Pd  Pd171  1  0.40168197  -0.00487510  0.58903089  1
  Pd  Pd172  1  0.40264896  0.39813127  0.79978727  1
  Pd  Pd173  1  0.00935386  0.00761242  0.60210229  1
  Pd  Pd174  1  0.40667665  0.00481339  0.20977142  1
  Pd  Pd175  1  0.20247477  -0.00872043  0.80265733  1
  Pd  Pd176  1  0.40389773  0.60443744  -0.00455631  1
  Pd  Pd177  1  0.19159333  0.00209684  0.60441074  1
  Pd  Pd178  1  0.80835823  -0.01235168  0.78935696  1
  Pd  Pd179  1  0.79814950  0.00116292  -0.00034145  1
  Pd  Pd180  1  -0.00271332  0.59892862  0.79394986  1
  Pd  Pd181  1  0.39214845  0.60108667  0.39720714  1
  Pd  Pd182  1  0.39259196  0.79672204  0.60093975  1
  Pd  Pd183  1  0.19833880  0.60766880  -0.00666236  1
  Pd  Pd184  1  0.60122298  0.20494005  0.19804115  1
  Pd  Pd185  1  0.19627434  0.40535717  0.79717795  1
  Pd  Pd186  1  0.59898922  0.59513771  0.40548336  1
  Pd  Pd187  1  0.00476152  -0.01142110  0.00425522  1
  Pd  Pd188  1  -0.00615141  0.20844493  0.79557000  1
  Pd  Pd189  1  0.00117314  0.00464998  0.40029058  1
  Pd  Pd190  1  0.61059862  0.40751685  0.00333547  1
  Pd  Pd191  1  0.38810205  0.80731115  0.41354952  1
  Pd  Pd192  1  0.19071361  0.40550450  0.00275714  1
  Pd  Pd193  1  0.20138884  0.79806454  0.60117739  1
  Pd  Pd194  1  0.58886020  -0.01155145  0.20334648  1
  Pd  Pd195  1  0.79882901  0.40746071  0.60746402  1
  Pd  Pd196  1  -0.00908242  0.20671633  -0.00538069  1
  Pd  Pd197  1  0.60814999  0.79549438  -0.00037112  1
  Pd  Pd198  1  0.60790723  0.40636019  0.59258284  1
  Pd  Pd199  1  0.59910077  0.38779923  0.80148318  1
  Rh  Rh200  1  0.81148691  0.60788826  0.80937781  1
  Rh  Rh201  1  0.19118912  0.19585332  0.00157600  1
  Rh  Rh202  1  0.39491131  0.00309407  0.79917226  1
  Rh  Rh203  1  0.39291403  0.59901636  0.20684878  1
  Rh  Rh204  1  0.58866534  0.60621343  0.79827532  1
  Rh  Rh205  1  0.19947788  0.80690057  0.80669334  1
  Rh  Rh206  1  0.39176746  0.40868492  0.00796624  1
  Rh  Rh207  1  -0.00516461  0.80463040  0.79222268  1
  Rh  Rh208  1  0.00308747  0.79858769  0.39532130  1
  Rh  Rh209  1  0.19804649  0.00890977  0.19715666  1
  Rh  Rh210  1  0.39073496  0.80194147  0.00928014  1
  Rh  Rh211  1  0.79078767  0.39011546  0.20913901  1
  Rh  Rh212  1  0.80030326  0.60572550  0.19597532  1
  Rh  Rh213  1  0.60630745  0.19910761  0.60001266  1
  Rh  Rh214  1  0.59854522  0.80638176  0.20578815  1
  Rh  Rh215  1  0.59140748  -0.00856972  0.39831884  1
  Rh  Rh216  1  0.19511713  0.40178402  0.40332938  1
  Rh  Rh217  1  0.39881548  0.80316025  0.19376463  1
  Rh  Rh218  1  0.19293311  0.59538486  0.60268666  1
  Rh  Rh219  1  -0.00549112  -0.00823652  0.79548931  1
  Rh  Rh220  1  0.79725889  -0.00660307  0.59989363  1
  Rh  Rh221  1  0.60552005  0.80423291  0.39254306  1
  Rh  Rh222  1  0.20202819  0.79722360  0.40195376  1
  Rh  Rh223  1  0.80043277  0.39800583  0.39350569  1
  Rh  Rh224  1  0.61281839  0.80154769  0.79708805  1
  Rh  Rh225  1  0.80426201  0.60563253  0.39561257  1
  Rh  Rh226  1  0.39095712  0.79278800  0.79285225  1
  Rh  Rh227  1  0.60096314  0.00072212  0.59411969  1
  Rh  Rh228  1  0.40636578  0.19471575  -0.00886727  1
  Rh  Rh229  1  0.60345165  0.20617681  0.40642599  1
  Rh  Rh230  1  0.80338328  0.20249862  0.59655820  1
  Rh  Rh231  1  -0.00082525  0.41019990  0.20183388  1
  Rh  Rh232  1  0.20307138  -0.00472517  0.40331902  1
  Rh  Rh233  1  0.20265591  0.60923856  0.20424570  1
  Rh  Rh234  1  0.00552398  0.40544767  0.59009378  1
  Rh  Rh235  1  -0.00024719  -0.00681489  0.20156300  1
  Rh  Rh236  1  0.59683254  0.00200392  0.80632884  1
  Rh  Rh237  1  0.60590959  0.59716635  0.19456162  1
  Rh  Rh238  1  0.00239832  0.40040154  0.81064788  1
  Rh  Rh239  1  -0.00394208  0.59305585  0.00181483  1
  Rh  Rh240  1  0.39032643  0.39427285  0.59629220  1
  Rh  Rh241  1  0.00308705  0.78955645  0.60279224  1
  Rh  Rh242  1  0.20411743  0.59476378  0.80308046  1
  Rh  Rh243  1  0.79635072  0.79468100  -0.00632918  1
  Rh  Rh244  1  0.79892068  0.40081083  0.80101422  1
  Rh  Rh245  1  0.00278515  0.19403550  0.20749089  1
  Rh  Rh246  1  0.80034648  0.19864255  0.80518794  1
  Rh  Rh247  1  -0.00424414  0.60029161  0.20458751  1
  Rh  Rh248  1  0.39171255  0.19903704  0.60320503  1
  Rh  Rh249  1  0.79971454  0.80299588  0.39386140  1
