# generated using pymatgen
data_ZrScNbPdRh
_symmetry_space_group_name_H-M   'P 1'
_cell_length_a   16.55480135
_cell_length_b   16.55546471
_cell_length_c   16.55562492
_cell_angle_alpha   90.02337331
_cell_angle_beta   90.02869189
_cell_angle_gamma   90.02007151
_symmetry_Int_Tables_number   1
_chemical_formula_structural   ZrScNbPdRh
_chemical_formula_sum   'Zr50 Sc50 Nb50 Pd50 Rh50'
_cell_volume   4537.43911849
_cell_formula_units_Z   50
loop_
 _symmetry_equiv_pos_site_id
 _symmetry_equiv_pos_as_xyz
  1  'x, y, z'
loop_
 _atom_site_type_symbol
 _atom_site_label
 _atom_site_symmetry_multiplicity
 _atom_site_fract_x
 _atom_site_fract_y
 _atom_site_fract_z
 _atom_site_occupancy
  Zr  Zr0  1  0.30238355  0.49777081  0.89791068  1
  Zr  Zr1  1  0.09832067  0.89307430  0.30718763  1
  Zr  Zr2  1  0.90515486  0.90176295  0.09460122  1
  Zr  Zr3  1  0.49803839  0.90558842  0.69693229  1
  Zr  Zr4  1  0.30731493  0.10122236  0.49813166  1
  Zr  Zr5  1  0.50501247  0.69911046  0.91167597  1
  Zr  Zr6  1  0.69481526  0.10065721  0.90320802  1
  Zr  Zr7  1  0.89885197  0.90403817  0.49237279  1
  Zr  Zr8  1  0.30053360  0.69429207  0.50899326  1
  Zr  Zr9  1  0.29870028  0.89337763  0.30271837  1
  Zr  Zr10  1  0.69865300  0.49953288  0.50301686  1
  Zr  Zr11  1  0.90528221  0.10438193  0.09677638  1
  Zr  Zr12  1  0.90313297  0.69802365  0.10739504  1
  Zr  Zr13  1  0.51232752  0.50482492  0.89988184  1
  Zr  Zr14  1  0.10000300  0.70508703  0.29924283  1
  Zr  Zr15  1  0.50391404  0.89814204  0.30073894  1
  Zr  Zr16  1  0.09930838  0.28707638  0.70608126  1
  Zr  Zr17  1  0.30980359  0.30359309  0.70193544  1
  Zr  Zr18  1  0.30454666  0.50440797  0.69619686  1
  Zr  Zr19  1  0.49739359  0.50568671  0.50481723  1
  Zr  Zr20  1  0.69239395  0.69088041  0.89380809  1
  Zr  Zr21  1  0.89330195  0.50007041  0.69533232  1
  Zr  Zr22  1  0.30792317  0.09771727  0.09278192  1
  Zr  Zr23  1  0.49573945  0.11039820  0.91358445  1
  Zr  Zr24  1  0.30562416  0.29926938  0.49864965  1
  Zr  Zr25  1  0.70589344  0.89075921  0.30417327  1
  Zr  Zr26  1  0.50054691  0.10452342  0.50202948  1
  Zr  Zr27  1  0.70061285  0.90607238  0.90016514  1
  Zr  Zr28  1  0.50413318  0.89119075  0.09893309  1
  Zr  Zr29  1  0.30078347  0.69511912  0.09892966  1
  Zr  Zr30  1  0.10634330  0.69972525  0.10232449  1
  Zr  Zr31  1  0.10543222  0.89755205  0.08748027  1
  Zr  Zr32  1  0.10270379  0.70051511  0.70015054  1
  Zr  Zr33  1  0.29504655  0.90317640  0.70324865  1
  Zr  Zr34  1  0.89814477  0.49251981  0.49995431  1
  Zr  Zr35  1  0.69967682  0.09880130  0.10273528  1
  Zr  Zr36  1  0.50592689  0.10053414  0.30709785  1
  Zr  Zr37  1  0.49764764  0.69821087  0.49923470  1
  Zr  Zr38  1  0.49967761  0.70504965  0.29658637  1
  Zr  Zr39  1  0.10113078  0.89473317  0.49922929  1
  Zr  Zr40  1  0.69932664  0.69598220  0.49796139  1
  Zr  Zr41  1  0.50517462  0.30686108  0.89644250  1
  Zr  Zr42  1  0.90815447  0.29696952  0.89866259  1
  Zr  Zr43  1  0.10345270  0.70243869  0.50065624  1
  Zr  Zr44  1  0.49820481  0.89330938  0.90320016  1
  Zr  Zr45  1  0.09679650  0.29822011  0.29227700  1
  Zr  Zr46  1  0.49360599  0.29895299  0.09459947  1
  Zr  Zr47  1  0.30554881  0.30648375  0.10567550  1
  Zr  Zr48  1  0.30204215  0.89252378  0.50310753  1
  Zr  Zr49  1  0.70158891  0.49929867  0.30941899  1
  Sc  Sc50  1  0.90054315  0.29971817  0.69927762  1
  Sc  Sc51  1  0.89575975  0.30125189  0.50423853  1
  Sc  Sc52  1  0.70684891  0.30409211  0.10047244  1
  Sc  Sc53  1  0.10413871  0.70526691  0.89435086  1
  Sc  Sc54  1  0.29623923  0.69493600  0.69984445  1
  Sc  Sc55  1  0.69677530  0.70437935  0.09830787  1
  Sc  Sc56  1  0.49976261  0.50862555  0.30911350  1
  Sc  Sc57  1  0.69310174  0.30473679  0.70167203  1
  Sc  Sc58  1  0.31262743  0.10768540  0.29395847  1
  Sc  Sc59  1  0.49159324  0.50027155  0.09278884  1
  Sc  Sc60  1  0.09757376  0.29808610  0.89991330  1
  Sc  Sc61  1  0.89740275  0.10152236  0.69244299  1
  Sc  Sc62  1  0.89827611  0.69176012  0.50436892  1
  Sc  Sc63  1  0.90338486  0.30406430  0.09668779  1
  Sc  Sc64  1  0.70115627  0.10657630  0.30027727  1
  Sc  Sc65  1  0.09133803  0.49634234  0.50068935  1
  Sc  Sc66  1  0.49965935  0.29608008  0.50708881  1
  Sc  Sc67  1  0.49797954  0.90354643  0.49932628  1
  Sc  Sc68  1  0.90661748  0.68482498  0.70165412  1
  Sc  Sc69  1  0.30029278  0.89889635  0.09271786  1
  Sc  Sc70  1  0.30174765  0.69836606  0.29420488  1
  Sc  Sc71  1  0.08524441  0.10016388  0.50430074  1
  Sc  Sc72  1  0.08686955  0.30527976  0.49561931  1
  Sc  Sc73  1  0.70136020  0.50106155  0.70494087  1
  Sc  Sc74  1  0.90957799  0.69681585  0.88857295  1
  Sc  Sc75  1  0.29762619  0.30523461  0.89924877  1
  Sc  Sc76  1  0.69696434  0.10490956  0.49681016  1
  Sc  Sc77  1  0.09114969  0.29945618  0.09613163  1
  Sc  Sc78  1  0.10970753  0.49072157  0.90342076  1
  Sc  Sc79  1  0.69557939  0.90260973  0.10120242  1
  Sc  Sc80  1  0.89442400  0.30758121  0.29368637  1
  Sc  Sc81  1  0.70246068  0.30444543  0.49335185  1
  Sc  Sc82  1  0.49443711  0.29400571  0.30004278  1
  Sc  Sc83  1  0.10053165  0.10258217  0.89686062  1
  Sc  Sc84  1  0.49967613  0.09682243  0.10474986  1
  Sc  Sc85  1  0.89538864  0.49907647  0.29421942  1
  Sc  Sc86  1  0.29117225  0.90209521  0.90660614  1
  Sc  Sc87  1  0.89944219  0.48884232  0.89259985  1
  Sc  Sc88  1  0.50804068  0.70196948  0.70885798  1
  Sc  Sc89  1  0.30574390  0.69855430  0.89798311  1
  Sc  Sc90  1  0.09596040  0.48891888  0.29463640  1
  Sc  Sc91  1  0.89190833  0.10224908  0.50081582  1
  Sc  Sc92  1  0.29518801  0.10755468  0.70995349  1
  Sc  Sc93  1  0.90011168  0.49119954  0.10402059  1
  Sc  Sc94  1  0.69679848  0.90735154  0.69718984  1
  Sc  Sc95  1  0.50062595  0.49060665  0.70112913  1
  Sc  Sc96  1  0.69603510  0.90452896  0.49697505  1
  Sc  Sc97  1  0.70702625  0.49691923  0.09594677  1
  Sc  Sc98  1  0.09710641  0.10116083  0.70625895  1
  Sc  Sc99  1  0.10145271  0.50832019  0.69902513  1
  Nb  Nb100  1  0.70509116  0.49436879  0.89756585  1
  Nb  Nb101  1  0.10004222  0.10404513  0.10398289  1
  Nb  Nb102  1  0.70446450  0.69921210  0.29965401  1
  Nb  Nb103  1  0.50456374  0.69801774  0.09903086  1
  Nb  Nb104  1  0.90235540  0.09693638  0.29519551  1
  Nb  Nb105  1  0.28962024  0.49687791  0.09715014  1
  Nb  Nb106  1  0.89393239  0.09382682  0.89727058  1
  Nb  Nb107  1  0.69593552  0.10180403  0.70717109  1
  Nb  Nb108  1  0.29693083  0.30510762  0.30022901  1
  Nb  Nb109  1  0.10167953  0.50132729  0.09306323  1
  Nb  Nb110  1  0.29628578  0.09359473  0.90560367  1
  Nb  Nb111  1  0.09979929  0.89933893  0.70565741  1
  Nb  Nb112  1  0.89475126  0.70976181  0.30081352  1
  Nb  Nb113  1  0.90118348  0.89525181  0.30208058  1
  Nb  Nb114  1  0.70938659  0.69827019  0.69997104  1
  Nb  Nb115  1  0.09971391  0.10262726  0.29385903  1
  Nb  Nb116  1  0.09685084  0.89932972  0.89419473  1
  Nb  Nb117  1  0.70554660  0.30877929  0.89966586  1
  Nb  Nb118  1  0.69481000  0.30459001  0.29955266  1
  Nb  Nb119  1  0.29458748  0.49080433  0.29835223  1
  Nb  Nb120  1  0.89670285  0.90039416  0.70090541  1
  Nb  Nb121  1  0.50440727  0.11494607  0.70548863  1
  Nb  Nb122  1  0.49685539  0.29304596  0.70438550  1
  Nb  Nb123  1  0.89931266  0.90145435  0.89756468  1
  Nb  Nb124  1  0.30175255  0.50126123  0.50469566  1
  Nb  Nb125  1  -0.00302442  0.19624097  0.38854927  1
  Nb  Nb126  1  0.39109873  0.40479130  0.39967249  1
  Nb  Nb127  1  0.00285251  0.00001471  0.20367133  1
  Nb  Nb128  1  0.80546788  0.60176003  -0.00553940  1
  Nb  Nb129  1  0.00115225  0.59646712  0.00374666  1
  Nb  Nb130  1  0.19914955  0.20168979  0.59287074  1
  Nb  Nb131  1  0.19489863  0.00364232  0.20245847  1
  Nb  Nb132  1  0.19741931  0.00890370  0.39825821  1
  Nb  Nb133  1  0.40339468  0.00623353  0.80530619  1
  Nb  Nb134  1  -0.00568964  -0.00817153  0.80310730  1
  Nb  Nb135  1  0.79475395  0.19728057  0.80557584  1
  Nb  Nb136  1  0.00098134  0.60394625  0.39228836  1
  Nb  Nb137  1  0.19735973  0.00226000  0.59733254  1
  Nb  Nb138  1  0.80479939  0.79705751  -0.00887643  1
  Nb  Nb139  1  0.80111397  0.19877392  -0.00743941  1
  Nb  Nb140  1  0.20254678  0.19474674  0.00458955  1
  Nb  Nb141  1  0.80297757  0.80229978  0.79700125  1
  Nb  Nb142  1  0.59962628  0.40378797  0.20437336  1
  Nb  Nb143  1  0.20378407  0.39600320  0.59876630  1
  Nb  Nb144  1  0.19569589  0.19906931  0.39688908  1
  Nb  Nb145  1  0.60115130  0.60111669  0.20028753  1
  Nb  Nb146  1  0.59136514  0.00962506  0.79997026  1
  Nb  Nb147  1  0.80236530  0.79923596  0.60605969  1
  Nb  Nb148  1  0.20195128  0.59008090  0.39884554  1
  Nb  Nb149  1  -0.00462668  0.80563792  0.60652721  1
  Pd  Pd150  1  0.20851858  0.19823546  0.19665161  1
  Pd  Pd151  1  0.58624174  0.39362058  0.39763305  1
  Pd  Pd152  1  0.80930762  0.59982984  0.39977551  1
  Pd  Pd153  1  0.59775754  0.39515434  0.60141531  1
  Pd  Pd154  1  0.80308981  0.20623154  0.19587474  1
  Pd  Pd155  1  0.40851682  0.60012820  0.79774583  1
  Pd  Pd156  1  0.39691433  -0.00557192  0.19984460  1
  Pd  Pd157  1  0.00646098  0.40461552  0.79423573  1
  Pd  Pd158  1  0.00733525  0.00759043  -0.00533881  1
  Pd  Pd159  1  0.19144950  0.39831856  0.19058440  1
  Pd  Pd160  1  0.40280813  0.59040559  0.19778860  1
  Pd  Pd161  1  0.59956347  0.60086887  0.61006830  1
  Pd  Pd162  1  0.19626392  0.60387574  -0.00954829  1
  Pd  Pd163  1  0.38934324  0.59849214  0.39529001  1
  Pd  Pd164  1  0.39480983  0.01222464  0.61289709  1
  Pd  Pd165  1  0.00615165  0.39727152  0.61012240  1
  Pd  Pd166  1  0.20769299  0.79842694  0.80396097  1
  Pd  Pd167  1  0.00246623  -0.00274361  0.60834975  1
  Pd  Pd168  1  0.60809055  0.20847488  0.00774216  1
  Pd  Pd169  1  0.60331388  0.40277658  0.00918376  1
  Pd  Pd170  1  0.40327688  0.79304402  0.60864805  1
  Pd  Pd171  1  0.79829419  -0.00058330  0.00565999  1
  Pd  Pd172  1  -0.00220254  0.78906318  -0.00624575  1
  Pd  Pd173  1  0.39422551  0.80433183  0.79927017  1
  Pd  Pd174  1  0.39789396  -0.00390900  0.39648479  1
  Pd  Pd175  1  0.79441391  0.00497411  0.39470581  1
  Pd  Pd176  1  0.79697665  0.80471686  0.19000629  1
  Pd  Pd177  1  0.39295325  0.19907732  0.81157871  1
  Pd  Pd178  1  0.60562825  0.79953150  0.59959577  1
  Pd  Pd179  1  0.59956753  0.00827776  0.60186615  1
  Pd  Pd180  1  0.80435429  -0.00562549  0.20359686  1
  Pd  Pd181  1  0.00932404  0.58790783  0.81115217  1
  Pd  Pd182  1  0.00212621  0.80705452  0.19820302  1
  Pd  Pd183  1  0.60832758  0.20639093  0.59669206  1
  Pd  Pd184  1  0.59809064  0.20824261  0.19670999  1
  Pd  Pd185  1  0.39536361  0.80171735  0.19278029  1
  Pd  Pd186  1  0.00183136  0.00649649  0.39498393  1
  Pd  Pd187  1  0.00144578  0.59415605  0.20226887  1
  Pd  Pd188  1  0.79140017  0.20509564  0.60824860  1
  Pd  Pd189  1  0.60358967  -0.00241907  0.20679303  1
  Pd  Pd190  1  0.79295018  0.59994080  0.19459787  1
  Pd  Pd191  1  0.60774041  0.80754610  0.79581016  1
  Pd  Pd192  1  0.59932129  0.79863449  0.40431310  1
  Pd  Pd193  1  0.19880378  0.59383176  0.20675160  1
  Pd  Pd194  1  0.19903686  0.39845725  0.40756885  1
  Pd  Pd195  1  0.19652363  0.40039202  0.79053625  1
  Pd  Pd196  1  0.40971427  0.40913163  0.20830081  1
  Pd  Pd197  1  0.79362677  -0.00064597  0.59926408  1
  Pd  Pd198  1  0.80544669  0.20453039  0.39381709  1
  Pd  Pd199  1  0.39676270  0.59640179  0.00059666  1
  Rh  Rh200  1  0.40046596  0.79595600  0.40340165  1
  Rh  Rh201  1  0.60550071  0.20394795  0.80383198  1
  Rh  Rh202  1  -0.01370380  0.78923126  0.41003065  1
  Rh  Rh203  1  0.80052750  0.39189300  0.79403303  1
  Rh  Rh204  1  0.79983677  0.60056390  0.80586226  1
  Rh  Rh205  1  -0.01276649  0.18624782  0.80014850  1
  Rh  Rh206  1  0.59207763  -0.00133646  -0.00025175  1
  Rh  Rh207  1  0.20085475  0.59918558  0.80439495  1
  Rh  Rh208  1  0.59967237  0.20460730  0.40284753  1
  Rh  Rh209  1  0.61094812  0.59379505  0.00944421  1
  Rh  Rh210  1  0.60622646  0.79318022  0.20218884  1
  Rh  Rh211  1  0.20305010  0.79304754  -0.00541825  1
  Rh  Rh212  1  0.19629143  0.00102308  0.79796549  1
  Rh  Rh213  1  0.19179867  0.00766452  0.00305827  1
  Rh  Rh214  1  0.80196118  0.39728801  0.40001483  1
  Rh  Rh215  1  0.79851493  0.00335559  0.79308535  1
  Rh  Rh216  1  0.79621010  0.59889105  0.59918414  1
  Rh  Rh217  1  0.39000374  0.21035463  -0.00458412  1
  Rh  Rh218  1  0.00194701  0.40848304  -0.00063632  1
  Rh  Rh219  1  0.80218850  0.79673496  0.40821683  1
  Rh  Rh220  1  0.19328592  0.58969458  0.59262055  1
  Rh  Rh221  1  0.00364926  0.60529795  0.59164326  1
  Rh  Rh222  1  0.40615940  -0.00764019  -0.00395934  1
  Rh  Rh223  1  0.40735197  0.40319978  0.80376974  1
  Rh  Rh224  1  0.60132189  0.60986213  0.39337079  1
  Rh  Rh225  1  -0.01038072  0.40007207  0.39400962  1
  Rh  Rh226  1  0.60099503  0.40025677  0.79769714  1
  Rh  Rh227  1  0.00192641  0.40130446  0.19426476  1
  Rh  Rh228  1  0.41065879  0.60487576  0.61043670  1
  Rh  Rh229  1  0.21395101  0.78917409  0.40115651  1
  Rh  Rh230  1  0.60378436  0.00049388  0.39647861  1
  Rh  Rh231  1  0.00136293  0.19475290  -0.00539545  1
  Rh  Rh232  1  0.40380203  0.20078934  0.20032752  1
  Rh  Rh233  1  0.60167351  0.59375176  0.79386248  1
  Rh  Rh234  1  0.79349305  0.40028967  0.60260667  1
  Rh  Rh235  1  0.19583016  0.80670154  0.60726859  1
  Rh  Rh236  1  0.20479881  0.80729460  0.19437012  1
  Rh  Rh237  1  0.80652273  0.40013281  -0.00481537  1
  Rh  Rh238  1  0.39833945  0.20827754  0.39481319  1
  Rh  Rh239  1  0.00045397  0.20409975  0.59295670  1
  Rh  Rh240  1  0.78972027  0.39853089  0.20221563  1
  Rh  Rh241  1  0.39697197  0.79508485  0.00420005  1
  Rh  Rh242  1  -0.00383783  0.80547712  0.79314342  1
  Rh  Rh243  1  0.39707426  0.40475490  -0.00530689  1
  Rh  Rh244  1  -0.01023282  0.20065375  0.20215887  1
  Rh  Rh245  1  0.39762321  0.19620522  0.60596237  1
  Rh  Rh246  1  0.19954882  0.38901778  0.00590190  1
  Rh  Rh247  1  0.60792672  0.79988708  0.00079294  1
  Rh  Rh248  1  0.40195769  0.39957395  0.59632421  1
  Rh  Rh249  1  0.20413434  0.20098901  0.80728126  1
