# generated using pymatgen
data_ZrScNbPdRh
_symmetry_space_group_name_H-M   'P 1'
_cell_length_a   16.56954654
_cell_length_b   16.56478405
_cell_length_c   16.56703015
_cell_angle_alpha   89.98995084
_cell_angle_beta   89.99255751
_cell_angle_gamma   89.99854342
_symmetry_Int_Tables_number   1
_chemical_formula_structural   ZrScNbPdRh
_chemical_formula_sum   'Zr50 Sc50 Nb50 Pd50 Rh50'
_cell_volume   4547.16856401
_cell_formula_units_Z   50
loop_
 _symmetry_equiv_pos_site_id
 _symmetry_equiv_pos_as_xyz
  1  'x, y, z'
loop_
 _atom_site_type_symbol
 _atom_site_label
 _atom_site_symmetry_multiplicity
 _atom_site_fract_x
 _atom_site_fract_y
 _atom_site_fract_z
 _atom_site_occupancy
  Zr  Zr0  1  0.29745752  0.69647441  0.90119869  1
  Zr  Zr1  1  0.90108575  0.29946168  0.90492726  1
  Zr  Zr2  1  0.29500160  0.49761457  0.29790553  1
  Zr  Zr3  1  0.70294022  0.69181334  0.30239033  1
  Zr  Zr4  1  0.90409649  0.31120684  0.49043082  1
  Zr  Zr5  1  0.70223457  0.88998649  0.50791601  1
  Zr  Zr6  1  0.49368660  0.50008694  0.10927546  1
  Zr  Zr7  1  0.09751976  0.10321749  0.89954301  1
  Zr  Zr8  1  0.70444217  0.90597999  0.10259179  1
  Zr  Zr9  1  0.30775298  0.11033873  0.89183830  1
  Zr  Zr10  1  0.70448100  0.70205943  0.10338032  1
  Zr  Zr11  1  0.10149152  0.89185537  0.49852091  1
  Zr  Zr12  1  0.49517825  0.89961969  0.29869317  1
  Zr  Zr13  1  0.10320673  0.29939500  0.09404336  1
  Zr  Zr14  1  0.09722804  0.89863260  0.69954267  1
  Zr  Zr15  1  0.69133011  0.48998090  0.71360144  1
  Zr  Zr16  1  0.70495044  0.10308927  0.70138114  1
  Zr  Zr17  1  0.90316831  0.69845255  0.91139436  1
  Zr  Zr18  1  0.50629043  0.69753366  0.50220879  1
  Zr  Zr19  1  0.88979640  0.09941516  0.10479139  1
  Zr  Zr20  1  0.90327865  0.10272852  0.69993400  1
  Zr  Zr21  1  0.30617974  0.09282257  0.50724073  1
  Zr  Zr22  1  0.70390092  0.69462141  0.90249286  1
  Zr  Zr23  1  0.89609251  0.70044024  0.48980701  1
  Zr  Zr24  1  0.10011229  0.68984225  0.50165528  1
  Zr  Zr25  1  0.29719697  0.11172242  0.08889369  1
  Zr  Zr26  1  0.50046713  0.30097087  0.09874122  1
  Zr  Zr27  1  0.09677540  0.89942132  0.90681468  1
  Zr  Zr28  1  0.30163923  0.90100071  0.29834295  1
  Zr  Zr29  1  0.09717450  0.50771785  0.69871154  1
  Zr  Zr30  1  0.69363963  0.89342019  0.89632743  1
  Zr  Zr31  1  0.09729881  0.10641295  0.70172036  1
  Zr  Zr32  1  0.30188463  0.30640000  0.29950696  1
  Zr  Zr33  1  0.49830975  0.09979647  0.90677937  1
  Zr  Zr34  1  0.29982646  0.90217626  0.09613275  1
  Zr  Zr35  1  0.50036068  0.69495542  0.29365632  1
  Zr  Zr36  1  0.50313674  0.30661943  0.69386364  1
  Zr  Zr37  1  0.10711991  0.30256161  0.70151629  1
  Zr  Zr38  1  0.10552465  0.50056491  0.10091824  1
  Zr  Zr39  1  0.89344980  0.50203798  0.90335673  1
  Zr  Zr40  1  0.90304372  0.50021201  0.30122203  1
  Zr  Zr41  1  0.10497787  0.09791550  0.10035359  1
  Zr  Zr42  1  0.90080580  0.49803576  0.50351065  1
  Zr  Zr43  1  0.50786799  0.50665615  0.88807079  1
  Zr  Zr44  1  0.91044619  0.50728632  0.09811904  1
  Zr  Zr45  1  0.70737893  0.09035720  0.49208788  1
  Zr  Zr46  1  0.70641684  0.50579862  0.10049485  1
  Zr  Zr47  1  0.29359292  0.90282773  0.69237258  1
  Zr  Zr48  1  0.70285642  0.29972990  0.89866052  1
  Zr  Zr49  1  0.69983525  0.28964873  0.10140763  1
  Sc  Sc50  1  0.29319950  0.50298353  0.90577010  1
  Sc  Sc51  1  0.50533347  0.69550461  0.70900498  1
  Sc  Sc52  1  0.69838872  0.10904602  0.90401421  1
  Sc  Sc53  1  0.30022274  0.89953435  0.90400832  1
  Sc  Sc54  1  0.28130361  0.68989755  0.70175357  1
  Sc  Sc55  1  0.90416665  0.49872949  0.70198244  1
  Sc  Sc56  1  0.28868563  0.69926765  0.49984140  1
  Sc  Sc57  1  0.30071174  0.70225256  0.29916453  1
  Sc  Sc58  1  0.09337037  0.30404688  0.49979010  1
  Sc  Sc59  1  0.30125994  0.69472233  0.09435729  1
  Sc  Sc60  1  0.90190227  0.29840311  0.70019926  1
  Sc  Sc61  1  0.30163788  0.89966674  0.49807490  1
  Sc  Sc62  1  0.49461271  0.90330226  0.49579369  1
  Sc  Sc63  1  0.51500790  0.89115248  0.70963338  1
  Sc  Sc64  1  0.69273345  0.50186836  0.30421254  1
  Sc  Sc65  1  0.49799105  0.69841146  0.90499998  1
  Sc  Sc66  1  0.09715860  0.49986372  0.49814612  1
  Sc  Sc67  1  0.70911636  0.31266412  0.49382739  1
  Sc  Sc68  1  0.09206964  0.70020072  0.30291983  1
  Sc  Sc69  1  0.29269946  0.09969292  0.28829326  1
  Sc  Sc70  1  0.28959153  0.49621220  0.69891122  1
  Sc  Sc71  1  0.70149663  0.29565313  0.70809613  1
  Sc  Sc72  1  0.49675120  0.08860369  0.49746352  1
  Sc  Sc73  1  0.50949191  0.31540982  0.29694123  1
  Sc  Sc74  1  0.10224933  0.69854516  0.89774505  1
  Sc  Sc75  1  0.89166702  0.89528390  0.49312396  1
  Sc  Sc76  1  0.90286358  0.29332679  0.30016267  1
  Sc  Sc77  1  0.49674008  0.90208098  0.90623938  1
  Sc  Sc78  1  0.89805206  0.10063215  0.89637358  1
  Sc  Sc79  1  0.70413191  0.70206995  0.49614851  1
  Sc  Sc80  1  0.50124615  0.29146850  0.90021056  1
  Sc  Sc81  1  0.70374887  0.30359429  0.29576554  1
  Sc  Sc82  1  0.50874136  0.48233044  0.49846909  1
  Sc  Sc83  1  0.09641574  0.11124331  0.29089005  1
  Sc  Sc84  1  0.69671528  0.10167585  0.10434488  1
  Sc  Sc85  1  0.09149248  0.10443534  0.50651065  1
  Sc  Sc86  1  0.09182193  0.30047055  0.30163891  1
  Sc  Sc87  1  0.90189073  0.69327870  0.70877135  1
  Sc  Sc88  1  0.89874338  0.30379338  0.10740108  1
  Sc  Sc89  1  0.70534759  0.09858118  0.29288115  1
  Sc  Sc90  1  0.51301550  0.09032562  0.29946701  1
  Sc  Sc91  1  0.90322278  0.89715417  0.90846549  1
  Sc  Sc92  1  0.09198688  0.69328369  0.09750168  1
  Sc  Sc93  1  0.49143766  0.70183143  0.09869360  1
  Sc  Sc94  1  0.30525786  0.30797664  0.51008624  1
  Sc  Sc95  1  0.49306364  0.10372517  0.70892940  1
  Sc  Sc96  1  0.70320362  0.91202559  0.30372389  1
  Sc  Sc97  1  0.10235263  0.30555946  0.89600810  1
  Sc  Sc98  1  0.89797058  0.89498551  0.69635431  1
  Sc  Sc99  1  0.89851430  0.10781205  0.49696474  1
  Nb  Nb100  1  0.90012862  0.70634937  0.11170945  1
  Nb  Nb101  1  0.29653935  0.48529987  0.10063224  1
  Nb  Nb102  1  0.90189256  0.09483264  0.29966983  1
  Nb  Nb103  1  0.09840716  0.90067010  0.29604542  1
  Nb  Nb104  1  0.09860476  0.90300392  0.09986529  1
  Nb  Nb105  1  0.70151803  0.49788208  0.90521903  1
  Nb  Nb106  1  0.30032689  0.29185801  0.70992825  1
  Nb  Nb107  1  0.10294339  0.50457478  0.29882913  1
  Nb  Nb108  1  0.70175229  0.89301380  0.69978550  1
  Nb  Nb109  1  0.49605565  0.90339132  0.09959916  1
  Nb  Nb110  1  0.50276468  0.10281798  0.10094643  1
  Nb  Nb111  1  0.29937150  0.50497564  0.49476223  1
  Nb  Nb112  1  0.30268226  0.29974691  0.90290141  1
  Nb  Nb113  1  0.90467240  0.88939418  0.29642159  1
  Nb  Nb114  1  0.09313176  0.49960305  0.91073820  1
  Nb  Nb115  1  0.90195009  0.88969116  0.10722164  1
  Nb  Nb116  1  0.89885970  0.71110819  0.29356383  1
  Nb  Nb117  1  0.30450009  0.31198872  0.09077567  1
  Nb  Nb118  1  0.09882820  0.69803616  0.69414595  1
  Nb  Nb119  1  0.69615645  0.72000954  0.69345127  1
  Nb  Nb120  1  0.50248443  0.50607725  0.30195944  1
  Nb  Nb121  1  0.50129933  0.49865630  0.70014463  1
  Nb  Nb122  1  0.50268521  0.29415336  0.49802672  1
  Nb  Nb123  1  0.29651766  0.10669821  0.70215614  1
  Nb  Nb124  1  0.70616728  0.50733611  0.49616490  1
  Nb  Nb125  1  0.39341857  0.79579787  0.79545876  1
  Nb  Nb126  1  0.00378426  0.79155294  0.59870746  1
  Nb  Nb127  1  0.59760739  0.20278916  0.40530053  1
  Nb  Nb128  1  0.20660453  0.19788422  0.40379813  1
  Nb  Nb129  1  0.39713561  0.39719445  0.79707492  1
  Nb  Nb130  1  0.59869738  0.79857574  0.39378332  1
  Nb  Nb131  1  0.40233266  0.59143646  0.40368595  1
  Nb  Nb132  1  -0.00203729  -0.00808937  0.19970350  1
  Nb  Nb133  1  0.00094505  0.19855145  0.00402160  1
  Nb  Nb134  1  0.19177335  0.00418449  0.39665211  1
  Nb  Nb135  1  0.40509074  0.20218037  0.19866390  1
  Nb  Nb136  1  0.60762094  0.00015556  0.60540041  1
  Nb  Nb137  1  0.60186283  0.19690335  0.59108874  1
  Nb  Nb138  1  0.40409876  0.59399705  0.59830821  1
  Nb  Nb139  1  0.79394685  -0.00559115  0.79679760  1
  Nb  Nb140  1  0.39859428  0.79136406  0.60804264  1
  Nb  Nb141  1  0.60523366  0.40632575  -0.00237343  1
  Nb  Nb142  1  0.40298782  0.20154808  0.39565775  1
  Nb  Nb143  1  0.19318096  0.80632659  0.19567604  1
  Nb  Nb144  1  0.59850405  0.80389679  0.20092219  1
  Nb  Nb145  1  0.20024293  0.00654369  0.79535686  1
  Nb  Nb146  1  0.40202706  0.00648250  0.19042284  1
  Nb  Nb147  1  0.00045490  -0.00326649  0.39036971  1
  Nb  Nb148  1  0.60407060  0.59391117  0.60340994  1
  Nb  Nb149  1  0.78957557  0.59895001  0.60415483  1
  Pd  Pd150  1  -0.00450698  -0.00494470  0.80056007  1
  Pd  Pd151  1  0.80649576  0.59748608  0.20422835  1
  Pd  Pd152  1  -0.00279485  0.79804714  0.79782971  1
  Pd  Pd153  1  -0.00235734  0.59906786  0.39509532  1
  Pd  Pd154  1  0.39407610  0.40614930  0.60651159  1
  Pd  Pd155  1  0.60405225  0.00340475  0.00224008  1
  Pd  Pd156  1  0.41422701  -0.01065325  0.61520272  1
  Pd  Pd157  1  0.79549009  0.20297821  0.39389096  1
  Pd  Pd158  1  -0.00090316  0.40004851  0.79992262  1
  Pd  Pd159  1  0.19439070  0.39528748  0.40513080  1
  Pd  Pd160  1  0.79666578  0.40337751  0.60733907  1
  Pd  Pd161  1  0.59625589  0.59737949  0.00798123  1
  Pd  Pd162  1  0.39806657  0.58962416  0.00125372  1
  Pd  Pd163  1  -0.00448455  0.21050153  0.59769361  1
  Pd  Pd164  1  0.79113394  0.60232242  0.79202430  1
  Pd  Pd165  1  0.39536311  -0.01042524  0.79557573  1
  Pd  Pd166  1  0.38871506  0.59664257  0.20281248  1
  Pd  Pd167  1  0.80376298  -0.00141669  0.60434439  1
  Pd  Pd168  1  0.59519413  0.79892359  0.00678106  1
  Pd  Pd169  1  0.60683710  0.40614587  0.19405296  1
  Pd  Pd170  1  0.80094685  0.40263792  0.20315605  1
  Pd  Pd171  1  0.00418106  0.59890499  0.80787907  1
  Pd  Pd172  1  0.80802143  0.80155441  0.80320376  1
  Pd  Pd173  1  0.00425697  0.40042194  0.20140292  1
  Pd  Pd174  1  -0.00947424  -0.00964833  0.58840097  1
  Pd  Pd175  1  0.19883285  0.80018378  0.39120310  1
  Pd  Pd176  1  0.40498470  0.40081014  0.39851274  1
  Pd  Pd177  1  -0.00963225  0.00517268  0.00785892  1
  Pd  Pd178  1  0.19520773  0.79336961  0.00732341  1
  Pd  Pd179  1  0.40569128  0.19755173  0.59727228  1
  Pd  Pd180  1  0.80766908  0.39808965  0.79837852  1
  Pd  Pd181  1  0.61133494  0.39722066  0.59461660  1
  Pd  Pd182  1  0.79677416  0.20965558  0.59281487  1
  Pd  Pd183  1  0.40111610  0.78835614  0.40972484  1
  Pd  Pd184  1  0.20229852  0.20428451  0.59251678  1
  Pd  Pd185  1  0.61156815  0.60974129  0.79548951  1
  Pd  Pd186  1  0.60527269  0.00536699  0.79868307  1
  Pd  Pd187  1  0.20203204  0.80495668  0.80038563  1
  Pd  Pd188  1  0.19315867  0.00572143  0.59780370  1
  Pd  Pd189  1  0.20209296  0.61093476  0.19863288  1
  Pd  Pd190  1  0.20676146  0.21293327  0.20171977  1
  Pd  Pd191  1  0.20385585  0.40564577  0.80721903  1
  Pd  Pd192  1  0.41054616  0.40798708  -0.01442159  1
  Pd  Pd193  1  0.79845166  -0.00042077  -0.00864790  1
  Pd  Pd194  1  0.39053050  0.59768622  0.79009310  1
  Pd  Pd195  1  0.20587504  0.00496153  -0.01167682  1
  Pd  Pd196  1  0.80215440  0.80162211  0.00130245  1
  Pd  Pd197  1  0.19812152  0.40255375  0.59549777  1
  Pd  Pd198  1  0.79820086  0.39736936  0.00743682  1
  Pd  Pd199  1  0.19180957  0.39311011  0.20269348  1
  Rh  Rh200  1  0.18891628  0.59347523  0.80663388  1
  Rh  Rh201  1  0.59601183  0.20037690  0.79474934  1
  Rh  Rh202  1  0.00018836  0.20867240  0.80550555  1
  Rh  Rh203  1  0.79101371  0.80325162  0.38842501  1
  Rh  Rh204  1  0.19782268  0.19859035  0.80442953  1
  Rh  Rh205  1  0.80677863  0.20050006  0.00255175  1
  Rh  Rh206  1  0.40142921  0.39908105  0.20423618  1
  Rh  Rh207  1  0.59419301  -0.00567036  0.19245603  1
  Rh  Rh208  1  0.59290497  0.79316739  0.81303752  1
  Rh  Rh209  1  0.00282693  0.79685820  0.00561838  1
  Rh  Rh210  1  0.20194178  0.59201551  0.59626628  1
  Rh  Rh211  1  0.00038991  0.60267121  0.00003612  1
  Rh  Rh212  1  0.59389820  0.59742474  0.40849043  1
  Rh  Rh213  1  0.80095413  0.40615414  0.39102549  1
  Rh  Rh214  1  -0.00044124  0.39622244  0.00177156  1
  Rh  Rh215  1  0.19674666  0.20968268  -0.00927599  1
  Rh  Rh216  1  0.19975429  -0.00688349  0.20220384  1
  Rh  Rh217  1  0.40308568  0.20319371  0.00495049  1
  Rh  Rh218  1  0.59820674  0.60495899  0.19213290  1
  Rh  Rh219  1  0.00568083  0.40670134  0.39280667  1
  Rh  Rh220  1  0.00501365  0.39951727  0.60680830  1
  Rh  Rh221  1  0.00503719  0.19269658  0.40041901  1
  Rh  Rh222  1  0.60530470  -0.00573587  0.41098912  1
  Rh  Rh223  1  0.39646491  0.80714459  0.19040021  1
  Rh  Rh224  1  0.80530098  0.60435995  0.00588859  1
  Rh  Rh225  1  0.39807547  0.00491240  0.00458746  1
  Rh  Rh226  1  0.81107445  -0.00311798  0.39389543  1
  Rh  Rh227  1  0.80507490  0.19451741  0.80196841  1
  Rh  Rh228  1  0.78934052  0.80475127  0.20621832  1
  Rh  Rh229  1  0.19870101  0.40085401  -0.00494182  1
  Rh  Rh230  1  0.00039297  0.80171308  0.40503085  1
  Rh  Rh231  1  0.19849769  0.59501458  0.00288505  1
  Rh  Rh232  1  0.38521144  0.01359556  0.38567385  1
  Rh  Rh233  1  0.80883808  -0.00593986  0.20376130  1
  Rh  Rh234  1  -0.01216559  0.60545805  0.59791107  1
  Rh  Rh235  1  0.80695558  0.59630849  0.39815742  1
  Rh  Rh236  1  0.20243072  0.59772927  0.39339298  1
  Rh  Rh237  1  0.00908758  0.79926834  0.19419101  1
  Rh  Rh238  1  0.58997133  0.80396389  0.59272865  1
  Rh  Rh239  1  -0.00514191  0.19370107  0.19078603  1
  Rh  Rh240  1  0.40579548  0.20892851  0.79759130  1
  Rh  Rh241  1  0.00002383  0.60225193  0.20664405  1
  Rh  Rh242  1  0.60518701  0.39844318  0.40078671  1
  Rh  Rh243  1  0.19788821  0.79539804  0.60001069  1
  Rh  Rh244  1  0.81492893  0.78654156  0.60573987  1
  Rh  Rh245  1  0.59254261  0.39096659  0.81070234  1
  Rh  Rh246  1  0.59561231  0.19870853  0.21057022  1
  Rh  Rh247  1  0.80048037  0.20056360  0.20627901  1
  Rh  Rh248  1  0.40008817  0.79890800  -0.00759697  1
  Rh  Rh249  1  0.60064619  0.20318394  0.00041959  1
