# generated using pymatgen
data_ZrScNbPdRh
_symmetry_space_group_name_H-M   'P 1'
_cell_length_a   16.55524223
_cell_length_b   16.55752953
_cell_length_c   16.55481056
_cell_angle_alpha   89.99564168
_cell_angle_beta   90.01347428
_cell_angle_gamma   89.99624592
_symmetry_Int_Tables_number   1
_chemical_formula_structural   ZrScNbPdRh
_chemical_formula_sum   'Zr50 Sc50 Nb50 Pd50 Rh50'
_cell_volume   4537.90373690
_cell_formula_units_Z   50
loop_
 _symmetry_equiv_pos_site_id
 _symmetry_equiv_pos_as_xyz
  1  'x, y, z'
loop_
 _atom_site_type_symbol
 _atom_site_label
 _atom_site_symmetry_multiplicity
 _atom_site_fract_x
 _atom_site_fract_y
 _atom_site_fract_z
 _atom_site_occupancy
  Zr  Zr0  1  0.69953125  0.50093729  0.89757601  1
  Zr  Zr1  1  0.69720542  0.89724409  0.09750628  1
  Zr  Zr2  1  0.29858698  0.89975496  0.90571506  1
  Zr  Zr3  1  0.30603384  0.49542519  0.30920508  1
  Zr  Zr4  1  0.09721877  0.89906211  0.69398722  1
  Zr  Zr5  1  0.49795228  0.70219311  0.30613060  1
  Zr  Zr6  1  0.50041689  0.70230675  0.69604307  1
  Zr  Zr7  1  0.69893432  0.90643363  0.51519447  1
  Zr  Zr8  1  0.31178301  0.90201064  0.69539636  1
  Zr  Zr9  1  0.90412406  0.70168226  0.09938902  1
  Zr  Zr10  1  0.30520500  0.71043681  0.30163973  1
  Zr  Zr11  1  0.49515903  0.10288771  0.49784850  1
  Zr  Zr12  1  0.69498903  0.29121780  0.10067547  1
  Zr  Zr13  1  0.50802168  0.49397780  0.30018914  1
  Zr  Zr14  1  0.29578172  0.51277735  0.89251963  1
  Zr  Zr15  1  0.50609885  0.90189870  0.69663899  1
  Zr  Zr16  1  0.50114724  0.10153960  0.30379539  1
  Zr  Zr17  1  0.89630222  0.49763084  0.10508543  1
  Zr  Zr18  1  0.89839364  0.29904530  0.30435459  1
  Zr  Zr19  1  0.30597092  0.90255723  0.10264041  1
  Zr  Zr20  1  0.30234205  0.29207050  0.89254689  1
  Zr  Zr21  1  0.30302258  0.10052497  0.10770807  1
  Zr  Zr22  1  0.69905490  0.08852401  0.69972502  1
  Zr  Zr23  1  0.49770861  0.10070703  0.89567100  1
  Zr  Zr24  1  0.50071884  0.10058161  0.10422909  1
  Zr  Zr25  1  0.69919133  0.50866530  0.49659338  1
  Zr  Zr26  1  0.69652529  0.69907742  0.50185202  1
  Zr  Zr27  1  0.10118694  0.09463042  0.09057583  1
  Zr  Zr28  1  0.29353859  0.71389143  0.09875740  1
  Zr  Zr29  1  0.69461121  0.89943293  0.70618333  1
  Zr  Zr30  1  0.90117200  0.30514924  0.68147802  1
  Zr  Zr31  1  0.10257847  0.70111922  0.50310709  1
  Zr  Zr32  1  0.30336118  0.49000669  0.10349191  1
  Zr  Zr33  1  0.10315629  0.90099188  0.49485930  1
  Zr  Zr34  1  0.50498830  0.50065452  0.10344760  1
  Zr  Zr35  1  0.70272680  0.29855093  0.69631122  1
  Zr  Zr36  1  0.29663301  0.89744525  0.29823778  1
  Zr  Zr37  1  0.49207832  0.49707805  0.49170313  1
  Zr  Zr38  1  0.69317177  0.90311717  0.30430480  1
  Zr  Zr39  1  0.09669784  0.70644481  0.10484562  1
  Zr  Zr40  1  0.89722025  0.29190084  0.89656618  1
  Zr  Zr41  1  0.89313788  0.10161556  0.50024599  1
  Zr  Zr42  1  0.30381397  0.68775525  0.70032136  1
  Zr  Zr43  1  0.10060427  0.49886778  0.31247346  1
  Zr  Zr44  1  0.69466674  0.49750357  0.11288625  1
  Zr  Zr45  1  0.90088787  0.69614255  0.89579711  1
  Zr  Zr46  1  0.29449058  0.29796645  0.28951085  1
  Zr  Zr47  1  0.10090822  0.91829663  0.90114845  1
  Zr  Zr48  1  0.90450259  0.49144670  0.50405321  1
  Zr  Zr49  1  0.50396720  0.30010816  0.89906320  1
  Sc  Sc50  1  0.89700248  0.69517163  0.50763854  1
  Sc  Sc51  1  0.29508835  0.29318798  0.69228291  1
  Sc  Sc52  1  0.50185851  0.89818941  0.89139734  1
  Sc  Sc53  1  0.70381670  0.70385295  0.69518900  1
  Sc  Sc54  1  0.10304099  0.30195449  0.30121631  1
  Sc  Sc55  1  0.30465970  0.10828199  0.70105059  1
  Sc  Sc56  1  0.50739013  0.70928641  0.10104535  1
  Sc  Sc57  1  0.69571415  0.69718858  0.09676215  1
  Sc  Sc58  1  0.09591031  0.69642400  0.69049555  1
  Sc  Sc59  1  0.49629056  0.30056804  0.09983289  1
  Sc  Sc60  1  0.50259111  0.49708058  0.90142552  1
  Sc  Sc61  1  0.90942175  0.89521397  0.09657163  1
  Sc  Sc62  1  0.90045495  0.70020879  0.69921593  1
  Sc  Sc63  1  0.09118198  0.49830221  0.09727169  1
  Sc  Sc64  1  0.90125975  0.50956449  0.69906475  1
  Sc  Sc65  1  0.90475732  0.69677829  0.29631599  1
  Sc  Sc66  1  0.09738281  0.30443583  0.50848795  1
  Sc  Sc67  1  0.90387330  0.30343109  0.10505141  1
  Sc  Sc68  1  0.49968934  0.69709890  0.50241624  1
  Sc  Sc69  1  0.89007908  0.89691704  0.69180176  1
  Sc  Sc70  1  0.30453453  0.09980076  0.30121824  1
  Sc  Sc71  1  0.89797919  0.90878447  0.30183109  1
  Sc  Sc72  1  0.29763073  0.69964129  0.89816932  1
  Sc  Sc73  1  0.10467049  0.68842335  0.90338007  1
  Sc  Sc74  1  0.89831553  0.50176450  0.30113825  1
  Sc  Sc75  1  0.09945294  0.70471652  0.30106419  1
  Sc  Sc76  1  0.49534083  0.29167381  0.69617594  1
  Sc  Sc77  1  0.29875968  0.09652746  0.89222253  1
  Sc  Sc78  1  0.29687802  0.49833129  0.50583422  1
  Sc  Sc79  1  0.10285697  0.50864858  0.69050749  1
  Sc  Sc80  1  0.50140071  0.70326575  0.89614606  1
  Sc  Sc81  1  0.70261394  0.70715016  0.89901056  1
  Sc  Sc82  1  0.30607697  0.70198055  0.49595643  1
  Sc  Sc83  1  0.09415663  0.29226493  0.89780405  1
  Sc  Sc84  1  0.11554975  0.09633977  0.31089126  1
  Sc  Sc85  1  0.88530302  0.09577082  0.30660022  1
  Sc  Sc86  1  0.49403022  0.09260012  0.69827946  1
  Sc  Sc87  1  0.69218777  0.29542860  0.29737302  1
  Sc  Sc88  1  0.69572912  0.68892279  0.30723585  1
  Sc  Sc89  1  0.49820175  0.90174654  0.30237395  1
  Sc  Sc90  1  0.09719629  0.30295859  0.10820557  1
  Sc  Sc91  1  0.10903932  0.89626333  0.09795505  1
  Sc  Sc92  1  0.90219862  0.50921039  0.90008035  1
  Sc  Sc93  1  0.90317425  0.10497324  0.70532197  1
  Sc  Sc94  1  0.89478945  0.90412494  0.90362856  1
  Sc  Sc95  1  0.30171101  0.29905113  0.50518006  1
  Sc  Sc96  1  0.69595173  0.09892248  0.29400709  1
  Sc  Sc97  1  0.49317531  0.50653427  0.69102430  1
  Sc  Sc98  1  0.10245188  0.29101409  0.69209710  1
  Sc  Sc99  1  0.30493352  0.89421619  0.49538141  1
  Nb  Nb100  1  0.50088663  0.90373494  0.50662646  1
  Nb  Nb101  1  0.50179309  0.90180027  0.09648144  1
  Nb  Nb102  1  0.29371130  0.09807507  0.50047483  1
  Nb  Nb103  1  0.10032291  0.09922546  0.50075624  1
  Nb  Nb104  1  0.10106884  0.50328142  0.50285484  1
  Nb  Nb105  1  0.69649740  0.49759801  0.69755035  1
  Nb  Nb106  1  0.09586791  0.90230119  0.30349874  1
  Nb  Nb107  1  0.29244671  0.29793389  0.09648003  1
  Nb  Nb108  1  0.70917100  0.29300031  0.50679184  1
  Nb  Nb109  1  0.70019707  0.10011680  0.09808675  1
  Nb  Nb110  1  0.69929446  0.49850435  0.30130024  1
  Nb  Nb111  1  0.70072225  0.29991575  0.89731685  1
  Nb  Nb112  1  0.90127509  0.90358404  0.49856568  1
  Nb  Nb113  1  0.69576480  0.90786274  0.89679469  1
  Nb  Nb114  1  0.09435295  0.10024755  0.89276536  1
  Nb  Nb115  1  0.10039537  0.49725003  0.89301431  1
  Nb  Nb116  1  0.49814466  0.29920501  0.31420466  1
  Nb  Nb117  1  0.10240094  0.09782811  0.69814863  1
  Nb  Nb118  1  0.91123422  0.10070391  0.90987582  1
  Nb  Nb119  1  0.50595344  0.29891046  0.49515804  1
  Nb  Nb120  1  0.29949229  0.50028435  0.70100551  1
  Nb  Nb121  1  0.71348841  0.10238286  0.90310131  1
  Nb  Nb122  1  0.89994710  0.09838172  0.10000096  1
  Nb  Nb123  1  0.70054886  0.10538642  0.50325619  1
  Nb  Nb124  1  0.89280442  0.29554731  0.50173181  1
  Nb  Nb125  1  0.60178940  0.39537693  0.59124940  1
  Nb  Nb126  1  0.20126496  0.39631461  -0.00737161  1
  Nb  Nb127  1  0.19600430  0.80283302  0.79630073  1
  Nb  Nb128  1  0.00105066  0.40214473  0.79684120  1
  Nb  Nb129  1  0.39230755  0.40314150  0.79534780  1
  Nb  Nb130  1  0.80048047  0.39959148  0.79983212  1
  Nb  Nb131  1  0.00321816  0.00309057  0.59435449  1
  Nb  Nb132  1  0.20555805  0.59918030  0.20244630  1
  Nb  Nb133  1  0.80159282  0.80319106  0.40172455  1
  Nb  Nb134  1  -0.00162152  0.19596623  0.40405980  1
  Nb  Nb135  1  0.19839429  0.00435591  0.59827113  1
  Nb  Nb136  1  0.79805354  0.80130564  0.20492018  1
  Nb  Nb137  1  0.00522478  0.80258007  0.80081402  1
  Nb  Nb138  1  0.39895339  0.60036432  0.00854559  1
  Nb  Nb139  1  0.19735307  0.40288694  0.79879789  1
  Nb  Nb140  1  0.60989923  0.19742860  0.80465734  1
  Nb  Nb141  1  0.20063915  0.20054233  -0.00038239  1
  Nb  Nb142  1  0.39736714  0.60215819  0.19795281  1
  Nb  Nb143  1  0.60393020  0.59750388  0.79357359  1
  Nb  Nb144  1  -0.00517092  0.80686527  0.40452178  1
  Nb  Nb145  1  0.79523489  0.39672458  -0.00428127  1
  Nb  Nb146  1  -0.00066455  0.18677144  0.20673159  1
  Nb  Nb147  1  0.00183225  0.00691528  0.20197439  1
  Nb  Nb148  1  0.79459839  0.39567238  0.40618304  1
  Nb  Nb149  1  0.60811450  0.00481525  -0.00131107  1
  Pd  Pd150  1  0.79663798  0.59560358  0.00517092  1
  Pd  Pd151  1  0.80507657  -0.00714670  0.19009694  1
  Pd  Pd152  1  0.60598332  0.39837520  0.00506943  1
  Pd  Pd153  1  0.79692986  0.60921367  0.20177600  1
  Pd  Pd154  1  0.20354300  0.39230251  0.41075801  1
  Pd  Pd155  1  0.39451741  0.79844406  0.80094001  1
  Pd  Pd156  1  0.80400627  0.19864824  0.19987106  1
  Pd  Pd157  1  0.40730357  0.39280602  0.20484488  1
  Pd  Pd158  1  0.40579846  0.20830623  0.20305224  1
  Pd  Pd159  1  0.00405102  0.20463327  0.00907132  1
  Pd  Pd160  1  0.79802976  0.79950212  0.00255989  1
  Pd  Pd161  1  0.80046096  0.59874818  0.60425369  1
  Pd  Pd162  1  0.78668407  -0.00160243  0.40632906  1
  Pd  Pd163  1  0.00800061  0.80171970  -0.01340655  1
  Pd  Pd164  1  0.59591544  -0.00086742  0.19594375  1
  Pd  Pd165  1  0.38978005  0.20394355  0.40314297  1
  Pd  Pd166  1  0.19636163  0.20897232  0.40575801  1
  Pd  Pd167  1  0.80486837  0.80158393  0.80099370  1
  Pd  Pd168  1  0.81102491  0.00179270  0.80176543  1
  Pd  Pd169  1  -0.00520840  0.60850061  0.40523309  1
  Pd  Pd170  1  0.20494071  0.60585201  0.39896404  1
  Pd  Pd171  1  0.20792744  -0.00057994  0.78983957  1
  Pd  Pd172  1  0.80020793  0.20001951  0.79347610  1
  Pd  Pd173  1  0.39391391  0.19747004  0.00122677  1
  Pd  Pd174  1  0.59476437  0.60452253  -0.00830943  1
  Pd  Pd175  1  0.20221885  0.59258988  0.01182429  1
  Pd  Pd176  1  0.60882251  0.19584447  0.40056927  1
  Pd  Pd177  1  0.21097499  0.80056852  0.60416937  1
  Pd  Pd178  1  0.60079555  0.19310183  -0.00544428  1
  Pd  Pd179  1  0.40428835  0.39545829  0.60341374  1
  Pd  Pd180  1  0.80565818  0.20384796  0.00720571  1
  Pd  Pd181  1  0.79635818  0.39375038  0.20449632  1
  Pd  Pd182  1  0.60410888  0.79659371  0.20368406  1
  Pd  Pd183  1  0.00153680  0.20496465  0.79205737  1
  Pd  Pd184  1  0.39411376  0.40389181  -0.00954726  1
  Pd  Pd185  1  -0.00220109  0.39846057  -0.00920007  1
  Pd  Pd186  1  0.61087560  0.39563665  0.40486465  1
  Pd  Pd187  1  0.40752520  0.79547911  -0.00177293  1
  Pd  Pd188  1  0.59405476  0.39866459  0.78706025  1
  Pd  Pd189  1  0.00106673  0.59757147  0.00184452  1
  Pd  Pd190  1  0.80110665  -0.00116897  0.00515285  1
  Pd  Pd191  1  0.39710547  -0.00392359  0.40047113  1
  Pd  Pd192  1  0.19039454  0.40806241  0.19627514  1
  Pd  Pd193  1  0.19532133  -0.00085101  0.20272400  1
  Pd  Pd194  1  0.60110359  0.80438198  0.40946783  1
  Pd  Pd195  1  -0.00325321  0.39225000  0.40325931  1
  Pd  Pd196  1  0.59591745  0.19756753  0.60691959  1
  Pd  Pd197  1  0.00876004  0.59338755  0.20313155  1
  Pd  Pd198  1  0.40601537  0.00049477  -0.00311602  1
  Pd  Pd199  1  -0.01137847  -0.00535461  0.79181467  1
  Rh  Rh200  1  0.59619446  0.38912639  0.20351952  1
  Rh  Rh201  1  0.79587953  0.20383199  0.39577716  1
  Rh  Rh202  1  0.19239252  0.80262910  -0.01312416  1
  Rh  Rh203  1  0.19249093  0.19595150  0.19291543  1
  Rh  Rh204  1  0.59386947  0.00996133  0.59337065  1
  Rh  Rh205  1  0.59528767  0.60462261  0.20679272  1
  Rh  Rh206  1  0.40128178  0.19742047  0.59394566  1
  Rh  Rh207  1  0.80481048  0.59662636  0.39805652  1
  Rh  Rh208  1  0.79903567  0.79858067  0.59308356  1
  Rh  Rh209  1  0.00195022  0.00278062  0.39863488  1
  Rh  Rh210  1  0.59653149  0.80007561  0.59852146  1
  Rh  Rh211  1  0.41146203  0.80714874  0.40719986  1
  Rh  Rh212  1  0.39339217  0.00434269  0.59292194  1
  Rh  Rh213  1  0.40443069  0.79786879  0.59603094  1
  Rh  Rh214  1  0.39837995  -0.00264242  0.79993003  1
  Rh  Rh215  1  -0.00103325  0.59804006  0.59427099  1
  Rh  Rh216  1  0.40845937  0.20408772  0.79635100  1
  Rh  Rh217  1  0.59191809  0.20164967  0.20320786  1
  Rh  Rh218  1  0.40642965  -0.00385640  0.20464721  1
  Rh  Rh219  1  0.00328054  0.60323310  0.79800445  1
  Rh  Rh220  1  0.79099733  0.59664638  0.79346047  1
  Rh  Rh221  1  -0.00279219  -0.00042699  0.00498829  1
  Rh  Rh222  1  0.59930224  0.81105858  -0.00729945  1
  Rh  Rh223  1  0.41430019  0.59376429  0.80769437  1
  Rh  Rh224  1  0.19145475  0.20048951  0.80370719  1
  Rh  Rh225  1  0.20551197  0.60069303  0.59394797  1
  Rh  Rh226  1  0.79374789  0.40846112  0.59783581  1
  Rh  Rh227  1  0.60556342  0.79307812  0.79803718  1
  Rh  Rh228  1  0.19561972  0.40388467  0.60424254  1
  Rh  Rh229  1  0.60144730  0.00869794  0.80993245  1
  Rh  Rh230  1  0.59734862  0.59404012  0.60290686  1
  Rh  Rh231  1  0.80562854  0.00453382  0.60243215  1
  Rh  Rh232  1  0.59326160  0.59824946  0.39941765  1
  Rh  Rh233  1  0.79988707  0.18805974  0.60764871  1
  Rh  Rh234  1  -0.00018686  0.19170667  0.59242093  1
  Rh  Rh235  1  0.00250476  0.40100807  0.21157350  1
  Rh  Rh236  1  0.00896264  0.40678504  0.60512862  1
  Rh  Rh237  1  0.40842998  0.80330751  0.19644453  1
  Rh  Rh238  1  0.20917451  -0.00374787  0.40430200  1
  Rh  Rh239  1  0.39315705  0.38967783  0.40145012  1
  Rh  Rh240  1  -0.00611327  0.81285869  0.21140702  1
  Rh  Rh241  1  0.60102734  0.00500715  0.40800961  1
  Rh  Rh242  1  0.19336647  0.79981962  0.39601792  1
  Rh  Rh243  1  0.19435307  0.80008429  0.20604941  1
  Rh  Rh244  1  0.20708696  0.01009125  -0.00154067  1
  Rh  Rh245  1  0.40030027  0.60023573  0.39692979  1
  Rh  Rh246  1  0.19110284  0.60468500  0.78970574  1
  Rh  Rh247  1  0.39556180  0.59981867  0.59230692  1
  Rh  Rh248  1  0.20163426  0.19256279  0.59651152  1
  Rh  Rh249  1  -0.00935271  0.80510185  0.59908010  1
