# generated using pymatgen
data_ZrScNbPdRh
_symmetry_space_group_name_H-M   'P 1'
_cell_length_a   16.55628158
_cell_length_b   16.55435260
_cell_length_c   16.55471477
_cell_angle_alpha   90.03108772
_cell_angle_beta   90.01953509
_cell_angle_gamma   90.02165403
_symmetry_Int_Tables_number   1
_chemical_formula_structural   ZrScNbPdRh
_chemical_formula_sum   'Zr50 Sc50 Nb50 Pd50 Rh50'
_cell_volume   4537.29051766
_cell_formula_units_Z   50
loop_
 _symmetry_equiv_pos_site_id
 _symmetry_equiv_pos_as_xyz
  1  'x, y, z'
loop_
 _atom_site_type_symbol
 _atom_site_label
 _atom_site_symmetry_multiplicity
 _atom_site_fract_x
 _atom_site_fract_y
 _atom_site_fract_z
 _atom_site_occupancy
  Zr  Zr0  1  0.30454201  0.29938451  0.89356416  1
  Zr  Zr1  1  0.10458115  0.09523738  0.89959883  1
  Zr  Zr2  1  0.70022778  0.29999272  0.50591534  1
  Zr  Zr3  1  0.90442260  0.49835949  0.69695016  1
  Zr  Zr4  1  0.30092117  0.30345838  0.30413562  1
  Zr  Zr5  1  0.30717014  0.29848225  0.11020919  1
  Zr  Zr6  1  0.69818251  0.29729774  0.09981264  1
  Zr  Zr7  1  0.90922930  0.90258672  0.30143992  1
  Zr  Zr8  1  0.89460357  0.69840574  0.30337643  1
  Zr  Zr9  1  0.50391763  0.70092563  0.89015884  1
  Zr  Zr10  1  0.10344578  0.69510127  0.30270759  1
  Zr  Zr11  1  0.30207517  0.90185312  0.08891544  1
  Zr  Zr12  1  0.29458829  0.10905870  0.29805697  1
  Zr  Zr13  1  0.70876117  0.90316388  0.49897635  1
  Zr  Zr14  1  0.30338102  0.30575381  0.69834500  1
  Zr  Zr15  1  0.30231210  0.10168553  0.09848904  1
  Zr  Zr16  1  0.89940338  0.89714074  0.50017495  1
  Zr  Zr17  1  0.29808395  0.89104206  0.50345640  1
  Zr  Zr18  1  0.89419564  0.50286745  0.09823780  1
  Zr  Zr19  1  0.70135986  0.69472027  0.69836135  1
  Zr  Zr20  1  0.68893320  0.50840737  0.09401385  1
  Zr  Zr21  1  0.89988159  0.30813091  0.29661381  1
  Zr  Zr22  1  0.50414380  0.30836069  0.49857491  1
  Zr  Zr23  1  0.69362203  0.09660641  0.10320848  1
  Zr  Zr24  1  0.50251265  0.69663992  0.70855865  1
  Zr  Zr25  1  0.90564210  0.88642400  0.10826928  1
  Zr  Zr26  1  0.29821085  0.50214553  0.69631582  1
  Zr  Zr27  1  0.89868251  0.30447425  0.70299304  1
  Zr  Zr28  1  0.30151695  0.09934792  0.90323389  1
  Zr  Zr29  1  0.30230595  0.49556833  0.50385657  1
  Zr  Zr30  1  0.09190143  0.30742977  0.90711689  1
  Zr  Zr31  1  0.50709096  0.50808543  0.89931496  1
  Zr  Zr32  1  0.89655257  0.49814979  0.29966302  1
  Zr  Zr33  1  0.70911879  0.30668285  0.70393069  1
  Zr  Zr34  1  0.70783732  0.10092658  0.49254003  1
  Zr  Zr35  1  0.69875732  0.10736074  0.68651798  1
  Zr  Zr36  1  0.88892774  0.29321877  0.89792672  1
  Zr  Zr37  1  0.50022983  0.69586917  0.08918554  1
  Zr  Zr38  1  0.49961963  0.30349593  0.69992540  1
  Zr  Zr39  1  0.10363860  0.50279823  0.50952525  1
  Zr  Zr40  1  0.29595111  0.50444272  0.10075754  1
  Zr  Zr41  1  0.51913797  0.09791650  0.50419077  1
  Zr  Zr42  1  0.70983056  0.70020068  0.09943455  1
  Zr  Zr43  1  0.70458120  0.89796344  0.90266215  1
  Zr  Zr44  1  0.29969579  0.49611507  0.89355121  1
  Zr  Zr45  1  0.90318101  0.30585212  0.09732010  1
  Zr  Zr46  1  0.29040376  0.30127071  0.49917833  1
  Zr  Zr47  1  0.50557974  0.09560260  0.30441187  1
  Zr  Zr48  1  0.09225559  0.89565879  0.50351204  1
  Zr  Zr49  1  0.90229375  0.90107642  0.89187137  1
  Sc  Sc50  1  0.09366320  0.10459068  0.50253430  1
  Sc  Sc51  1  0.89878371  0.09986803  0.30486340  1
  Sc  Sc52  1  0.09944936  0.70632989  0.69512730  1
  Sc  Sc53  1  0.90377587  0.90134481  0.69580427  1
  Sc  Sc54  1  0.71235369  0.69514569  0.50156569  1
  Sc  Sc55  1  0.50845005  0.89222011  0.30953445  1
  Sc  Sc56  1  0.90181029  0.09273829  0.49926481  1
  Sc  Sc57  1  0.49776413  0.50139139  0.69602011  1
  Sc  Sc58  1  0.70385942  0.09797674  0.30241811  1
  Sc  Sc59  1  0.28585100  0.10728417  0.70297310  1
  Sc  Sc60  1  0.70418708  0.69275166  0.89350489  1
  Sc  Sc61  1  0.08711738  0.70751461  0.88848425  1
  Sc  Sc62  1  0.70791383  0.89562465  0.69838668  1
  Sc  Sc63  1  0.50375997  0.30139182  0.10756954  1
  Sc  Sc64  1  0.29893826  0.49977430  0.30366509  1
  Sc  Sc65  1  0.49969484  0.49688890  0.30512122  1
  Sc  Sc66  1  0.49529803  0.30800508  0.29795770  1
  Sc  Sc67  1  0.29758869  0.70708710  0.69835361  1
  Sc  Sc68  1  0.50052259  0.69720165  0.50290893  1
  Sc  Sc69  1  0.70419794  0.30095847  0.30431629  1
  Sc  Sc70  1  0.70351956  0.69718747  0.29967366  1
  Sc  Sc71  1  0.89731079  0.10237943  0.09750062  1
  Sc  Sc72  1  0.09968438  0.10050852  0.09886398  1
  Sc  Sc73  1  0.09858994  0.89491409  0.70684893  1
  Sc  Sc74  1  0.29670632  0.90110636  0.89522856  1
  Sc  Sc75  1  0.50216111  0.49960132  0.49908783  1
  Sc  Sc76  1  0.70707220  0.89612423  0.30082495  1
  Sc  Sc77  1  0.50609439  0.88511915  0.70013222  1
  Sc  Sc78  1  0.90602759  0.30294610  0.49911684  1
  Sc  Sc79  1  0.29157662  0.69774414  0.50006859  1
  Sc  Sc80  1  0.70936027  0.10066501  0.90833061  1
  Sc  Sc81  1  0.30996000  0.70681396  0.89480637  1
  Sc  Sc82  1  0.09040276  0.09905508  0.30186103  1
  Sc  Sc83  1  0.28273565  0.10210532  0.50747133  1
  Sc  Sc84  1  0.50563628  0.69797511  0.30648410  1
  Sc  Sc85  1  0.50373309  0.90117202  0.09737572  1
  Sc  Sc86  1  0.10166001  0.50008064  0.30344518  1
  Sc  Sc87  1  0.50612815  0.89338733  0.49903262  1
  Sc  Sc88  1  0.08956775  0.69913161  0.10233219  1
  Sc  Sc89  1  0.89743521  0.09367028  0.70098063  1
  Sc  Sc90  1  0.09618061  0.09473019  0.69718298  1
  Sc  Sc91  1  0.70087707  0.50367497  0.30762415  1
  Sc  Sc92  1  0.70547443  0.90036773  0.10467538  1
  Sc  Sc93  1  0.90063720  0.50452941  0.50061295  1
  Sc  Sc94  1  0.09232217  0.30312455  0.69617172  1
  Sc  Sc95  1  0.49472216  0.89232271  0.89795220  1
  Sc  Sc96  1  0.90331042  0.51001851  0.88954059  1
  Sc  Sc97  1  0.50125225  0.10311929  0.09863219  1
  Sc  Sc98  1  0.10354527  0.30008900  0.31118519  1
  Sc  Sc99  1  0.89422309  0.70114439  0.90275099  1
  Nb  Nb100  1  0.29522188  0.69866748  0.29093472  1
  Nb  Nb101  1  0.90460840  0.09847676  0.90158320  1
  Nb  Nb102  1  0.50449267  0.10020877  0.69751765  1
  Nb  Nb103  1  0.49984673  0.10484282  0.89400436  1
  Nb  Nb104  1  0.09457522  0.49597791  0.09576637  1
  Nb  Nb105  1  0.09475459  0.89963816  0.10371571  1
  Nb  Nb106  1  0.29410233  0.70109776  0.09808408  1
  Nb  Nb107  1  0.10343311  0.29947157  0.50058504  1
  Nb  Nb108  1  0.09738180  0.70082565  0.50335224  1
  Nb  Nb109  1  0.09555847  0.90092711  0.29199736  1
  Nb  Nb110  1  0.09275401  0.30852437  0.09614852  1
  Nb  Nb111  1  0.70985756  0.49903960  0.69632142  1
  Nb  Nb112  1  0.70212076  0.49571646  0.50936247  1
  Nb  Nb113  1  0.70100058  0.49826845  0.89341471  1
  Nb  Nb114  1  0.89398007  0.69509440  0.10254811  1
  Nb  Nb115  1  0.89849287  0.69754969  0.69888779  1
  Nb  Nb116  1  0.49626682  0.50186217  0.09884664  1
  Nb  Nb117  1  0.50027168  0.30188972  0.89674681  1
  Nb  Nb118  1  0.90389423  0.70317021  0.50437609  1
  Nb  Nb119  1  0.29927398  0.89530299  0.30251349  1
  Nb  Nb120  1  0.09859315  0.89944140  0.90110361  1
  Nb  Nb121  1  0.30039539  0.89817696  0.69766609  1
  Nb  Nb122  1  0.69711961  0.30458881  0.89440387  1
  Nb  Nb123  1  0.09949847  0.50291251  0.89742695  1
  Nb  Nb124  1  0.09276690  0.50325160  0.70962921  1
  Nb  Nb125  1  0.40393626  0.19450853  0.59692866  1
  Nb  Nb126  1  0.40426194  0.00458178  0.78967390  1
  Nb  Nb127  1  0.20055387  0.20906948  0.00274690  1
  Nb  Nb128  1  0.60484523  0.79504317  -0.00185170  1
  Nb  Nb129  1  0.19382356  0.39899068  0.19333501  1
  Nb  Nb130  1  0.19241643  0.79934960  0.00170944  1
  Nb  Nb131  1  0.40740511  0.40177259  -0.00069898  1
  Nb  Nb132  1  0.40043713  0.00263645  0.60315487  1
  Nb  Nb133  1  0.39727405  0.60624441  0.19697495  1
  Nb  Nb134  1  0.59606877  0.00752353  0.79986221  1
  Nb  Nb135  1  0.19363691  0.59761715  0.80168517  1
  Nb  Nb136  1  0.00119552  -0.00616112  -0.00237657  1
  Nb  Nb137  1  -0.00445524  0.59551156  0.19722347  1
  Nb  Nb138  1  0.39487587  -0.00662097  0.21008831  1
  Nb  Nb139  1  0.60026129  0.20106055  0.80379772  1
  Nb  Nb140  1  0.39345641  0.79666890  0.20025972  1
  Nb  Nb141  1  0.39267772  0.00143189  0.40556707  1
  Nb  Nb142  1  0.19863813  -0.00891108  0.39357947  1
  Nb  Nb143  1  0.19959647  0.80229784  0.19753714  1
  Nb  Nb144  1  0.19233038  0.60204663  -0.00545800  1
  Nb  Nb145  1  0.78970846  0.40185569  -0.00845324  1
  Nb  Nb146  1  -0.00540812  0.19639691  0.80769075  1
  Nb  Nb147  1  0.40100287  0.19351460  0.40886489  1
  Nb  Nb148  1  0.19989997  -0.00803293  0.20178110  1
  Nb  Nb149  1  -0.00017144  0.21133670  0.19522215  1
  Pd  Pd150  1  0.18520929  0.20488861  0.19544893  1
  Pd  Pd151  1  0.19194326  0.39928450  0.79295013  1
  Pd  Pd152  1  0.39572741  0.60432178  0.39507884  1
  Pd  Pd153  1  0.79492572  0.20238593  0.00326181  1
  Pd  Pd154  1  0.18680421  0.20897554  0.80229181  1
  Pd  Pd155  1  0.59550063  0.79842290  0.19402191  1
  Pd  Pd156  1  0.00564080  0.40289204  0.40556406  1
  Pd  Pd157  1  0.00162358  0.60258810  0.00031438  1
  Pd  Pd158  1  0.40254749  0.79610405  0.60031558  1
  Pd  Pd159  1  0.78624965  0.40689960  0.19270644  1
  Pd  Pd160  1  0.39170001  0.59804505  -0.00298683  1
  Pd  Pd161  1  -0.01597466  0.41002440  -0.01144145  1
  Pd  Pd162  1  0.60001586  -0.01476856  0.60688658  1
  Pd  Pd163  1  0.19681714  -0.00584633  0.59872758  1
  Pd  Pd164  1  0.59908635  0.20125521  -0.00567357  1
  Pd  Pd165  1  0.79788115  0.40111712  0.40798186  1
  Pd  Pd166  1  0.80313708  0.79630332  0.79557302  1
  Pd  Pd167  1  0.41232273  -0.00118654  -0.00568612  1
  Pd  Pd168  1  0.80544060  0.19738642  0.20174268  1
  Pd  Pd169  1  0.59697220  0.39676089  0.00029150  1
  Pd  Pd170  1  0.20834326  0.39977557  0.00402740  1
  Pd  Pd171  1  0.60072793  0.59606617  0.59922316  1
  Pd  Pd172  1  0.39826903  0.60692217  0.60117617  1
  Pd  Pd173  1  -0.00444524  0.19743250  0.60732566  1
  Pd  Pd174  1  0.81333733  0.20057143  0.59275190  1
  Pd  Pd175  1  0.59949931  0.20246061  0.20818419  1
  Pd  Pd176  1  0.81041331  -0.00753150  0.00897048  1
  Pd  Pd177  1  0.59828899  0.20864620  0.39174593  1
  Pd  Pd178  1  0.80713321  0.00169093  0.20026370  1
  Pd  Pd179  1  -0.00109156  0.79927274  -0.00186105  1
  Pd  Pd180  1  0.40318476  0.20926227  0.00210465  1
  Pd  Pd181  1  0.00150205  0.79634848  0.39780163  1
  Pd  Pd182  1  0.60334609  0.40570044  0.20593676  1
  Pd  Pd183  1  0.59768973  0.40396269  0.79254454  1
  Pd  Pd184  1  0.79164337  0.00587446  0.79555077  1
  Pd  Pd185  1  0.59490904  -0.00639273  -0.00854508  1
  Pd  Pd186  1  0.20424504  0.59642909  0.40580168  1
  Pd  Pd187  1  0.19347942  0.80065041  0.39769571  1
  Pd  Pd188  1  0.60742978  0.79582283  0.59501749  1
  Pd  Pd189  1  -0.00183959  0.59733230  0.39821628  1
  Pd  Pd190  1  -0.00410338  0.20234401  0.39622408  1
  Pd  Pd191  1  0.40238435  0.19451887  0.79015942  1
  Pd  Pd192  1  0.59546321  -0.00878421  0.20530969  1
  Pd  Pd193  1  0.59265673  0.59989203  0.20526115  1
  Pd  Pd194  1  0.00131716  0.60466062  0.60296812  1
  Pd  Pd195  1  0.60575513  0.59932178  0.40704882  1
  Pd  Pd196  1  0.61225988  0.79126725  0.40757039  1
  Pd  Pd197  1  0.20454790  -0.00647394  0.79444690  1
  Pd  Pd198  1  0.19154457  0.39919879  0.60768454  1
  Pd  Pd199  1  0.40027824  0.79473752  0.39696332  1
  Rh  Rh200  1  0.80153116  -0.00084584  0.60011127  1
  Rh  Rh201  1  -0.00004112  0.01442093  0.19267525  1
  Rh  Rh202  1  0.60628747  -0.00851916  0.39884108  1
  Rh  Rh203  1  0.19629250  0.40639571  0.39840249  1
  Rh  Rh204  1  0.60414922  0.40475215  0.60401139  1
  Rh  Rh205  1  0.39478476  0.41385579  0.19557934  1
  Rh  Rh206  1  0.00138078  0.60815792  0.79442081  1
  Rh  Rh207  1  0.80568421  0.20314445  0.40257797  1
  Rh  Rh208  1  0.00206764  0.00396395  0.80410457  1
  Rh  Rh209  1  0.19598349  0.20692939  0.60442790  1
  Rh  Rh210  1  0.20220278  0.79705348  0.80607063  1
  Rh  Rh211  1  0.39583983  0.80762193  0.79406873  1
  Rh  Rh212  1  0.39810819  0.39726164  0.40471993  1
  Rh  Rh213  1  0.80142426  0.59863880  0.79403495  1
  Rh  Rh214  1  0.80530117  0.59881279  0.59977413  1
  Rh  Rh215  1  0.19209124  0.59642394  0.19087075  1
  Rh  Rh216  1  0.79872961  0.80097695  0.00099006  1
  Rh  Rh217  1  0.60903169  0.80705959  0.80697008  1
  Rh  Rh218  1  0.80285891  0.79808690  0.40101461  1
  Rh  Rh219  1  0.41341984  0.19040184  0.21079449  1
  Rh  Rh220  1  -0.00355563  0.79702195  0.60429165  1
  Rh  Rh221  1  0.40953917  0.40903561  0.80517187  1
  Rh  Rh222  1  -0.00840014  0.79894727  0.79383177  1
  Rh  Rh223  1  0.60676355  0.60813872  -0.00706679  1
  Rh  Rh224  1  0.00281048  0.40260471  0.59565727  1
  Rh  Rh225  1  0.40224178  0.80024606  0.00080549  1
  Rh  Rh226  1  0.00568254  -0.00099725  0.40378377  1
  Rh  Rh227  1  0.19537657  0.79979402  0.60075155  1
  Rh  Rh228  1  0.40110090  0.39639079  0.59518511  1
  Rh  Rh229  1  0.39148054  0.59949574  0.79360173  1
  Rh  Rh230  1  0.18954346  -0.00314909  0.00545306  1
  Rh  Rh231  1  0.19629797  0.19264656  0.40506381  1
  Rh  Rh232  1  0.79772900  0.18950006  0.80038727  1
  Rh  Rh233  1  0.19501186  0.60297814  0.60745168  1
  Rh  Rh234  1  0.80278611  0.79873949  0.20544974  1
  Rh  Rh235  1  0.80132100  0.59672102  0.20403916  1
  Rh  Rh236  1  0.00085148  -0.00298043  0.60085465  1
  Rh  Rh237  1  0.80573440  0.79556803  0.60146130  1
  Rh  Rh238  1  0.00045975  0.78433759  0.20647897  1
  Rh  Rh239  1  0.00976816  0.40246539  0.20856029  1
  Rh  Rh240  1  0.60810864  0.59154590  0.79064767  1
  Rh  Rh241  1  0.80305632  -0.00232215  0.39559642  1
  Rh  Rh242  1  0.80670259  0.40163293  0.59523852  1
  Rh  Rh243  1  0.79699060  0.59389787  -0.00645424  1
  Rh  Rh244  1  0.59926245  0.21349936  0.60651293  1
  Rh  Rh245  1  -0.00399725  0.39488079  0.80454145  1
  Rh  Rh246  1  0.60556987  0.40218545  0.40065817  1
  Rh  Rh247  1  0.80523396  0.41017418  0.80477034  1
  Rh  Rh248  1  0.80072774  0.59802954  0.40788985  1
  Rh  Rh249  1  0.00807940  0.18925398  -0.00101814  1
