# generated using pymatgen
data_ZrScNbPdRh
_symmetry_space_group_name_H-M   'P 1'
_cell_length_a   16.56605723
_cell_length_b   16.56211593
_cell_length_c   16.56255418
_cell_angle_alpha   89.96951933
_cell_angle_beta   90.02510101
_cell_angle_gamma   90.02218535
_symmetry_Int_Tables_number   1
_chemical_formula_structural   ZrScNbPdRh
_chemical_formula_sum   'Zr50 Sc50 Nb50 Pd50 Rh50'
_cell_volume   4544.24934969
_cell_formula_units_Z   50
loop_
 _symmetry_equiv_pos_site_id
 _symmetry_equiv_pos_as_xyz
  1  'x, y, z'
loop_
 _atom_site_type_symbol
 _atom_site_label
 _atom_site_symmetry_multiplicity
 _atom_site_fract_x
 _atom_site_fract_y
 _atom_site_fract_z
 _atom_site_occupancy
  Zr  Zr0  1  0.50163685  0.90352974  0.89528318  1
  Zr  Zr1  1  0.70081303  0.29097058  0.89571881  1
  Zr  Zr2  1  0.51095223  0.89087328  0.09138119  1
  Zr  Zr3  1  0.48561333  0.70112815  0.50204872  1
  Zr  Zr4  1  0.50448052  0.71443831  0.90311856  1
  Zr  Zr5  1  0.30061879  0.30044674  0.50038823  1
  Zr  Zr6  1  0.90331175  0.29256099  0.30335045  1
  Zr  Zr7  1  0.08869270  0.89965257  0.70112224  1
  Zr  Zr8  1  0.50330821  0.29020591  0.10502945  1
  Zr  Zr9  1  0.70725850  0.49394578  0.90106101  1
  Zr  Zr10  1  0.09438028  0.10773017  0.30109625  1
  Zr  Zr11  1  0.90044615  0.10372756  0.69575855  1
  Zr  Zr12  1  0.89843942  0.29889833  0.70398549  1
  Zr  Zr13  1  0.09368173  0.70222764  0.10169036  1
  Zr  Zr14  1  0.69876257  0.90730069  0.90394974  1
  Zr  Zr15  1  0.49776796  0.10367589  0.50088167  1
  Zr  Zr16  1  0.70042675  0.49195750  0.69948754  1
  Zr  Zr17  1  0.70549980  0.89632880  0.30029505  1
  Zr  Zr18  1  0.49179723  0.10207356  0.69871733  1
  Zr  Zr19  1  0.71011950  0.49546292  0.49621931  1
  Zr  Zr20  1  0.29565618  0.49967104  0.09302991  1
  Zr  Zr21  1  0.10479441  0.69834184  0.29858404  1
  Zr  Zr22  1  0.50359784  0.69204820  0.28742506  1
  Zr  Zr23  1  0.49379388  0.10303337  0.29541663  1
  Zr  Zr24  1  0.29983215  0.90248215  0.90651757  1
  Zr  Zr25  1  0.90944257  0.70112017  0.70286836  1
  Zr  Zr26  1  0.09701192  0.50329029  0.90304422  1
  Zr  Zr27  1  0.88855657  0.10680335  0.90049247  1
  Zr  Zr28  1  0.29965741  0.30356939  0.90229802  1
  Zr  Zr29  1  0.50672197  0.10795253  0.90687119  1
  Zr  Zr30  1  0.49569781  0.90033162  0.30015760  1
  Zr  Zr31  1  0.89305165  0.29439123  0.10138011  1
  Zr  Zr32  1  0.51199791  0.30336975  0.29810714  1
  Zr  Zr33  1  0.69592802  0.10778661  0.50624161  1
  Zr  Zr34  1  0.90352556  0.10332664  0.49627897  1
  Zr  Zr35  1  0.29993292  0.10135216  0.51190235  1
  Zr  Zr36  1  0.49690466  0.48987861  0.50047892  1
  Zr  Zr37  1  0.49759340  0.89853279  0.69964726  1
  Zr  Zr38  1  0.90149013  0.49583789  0.69319339  1
  Zr  Zr39  1  0.71133580  0.90364195  0.10025195  1
  Zr  Zr40  1  0.30718216  0.89417866  0.49796374  1
  Zr  Zr41  1  0.09966982  0.29714698  0.89920460  1
  Zr  Zr42  1  0.10266512  0.90093012  0.08688853  1
  Zr  Zr43  1  0.70002123  0.70647614  0.10113490  1
  Zr  Zr44  1  0.69894250  0.90870149  0.70470622  1
  Zr  Zr45  1  0.09787686  0.10183555  0.69771060  1
  Zr  Zr46  1  0.89812081  0.30617929  0.49858581  1
  Zr  Zr47  1  0.09512814  0.49860520  0.50494592  1
  Zr  Zr48  1  0.08807490  0.69792064  0.90110274  1
  Zr  Zr49  1  0.70597968  0.69598895  0.69906782  1
  Sc  Sc50  1  0.70109435  0.10895841  0.70968677  1
  Sc  Sc51  1  0.29447523  0.69658119  0.89948378  1
  Sc  Sc52  1  0.70109258  0.49621836  0.29960679  1
  Sc  Sc53  1  0.89683044  0.70274691  0.09281698  1
  Sc  Sc54  1  0.71208418  0.49810944  0.10494031  1
  Sc  Sc55  1  0.50002939  0.48792198  0.69508020  1
  Sc  Sc56  1  0.29822026  0.10055489  0.29953333  1
  Sc  Sc57  1  0.10222891  0.90152706  0.49664683  1
  Sc  Sc58  1  0.69905111  0.29828277  0.69642870  1
  Sc  Sc59  1  0.30286616  0.11320868  0.89884773  1
  Sc  Sc60  1  0.10262100  0.90104275  0.29861361  1
  Sc  Sc61  1  0.90916599  0.90122155  0.90555870  1
  Sc  Sc62  1  0.49217256  0.29290390  0.90149631  1
  Sc  Sc63  1  0.49879419  0.48733444  0.89886856  1
  Sc  Sc64  1  0.29615236  0.50254721  0.50174620  1
  Sc  Sc65  1  0.90430925  0.90763642  0.70926822  1
  Sc  Sc66  1  0.09456263  0.09200092  0.50157031  1
  Sc  Sc67  1  0.71221140  0.69271865  0.49480618  1
  Sc  Sc68  1  0.50078242  0.29991161  0.69734030  1
  Sc  Sc69  1  0.10169445  0.30362231  0.49065410  1
  Sc  Sc70  1  0.29981673  0.49463953  0.69494351  1
  Sc  Sc71  1  0.89772987  0.69013868  0.50590165  1
  Sc  Sc72  1  0.08967300  0.30036075  0.70302846  1
  Sc  Sc73  1  0.09412278  0.69668370  0.70000591  1
  Sc  Sc74  1  0.10290897  0.29682833  0.09814357  1
  Sc  Sc75  1  0.90210683  0.90853490  0.48818507  1
  Sc  Sc76  1  0.10804282  0.50143588  0.29706637  1
  Sc  Sc77  1  0.90401506  0.30464337  0.89947711  1
  Sc  Sc78  1  0.10143225  0.10750146  0.90267839  1
  Sc  Sc79  1  0.30076032  0.70141240  0.69238946  1
  Sc  Sc80  1  0.70340569  0.69823850  0.29343218  1
  Sc  Sc81  1  0.29427213  0.69868179  0.30377076  1
  Sc  Sc82  1  0.89202336  0.90606692  0.29825540  1
  Sc  Sc83  1  0.30707506  0.90542449  0.69600828  1
  Sc  Sc84  1  0.29336531  0.69981986  0.49761844  1
  Sc  Sc85  1  0.29693064  0.50071091  0.90309676  1
  Sc  Sc86  1  0.30236632  0.29165021  0.69992523  1
  Sc  Sc87  1  0.50236444  0.49780587  0.11994531  1
  Sc  Sc88  1  0.29819339  0.50554962  0.29151529  1
  Sc  Sc89  1  0.29150098  0.70033004  0.09937356  1
  Sc  Sc90  1  0.29731464  0.90423926  0.29988568  1
  Sc  Sc91  1  0.70744446  0.09988757  0.30277354  1
  Sc  Sc92  1  0.10894270  0.09959726  0.09532185  1
  Sc  Sc93  1  0.10387042  0.69985131  0.50492801  1
  Sc  Sc94  1  0.10086171  0.50771698  0.09541412  1
  Sc  Sc95  1  0.50540096  0.29364724  0.50067029  1
  Sc  Sc96  1  0.89539217  0.70027403  0.28990540  1
  Sc  Sc97  1  0.09283282  0.50124074  0.70158143  1
  Sc  Sc98  1  0.90128521  0.10009649  0.30396730  1
  Sc  Sc99  1  0.30107936  0.30061193  0.09890019  1
  Nb  Nb100  1  0.70067774  0.09975265  0.08608358  1
  Nb  Nb101  1  0.88681882  0.09392223  0.10025752  1
  Nb  Nb102  1  0.50865218  0.69946053  0.09976676  1
  Nb  Nb103  1  0.89697694  0.69658551  0.90245005  1
  Nb  Nb104  1  0.10462980  0.29740893  0.29426724  1
  Nb  Nb105  1  0.70902274  0.69565582  0.90551677  1
  Nb  Nb106  1  0.69687133  0.29780173  0.10752036  1
  Nb  Nb107  1  0.90285280  0.50385042  0.90741825  1
  Nb  Nb108  1  0.89802619  0.49596308  0.30403727  1
  Nb  Nb109  1  0.50030650  0.10055236  0.10232030  1
  Nb  Nb110  1  0.69686738  0.30127102  0.30518532  1
  Nb  Nb111  1  0.28445125  0.30291335  0.30434950  1
  Nb  Nb112  1  0.89811568  0.49852292  0.49192748  1
  Nb  Nb113  1  0.31173636  0.08968660  0.10468444  1
  Nb  Nb114  1  0.90238013  0.90386612  0.09904322  1
  Nb  Nb115  1  0.50439724  0.70095994  0.70143667  1
  Nb  Nb116  1  0.69225628  0.29831513  0.49240511  1
  Nb  Nb117  1  0.70007758  0.10019993  0.90558696  1
  Nb  Nb118  1  0.29451437  0.10232181  0.70113087  1
  Nb  Nb119  1  0.29917161  0.90869956  0.10010906  1
  Nb  Nb120  1  0.50146697  0.90052320  0.50239716  1
  Nb  Nb121  1  0.69997147  0.90205666  0.49859697  1
  Nb  Nb122  1  0.90240927  0.49466955  0.10109886  1
  Nb  Nb123  1  0.10416054  0.90420084  0.90068228  1
  Nb  Nb124  1  0.50252077  0.49780456  0.30310279  1
  Nb  Nb125  1  0.60186256  0.00282061  0.19676334  1
  Nb  Nb126  1  0.79777861  0.00058904  0.59857480  1
  Nb  Nb127  1  0.80235010  0.79566761  0.80424091  1
  Nb  Nb128  1  0.19922369  0.00034879  0.80013760  1
  Nb  Nb129  1  0.79756191  0.80921777  0.60279020  1
  Nb  Nb130  1  0.40379525  0.00169432  0.00558430  1
  Nb  Nb131  1  0.59852353  0.60243645  0.59849973  1
  Nb  Nb132  1  0.19285062  0.80816423  0.80205909  1
  Nb  Nb133  1  0.41256300  0.60389127  0.00097446  1
  Nb  Nb134  1  0.60032210  0.60081112  0.80255800  1
  Nb  Nb135  1  0.41076230  0.60288205  0.80157771  1
  Nb  Nb136  1  0.39772038  0.39631299  0.39086397  1
  Nb  Nb137  1  0.60481784  0.39560150  0.00767598  1
  Nb  Nb138  1  -0.00286847  0.39940476  0.20258759  1
  Nb  Nb139  1  -0.00443874  0.00173244  0.18977646  1
  Nb  Nb140  1  0.19605853  0.39682121  0.80420107  1
  Nb  Nb141  1  -0.00457905  0.59641045  0.39651735  1
  Nb  Nb142  1  -0.00008965  0.79159178  0.39554651  1
  Nb  Nb143  1  0.59800182  0.79866413  0.40611638  1
  Nb  Nb144  1  0.59461354  0.60014874  0.40297396  1
  Nb  Nb145  1  0.40126257  0.80075340  0.19189848  1
  Nb  Nb146  1  0.60047690  0.59682975  -0.00110079  1
  Nb  Nb147  1  0.59818627  -0.00412719  0.40102211  1
  Nb  Nb148  1  0.80385105  0.59875908  0.80614136  1
  Nb  Nb149  1  0.60248703  0.79847861  0.59488508  1
  Pd  Pd150  1  0.00551186  0.20851631  0.59180433  1
  Pd  Pd151  1  -0.00532130  0.19467352  0.00649429  1
  Pd  Pd152  1  0.38735525  0.79367368  0.79606936  1
  Pd  Pd153  1  0.39390024  0.39246819  0.20606561  1
  Pd  Pd154  1  -0.00513776  0.81129167  0.20407147  1
  Pd  Pd155  1  0.60215902  0.00128372  0.59984937  1
  Pd  Pd156  1  0.79389704  0.19503573  0.20204388  1
  Pd  Pd157  1  0.80302442  0.39543235  0.20875113  1
  Pd  Pd158  1  0.00386133  0.39789031  0.00893365  1
  Pd  Pd159  1  0.20703059  0.80558468  0.20001563  1
  Pd  Pd160  1  0.80615188  0.79323968  0.40496200  1
  Pd  Pd161  1  0.39653533  0.20942053  0.39221162  1
  Pd  Pd162  1  0.00014802  0.19606868  0.19050634  1
  Pd  Pd163  1  -0.00271006  0.01098713  0.00035725  1
  Pd  Pd164  1  0.39294105  0.00963310  0.80786570  1
  Pd  Pd165  1  0.20763454  0.59838443  0.79315706  1
  Pd  Pd166  1  0.39816576  0.00372735  0.40602288  1
  Pd  Pd167  1  0.20124155  0.00523486  0.40036079  1
  Pd  Pd168  1  0.19563432  0.19118431  0.40749276  1
  Pd  Pd169  1  0.39265792  0.60635835  0.19133181  1
  Pd  Pd170  1  0.59702886  0.39436572  0.80599733  1
  Pd  Pd171  1  0.19224580  0.40259033  0.19153205  1
  Pd  Pd172  1  0.19062873  0.20759118  0.59898937  1
  Pd  Pd173  1  0.39808935  0.59193313  0.39693072  1
  Pd  Pd174  1  0.19989108  0.80561419  0.60706347  1
  Pd  Pd175  1  0.20363979  0.41001720  0.39873774  1
  Pd  Pd176  1  -0.00996513  0.80709521  0.58616703  1
  Pd  Pd177  1  0.19953407  -0.00788871  0.60498275  1
  Pd  Pd178  1  0.79688778  0.39081577  0.59773577  1
  Pd  Pd179  1  0.79750989  0.39149516  0.00019368  1
  Pd  Pd180  1  0.19510254  0.39320180  0.61051669  1
  Pd  Pd181  1  0.19031541  0.00299860  0.20175493  1
  Pd  Pd182  1  0.00406030  0.01128682  0.80990400  1
  Pd  Pd183  1  0.40286771  0.59577634  0.60909570  1
  Pd  Pd184  1  0.20962421  0.19710104  0.00719635  1
  Pd  Pd185  1  0.61144600  0.18854913  0.20332576  1
  Pd  Pd186  1  0.80145111  0.59946378  0.19811283  1
  Pd  Pd187  1  0.38912871  0.21069432  0.20634359  1
  Pd  Pd188  1  0.61128871  0.79638184  0.79792971  1
  Pd  Pd189  1  0.39176853  0.40261740  0.79640628  1
  Pd  Pd190  1  0.39170600  0.79851889  0.00709235  1
  Pd  Pd191  1  0.41233909  0.40566575  0.01108690  1
  Pd  Pd192  1  0.79809564  0.20173318  0.40273762  1
  Pd  Pd193  1  0.19696467  0.60023952  0.60603444  1
  Pd  Pd194  1  0.59847332  0.01218840  0.79968973  1
  Pd  Pd195  1  0.39944525  0.79474934  0.38971817  1
  Pd  Pd196  1  0.20853108  0.19510839  0.19376960  1
  Pd  Pd197  1  0.19941341  0.79336134  -0.00428598  1
  Pd  Pd198  1  -0.00397834  0.59114659  0.20231046  1
  Pd  Pd199  1  0.00779639  0.40298157  0.39041707  1
  Rh  Rh200  1  0.80372248  0.80808810  -0.00423270  1
  Rh  Rh201  1  0.61397905  0.79756528  -0.00431336  1
  Rh  Rh202  1  0.60983316  0.59280601  0.20029633  1
  Rh  Rh203  1  0.00593101  0.20408654  0.40404380  1
  Rh  Rh204  1  0.59544722  0.00369302  0.00497870  1
  Rh  Rh205  1  0.60063254  0.19151989  0.39403391  1
  Rh  Rh206  1  0.79675994  0.39262655  0.39466646  1
  Rh  Rh207  1  0.41032579  -0.01172192  0.18997291  1
  Rh  Rh208  1  -0.00176454  0.79985176  -0.00220791  1
  Rh  Rh209  1  -0.00906536  -0.00487661  0.59664594  1
  Rh  Rh210  1  0.79898649  0.00437242  0.19922581  1
  Rh  Rh211  1  -0.00176616  0.39746288  0.59659340  1
  Rh  Rh212  1  0.39573763  0.19390471  0.00828979  1
  Rh  Rh213  1  0.39738736  0.39292101  0.59220999  1
  Rh  Rh214  1  0.59741341  0.80787493  0.20815943  1
  Rh  Rh215  1  0.19686214  0.20128867  0.79407247  1
  Rh  Rh216  1  -0.00183574  0.59658522  0.59183904  1
  Rh  Rh217  1  0.80151365  0.59698325  0.60634035  1
  Rh  Rh218  1  0.21210663  0.01128238  -0.00744494  1
  Rh  Rh219  1  0.19324494  0.59680103  0.40345476  1
  Rh  Rh220  1  0.80143632  0.59448009  0.00371444  1
  Rh  Rh221  1  0.59877078  0.40474305  0.40284620  1
  Rh  Rh222  1  0.80225193  0.59951026  0.39038921  1
  Rh  Rh223  1  0.39763829  0.00078271  0.59748479  1
  Rh  Rh224  1  0.00248516  0.40564492  0.80438277  1
  Rh  Rh225  1  0.20111187  0.60518013  0.00086869  1
  Rh  Rh226  1  0.79690643  0.20585564  0.00063051  1
  Rh  Rh227  1  0.19463139  0.80060660  0.40125532  1
  Rh  Rh228  1  0.00320450  -0.00777393  0.38553058  1
  Rh  Rh229  1  0.80600783  -0.00361772  -0.00703123  1
  Rh  Rh230  1  0.59936921  0.20373278  0.60597768  1
  Rh  Rh231  1  0.60502932  0.39845007  0.59270599  1
  Rh  Rh232  1  -0.00333698  0.19658370  0.80189120  1
  Rh  Rh233  1  0.20090659  0.60079602  0.19485256  1
  Rh  Rh234  1  0.60584941  0.20649937  0.00296004  1
  Rh  Rh235  1  0.79825519  0.20084340  0.59727340  1
  Rh  Rh236  1  0.60847465  0.40305349  0.19757582  1
  Rh  Rh237  1  0.80275391  -0.00072436  0.80198076  1
  Rh  Rh238  1  0.40101294  0.19994754  0.79665077  1
  Rh  Rh239  1  0.40071284  0.80116817  0.60345039  1
  Rh  Rh240  1  0.19316914  0.39900020  -0.00462533  1
  Rh  Rh241  1  0.80098529  0.20269903  0.79981090  1
  Rh  Rh242  1  -0.00656187  0.60113373  0.00830168  1
  Rh  Rh243  1  0.39998935  0.20160840  0.60282638  1
  Rh  Rh244  1  0.00028336  0.79953340  0.80866765  1
  Rh  Rh245  1  -0.00841245  0.59284155  0.80073970  1
  Rh  Rh246  1  0.59655577  0.19968651  0.79912779  1
  Rh  Rh247  1  0.79376715  0.00970997  0.40962207  1
  Rh  Rh248  1  0.80989297  0.40221402  0.80255998  1
  Rh  Rh249  1  0.80781092  0.80181569  0.19367854  1
