# generated using pymatgen
data_ZrScNbPdRh
_symmetry_space_group_name_H-M   'P 1'
_cell_length_a   16.55944538
_cell_length_b   16.55494840
_cell_length_c   16.56190420
_cell_angle_alpha   90.01187216
_cell_angle_beta   89.99319839
_cell_angle_gamma   90.03568471
_symmetry_Int_Tables_number   1
_chemical_formula_structural   ZrScNbPdRh
_chemical_formula_sum   'Zr50 Sc50 Nb50 Pd50 Rh50'
_cell_volume   4540.29205600
_cell_formula_units_Z   50
loop_
 _symmetry_equiv_pos_site_id
 _symmetry_equiv_pos_as_xyz
  1  'x, y, z'
loop_
 _atom_site_type_symbol
 _atom_site_label
 _atom_site_symmetry_multiplicity
 _atom_site_fract_x
 _atom_site_fract_y
 _atom_site_fract_z
 _atom_site_occupancy
  Zr  Zr0  1  0.70288680  0.29921413  0.10175794  1
  Zr  Zr1  1  0.70483136  0.50260451  0.09400221  1
  Zr  Zr2  1  0.09681325  0.69871183  0.69277022  1
  Zr  Zr3  1  0.70258909  0.90519660  0.30247355  1
  Zr  Zr4  1  0.70483217  0.30103118  0.30264490  1
  Zr  Zr5  1  0.49863975  0.49305783  0.68919429  1
  Zr  Zr6  1  0.29508347  0.09820564  0.30295770  1
  Zr  Zr7  1  0.90982504  0.30280504  0.30525927  1
  Zr  Zr8  1  0.50845642  0.30195058  0.30224923  1
  Zr  Zr9  1  0.30397052  0.50710579  0.50855268  1
  Zr  Zr10  1  0.08909602  0.10176856  0.69566795  1
  Zr  Zr11  1  0.29612936  0.69578888  0.90122581  1
  Zr  Zr12  1  0.68830760  0.70619396  0.30281656  1
  Zr  Zr13  1  0.50545925  0.89146735  0.30312092  1
  Zr  Zr14  1  0.09496190  0.90905553  0.70495299  1
  Zr  Zr15  1  0.70398857  0.69403842  0.10685049  1
  Zr  Zr16  1  0.69172149  0.88921368  0.69713429  1
  Zr  Zr17  1  0.50022028  0.50083180  0.10061924  1
  Zr  Zr18  1  0.89848773  0.09728846  0.30098721  1
  Zr  Zr19  1  0.09957498  0.08633321  0.89805458  1
  Zr  Zr20  1  0.90280834  0.70489232  0.29826380  1
  Zr  Zr21  1  0.30084161  0.50582080  0.69913921  1
  Zr  Zr22  1  0.31048411  0.70485283  0.50040648  1
  Zr  Zr23  1  0.50214181  0.89782014  0.89136663  1
  Zr  Zr24  1  0.09316836  0.50365955  0.30385668  1
  Zr  Zr25  1  0.09905087  0.69325441  0.49993042  1
  Zr  Zr26  1  0.29836554  0.50708863  0.29509096  1
  Zr  Zr27  1  0.09767021  0.30525212  0.09887661  1
  Zr  Zr28  1  0.89920933  0.90655581  0.11018811  1
  Zr  Zr29  1  0.09968310  0.50052676  0.69078636  1
  Zr  Zr30  1  0.70870427  0.09595001  0.09222464  1
  Zr  Zr31  1  0.70229920  0.10419098  0.29958234  1
  Zr  Zr32  1  0.89509253  0.29719087  0.49211134  1
  Zr  Zr33  1  0.49249985  0.70375631  0.89393491  1
  Zr  Zr34  1  0.09463499  0.29864233  0.70019711  1
  Zr  Zr35  1  0.90395945  0.49743171  0.70435643  1
  Zr  Zr36  1  0.69564330  0.90508780  0.50522366  1
  Zr  Zr37  1  0.68046994  0.50926948  0.51653861  1
  Zr  Zr38  1  0.49637687  0.08914694  0.50701086  1
  Zr  Zr39  1  0.90320429  0.89438022  0.89687480  1
  Zr  Zr40  1  0.29895961  0.71093775  0.10503240  1
  Zr  Zr41  1  0.29402824  0.29766413  0.90168079  1
  Zr  Zr42  1  0.30824799  0.89352760  0.69020616  1
  Zr  Zr43  1  0.49821761  0.50625646  0.89676991  1
  Zr  Zr44  1  0.89588897  0.10479721  0.69648555  1
  Zr  Zr45  1  0.50751082  0.09692977  0.09641794  1
  Zr  Zr46  1  0.49535775  0.29786702  0.89090259  1
  Zr  Zr47  1  0.09619060  0.30396818  0.90266393  1
  Zr  Zr48  1  0.10682577  0.69875377  0.29632868  1
  Zr  Zr49  1  0.30347248  0.89054210  0.29698435  1
  Sc  Sc50  1  0.09872597  0.11381245  0.29922204  1
  Sc  Sc51  1  0.10278106  0.50371522  0.90981932  1
  Sc  Sc52  1  0.89801864  0.70059494  0.09786116  1
  Sc  Sc53  1  0.30126176  0.50708787  0.09894309  1
  Sc  Sc54  1  0.30840161  0.10173552  0.69026530  1
  Sc  Sc55  1  0.89834178  0.30665836  0.09568966  1
  Sc  Sc56  1  0.09639199  0.29249519  0.50081114  1
  Sc  Sc57  1  0.69556884  0.30205824  0.49401330  1
  Sc  Sc58  1  0.50250015  0.70012751  0.10254407  1
  Sc  Sc59  1  0.29499747  0.09729814  0.89772667  1
  Sc  Sc60  1  0.90019940  0.49612175  0.30169453  1
  Sc  Sc61  1  0.10365941  0.69752651  0.09493021  1
  Sc  Sc62  1  0.29429275  0.28729316  0.50966039  1
  Sc  Sc63  1  0.89446551  0.09955041  0.90249479  1
  Sc  Sc64  1  0.50283225  0.30614603  0.51012815  1
  Sc  Sc65  1  0.10529816  0.90223660  0.09508353  1
  Sc  Sc66  1  0.29624238  0.89969382  0.90385343  1
  Sc  Sc67  1  0.09489121  0.89609034  0.51781638  1
  Sc  Sc68  1  0.30576978  0.70019556  0.29313330  1
  Sc  Sc69  1  0.29279206  0.30442544  0.09252062  1
  Sc  Sc70  1  0.30299458  0.50424681  0.90234310  1
  Sc  Sc71  1  0.50766840  0.88719647  0.08820696  1
  Sc  Sc72  1  0.70473639  0.69448486  0.88914098  1
  Sc  Sc73  1  0.50140058  0.30908476  0.10752599  1
  Sc  Sc74  1  0.70176478  0.89666062  0.90431853  1
  Sc  Sc75  1  0.90067967  0.89836694  0.69143680  1
  Sc  Sc76  1  0.89768220  0.50180366  0.10204741  1
  Sc  Sc77  1  0.89710339  0.09762930  0.10128428  1
  Sc  Sc78  1  0.70743816  0.09236642  0.49739793  1
  Sc  Sc79  1  0.70130465  0.09864617  0.89900510  1
  Sc  Sc80  1  0.50764923  0.09687018  0.30589142  1
  Sc  Sc81  1  0.49695527  0.89656364  0.50218569  1
  Sc  Sc82  1  0.90780297  0.70488604  0.50773219  1
  Sc  Sc83  1  0.88870233  0.70234865  0.70005395  1
  Sc  Sc84  1  0.30537208  0.29487279  0.69692250  1
  Sc  Sc85  1  0.70154500  0.49958660  0.29283638  1
  Sc  Sc86  1  0.90620219  0.29395823  0.70409891  1
  Sc  Sc87  1  0.89616194  0.49332504  0.90479320  1
  Sc  Sc88  1  0.49752393  0.50142295  0.29257219  1
  Sc  Sc89  1  0.09574211  0.50200269  0.09812700  1
  Sc  Sc90  1  0.29133904  0.29344979  0.30387552  1
  Sc  Sc91  1  0.09242883  0.89806820  0.29081988  1
  Sc  Sc92  1  0.49125500  0.29076306  0.70227894  1
  Sc  Sc93  1  0.90873968  0.49993624  0.49883205  1
  Sc  Sc94  1  0.30785786  0.69910135  0.70228988  1
  Sc  Sc95  1  0.09880359  0.09392678  0.10235017  1
  Sc  Sc96  1  0.28541148  0.09765069  0.09554228  1
  Sc  Sc97  1  0.70340678  0.89569364  0.09395864  1
  Sc  Sc98  1  0.89717772  0.30043502  0.89340897  1
  Sc  Sc99  1  0.71169498  0.28724488  0.70826638  1
  Nb  Nb100  1  0.70338172  0.50911948  0.70484452  1
  Nb  Nb101  1  0.69837548  0.49739598  0.89527025  1
  Nb  Nb102  1  0.10126823  0.10108652  0.50055668  1
  Nb  Nb103  1  0.09746096  0.89933662  0.89385445  1
  Nb  Nb104  1  0.90703662  0.70632935  0.89618239  1
  Nb  Nb105  1  0.70443401  0.30010011  0.90375489  1
  Nb  Nb106  1  0.90279866  0.09787292  0.50032029  1
  Nb  Nb107  1  0.50305069  0.09442572  0.71079516  1
  Nb  Nb108  1  0.69884916  0.69761507  0.69261473  1
  Nb  Nb109  1  0.29936166  0.09661211  0.49975599  1
  Nb  Nb110  1  0.90030775  0.90180070  0.30354859  1
  Nb  Nb111  1  0.30183635  0.90428037  0.49914350  1
  Nb  Nb112  1  0.70107053  0.09107408  0.69683570  1
  Nb  Nb113  1  0.10413026  0.50308557  0.50330765  1
  Nb  Nb114  1  0.49927862  0.70776451  0.30388547  1
  Nb  Nb115  1  0.50032516  0.89803518  0.70122810  1
  Nb  Nb116  1  0.69712732  0.70069627  0.50318414  1
  Nb  Nb117  1  0.09781397  0.30423182  0.30346216  1
  Nb  Nb118  1  0.49271430  0.49865423  0.50175571  1
  Nb  Nb119  1  0.89719174  0.90594467  0.49588877  1
  Nb  Nb120  1  0.50009502  0.09886341  0.89746738  1
  Nb  Nb121  1  0.09599083  0.70633985  0.90048299  1
  Nb  Nb122  1  0.51004288  0.69535652  0.48859822  1
  Nb  Nb123  1  0.50222809  0.72409223  0.70575137  1
  Nb  Nb124  1  0.30608218  0.90029454  0.10175730  1
  Nb  Nb125  1  0.40381075  0.00090959  0.00142600  1
  Nb  Nb126  1  0.60172021  0.18700216  0.60942384  1
  Nb  Nb127  1  0.80072833  0.80142946  0.40406039  1
  Nb  Nb128  1  0.40582865  0.19402344  0.00124077  1
  Nb  Nb129  1  0.40347139  -0.00155929  0.19359281  1
  Nb  Nb130  1  0.19804279  0.40403501  0.40400921  1
  Nb  Nb131  1  0.19254471  0.40138855  0.20856716  1
  Nb  Nb132  1  0.00197513  0.00125058  0.40462289  1
  Nb  Nb133  1  0.19661773  -0.00392420  0.40765042  1
  Nb  Nb134  1  0.39973182  0.19357707  0.19957154  1
  Nb  Nb135  1  0.79732928  -0.00349316  0.79245258  1
  Nb  Nb136  1  0.60967102  0.40329194  0.80019235  1
  Nb  Nb137  1  0.20124495  0.80640867  0.40456572  1
  Nb  Nb138  1  0.60089347  -0.00289384  0.19677442  1
  Nb  Nb139  1  0.79252533  0.61033894  0.40581334  1
  Nb  Nb140  1  0.39511802  0.39895916  0.40368192  1
  Nb  Nb141  1  0.00038258  0.60649268  0.80578916  1
  Nb  Nb142  1  0.19827127  0.39862611  0.79769661  1
  Nb  Nb143  1  0.19099407  0.80066290  0.80198619  1
  Nb  Nb144  1  0.79474938  0.40536814  0.60502795  1
  Nb  Nb145  1  0.59760712  0.20558244  -0.00544193  1
  Nb  Nb146  1  0.00298168  0.20038408  -0.00142845  1
  Nb  Nb147  1  0.40088857  0.19988151  0.40121024  1
  Nb  Nb148  1  0.60434406  0.40002498  -0.00980945  1
  Nb  Nb149  1  0.19316817  0.20082363  0.79744294  1
  Pd  Pd150  1  0.59957496  0.59071723  0.39264370  1
  Pd  Pd151  1  0.60878504  -0.00476357  0.80240538  1
  Pd  Pd152  1  0.61078440  0.38299371  0.61675808  1
  Pd  Pd153  1  -0.00010578  0.80548253  0.00955202  1
  Pd  Pd154  1  0.00014880  0.79680526  0.78887411  1
  Pd  Pd155  1  0.00417858  0.80870095  0.40461049  1
  Pd  Pd156  1  0.59544263  0.19360865  0.41549396  1
  Pd  Pd157  1  0.59481717  0.41159487  0.39921648  1
  Pd  Pd158  1  0.80775070  0.59415492  0.59251881  1
  Pd  Pd159  1  0.38571746  0.38817947  0.20721866  1
  Pd  Pd160  1  0.00556507  0.79773212  0.18907321  1
  Pd  Pd161  1  0.39821760  0.60813578  0.00718535  1
  Pd  Pd162  1  -0.00365870  0.60124841  0.19598041  1
  Pd  Pd163  1  0.20204489  0.20750756  0.19394728  1
  Pd  Pd164  1  0.20616453  0.60453299  0.40290206  1
  Pd  Pd165  1  -0.00862592  0.60169953  0.40044975  1
  Pd  Pd166  1  0.39753442  0.00078938  0.39396212  1
  Pd  Pd167  1  0.78841518  0.41845049  0.41354113  1
  Pd  Pd168  1  0.60150980  0.60222117  -0.00328604  1
  Pd  Pd169  1  0.39277045  -0.00184378  0.80256468  1
  Pd  Pd170  1  0.58495968  0.61260487  0.61097930  1
  Pd  Pd171  1  0.59644677  0.59893473  0.20370439  1
  Pd  Pd172  1  0.59834405  0.19625762  0.19503958  1
  Pd  Pd173  1  0.60640638  0.20177288  0.79971079  1
  Pd  Pd174  1  0.81016734  0.60222978  0.80566410  1
  Pd  Pd175  1  0.80056875  0.79450411  -0.00150544  1
  Pd  Pd176  1  -0.00484451  0.00132837  0.00188330  1
  Pd  Pd177  1  0.39346431  0.40257827  0.79723743  1
  Pd  Pd178  1  -0.00366676  0.20019953  0.19167505  1
  Pd  Pd179  1  0.60817458  0.78554558  -0.00781996  1
  Pd  Pd180  1  0.19868566  0.80466568  -0.00423099  1
  Pd  Pd181  1  0.80618117  0.60473285  -0.00944020  1
  Pd  Pd182  1  -0.00718016  0.39254958  0.59303563  1
  Pd  Pd183  1  0.79295941  0.20431617  0.59126781  1
  Pd  Pd184  1  0.20477850  0.39430388  0.59964599  1
  Pd  Pd185  1  0.21025324  -0.00110940  0.79047700  1
  Pd  Pd186  1  0.19923322  -0.00491714  0.20698919  1
  Pd  Pd187  1  0.41241741  0.61395949  0.60670425  1
  Pd  Pd188  1  0.59253399  0.60134656  0.78992360  1
  Pd  Pd189  1  0.79789138  0.39791248  0.79460679  1
  Pd  Pd190  1  0.20165301  0.00396489  0.60063481  1
  Pd  Pd191  1  -0.00599829  0.60003385  -0.00451088  1
  Pd  Pd192  1  0.80469514  0.39980120  0.20099077  1
  Pd  Pd193  1  0.20210336  0.79568987  0.60165514  1
  Pd  Pd194  1  0.81061166  0.20474173  0.20099547  1
  Pd  Pd195  1  0.19082848  0.60006360  0.80117685  1
  Pd  Pd196  1  0.80110844  0.80210859  0.59378950  1
  Pd  Pd197  1  0.40392111  0.39494091  0.00114570  1
  Pd  Pd198  1  0.79799269  0.80088740  0.20519146  1
  Pd  Pd199  1  0.40506386  0.59685024  0.39344120  1
  Rh  Rh200  1  0.79642150  0.80322335  0.79615668  1
  Rh  Rh201  1  0.41127537  0.80173781  0.19609844  1
  Rh  Rh202  1  -0.00567335  0.00247592  0.59424072  1
  Rh  Rh203  1  -0.00461100  0.20220819  0.59172069  1
  Rh  Rh204  1  0.00337057  0.19053375  0.81194060  1
  Rh  Rh205  1  0.00193591  0.40239012  0.19979245  1
  Rh  Rh206  1  0.79898803  0.18901767  0.80419277  1
  Rh  Rh207  1  0.20196301  0.19857119  0.40776424  1
  Rh  Rh208  1  0.79695489  0.40006131  -0.00043125  1
  Rh  Rh209  1  0.20553869  0.60920321  0.59811880  1
  Rh  Rh210  1  0.00153685  0.00410964  0.20777654  1
  Rh  Rh211  1  0.00976967  0.41606851  0.80551219  1
  Rh  Rh212  1  0.39264528  0.39418817  0.59491685  1
  Rh  Rh213  1  0.80640050  -0.00792081  -0.00830065  1
  Rh  Rh214  1  0.80525053  -0.00160405  0.39875062  1
  Rh  Rh215  1  0.79375837  -0.00200543  0.19974852  1
  Rh  Rh216  1  0.19253560  0.19045257  -0.00757926  1
  Rh  Rh217  1  0.60814241  0.40570889  0.19246963  1
  Rh  Rh218  1  0.39880455  0.80212913  -0.00355231  1
  Rh  Rh219  1  0.39916398  0.79886313  0.40367490  1
  Rh  Rh220  1  0.60091342  -0.00051221  0.39665789  1
  Rh  Rh221  1  0.41006972  0.60136857  0.79035119  1
  Rh  Rh222  1  0.80357814  0.20336462  -0.00203712  1
  Rh  Rh223  1  0.41033995  0.79725255  0.59159376  1
  Rh  Rh224  1  -0.00079356  0.19325642  0.40219779  1
  Rh  Rh225  1  0.40555031  0.60995278  0.19907749  1
  Rh  Rh226  1  -0.00629007  0.60023543  0.60584964  1
  Rh  Rh227  1  0.60054941  0.80454792  0.19477828  1
  Rh  Rh228  1  0.59256775  0.00097396  0.60729018  1
  Rh  Rh229  1  0.19836616  0.59517429  0.19273015  1
  Rh  Rh230  1  -0.00611175  0.39656941  -0.00071279  1
  Rh  Rh231  1  0.79889971  0.19723822  0.40072175  1
  Rh  Rh232  1  0.59293748  0.79480985  0.59306813  1
  Rh  Rh233  1  -0.01507335  0.00179652  0.79917494  1
  Rh  Rh234  1  0.38622531  0.80536955  0.80560113  1
  Rh  Rh235  1  0.20291321  -0.00669637  -0.00018587  1
  Rh  Rh236  1  0.60950964  0.79586348  0.80463509  1
  Rh  Rh237  1  0.20324690  0.41312353  0.00273553  1
  Rh  Rh238  1  0.40499383  -0.00278518  0.60656905  1
  Rh  Rh239  1  0.59958009  0.00288945  -0.00177206  1
  Rh  Rh240  1  0.19533383  0.80275244  0.20194670  1
  Rh  Rh241  1  0.41160498  0.19461351  0.59474289  1
  Rh  Rh242  1  0.60478035  0.80434075  0.41016768  1
  Rh  Rh243  1  0.20121173  0.60419394  0.00338035  1
  Rh  Rh244  1  -0.00408261  0.80036285  0.60222705  1
  Rh  Rh245  1  0.01072303  0.40122615  0.40804624  1
  Rh  Rh246  1  0.80492511  0.60324226  0.21088067  1
  Rh  Rh247  1  0.19529607  0.19284266  0.60638238  1
  Rh  Rh248  1  0.80371537  -0.00213874  0.60520611  1
  Rh  Rh249  1  0.38781086  0.19028238  0.80517178  1
