# generated using pymatgen
data_ZrScNbPdRh
_symmetry_space_group_name_H-M   'P 1'
_cell_length_a   16.56012432
_cell_length_b   16.56114861
_cell_length_c   16.55994230
_cell_angle_alpha   90.00874706
_cell_angle_beta   89.99480295
_cell_angle_gamma   90.00033560
_symmetry_Int_Tables_number   1
_chemical_formula_structural   ZrScNbPdRh
_chemical_formula_sum   'Zr50 Sc50 Nb50 Pd50 Rh50'
_cell_volume   4541.64160261
_cell_formula_units_Z   50
loop_
 _symmetry_equiv_pos_site_id
 _symmetry_equiv_pos_as_xyz
  1  'x, y, z'
loop_
 _atom_site_type_symbol
 _atom_site_label
 _atom_site_symmetry_multiplicity
 _atom_site_fract_x
 _atom_site_fract_y
 _atom_site_fract_z
 _atom_site_occupancy
  Zr  Zr0  1  0.89761426  0.70014648  0.49396571  1
  Zr  Zr1  1  0.50694205  0.49994286  0.09850189  1
  Zr  Zr2  1  0.70216213  0.10330053  0.09573537  1
  Zr  Zr3  1  0.50246226  0.89117160  0.49752715  1
  Zr  Zr4  1  0.50374967  0.10673865  0.50170193  1
  Zr  Zr5  1  0.29741244  0.09441072  0.49868364  1
  Zr  Zr6  1  0.69943827  0.30779021  0.69162783  1
  Zr  Zr7  1  0.09727287  0.69985541  0.10451691  1
  Zr  Zr8  1  0.70370061  0.49718575  0.91163498  1
  Zr  Zr9  1  0.50437334  0.49024270  0.30269659  1
  Zr  Zr10  1  0.50283642  0.69549017  0.50191308  1
  Zr  Zr11  1  0.09268949  0.30790540  0.49201038  1
  Zr  Zr12  1  0.49814878  0.09888339  0.89227044  1
  Zr  Zr13  1  0.71505712  0.70049583  0.30379136  1
  Zr  Zr14  1  0.30055073  0.90015458  0.90854592  1
  Zr  Zr15  1  0.09498068  0.69885375  0.68732104  1
  Zr  Zr16  1  0.31009675  0.50099607  0.89317015  1
  Zr  Zr17  1  0.29466616  0.29621629  0.10683398  1
  Zr  Zr18  1  0.30020869  0.90437467  0.69642246  1
  Zr  Zr19  1  0.49165125  0.90234690  0.09679865  1
  Zr  Zr20  1  0.10168463  0.30834204  0.69794047  1
  Zr  Zr21  1  0.10639394  0.89651805  0.50754335  1
  Zr  Zr22  1  0.89344952  0.89646516  0.29831451  1
  Zr  Zr23  1  0.30412895  0.50227136  0.49953524  1
  Zr  Zr24  1  0.10350429  0.70073566  0.49516316  1
  Zr  Zr25  1  0.10432686  0.70454422  0.91288066  1
  Zr  Zr26  1  0.70201545  0.90329761  0.50498250  1
  Zr  Zr27  1  0.68315063  0.30633436  0.30276062  1
  Zr  Zr28  1  0.69638728  0.30105006  0.89634699  1
  Zr  Zr29  1  0.89865822  0.51576498  0.29650583  1
  Zr  Zr30  1  0.48799916  0.29760386  0.30294544  1
  Zr  Zr31  1  0.29604387  0.89939993  0.49645551  1
  Zr  Zr32  1  0.90333639  0.09804751  0.09605112  1
  Zr  Zr33  1  0.30115525  0.10842753  0.70291885  1
  Zr  Zr34  1  0.69586430  0.69335885  0.10025361  1
  Zr  Zr35  1  0.90371333  0.10026236  0.90130184  1
  Zr  Zr36  1  0.49656200  0.29978362  0.10441348  1
  Zr  Zr37  1  0.49979114  0.90059643  0.30536274  1
  Zr  Zr38  1  0.89438296  0.30071583  0.49821235  1
  Zr  Zr39  1  0.50058128  0.70532957  0.09896192  1
  Zr  Zr40  1  0.28713925  0.69942964  0.09753620  1
  Zr  Zr41  1  0.89855350  0.70316772  0.70118312  1
  Zr  Zr42  1  0.29813327  0.29458968  0.69924095  1
  Zr  Zr43  1  0.29186839  0.69614852  0.30109506  1
  Zr  Zr44  1  0.91465864  0.49940994  0.70794480  1
  Zr  Zr45  1  0.70227047  0.70048826  0.89984311  1
  Zr  Zr46  1  0.09017136  0.49073543  0.88877832  1
  Zr  Zr47  1  0.29944601  0.49356671  0.69463432  1
  Zr  Zr48  1  0.90406398  0.90132978  0.69846988  1
  Zr  Zr49  1  0.90733150  0.90023598  0.10176345  1
  Sc  Sc50  1  0.10341424  0.50020850  0.50424145  1
  Sc  Sc51  1  0.10371264  0.29282369  0.90169191  1
  Sc  Sc52  1  0.90793425  0.09771069  0.69907960  1
  Sc  Sc53  1  0.10089267  0.10107463  0.69881042  1
  Sc  Sc54  1  0.10142411  0.90378654  0.30031271  1
  Sc  Sc55  1  0.90223443  0.70538603  0.10948465  1
  Sc  Sc56  1  0.49685357  0.29045835  0.69626817  1
  Sc  Sc57  1  0.90560535  0.90418368  0.90616028  1
  Sc  Sc58  1  0.30266135  0.69529751  0.49626412  1
  Sc  Sc59  1  0.69547221  0.29205142  0.50260911  1
  Sc  Sc60  1  0.49704214  0.49846181  0.69265659  1
  Sc  Sc61  1  0.10018316  0.30529572  0.28911814  1
  Sc  Sc62  1  0.31092047  0.68927377  0.69736340  1
  Sc  Sc63  1  0.29596942  0.90937977  0.30774052  1
  Sc  Sc64  1  0.29906655  0.29785197  0.89703810  1
  Sc  Sc65  1  0.10586086  0.89762255  0.09663189  1
  Sc  Sc66  1  0.70095914  0.71103069  0.70329146  1
  Sc  Sc67  1  0.50209468  0.30435097  0.50011772  1
  Sc  Sc68  1  0.29773411  0.49786957  0.09672103  1
  Sc  Sc69  1  0.90251330  0.09397058  0.30462775  1
  Sc  Sc70  1  0.69638300  0.10636310  0.90184018  1
  Sc  Sc71  1  0.49172387  0.90110056  0.89643013  1
  Sc  Sc72  1  0.68494363  0.09950377  0.69121442  1
  Sc  Sc73  1  0.09773721  0.69494752  0.29180994  1
  Sc  Sc74  1  0.50957170  0.90381303  0.70684739  1
  Sc  Sc75  1  0.89495570  0.70343323  0.89901931  1
  Sc  Sc76  1  0.69565659  0.70642171  0.50589553  1
  Sc  Sc77  1  0.50497267  0.30265396  0.90216029  1
  Sc  Sc78  1  0.90935826  0.49777262  0.49449050  1
  Sc  Sc79  1  0.10325369  0.49596879  0.11072215  1
  Sc  Sc80  1  0.91130822  0.30346765  0.30002595  1
  Sc  Sc81  1  0.49381101  0.70101242  0.89968979  1
  Sc  Sc82  1  0.30407322  0.69622503  0.90319296  1
  Sc  Sc83  1  0.70446876  0.89418318  0.10234336  1
  Sc  Sc84  1  0.50533703  0.70584163  0.30752337  1
  Sc  Sc85  1  0.30063698  0.49526849  0.30542331  1
  Sc  Sc86  1  0.91134894  0.29925451  0.10053183  1
  Sc  Sc87  1  0.89607109  0.91081598  0.50066953  1
  Sc  Sc88  1  0.50349332  0.69651928  0.69385689  1
  Sc  Sc89  1  0.68930058  0.49017311  0.51208948  1
  Sc  Sc90  1  0.69535859  0.89543524  0.89384856  1
  Sc  Sc91  1  0.29754347  0.09737541  0.89794142  1
  Sc  Sc92  1  0.09483491  0.49863989  0.29968714  1
  Sc  Sc93  1  0.10365734  0.29574547  0.10247669  1
  Sc  Sc94  1  0.69115540  0.30270551  0.08765554  1
  Sc  Sc95  1  0.29972458  0.30485130  0.50629551  1
  Sc  Sc96  1  0.49491915  0.49721536  0.50225768  1
  Sc  Sc97  1  0.09752811  0.09310974  0.49480529  1
  Sc  Sc98  1  0.09588118  0.10027343  0.90279794  1
  Sc  Sc99  1  0.91429081  0.29953075  0.90660092  1
  Nb  Nb100  1  0.69956670  0.90403480  0.30674143  1
  Nb  Nb101  1  0.69838574  0.10313154  0.30134285  1
  Nb  Nb102  1  0.90053558  0.49757213  0.90338228  1
  Nb  Nb103  1  0.90443795  0.70073795  0.30398437  1
  Nb  Nb104  1  0.30027522  0.08972902  0.10339159  1
  Nb  Nb105  1  0.50018073  0.50178703  0.89622107  1
  Nb  Nb106  1  0.69924973  0.50202943  0.29430944  1
  Nb  Nb107  1  0.70448045  0.90411661  0.70386952  1
  Nb  Nb108  1  0.70494779  0.10293289  0.49024235  1
  Nb  Nb109  1  0.69948882  0.50133180  0.70101222  1
  Nb  Nb110  1  0.10029986  0.89794361  0.89911362  1
  Nb  Nb111  1  0.89535419  0.49794199  0.09771942  1
  Nb  Nb112  1  0.30404153  0.10339823  0.29982776  1
  Nb  Nb113  1  0.10929907  0.09858557  0.29427319  1
  Nb  Nb114  1  0.70293226  0.50240559  0.10601755  1
  Nb  Nb115  1  0.29964292  0.29458526  0.29782865  1
  Nb  Nb116  1  0.89810432  0.30130232  0.69504367  1
  Nb  Nb117  1  0.89211808  0.10700381  0.49452117  1
  Nb  Nb118  1  0.49163488  0.09802954  0.70172028  1
  Nb  Nb119  1  0.09942766  0.89891214  0.69594056  1
  Nb  Nb120  1  0.49485899  0.09773027  0.10391783  1
  Nb  Nb121  1  0.11340630  0.09759343  0.10858938  1
  Nb  Nb122  1  0.10237709  0.50204766  0.69906285  1
  Nb  Nb123  1  0.49391283  0.10207468  0.30237188  1
  Nb  Nb124  1  0.30087929  0.90742252  0.09689301  1
  Nb  Nb125  1  0.60387370  0.00769011  0.39704178  1
  Nb  Nb126  1  0.19213121  -0.01058565  0.79945832  1
  Nb  Nb127  1  0.40427410  0.00260864  0.60054699  1
  Nb  Nb128  1  -0.00333422  0.79858877  0.39850258  1
  Nb  Nb129  1  0.19713605  0.79853326  0.79606928  1
  Nb  Nb130  1  0.79346410  0.20448137  0.20195377  1
  Nb  Nb131  1  0.79605457  0.40278543  0.19840050  1
  Nb  Nb132  1  0.39851117  0.19258254  0.00827752  1
  Nb  Nb133  1  -0.00728840  0.20405216  0.59255891  1
  Nb  Nb134  1  0.59964004  0.00445553  0.20423523  1
  Nb  Nb135  1  -0.00621674  0.59147276  0.00062296  1
  Nb  Nb136  1  0.40157041  0.60531834  0.20133454  1
  Nb  Nb137  1  0.79363441  0.40526882  0.39170578  1
  Nb  Nb138  1  0.19375289  0.59861615  0.79628713  1
  Nb  Nb139  1  0.20170514  0.19925000  0.39039264  1
  Nb  Nb140  1  0.39283130  0.80054530  0.19766483  1
  Nb  Nb141  1  0.59424128  0.00289519  0.00639801  1
  Nb  Nb142  1  0.60655909  0.59501353  0.39819213  1
  Nb  Nb143  1  0.01016383  0.80490428  0.79875363  1
  Nb  Nb144  1  0.79986878  0.59547498  0.60713480  1
  Nb  Nb145  1  0.60268577  0.59264609  0.80250411  1
  Nb  Nb146  1  0.80563221  0.40040544  0.80017274  1
  Nb  Nb147  1  0.79786195  0.00458566  0.79660744  1
  Nb  Nb148  1  0.59566590  0.19254834  0.20301884  1
  Nb  Nb149  1  0.80330391  0.20457260  0.79503135  1
  Pd  Pd150  1  0.20204973  0.39521439  0.39610961  1
  Pd  Pd151  1  0.20336453  0.40123765  0.80199942  1
  Pd  Pd152  1  0.39916208  0.39223777  -0.00138623  1
  Pd  Pd153  1  0.80766376  0.41074418  0.59752247  1
  Pd  Pd154  1  0.20258668  0.81038205  0.20379457  1
  Pd  Pd155  1  0.59385737  0.60572793  0.20958527  1
  Pd  Pd156  1  0.79512878  0.59389831  0.79708608  1
  Pd  Pd157  1  0.80049879  0.21115328  0.38720244  1
  Pd  Pd158  1  0.39790362  -0.00573639  0.20784940  1
  Pd  Pd159  1  0.00569098  0.61335823  0.80984948  1
  Pd  Pd160  1  0.60274373  0.20013519  0.79241592  1
  Pd  Pd161  1  0.39208901  0.20599088  0.41041817  1
  Pd  Pd162  1  0.59644271  0.59990333  -0.00743092  1
  Pd  Pd163  1  0.01224870  0.00281303  0.00630837  1
  Pd  Pd164  1  0.78949068  -0.00714387  -0.01038367  1
  Pd  Pd165  1  0.19790804  0.40254572  -0.00385136  1
  Pd  Pd166  1  0.39661845  0.79656005  0.79568322  1
  Pd  Pd167  1  0.79942729  0.01177036  0.60679008  1
  Pd  Pd168  1  0.79873722  0.79819861  0.19768939  1
  Pd  Pd169  1  0.80114483  0.79801759  0.59821824  1
  Pd  Pd170  1  0.40201912  0.80462285  0.60398360  1
  Pd  Pd171  1  0.80804763  0.60718330  0.00655998  1
  Pd  Pd172  1  0.40091503  0.60077552  0.00661475  1
  Pd  Pd173  1  0.18717349  0.19977240  0.58734531  1
  Pd  Pd174  1  0.00599695  -0.00108835  0.19942492  1
  Pd  Pd175  1  0.01004547  0.40221572  0.00820537  1
  Pd  Pd176  1  0.59732975  0.80803243  -0.00582778  1
  Pd  Pd177  1  0.60008522  0.80498142  0.20475580  1
  Pd  Pd178  1  0.40776877  0.39238177  0.79474716  1
  Pd  Pd179  1  0.59322847  0.79263367  0.79941904  1
  Pd  Pd180  1  0.20508659  0.19282453  -0.00024574  1
  Pd  Pd181  1  0.21248145  0.78836684  0.60390290  1
  Pd  Pd182  1  0.00816639  0.19611063  0.39806983  1
  Pd  Pd183  1  0.19039621  0.58309806  -0.00771208  1
  Pd  Pd184  1  -0.00121840  0.00776708  0.59296052  1
  Pd  Pd185  1  0.39273961  0.40936982  0.19939265  1
  Pd  Pd186  1  0.80396523  0.38982233  0.00183448  1
  Pd  Pd187  1  -0.00036646  0.20422053  0.79198398  1
  Pd  Pd188  1  0.39218991  0.79464665  0.39422715  1
  Pd  Pd189  1  0.19354845  0.59394920  0.39634561  1
  Pd  Pd190  1  0.78822892  0.58890502  0.41768308  1
  Pd  Pd191  1  -0.00472010  0.59720641  0.59236313  1
  Pd  Pd192  1  0.80733807  0.21089002  -0.00068072  1
  Pd  Pd193  1  0.79711503  0.00602501  0.20222555  1
  Pd  Pd194  1  0.80305158  0.80217188  0.00046904  1
  Pd  Pd195  1  0.80047955  0.18972623  0.60673226  1
  Pd  Pd196  1  0.59766713  0.40516599  0.79440475  1
  Pd  Pd197  1  0.00100618  -0.00528367  0.40081256  1
  Pd  Pd198  1  0.59506402  -0.00127902  0.59490899  1
  Pd  Pd199  1  -0.00381048  0.19329945  0.20052167  1
  Rh  Rh200  1  0.60254082  0.40646058  0.40772680  1
  Rh  Rh201  1  -0.00767369  0.80384421  0.59288884  1
  Rh  Rh202  1  0.40149305  0.20590922  0.80985375  1
  Rh  Rh203  1  0.20453423  0.19602925  0.20399057  1
  Rh  Rh204  1  0.20544445  -0.00316349  0.20239845  1
  Rh  Rh205  1  0.60116110  0.80555012  0.60893342  1
  Rh  Rh206  1  0.60712829  0.60282077  0.60267481  1
  Rh  Rh207  1  0.20380779  0.39968031  0.20389235  1
  Rh  Rh208  1  0.61250299  0.79883580  0.40000166  1
  Rh  Rh209  1  -0.00468936  0.79413997  -0.00116133  1
  Rh  Rh210  1  0.19627358  0.00708666  0.39567988  1
  Rh  Rh211  1  0.19938371  0.40182760  0.59683703  1
  Rh  Rh212  1  0.19168146  0.79841489  0.39571511  1
  Rh  Rh213  1  0.20521895  0.59920083  0.60373262  1
  Rh  Rh214  1  0.39257324  0.79489413  0.00705386  1
  Rh  Rh215  1  0.59723110  0.40537585  0.00224439  1
  Rh  Rh216  1  0.41345104  0.59889837  0.39328318  1
  Rh  Rh217  1  0.20422081  0.00730798  0.60856420  1
  Rh  Rh218  1  0.40091104  0.59804111  0.59560738  1
  Rh  Rh219  1  0.19575124  0.00234163  -0.00254129  1
  Rh  Rh220  1  0.01092424  0.19301974  0.01116404  1
  Rh  Rh221  1  0.39665964  0.19489735  0.19548625  1
  Rh  Rh222  1  0.80398130  0.60213982  0.19264243  1
  Rh  Rh223  1  0.00150035  0.39804826  0.60035389  1
  Rh  Rh224  1  0.40129328  0.19627409  0.59618943  1
  Rh  Rh225  1  0.40682735  0.00088731  0.41001698  1
  Rh  Rh226  1  0.39162650  -0.00059954  0.79340770  1
  Rh  Rh227  1  -0.00922379  0.40683846  0.19841385  1
  Rh  Rh228  1  -0.00447869  0.38802204  0.79896231  1
  Rh  Rh229  1  0.80291946  0.80552874  0.40404393  1
  Rh  Rh230  1  0.39992293  0.39399879  0.60212346  1
  Rh  Rh231  1  0.39482448  0.39510280  0.40316751  1
  Rh  Rh232  1  0.19454697  0.19210729  0.80373889  1
  Rh  Rh233  1  0.59176023  0.39631846  0.60381963  1
  Rh  Rh234  1  0.20798429  0.58895803  0.20540217  1
  Rh  Rh235  1  0.00859407  0.60605362  0.40038677  1
  Rh  Rh236  1  0.20467964  0.80540773  0.00055084  1
  Rh  Rh237  1  -0.00509928  0.40616715  0.39336426  1
  Rh  Rh238  1  0.40175117  0.00807730  -0.00655194  1
  Rh  Rh239  1  0.40550267  0.59748635  0.79783517  1
  Rh  Rh240  1  0.80973665  0.81598713  0.80352755  1
  Rh  Rh241  1  0.60762269  0.00365857  0.80695768  1
  Rh  Rh242  1  0.58511130  0.19228931  0.00430178  1
  Rh  Rh243  1  -0.00378602  0.59884279  0.19102594  1
  Rh  Rh244  1  0.59555477  0.19665494  0.39805355  1
  Rh  Rh245  1  0.00341326  0.80503462  0.20870912  1
  Rh  Rh246  1  0.79675969  0.00111660  0.39947412  1
  Rh  Rh247  1  0.59863472  0.19962073  0.59903947  1
  Rh  Rh248  1  0.60509212  0.39449707  0.18869683  1
  Rh  Rh249  1  0.00045459  -0.00670539  0.80183834  1
