# generated using pymatgen
data_ZrScNbPdRh
_symmetry_space_group_name_H-M   'P 1'
_cell_length_a   16.57152156
_cell_length_b   16.56150342
_cell_length_c   16.56575771
_cell_angle_alpha   90.00314402
_cell_angle_beta   90.03145739
_cell_angle_gamma   90.05527255
_symmetry_Int_Tables_number   1
_chemical_formula_structural   ZrScNbPdRh
_chemical_formula_sum   'Zr50 Sc50 Nb50 Pd50 Rh50'
_cell_volume   4546.45798181
_cell_formula_units_Z   50
loop_
 _symmetry_equiv_pos_site_id
 _symmetry_equiv_pos_as_xyz
  1  'x, y, z'
loop_
 _atom_site_type_symbol
 _atom_site_label
 _atom_site_symmetry_multiplicity
 _atom_site_fract_x
 _atom_site_fract_y
 _atom_site_fract_z
 _atom_site_occupancy
  Zr  Zr0  1  0.50007952  0.09468122  0.90331913  1
  Zr  Zr1  1  0.50446361  0.09599906  0.69442868  1
  Zr  Zr2  1  0.50891923  0.30688944  0.89381917  1
  Zr  Zr3  1  0.90454607  0.10352945  0.10481241  1
  Zr  Zr4  1  0.50304305  0.30584885  0.09682111  1
  Zr  Zr5  1  0.89489422  0.30333574  0.49526741  1
  Zr  Zr6  1  0.09564758  0.30351619  0.50595875  1
  Zr  Zr7  1  0.09898935  0.10217839  0.29824800  1
  Zr  Zr8  1  0.09783775  0.28819866  0.70886618  1
  Zr  Zr9  1  0.50456590  0.69941344  0.49803831  1
  Zr  Zr10  1  0.09994499  0.10389660  0.10384690  1
  Zr  Zr11  1  0.89736661  0.50244192  0.89150356  1
  Zr  Zr12  1  0.50563453  0.49501380  0.50221901  1
  Zr  Zr13  1  0.89028403  0.89112272  0.91294149  1
  Zr  Zr14  1  0.50622642  0.50226710  0.09262475  1
  Zr  Zr15  1  0.89390437  0.49953574  0.10655331  1
  Zr  Zr16  1  0.09606093  0.69609355  0.28789141  1
  Zr  Zr17  1  0.70931031  0.30570159  0.10153099  1
  Zr  Zr18  1  0.70540204  0.29904285  0.30270787  1
  Zr  Zr19  1  0.29913112  0.50871722  0.90610735  1
  Zr  Zr20  1  0.09921291  0.89116352  0.09508708  1
  Zr  Zr21  1  0.30277548  0.90092431  0.09537548  1
  Zr  Zr22  1  0.10010106  0.10156748  0.88112095  1
  Zr  Zr23  1  0.30072759  0.70119519  0.50625011  1
  Zr  Zr24  1  0.49450105  0.90526300  0.70029836  1
  Zr  Zr25  1  0.89731032  0.89356409  0.10327110  1
  Zr  Zr26  1  0.89767225  0.88981622  0.30203057  1
  Zr  Zr27  1  0.69913612  0.51228532  0.70445550  1
  Zr  Zr28  1  0.50593403  0.89975802  0.50438510  1
  Zr  Zr29  1  0.50294155  0.49634835  0.90061884  1
  Zr  Zr30  1  0.69586320  0.50870911  0.50103615  1
  Zr  Zr31  1  0.89949119  0.71328149  0.49583587  1
  Zr  Zr32  1  0.29621875  0.89863932  0.70157165  1
  Zr  Zr33  1  0.50104088  0.70721783  0.29766166  1
  Zr  Zr34  1  0.09312839  0.50358889  0.89653527  1
  Zr  Zr35  1  0.70311072  0.89930013  0.49691355  1
  Zr  Zr36  1  0.70300507  0.30796063  0.90075930  1
  Zr  Zr37  1  0.30558584  0.89662866  0.29660930  1
  Zr  Zr38  1  0.10551049  0.08911091  0.49484311  1
  Zr  Zr39  1  0.09474436  0.49369964  0.50012929  1
  Zr  Zr40  1  0.69686113  0.90393600  0.29966882  1
  Zr  Zr41  1  0.29612879  0.70633556  0.70442779  1
  Zr  Zr42  1  0.69638605  0.89565444  0.90846671  1
  Zr  Zr43  1  0.29771955  0.10620398  0.31319624  1
  Zr  Zr44  1  0.70528107  0.69839141  0.89705778  1
  Zr  Zr45  1  0.89892602  0.09848719  0.69614096  1
  Zr  Zr46  1  0.69552849  0.69728428  0.69763451  1
  Zr  Zr47  1  0.89727219  0.30207293  0.10332909  1
  Zr  Zr48  1  0.30124960  0.69913031  0.29342925  1
  Zr  Zr49  1  0.49609654  0.10679530  0.50296860  1
  Sc  Sc50  1  0.49938037  0.90017505  0.90266274  1
  Sc  Sc51  1  0.70487825  0.09480933  0.69299654  1
  Sc  Sc52  1  0.89908857  0.90177977  0.68724669  1
  Sc  Sc53  1  0.89325834  0.10139974  0.89175106  1
  Sc  Sc54  1  0.28926663  0.90369953  0.50936994  1
  Sc  Sc55  1  0.30837559  0.09892851  0.09283601  1
  Sc  Sc56  1  0.50074685  0.70605113  0.69868292  1
  Sc  Sc57  1  0.30479787  0.49594091  0.51225462  1
  Sc  Sc58  1  0.10376276  0.29720239  0.29385701  1
  Sc  Sc59  1  0.29580434  0.09238869  0.69954168  1
  Sc  Sc60  1  0.70734623  0.50209829  0.30322546  1
  Sc  Sc61  1  0.89206760  0.69891284  0.70619276  1
  Sc  Sc62  1  0.70226061  0.09795631  0.10886792  1
  Sc  Sc63  1  0.89353529  0.69694176  0.29358662  1
  Sc  Sc64  1  0.69996066  0.89640346  0.10023517  1
  Sc  Sc65  1  0.09407780  0.90294929  0.30749928  1
  Sc  Sc66  1  0.89789755  0.09572187  0.29879692  1
  Sc  Sc67  1  0.10134133  0.70372389  0.70748082  1
  Sc  Sc68  1  0.68985456  0.29892945  0.70183337  1
  Sc  Sc69  1  0.29446626  0.49510830  0.28217242  1
  Sc  Sc70  1  0.29884917  0.09704395  0.50554530  1
  Sc  Sc71  1  0.89856909  0.30876797  0.90139829  1
  Sc  Sc72  1  0.09557440  0.30259370  0.10742142  1
  Sc  Sc73  1  0.31454753  0.30280302  0.90286380  1
  Sc  Sc74  1  0.89785570  0.49451737  0.49047180  1
  Sc  Sc75  1  0.89364744  0.70627749  0.10438043  1
  Sc  Sc76  1  0.50810151  0.89822159  0.09773592  1
  Sc  Sc77  1  0.10942570  0.69718246  0.90108800  1
  Sc  Sc78  1  0.10295543  0.50487053  0.10719201  1
  Sc  Sc79  1  0.50435346  0.70554317  0.90212643  1
  Sc  Sc80  1  0.69164290  0.90104190  0.69428527  1
  Sc  Sc81  1  0.69818737  0.29804664  0.49649515  1
  Sc  Sc82  1  0.30055151  0.29753531  0.69327037  1
  Sc  Sc83  1  0.09845454  0.49832567  0.29105278  1
  Sc  Sc84  1  0.51268438  0.29925695  0.30563089  1
  Sc  Sc85  1  0.30479314  0.09036716  0.89905277  1
  Sc  Sc86  1  0.50428839  0.89574741  0.29323497  1
  Sc  Sc87  1  0.50272858  0.09072905  0.09976268  1
  Sc  Sc88  1  0.70241437  0.09297512  0.89778642  1
  Sc  Sc89  1  0.50495726  0.49208033  0.69746591  1
  Sc  Sc90  1  0.09065473  0.89316476  0.50702088  1
  Sc  Sc91  1  0.30285125  0.30839829  0.10406910  1
  Sc  Sc92  1  0.89760077  0.30076555  0.70678693  1
  Sc  Sc93  1  0.51009937  0.09773921  0.29914680  1
  Sc  Sc94  1  0.09200831  0.49740021  0.70674065  1
  Sc  Sc95  1  0.30429316  0.89577187  0.89786526  1
  Sc  Sc96  1  0.28878385  0.69978064  0.08902133  1
  Sc  Sc97  1  0.69834409  0.69625666  0.29682575  1
  Sc  Sc98  1  0.51164569  0.49439075  0.29716155  1
  Sc  Sc99  1  0.30662773  0.28356421  0.50250263  1
  Nb  Nb100  1  0.69371511  0.69058928  0.10285255  1
  Nb  Nb101  1  0.09893423  0.90988875  0.70684306  1
  Nb  Nb102  1  0.30228731  0.69587438  0.89207176  1
  Nb  Nb103  1  0.71282590  0.09665060  0.48827639  1
  Nb  Nb104  1  0.09130515  0.69805874  0.09940362  1
  Nb  Nb105  1  0.89593721  0.90053973  0.49308703  1
  Nb  Nb106  1  0.09830282  0.30115247  0.89907008  1
  Nb  Nb107  1  0.30319930  0.50142095  0.09578157  1
  Nb  Nb108  1  0.09222109  0.09287832  0.70200626  1
  Nb  Nb109  1  0.51557449  0.69604551  0.10366663  1
  Nb  Nb110  1  0.49902208  0.30198630  0.51103700  1
  Nb  Nb111  1  0.69626216  0.69763667  0.50115536  1
  Nb  Nb112  1  0.30456288  0.29965117  0.30239482  1
  Nb  Nb113  1  0.50438281  0.29514469  0.69455970  1
  Nb  Nb114  1  0.09457323  0.90785703  0.90048816  1
  Nb  Nb115  1  0.90395733  0.70456991  0.90298575  1
  Nb  Nb116  1  0.89867035  0.49989031  0.30477341  1
  Nb  Nb117  1  0.69994460  0.10110528  0.30962418  1
  Nb  Nb118  1  0.69924417  0.51039718  0.09504949  1
  Nb  Nb119  1  0.29713320  0.50337094  0.70482120  1
  Nb  Nb120  1  0.88939853  0.10124226  0.50053519  1
  Nb  Nb121  1  0.09926791  0.69812345  0.49906183  1
  Nb  Nb122  1  0.89669685  0.31485587  0.30550429  1
  Nb  Nb123  1  0.69487083  0.50297443  0.90163991  1
  Nb  Nb124  1  0.89934771  0.50508249  0.70162407  1
  Nb  Nb125  1  0.40407867  0.59988645  0.19313213  1
  Nb  Nb126  1  0.39640310  0.59248025  0.39403147  1
  Nb  Nb127  1  0.60371089  0.20324407  -0.00054019  1
  Nb  Nb128  1  0.00023302  0.80780227  0.80799978  1
  Nb  Nb129  1  0.19798709  0.40060971  -0.00345927  1
  Nb  Nb130  1  0.40137454  -0.00174463  0.40188772  1
  Nb  Nb131  1  -0.00338298  0.60567550  0.00161611  1
  Nb  Nb132  1  0.00062233  0.00250999  -0.00256178  1
  Nb  Nb133  1  0.20838672  0.39966048  0.40044361  1
  Nb  Nb134  1  0.39870761  0.39706461  0.40027093  1
  Nb  Nb135  1  0.41187435  0.20090662  0.79472156  1
  Nb  Nb136  1  0.40192031  0.20445621  0.20619917  1
  Nb  Nb137  1  0.79798624  0.40780313  0.60441497  1
  Nb  Nb138  1  -0.00599635  0.20151350  0.40461872  1
  Nb  Nb139  1  0.00407930  0.19873418  -0.00506624  1
  Nb  Nb140  1  0.20094251  0.39892987  0.80559315  1
  Nb  Nb141  1  0.19503661  0.20644879  -0.00610747  1
  Nb  Nb142  1  0.00244468  0.60196615  0.40052143  1
  Nb  Nb143  1  0.20194859  0.00071844  0.19977470  1
  Nb  Nb144  1  -0.00157295  0.60195744  0.59674975  1
  Nb  Nb145  1  0.19434777  0.59954928  0.59973893  1
  Nb  Nb146  1  0.20156482  0.59713534  0.40325887  1
  Nb  Nb147  1  0.39630666  0.60052416  0.80114084  1
  Nb  Nb148  1  -0.00257050  0.19086529  0.59625109  1
  Nb  Nb149  1  0.19693114  0.79087506  0.40117273  1
  Pd  Pd150  1  0.40146609  0.59839836  0.60671929  1
  Pd  Pd151  1  0.79409665  0.80237634  0.60334102  1
  Pd  Pd152  1  0.39689630  0.01068491  0.20761834  1
  Pd  Pd153  1  0.59654020  0.80329460  0.79947741  1
  Pd  Pd154  1  0.19897182  0.79892499  -0.00956858  1
  Pd  Pd155  1  0.59340161  0.00038018  0.40298578  1
  Pd  Pd156  1  0.40325314  0.79055063  0.18099611  1
  Pd  Pd157  1  0.40175807  0.80403366  0.59951249  1
  Pd  Pd158  1  0.39789547  0.39603193  0.60184497  1
  Pd  Pd159  1  0.40672908  0.40108463  0.20515724  1
  Pd  Pd160  1  -0.00316243  0.00110640  0.59071694  1
  Pd  Pd161  1  0.59692944  0.19656522  0.19251651  1
  Pd  Pd162  1  0.59869205  0.20131181  0.40696087  1
  Pd  Pd163  1  0.40406184  0.79354883  0.00315727  1
  Pd  Pd164  1  0.80224040  0.80713977  0.79213344  1
  Pd  Pd165  1  0.60176180  0.19170850  0.80550662  1
  Pd  Pd166  1  0.19544102  0.00813334  0.00120629  1
  Pd  Pd167  1  0.81073290  0.59772778  0.59047028  1
  Pd  Pd168  1  0.80706174  0.60278420  -0.00097502  1
  Pd  Pd169  1  0.19263614  0.19016206  0.60151992  1
  Pd  Pd170  1  0.00256015  0.79463021  0.61254097  1
  Pd  Pd171  1  0.61158689  0.19427755  0.59223399  1
  Pd  Pd172  1  0.61189498  0.40609402  0.19766901  1
  Pd  Pd173  1  0.40510132  0.20232213  0.00106644  1
  Pd  Pd174  1  0.79672251  0.20259471  0.79795540  1
  Pd  Pd175  1  0.59507732  0.60184638  0.39250622  1
  Pd  Pd176  1  0.19478177  0.80640182  0.20373508  1
  Pd  Pd177  1  -0.01074979  0.39920643  0.61104839  1
  Pd  Pd178  1  0.21382201  0.19752233  0.18969687  1
  Pd  Pd179  1  0.79740190  -0.00087803  0.20349003  1
  Pd  Pd180  1  0.79965937  -0.01188925  0.79416594  1
  Pd  Pd181  1  0.19124117  0.21038734  0.40646312  1
  Pd  Pd182  1  0.39558062  0.39982500  0.79196550  1
  Pd  Pd183  1  0.60382274  -0.00282810  0.80109043  1
  Pd  Pd184  1  0.21911757  0.20542538  0.80659613  1
  Pd  Pd185  1  -0.00925361  0.00367433  0.40422371  1
  Pd  Pd186  1  0.80386847  0.19899748  0.20939468  1
  Pd  Pd187  1  0.79338567  0.40273133  0.79309183  1
  Pd  Pd188  1  0.40729505  0.61094749  0.00097869  1
  Pd  Pd189  1  0.00538266  -0.00940807  0.19594190  1
  Pd  Pd190  1  0.20169590  0.40258133  0.60562538  1
  Pd  Pd191  1  0.39462454  0.80539575  0.40826302  1
  Pd  Pd192  1  -0.00008156  0.40044063  0.20252980  1
  Pd  Pd193  1  0.78978852  0.79294237  0.39464684  1
  Pd  Pd194  1  0.80003068  0.19492062  -0.00420556  1
  Pd  Pd195  1  0.00329180  0.40394813  0.00431511  1
  Pd  Pd196  1  0.19284595  0.80873507  0.80838944  1
  Pd  Pd197  1  -0.01828295  -0.00952787  0.80591610  1
  Pd  Pd198  1  0.80250723  0.00710155  0.00733823  1
  Pd  Pd199  1  0.79829644  0.21017698  0.60426326  1
  Rh  Rh200  1  0.40374456  0.79514561  0.80229445  1
  Rh  Rh201  1  0.00143792  0.39491458  0.79597619  1
  Rh  Rh202  1  0.80698683  0.60579753  0.40297424  1
  Rh  Rh203  1  0.01199532  0.39840905  0.38663487  1
  Rh  Rh204  1  0.59905782  0.39449333  0.40792942  1
  Rh  Rh205  1  0.60523081  0.40588176  0.79340997  1
  Rh  Rh206  1  0.60641661  0.80081426  0.19714021  1
  Rh  Rh207  1  0.60186341  0.60528329  -0.01026266  1
  Rh  Rh208  1  -0.01374520  0.21243707  0.21069225  1
  Rh  Rh209  1  0.60346533  0.79730154  0.59818530  1
  Rh  Rh210  1  -0.01146592  0.60053127  0.19810411  1
  Rh  Rh211  1  0.60624099  0.00030301  0.20125088  1
  Rh  Rh212  1  0.19211786  -0.00050200  0.60670471  1
  Rh  Rh213  1  0.00656183  0.79634591  -0.00555756  1
  Rh  Rh214  1  0.41185522  0.20137594  0.39504484  1
  Rh  Rh215  1  0.61008467  0.39955217  0.60068332  1
  Rh  Rh216  1  0.79715812  0.41214059  -0.00207252  1
  Rh  Rh217  1  0.60427102  0.00589494  0.00152172  1
  Rh  Rh218  1  0.40078826  0.00336363  0.79800508  1
  Rh  Rh219  1  0.20365033  0.59500107  0.79293880  1
  Rh  Rh220  1  0.80066466  0.60261055  0.80481423  1
  Rh  Rh221  1  0.58886897  0.60042551  0.80266575  1
  Rh  Rh222  1  -0.00169828  0.80056216  0.20262964  1
  Rh  Rh223  1  0.00416071  0.79397079  0.39279637  1
  Rh  Rh224  1  0.40392766  -0.01150880  -0.00057820  1
  Rh  Rh225  1  0.79817690  -0.00564277  0.59338337  1
  Rh  Rh226  1  0.61137431  0.39819216  0.00531318  1
  Rh  Rh227  1  0.79025846  0.79749996  0.19931256  1
  Rh  Rh228  1  0.39975953  0.19621383  0.61092561  1
  Rh  Rh229  1  0.20129370  0.39703315  0.19595180  1
  Rh  Rh230  1  0.79519784  0.40737232  0.20398410  1
  Rh  Rh231  1  0.80520201  -0.00237909  0.39471097  1
  Rh  Rh232  1  0.59036382  0.60466184  0.60473797  1
  Rh  Rh233  1  0.60576686  0.79758980  0.40016649  1
  Rh  Rh234  1  0.78749457  0.78838632  0.00915599  1
  Rh  Rh235  1  0.79791596  0.59691433  0.20074751  1
  Rh  Rh236  1  0.59812453  0.59480986  0.20585200  1
  Rh  Rh237  1  -0.00539910  0.61472858  0.79976119  1
  Rh  Rh238  1  0.60374790  0.79457712  0.00282073  1
  Rh  Rh239  1  0.78834447  0.40624478  0.40694593  1
  Rh  Rh240  1  0.18904811  0.80017802  0.60087929  1
  Rh  Rh241  1  0.18970803  0.59617818  0.00586651  1
  Rh  Rh242  1  0.21025915  -0.01458013  0.39189039  1
  Rh  Rh243  1  0.60944232  0.00843734  0.58947291  1
  Rh  Rh244  1  0.39717690  -0.00166655  0.59484006  1
  Rh  Rh245  1  0.80652590  0.19914162  0.39086557  1
  Rh  Rh246  1  0.20695296  0.60119882  0.19258610  1
  Rh  Rh247  1  -0.01125084  0.20169477  0.80044948  1
  Rh  Rh248  1  0.20478232  -0.00440330  0.79943381  1
  Rh  Rh249  1  0.39530317  0.40195575  0.00256664  1
