# generated using pymatgen
data_ZrScNbPdRh
_symmetry_space_group_name_H-M   'P 1'
_cell_length_a   16.55898762
_cell_length_b   16.55602719
_cell_length_c   16.55884756
_cell_angle_alpha   89.96725305
_cell_angle_beta   90.01330568
_cell_angle_gamma   90.01757427
_symmetry_Int_Tables_number   1
_chemical_formula_structural   ZrScNbPdRh
_chemical_formula_sum   'Zr50 Sc50 Nb50 Pd50 Rh50'
_cell_volume   4539.62435593
_cell_formula_units_Z   50
loop_
 _symmetry_equiv_pos_site_id
 _symmetry_equiv_pos_as_xyz
  1  'x, y, z'
loop_
 _atom_site_type_symbol
 _atom_site_label
 _atom_site_symmetry_multiplicity
 _atom_site_fract_x
 _atom_site_fract_y
 _atom_site_fract_z
 _atom_site_occupancy
  Zr  Zr0  1  0.09846459  0.49516431  0.69922418  1
  Zr  Zr1  1  0.90360362  0.70546203  0.89600825  1
  Zr  Zr2  1  0.50697880  0.50613587  0.10518584  1
  Zr  Zr3  1  0.09900371  0.70313577  0.49746347  1
  Zr  Zr4  1  0.50115572  0.70519916  0.49080975  1
  Zr  Zr5  1  0.89138949  0.49180631  0.30892101  1
  Zr  Zr6  1  0.69670679  0.28961267  0.50091888  1
  Zr  Zr7  1  0.70536416  0.50639519  0.49075357  1
  Zr  Zr8  1  0.49286249  0.08916098  0.31219028  1
  Zr  Zr9  1  0.89743243  0.70737753  0.10278387  1
  Zr  Zr10  1  0.50056268  0.29867812  0.90470038  1
  Zr  Zr11  1  0.69992836  0.29239604  0.09816605  1
  Zr  Zr12  1  0.70238899  0.50184300  0.90340142  1
  Zr  Zr13  1  0.51618098  0.10038264  0.50254309  1
  Zr  Zr14  1  0.29816649  0.89237656  0.50659455  1
  Zr  Zr15  1  0.09950829  0.09340597  0.90295082  1
  Zr  Zr16  1  0.90319443  0.69873718  0.28836567  1
  Zr  Zr17  1  0.49594790  0.30460866  0.70296466  1
  Zr  Zr18  1  0.29826383  0.50805594  0.30518645  1
  Zr  Zr19  1  0.70131131  0.50254135  0.70130414  1
  Zr  Zr20  1  0.89391123  0.29763708  0.90884186  1
  Zr  Zr21  1  0.69729930  0.90088028  0.28973739  1
  Zr  Zr22  1  0.29418897  0.71160577  0.69779177  1
  Zr  Zr23  1  0.09718853  0.09874038  0.09939702  1
  Zr  Zr24  1  0.31868754  0.09545094  0.49428638  1
  Zr  Zr25  1  0.49452044  0.49801489  0.70277075  1
  Zr  Zr26  1  0.10983253  0.69898303  0.90238035  1
  Zr  Zr27  1  0.49703150  0.71191024  0.89532966  1
  Zr  Zr28  1  0.10085082  0.29631875  0.11632823  1
  Zr  Zr29  1  0.49561525  0.50691490  0.50260303  1
  Zr  Zr30  1  0.10584064  0.29818847  0.69599171  1
  Zr  Zr31  1  0.29765936  0.50555159  0.89945679  1
  Zr  Zr32  1  0.89933000  0.70756447  0.70267369  1
  Zr  Zr33  1  0.49834239  0.90521372  0.49653315  1
  Zr  Zr34  1  0.69728242  0.89645669  0.09809368  1
  Zr  Zr35  1  0.89354954  0.09914519  0.69414614  1
  Zr  Zr36  1  0.89492870  0.51329472  0.11536089  1
  Zr  Zr37  1  0.30195819  0.49838101  0.70024234  1
  Zr  Zr38  1  0.88649630  0.89964622  0.10463620  1
  Zr  Zr39  1  0.10251410  0.11290529  0.69904174  1
  Zr  Zr40  1  0.69939384  0.49753940  0.29035996  1
  Zr  Zr41  1  0.09040567  0.69614057  0.70677067  1
  Zr  Zr42  1  0.89371903  0.90007134  0.70337814  1
  Zr  Zr43  1  0.10143605  0.30169751  0.50213116  1
  Zr  Zr44  1  0.89821675  0.90293968  0.49501694  1
  Zr  Zr45  1  0.28947950  0.30117422  0.30100100  1
  Zr  Zr46  1  0.69255814  0.70075504  0.50500544  1
  Zr  Zr47  1  0.51120763  0.70153605  0.09397857  1
  Zr  Zr48  1  0.71101573  0.09734562  0.50444058  1
  Zr  Zr49  1  0.29778127  0.69771978  0.49443803  1
  Sc  Sc50  1  0.30034357  0.30259075  0.70138338  1
  Sc  Sc51  1  0.09775889  0.70381377  0.29692451  1
  Sc  Sc52  1  0.30127869  0.30374776  0.50497691  1
  Sc  Sc53  1  0.50188045  0.70650321  0.69398673  1
  Sc  Sc54  1  0.29804471  0.69975462  0.30200451  1
  Sc  Sc55  1  0.50650063  0.89916163  0.70507235  1
  Sc  Sc56  1  0.30110536  0.70179543  0.89856199  1
  Sc  Sc57  1  0.09665073  0.10620774  0.29342563  1
  Sc  Sc58  1  0.29603689  0.50168740  0.49614962  1
  Sc  Sc59  1  0.31349576  0.09773885  0.90224389  1
  Sc  Sc60  1  0.70854189  0.30281101  0.89975702  1
  Sc  Sc61  1  0.11207205  0.89827934  0.10087286  1
  Sc  Sc62  1  0.09313994  0.30249367  0.30297161  1
  Sc  Sc63  1  0.09620038  0.29524042  0.89159322  1
  Sc  Sc64  1  0.49766469  0.29419850  0.09158987  1
  Sc  Sc65  1  0.69923561  0.09849802  0.90887110  1
  Sc  Sc66  1  0.89995645  0.28852633  0.10569587  1
  Sc  Sc67  1  0.89855336  0.29572322  0.48883744  1
  Sc  Sc68  1  0.70239022  0.70516450  0.90641870  1
  Sc  Sc69  1  0.30803139  0.50394015  0.09345601  1
  Sc  Sc70  1  0.31724139  0.29634749  0.90389909  1
  Sc  Sc71  1  0.30199058  0.90298678  0.09861666  1
  Sc  Sc72  1  0.89990351  0.29491253  0.70700373  1
  Sc  Sc73  1  0.70037383  0.89466106  0.49918595  1
  Sc  Sc74  1  0.50689111  0.08948697  0.70182661  1
  Sc  Sc75  1  0.89194315  0.70522769  0.50161835  1
  Sc  Sc76  1  0.09301364  0.89172321  0.29839909  1
  Sc  Sc77  1  0.49220505  0.50090265  0.90157694  1
  Sc  Sc78  1  0.10024317  0.49163576  0.30180919  1
  Sc  Sc79  1  0.30840577  0.89164242  0.90351314  1
  Sc  Sc80  1  0.30151168  0.90436187  0.29105726  1
  Sc  Sc81  1  0.29529449  0.70934945  0.08791259  1
  Sc  Sc82  1  0.50574387  0.09725532  0.08956585  1
  Sc  Sc83  1  0.50160974  0.90810003  0.89755805  1
  Sc  Sc84  1  0.09290551  0.88623010  0.69839131  1
  Sc  Sc85  1  0.69971716  0.09758349  0.69050730  1
  Sc  Sc86  1  0.90003793  0.09795199  0.90558383  1
  Sc  Sc87  1  0.70644313  0.29561687  0.29477002  1
  Sc  Sc88  1  0.89475459  0.90429004  0.89657455  1
  Sc  Sc89  1  0.89606895  0.50006592  0.89813127  1
  Sc  Sc90  1  0.89421846  0.89154101  0.30096484  1
  Sc  Sc91  1  0.69567255  0.70465269  0.30917939  1
  Sc  Sc92  1  0.09286732  0.89257064  0.49438973  1
  Sc  Sc93  1  0.89454191  0.09912572  0.30742744  1
  Sc  Sc94  1  0.10402920  0.50408496  0.89109890  1
  Sc  Sc95  1  0.70438211  0.09251784  0.10165263  1
  Sc  Sc96  1  0.30224952  0.10689614  0.70425572  1
  Sc  Sc97  1  0.50252698  0.29041340  0.49495760  1
  Sc  Sc98  1  0.50878769  0.28567853  0.30158040  1
  Sc  Sc99  1  0.90586395  0.50826177  0.70037264  1
  Nb  Nb100  1  0.90078898  0.09589815  0.09914059  1
  Nb  Nb101  1  0.69532081  0.89824547  0.70554079  1
  Nb  Nb102  1  0.09886428  0.50126392  0.09889976  1
  Nb  Nb103  1  0.70262780  0.69494630  0.09477314  1
  Nb  Nb104  1  0.69877789  0.29954376  0.69698230  1
  Nb  Nb105  1  0.30197862  0.29851340  0.10066447  1
  Nb  Nb106  1  0.89803791  0.49405767  0.49816591  1
  Nb  Nb107  1  0.69711752  0.70818400  0.70077637  1
  Nb  Nb108  1  0.30049359  0.10023372  0.30120121  1
  Nb  Nb109  1  0.90198901  0.30100168  0.30089268  1
  Nb  Nb110  1  0.29419300  0.09965479  0.10961580  1
  Nb  Nb111  1  0.10241120  0.10336420  0.50407471  1
  Nb  Nb112  1  0.09813239  0.70106103  0.10234243  1
  Nb  Nb113  1  0.70192814  0.90175799  0.89090905  1
  Nb  Nb114  1  0.49895006  0.69951970  0.30045897  1
  Nb  Nb115  1  0.90135477  0.09493809  0.50279761  1
  Nb  Nb116  1  0.09231252  0.49791852  0.49994153  1
  Nb  Nb117  1  0.50561735  0.89722729  0.10648028  1
  Nb  Nb118  1  0.69256515  0.09606500  0.29667556  1
  Nb  Nb119  1  0.09880596  0.90177077  0.90232044  1
  Nb  Nb120  1  0.49816201  0.50622492  0.29720047  1
  Nb  Nb121  1  0.50796215  0.89360224  0.29389745  1
  Nb  Nb122  1  0.50320319  0.10830244  0.89611783  1
  Nb  Nb123  1  0.69720393  0.50650507  0.09784325  1
  Nb  Nb124  1  0.29388532  0.90156817  0.69846916  1
  Nb  Nb125  1  0.60215482  0.60492437  0.79870175  1
  Nb  Nb126  1  0.19682590  0.39420284  0.00463770  1
  Nb  Nb127  1  0.40322984  0.39662622  0.20406390  1
  Nb  Nb128  1  0.00384778  0.40468834  0.00715331  1
  Nb  Nb129  1  0.20177375  0.19244453  0.40458150  1
  Nb  Nb130  1  0.00213302  0.00606946  0.59571728  1
  Nb  Nb131  1  -0.00434365  0.59283904  0.40436812  1
  Nb  Nb132  1  0.60436069  0.40046042  0.59660605  1
  Nb  Nb133  1  0.00412209  0.80014015  0.00117197  1
  Nb  Nb134  1  0.19436282  0.60141248  0.19130301  1
  Nb  Nb135  1  0.41204356  0.79870956  0.19863125  1
  Nb  Nb136  1  -0.00659728  0.00160350  0.19516208  1
  Nb  Nb137  1  0.40633296  0.19747823  0.60000469  1
  Nb  Nb138  1  0.60052571  0.20155395  0.80072888  1
  Nb  Nb139  1  0.00432212  0.60205946  0.00651573  1
  Nb  Nb140  1  0.60506615  0.40591350  0.00574716  1
  Nb  Nb141  1  0.40772778  0.40281906  0.39163120  1
  Nb  Nb142  1  0.19892232  -0.00586550  0.79728879  1
  Nb  Nb143  1  0.59822570  0.40518454  0.39778674  1
  Nb  Nb144  1  0.19940653  0.00542039  0.40419838  1
  Nb  Nb145  1  0.39217918  0.19655810  0.20039897  1
  Nb  Nb146  1  0.19227474  0.60049198  0.59889693  1
  Nb  Nb147  1  0.79693650  0.39973915  0.59804635  1
  Nb  Nb148  1  0.19628742  0.00082727  0.60045109  1
  Nb  Nb149  1  0.20457696  0.20137218  0.00900616  1
  Pd  Pd150  1  -0.00657675  0.19542560  0.80502737  1
  Pd  Pd151  1  0.79660726  0.80520303  0.60074640  1
  Pd  Pd152  1  0.40219579  0.60992813  0.79576377  1
  Pd  Pd153  1  0.00701914  0.00439814  0.39585819  1
  Pd  Pd154  1  0.80546350  0.61023755  0.39545779  1
  Pd  Pd155  1  0.39848947  0.00186045  0.61089339  1
  Pd  Pd156  1  0.79462366  0.60815699  0.79997350  1
  Pd  Pd157  1  0.79713041  0.19755175  0.39589397  1
  Pd  Pd158  1  0.21095346  0.19696054  0.81517161  1
  Pd  Pd159  1  0.00621373  0.00006936  0.78907818  1
  Pd  Pd160  1  0.39629434  -0.00364390  0.79670562  1
  Pd  Pd161  1  0.79363293  -0.00252519  0.39359974  1
  Pd  Pd162  1  0.60707836  0.61174535  0.20599157  1
  Pd  Pd163  1  0.80419033  0.40262160  0.01399042  1
  Pd  Pd164  1  0.60290967  0.80890986  -0.00878395  1
  Pd  Pd165  1  -0.00264422  0.60405763  0.59234959  1
  Pd  Pd166  1  -0.00588558  -0.01277301  0.00740882  1
  Pd  Pd167  1  0.40848530  0.80391759  0.60303448  1
  Pd  Pd168  1  0.60143589  0.40072312  0.80535355  1
  Pd  Pd169  1  0.60114565  -0.00437292  -0.00383403  1
  Pd  Pd170  1  0.80863078  0.60323436  -0.00134538  1
  Pd  Pd171  1  0.39065856  0.60917617  0.19426469  1
  Pd  Pd172  1  0.21189634  0.00211578  -0.00760681  1
  Pd  Pd173  1  0.00623466  0.20717503  0.00091441  1
  Pd  Pd174  1  0.80443639  0.59907884  0.60253826  1
  Pd  Pd175  1  0.40325913  0.60667100  0.00037760  1
  Pd  Pd176  1  0.59234157  0.39173919  0.19897188  1
  Pd  Pd177  1  0.80706237  0.40122247  0.79186051  1
  Pd  Pd178  1  0.20347753  0.80844238  0.39097527  1
  Pd  Pd179  1  0.80344923  0.39394016  0.19283075  1
  Pd  Pd180  1  0.39656371  0.80550375  0.38921672  1
  Pd  Pd181  1  0.40235120  0.00041976  0.00467095  1
  Pd  Pd182  1  0.61023118  -0.00458584  0.40224735  1
  Pd  Pd183  1  0.19996637  0.80678612  0.80637963  1
  Pd  Pd184  1  0.18955617  -0.00272071  0.21065599  1
  Pd  Pd185  1  -0.00759012  0.40217950  0.19847625  1
  Pd  Pd186  1  0.39113668  0.60754814  0.60085198  1
  Pd  Pd187  1  0.20700369  0.39027114  0.81064985  1
  Pd  Pd188  1  0.00442625  0.19598595  0.39857999  1
  Pd  Pd189  1  0.80261721  0.19073163  0.20192700  1
  Pd  Pd190  1  0.59113611  0.18857008  0.19784590  1
  Pd  Pd191  1  0.20323282  0.40794977  0.59540079  1
  Pd  Pd192  1  -0.00507786  0.40055595  0.80620774  1
  Pd  Pd193  1  0.79253501  0.01041639  0.80125532  1
  Pd  Pd194  1  -0.00972062  0.20412906  0.59635964  1
  Pd  Pd195  1  0.40794049  0.00049237  0.19507233  1
  Pd  Pd196  1  0.21043139  0.41253870  0.19288463  1
  Pd  Pd197  1  0.79142438  0.19220782  0.80222927  1
  Pd  Pd198  1  -0.01193944  0.38970575  0.60031099  1
  Pd  Pd199  1  0.59796316  0.59828222  0.60671493  1
  Rh  Rh200  1  -0.00120236  0.59681838  0.80945037  1
  Rh  Rh201  1  0.79971041  0.80451652  -0.00404957  1
  Rh  Rh202  1  0.20134556  0.39574308  0.40704628  1
  Rh  Rh203  1  0.60767925  0.20760348  -0.00837532  1
  Rh  Rh204  1  0.60462036  0.79773396  0.80286291  1
  Rh  Rh205  1  0.59717149  0.59565348  -0.01116651  1
  Rh  Rh206  1  0.39470497  -0.01632340  0.39376558  1
  Rh  Rh207  1  0.00185987  0.81427577  0.18931945  1
  Rh  Rh208  1  0.60167733  0.79190075  0.19816999  1
  Rh  Rh209  1  0.21075059  0.79267280  0.20004536  1
  Rh  Rh210  1  0.00114526  0.80657867  0.81064488  1
  Rh  Rh211  1  0.79336606  0.79833781  0.80230880  1
  Rh  Rh212  1  0.59696422  0.59675509  0.39360224  1
  Rh  Rh213  1  0.19582063  0.80551323  -0.00269368  1
  Rh  Rh214  1  0.40444483  0.60005338  0.39998242  1
  Rh  Rh215  1  0.78519556  0.79133415  0.20114998  1
  Rh  Rh216  1  0.40938631  0.19676343  0.79119702  1
  Rh  Rh217  1  0.39895080  0.80540277  0.79462322  1
  Rh  Rh218  1  0.18365030  0.59746892  0.39985739  1
  Rh  Rh219  1  0.40837694  0.80558113  0.00783007  1
  Rh  Rh220  1  0.19635624  0.59316028  0.00423878  1
  Rh  Rh221  1  0.80419068  0.00588600  0.20594165  1
  Rh  Rh222  1  0.80777279  0.20802100  0.59898327  1
  Rh  Rh223  1  0.80031661  0.19277135  0.00361263  1
  Rh  Rh224  1  0.59505501  0.00636762  0.19934150  1
  Rh  Rh225  1  -0.00067759  0.40066994  0.40045638  1
  Rh  Rh226  1  0.60689434  -0.01031711  0.59964578  1
  Rh  Rh227  1  -0.00732840  0.80740803  0.59599730  1
  Rh  Rh228  1  0.40411904  0.40474309  0.00647690  1
  Rh  Rh229  1  0.40987044  0.39062127  0.58847597  1
  Rh  Rh230  1  0.21722762  0.19246863  0.59229087  1
  Rh  Rh231  1  0.59118562  0.20481190  0.61427847  1
  Rh  Rh232  1  0.39404321  0.18606518  0.01133121  1
  Rh  Rh233  1  0.19113912  0.79761634  0.59937452  1
  Rh  Rh234  1  0.79186578  0.38968816  0.40334524  1
  Rh  Rh235  1  0.39192254  0.40171057  0.80730327  1
  Rh  Rh236  1  0.59956294  0.80412982  0.39931370  1
  Rh  Rh237  1  0.80126312  -0.00896133  0.60003199  1
  Rh  Rh238  1  0.00999539  0.59346183  0.20888903  1
  Rh  Rh239  1  0.39089812  0.21243632  0.39853663  1
  Rh  Rh240  1  0.61131441  0.19553938  0.39238164  1
  Rh  Rh241  1  -0.00999878  0.78699773  0.39890019  1
  Rh  Rh242  1  0.79746709  -0.00286125  -0.00265665  1
  Rh  Rh243  1  0.59849945  0.80625328  0.59865487  1
  Rh  Rh244  1  0.79810408  0.79823997  0.39793827  1
  Rh  Rh245  1  0.20274942  0.19701339  0.20476117  1
  Rh  Rh246  1  0.60685635  0.00673979  0.80381253  1
  Rh  Rh247  1  -0.01336410  0.19163623  0.20914111  1
  Rh  Rh248  1  0.78755941  0.60829714  0.20548121  1
  Rh  Rh249  1  0.20476805  0.60159712  0.78699761  1
