# generated using pymatgen
data_ZrScNbPdRh
_symmetry_space_group_name_H-M   'P 1'
_cell_length_a   16.55846394
_cell_length_b   16.55732082
_cell_length_c   16.55915349
_cell_angle_alpha   90.05341885
_cell_angle_beta   89.98135297
_cell_angle_gamma   89.99886247
_symmetry_Int_Tables_number   1
_chemical_formula_structural   ZrScNbPdRh
_chemical_formula_sum   'Zr50 Sc50 Nb50 Pd50 Rh50'
_cell_volume   4539.91822626
_cell_formula_units_Z   50
loop_
 _symmetry_equiv_pos_site_id
 _symmetry_equiv_pos_as_xyz
  1  'x, y, z'
loop_
 _atom_site_type_symbol
 _atom_site_label
 _atom_site_symmetry_multiplicity
 _atom_site_fract_x
 _atom_site_fract_y
 _atom_site_fract_z
 _atom_site_occupancy
  Zr  Zr0  1  0.30371587  0.49954409  0.29047385  1
  Zr  Zr1  1  0.50784130  0.28937154  0.70354045  1
  Zr  Zr2  1  0.69789735  0.50253593  0.08500648  1
  Zr  Zr3  1  0.90002071  0.70435611  0.30055889  1
  Zr  Zr4  1  0.09576773  0.89842730  0.69850070  1
  Zr  Zr5  1  0.90486709  0.30019556  0.09890440  1
  Zr  Zr6  1  0.89435475  0.29997869  0.49189585  1
  Zr  Zr7  1  0.70216052  0.90542126  0.10180075  1
  Zr  Zr8  1  0.51213703  0.50417540  0.90778924  1
  Zr  Zr9  1  0.70155785  0.89425312  0.90840626  1
  Zr  Zr10  1  0.11148349  0.90002341  0.90015846  1
  Zr  Zr11  1  0.69716679  0.89708726  0.69542861  1
  Zr  Zr12  1  0.89978747  0.69577214  0.09828201  1
  Zr  Zr13  1  0.49138592  0.89402714  0.89128087  1
  Zr  Zr14  1  0.09541904  0.29866376  0.49175739  1
  Zr  Zr15  1  0.90436938  0.50388188  0.70961841  1
  Zr  Zr16  1  0.70738611  0.29472170  0.30045332  1
  Zr  Zr17  1  0.90055156  0.70990719  0.70026601  1
  Zr  Zr18  1  0.10846535  0.51047706  0.70117786  1
  Zr  Zr19  1  0.89867086  0.50879047  0.29462292  1
  Zr  Zr20  1  0.70229295  0.50574715  0.30245745  1
  Zr  Zr21  1  0.29369414  0.50059195  0.10215227  1
  Zr  Zr22  1  0.69920096  0.70982622  0.09601237  1
  Zr  Zr23  1  0.70477415  0.30408936  0.90015199  1
  Zr  Zr24  1  0.09859928  0.70263208  0.29874733  1
  Zr  Zr25  1  0.30836699  0.09572044  0.29651231  1
  Zr  Zr26  1  0.31037136  0.30354030  0.68918657  1
  Zr  Zr27  1  0.09675413  0.09412082  0.49979725  1
  Zr  Zr28  1  0.89277949  0.49686324  0.90603256  1
  Zr  Zr29  1  0.30062466  0.50481037  0.90173437  1
  Zr  Zr30  1  0.70475372  0.90766370  0.29215202  1
  Zr  Zr31  1  0.70278765  0.71262403  0.70240774  1
  Zr  Zr32  1  0.29332351  0.69829168  0.10762142  1
  Zr  Zr33  1  0.49478985  0.49928114  0.69047998  1
  Zr  Zr34  1  0.30398865  0.90718116  0.71086275  1
  Zr  Zr35  1  0.90010297  0.09365080  0.70253612  1
  Zr  Zr36  1  0.90373252  0.10026874  0.49103449  1
  Zr  Zr37  1  0.89983167  0.89163063  0.69865519  1
  Zr  Zr38  1  0.50261805  0.49382652  0.11426922  1
  Zr  Zr39  1  0.10242296  0.08932062  0.70143671  1
  Zr  Zr40  1  0.50394911  0.29940014  0.28634066  1
  Zr  Zr41  1  0.49979772  0.09574227  0.69779013  1
  Zr  Zr42  1  0.09873250  0.09759640  0.91248470  1
  Zr  Zr43  1  0.90339184  0.30169615  0.30530935  1
  Zr  Zr44  1  0.29795671  0.09124450  0.10346726  1
  Zr  Zr45  1  0.69731952  0.30206304  0.10593993  1
  Zr  Zr46  1  0.30073529  0.10049736  0.48404322  1
  Zr  Zr47  1  0.30442299  0.29252122  0.30139558  1
  Zr  Zr48  1  0.49945572  0.90166761  0.69372318  1
  Zr  Zr49  1  0.09403592  0.70227366  0.70352884  1
  Sc  Sc50  1  0.90016145  0.30446368  0.90562645  1
  Sc  Sc51  1  0.09876476  0.70309233  0.89817051  1
  Sc  Sc52  1  0.49899312  0.29405319  0.90538891  1
  Sc  Sc53  1  0.49808196  0.08829304  0.49650764  1
  Sc  Sc54  1  0.49843506  0.29714462  0.51337151  1
  Sc  Sc55  1  0.69663845  0.49260106  0.69218539  1
  Sc  Sc56  1  0.50707095  0.70185521  0.70142138  1
  Sc  Sc57  1  0.89519664  0.89944237  0.09995651  1
  Sc  Sc58  1  0.69218347  0.70415194  0.49814548  1
  Sc  Sc59  1  0.10517302  0.50320992  0.29869915  1
  Sc  Sc60  1  0.09930804  0.30911642  0.69748599  1
  Sc  Sc61  1  0.89297912  0.09922500  0.29799480  1
  Sc  Sc62  1  0.29744919  0.90042402  0.29495159  1
  Sc  Sc63  1  0.29852774  0.70899456  0.90394621  1
  Sc  Sc64  1  0.50582094  0.70088830  0.89658304  1
  Sc  Sc65  1  0.30659086  0.09355694  0.69722512  1
  Sc  Sc66  1  0.49900668  0.09518942  0.11255531  1
  Sc  Sc67  1  0.30406673  0.29709759  0.91235549  1
  Sc  Sc68  1  0.30343156  0.50673829  0.51300311  1
  Sc  Sc69  1  0.29253982  0.69761671  0.30548692  1
  Sc  Sc70  1  0.30762999  0.30355764  0.10087523  1
  Sc  Sc71  1  0.49423893  0.10082157  0.29960368  1
  Sc  Sc72  1  0.09420838  0.50230146  0.90204021  1
  Sc  Sc73  1  0.28997874  0.89338705  0.10041187  1
  Sc  Sc74  1  0.09314585  0.90352674  0.49812935  1
  Sc  Sc75  1  0.29681853  0.09708403  0.90039918  1
  Sc  Sc76  1  0.29409500  0.68040647  0.70309499  1
  Sc  Sc77  1  0.90167612  0.70667662  0.89984625  1
  Sc  Sc78  1  0.70721643  0.70503140  0.29802845  1
  Sc  Sc79  1  0.69721855  0.09306754  0.49127714  1
  Sc  Sc80  1  0.89816382  0.09773869  0.90695856  1
  Sc  Sc81  1  0.30349764  0.90666015  0.48826050  1
  Sc  Sc82  1  0.70586663  0.09571617  0.90707696  1
  Sc  Sc83  1  0.09513187  0.30093380  0.09063905  1
  Sc  Sc84  1  0.50049434  0.10495379  0.89734858  1
  Sc  Sc85  1  0.30055830  0.29901738  0.49393166  1
  Sc  Sc86  1  0.69373840  0.10570959  0.70701483  1
  Sc  Sc87  1  0.88657500  0.49956700  0.48712980  1
  Sc  Sc88  1  0.09994946  0.90269167  0.10051510  1
  Sc  Sc89  1  0.51036024  0.89688668  0.10139793  1
  Sc  Sc90  1  0.50241373  0.90648562  0.30198374  1
  Sc  Sc91  1  0.10416757  0.69867938  0.49108275  1
  Sc  Sc92  1  0.68693481  0.89954594  0.49443412  1
  Sc  Sc93  1  0.89824144  0.90280750  0.90476292  1
  Sc  Sc94  1  0.11056995  0.50315529  0.49619802  1
  Sc  Sc95  1  0.49837779  0.68566019  0.30502620  1
  Sc  Sc96  1  0.89765739  0.71133259  0.49549513  1
  Sc  Sc97  1  0.08845967  0.09130254  0.30102062  1
  Sc  Sc98  1  0.88918552  0.30798203  0.71154572  1
  Sc  Sc99  1  0.10106544  0.30676526  0.30141613  1
  Nb  Nb100  1  0.30158578  0.90128822  0.90365372  1
  Nb  Nb101  1  0.08774773  0.89151917  0.29745995  1
  Nb  Nb102  1  0.10514024  0.70085917  0.10070273  1
  Nb  Nb103  1  0.69918075  0.50155550  0.90163337  1
  Nb  Nb104  1  0.90063797  0.89945395  0.50499275  1
  Nb  Nb105  1  0.49705796  0.69645485  0.10493132  1
  Nb  Nb106  1  0.69836939  0.09959250  0.29566049  1
  Nb  Nb107  1  0.09489835  0.10149805  0.09903864  1
  Nb  Nb108  1  0.50731945  0.50707711  0.49738701  1
  Nb  Nb109  1  0.69729231  0.49563650  0.50157463  1
  Nb  Nb110  1  0.70639726  0.09499355  0.11167148  1
  Nb  Nb111  1  0.29988653  0.70487873  0.49864391  1
  Nb  Nb112  1  0.50799754  0.29915302  0.10266312  1
  Nb  Nb113  1  0.10210277  0.29551461  0.89723226  1
  Nb  Nb114  1  0.69377190  0.29885125  0.69710004  1
  Nb  Nb115  1  0.91125563  0.09935513  0.09618455  1
  Nb  Nb116  1  0.29848540  0.49600884  0.70453900  1
  Nb  Nb117  1  0.70159797  0.30769703  0.50398384  1
  Nb  Nb118  1  0.50176714  0.89744327  0.50244833  1
  Nb  Nb119  1  0.50180319  0.49705003  0.30243488  1
  Nb  Nb120  1  0.90405231  0.49797226  0.09493902  1
  Nb  Nb121  1  0.09649306  0.50754314  0.09740903  1
  Nb  Nb122  1  0.70002011  0.69118085  0.90203768  1
  Nb  Nb123  1  0.90247074  0.89581045  0.30518544  1
  Nb  Nb124  1  0.49240983  0.70091882  0.49895128  1
  Nb  Nb125  1  0.59961884  0.40151815  0.40495228  1
  Nb  Nb126  1  0.20865658  0.79975870  0.59807841  1
  Nb  Nb127  1  0.19439284  0.19717119  0.60030208  1
  Nb  Nb128  1  0.40330083  0.60248644  0.00969231  1
  Nb  Nb129  1  0.20751055  0.39732572  0.80101531  1
  Nb  Nb130  1  0.79325559  0.59996546  0.80084792  1
  Nb  Nb131  1  0.60434323  0.19873114  0.01327324  1
  Nb  Nb132  1  0.80050125  0.60234760  0.60225015  1
  Nb  Nb133  1  0.39614438  0.79685021  0.59370894  1
  Nb  Nb134  1  0.00575080  0.20034947  0.79943578  1
  Nb  Nb135  1  -0.00358089  0.40497523  0.59714242  1
  Nb  Nb136  1  0.59846430  0.39766775  0.79850284  1
  Nb  Nb137  1  0.59788394  -0.00529154  0.80202387  1
  Nb  Nb138  1  -0.00291370  0.20502625  0.60497419  1
  Nb  Nb139  1  0.60349269  0.20672059  0.39850000  1
  Nb  Nb140  1  0.79763322  0.20178498  0.59836421  1
  Nb  Nb141  1  0.40195230  0.79277955  0.19952859  1
  Nb  Nb142  1  0.39850278  -0.00812571  -0.00111496  1
  Nb  Nb143  1  0.40141253  0.40328546  0.79979384  1
  Nb  Nb144  1  0.19576770  0.19267385  0.19595171  1
  Nb  Nb145  1  0.19677457  0.20503784  0.79582322  1
  Nb  Nb146  1  0.80543879  0.40591792  0.19553831  1
  Nb  Nb147  1  -0.00636809  0.59837501  0.59800422  1
  Nb  Nb148  1  0.80182489  -0.00029829  0.59813481  1
  Nb  Nb149  1  0.41175814  0.40651412  0.39975517  1
  Pd  Pd150  1  0.39387796  0.18876751  0.59070105  1
  Pd  Pd151  1  0.00518652  0.60174407  0.19821171  1
  Pd  Pd152  1  0.40480492  0.80347866  0.39416926  1
  Pd  Pd153  1  0.19408946  0.39936342  -0.00228217  1
  Pd  Pd154  1  0.00824373  0.39733652  0.80141816  1
  Pd  Pd155  1  -0.00227760  0.59897796  0.40627841  1
  Pd  Pd156  1  0.79446020  0.59829762  0.18934910  1
  Pd  Pd157  1  0.39173097  0.59319593  0.40097019  1
  Pd  Pd158  1  0.80638320  0.40190740  0.60421108  1
  Pd  Pd159  1  0.19631207  0.39570719  0.59824565  1
  Pd  Pd160  1  0.20666564  0.79614346  0.79272011  1
  Pd  Pd161  1  0.60613124  0.60204746  0.40112818  1
  Pd  Pd162  1  0.59397729  0.79728063  0.39058362  1
  Pd  Pd163  1  0.00242989  0.40529683  0.19767096  1
  Pd  Pd164  1  0.19330546  0.39078551  0.19243760  1
  Pd  Pd165  1  0.00047690  0.60317163  -0.00482557  1
  Pd  Pd166  1  0.40863328  0.40657364  -0.00016782  1
  Pd  Pd167  1  0.59467714  0.79593414  -0.00369768  1
  Pd  Pd168  1  0.60717718  0.59310190  0.78970485  1
  Pd  Pd169  1  0.00669456  0.20147395  0.20622162  1
  Pd  Pd170  1  0.40123867  0.79875483  0.00945016  1
  Pd  Pd171  1  0.59245819  0.79497413  0.21145953  1
  Pd  Pd172  1  -0.00075577  -0.00117687  0.81087726  1
  Pd  Pd173  1  0.20290293  0.20030407  0.00539238  1
  Pd  Pd174  1  0.19262302  -0.00674722  0.38777998  1
  Pd  Pd175  1  0.59200323  0.00829936  -0.00317563  1
  Pd  Pd176  1  0.39241733  0.78620554  0.78850347  1
  Pd  Pd177  1  0.21435376  0.40781459  0.40194151  1
  Pd  Pd178  1  0.21012394  -0.00364324  0.59484671  1
  Pd  Pd179  1  -0.00314440  0.79976487  0.19099563  1
  Pd  Pd180  1  0.79775139  0.19603445  0.00720435  1
  Pd  Pd181  1  0.60757820  0.18926980  0.58835023  1
  Pd  Pd182  1  0.39984402  0.60656612  0.60035081  1
  Pd  Pd183  1  0.80899776  0.20028592  0.19545950  1
  Pd  Pd184  1  0.79148717  -0.00412338  0.79620655  1
  Pd  Pd185  1  0.79425126  0.80593253  0.40281624  1
  Pd  Pd186  1  0.20094616  0.60689501  -0.00459580  1
  Pd  Pd187  1  0.00175576  0.41407554  0.40299976  1
  Pd  Pd188  1  0.40784026  0.18784826  0.01014919  1
  Pd  Pd189  1  0.19047702  0.19402261  0.39133226  1
  Pd  Pd190  1  0.00412197  0.80501943  0.00185125  1
  Pd  Pd191  1  0.38889869  0.20213149  0.80279894  1
  Pd  Pd192  1  0.40391564  0.60089659  0.80754707  1
  Pd  Pd193  1  0.60652706  0.60715503  0.60225494  1
  Pd  Pd194  1  0.80013011  -0.00677436  0.40264114  1
  Pd  Pd195  1  0.60696301  0.60395302  0.19849646  1
  Pd  Pd196  1  -0.00785354  -0.00467648  0.19876222  1
  Pd  Pd197  1  0.80259128  0.19880911  0.79849361  1
  Pd  Pd198  1  0.19139845  0.00013098  0.20469598  1
  Pd  Pd199  1  0.19536995  0.80886746  0.40223543  1
  Rh  Rh200  1  0.78619733  0.40769645  0.79762993  1
  Rh  Rh201  1  0.40474366  0.00778133  0.81023032  1
  Rh  Rh202  1  0.80583776  0.80261468  0.20009829  1
  Rh  Rh203  1  0.19273925  0.61079595  0.59573716  1
  Rh  Rh204  1  0.60040328  0.18930721  0.20137147  1
  Rh  Rh205  1  0.79374801  0.40330155  0.38990358  1
  Rh  Rh206  1  0.20340861  -0.00180386  0.00199288  1
  Rh  Rh207  1  0.40462978  -0.00539922  0.39684955  1
  Rh  Rh208  1  0.39854260  0.60409389  0.19905066  1
  Rh  Rh209  1  0.59397925  0.60857767  0.00795868  1
  Rh  Rh210  1  0.79487426  0.60898756  0.41030826  1
  Rh  Rh211  1  0.39891704  0.39601665  0.20194902  1
  Rh  Rh212  1  0.79646310  0.79710074  0.81240733  1
  Rh  Rh213  1  0.80512159  0.00514763  0.01068782  1
  Rh  Rh214  1  0.60645141  0.00399274  0.60589075  1
  Rh  Rh215  1  0.59649105  0.38892900  -0.00737796  1
  Rh  Rh216  1  0.59953621  0.00276953  0.20394160  1
  Rh  Rh217  1  0.19089623  0.60052398  0.20174551  1
  Rh  Rh218  1  0.79256739  0.80610455  0.58814787  1
  Rh  Rh219  1  0.01390306  0.79304903  0.58953122  1
  Rh  Rh220  1  0.80201631  0.39874650  0.00792451  1
  Rh  Rh221  1  0.00012707  0.80369031  0.40351373  1
  Rh  Rh222  1  0.00030036  0.81006668  0.80994965  1
  Rh  Rh223  1  0.59232154  0.39912345  0.59962694  1
  Rh  Rh224  1  0.39653277  -0.00640428  0.59032946  1
  Rh  Rh225  1  0.80090298  0.79612612  -0.00020774  1
  Rh  Rh226  1  0.19835426  0.59710658  0.81037988  1
  Rh  Rh227  1  0.41613932  0.21076113  0.40192448  1
  Rh  Rh228  1  0.60589815  0.80550419  0.80775900  1
  Rh  Rh229  1  0.59704951  0.00776340  0.39157311  1
  Rh  Rh230  1  0.80986802  0.00139971  0.19974613  1
  Rh  Rh231  1  0.19521676  0.79852745  0.00187169  1
  Rh  Rh232  1  0.00358179  0.19773215  0.39453342  1
  Rh  Rh233  1  -0.00394412  0.20091962  -0.00687684  1
  Rh  Rh234  1  0.80322341  0.60498130  -0.00421601  1
  Rh  Rh235  1  -0.00661723  0.60565819  0.80350479  1
  Rh  Rh236  1  -0.01077249  0.00139588  0.59703716  1
  Rh  Rh237  1  0.20735443  0.59531992  0.39968545  1
  Rh  Rh238  1  -0.00048571  -0.00612335  0.00303522  1
  Rh  Rh239  1  0.58990666  0.79424405  0.59306587  1
  Rh  Rh240  1  0.40411577  0.40392580  0.59509481  1
  Rh  Rh241  1  0.00542326  0.40228150  -0.00246407  1
  Rh  Rh242  1  0.20265512  0.00458406  0.80583117  1
  Rh  Rh243  1  0.78982613  0.19585048  0.40645634  1
  Rh  Rh244  1  0.61015476  0.19925072  0.81637125  1
  Rh  Rh245  1  0.61271368  0.40675405  0.20723489  1
  Rh  Rh246  1  0.19819750  0.80009934  0.20603276  1
  Rh  Rh247  1  0.40177083  -0.01901638  0.19016862  1
  Rh  Rh248  1  0.39352360  0.20261223  0.19363614  1
  Rh  Rh249  1  -0.00492555  -0.00737620  0.39512668  1
