# generated using pymatgen
data_ZrScNbPdRh
_symmetry_space_group_name_H-M   'P 1'
_cell_length_a   16.56179756
_cell_length_b   16.55296355
_cell_length_c   16.56156804
_cell_angle_alpha   89.99382802
_cell_angle_beta   90.01590461
_cell_angle_gamma   90.00926684
_symmetry_Int_Tables_number   1
_chemical_formula_structural   ZrScNbPdRh
_chemical_formula_sum   'Zr50 Sc50 Nb50 Pd50 Rh50'
_cell_volume   4540.30113772
_cell_formula_units_Z   50
loop_
 _symmetry_equiv_pos_site_id
 _symmetry_equiv_pos_as_xyz
  1  'x, y, z'
loop_
 _atom_site_type_symbol
 _atom_site_label
 _atom_site_symmetry_multiplicity
 _atom_site_fract_x
 _atom_site_fract_y
 _atom_site_fract_z
 _atom_site_occupancy
  Zr  Zr0  1  0.70179983  0.30054455  0.69824974  1
  Zr  Zr1  1  0.49771057  0.90261357  0.10669382  1
  Zr  Zr2  1  0.90081775  0.50115933  0.49950631  1
  Zr  Zr3  1  0.51201438  0.10603076  0.09823252  1
  Zr  Zr4  1  0.10531550  0.51234101  0.89670064  1
  Zr  Zr5  1  0.29914096  0.49460846  0.70224976  1
  Zr  Zr6  1  0.69990091  0.91003894  0.09355585  1
  Zr  Zr7  1  0.89668861  0.69984547  0.69793501  1
  Zr  Zr8  1  0.10011155  0.70618784  0.49478162  1
  Zr  Zr9  1  0.69499467  0.30567647  0.30241607  1
  Zr  Zr10  1  0.70042919  0.29962308  0.50123675  1
  Zr  Zr11  1  0.70368228  0.10827657  0.70471707  1
  Zr  Zr12  1  0.90516584  0.08978487  0.29895359  1
  Zr  Zr13  1  0.30215009  0.70045102  0.69614708  1
  Zr  Zr14  1  0.29710685  0.31125821  0.30642447  1
  Zr  Zr15  1  0.49854813  0.90902561  0.30253136  1
  Zr  Zr16  1  0.49672626  0.90242899  0.50270626  1
  Zr  Zr17  1  0.29123343  0.69082216  0.90165083  1
  Zr  Zr18  1  0.09420083  0.70293679  0.29944813  1
  Zr  Zr19  1  0.70560531  0.69766496  0.29802132  1
  Zr  Zr20  1  0.10363052  0.49154902  0.30233682  1
  Zr  Zr21  1  0.69811307  0.69690335  0.10881362  1
  Zr  Zr22  1  0.90049533  0.90546423  0.69779528  1
  Zr  Zr23  1  0.90871869  0.70035331  0.89415545  1
  Zr  Zr24  1  0.29981501  0.49642583  0.29716687  1
  Zr  Zr25  1  0.30225082  0.29077917  0.50049223  1
  Zr  Zr26  1  0.29635756  0.70575916  0.29317524  1
  Zr  Zr27  1  0.29884680  0.09882133  0.69386629  1
  Zr  Zr28  1  0.50221908  0.69589761  0.49975145  1
  Zr  Zr29  1  0.30081683  0.10588665  0.31405045  1
  Zr  Zr30  1  0.29834811  0.70626216  0.50736360  1
  Zr  Zr31  1  0.89990846  0.29950987  0.09469640  1
  Zr  Zr32  1  0.10423468  0.90139815  0.08976902  1
  Zr  Zr33  1  0.10117855  0.49422338  0.70432774  1
  Zr  Zr34  1  0.70369245  0.90903982  0.49748643  1
  Zr  Zr35  1  0.09731391  0.10493873  0.70010371  1
  Zr  Zr36  1  0.70449258  0.69496648  0.70227120  1
  Zr  Zr37  1  0.90255643  0.49761136  0.29599796  1
  Zr  Zr38  1  0.70103207  0.50027200  0.29312944  1
  Zr  Zr39  1  0.29998962  0.89418947  0.10536819  1
  Zr  Zr40  1  0.69859272  0.49238298  0.49410263  1
  Zr  Zr41  1  0.29867826  0.48859645  0.49950622  1
  Zr  Zr42  1  0.08780400  0.29245561  0.69880933  1
  Zr  Zr43  1  0.28655404  0.90100775  0.91075071  1
  Zr  Zr44  1  0.30169658  0.10418536  0.89897913  1
  Zr  Zr45  1  0.09839358  0.70270505  0.90136343  1
  Zr  Zr46  1  0.89102267  0.29840291  0.50370219  1
  Zr  Zr47  1  0.70468431  0.10350229  0.49984285  1
  Zr  Zr48  1  0.89468263  0.49559700  0.10416486  1
  Zr  Zr49  1  0.30276150  0.49592434  0.89997326  1
  Sc  Sc50  1  0.70958268  0.90551126  0.70590065  1
  Sc  Sc51  1  0.50735694  0.49855617  0.50365724  1
  Sc  Sc52  1  0.89706453  0.09894669  0.89080510  1
  Sc  Sc53  1  0.30039822  0.89777936  0.29721157  1
  Sc  Sc54  1  0.89863267  0.90104290  0.89267579  1
  Sc  Sc55  1  0.09484335  0.89367841  0.89689604  1
  Sc  Sc56  1  0.49936343  0.69177275  0.69242046  1
  Sc  Sc57  1  0.49109482  0.09988647  0.49434656  1
  Sc  Sc58  1  0.31707081  0.30276576  0.89770788  1
  Sc  Sc59  1  0.30990734  0.30556010  0.09919469  1
  Sc  Sc60  1  0.09445375  0.49649080  0.50515710  1
  Sc  Sc61  1  0.50515347  0.67524611  0.91092677  1
  Sc  Sc62  1  0.90046961  0.09866502  0.69882647  1
  Sc  Sc63  1  0.89538188  0.50546885  0.70079490  1
  Sc  Sc64  1  0.10024448  0.70142198  0.70318037  1
  Sc  Sc65  1  0.09534326  0.29844801  0.50691791  1
  Sc  Sc66  1  0.30281115  0.69876073  0.10367528  1
  Sc  Sc67  1  0.10026431  0.09692847  0.89561591  1
  Sc  Sc68  1  0.08644538  0.29704344  0.89495159  1
  Sc  Sc69  1  0.08722229  0.29880087  0.09540898  1
  Sc  Sc70  1  0.69354717  0.30465279  0.10088535  1
  Sc  Sc71  1  0.50776394  0.49654469  0.29696966  1
  Sc  Sc72  1  0.50540617  0.30458601  0.09077428  1
  Sc  Sc73  1  0.30172243  0.10219361  0.09569025  1
  Sc  Sc74  1  0.50704218  0.92070181  0.89253209  1
  Sc  Sc75  1  0.48853717  0.90571995  0.69970870  1
  Sc  Sc76  1  0.70134943  0.70132865  0.49624359  1
  Sc  Sc77  1  0.09041991  0.10550705  0.10030241  1
  Sc  Sc78  1  0.09548912  0.50540158  0.10176088  1
  Sc  Sc79  1  0.69904714  0.49374665  0.10069231  1
  Sc  Sc80  1  0.51303740  0.69783558  0.29346018  1
  Sc  Sc81  1  0.30525665  0.50415226  0.10241861  1
  Sc  Sc82  1  0.70379773  0.69294806  0.89537618  1
  Sc  Sc83  1  0.69323125  0.08604616  0.90153920  1
  Sc  Sc84  1  0.69867756  0.49828181  0.89942993  1
  Sc  Sc85  1  0.68853966  0.10257182  0.30502096  1
  Sc  Sc86  1  0.89743488  0.30217375  0.89714962  1
  Sc  Sc87  1  0.70044393  0.89657350  0.30401561  1
  Sc  Sc88  1  0.50298235  0.30414741  0.50515096  1
  Sc  Sc89  1  0.30005644  0.29876256  0.69620365  1
  Sc  Sc90  1  0.29922355  0.89830818  0.69304775  1
  Sc  Sc91  1  0.10375459  0.09696936  0.50401224  1
  Sc  Sc92  1  0.10081199  0.70220106  0.09692180  1
  Sc  Sc93  1  0.90751817  0.70404440  0.11328886  1
  Sc  Sc94  1  0.70739482  0.30682819  0.89997960  1
  Sc  Sc95  1  0.29513339  0.90314722  0.50851110  1
  Sc  Sc96  1  0.09865934  0.90629196  0.70028098  1
  Sc  Sc97  1  0.09654530  0.09604852  0.30275582  1
  Sc  Sc98  1  0.09922219  0.89824248  0.30539407  1
  Sc  Sc99  1  0.89781565  0.49787421  0.89654909  1
  Nb  Nb100  1  0.69963629  0.89799106  0.90364031  1
  Nb  Nb101  1  0.50467185  0.51118934  0.08283250  1
  Nb  Nb102  1  0.29716938  0.10369943  0.50826927  1
  Nb  Nb103  1  0.49760195  0.29940049  0.90190157  1
  Nb  Nb104  1  0.89878133  0.70350387  0.29947598  1
  Nb  Nb105  1  0.69750719  0.49856661  0.70323367  1
  Nb  Nb106  1  0.50090438  0.69826012  0.09618327  1
  Nb  Nb107  1  0.10110113  0.89407200  0.50156265  1
  Nb  Nb108  1  0.49487521  0.10970611  0.89832121  1
  Nb  Nb109  1  0.49729048  0.10184162  0.29751802  1
  Nb  Nb110  1  0.50826514  0.29829542  0.70861656  1
  Nb  Nb111  1  0.70481262  0.10129503  0.09907121  1
  Nb  Nb112  1  0.50445566  0.09596206  0.71450840  1
  Nb  Nb113  1  0.50942799  0.49177321  0.70360715  1
  Nb  Nb114  1  0.49568198  0.48720068  0.90269844  1
  Nb  Nb115  1  0.90139734  0.09857291  0.10072673  1
  Nb  Nb116  1  0.50562171  0.29727968  0.29208598  1
  Nb  Nb117  1  0.89776684  0.89839683  0.29373610  1
  Nb  Nb118  1  0.89527389  0.09541653  0.49751376  1
  Nb  Nb119  1  0.89781165  0.30129126  0.29886208  1
  Nb  Nb120  1  0.89942505  0.90240653  0.09906516  1
  Nb  Nb121  1  0.90275229  0.69979638  0.49833905  1
  Nb  Nb122  1  0.09926686  0.29761380  0.30256781  1
  Nb  Nb123  1  0.89292531  0.28873725  0.70602716  1
  Nb  Nb124  1  0.89402453  0.91119376  0.49592883  1
  Nb  Nb125  1  0.59867716  0.80109694  -0.00533846  1
  Nb  Nb126  1  0.20397288  0.60000086  0.40021522  1
  Nb  Nb127  1  0.59527186  0.79905620  0.80183110  1
  Nb  Nb128  1  0.20095619  0.20745689  0.00063465  1
  Nb  Nb129  1  0.20218069  0.20346303  0.20235646  1
  Nb  Nb130  1  0.80351774  0.00250654  0.19617189  1
  Nb  Nb131  1  0.19864456  0.39766340  -0.00401356  1
  Nb  Nb132  1  0.40172958  0.79502390  0.40018777  1
  Nb  Nb133  1  0.40536818  0.79262923  0.81175060  1
  Nb  Nb134  1  0.80875251  0.60348290  0.39630456  1
  Nb  Nb135  1  0.80125019  0.19631646  0.19841339  1
  Nb  Nb136  1  0.80361421  0.60555920  0.00476719  1
  Nb  Nb137  1  0.40326480  0.20093461  0.20715628  1
  Nb  Nb138  1  0.60308107  0.80654970  0.60594758  1
  Nb  Nb139  1  0.80128265  0.19174887  0.00697533  1
  Nb  Nb140  1  0.40282641  0.00177799  -0.00076826  1
  Nb  Nb141  1  0.40349208  0.59157423  0.79826639  1
  Nb  Nb142  1  -0.00766252  0.80492130  0.58905114  1
  Nb  Nb143  1  0.40941301  0.80128079  -0.00593031  1
  Nb  Nb144  1  0.79850199  0.79975336  0.00218101  1
  Nb  Nb145  1  0.39445389  0.60170613  0.39952068  1
  Nb  Nb146  1  0.19952147  0.00660123  0.19888987  1
  Nb  Nb147  1  -0.00808166  0.20046297  0.40000666  1
  Nb  Nb148  1  0.59833185  0.00456370  0.60516836  1
  Nb  Nb149  1  -0.00722681  0.00009711  0.00296359  1
  Pd  Pd150  1  0.20166066  -0.00280077  0.79528606  1
  Pd  Pd151  1  -0.01132372  0.81022744  0.40253959  1
  Pd  Pd152  1  -0.00851583  0.59872858  0.00501683  1
  Pd  Pd153  1  0.40963847  0.60162462  0.20509556  1
  Pd  Pd154  1  0.60669894  0.20385075  0.81225999  1
  Pd  Pd155  1  0.20408960  0.80297676  0.79513465  1
  Pd  Pd156  1  0.80220660  0.40384152  0.60775206  1
  Pd  Pd157  1  -0.00033789  0.20341397  0.20755441  1
  Pd  Pd158  1  0.00367787  -0.00085576  0.40678741  1
  Pd  Pd159  1  -0.00917553  0.40264051  0.79676849  1
  Pd  Pd160  1  0.38850606  -0.00651236  0.40523116  1
  Pd  Pd161  1  -0.00047825  0.39016366  0.40291156  1
  Pd  Pd162  1  0.39898482  0.20454401  0.79008975  1
  Pd  Pd163  1  0.19323120  0.39105478  0.18527804  1
  Pd  Pd164  1  0.00498363  0.39717436  0.19885131  1
  Pd  Pd165  1  0.40117809  0.58717724  0.59969224  1
  Pd  Pd166  1  0.20339930  -0.00525943  0.39977278  1
  Pd  Pd167  1  0.40762289  0.39656165  0.60610526  1
  Pd  Pd168  1  0.40873313  0.20958189  0.39708710  1
  Pd  Pd169  1  0.79271941  0.59605136  0.59106591  1
  Pd  Pd170  1  0.59473108  0.59890680  0.79934681  1
  Pd  Pd171  1  0.00342136  -0.00088977  0.59358987  1
  Pd  Pd172  1  0.00187805  0.59732988  0.39515737  1
  Pd  Pd173  1  0.41142871  0.19772466  0.60906002  1
  Pd  Pd174  1  0.80337546  0.19508777  0.38942847  1
  Pd  Pd175  1  0.00597572  0.80677623  0.19760323  1
  Pd  Pd176  1  0.38784261  -0.00692342  0.80517141  1
  Pd  Pd177  1  0.00585508  0.60594604  0.60506836  1
  Pd  Pd178  1  0.59144933  0.20155504  0.40471884  1
  Pd  Pd179  1  0.79987898  0.80337318  0.59483197  1
  Pd  Pd180  1  0.60281583  0.39537088  0.80715396  1
  Pd  Pd181  1  0.79669110  0.80114543  0.80602741  1
  Pd  Pd182  1  0.00446249  0.40880255  -0.00836524  1
  Pd  Pd183  1  -0.01290592  0.39667395  0.60958901  1
  Pd  Pd184  1  0.39139688  0.01269782  0.19719816  1
  Pd  Pd185  1  0.59038815  0.19299718  0.59933633  1
  Pd  Pd186  1  0.19848239  0.38661465  0.80776761  1
  Pd  Pd187  1  0.41251827  0.40413450  0.40016439  1
  Pd  Pd188  1  0.19670365  0.39004874  0.59962841  1
  Pd  Pd189  1  0.60063496  0.80535139  0.19710782  1
  Pd  Pd190  1  0.20205721  0.20855127  0.80664651  1
  Pd  Pd191  1  0.41241155  0.39881841  0.19198752  1
  Pd  Pd192  1  0.60885766  0.60074220  0.59919792  1
  Pd  Pd193  1  0.80587141  0.79833622  0.40202782  1
  Pd  Pd194  1  0.19347403  0.60087049  0.20093997  1
  Pd  Pd195  1  0.60880244  0.00156729  0.20595359  1
  Pd  Pd196  1  0.19364274  0.59766460  0.59695308  1
  Pd  Pd197  1  0.61183556  0.20436380  -0.01003724  1
  Pd  Pd198  1  0.18902548  0.20195064  0.40278129  1
  Pd  Pd199  1  0.59639964  0.80173013  0.40553100  1
  Rh  Rh200  1  0.20939394  0.79955676  0.40014424  1
  Rh  Rh201  1  0.19000336  0.80824757  0.19798285  1
  Rh  Rh202  1  0.59582685  0.39637127  0.39918026  1
  Rh  Rh203  1  0.79986989  0.40204644  0.00168997  1
  Rh  Rh204  1  0.79734816  0.38872331  0.19986858  1
  Rh  Rh205  1  0.40339544  0.01137841  0.60137579  1
  Rh  Rh206  1  0.79965427  0.80987770  0.19595034  1
  Rh  Rh207  1  0.19131059  0.39915344  0.41075690  1
  Rh  Rh208  1  0.60291900  0.39831160  0.60416906  1
  Rh  Rh209  1  0.60658683  -0.00373310  0.79183633  1
  Rh  Rh210  1  0.79796709  0.00150984  0.80075529  1
  Rh  Rh211  1  0.00135038  0.59846939  0.79401178  1
  Rh  Rh212  1  0.40886303  0.39869000  0.79135660  1
  Rh  Rh213  1  0.80046708  0.40191135  0.79177887  1
  Rh  Rh214  1  -0.00798495  0.80672150  -0.00120068  1
  Rh  Rh215  1  0.61523215  0.60030020  0.00273824  1
  Rh  Rh216  1  0.00148365  -0.00082463  0.80698179  1
  Rh  Rh217  1  0.41011474  0.80089811  0.59957810  1
  Rh  Rh218  1  0.20544552  0.78852229  0.00336051  1
  Rh  Rh219  1  0.80707951  0.60117441  0.20063095  1
  Rh  Rh220  1  -0.00142741  0.80238723  0.78672572  1
  Rh  Rh221  1  0.19735810  0.20111112  0.60028922  1
  Rh  Rh222  1  -0.00362729  0.18928066  -0.01233313  1
  Rh  Rh223  1  0.20180962  0.59365714  0.00946574  1
  Rh  Rh224  1  -0.00678984  0.19643913  0.79941945  1
  Rh  Rh225  1  0.79694162  0.00087781  0.38716396  1
  Rh  Rh226  1  0.60554499  0.59621371  0.39658987  1
  Rh  Rh227  1  0.39316862  0.60087811  -0.00315740  1
  Rh  Rh228  1  0.59563297  0.59273125  0.19392848  1
  Rh  Rh229  1  0.80237101  0.40668998  0.39575450  1
  Rh  Rh230  1  0.18700907  0.80480357  0.60661013  1
  Rh  Rh231  1  0.80795551  -0.00049927  -0.00015869  1
  Rh  Rh232  1  0.79600084  0.19894820  0.81077458  1
  Rh  Rh233  1  0.79547469  0.00822061  0.60325221  1
  Rh  Rh234  1  0.39970496  0.19509973  0.00587723  1
  Rh  Rh235  1  0.60116290  0.20174419  0.20011102  1
  Rh  Rh236  1  0.59861511  0.40031424  -0.00475515  1
  Rh  Rh237  1  0.59909740  0.00551585  0.40466590  1
  Rh  Rh238  1  0.59158475  0.00172839  -0.00057411  1
  Rh  Rh239  1  0.80009425  0.59292789  0.80686661  1
  Rh  Rh240  1  -0.01029999  0.19401922  0.59324480  1
  Rh  Rh241  1  0.41104266  0.79190312  0.20428024  1
  Rh  Rh242  1  0.19370985  0.01663548  0.00774366  1
  Rh  Rh243  1  0.39970617  0.40304672  0.00554887  1
  Rh  Rh244  1  0.80502266  0.19604658  0.60258561  1
  Rh  Rh245  1  0.00274875  0.60061961  0.20401000  1
  Rh  Rh246  1  0.00388170  -0.01065422  0.19303789  1
  Rh  Rh247  1  0.20378142  0.60124032  0.78997730  1
  Rh  Rh248  1  0.59393679  0.40548240  0.19152380  1
  Rh  Rh249  1  0.19678836  0.00115759  0.59993095  1
