# generated using pymatgen
data_ZrScNbPdRh
_symmetry_space_group_name_H-M   'P 1'
_cell_length_a   16.55356524
_cell_length_b   16.55566290
_cell_length_c   16.55315641
_cell_angle_alpha   89.97433515
_cell_angle_beta   89.98788278
_cell_angle_gamma   89.96678785
_symmetry_Int_Tables_number   1
_chemical_formula_structural   ZrScNbPdRh
_chemical_formula_sum   'Zr50 Sc50 Nb50 Pd50 Rh50'
_cell_volume   4536.47803122
_cell_formula_units_Z   50
loop_
 _symmetry_equiv_pos_site_id
 _symmetry_equiv_pos_as_xyz
  1  'x, y, z'
loop_
 _atom_site_type_symbol
 _atom_site_label
 _atom_site_symmetry_multiplicity
 _atom_site_fract_x
 _atom_site_fract_y
 _atom_site_fract_z
 _atom_site_occupancy
  Zr  Zr0  1  0.49903281  0.90417886  0.10175992  1
  Zr  Zr1  1  0.49541225  0.29713450  0.10226210  1
  Zr  Zr2  1  0.89999830  0.49955411  0.70842649  1
  Zr  Zr3  1  0.89966377  0.30413455  0.90183501  1
  Zr  Zr4  1  0.10636245  0.70786236  0.10441620  1
  Zr  Zr5  1  0.50104021  0.50273124  0.89814010  1
  Zr  Zr6  1  0.69128638  0.89174946  0.49721059  1
  Zr  Zr7  1  0.70466556  0.09192033  0.10017572  1
  Zr  Zr8  1  0.70193494  0.50273140  0.90695508  1
  Zr  Zr9  1  0.69528099  0.89104316  0.09461472  1
  Zr  Zr10  1  0.29596527  0.29781008  0.30033710  1
  Zr  Zr11  1  0.49212962  0.09867134  0.50345863  1
  Zr  Zr12  1  0.10557714  0.69822994  0.30062027  1
  Zr  Zr13  1  0.10466101  0.30017543  0.89656810  1
  Zr  Zr14  1  0.69875483  0.89439516  0.89821621  1
  Zr  Zr15  1  0.50278522  0.89737088  0.89624216  1
  Zr  Zr16  1  0.69458419  0.09937259  0.70183925  1
  Zr  Zr17  1  0.50722431  0.49307813  0.08305272  1
  Zr  Zr18  1  0.29149290  0.29961907  0.89607008  1
  Zr  Zr19  1  0.30767280  0.09913094  0.09944084  1
  Zr  Zr20  1  0.89693172  0.30068065  0.50169313  1
  Zr  Zr21  1  0.09991387  0.49245279  0.10199903  1
  Zr  Zr22  1  0.28825222  0.29596581  0.69686673  1
  Zr  Zr23  1  0.70345882  0.49730869  0.29892237  1
  Zr  Zr24  1  0.49534644  0.09407334  0.90301637  1
  Zr  Zr25  1  0.28929200  0.89714527  0.10076226  1
  Zr  Zr26  1  0.30222779  0.90392639  0.30114228  1
  Zr  Zr27  1  0.70154675  0.50393968  0.69942630  1
  Zr  Zr28  1  0.29826436  0.69908132  0.10588872  1
  Zr  Zr29  1  0.90658091  0.50393136  0.50261678  1
  Zr  Zr30  1  0.89909197  0.49719151  0.90620252  1
  Zr  Zr31  1  0.69139657  0.89081758  0.70339911  1
  Zr  Zr32  1  0.09451109  0.29734465  0.70227060  1
  Zr  Zr33  1  0.50404660  0.10577102  0.10212350  1
  Zr  Zr34  1  0.29806065  0.29322007  0.49729862  1
  Zr  Zr35  1  0.09368810  0.90470291  0.50019016  1
  Zr  Zr36  1  0.70672566  0.70053291  0.09406827  1
  Zr  Zr37  1  0.29573754  0.10176463  0.89613753  1
  Zr  Zr38  1  0.49650352  0.29760407  0.49730655  1
  Zr  Zr39  1  0.29973504  0.09679410  0.69207012  1
  Zr  Zr40  1  0.70222521  0.70612442  0.50951853  1
  Zr  Zr41  1  0.30717128  0.50244390  0.89986022  1
  Zr  Zr42  1  0.89732858  0.30597975  0.70244484  1
  Zr  Zr43  1  0.90177874  0.69706956  0.10132283  1
  Zr  Zr44  1  0.69729385  0.09596438  0.50209697  1
  Zr  Zr45  1  0.49482589  0.90009418  0.30715279  1
  Zr  Zr46  1  0.30679932  0.90875917  0.49783094  1
  Zr  Zr47  1  0.30526635  0.90116645  0.70141280  1
  Zr  Zr48  1  0.49954574  0.70563197  0.49615124  1
  Zr  Zr49  1  0.09391414  0.90069902  0.10675789  1
  Sc  Sc50  1  0.10004740  0.10349281  0.90423749  1
  Sc  Sc51  1  0.10733749  0.30207393  0.49722658  1
  Sc  Sc52  1  0.50206097  0.29179082  0.29051541  1
  Sc  Sc53  1  0.68708095  0.30077658  0.10453096  1
  Sc  Sc54  1  0.50042549  0.30642697  0.91418935  1
  Sc  Sc55  1  0.09440579  0.69833710  0.70598605  1
  Sc  Sc56  1  0.29553134  0.69787614  0.48817386  1
  Sc  Sc57  1  0.10783215  0.49953796  0.49121666  1
  Sc  Sc58  1  0.50347201  0.50990032  0.70029971  1
  Sc  Sc59  1  0.10450509  0.30879472  0.29319400  1
  Sc  Sc60  1  0.10391933  0.90509465  0.90577925  1
  Sc  Sc61  1  0.48791977  0.69734975  0.29972820  1
  Sc  Sc62  1  0.70499395  0.10291889  0.29328314  1
  Sc  Sc63  1  0.90170197  0.69915791  0.30463924  1
  Sc  Sc64  1  0.91085528  0.09513897  0.50291559  1
  Sc  Sc65  1  0.89815277  0.10489895  0.91327519  1
  Sc  Sc66  1  0.29790008  0.09979154  0.30491578  1
  Sc  Sc67  1  0.70158819  0.09824101  0.90302851  1
  Sc  Sc68  1  0.10095914  0.29969137  0.10182284  1
  Sc  Sc69  1  0.10245946  0.90825594  0.29755021  1
  Sc  Sc70  1  0.09286168  0.09933251  0.10203985  1
  Sc  Sc71  1  0.90418506  0.11525476  0.69199368  1
  Sc  Sc72  1  0.71142847  0.70331652  0.30031762  1
  Sc  Sc73  1  0.28390143  0.50287266  0.70261919  1
  Sc  Sc74  1  0.90284267  0.89285759  0.50572711  1
  Sc  Sc75  1  0.70021839  0.50751293  0.50580367  1
  Sc  Sc76  1  0.49853313  0.70511945  0.70654945  1
  Sc  Sc77  1  0.50041566  0.50820120  0.30127141  1
  Sc  Sc78  1  0.90645448  0.69388607  0.89053368  1
  Sc  Sc79  1  0.49775197  0.90259020  0.70040740  1
  Sc  Sc80  1  0.69768684  0.89595976  0.29657543  1
  Sc  Sc81  1  0.90666526  0.89593879  0.90098908  1
  Sc  Sc82  1  0.49206642  0.10057238  0.29420408  1
  Sc  Sc83  1  0.90967142  0.88163892  0.69577918  1
  Sc  Sc84  1  0.90415364  0.49728833  0.31237243  1
  Sc  Sc85  1  0.71136321  0.30207037  0.89967816  1
  Sc  Sc86  1  0.10563721  0.69020346  0.49833421  1
  Sc  Sc87  1  0.50468919  0.30126012  0.68323475  1
  Sc  Sc88  1  0.89516896  0.10000192  0.29053818  1
  Sc  Sc89  1  0.30081164  0.91255876  0.90163978  1
  Sc  Sc90  1  0.28962387  0.29911905  0.09860049  1
  Sc  Sc91  1  0.50700282  0.50961821  0.49813462  1
  Sc  Sc92  1  0.90129657  0.90459359  0.10154585  1
  Sc  Sc93  1  0.29793882  0.51131814  0.29792017  1
  Sc  Sc94  1  0.50416722  0.70015096  0.09378825  1
  Sc  Sc95  1  0.90840051  0.90098776  0.29871289  1
  Sc  Sc96  1  0.10025904  0.09528705  0.50472687  1
  Sc  Sc97  1  0.09438292  0.89759907  0.69689735  1
  Sc  Sc98  1  0.89601829  0.70375515  0.50253684  1
  Sc  Sc99  1  0.49794687  0.68830400  0.89772590  1
  Nb  Nb100  1  0.29878699  0.50012384  0.49928333  1
  Nb  Nb101  1  0.70587379  0.70136446  0.70397511  1
  Nb  Nb102  1  0.09010608  0.09389784  0.30883651  1
  Nb  Nb103  1  0.90125436  0.10233176  0.10010043  1
  Nb  Nb104  1  0.29979166  0.70223291  0.30008077  1
  Nb  Nb105  1  0.70816415  0.50065509  0.09776773  1
  Nb  Nb106  1  0.50105996  0.89774435  0.49530652  1
  Nb  Nb107  1  0.69993895  0.30322558  0.69336889  1
  Nb  Nb108  1  0.30194500  0.10462575  0.50122936  1
  Nb  Nb109  1  0.29820108  0.69901354  0.70004481  1
  Nb  Nb110  1  0.89411117  0.49773022  0.09499630  1
  Nb  Nb111  1  0.90154007  0.69787295  0.69498685  1
  Nb  Nb112  1  0.90382202  0.30040610  0.10414994  1
  Nb  Nb113  1  0.30473124  0.49821775  0.09559785  1
  Nb  Nb114  1  0.09620261  0.49919331  0.70292083  1
  Nb  Nb115  1  0.69359324  0.70344199  0.89661099  1
  Nb  Nb116  1  0.49762772  0.10063329  0.70391162  1
  Nb  Nb117  1  0.09751418  0.50248956  0.30153915  1
  Nb  Nb118  1  0.09446147  0.10221890  0.69669210  1
  Nb  Nb119  1  0.89212249  0.29666524  0.30152107  1
  Nb  Nb120  1  0.10151864  0.70028280  0.90261734  1
  Nb  Nb121  1  0.09709623  0.50466701  0.89232844  1
  Nb  Nb122  1  0.69543486  0.30168981  0.50420940  1
  Nb  Nb123  1  0.70651265  0.29860340  0.30664644  1
  Nb  Nb124  1  0.30100424  0.69710392  0.90017855  1
  Nb  Nb125  1  0.00044238  0.59553000  0.60632968  1
  Nb  Nb126  1  0.00760739  0.79503457  0.00230761  1
  Nb  Nb127  1  0.60957283  0.59550172  0.19259604  1
  Nb  Nb128  1  0.40272457  0.39569259  0.79206358  1
  Nb  Nb129  1  0.79768191  -0.00599508  0.60449414  1
  Nb  Nb130  1  0.59567078  0.20543211  0.79656582  1
  Nb  Nb131  1  0.60617101  0.20396311  0.40137533  1
  Nb  Nb132  1  0.40088679  0.40125463  0.39919974  1
  Nb  Nb133  1  0.20461911  0.79608409  0.80188385  1
  Nb  Nb134  1  0.00631228  0.79943486  0.40066080  1
  Nb  Nb135  1  0.40595694  0.20451869  0.79566363  1
  Nb  Nb136  1  0.80660430  -0.00246720  0.79233001  1
  Nb  Nb137  1  0.80505554  0.39658081  0.19994465  1
  Nb  Nb138  1  0.00099770  0.59184281  0.19937037  1
  Nb  Nb139  1  0.79827743  -0.00363360  0.40697612  1
  Nb  Nb140  1  0.38928392  0.60121685  0.59929511  1
  Nb  Nb141  1  -0.00309089  0.20305908  0.39236697  1
  Nb  Nb142  1  0.60084932  0.39490233  0.79554182  1
  Nb  Nb143  1  0.60268185  0.39292334  0.40026190  1
  Nb  Nb144  1  0.19944341  0.59924523  -0.00245426  1
  Nb  Nb145  1  -0.00445538  0.00545294  0.79672228  1
  Nb  Nb146  1  0.39735937  0.40445350  0.19767638  1
  Nb  Nb147  1  0.39395365  0.79910601  -0.00222817  1
  Nb  Nb148  1  0.20572368  0.79684035  0.60435944  1
  Nb  Nb149  1  0.39470260  0.40784554  0.59663126  1
  Pd  Pd150  1  0.80670995  0.80119212  0.80099295  1
  Pd  Pd151  1  0.19644092  0.59312914  0.19709584  1
  Pd  Pd152  1  0.60772893  0.60529450  0.39041943  1
  Pd  Pd153  1  0.60006927  0.00150578  0.20657501  1
  Pd  Pd154  1  0.41209495  0.59332664  0.18925329  1
  Pd  Pd155  1  0.59515061  -0.00699817  0.60194787  1
  Pd  Pd156  1  0.59959967  0.79015469  0.38796206  1
  Pd  Pd157  1  0.19787112  -0.00441340  0.59979992  1
  Pd  Pd158  1  0.80395535  0.18926932  0.40854174  1
  Pd  Pd159  1  0.79942860  0.19592496  0.59535250  1
  Pd  Pd160  1  0.59775029  0.40495734  0.20721563  1
  Pd  Pd161  1  0.60206057  0.00943067  0.38956346  1
  Pd  Pd162  1  0.80553357  -0.00721119  -0.00606109  1
  Pd  Pd163  1  0.80714202  0.59142930  0.20425954  1
  Pd  Pd164  1  0.59954165  0.19620796  0.59887272  1
  Pd  Pd165  1  0.79470831  0.20728027  0.01022709  1
  Pd  Pd166  1  0.79798181  0.60405940  0.80501547  1
  Pd  Pd167  1  0.80717793  0.80678553  0.20277142  1
  Pd  Pd168  1  0.00415328  0.39063641  0.39836188  1
  Pd  Pd169  1  0.40122116  0.80111883  0.19488384  1
  Pd  Pd170  1  0.18780365  0.19165318  0.39946414  1
  Pd  Pd171  1  0.59558350  0.78810174  0.20590574  1
  Pd  Pd172  1  0.00372629  0.20464418  0.00206972  1
  Pd  Pd173  1  0.79562966  0.40500907  0.40515764  1
  Pd  Pd174  1  0.79791219  0.60238582  0.40601398  1
  Pd  Pd175  1  0.19734421  0.80711134  0.40339537  1
  Pd  Pd176  1  0.79628606  0.19511772  0.79888712  1
  Pd  Pd177  1  0.19406300  0.19082437  0.20152071  1
  Pd  Pd178  1  0.19740404  0.60394857  0.80322261  1
  Pd  Pd179  1  0.00425298  0.19850353  0.20683020  1
  Pd  Pd180  1  0.19403032  0.00711858  0.00577545  1
  Pd  Pd181  1  0.19821194  0.00927547  0.20236133  1
  Pd  Pd182  1  0.19797289  0.40254974  0.59872049  1
  Pd  Pd183  1  0.39609695  0.79446197  0.59393548  1
  Pd  Pd184  1  0.59445670  0.61148389  0.60694812  1
  Pd  Pd185  1  0.60701352  0.20225537  -0.00738661  1
  Pd  Pd186  1  -0.00409218  0.19452251  0.80748732  1
  Pd  Pd187  1  0.18803487  -0.00174216  0.79414422  1
  Pd  Pd188  1  0.39321574  0.20498159  -0.00575056  1
  Pd  Pd189  1  0.79551122  0.20681576  0.18939951  1
  Pd  Pd190  1  0.79869968  0.40557784  0.59714622  1
  Pd  Pd191  1  0.80219955  -0.00999645  0.20373960  1
  Pd  Pd192  1  0.19888215  0.40635448  -0.00377827  1
  Pd  Pd193  1  0.81282115  0.79444763  -0.00780687  1
  Pd  Pd194  1  0.00586207  0.60269599  0.00563109  1
  Pd  Pd195  1  -0.00835651  0.40314868  0.20472847  1
  Pd  Pd196  1  0.00832195  0.40424300  0.59623266  1
  Pd  Pd197  1  0.60081209  -0.00050067  -0.00239808  1
  Pd  Pd198  1  0.39592224  0.79978740  0.80873934  1
  Pd  Pd199  1  0.00434832  0.39668427  -0.00259639  1
  Rh  Rh200  1  0.59731438  0.40871155  0.59835015  1
  Rh  Rh201  1  0.39858472  -0.00019620  0.19831555  1
  Rh  Rh202  1  0.60684546  0.59955932  0.79975003  1
  Rh  Rh203  1  0.59249751  0.79694352  0.60529107  1
  Rh  Rh204  1  0.40075903  0.00615085  0.79785066  1
  Rh  Rh205  1  0.79303490  0.40021826  0.79686762  1
  Rh  Rh206  1  0.00739856  0.20959954  0.58871996  1
  Rh  Rh207  1  0.19650287  0.60377419  0.60239249  1
  Rh  Rh208  1  0.20381158  0.80546522  0.21413113  1
  Rh  Rh209  1  0.39969482  -0.00675391  0.00515739  1
  Rh  Rh210  1  0.40448316  0.19978877  0.39468043  1
  Rh  Rh211  1  0.40052252  0.00702255  0.40163235  1
  Rh  Rh212  1  0.59050966  0.79455798  -0.00735654  1
  Rh  Rh213  1  0.39592243  0.79898719  0.40030877  1
  Rh  Rh214  1  0.39506420  0.20417709  0.60646197  1
  Rh  Rh215  1  0.60931308  0.60492640  0.00199975  1
  Rh  Rh216  1  0.19160005  0.19482049  0.59815842  1
  Rh  Rh217  1  0.01320454  0.78341875  0.58968196  1
  Rh  Rh218  1  0.00166922  0.60687758  0.40160801  1
  Rh  Rh219  1  0.39624756  0.59245732  0.78891820  1
  Rh  Rh220  1  0.20399551  0.59578925  0.39406561  1
  Rh  Rh221  1  0.39317888  0.60914924  0.00713402  1
  Rh  Rh222  1  0.79548768  0.80304995  0.60657867  1
  Rh  Rh223  1  -0.00856839  -0.00041680  0.39786101  1
  Rh  Rh224  1  0.20352156  0.00520539  0.40420435  1
  Rh  Rh225  1  0.80927974  0.81003650  0.39808496  1
  Rh  Rh226  1  0.40646928  -0.00188176  0.59842224  1
  Rh  Rh227  1  0.60369280  0.00727424  0.80489158  1
  Rh  Rh228  1  0.20661951  0.40736342  0.39208409  1
  Rh  Rh229  1  0.39491102  0.59836372  0.40771940  1
  Rh  Rh230  1  -0.00942624  0.00080569  0.61372740  1
  Rh  Rh231  1  0.80104913  0.60731717  -0.00857598  1
  Rh  Rh232  1  0.00275393  0.39974235  0.80631784  1
  Rh  Rh233  1  0.01255689  0.80733486  0.81126576  1
  Rh  Rh234  1  0.19912052  0.18966090  0.79315098  1
  Rh  Rh235  1  0.19555951  0.19495890  0.00658252  1
  Rh  Rh236  1  0.39084636  0.39138040  0.00155979  1
  Rh  Rh237  1  0.60618330  0.19357560  0.20511603  1
  Rh  Rh238  1  0.61166061  0.39577470  -0.00757264  1
  Rh  Rh239  1  0.80779717  0.60227026  0.60180212  1
  Rh  Rh240  1  -0.00522925  0.00815220  0.19803608  1
  Rh  Rh241  1  -0.00239454  0.79172757  0.20299580  1
  Rh  Rh242  1  0.20881868  0.40744668  0.20404876  1
  Rh  Rh243  1  0.59533642  0.79152997  0.80144799  1
  Rh  Rh244  1  0.20306563  0.79624324  -0.01078528  1
  Rh  Rh245  1  0.19722271  0.40562429  0.80216664  1
  Rh  Rh246  1  0.79870928  0.38991396  0.01296162  1
  Rh  Rh247  1  0.00064929  0.59818988  0.79607930  1
  Rh  Rh248  1  0.39131059  0.20552988  0.20030683  1
  Rh  Rh249  1  -0.00257327  -0.00420437  -0.00151848  1
