# generated using pymatgen
data_ZrScNbPdRh
_symmetry_space_group_name_H-M   'P 1'
_cell_length_a   16.55324197
_cell_length_b   16.55414918
_cell_length_c   16.55219448
_cell_angle_alpha   89.99087251
_cell_angle_beta   90.03055496
_cell_angle_gamma   89.98378443
_symmetry_Int_Tables_number   1
_chemical_formula_structural   ZrScNbPdRh
_chemical_formula_sum   'Zr50 Sc50 Nb50 Pd50 Rh50'
_cell_volume   4535.71151145
_cell_formula_units_Z   50
loop_
 _symmetry_equiv_pos_site_id
 _symmetry_equiv_pos_as_xyz
  1  'x, y, z'
loop_
 _atom_site_type_symbol
 _atom_site_label
 _atom_site_symmetry_multiplicity
 _atom_site_fract_x
 _atom_site_fract_y
 _atom_site_fract_z
 _atom_site_occupancy
  Zr  Zr0  1  0.70254651  0.49765993  0.10436684  1
  Zr  Zr1  1  0.10265351  0.30285055  0.09573039  1
  Zr  Zr2  1  0.29445630  0.30987917  0.90223473  1
  Zr  Zr3  1  0.49505667  0.30250199  0.69969735  1
  Zr  Zr4  1  0.49443622  0.30331684  0.30355286  1
  Zr  Zr5  1  0.49747323  0.10477875  0.49943583  1
  Zr  Zr6  1  0.89562750  0.30070711  0.30402628  1
  Zr  Zr7  1  0.90265550  0.09957537  0.09473131  1
  Zr  Zr8  1  0.10532168  0.09866885  0.10490551  1
  Zr  Zr9  1  0.49610173  0.49592137  0.49378596  1
  Zr  Zr10  1  0.10477065  0.69843668  0.29979097  1
  Zr  Zr11  1  0.69862175  0.90648976  0.49646877  1
  Zr  Zr12  1  0.89008574  0.09893161  0.89546042  1
  Zr  Zr13  1  0.10333980  0.49988498  0.30372789  1
  Zr  Zr14  1  0.89307209  0.51137430  0.89517378  1
  Zr  Zr15  1  0.49932401  0.89077339  0.71129833  1
  Zr  Zr16  1  0.49745815  0.30280427  0.49945278  1
  Zr  Zr17  1  0.69633805  0.89954356  0.30306918  1
  Zr  Zr18  1  0.49911757  0.69768609  0.31050238  1
  Zr  Zr19  1  0.48920051  0.89052354  0.29752406  1
  Zr  Zr20  1  0.11389347  0.69163972  0.69564884  1
  Zr  Zr21  1  0.09928360  0.30903964  0.90192366  1
  Zr  Zr22  1  0.89747348  0.30710174  0.49135256  1
  Zr  Zr23  1  0.30426026  0.70448410  0.30675795  1
  Zr  Zr24  1  0.49593961  0.09330800  0.10024522  1
  Zr  Zr25  1  0.30043889  0.29434367  0.50968023  1
  Zr  Zr26  1  0.69802936  0.10382127  0.30686062  1
  Zr  Zr27  1  0.29050371  0.69942964  0.50090989  1
  Zr  Zr28  1  0.50261628  0.89960400  0.49908010  1
  Zr  Zr29  1  0.90388850  0.90290300  0.69958960  1
  Zr  Zr30  1  0.90168110  0.70340085  0.50391997  1
  Zr  Zr31  1  0.28655037  0.89630917  0.49991142  1
  Zr  Zr32  1  0.30424970  0.90961894  0.10468951  1
  Zr  Zr33  1  0.69407655  0.70036628  0.29981106  1
  Zr  Zr34  1  0.50815494  0.90237603  0.90226620  1
  Zr  Zr35  1  0.49941182  0.30107801  0.89687969  1
  Zr  Zr36  1  0.29322522  0.10300867  0.50080022  1
  Zr  Zr37  1  0.10661102  0.31115034  0.69895153  1
  Zr  Zr38  1  0.10597357  0.89712740  0.09674132  1
  Zr  Zr39  1  0.49751066  0.50074830  0.30430713  1
  Zr  Zr40  1  0.70501209  0.69526173  0.89802663  1
  Zr  Zr41  1  0.49501869  0.49073801  0.69860585  1
  Zr  Zr42  1  0.10551642  0.70475695  0.49184412  1
  Zr  Zr43  1  0.29677126  0.10172061  0.69579629  1
  Zr  Zr44  1  0.70154274  0.29247612  0.89118966  1
  Zr  Zr45  1  0.90767572  0.90323169  0.09807310  1
  Zr  Zr46  1  0.91229781  0.70230127  0.30347769  1
  Zr  Zr47  1  0.49691602  0.50200437  0.09852891  1
  Zr  Zr48  1  0.29974363  0.49645257  0.10104545  1
  Zr  Zr49  1  0.29656730  0.10416916  0.29053102  1
  Sc  Sc50  1  0.90980646  0.90916230  0.89752383  1
  Sc  Sc51  1  0.51367988  0.09713606  0.90224922  1
  Sc  Sc52  1  0.91399355  0.10359444  0.49490933  1
  Sc  Sc53  1  0.49489436  0.09192262  0.69650510  1
  Sc  Sc54  1  0.70610684  0.30125897  0.09739831  1
  Sc  Sc55  1  0.90409905  0.09948390  0.70348432  1
  Sc  Sc56  1  0.90942452  0.69794873  0.09703815  1
  Sc  Sc57  1  0.29485696  0.70083422  0.09746861  1
  Sc  Sc58  1  0.10150816  0.90737244  0.70508853  1
  Sc  Sc59  1  0.90178211  0.10111350  0.29269088  1
  Sc  Sc60  1  0.29701114  0.69381095  0.90750664  1
  Sc  Sc61  1  0.49774291  0.70799720  0.89768490  1
  Sc  Sc62  1  0.09400263  0.69999879  0.90463784  1
  Sc  Sc63  1  0.10119048  0.29170695  0.50073769  1
  Sc  Sc64  1  0.09774679  0.89877240  0.29748692  1
  Sc  Sc65  1  0.49826227  0.11406859  0.30009807  1
  Sc  Sc66  1  0.70049376  0.48910339  0.50114540  1
  Sc  Sc67  1  0.69410551  0.49831475  0.30613420  1
  Sc  Sc68  1  0.50283856  0.29305407  0.10139619  1
  Sc  Sc69  1  0.29707872  0.89419000  0.29125332  1
  Sc  Sc70  1  0.70974515  0.10392247  0.71771097  1
  Sc  Sc71  1  0.50214423  0.70184634  0.10156135  1
  Sc  Sc72  1  0.29521352  0.49664486  0.49559839  1
  Sc  Sc73  1  0.70292419  0.29636942  0.30349699  1
  Sc  Sc74  1  0.90336153  0.90180486  0.49636431  1
  Sc  Sc75  1  0.09961950  0.10026201  0.30185427  1
  Sc  Sc76  1  0.30038870  0.50083489  0.90579138  1
  Sc  Sc77  1  0.29804188  0.48895856  0.30038100  1
  Sc  Sc78  1  0.10240770  0.69965724  0.09861886  1
  Sc  Sc79  1  0.70169320  0.70933892  0.51069685  1
  Sc  Sc80  1  0.90152005  0.90487943  0.29194434  1
  Sc  Sc81  1  0.69585594  0.89369103  0.69363897  1
  Sc  Sc82  1  0.69785488  0.69949792  0.10489236  1
  Sc  Sc83  1  0.10145311  0.50222335  0.89175155  1
  Sc  Sc84  1  0.09974720  0.30432316  0.29869880  1
  Sc  Sc85  1  0.90030124  0.30789507  0.69645095  1
  Sc  Sc86  1  0.71319837  0.49064413  0.70167687  1
  Sc  Sc87  1  0.69890850  0.89442529  0.10208143  1
  Sc  Sc88  1  0.28533741  0.49570506  0.70022614  1
  Sc  Sc89  1  0.09825922  0.09261633  0.90374080  1
  Sc  Sc90  1  0.49089839  0.49020172  0.90208758  1
  Sc  Sc91  1  0.09790859  0.89768510  0.90080748  1
  Sc  Sc92  1  0.89654225  0.49153494  0.09827617  1
  Sc  Sc93  1  0.89785299  0.69459995  0.69560826  1
  Sc  Sc94  1  0.30216611  0.90783982  0.70636770  1
  Sc  Sc95  1  0.09761375  0.09486534  0.69360124  1
  Sc  Sc96  1  0.89744646  0.30454848  0.90983884  1
  Sc  Sc97  1  0.70003526  0.10809550  0.09914783  1
  Sc  Sc98  1  0.89790781  0.30148439  0.10151001  1
  Sc  Sc99  1  0.90674148  0.48824374  0.30686307  1
  Nb  Nb100  1  0.70123012  0.29627436  0.69634582  1
  Nb  Nb101  1  0.70256139  0.49984287  0.90239138  1
  Nb  Nb102  1  0.30052748  0.70051593  0.69950661  1
  Nb  Nb103  1  0.48996279  0.69616380  0.49772356  1
  Nb  Nb104  1  0.29666034  0.10219834  0.09833075  1
  Nb  Nb105  1  0.29453523  0.09705677  0.89627057  1
  Nb  Nb106  1  0.10545145  0.08821770  0.50313691  1
  Nb  Nb107  1  0.70344505  0.29493719  0.49591503  1
  Nb  Nb108  1  0.29897959  0.29847270  0.69981551  1
  Nb  Nb109  1  0.69452626  0.70318879  0.70158206  1
  Nb  Nb110  1  0.71068928  0.09824209  0.89958743  1
  Nb  Nb111  1  0.10340620  0.49807397  0.10724101  1
  Nb  Nb112  1  0.50062470  0.70146425  0.70370129  1
  Nb  Nb113  1  0.89864103  0.49989024  0.50741927  1
  Nb  Nb114  1  0.09563871  0.50087377  0.69716331  1
  Nb  Nb115  1  0.09888228  0.90363357  0.50379789  1
  Nb  Nb116  1  0.49491788  0.90411207  0.10019241  1
  Nb  Nb117  1  0.69785456  0.10185296  0.49653700  1
  Nb  Nb118  1  0.70363260  0.90257028  0.89548273  1
  Nb  Nb119  1  0.89957295  0.70361346  0.90049972  1
  Nb  Nb120  1  0.10024189  0.50130082  0.50376047  1
  Nb  Nb121  1  0.30292024  0.30050630  0.29439680  1
  Nb  Nb122  1  0.30040243  0.89840374  0.89685211  1
  Nb  Nb123  1  0.29277461  0.29685514  0.10736421  1
  Nb  Nb124  1  0.90866607  0.49924051  0.68686926  1
  Nb  Nb125  1  0.59664387  0.40006960  0.20157851  1
  Nb  Nb126  1  0.40072393  0.60349754  0.79209087  1
  Nb  Nb127  1  0.59353269  -0.00183033  0.20087300  1
  Nb  Nb128  1  0.40071964  0.60363973  0.60251016  1
  Nb  Nb129  1  0.80489909  0.60264633  0.40264489  1
  Nb  Nb130  1  0.80406541  0.60026194  0.21060214  1
  Nb  Nb131  1  0.38730393  0.19427697  -0.00189539  1
  Nb  Nb132  1  0.20575018  0.79675372  0.80160617  1
  Nb  Nb133  1  0.39427947  0.00193317  0.39937154  1
  Nb  Nb134  1  0.39947001  0.81106927  -0.00039522  1
  Nb  Nb135  1  0.40100660  0.59918956  0.20307186  1
  Nb  Nb136  1  0.00638289  0.20637579  0.80226093  1
  Nb  Nb137  1  0.80372699  0.80033669  -0.00883784  1
  Nb  Nb138  1  0.39853172  0.79333559  0.60375650  1
  Nb  Nb139  1  0.80081331  0.79775718  0.80256099  1
  Nb  Nb140  1  0.60901565  0.20129829  0.59972170  1
  Nb  Nb141  1  0.60316299  0.59466957  -0.00840098  1
  Nb  Nb142  1  0.80129273  0.79724181  0.39586005  1
  Nb  Nb143  1  0.59971882  0.59706994  0.79824188  1
  Nb  Nb144  1  0.79586012  0.19967971  0.59530432  1
  Nb  Nb145  1  0.39145645  0.20008431  0.80510235  1
  Nb  Nb146  1  0.79713910  0.00872677  0.59489401  1
  Nb  Nb147  1  0.00936782  0.80152327  0.59837382  1
  Nb  Nb148  1  0.59385512  0.60285002  0.60760024  1
  Nb  Nb149  1  0.20001538  0.20189614  0.80045852  1
  Pd  Pd150  1  0.59315522  0.80450009  0.19769253  1
  Pd  Pd151  1  0.00704676  0.60617953  0.59640770  1
  Pd  Pd152  1  0.59124467  0.19370325  0.79133467  1
  Pd  Pd153  1  0.81098721  0.00185277  0.40238231  1
  Pd  Pd154  1  -0.00168595  0.19661960  -0.00631266  1
  Pd  Pd155  1  0.00137127  0.41405613  -0.00098001  1
  Pd  Pd156  1  0.00476880  0.79152785  0.79212832  1
  Pd  Pd157  1  -0.00501163  0.59096188  0.19604059  1
  Pd  Pd158  1  0.20290083  -0.00409518  0.38949375  1
  Pd  Pd159  1  0.79950679  0.20101715  0.19851521  1
  Pd  Pd160  1  0.58523689  0.00323426  0.38869639  1
  Pd  Pd161  1  0.60711411  0.00155822  0.79298078  1
  Pd  Pd162  1  -0.00234562  0.59192423  0.40620963  1
  Pd  Pd163  1  0.19080795  0.59497607  -0.00098119  1
  Pd  Pd164  1  0.40452149  0.00797798  0.80772274  1
  Pd  Pd165  1  0.78949415  0.59564107  0.59805292  1
  Pd  Pd166  1  0.80653518  0.79276010  0.19799664  1
  Pd  Pd167  1  0.00314238  0.20452054  0.20079614  1
  Pd  Pd168  1  0.00537038  0.39710691  0.59134112  1
  Pd  Pd169  1  0.20954830  0.60102191  0.20433910  1
  Pd  Pd170  1  0.39432450  -0.01049740  0.59277088  1
  Pd  Pd171  1  0.60089780  0.19946967  0.00041437  1
  Pd  Pd172  1  0.80783310  0.39749812  0.80101149  1
  Pd  Pd173  1  0.19800021  0.20475974  0.39493274  1
  Pd  Pd174  1  0.60158852  0.79557939  -0.00219254  1
  Pd  Pd175  1  0.00373536  0.59266094  0.00308787  1
  Pd  Pd176  1  0.59053520  0.79565939  0.59472315  1
  Pd  Pd177  1  0.60646568  0.39890978  0.60015492  1
  Pd  Pd178  1  -0.00181349  0.20190318  0.60587778  1
  Pd  Pd179  1  0.40040090  0.20163721  0.19246342  1
  Pd  Pd180  1  0.60634805  0.40510066  0.80037434  1
  Pd  Pd181  1  0.39678498  0.00253735  -0.01055919  1
  Pd  Pd182  1  0.00570118  0.79956316  0.19543631  1
  Pd  Pd183  1  0.19988370  -0.00464371  -0.00386791  1
  Pd  Pd184  1  0.00020456  0.39868681  0.19898749  1
  Pd  Pd185  1  0.19829512  0.39084595  0.40546032  1
  Pd  Pd186  1  0.39819978  0.38683953  0.01060220  1
  Pd  Pd187  1  0.79912507  0.60214691  0.78748515  1
  Pd  Pd188  1  -0.00016638  -0.00138649  0.39410801  1
  Pd  Pd189  1  0.61127943  0.60478084  0.41777395  1
  Pd  Pd190  1  0.79015142  0.00361956  0.19535190  1
  Pd  Pd191  1  0.79873960  0.60550291  0.01261124  1
  Pd  Pd192  1  0.61369590  0.00038377  0.00769923  1
  Pd  Pd193  1  0.20030934  0.19858327  -0.00534082  1
  Pd  Pd194  1  -0.01028956  0.40218564  0.80167617  1
  Pd  Pd195  1  0.00624366  0.19947300  0.39692038  1
  Pd  Pd196  1  0.60505201  0.40001554  0.00363850  1
  Pd  Pd197  1  0.00000723  0.60358115  0.79533343  1
  Pd  Pd198  1  0.61002519  0.01024771  0.61054640  1
  Pd  Pd199  1  0.79437382  -0.00676196  0.00653112  1
  Rh  Rh200  1  0.79588202  0.39848146  -0.00699171  1
  Rh  Rh201  1  0.38878251  0.40566661  0.59814834  1
  Rh  Rh202  1  -0.00472474  -0.00440009  0.59543814  1
  Rh  Rh203  1  0.60470317  0.39055499  0.39423953  1
  Rh  Rh204  1  0.39438217  0.80936775  0.41223896  1
  Rh  Rh205  1  0.60449525  0.79348072  0.40729793  1
  Rh  Rh206  1  0.20295283  0.59058152  0.59602819  1
  Rh  Rh207  1  0.80714406  0.19201019  0.40363497  1
  Rh  Rh208  1  0.79748950  0.40821978  0.40009972  1
  Rh  Rh209  1  0.38887134  0.39323645  0.40357112  1
  Rh  Rh210  1  0.20408363  0.60245528  0.80515909  1
  Rh  Rh211  1  0.19770315  0.40365554  0.59498240  1
  Rh  Rh212  1  0.81253054  0.20997020  0.79667071  1
  Rh  Rh213  1  0.19650541  -0.00166059  0.80198111  1
  Rh  Rh214  1  0.38955721  0.19859001  0.40015230  1
  Rh  Rh215  1  0.40360973  0.40207719  0.19607066  1
  Rh  Rh216  1  0.00541486  0.00232301  0.19836400  1
  Rh  Rh217  1  0.80959659  0.81205086  0.60297796  1
  Rh  Rh218  1  0.60963607  0.79714758  0.80690346  1
  Rh  Rh219  1  0.20169437  0.59459214  0.39771297  1
  Rh  Rh220  1  0.19420830  0.80746974  0.39102212  1
  Rh  Rh221  1  0.00001466  0.80953454  0.40414399  1
  Rh  Rh222  1  0.39084813  0.79444258  0.80486880  1
  Rh  Rh223  1  0.60383729  0.20287133  0.20176628  1
  Rh  Rh224  1  0.19693501  0.39648807  0.19953216  1
  Rh  Rh225  1  0.40463875  0.00672745  0.21052248  1
  Rh  Rh226  1  -0.00404272  0.80170309  -0.00052667  1
  Rh  Rh227  1  0.19840591  0.81206416  0.61369865  1
  Rh  Rh228  1  0.79966299  0.20081453  -0.00178649  1
  Rh  Rh229  1  0.19721869  -0.00007291  0.20199571  1
  Rh  Rh230  1  0.18963249  0.19738025  0.60564700  1
  Rh  Rh231  1  0.20048987  -0.00218426  0.60528751  1
  Rh  Rh232  1  0.79356007  0.40437835  0.20823996  1
  Rh  Rh233  1  0.59790353  0.20659171  0.40497691  1
  Rh  Rh234  1  0.20066231  0.40347064  0.79951534  1
  Rh  Rh235  1  0.41131287  0.61190155  -0.00132194  1
  Rh  Rh236  1  0.80078656  0.39404931  0.59866872  1
  Rh  Rh237  1  0.19416466  0.20399607  0.20233498  1
  Rh  Rh238  1  0.00276143  0.00248313  0.00157279  1
  Rh  Rh239  1  0.00315750  0.01125158  0.80302150  1
  Rh  Rh240  1  0.59841717  0.59047354  0.19200310  1
  Rh  Rh241  1  0.20576045  0.80429478  -0.00620604  1
  Rh  Rh242  1  0.79514580  -0.01261099  0.79041317  1
  Rh  Rh243  1  0.19893987  0.79778380  0.19772548  1
  Rh  Rh244  1  0.39802292  0.78891929  0.18763263  1
  Rh  Rh245  1  0.38859120  0.40215199  0.79711238  1
  Rh  Rh246  1  0.00693956  0.40247283  0.40739721  1
  Rh  Rh247  1  0.38978632  0.59347820  0.39820365  1
  Rh  Rh248  1  0.19634366  0.40929851  0.00628599  1
  Rh  Rh249  1  0.40826078  0.20043347  0.60676244  1
