# generated using pymatgen
data_ZrScNbPdRh
_symmetry_space_group_name_H-M   'P 1'
_cell_length_a   16.55926414
_cell_length_b   16.55891536
_cell_length_c   16.55619085
_cell_angle_alpha   89.98913278
_cell_angle_beta   90.03400489
_cell_angle_gamma   90.02777916
_symmetry_Int_Tables_number   1
_chemical_formula_structural   ZrScNbPdRh
_chemical_formula_sum   'Zr50 Sc50 Nb50 Pd50 Rh50'
_cell_volume   4539.76329058
_cell_formula_units_Z   50
loop_
 _symmetry_equiv_pos_site_id
 _symmetry_equiv_pos_as_xyz
  1  'x, y, z'
loop_
 _atom_site_type_symbol
 _atom_site_label
 _atom_site_symmetry_multiplicity
 _atom_site_fract_x
 _atom_site_fract_y
 _atom_site_fract_z
 _atom_site_occupancy
  Zr  Zr0  1  0.49415216  0.89716507  0.30325128  1
  Zr  Zr1  1  0.68875133  0.30340590  0.49825060  1
  Zr  Zr2  1  0.69819102  0.68900036  0.50019538  1
  Zr  Zr3  1  0.50172269  0.11061919  0.90712438  1
  Zr  Zr4  1  0.70444241  0.69738748  0.29170123  1
  Zr  Zr5  1  0.70607730  0.89216552  0.49732685  1
  Zr  Zr6  1  0.10167620  0.69455775  0.29662119  1
  Zr  Zr7  1  0.69248469  0.29959204  0.29993212  1
  Zr  Zr8  1  0.68923637  0.10119754  0.10022287  1
  Zr  Zr9  1  0.10623550  0.29325002  0.30714435  1
  Zr  Zr10  1  0.89676404  0.89992614  0.90213342  1
  Zr  Zr11  1  0.89709163  0.09919662  0.89312418  1
  Zr  Zr12  1  0.09636676  0.70097474  0.09521690  1
  Zr  Zr13  1  0.09190594  0.50188266  0.09832197  1
  Zr  Zr14  1  0.49632204  0.49000240  0.89662390  1
  Zr  Zr15  1  0.30241502  0.50100571  0.90020308  1
  Zr  Zr16  1  0.90334531  0.09424396  0.30400739  1
  Zr  Zr17  1  0.69726766  0.51065177  0.09929287  1
  Zr  Zr18  1  0.10826332  0.90542411  0.69480712  1
  Zr  Zr19  1  0.90138414  0.90438247  0.70309359  1
  Zr  Zr20  1  0.70626082  0.89500871  0.30137060  1
  Zr  Zr21  1  0.10253993  0.30475450  0.50555140  1
  Zr  Zr22  1  0.89738592  0.09595616  0.09582280  1
  Zr  Zr23  1  0.49369655  0.89244199  0.70300237  1
  Zr  Zr24  1  0.10092250  0.09985553  0.49283638  1
  Zr  Zr25  1  0.30474104  0.90102787  0.31535909  1
  Zr  Zr26  1  0.49685865  0.09999544  0.09708777  1
  Zr  Zr27  1  0.69967600  0.89218398  0.70387138  1
  Zr  Zr28  1  0.90456354  0.50172171  0.49966570  1
  Zr  Zr29  1  0.70506491  0.90034191  0.90284101  1
  Zr  Zr30  1  0.69144731  0.49212859  0.90559186  1
  Zr  Zr31  1  0.70281341  0.50029259  0.30590913  1
  Zr  Zr32  1  0.09402420  0.30398848  0.90109104  1
  Zr  Zr33  1  0.09971751  0.49955257  0.30306541  1
  Zr  Zr34  1  0.88705682  0.30737619  0.28434005  1
  Zr  Zr35  1  0.90331918  0.10543183  0.70009440  1
  Zr  Zr36  1  0.89969176  0.49986864  0.29568694  1
  Zr  Zr37  1  0.70067593  0.89262002  0.09557334  1
  Zr  Zr38  1  0.29839816  0.10329977  0.71104882  1
  Zr  Zr39  1  0.29765318  0.30068655  0.30043705  1
  Zr  Zr40  1  0.09398082  0.69592837  0.90357791  1
  Zr  Zr41  1  0.31493531  0.49811372  0.70227382  1
  Zr  Zr42  1  0.51024521  0.50760543  0.50444631  1
  Zr  Zr43  1  0.70525551  0.11362439  0.69845434  1
  Zr  Zr44  1  0.70399549  0.70077002  0.90713468  1
  Zr  Zr45  1  0.09706741  0.49014961  0.50160204  1
  Zr  Zr46  1  0.89937761  0.69696731  0.50321250  1
  Zr  Zr47  1  0.69909776  0.10787729  0.50187459  1
  Zr  Zr48  1  0.49803201  0.69759774  0.68924832  1
  Zr  Zr49  1  0.10526007  0.90859465  0.30531134  1
  Sc  Sc50  1  0.49699746  0.10229182  0.50111238  1
  Sc  Sc51  1  0.49999669  0.70417284  0.89988774  1
  Sc  Sc52  1  0.50085954  0.50890633  0.08898625  1
  Sc  Sc53  1  0.49875672  0.30791759  0.69949790  1
  Sc  Sc54  1  0.90293384  0.69680215  0.29496598  1
  Sc  Sc55  1  0.10374915  0.69280248  0.70131997  1
  Sc  Sc56  1  0.70355280  0.70118110  0.69688278  1
  Sc  Sc57  1  0.49248813  0.11139599  0.70042064  1
  Sc  Sc58  1  0.09430096  0.50401990  0.90388650  1
  Sc  Sc59  1  0.50102755  0.29072120  0.09424325  1
  Sc  Sc60  1  0.90200101  0.69329608  0.09881952  1
  Sc  Sc61  1  0.10709600  0.08957259  0.11127844  1
  Sc  Sc62  1  0.29726828  0.50007541  0.50350290  1
  Sc  Sc63  1  0.11807845  0.91009629  0.49882155  1
  Sc  Sc64  1  0.30056927  0.69425028  0.09970654  1
  Sc  Sc65  1  0.89681667  0.49468270  0.89998993  1
  Sc  Sc66  1  0.09609050  0.31114887  0.10095043  1
  Sc  Sc67  1  0.28553268  0.69924639  0.89923837  1
  Sc  Sc68  1  0.90192717  0.50217719  0.70052045  1
  Sc  Sc69  1  0.89500323  0.29792074  0.70598487  1
  Sc  Sc70  1  0.70106953  0.29874015  0.10800723  1
  Sc  Sc71  1  0.30368602  0.69907261  0.50010706  1
  Sc  Sc72  1  0.90406323  0.89771669  0.08982037  1
  Sc  Sc73  1  0.09266417  0.49750058  0.69494762  1
  Sc  Sc74  1  0.89740321  0.90309397  0.49111483  1
  Sc  Sc75  1  0.50168328  0.90562226  0.10511662  1
  Sc  Sc76  1  0.29057748  0.30665129  0.50656872  1
  Sc  Sc77  1  0.09898446  0.89649372  0.09711559  1
  Sc  Sc78  1  0.49572463  0.09480828  0.29154705  1
  Sc  Sc79  1  0.89995650  0.30300195  0.49662247  1
  Sc  Sc80  1  0.10446522  0.10120867  0.69860850  1
  Sc  Sc81  1  0.48559940  0.69086700  0.29935489  1
  Sc  Sc82  1  0.89769958  0.69211483  0.70251679  1
  Sc  Sc83  1  0.48328824  0.90076040  0.50045923  1
  Sc  Sc84  1  0.10272648  0.29912388  0.69971868  1
  Sc  Sc85  1  0.30192469  0.70279719  0.69751373  1
  Sc  Sc86  1  0.69639466  0.49739755  0.69805813  1
  Sc  Sc87  1  0.10304392  0.10348872  0.88887338  1
  Sc  Sc88  1  0.30290887  0.29656113  0.69770481  1
  Sc  Sc89  1  0.89916819  0.69421522  0.90029118  1
  Sc  Sc90  1  0.89942338  0.09832406  0.49635934  1
  Sc  Sc91  1  0.50393908  0.70280368  0.10139677  1
  Sc  Sc92  1  0.69486576  0.29879920  0.69779223  1
  Sc  Sc93  1  0.50018741  0.90543374  0.89808693  1
  Sc  Sc94  1  0.31377521  0.30186880  0.90343586  1
  Sc  Sc95  1  0.10487566  0.68379358  0.50230768  1
  Sc  Sc96  1  0.89882658  0.89602420  0.30485985  1
  Sc  Sc97  1  0.30077054  0.50269594  0.08967800  1
  Sc  Sc98  1  0.30210563  0.09588140  0.50641571  1
  Sc  Sc99  1  0.10965030  0.89285365  0.90869916  1
  Nb  Nb100  1  0.30275196  0.10704015  0.09947094  1
  Nb  Nb101  1  0.29712904  0.29332450  0.10777441  1
  Nb  Nb102  1  0.70015689  0.69898176  0.09732731  1
  Nb  Nb103  1  0.89713819  0.29742943  0.90311606  1
  Nb  Nb104  1  0.69730801  0.10269801  0.90226853  1
  Nb  Nb105  1  0.90044855  0.29926829  0.09920859  1
  Nb  Nb106  1  0.50424933  0.69533434  0.49975520  1
  Nb  Nb107  1  0.30562112  0.09926287  0.90675973  1
  Nb  Nb108  1  0.90398240  0.48219152  0.10803356  1
  Nb  Nb109  1  0.51104310  0.30395099  0.90024748  1
  Nb  Nb110  1  0.30813557  0.50893658  0.29605161  1
  Nb  Nb111  1  0.30341231  0.89889371  0.69591744  1
  Nb  Nb112  1  0.50134519  0.50224701  0.70276093  1
  Nb  Nb113  1  0.50195678  0.30616445  0.30510417  1
  Nb  Nb114  1  0.69592309  0.29966482  0.89991482  1
  Nb  Nb115  1  0.29929837  0.69467601  0.29550427  1
  Nb  Nb116  1  0.70339387  0.49900745  0.49922551  1
  Nb  Nb117  1  0.30110889  0.90427994  0.50600156  1
  Nb  Nb118  1  0.28920174  0.10847885  0.28828950  1
  Nb  Nb119  1  0.10232104  0.10092179  0.30280773  1
  Nb  Nb120  1  0.70157677  0.10084773  0.29586709  1
  Nb  Nb121  1  0.29978709  0.90373731  0.90025446  1
  Nb  Nb122  1  0.29302021  0.90471841  0.09118484  1
  Nb  Nb123  1  0.50502424  0.30308255  0.49195669  1
  Nb  Nb124  1  0.49517689  0.50237635  0.30172613  1
  Nb  Nb125  1  0.40071200  0.40157402  0.20237538  1
  Nb  Nb126  1  -0.00043176  0.19800817  0.19928535  1
  Nb  Nb127  1  0.79402680  0.00097337  0.60201581  1
  Nb  Nb128  1  0.00229432  0.80292006  0.79546231  1
  Nb  Nb129  1  0.00148825  0.19978453  0.59693938  1
  Nb  Nb130  1  0.79643388  -0.00047988  0.19917200  1
  Nb  Nb131  1  0.59588464  0.79526236  0.40046298  1
  Nb  Nb132  1  0.40443406  0.40229743  0.39718682  1
  Nb  Nb133  1  0.80031548  0.20270527  -0.00416216  1
  Nb  Nb134  1  0.59020979  0.40444267  0.20492492  1
  Nb  Nb135  1  0.38948596  0.81004844  -0.00073411  1
  Nb  Nb136  1  0.20797002  0.79951893  0.20448347  1
  Nb  Nb137  1  0.00495941  0.80281298  0.59843392  1
  Nb  Nb138  1  0.79491055  0.20194282  0.39277193  1
  Nb  Nb139  1  0.20492540  0.40353963  0.80374719  1
  Nb  Nb140  1  0.40022389  0.20783061  0.39673530  1
  Nb  Nb141  1  0.20742155  0.40305492  0.20235714  1
  Nb  Nb142  1  0.60244074  -0.00180457  0.60358231  1
  Nb  Nb143  1  0.00892251  0.79729096  0.40546578  1
  Nb  Nb144  1  0.60431466  0.00682075  0.79666540  1
  Nb  Nb145  1  0.79599551  0.40240952  0.59333634  1
  Nb  Nb146  1  0.60229933  -0.00552539  0.40233282  1
  Nb  Nb147  1  0.20397760  0.19843731  0.00471342  1
  Nb  Nb148  1  0.59561902  0.59677904  0.79936873  1
  Nb  Nb149  1  -0.00157999  0.20123194  0.00332023  1
  Pd  Pd150  1  0.40396118  0.61056895  0.80414727  1
  Pd  Pd151  1  0.59558598  0.20132416  0.79532608  1
  Pd  Pd152  1  0.20369698  0.59241240  0.60627199  1
  Pd  Pd153  1  0.40053515  0.20977307  0.59001580  1
  Pd  Pd154  1  0.40218628  0.61330986  -0.00491481  1
  Pd  Pd155  1  0.40261657  -0.00371844  0.00126814  1
  Pd  Pd156  1  0.21232754  0.19494661  0.41057025  1
  Pd  Pd157  1  0.19859611  0.79211861  0.40174648  1
  Pd  Pd158  1  -0.00485021  0.39282259  0.39283259  1
  Pd  Pd159  1  0.19865699  0.79748981  0.59493141  1
  Pd  Pd160  1  0.20224616  -0.00367476  0.80263288  1
  Pd  Pd161  1  0.80590113  0.60258843  0.39753825  1
  Pd  Pd162  1  0.81121808  0.80292297  0.60198369  1
  Pd  Pd163  1  -0.00501765  0.00005776  0.59044227  1
  Pd  Pd164  1  0.60496940  -0.00506578  0.20616510  1
  Pd  Pd165  1  -0.00612766  -0.00316773  0.20066509  1
  Pd  Pd166  1  0.59294548  0.59945913  0.20283022  1
  Pd  Pd167  1  0.78965620  0.59509291  0.80012142  1
  Pd  Pd168  1  0.79496999  0.39876603  0.79251506  1
  Pd  Pd169  1  0.38864204  -0.00180580  0.20030443  1
  Pd  Pd170  1  0.40564223  0.39800398  0.59133057  1
  Pd  Pd171  1  0.19617599  0.58966519  0.79495732  1
  Pd  Pd172  1  0.59342080  0.80531165  0.59030865  1
  Pd  Pd173  1  0.40862810  0.20497090  0.20549303  1
  Pd  Pd174  1  0.59453288  0.79428125  0.20719117  1
  Pd  Pd175  1  0.40414595  0.39319290  0.00986221  1
  Pd  Pd176  1  0.40269960  0.00308936  0.60886598  1
  Pd  Pd177  1  0.60133545  0.79454905  0.80437816  1
  Pd  Pd178  1  0.00632676  0.80671541  0.20655546  1
  Pd  Pd179  1  0.58920887  0.80384805  -0.00026721  1
  Pd  Pd180  1  0.80812042  0.59327196  0.00396579  1
  Pd  Pd181  1  0.00232535  0.40070567  0.79758399  1
  Pd  Pd182  1  0.39121454  0.79483151  0.80878183  1
  Pd  Pd183  1  0.39140864  0.80171255  0.18970061  1
  Pd  Pd184  1  -0.00901874  0.20704170  0.39750771  1
  Pd  Pd185  1  0.20609826  0.59572533  0.40235561  1
  Pd  Pd186  1  0.81041575  0.80232992  0.19141951  1
  Pd  Pd187  1  0.19493151  0.01043260  -0.00357295  1
  Pd  Pd188  1  0.79213412  0.00332324  0.79420960  1
  Pd  Pd189  1  0.40154311  0.78947500  0.40675761  1
  Pd  Pd190  1  0.20748177  0.21137597  0.81001182  1
  Pd  Pd191  1  0.01300333  0.00661155  -0.00740417  1
  Pd  Pd192  1  0.40575572  0.00535385  0.80090537  1
  Pd  Pd193  1  0.20168591  0.59704424  0.19150091  1
  Pd  Pd194  1  0.20289619  0.39476596  0.00020469  1
  Pd  Pd195  1  0.01157931  -0.00754797  0.80752193  1
  Pd  Pd196  1  0.59379381  0.18649112  0.39192492  1
  Pd  Pd197  1  0.19772871  0.80265919  0.79631371  1
  Pd  Pd198  1  0.20831095  -0.00745616  0.20222771  1
  Pd  Pd199  1  0.79440448  0.39513443  0.00560891  1
  Rh  Rh200  1  0.21253041  0.00524627  0.60724020  1
  Rh  Rh201  1  0.18634000  0.20488133  0.19029743  1
  Rh  Rh202  1  0.00559778  -0.00956434  0.40436824  1
  Rh  Rh203  1  -0.01006052  0.59041739  0.00286395  1
  Rh  Rh204  1  0.59721302  0.60638073  -0.00985674  1
  Rh  Rh205  1  0.79119943  0.01097180  0.39928955  1
  Rh  Rh206  1  0.01134714  0.39264966  0.20911132  1
  Rh  Rh207  1  0.39998529  0.39230696  0.79881812  1
  Rh  Rh208  1  0.00018308  0.60489259  0.60189472  1
  Rh  Rh209  1  -0.00587546  0.59581826  0.19649389  1
  Rh  Rh210  1  0.81177269  0.20432912  0.58829052  1
  Rh  Rh211  1  -0.00772577  0.40024362  -0.00521088  1
  Rh  Rh212  1  0.39999483  0.60059575  0.59589219  1
  Rh  Rh213  1  0.79784358  0.58864143  0.60297127  1
  Rh  Rh214  1  0.00012001  0.60469148  0.80083627  1
  Rh  Rh215  1  0.20667558  0.79472465  0.00859092  1
  Rh  Rh216  1  -0.00488348  0.79761619  -0.00927726  1
  Rh  Rh217  1  -0.01113738  0.38910252  0.60686945  1
  Rh  Rh218  1  0.60034742  -0.00416172  -0.00716158  1
  Rh  Rh219  1  0.21333873  0.01229825  0.39706465  1
  Rh  Rh220  1  0.80532402  0.79174229  0.00423461  1
  Rh  Rh221  1  0.80434851  0.78564174  0.39753620  1
  Rh  Rh222  1  0.59880288  0.60513200  0.39319096  1
  Rh  Rh223  1  0.60006309  0.39398159  0.01165867  1
  Rh  Rh224  1  0.39655813  0.01582202  0.39478263  1
  Rh  Rh225  1  -0.00014874  0.20299372  0.79802888  1
  Rh  Rh226  1  0.20425940  0.40585579  0.61642130  1
  Rh  Rh227  1  0.19579307  0.60013281  0.00258355  1
  Rh  Rh228  1  0.39596069  0.20330458  -0.00227981  1
  Rh  Rh229  1  0.40181799  0.59650408  0.18987993  1
  Rh  Rh230  1  0.39707767  0.59712114  0.40781854  1
  Rh  Rh231  1  0.78517129  0.40946369  0.19225842  1
  Rh  Rh232  1  0.60845171  0.20856884  0.00222404  1
  Rh  Rh233  1  0.40351323  0.20529595  0.80867819  1
  Rh  Rh234  1  0.58716423  0.20163785  0.60350671  1
  Rh  Rh235  1  0.80437850  0.59680214  0.19232213  1
  Rh  Rh236  1  0.59604806  0.41438706  0.39668645  1
  Rh  Rh237  1  0.79912737  0.39490321  0.40722312  1
  Rh  Rh238  1  0.60153597  0.40142307  0.79709573  1
  Rh  Rh239  1  0.79544335  0.20716480  0.80952170  1
  Rh  Rh240  1  0.19306649  0.19603087  0.59912654  1
  Rh  Rh241  1  0.20927452  0.41271263  0.39337015  1
  Rh  Rh242  1  0.39550377  0.79792936  0.59411571  1
  Rh  Rh243  1  -0.00042057  0.60388051  0.39863301  1
  Rh  Rh244  1  0.78911578  0.00686371  0.00674552  1
  Rh  Rh245  1  0.60133651  0.40228258  0.60179490  1
  Rh  Rh246  1  0.59081344  0.20379670  0.20275616  1
  Rh  Rh247  1  0.80718722  0.18729428  0.19908160  1
  Rh  Rh248  1  0.81012496  0.79389660  0.80357857  1
  Rh  Rh249  1  0.60574376  0.59864624  0.60858239  1
