# generated using pymatgen
data_ZrScNbPdRh
_symmetry_space_group_name_H-M   'P 1'
_cell_length_a   16.55310119
_cell_length_b   16.55933041
_cell_length_c   16.55513958
_cell_angle_alpha   90.03351667
_cell_angle_beta   89.97630029
_cell_angle_gamma   90.00557117
_symmetry_Int_Tables_number   1
_chemical_formula_structural   ZrScNbPdRh
_chemical_formula_sum   'Zr50 Sc50 Nb50 Pd50 Rh50'
_cell_volume   4537.89951475
_cell_formula_units_Z   50
loop_
 _symmetry_equiv_pos_site_id
 _symmetry_equiv_pos_as_xyz
  1  'x, y, z'
loop_
 _atom_site_type_symbol
 _atom_site_label
 _atom_site_symmetry_multiplicity
 _atom_site_fract_x
 _atom_site_fract_y
 _atom_site_fract_z
 _atom_site_occupancy
  Zr  Zr0  1  0.49908235  0.10373309  0.89745894  1
  Zr  Zr1  1  0.69282783  0.09745226  0.69725757  1
  Zr  Zr2  1  0.10443450  0.30469418  0.48871705  1
  Zr  Zr3  1  0.30695348  0.50108711  0.70693706  1
  Zr  Zr4  1  0.29635174  0.50751147  0.50155481  1
  Zr  Zr5  1  0.50902235  0.50300917  0.70264437  1
  Zr  Zr6  1  0.69847443  0.49263091  0.09686287  1
  Zr  Zr7  1  0.70055801  0.90085587  0.10607265  1
  Zr  Zr8  1  0.88884657  0.29889494  0.30742481  1
  Zr  Zr9  1  0.30251443  0.10307953  0.30094547  1
  Zr  Zr10  1  0.09566201  0.50468518  0.10765978  1
  Zr  Zr11  1  0.29416445  0.90429528  0.90200023  1
  Zr  Zr12  1  0.89268590  0.69867483  0.49382177  1
  Zr  Zr13  1  0.30600781  0.31378309  0.89541529  1
  Zr  Zr14  1  0.69516649  0.30291897  0.70361546  1
  Zr  Zr15  1  0.70884576  0.49861712  0.29372822  1
  Zr  Zr16  1  0.49632669  0.89293479  0.91059585  1
  Zr  Zr17  1  0.29674731  0.89411713  0.09358690  1
  Zr  Zr18  1  0.88950827  0.10268885  0.90131431  1
  Zr  Zr19  1  0.90112093  0.49459425  0.68951236  1
  Zr  Zr20  1  0.89599509  0.29875713  0.89949505  1
  Zr  Zr21  1  0.50310551  0.70026248  0.29926120  1
  Zr  Zr22  1  0.89680763  0.90473468  0.10252293  1
  Zr  Zr23  1  0.10197489  0.49695384  0.30680324  1
  Zr  Zr24  1  0.69852755  0.30116989  0.29867812  1
  Zr  Zr25  1  0.89604036  0.09948582  0.49826757  1
  Zr  Zr26  1  0.69118392  0.70814530  0.70029309  1
  Zr  Zr27  1  0.30212804  0.69108496  0.30001088  1
  Zr  Zr28  1  0.89274294  0.89912648  0.69337303  1
  Zr  Zr29  1  0.10029280  0.29824146  0.09738347  1
  Zr  Zr30  1  0.30197813  0.09918406  0.49673129  1
  Zr  Zr31  1  0.28819411  0.90286347  0.69324717  1
  Zr  Zr32  1  0.30107469  0.89728656  0.29265680  1
  Zr  Zr33  1  0.29952982  0.29747950  0.10666369  1
  Zr  Zr34  1  0.10449258  0.69450101  0.50148852  1
  Zr  Zr35  1  0.09389065  0.10599727  0.10301315  1
  Zr  Zr36  1  0.10558895  0.70522142  0.69645042  1
  Zr  Zr37  1  0.49860753  0.09314178  0.29776191  1
  Zr  Zr38  1  0.49443929  0.89655308  0.49366975  1
  Zr  Zr39  1  0.29678828  0.29729243  0.30682381  1
  Zr  Zr40  1  0.51142265  0.90032344  0.69231227  1
  Zr  Zr41  1  0.10035044  0.49938648  0.70043889  1
  Zr  Zr42  1  0.89736409  0.50054645  0.49102711  1
  Zr  Zr43  1  0.50761835  0.70142386  0.89715165  1
  Zr  Zr44  1  0.10522607  0.89452639  0.90734758  1
  Zr  Zr45  1  0.50602942  0.10840883  0.70201097  1
  Zr  Zr46  1  0.09701057  0.30897481  0.89921518  1
  Zr  Zr47  1  0.10463613  0.49644789  0.90241747  1
  Zr  Zr48  1  0.30163063  0.70109811  0.90873893  1
  Zr  Zr49  1  0.89699467  0.90834321  0.30240551  1
  Sc  Sc50  1  0.89041117  0.50338209  0.10478477  1
  Sc  Sc51  1  0.88909814  0.69142640  0.30221381  1
  Sc  Sc52  1  0.50565857  0.69811180  0.49841368  1
  Sc  Sc53  1  0.90092839  0.10625524  0.70020151  1
  Sc  Sc54  1  0.50552082  0.89819453  0.09857576  1
  Sc  Sc55  1  0.30561334  0.69670735  0.50755192  1
  Sc  Sc56  1  0.49758151  0.89358002  0.29380910  1
  Sc  Sc57  1  0.30734039  0.49590702  0.09788065  1
  Sc  Sc58  1  0.10396850  0.89867835  0.10391824  1
  Sc  Sc59  1  0.49876086  0.10095039  0.50518122  1
  Sc  Sc60  1  0.10922330  0.68874698  0.28924337  1
  Sc  Sc61  1  0.30650659  0.10002058  0.70052111  1
  Sc  Sc62  1  0.69880239  0.49174112  0.89966010  1
  Sc  Sc63  1  0.89577337  0.49501323  0.90904928  1
  Sc  Sc64  1  0.10162120  0.69785570  0.09594041  1
  Sc  Sc65  1  0.10013504  0.09683147  0.69657121  1
  Sc  Sc66  1  0.50316954  0.29673888  0.29846930  1
  Sc  Sc67  1  0.70173303  0.90039449  0.50253361  1
  Sc  Sc68  1  0.11007038  0.29765700  0.29920816  1
  Sc  Sc69  1  0.70436372  0.09783432  0.10080992  1
  Sc  Sc70  1  0.50934841  0.09332701  0.09823069  1
  Sc  Sc71  1  0.29685239  0.09674205  0.89984403  1
  Sc  Sc72  1  0.69565776  0.30228702  0.09866406  1
  Sc  Sc73  1  0.09354184  0.09454490  0.30033260  1
  Sc  Sc74  1  0.90754625  0.69274542  0.10106390  1
  Sc  Sc75  1  0.70576199  0.69587168  0.10795161  1
  Sc  Sc76  1  0.50141989  0.30953803  0.09964338  1
  Sc  Sc77  1  0.50286158  0.69669490  0.69191545  1
  Sc  Sc78  1  0.89688991  0.70346825  0.68978656  1
  Sc  Sc79  1  0.70222235  0.10954275  0.29612181  1
  Sc  Sc80  1  0.09389118  0.50028708  0.49925773  1
  Sc  Sc81  1  0.89630896  0.31180561  0.50561734  1
  Sc  Sc82  1  0.69034742  0.88803671  0.89525006  1
  Sc  Sc83  1  0.69708379  0.50169548  0.69868121  1
  Sc  Sc84  1  0.69527630  0.30331270  0.49437922  1
  Sc  Sc85  1  0.09566418  0.09688278  0.50345520  1
  Sc  Sc86  1  0.29792671  0.69638781  0.10639003  1
  Sc  Sc87  1  0.11054027  0.09518469  0.89965338  1
  Sc  Sc88  1  0.69665959  0.49705805  0.50465980  1
  Sc  Sc89  1  0.89564161  0.09915531  0.29312517  1
  Sc  Sc90  1  0.29364750  0.09903665  0.10205610  1
  Sc  Sc91  1  0.69530616  0.11027971  0.89884140  1
  Sc  Sc92  1  0.50347339  0.50453014  0.29869381  1
  Sc  Sc93  1  0.08551708  0.30780529  0.70417693  1
  Sc  Sc94  1  0.50181743  0.49534551  0.10021530  1
  Sc  Sc95  1  0.69523839  0.10112144  0.50038787  1
  Sc  Sc96  1  0.50622738  0.30466786  0.89456858  1
  Sc  Sc97  1  0.89612323  0.90557419  0.49769464  1
  Sc  Sc98  1  0.69866426  0.70129091  0.30617581  1
  Sc  Sc99  1  0.89876356  0.30229074  0.70616951  1
  Nb  Nb100  1  0.90154063  0.89642958  0.90155877  1
  Nb  Nb101  1  0.50367823  0.70324606  0.09327422  1
  Nb  Nb102  1  0.89924707  0.10034605  0.10153076  1
  Nb  Nb103  1  0.69864772  0.90403959  0.69647494  1
  Nb  Nb104  1  0.49575240  0.50055710  0.90069608  1
  Nb  Nb105  1  0.30784253  0.30139637  0.70359342  1
  Nb  Nb106  1  0.90534491  0.28541605  0.09885110  1
  Nb  Nb107  1  0.90234924  0.49625553  0.30029635  1
  Nb  Nb108  1  0.30045334  0.29839425  0.49709393  1
  Nb  Nb109  1  0.10332500  0.90111012  0.50254723  1
  Nb  Nb110  1  0.29925071  0.90570887  0.49590431  1
  Nb  Nb111  1  0.29886873  0.69831074  0.70178617  1
  Nb  Nb112  1  0.69890919  0.70102797  0.49299548  1
  Nb  Nb113  1  0.10032680  0.90189224  0.70060556  1
  Nb  Nb114  1  0.30813367  0.49981169  0.89661869  1
  Nb  Nb115  1  0.70455201  0.30409670  0.89850622  1
  Nb  Nb116  1  0.69960967  0.69919932  0.89639453  1
  Nb  Nb117  1  0.29934539  0.50009430  0.30231614  1
  Nb  Nb118  1  0.09693154  0.89994324  0.30281102  1
  Nb  Nb119  1  0.49742565  0.29688371  0.70025522  1
  Nb  Nb120  1  0.69899691  0.89845624  0.30082695  1
  Nb  Nb121  1  0.50173489  0.30643696  0.50509849  1
  Nb  Nb122  1  0.49953976  0.49758377  0.50960865  1
  Nb  Nb123  1  0.09464687  0.69928091  0.90264466  1
  Nb  Nb124  1  0.90353714  0.70394085  0.90261313  1
  Nb  Nb125  1  0.00036673  0.80233566  0.20956958  1
  Nb  Nb126  1  0.20865994  0.39348114  0.60280749  1
  Nb  Nb127  1  0.40366356  -0.00868064  0.79961212  1
  Nb  Nb128  1  0.00180385  0.80072712  0.80139369  1
  Nb  Nb129  1  -0.00155088  0.60675942  0.80413523  1
  Nb  Nb130  1  -0.00730063  0.00124085  -0.00125260  1
  Nb  Nb131  1  0.20069823  0.60295350  0.80684131  1
  Nb  Nb132  1  0.39998615  0.20442098  -0.00140683  1
  Nb  Nb133  1  0.79862666  -0.00722249  0.79848106  1
  Nb  Nb134  1  -0.00672368  0.39607542  0.20332203  1
  Nb  Nb135  1  0.39578819  0.80283478  0.79502539  1
  Nb  Nb136  1  0.40061061  0.40188651  0.40776068  1
  Nb  Nb137  1  0.59851200  -0.00487948  0.39391499  1
  Nb  Nb138  1  0.19839418  0.80451346  0.40022667  1
  Nb  Nb139  1  -0.00316642  -0.00968037  0.80353804  1
  Nb  Nb140  1  0.59987604  0.60192942  -0.00420056  1
  Nb  Nb141  1  0.80354844  0.79624813  -0.00549705  1
  Nb  Nb142  1  0.40183845  0.39571902  0.59930992  1
  Nb  Nb143  1  0.80372247  0.60793666  0.80436062  1
  Nb  Nb144  1  0.20036179  -0.00818319  0.40153900  1
  Nb  Nb145  1  -0.00474012  0.20114646  0.40190804  1
  Nb  Nb146  1  0.00678396  0.80277239  0.39769737  1
  Nb  Nb147  1  0.20516029  0.21022635  0.60220165  1
  Nb  Nb148  1  0.20396981  0.21174868  0.79300908  1
  Nb  Nb149  1  0.79604529  0.20269518  0.60188720  1
  Pd  Pd150  1  -0.00191965  -0.00327246  0.60346879  1
  Pd  Pd151  1  0.79125731  0.60163540  0.60390970  1
  Pd  Pd152  1  -0.00992410  0.40343654  0.01140078  1
  Pd  Pd153  1  0.40146709  -0.00114338  0.18903769  1
  Pd  Pd154  1  0.59599694  0.40748215  0.39468858  1
  Pd  Pd155  1  0.00312022  0.19168231  -0.01256474  1
  Pd  Pd156  1  0.00225236  0.60969308  0.39199590  1
  Pd  Pd157  1  0.59493079  0.20683268  0.00157436  1
  Pd  Pd158  1  0.79300899  0.60459228  -0.00417845  1
  Pd  Pd159  1  0.19659286  0.00315701  0.20300311  1
  Pd  Pd160  1  0.39385691  0.79324092  0.40032742  1
  Pd  Pd161  1  0.41167409  0.20543379  0.40202647  1
  Pd  Pd162  1  0.59833032  0.19970813  0.19312710  1
  Pd  Pd163  1  0.79277206  0.79882844  0.59137722  1
  Pd  Pd164  1  0.59975475  -0.00541665  0.80849726  1
  Pd  Pd165  1  0.20491417  0.79960659  0.59095058  1
  Pd  Pd166  1  0.40274332  0.40203629  0.21240187  1
  Pd  Pd167  1  0.80309310  0.79958272  0.80159069  1
  Pd  Pd168  1  0.80726003  0.38973260  0.18996525  1
  Pd  Pd169  1  0.79322834  -0.00741199  -0.00931447  1
  Pd  Pd170  1  -0.00146383  0.20600414  0.21323868  1
  Pd  Pd171  1  0.40471197  0.59704159  0.19437041  1
  Pd  Pd172  1  0.61012296  -0.00145101  -0.00648611  1
  Pd  Pd173  1  0.40594906  0.59639152  0.40406429  1
  Pd  Pd174  1  0.19732780  0.40301898  0.19838831  1
  Pd  Pd175  1  0.40092977  0.61019117  0.79811720  1
  Pd  Pd176  1  0.40857249  0.19663773  0.18919767  1
  Pd  Pd177  1  0.20553303  0.40492570  0.00664272  1
  Pd  Pd178  1  -0.00105290  0.80420652  0.59487582  1
  Pd  Pd179  1  0.39845407  0.20277916  0.59795286  1
  Pd  Pd180  1  0.39779198  0.79781674  0.60333648  1
  Pd  Pd181  1  0.40808123  0.59964947  0.00605511  1
  Pd  Pd182  1  -0.00101043  0.21010437  0.59373984  1
  Pd  Pd183  1  0.40415660  0.00101192  0.60571039  1
  Pd  Pd184  1  0.20050028  0.79464889  0.80415444  1
  Pd  Pd185  1  0.20730162  0.20439433  -0.00983708  1
  Pd  Pd186  1  0.39850353  0.00907612  0.00206368  1
  Pd  Pd187  1  0.80816473  0.79390987  0.19841021  1
  Pd  Pd188  1  0.80150866  0.41012835  0.79787731  1
  Pd  Pd189  1  0.59428058  0.19290937  0.40364857  1
  Pd  Pd190  1  0.59997014  0.60026745  0.19234916  1
  Pd  Pd191  1  -0.00303420  0.59344877  -0.00162833  1
  Pd  Pd192  1  0.60109533  0.79650529  0.19934662  1
  Pd  Pd193  1  0.40306014  0.79542162  0.19167930  1
  Pd  Pd194  1  0.78703047  0.00530932  0.39567688  1
  Pd  Pd195  1  0.20321700  0.59584074  0.00039042  1
  Pd  Pd196  1  0.60323698  0.59262032  0.40344354  1
  Pd  Pd197  1  0.79232602  0.20515860  0.00640424  1
  Pd  Pd198  1  0.00964991  0.19023422  0.80548760  1
  Pd  Pd199  1  -0.00230278  0.60203878  0.60111941  1
  Rh  Rh200  1  0.79893711  0.59995542  0.20274486  1
  Rh  Rh201  1  0.79378430  0.39448010  0.60069886  1
  Rh  Rh202  1  0.19118618  0.00426170  0.01266603  1
  Rh  Rh203  1  0.19019293  0.18362911  0.40434652  1
  Rh  Rh204  1  0.40403559  0.39612244  -0.00205358  1
  Rh  Rh205  1  0.60435604  0.79961699  0.59114441  1
  Rh  Rh206  1  0.60356766  0.20857133  0.80272042  1
  Rh  Rh207  1  0.39722676  0.79615887  0.00299142  1
  Rh  Rh208  1  0.00406037  0.00299640  0.40489901  1
  Rh  Rh209  1  0.19489048  0.79609958  0.20316286  1
  Rh  Rh210  1  0.80383527  0.20163611  0.41086495  1
  Rh  Rh211  1  0.00483218  0.39942413  0.59453635  1
  Rh  Rh212  1  0.20002276  0.40233963  0.79401707  1
  Rh  Rh213  1  0.79205761  0.19365603  0.79128242  1
  Rh  Rh214  1  0.79385958  0.00654654  0.20500303  1
  Rh  Rh215  1  0.41390204  0.40313985  0.79508198  1
  Rh  Rh216  1  0.19826867  0.00832418  0.59618640  1
  Rh  Rh217  1  0.59852488  0.40595375  -0.00714661  1
  Rh  Rh218  1  0.59760062  0.39993253  0.80123607  1
  Rh  Rh219  1  0.40212569  -0.00186297  0.39554734  1
  Rh  Rh220  1  -0.00342351  0.59833142  0.20513128  1
  Rh  Rh221  1  0.59919937  0.40026521  0.20553033  1
  Rh  Rh222  1  0.19777588  0.19494916  0.20563292  1
  Rh  Rh223  1  0.19992683  0.60330796  0.40050998  1
  Rh  Rh224  1  -0.00313734  0.80672585  0.00819634  1
  Rh  Rh225  1  0.60532459  0.20804928  0.59699842  1
  Rh  Rh226  1  0.20219217  0.59342768  0.60888106  1
  Rh  Rh227  1  0.79234509  0.40563091  0.40378790  1
  Rh  Rh228  1  0.19931891  0.79212348  0.00637747  1
  Rh  Rh229  1  0.60551369  0.60611777  0.59233132  1
  Rh  Rh230  1  0.79789084  0.00978701  0.60705777  1
  Rh  Rh231  1  0.79152131  0.59338469  0.40032736  1
  Rh  Rh232  1  -0.00173699  0.39167715  0.39085921  1
  Rh  Rh233  1  0.00051960  -0.00394318  0.19119362  1
  Rh  Rh234  1  0.20709154  0.58975686  0.19627348  1
  Rh  Rh235  1  0.20041800  0.00996720  0.78897231  1
  Rh  Rh236  1  0.59728898  0.39599328  0.60570772  1
  Rh  Rh237  1  0.80284328  0.80383950  0.40126057  1
  Rh  Rh238  1  0.59237792  0.80229905  0.79474560  1
  Rh  Rh239  1  0.20840765  0.40939007  0.40429131  1
  Rh  Rh240  1  0.79710415  0.20230151  0.19189974  1
  Rh  Rh241  1  0.60805827  0.59372776  0.80779985  1
  Rh  Rh242  1  0.39433745  0.19377339  0.80992369  1
  Rh  Rh243  1  0.59777240  -0.00397521  0.58549598  1
  Rh  Rh244  1  -0.01145003  0.41095294  0.80504363  1
  Rh  Rh245  1  0.40528395  0.59835713  0.60359680  1
  Rh  Rh246  1  0.80265798  0.38914210  0.00483985  1
  Rh  Rh247  1  0.60637647  -0.00124410  0.20825512  1
  Rh  Rh248  1  0.60455613  0.80580699  0.40096312  1
  Rh  Rh249  1  0.61496360  0.79079792  0.01169880  1
