# generated using pymatgen
data_ZrScNbPdRh
_symmetry_space_group_name_H-M   'P 1'
_cell_length_a   16.56075632
_cell_length_b   16.55587369
_cell_length_c   16.55739360
_cell_angle_alpha   89.98368514
_cell_angle_beta   90.00203171
_cell_angle_gamma   89.99366020
_symmetry_Int_Tables_number   1
_chemical_formula_structural   ZrScNbPdRh
_chemical_formula_sum   'Zr50 Sc50 Nb50 Pd50 Rh50'
_cell_volume   4539.66936638
_cell_formula_units_Z   50
loop_
 _symmetry_equiv_pos_site_id
 _symmetry_equiv_pos_as_xyz
  1  'x, y, z'
loop_
 _atom_site_type_symbol
 _atom_site_label
 _atom_site_symmetry_multiplicity
 _atom_site_fract_x
 _atom_site_fract_y
 _atom_site_fract_z
 _atom_site_occupancy
  Zr  Zr0  1  0.69491677  0.89845876  0.90459330  1
  Zr  Zr1  1  0.49919457  0.09618242  0.51129183  1
  Zr  Zr2  1  0.09418336  0.70380904  0.29972770  1
  Zr  Zr3  1  0.90011643  0.29498264  0.90813442  1
  Zr  Zr4  1  0.09772619  0.89137582  0.09840873  1
  Zr  Zr5  1  0.90155286  0.29527304  0.71098853  1
  Zr  Zr6  1  0.89166484  0.90400282  0.70479768  1
  Zr  Zr7  1  0.69761775  0.09590167  0.29706376  1
  Zr  Zr8  1  0.29155552  0.08955858  0.49429102  1
  Zr  Zr9  1  0.70409246  0.30093321  0.09389157  1
  Zr  Zr10  1  0.50831724  0.89124647  0.09311142  1
  Zr  Zr11  1  0.30357574  0.10150804  0.28998636  1
  Zr  Zr12  1  0.50494897  0.09378719  0.29906683  1
  Zr  Zr13  1  0.50548852  0.50223856  0.70287058  1
  Zr  Zr14  1  0.90177234  0.30493537  0.49191006  1
  Zr  Zr15  1  0.11019058  0.90074661  0.89930599  1
  Zr  Zr16  1  0.70063070  0.50932774  0.70156842  1
  Zr  Zr17  1  0.70827563  0.30203552  0.30296148  1
  Zr  Zr18  1  0.31257255  0.49731026  0.49432829  1
  Zr  Zr19  1  0.09916883  0.30365320  0.89539243  1
  Zr  Zr20  1  0.30274001  0.69923199  0.70286303  1
  Zr  Zr21  1  0.90247860  0.89678579  0.30398986  1
  Zr  Zr22  1  0.09932098  0.29140688  0.50530981  1
  Zr  Zr23  1  0.49788309  0.31055679  0.90065769  1
  Zr  Zr24  1  0.89895760  0.70054846  0.09837526  1
  Zr  Zr25  1  0.29607194  0.89777561  0.09546695  1
  Zr  Zr26  1  0.10654961  0.69963131  0.70547300  1
  Zr  Zr27  1  0.29615489  0.30611566  0.69668202  1
  Zr  Zr28  1  0.09130921  0.49672348  0.69998974  1
  Zr  Zr29  1  0.10516616  0.10144257  0.09402281  1
  Zr  Zr30  1  0.09830588  0.10641834  0.70174258  1
  Zr  Zr31  1  0.08140304  0.49927411  0.50410067  1
  Zr  Zr32  1  0.30039618  0.29702138  0.89027644  1
  Zr  Zr33  1  0.49022185  0.10102255  0.89395027  1
  Zr  Zr34  1  0.70468211  0.10489158  0.68706454  1
  Zr  Zr35  1  0.70134221  0.30562576  0.70710489  1
  Zr  Zr36  1  0.49964073  0.89751479  0.49582650  1
  Zr  Zr37  1  0.48986457  0.30957952  0.50415392  1
  Zr  Zr38  1  0.29791220  0.89139811  0.70013921  1
  Zr  Zr39  1  0.89729971  0.10782736  0.49994642  1
  Zr  Zr40  1  0.31018030  0.50292445  0.90652528  1
  Zr  Zr41  1  0.69954431  0.10164484  0.49601694  1
  Zr  Zr42  1  0.49517305  0.30021006  0.29369920  1
  Zr  Zr43  1  0.69877506  0.29975436  0.90215840  1
  Zr  Zr44  1  0.29572559  0.30148385  0.49844114  1
  Zr  Zr45  1  0.30016943  0.30351559  0.11584358  1
  Zr  Zr46  1  0.50852349  0.70163102  0.30198195  1
  Zr  Zr47  1  0.70792629  0.50124281  0.10345583  1
  Zr  Zr48  1  0.68876911  0.49785264  0.89103293  1
  Zr  Zr49  1  0.89867163  0.49372026  0.10402763  1
  Sc  Sc50  1  0.69956045  0.70632396  0.88707198  1
  Sc  Sc51  1  0.89912549  0.89257477  0.09855196  1
  Sc  Sc52  1  0.10984647  0.90820390  0.50197585  1
  Sc  Sc53  1  0.31311527  0.70003854  0.50345432  1
  Sc  Sc54  1  0.08658045  0.29564454  0.09812618  1
  Sc  Sc55  1  0.69884147  0.89632058  0.50274244  1
  Sc  Sc56  1  0.90553601  0.30063150  0.30128040  1
  Sc  Sc57  1  0.11233315  0.10414961  0.89656789  1
  Sc  Sc58  1  0.69785113  0.70205439  0.69443063  1
  Sc  Sc59  1  0.29622372  0.69137843  0.09333674  1
  Sc  Sc60  1  0.91024364  0.50180947  0.89580837  1
  Sc  Sc61  1  0.71171940  0.50646181  0.30113035  1
  Sc  Sc62  1  0.50410537  0.09439288  0.11076065  1
  Sc  Sc63  1  0.50324481  0.29770593  0.09900473  1
  Sc  Sc64  1  0.70171095  0.89914495  0.09918475  1
  Sc  Sc65  1  0.89837332  0.49014192  0.31127269  1
  Sc  Sc66  1  0.30463298  0.50512212  0.70623064  1
  Sc  Sc67  1  0.70304385  0.70054833  0.30269245  1
  Sc  Sc68  1  0.09291323  0.49987087  0.08799077  1
  Sc  Sc69  1  0.09356409  0.89598319  0.29616487  1
  Sc  Sc70  1  0.09887830  0.69260502  0.90592710  1
  Sc  Sc71  1  0.69940803  0.90030641  0.30081562  1
  Sc  Sc72  1  0.70315736  0.89229945  0.69788881  1
  Sc  Sc73  1  0.48620757  0.50684844  0.30763732  1
  Sc  Sc74  1  0.49906890  0.69961771  0.70058538  1
  Sc  Sc75  1  0.49070020  0.30016258  0.69736248  1
  Sc  Sc76  1  0.08500261  0.69830391  0.49571934  1
  Sc  Sc77  1  0.29934362  0.69717925  0.89220584  1
  Sc  Sc78  1  0.69716415  0.50827030  0.50224110  1
  Sc  Sc79  1  0.69576356  0.70038940  0.50038113  1
  Sc  Sc80  1  0.48227049  0.49430898  0.08998142  1
  Sc  Sc81  1  0.88545621  0.90096555  0.90234691  1
  Sc  Sc82  1  0.31079078  0.90405282  0.30062089  1
  Sc  Sc83  1  0.89871282  0.70192597  0.30836941  1
  Sc  Sc84  1  0.49337690  0.89968977  0.69382217  1
  Sc  Sc85  1  0.90965888  0.10398768  0.09966123  1
  Sc  Sc86  1  0.30935815  0.09873295  0.70830670  1
  Sc  Sc87  1  0.09961948  0.50659719  0.89609551  1
  Sc  Sc88  1  0.50190580  0.50847881  0.50434175  1
  Sc  Sc89  1  0.90122073  0.09658180  0.30476659  1
  Sc  Sc90  1  0.88790462  0.69627745  0.69781898  1
  Sc  Sc91  1  0.50834305  0.90282310  0.29661318  1
  Sc  Sc92  1  0.50657955  0.69687910  0.49758448  1
  Sc  Sc93  1  0.30874171  0.69202061  0.29749238  1
  Sc  Sc94  1  0.89740018  0.69789461  0.50152943  1
  Sc  Sc95  1  0.09571071  0.70295225  0.09421754  1
  Sc  Sc96  1  0.11147047  0.90216122  0.70365695  1
  Sc  Sc97  1  0.71000127  0.29508604  0.50300589  1
  Sc  Sc98  1  0.09529452  0.10217791  0.30551098  1
  Sc  Sc99  1  0.70388862  0.09890799  0.91339104  1
  Nb  Nb100  1  0.29639298  0.30914389  0.30334201  1
  Nb  Nb101  1  0.89949579  0.09696884  0.70427407  1
  Nb  Nb102  1  0.29269087  0.48901323  0.29568439  1
  Nb  Nb103  1  0.09809315  0.50155926  0.30507259  1
  Nb  Nb104  1  0.69844775  0.69885061  0.10165249  1
  Nb  Nb105  1  0.49838493  0.89468629  0.90091707  1
  Nb  Nb106  1  0.90411753  0.50061053  0.69067562  1
  Nb  Nb107  1  0.89929653  0.30236536  0.09793697  1
  Nb  Nb108  1  0.90715648  0.09407458  0.89329079  1
  Nb  Nb109  1  0.30076270  0.89779003  0.50147885  1
  Nb  Nb110  1  0.10470976  0.30371446  0.70142007  1
  Nb  Nb111  1  0.90098976  0.70669736  0.90664645  1
  Nb  Nb112  1  0.29824416  0.09794658  0.90318348  1
  Nb  Nb113  1  0.69603502  0.10480982  0.10797646  1
  Nb  Nb114  1  0.29470655  0.49686485  0.10220154  1
  Nb  Nb115  1  0.50582284  0.70234946  0.09907787  1
  Nb  Nb116  1  0.49997402  0.50477093  0.89442341  1
  Nb  Nb117  1  0.50125267  0.70711684  0.90269744  1
  Nb  Nb118  1  0.90498322  0.89631064  0.50383869  1
  Nb  Nb119  1  0.50291039  0.10026228  0.69990910  1
  Nb  Nb120  1  0.90378495  0.50021797  0.51153958  1
  Nb  Nb121  1  0.10782378  0.30769773  0.30629659  1
  Nb  Nb122  1  0.29900669  0.09746364  0.09667075  1
  Nb  Nb123  1  0.09628422  0.10158829  0.50208880  1
  Nb  Nb124  1  0.29986340  0.90450814  0.89469498  1
  Nb  Nb125  1  0.59226995  0.20374734  0.40130575  1
  Nb  Nb126  1  0.80740124  0.40565233  0.60501289  1
  Nb  Nb127  1  0.59698423  0.19475987  0.79713095  1
  Nb  Nb128  1  0.20588971  0.79716677  0.40210927  1
  Nb  Nb129  1  -0.00253078  0.80884008  0.60638120  1
  Nb  Nb130  1  0.79565918  0.60406340  -0.00283934  1
  Nb  Nb131  1  0.39715761  0.20065267  0.39718966  1
  Nb  Nb132  1  0.40724583  0.79483502  0.19196658  1
  Nb  Nb133  1  0.59866190  0.60416790  -0.00034135  1
  Nb  Nb134  1  0.19873517  0.59735066  0.39896759  1
  Nb  Nb135  1  0.60062997  0.40717737  0.20334642  1
  Nb  Nb136  1  0.59985357  0.39824632  0.39657673  1
  Nb  Nb137  1  0.39247429  0.19414089  0.00170160  1
  Nb  Nb138  1  0.00210796  0.00034444  -0.00806521  1
  Nb  Nb139  1  0.19818635  0.59798154  0.59342119  1
  Nb  Nb140  1  0.20562867  0.39992340  0.00140563  1
  Nb  Nb141  1  -0.00292277  0.00501958  0.60179779  1
  Nb  Nb142  1  0.59635792  0.59837196  0.19220233  1
  Nb  Nb143  1  0.80086670  0.20148383  0.19349099  1
  Nb  Nb144  1  0.19574360  0.58989043  0.20435140  1
  Nb  Nb145  1  0.39531145  -0.00186531  -0.00501646  1
  Nb  Nb146  1  0.20148527  0.00094126  0.19486496  1
  Nb  Nb147  1  -0.00432314  0.80033922  0.80114979  1
  Nb  Nb148  1  0.00153021  0.59610446  0.20486368  1
  Nb  Nb149  1  0.59576537  0.00420514  0.79772456  1
  Pd  Pd150  1  0.00427999  0.40206087  0.20348432  1
  Pd  Pd151  1  0.60273575  -0.00994611  0.60571806  1
  Pd  Pd152  1  0.79893016  0.79793596  0.20362973  1
  Pd  Pd153  1  0.59853481  0.21256510  0.60001285  1
  Pd  Pd154  1  0.80882514  0.40944252  0.80165636  1
  Pd  Pd155  1  0.19602105  -0.00880879  0.38609235  1
  Pd  Pd156  1  0.79259094  0.18852236  0.80601310  1
  Pd  Pd157  1  0.19135883  0.19850926  0.20527793  1
  Pd  Pd158  1  0.40486080  0.60906474  -0.00177661  1
  Pd  Pd159  1  0.19273866  0.78895262  0.58683233  1
  Pd  Pd160  1  -0.00153123  0.20165262  0.20779874  1
  Pd  Pd161  1  0.79624883  0.80137315  0.40609879  1
  Pd  Pd162  1  0.39923514  0.59867313  0.19599702  1
  Pd  Pd163  1  -0.00647334  0.20034424  0.60356983  1
  Pd  Pd164  1  0.59805917  0.41051176  0.00828398  1
  Pd  Pd165  1  0.00507633  -0.00786823  0.80144748  1
  Pd  Pd166  1  0.78389268  0.00642117  0.80095030  1
  Pd  Pd167  1  0.58916436  0.19308398  -0.00380832  1
  Pd  Pd168  1  0.20100267  0.00696988  0.60848496  1
  Pd  Pd169  1  0.59391400  0.80725685  0.79105941  1
  Pd  Pd170  1  0.80527274  0.60135323  0.80636354  1
  Pd  Pd171  1  0.80780262  0.18974055  0.00516444  1
  Pd  Pd172  1  0.39137512  0.79814566  -0.00141751  1
  Pd  Pd173  1  0.59282126  0.00736237  -0.00188981  1
  Pd  Pd174  1  0.20558112  0.21295252  0.00263210  1
  Pd  Pd175  1  0.80848568  0.00604133  0.01132200  1
  Pd  Pd176  1  0.00422706  0.19940260  0.80570850  1
  Pd  Pd177  1  0.40293314  0.19856997  0.19704762  1
  Pd  Pd178  1  0.40234399  -0.00831379  0.79875287  1
  Pd  Pd179  1  0.80390610  0.00513644  0.19296536  1
  Pd  Pd180  1  0.19158348  0.40725492  0.41274898  1
  Pd  Pd181  1  0.80002159  -0.00535047  0.40457621  1
  Pd  Pd182  1  0.60870651  0.39865778  0.59366539  1
  Pd  Pd183  1  0.20228692  0.19792455  0.39287168  1
  Pd  Pd184  1  0.40645155  0.79709950  0.59881382  1
  Pd  Pd185  1  0.20430560  0.78949111  -0.00793224  1
  Pd  Pd186  1  0.39945084  0.79732501  0.39232247  1
  Pd  Pd187  1  -0.00683575  0.61043449  0.79603506  1
  Pd  Pd188  1  0.21346780  0.79790231  0.20967208  1
  Pd  Pd189  1  0.80366682  0.41070269  -0.01175774  1
  Pd  Pd190  1  0.38935213  0.19404091  0.59554282  1
  Pd  Pd191  1  0.18175078  0.40268010  0.18996583  1
  Pd  Pd192  1  0.00413778  -0.00308948  0.40872187  1
  Pd  Pd193  1  0.80299076  -0.00210592  0.59325091  1
  Pd  Pd194  1  0.40393224  0.00252081  0.40211952  1
  Pd  Pd195  1  0.19966131  0.41172605  0.59502158  1
  Pd  Pd196  1  0.80520286  0.59795193  0.40720978  1
  Pd  Pd197  1  0.20769978  0.19105888  0.60595097  1
  Pd  Pd198  1  0.00446269  -0.00020633  0.19181664  1
  Pd  Pd199  1  0.20178147  0.41133666  0.80641601  1
  Rh  Rh200  1  0.80400482  0.79742604  0.80057577  1
  Rh  Rh201  1  0.79146958  0.79240604  -0.00046275  1
  Rh  Rh202  1  0.61124134  0.20994185  0.20455296  1
  Rh  Rh203  1  0.80067279  0.38963217  0.20030596  1
  Rh  Rh204  1  0.39827860  0.41044186  0.60855834  1
  Rh  Rh205  1  0.79293942  0.40970969  0.41762455  1
  Rh  Rh206  1  0.40217174  0.20501852  0.80040512  1
  Rh  Rh207  1  0.00775143  0.81070424  0.40992388  1
  Rh  Rh208  1  -0.00008818  0.81264866  -0.01315085  1
  Rh  Rh209  1  0.60080895  0.00200672  0.40485798  1
  Rh  Rh210  1  0.40604224  0.40596204  0.20248623  1
  Rh  Rh211  1  0.00372945  0.39850538  -0.00572104  1
  Rh  Rh212  1  0.39540824  0.60380661  0.40024251  1
  Rh  Rh213  1  0.80388835  0.79739494  0.59561197  1
  Rh  Rh214  1  0.39793776  -0.01331711  0.18664909  1
  Rh  Rh215  1  0.40170552  0.80008321  0.80272827  1
  Rh  Rh216  1  0.38917638  0.38775891  0.00255544  1
  Rh  Rh217  1  0.20574294  0.00541902  0.79436921  1
  Rh  Rh218  1  0.40753219  0.60450765  0.80291268  1
  Rh  Rh219  1  0.39277896  -0.00323461  0.60018737  1
  Rh  Rh220  1  0.80961826  0.20950969  0.60415790  1
  Rh  Rh221  1  0.59654102  0.79915632  0.59879476  1
  Rh  Rh222  1  0.40313003  0.40394771  0.79538646  1
  Rh  Rh223  1  0.00568798  0.20469087  0.39609660  1
  Rh  Rh224  1  -0.00233776  0.19191453  -0.00855783  1
  Rh  Rh225  1  0.59256779  0.39299702  0.79469086  1
  Rh  Rh226  1  -0.01128673  0.79269416  0.20214981  1
  Rh  Rh227  1  0.20286552  0.19782400  0.79273882  1
  Rh  Rh228  1  0.19873409  -0.00305660  0.00274496  1
  Rh  Rh229  1  -0.00145125  0.39869510  0.79947836  1
  Rh  Rh230  1  -0.01041215  0.59670425  0.00671935  1
  Rh  Rh231  1  0.19833557  0.79505875  0.80819244  1
  Rh  Rh232  1  0.79767074  0.19241673  0.38850422  1
  Rh  Rh233  1  0.00581306  0.39497913  0.39954415  1
  Rh  Rh234  1  0.00168630  0.61491471  0.60849507  1
  Rh  Rh235  1  0.79692510  0.59640793  0.59687810  1
  Rh  Rh236  1  0.59385560  0.61099447  0.80484951  1
  Rh  Rh237  1  0.60392518  0.80322830  0.40128420  1
  Rh  Rh238  1  0.59912105  0.60539953  0.60324308  1
  Rh  Rh239  1  0.20064502  0.59519927  0.79555989  1
  Rh  Rh240  1  0.60849253  0.79239234  -0.00411599  1
  Rh  Rh241  1  0.80739017  0.60569103  0.19749628  1
  Rh  Rh242  1  -0.00674566  0.59571956  0.39395904  1
  Rh  Rh243  1  0.40371728  0.39629074  0.39438091  1
  Rh  Rh244  1  0.39910578  0.60000150  0.60299010  1
  Rh  Rh245  1  0.60139292  0.59285099  0.38993873  1
  Rh  Rh246  1  0.60579726  -0.01027315  0.19427808  1
  Rh  Rh247  1  -0.00524015  0.38393376  0.60740729  1
  Rh  Rh248  1  0.60216970  0.79653001  0.20303928  1
  Rh  Rh249  1  0.19971777  0.59195512  0.00458575  1
