# generated using pymatgen
data_ZrScNbPdRh
_symmetry_space_group_name_H-M   'P 1'
_cell_length_a   16.56265110
_cell_length_b   16.56692809
_cell_length_c   16.56044491
_cell_angle_alpha   89.99314101
_cell_angle_beta   89.98275097
_cell_angle_gamma   90.00747667
_symmetry_Int_Tables_number   1
_chemical_formula_structural   ZrScNbPdRh
_chemical_formula_sum   'Zr50 Sc50 Nb50 Pd50 Rh50'
_cell_volume   4544.05746011
_cell_formula_units_Z   50
loop_
 _symmetry_equiv_pos_site_id
 _symmetry_equiv_pos_as_xyz
  1  'x, y, z'
loop_
 _atom_site_type_symbol
 _atom_site_label
 _atom_site_symmetry_multiplicity
 _atom_site_fract_x
 _atom_site_fract_y
 _atom_site_fract_z
 _atom_site_occupancy
  Zr  Zr0  1  0.69727893  0.50200045  0.69791159  1
  Zr  Zr1  1  0.90470177  0.70216365  0.50462579  1
  Zr  Zr2  1  0.50474671  0.10693700  0.30483225  1
  Zr  Zr3  1  0.50982170  0.90153658  0.50391529  1
  Zr  Zr4  1  0.10079539  0.90049322  0.70885629  1
  Zr  Zr5  1  0.49999792  0.10494715  0.89307117  1
  Zr  Zr6  1  0.70114640  0.70598620  0.70572869  1
  Zr  Zr7  1  0.10396961  0.09139274  0.09351979  1
  Zr  Zr8  1  0.89507501  0.89307237  0.49512330  1
  Zr  Zr9  1  0.50818598  0.49628958  0.90166783  1
  Zr  Zr10  1  0.70415219  0.10076101  0.69652721  1
  Zr  Zr11  1  0.29770477  0.30494266  0.70523162  1
  Zr  Zr12  1  0.10034346  0.70825200  0.89114557  1
  Zr  Zr13  1  0.09608622  0.69659385  0.49693977  1
  Zr  Zr14  1  0.10981143  0.10302193  0.29813213  1
  Zr  Zr15  1  0.69887696  0.08763136  0.10152141  1
  Zr  Zr16  1  0.70057895  0.29685203  0.30287309  1
  Zr  Zr17  1  0.31240570  0.69778164  0.30390411  1
  Zr  Zr18  1  0.50369120  0.69600778  0.69952929  1
  Zr  Zr19  1  0.89808258  0.90115955  0.69430059  1
  Zr  Zr20  1  0.29865973  0.10523655  0.10612724  1
  Zr  Zr21  1  0.49398976  0.28966949  0.50853044  1
  Zr  Zr22  1  0.29328153  0.28974146  0.50740328  1
  Zr  Zr23  1  0.10198595  0.29570330  0.10028587  1
  Zr  Zr24  1  0.30338497  0.89803645  0.88925912  1
  Zr  Zr25  1  0.29712981  0.90494336  0.08883132  1
  Zr  Zr26  1  0.30611616  0.09521092  0.90122699  1
  Zr  Zr27  1  0.90551088  0.09567657  0.70038288  1
  Zr  Zr28  1  0.49781705  0.70295098  0.89922797  1
  Zr  Zr29  1  0.69564828  0.49533562  0.50168708  1
  Zr  Zr30  1  0.49634310  0.90741764  0.90563659  1
  Zr  Zr31  1  0.69531643  0.69933975  0.10036839  1
  Zr  Zr32  1  0.49649368  0.30080359  0.09836348  1
  Zr  Zr33  1  0.50804782  0.90331075  0.10057903  1
  Zr  Zr34  1  0.69305658  0.50513099  0.09876277  1
  Zr  Zr35  1  0.88570992  0.09600156  0.29759625  1
  Zr  Zr36  1  0.90275619  0.50176168  0.89200964  1
  Zr  Zr37  1  0.30617780  0.69872423  0.09793716  1
  Zr  Zr38  1  0.90397259  0.90031740  0.89493799  1
  Zr  Zr39  1  0.90146642  0.70795138  0.31174656  1
  Zr  Zr40  1  0.70340968  0.91536698  0.30332029  1
  Zr  Zr41  1  0.70331402  0.89910294  0.90465637  1
  Zr  Zr42  1  0.50514482  0.50541682  0.30428208  1
  Zr  Zr43  1  0.69473748  0.50648560  0.30310737  1
  Zr  Zr44  1  0.70089460  0.10141699  0.29874533  1
  Zr  Zr45  1  0.89350665  0.70542525  0.89310835  1
  Zr  Zr46  1  0.08692249  0.09667020  0.89898844  1
  Zr  Zr47  1  0.10606688  0.70772494  0.08492885  1
  Zr  Zr48  1  0.69909981  0.69537563  0.89831893  1
  Zr  Zr49  1  0.10002427  0.50033649  0.50480615  1
  Sc  Sc50  1  0.69842932  0.50037999  0.90311588  1
  Sc  Sc51  1  0.69440029  0.08970251  0.49211393  1
  Sc  Sc52  1  0.89429360  0.11034602  0.49983396  1
  Sc  Sc53  1  0.90493255  0.28808165  0.30244721  1
  Sc  Sc54  1  0.30144358  0.49038777  0.89221147  1
  Sc  Sc55  1  0.89671575  0.49820589  0.09759905  1
  Sc  Sc56  1  0.09883225  0.29949949  0.29604865  1
  Sc  Sc57  1  0.50748719  0.89691065  0.70077921  1
  Sc  Sc58  1  0.90065727  0.10636312  0.08829794  1
  Sc  Sc59  1  0.49706578  0.70045604  0.10654494  1
  Sc  Sc60  1  0.10250606  0.49804923  0.30401477  1
  Sc  Sc61  1  0.49394411  0.30126077  0.88913002  1
  Sc  Sc62  1  0.90572568  0.30144172  0.10018665  1
  Sc  Sc63  1  0.30607817  0.50267096  0.50656792  1
  Sc  Sc64  1  0.69864318  0.30369026  0.09594168  1
  Sc  Sc65  1  0.89186894  0.70307880  0.09315886  1
  Sc  Sc66  1  0.10175593  0.49667430  0.89507791  1
  Sc  Sc67  1  0.89592155  0.89768778  0.08898732  1
  Sc  Sc68  1  0.30118002  0.30503978  0.10518144  1
  Sc  Sc69  1  0.09655343  0.49594480  0.70625896  1
  Sc  Sc70  1  0.50217311  0.29764089  0.29785005  1
  Sc  Sc71  1  0.50005258  0.50640661  0.50725434  1
  Sc  Sc72  1  0.90003372  0.50620742  0.30058976  1
  Sc  Sc73  1  0.30515701  0.70304211  0.72080187  1
  Sc  Sc74  1  0.70467369  0.69874861  0.50586493  1
  Sc  Sc75  1  0.30419326  0.49735468  0.10256504  1
  Sc  Sc76  1  0.49868258  0.50099943  0.10167357  1
  Sc  Sc77  1  0.69251327  0.30573808  0.89843631  1
  Sc  Sc78  1  0.49959923  0.89346304  0.30022003  1
  Sc  Sc79  1  0.29923560  0.70056263  0.90593120  1
  Sc  Sc80  1  0.29682211  0.28885995  0.29579568  1
  Sc  Sc81  1  0.10063149  0.30610812  0.88957528  1
  Sc  Sc82  1  0.69184633  0.29933086  0.69253491  1
  Sc  Sc83  1  0.09420041  0.09613902  0.69672683  1
  Sc  Sc84  1  0.90318669  0.70256609  0.70518793  1
  Sc  Sc85  1  0.49667067  0.49587126  0.69992104  1
  Sc  Sc86  1  0.70382694  0.29968738  0.50823669  1
  Sc  Sc87  1  0.90866095  0.29780880  0.90883192  1
  Sc  Sc88  1  0.11114093  0.10128079  0.49910572  1
  Sc  Sc89  1  0.29046253  0.10000069  0.70445910  1
  Sc  Sc90  1  0.90626033  0.50353816  0.50579223  1
  Sc  Sc91  1  0.29653970  0.90478200  0.49617032  1
  Sc  Sc92  1  0.29926053  0.50077283  0.30205577  1
  Sc  Sc93  1  0.10311330  0.90284788  0.30718927  1
  Sc  Sc94  1  0.10634682  0.48853904  0.10380728  1
  Sc  Sc95  1  0.30060171  0.89906553  0.30363137  1
  Sc  Sc96  1  0.30897098  0.69043801  0.49451683  1
  Sc  Sc97  1  0.09530939  0.90581685  0.50684682  1
  Sc  Sc98  1  0.90393393  0.50984001  0.69985569  1
  Sc  Sc99  1  0.49777929  0.09866707  0.09725921  1
  Nb  Nb100  1  0.90167338  0.30103014  0.49988982  1
  Nb  Nb101  1  0.10254328  0.70011930  0.30206401  1
  Nb  Nb102  1  0.69688468  0.90055944  0.68502758  1
  Nb  Nb103  1  0.09661880  0.30329745  0.50403748  1
  Nb  Nb104  1  0.70350076  0.10133582  0.89900268  1
  Nb  Nb105  1  0.89949426  0.90123545  0.29918656  1
  Nb  Nb106  1  0.29691817  0.10082132  0.30680970  1
  Nb  Nb107  1  0.09795525  0.90023439  0.09122876  1
  Nb  Nb108  1  0.09876938  0.89842289  0.91375741  1
  Nb  Nb109  1  0.29790242  0.29494395  0.89352899  1
  Nb  Nb110  1  0.49910210  0.69820715  0.31072532  1
  Nb  Nb111  1  0.69579036  0.89776832  0.50777187  1
  Nb  Nb112  1  0.30306554  0.50327302  0.69811320  1
  Nb  Nb113  1  0.69599325  0.69308098  0.30000206  1
  Nb  Nb114  1  0.49349522  0.70261321  0.49497168  1
  Nb  Nb115  1  0.69655829  0.90078702  0.10529134  1
  Nb  Nb116  1  0.50064165  0.28765441  0.70270230  1
  Nb  Nb117  1  0.49338799  0.09860112  0.50176572  1
  Nb  Nb118  1  0.89702547  0.28963659  0.68664673  1
  Nb  Nb119  1  0.10253773  0.69980752  0.70139015  1
  Nb  Nb120  1  0.50710610  0.10912578  0.69902794  1
  Nb  Nb121  1  0.89602672  0.10174423  0.89536154  1
  Nb  Nb122  1  0.30101509  0.10381662  0.49008860  1
  Nb  Nb123  1  0.30252101  0.89866281  0.69763416  1
  Nb  Nb124  1  0.10221718  0.29655103  0.68655674  1
  Nb  Nb125  1  0.00733225  0.61138878  0.19525467  1
  Nb  Nb126  1  0.39723636  0.39297136  0.40526142  1
  Nb  Nb127  1  0.20311217  0.20175272  -0.00760927  1
  Nb  Nb128  1  0.19774310  0.60950784  0.20129234  1
  Nb  Nb129  1  0.40122025  0.00478384  0.59863739  1
  Nb  Nb130  1  0.00282915  0.60222297  -0.00091482  1
  Nb  Nb131  1  0.20512306  0.79480634  0.60309072  1
  Nb  Nb132  1  0.00168046  0.80276603  0.19994684  1
  Nb  Nb133  1  0.79605722  0.80337403  0.20549770  1
  Nb  Nb134  1  0.20082688  0.39436824  0.40981168  1
  Nb  Nb135  1  0.40067385  0.00785509  0.40175856  1
  Nb  Nb136  1  0.19576797  0.79768693  0.20058339  1
  Nb  Nb137  1  0.80566819  0.39168326  0.79233472  1
  Nb  Nb138  1  0.79559034  0.40231638  0.20792742  1
  Nb  Nb139  1  0.19951630  0.79206662  0.40219528  1
  Nb  Nb140  1  0.20231502  0.60585816  0.60921603  1
  Nb  Nb141  1  0.60276340  0.79419478  0.40037956  1
  Nb  Nb142  1  0.60058412  0.19548747  -0.00600592  1
  Nb  Nb143  1  0.80428054  0.20173339  0.80009929  1
  Nb  Nb144  1  0.39663660  0.80333046  0.60114270  1
  Nb  Nb145  1  -0.00612721  0.00268130  0.39380634  1
  Nb  Nb146  1  0.80393684  0.39689174  0.40122221  1
  Nb  Nb147  1  0.39636727  0.00527134  0.20649946  1
  Nb  Nb148  1  0.60685619  0.00418764  0.79727895  1
  Nb  Nb149  1  -0.00092141  -0.00679758  0.19964300  1
  Pd  Pd150  1  0.59906316  0.79657709  -0.00005635  1
  Pd  Pd151  1  0.19213720  0.19712061  0.80175028  1
  Pd  Pd152  1  0.20088417  0.59417846  0.79877145  1
  Pd  Pd153  1  0.60754186  0.19408303  0.59027334  1
  Pd  Pd154  1  0.80833447  0.60300598  0.19986783  1
  Pd  Pd155  1  0.38914249  0.19064410  0.61171237  1
  Pd  Pd156  1  0.20606358  -0.00133039  0.59863313  1
  Pd  Pd157  1  0.39868670  0.40127813  0.21261322  1
  Pd  Pd158  1  -0.00761258  0.40686079  0.20477257  1
  Pd  Pd159  1  0.40964685  0.00226121  0.78415074  1
  Pd  Pd160  1  -0.00729703  0.38904405  0.78839480  1
  Pd  Pd161  1  0.39910191  0.20569500  -0.00207198  1
  Pd  Pd162  1  0.60126811  0.80929280  0.80290810  1
  Pd  Pd163  1  0.39730674  0.39764378  -0.00583195  1
  Pd  Pd164  1  0.60293583  0.40078305  0.19741347  1
  Pd  Pd165  1  0.39515468  0.81002958  0.19613444  1
  Pd  Pd166  1  0.20602280  0.39408348  -0.00310087  1
  Pd  Pd167  1  0.79344021  0.20819832  -0.00511730  1
  Pd  Pd168  1  0.80443296  -0.00080318  0.00095369  1
  Pd  Pd169  1  0.79960016  0.20764872  0.18906332  1
  Pd  Pd170  1  -0.00578285  0.40146187  0.60777008  1
  Pd  Pd171  1  0.78589003  0.80091088  0.39740828  1
  Pd  Pd172  1  0.20094287  -0.01019421  0.20393134  1
  Pd  Pd173  1  0.19792283  0.58726908  0.00172320  1
  Pd  Pd174  1  -0.00151808  0.39887822  0.39593043  1
  Pd  Pd175  1  0.40371838  0.39666025  0.60090950  1
  Pd  Pd176  1  -0.00068333  0.18808574  0.19642467  1
  Pd  Pd177  1  -0.00272758  0.20893116  0.79675118  1
  Pd  Pd178  1  0.60050927  0.19762933  0.18839325  1
  Pd  Pd179  1  0.40275660  0.59436923  0.80621390  1
  Pd  Pd180  1  0.80037522  0.39863567  -0.00253726  1
  Pd  Pd181  1  0.00569769  0.80105815  0.60491789  1
  Pd  Pd182  1  0.60549337  0.79895974  0.21043851  1
  Pd  Pd183  1  0.79561177  -0.00164865  0.79705169  1
  Pd  Pd184  1  0.00612427  0.19222210  0.59132814  1
  Pd  Pd185  1  0.80116985  0.59310389  0.40824337  1
  Pd  Pd186  1  0.80326564  0.00360250  0.59008003  1
  Pd  Pd187  1  0.60310058  0.39811479  0.79268745  1
  Pd  Pd188  1  0.00569699  0.19214723  0.40286291  1
  Pd  Pd189  1  0.80724251  0.40252279  0.60014336  1
  Pd  Pd190  1  0.80249310  0.60514054  0.60393554  1
  Pd  Pd191  1  0.20122408  0.40865137  0.60230057  1
  Pd  Pd192  1  0.60006720  0.60419262  0.59751021  1
  Pd  Pd193  1  0.80466837  0.59691040  -0.00356576  1
  Pd  Pd194  1  0.60466823  0.20405571  0.40969921  1
  Pd  Pd195  1  0.00366815  0.40685975  0.00168387  1
  Pd  Pd196  1  0.19391451  -0.00019586  0.80545248  1
  Pd  Pd197  1  -0.00030266  0.59381041  0.39534279  1
  Pd  Pd198  1  0.59507707  0.39096649  0.41061299  1
  Pd  Pd199  1  0.40266481  0.59279789  -0.00487690  1
  Rh  Rh200  1  0.40039401  0.19457933  0.20416529  1
  Rh  Rh201  1  0.19943913  -0.00519927  0.40206688  1
  Rh  Rh202  1  0.59234815  -0.00588070  0.39589408  1
  Rh  Rh203  1  0.40215739  0.80173583  0.00018772  1
  Rh  Rh204  1  0.59002390  0.00250660  0.20644567  1
  Rh  Rh205  1  0.00789091  0.60247845  0.60773340  1
  Rh  Rh206  1  0.60190524  0.00670414  -0.00844920  1
  Rh  Rh207  1  0.80409317  -0.00161449  0.40965940  1
  Rh  Rh208  1  0.39938400  0.59653164  0.20341070  1
  Rh  Rh209  1  0.40338228  0.58489608  0.40052429  1
  Rh  Rh210  1  -0.00749287  0.00595801  0.58599928  1
  Rh  Rh211  1  0.59991086  0.59541342  0.80112326  1
  Rh  Rh212  1  0.60002091  0.60873807  0.41006489  1
  Rh  Rh213  1  0.20242562  0.40502220  0.21106009  1
  Rh  Rh214  1  0.19919644  0.39945727  0.79229097  1
  Rh  Rh215  1  0.79671549  0.19634702  0.59889849  1
  Rh  Rh216  1  0.40221469  0.81210113  0.41106176  1
  Rh  Rh217  1  0.79566524  0.81031143  0.79227861  1
  Rh  Rh218  1  -0.00800973  0.79430090  -0.00204792  1
  Rh  Rh219  1  0.80936100  -0.00704066  0.18665577  1
  Rh  Rh220  1  0.00071279  -0.00576827  0.80324214  1
  Rh  Rh221  1  0.20170835  0.59545665  0.40335310  1
  Rh  Rh222  1  0.00321407  0.60514862  0.80594694  1
  Rh  Rh223  1  0.19700796  0.19407529  0.60294201  1
  Rh  Rh224  1  0.00863857  0.20184665  -0.00179074  1
  Rh  Rh225  1  0.19944944  0.80521423  0.80042820  1
  Rh  Rh226  1  0.59246295  0.60467804  0.00106349  1
  Rh  Rh227  1  0.59607244  0.78855631  0.59326144  1
  Rh  Rh228  1  0.20903305  0.80576546  -0.00620680  1
  Rh  Rh229  1  0.79485418  0.20803861  0.40761805  1
  Rh  Rh230  1  0.40879619  0.80303099  0.79730350  1
  Rh  Rh231  1  0.19179640  0.21045345  0.40139681  1
  Rh  Rh232  1  0.58983591  0.60422542  0.19835503  1
  Rh  Rh233  1  0.59283375  0.39230902  0.00140138  1
  Rh  Rh234  1  0.39397060  0.61203914  0.60919624  1
  Rh  Rh235  1  -0.00938668  0.00096400  0.00144083  1
  Rh  Rh236  1  0.79126948  0.80195422  0.00611061  1
  Rh  Rh237  1  0.40189212  0.00151552  0.00813627  1
  Rh  Rh238  1  0.39356341  0.20008186  0.79329247  1
  Rh  Rh239  1  0.80069314  0.79657993  0.60460738  1
  Rh  Rh240  1  0.20206234  0.00490200  -0.01136540  1
  Rh  Rh241  1  0.59527180  0.00797464  0.60769647  1
  Rh  Rh242  1  0.00946425  0.81063681  0.39890113  1
  Rh  Rh243  1  0.19906862  0.20272507  0.19338332  1
  Rh  Rh244  1  0.40105225  0.39851683  0.79535752  1
  Rh  Rh245  1  0.00146592  0.80493049  0.79813591  1
  Rh  Rh246  1  0.79440579  0.58978707  0.79835405  1
  Rh  Rh247  1  0.60993910  0.19712099  0.80449338  1
  Rh  Rh248  1  0.40036053  0.20312437  0.39479758  1
  Rh  Rh249  1  0.58909736  0.39644383  0.60248736  1
