# generated using pymatgen
data_ZrScNbPdRh
_symmetry_space_group_name_H-M   'P 1'
_cell_length_a   16.56043118
_cell_length_b   16.55871451
_cell_length_c   16.56360335
_cell_angle_alpha   90.04413171
_cell_angle_beta   89.97077562
_cell_angle_gamma   90.01934778
_symmetry_Int_Tables_number   1
_chemical_formula_structural   ZrScNbPdRh
_chemical_formula_sum   'Zr50 Sc50 Nb50 Pd50 Rh50'
_cell_volume   4542.06003878
_cell_formula_units_Z   50
loop_
 _symmetry_equiv_pos_site_id
 _symmetry_equiv_pos_as_xyz
  1  'x, y, z'
loop_
 _atom_site_type_symbol
 _atom_site_label
 _atom_site_symmetry_multiplicity
 _atom_site_fract_x
 _atom_site_fract_y
 _atom_site_fract_z
 _atom_site_occupancy
  Zr  Zr0  1  0.30217293  0.89589026  0.51230231  1
  Zr  Zr1  1  0.70339919  0.70101481  0.50603737  1
  Zr  Zr2  1  0.49198143  0.30358803  0.49850467  1
  Zr  Zr3  1  0.69685340  0.90144587  0.10098696  1
  Zr  Zr4  1  0.49936437  0.10331364  0.50973053  1
  Zr  Zr5  1  0.29386954  0.11045566  0.89190477  1
  Zr  Zr6  1  0.11181358  0.29735533  0.90160989  1
  Zr  Zr7  1  0.70041541  0.09282123  0.89596111  1
  Zr  Zr8  1  0.70283997  0.30190557  0.49862346  1
  Zr  Zr9  1  0.90174757  0.70656417  0.90551686  1
  Zr  Zr10  1  0.49517982  0.90360947  0.68965647  1
  Zr  Zr11  1  0.50374860  0.69036066  0.49225771  1
  Zr  Zr12  1  0.10065032  0.49357296  0.70624489  1
  Zr  Zr13  1  0.31151038  0.49764356  0.49996106  1
  Zr  Zr14  1  0.50207175  0.49777330  0.09055080  1
  Zr  Zr15  1  0.69839351  0.90139782  0.49537437  1
  Zr  Zr16  1  0.69800790  0.49259066  0.30337304  1
  Zr  Zr17  1  0.70946557  0.10160818  0.50299763  1
  Zr  Zr18  1  0.30364280  0.09970146  0.69599979  1
  Zr  Zr19  1  0.70165239  0.90239199  0.70112522  1
  Zr  Zr20  1  0.09455398  0.89481676  0.29980286  1
  Zr  Zr21  1  0.50328219  0.69211643  0.89593453  1
  Zr  Zr22  1  0.50067195  0.29688599  0.70279941  1
  Zr  Zr23  1  0.89737369  0.70375840  0.09580196  1
  Zr  Zr24  1  0.50282232  0.50600428  0.31434320  1
  Zr  Zr25  1  0.09620355  0.69447366  0.90228224  1
  Zr  Zr26  1  0.69315171  0.09418446  0.30021345  1
  Zr  Zr27  1  0.90786400  0.49678396  0.70442244  1
  Zr  Zr28  1  0.10096264  0.30324973  0.09514629  1
  Zr  Zr29  1  0.29933801  0.29923249  0.71974387  1
  Zr  Zr30  1  0.89999176  0.10153250  0.70122947  1
  Zr  Zr31  1  0.10021941  0.30362236  0.30598928  1
  Zr  Zr32  1  0.10051760  0.09016738  0.30006524  1
  Zr  Zr33  1  0.29594892  0.90460864  0.29905854  1
  Zr  Zr34  1  0.69906327  0.29843588  0.69898414  1
  Zr  Zr35  1  0.29943877  0.09990127  0.10369552  1
  Zr  Zr36  1  0.69450575  0.29809460  0.88676375  1
  Zr  Zr37  1  0.09988014  0.50636233  0.29385647  1
  Zr  Zr38  1  0.30017026  0.70226589  0.50177972  1
  Zr  Zr39  1  0.09623666  0.10138755  0.68734972  1
  Zr  Zr40  1  0.29861003  0.10814023  0.49909550  1
  Zr  Zr41  1  0.10385097  0.09944429  0.10362983  1
  Zr  Zr42  1  0.08861976  0.89125463  0.89603302  1
  Zr  Zr43  1  0.90266016  0.09636113  0.10040983  1
  Zr  Zr44  1  0.50423494  0.10100552  0.10543695  1
  Zr  Zr45  1  0.89313413  0.29080791  0.49311539  1
  Zr  Zr46  1  0.71017942  0.70559857  0.09562565  1
  Zr  Zr47  1  0.10264318  0.89949267  0.49724688  1
  Zr  Zr48  1  0.29400845  0.49665010  0.70374131  1
  Zr  Zr49  1  0.29801507  0.30443160  0.09256431  1
  Sc  Sc50  1  0.09699404  0.69231630  0.09669070  1
  Sc  Sc51  1  0.50788017  0.90024589  0.30658459  1
  Sc  Sc52  1  0.89308790  0.49483067  0.29052112  1
  Sc  Sc53  1  0.90161777  0.89980150  0.29534829  1
  Sc  Sc54  1  0.70275583  0.90014538  0.89966876  1
  Sc  Sc55  1  0.89808015  0.90133802  0.49665988  1
  Sc  Sc56  1  0.50389958  0.29713687  0.10570861  1
  Sc  Sc57  1  0.49262186  0.70529997  0.08672277  1
  Sc  Sc58  1  0.70629744  0.70536990  0.30362070  1
  Sc  Sc59  1  0.90447497  0.70946928  0.29332207  1
  Sc  Sc60  1  0.49904174  0.30944319  0.89448342  1
  Sc  Sc61  1  0.10157153  0.29373472  0.50479754  1
  Sc  Sc62  1  0.10320674  0.68467754  0.70268822  1
  Sc  Sc63  1  0.29865692  0.69349012  0.69240941  1
  Sc  Sc64  1  0.49962495  0.90013166  0.09264220  1
  Sc  Sc65  1  0.69330006  0.10145129  0.69864069  1
  Sc  Sc66  1  0.09284044  0.90169462  0.10596643  1
  Sc  Sc67  1  0.70062060  0.90370407  0.30575367  1
  Sc  Sc68  1  0.30402656  0.29578954  0.30544790  1
  Sc  Sc69  1  0.90078653  0.30506323  0.10532980  1
  Sc  Sc70  1  0.50638422  0.09884891  0.90124144  1
  Sc  Sc71  1  0.89731636  0.49658696  0.51343599  1
  Sc  Sc72  1  0.69868834  0.70742700  0.90113611  1
  Sc  Sc73  1  0.08880075  0.10576965  0.90067855  1
  Sc  Sc74  1  0.50391916  0.29954072  0.29572353  1
  Sc  Sc75  1  0.30928748  0.70230628  0.30347060  1
  Sc  Sc76  1  0.90765079  0.90271521  0.70622224  1
  Sc  Sc77  1  0.90067907  0.69366812  0.69423323  1
  Sc  Sc78  1  0.90836166  0.50261407  0.90137282  1
  Sc  Sc79  1  0.49800756  0.10680922  0.29907112  1
  Sc  Sc80  1  0.69642715  0.70665193  0.70061753  1
  Sc  Sc81  1  0.50405440  0.89629041  0.49971469  1
  Sc  Sc82  1  0.11017524  0.48631632  0.50789739  1
  Sc  Sc83  1  0.29521334  0.30857776  0.49954315  1
  Sc  Sc84  1  0.90368325  0.10162450  0.50395257  1
  Sc  Sc85  1  0.49059668  0.50473236  0.70563523  1
  Sc  Sc86  1  0.69301957  0.09843129  0.10414015  1
  Sc  Sc87  1  0.90331737  0.50368722  0.09837057  1
  Sc  Sc88  1  0.69533202  0.29822161  0.10951324  1
  Sc  Sc89  1  0.50141987  0.89746639  0.90908565  1
  Sc  Sc90  1  0.89513037  0.10102640  0.30952640  1
  Sc  Sc91  1  0.29490730  0.69264955  0.91079901  1
  Sc  Sc92  1  0.89899963  0.89651830  0.10152428  1
  Sc  Sc93  1  0.70216289  0.49655226  0.69772632  1
  Sc  Sc94  1  0.30968220  0.88786482  0.08849708  1
  Sc  Sc95  1  0.68318201  0.49787375  0.89793867  1
  Sc  Sc96  1  0.29474854  0.10651071  0.29711281  1
  Sc  Sc97  1  0.10330336  0.50444966  0.90110315  1
  Sc  Sc98  1  0.70995463  0.30532501  0.30100248  1
  Sc  Sc99  1  0.70380689  0.49474832  0.10387525  1
  Nb  Nb100  1  0.89781925  0.29265271  0.89599783  1
  Nb  Nb101  1  0.09862606  0.70490569  0.49037706  1
  Nb  Nb102  1  0.10172937  0.30711237  0.70387011  1
  Nb  Nb103  1  0.90018776  0.29977637  0.30403879  1
  Nb  Nb104  1  0.69150779  0.50173868  0.49327147  1
  Nb  Nb105  1  0.49183469  0.50189392  0.90181102  1
  Nb  Nb106  1  0.50230881  0.69973884  0.29912951  1
  Nb  Nb107  1  0.10491668  0.89638300  0.69305514  1
  Nb  Nb108  1  0.49544896  0.10336949  0.70032822  1
  Nb  Nb109  1  0.29763836  0.89981708  0.89581628  1
  Nb  Nb110  1  0.29958316  0.50772455  0.09543357  1
  Nb  Nb111  1  0.10586509  0.50160762  0.10037585  1
  Nb  Nb112  1  0.30085838  0.30078218  0.90301567  1
  Nb  Nb113  1  0.29807694  0.89554374  0.69617735  1
  Nb  Nb114  1  0.49791917  0.70486444  0.70231426  1
  Nb  Nb115  1  0.89873479  0.30554150  0.70638895  1
  Nb  Nb116  1  0.10066740  0.70094264  0.30019902  1
  Nb  Nb117  1  0.90451641  0.69761177  0.50009467  1
  Nb  Nb118  1  0.89857830  0.90942441  0.89924996  1
  Nb  Nb119  1  0.29719468  0.69498916  0.10130253  1
  Nb  Nb120  1  0.09281314  0.10128804  0.49920782  1
  Nb  Nb121  1  0.50739428  0.49909357  0.49795785  1
  Nb  Nb122  1  0.89737981  0.09721018  0.89962704  1
  Nb  Nb123  1  0.29659915  0.50418390  0.29944091  1
  Nb  Nb124  1  0.30829731  0.48937606  0.90812041  1
  Nb  Nb125  1  0.39512683  0.80182953  0.79695792  1
  Nb  Nb126  1  0.39726704  0.20338607  -0.00301681  1
  Nb  Nb127  1  0.39440651  0.41224317  0.19881800  1
  Nb  Nb128  1  0.40069580  0.59947628  0.19768203  1
  Nb  Nb129  1  0.59512950  0.40466011  0.59315234  1
  Nb  Nb130  1  0.00012818  0.20135370  0.20684578  1
  Nb  Nb131  1  0.20245258  0.80327332  0.79713828  1
  Nb  Nb132  1  0.59710816  0.79294349  0.19963394  1
  Nb  Nb133  1  0.19696636  0.60158002  0.39790545  1
  Nb  Nb134  1  0.20454815  0.40971948  0.19682507  1
  Nb  Nb135  1  0.80053940  0.38938749  -0.00859094  1
  Nb  Nb136  1  0.60312451  0.20045729  0.40670902  1
  Nb  Nb137  1  0.20057455  -0.00417606  -0.00945171  1
  Nb  Nb138  1  0.20184237  0.79115646  0.19859008  1
  Nb  Nb139  1  0.59499865  0.60628934  0.20071889  1
  Nb  Nb140  1  0.00700900  0.79595959  0.59433041  1
  Nb  Nb141  1  0.19897037  -0.00715888  0.79562435  1
  Nb  Nb142  1  0.80541011  0.59965445  0.40711508  1
  Nb  Nb143  1  0.39456409  -0.00447242  0.79647599  1
  Nb  Nb144  1  0.00028620  0.59871930  0.40230802  1
  Nb  Nb145  1  0.80311280  0.20034353  -0.00704595  1
  Nb  Nb146  1  0.39948789  -0.00168358  0.20245224  1
  Nb  Nb147  1  0.80079344  0.60029256  0.80229583  1
  Nb  Nb148  1  -0.00393966  0.40190338  0.39882489  1
  Nb  Nb149  1  0.39709893  0.00299276  0.40152684  1
  Pd  Pd150  1  0.79354583  0.58608238  -0.01051967  1
  Pd  Pd151  1  0.80066339  0.41127983  0.80805304  1
  Pd  Pd152  1  0.59713715  0.59575719  0.61074138  1
  Pd  Pd153  1  0.00277317  0.78983810  0.78701786  1
  Pd  Pd154  1  0.00409917  -0.00428947  0.00002763  1
  Pd  Pd155  1  0.79684477  0.00262382  0.00396564  1
  Pd  Pd156  1  0.79588429  0.59688614  0.60328982  1
  Pd  Pd157  1  0.79545378  0.40107983  0.59873448  1
  Pd  Pd158  1  0.40305567  0.80056584  0.19909678  1
  Pd  Pd159  1  0.20566298  0.79672666  0.39270555  1
  Pd  Pd160  1  0.39046779  0.21197699  0.60179353  1
  Pd  Pd161  1  -0.00237421  0.38855462  0.59370039  1
  Pd  Pd162  1  0.39558363  0.01023171  -0.00374442  1
  Pd  Pd163  1  0.80585560  -0.00426323  0.60423016  1
  Pd  Pd164  1  0.59142510  0.80794434  0.80145279  1
  Pd  Pd165  1  0.60725552  0.60280387  0.00629779  1
  Pd  Pd166  1  0.19435994  0.19896878  0.40179344  1
  Pd  Pd167  1  -0.00731721  0.20371496  0.00706807  1
  Pd  Pd168  1  -0.00638758  0.00018651  0.40300933  1
  Pd  Pd169  1  0.60019487  0.20461927  -0.00458952  1
  Pd  Pd170  1  0.80372448  0.19962350  0.19652194  1
  Pd  Pd171  1  0.20444960  0.20869666  0.60388922  1
  Pd  Pd172  1  0.79483583  0.60150309  0.20843086  1
  Pd  Pd173  1  0.19370242  0.80273908  0.00321743  1
  Pd  Pd174  1  0.40617048  0.59995715  0.60002336  1
  Pd  Pd175  1  0.60269907  0.00203287  0.59859894  1
  Pd  Pd176  1  0.01123181  0.60040269  0.59288826  1
  Pd  Pd177  1  0.81109535  0.80603657  0.60516375  1
  Pd  Pd178  1  0.60504816  0.39076377  0.00085704  1
  Pd  Pd179  1  0.20495465  0.00279728  0.40831767  1
  Pd  Pd180  1  0.19677534  0.21156712  0.20343804  1
  Pd  Pd181  1  0.38957036  0.60661968  0.80402987  1
  Pd  Pd182  1  -0.00606657  0.21111796  0.60447592  1
  Pd  Pd183  1  0.79796051  0.19239680  0.79750443  1
  Pd  Pd184  1  0.60620978  0.59704096  0.79182763  1
  Pd  Pd185  1  0.19480447  0.59802492  0.59079229  1
  Pd  Pd186  1  0.39940757  0.39837430  0.39152534  1
  Pd  Pd187  1  0.40370389  0.80729552  0.40219716  1
  Pd  Pd188  1  0.80221076  -0.00276425  0.20346184  1
  Pd  Pd189  1  0.00680696  0.00396730  0.79530278  1
  Pd  Pd190  1  0.00400321  0.20444331  0.79517518  1
  Pd  Pd191  1  0.59008377  -0.00556107  0.79939146  1
  Pd  Pd192  1  0.59626627  0.79787740  0.59771289  1
  Pd  Pd193  1  0.19835514  0.00379892  0.59615184  1
  Pd  Pd194  1  -0.00606812  0.60514022  0.19914575  1
  Pd  Pd195  1  0.80667685  0.79725425  0.39915127  1
  Pd  Pd196  1  -0.00316906  0.39991854  -0.00559733  1
  Pd  Pd197  1  0.00280252  0.39761265  0.20259457  1
  Pd  Pd198  1  0.00486665  0.39464532  0.81251700  1
  Pd  Pd199  1  0.80527578  0.79601393  0.79808651  1
  Rh  Rh200  1  0.18605723  0.19362675  0.79126904  1
  Rh  Rh201  1  0.19794802  0.59401981  -0.00253921  1
  Rh  Rh202  1  0.80462636  0.81310405  -0.00637103  1
  Rh  Rh203  1  0.39898126  0.20187525  0.19153267  1
  Rh  Rh204  1  0.40094962  0.40384210  0.80208104  1
  Rh  Rh205  1  0.79182375  0.19390319  0.39372585  1
  Rh  Rh206  1  -0.00653191  0.79765773  0.40208856  1
  Rh  Rh207  1  0.58874301  -0.01029892  0.19851404  1
  Rh  Rh208  1  0.19873945  0.40945024  -0.00056939  1
  Rh  Rh209  1  0.20780600  0.60487395  0.20380047  1
  Rh  Rh210  1  0.20774057  0.59860753  0.80738608  1
  Rh  Rh211  1  0.39891512  0.00254900  0.59693306  1
  Rh  Rh212  1  0.00477814  0.20135947  0.39643648  1
  Rh  Rh213  1  -0.00441633  0.80420105  0.00501559  1
  Rh  Rh214  1  0.60692993  0.20382967  0.21334187  1
  Rh  Rh215  1  0.61403742  0.60928029  0.39428071  1
  Rh  Rh216  1  0.59824033  0.38763676  0.40302012  1
  Rh  Rh217  1  0.80689319  0.20395336  0.61050954  1
  Rh  Rh218  1  0.21329568  -0.01948368  0.18119750  1
  Rh  Rh219  1  0.00159804  0.59713198  0.00611782  1
  Rh  Rh220  1  0.19550426  0.40750960  0.39346483  1
  Rh  Rh221  1  -0.00067620  -0.00876882  0.59523771  1
  Rh  Rh222  1  0.20383891  0.19149563  0.00142489  1
  Rh  Rh223  1  0.59480224  0.19384746  0.79930979  1
  Rh  Rh224  1  0.20585933  0.39264458  0.60852911  1
  Rh  Rh225  1  0.19931055  0.40540330  0.80957864  1
  Rh  Rh226  1  0.40336931  0.40098903  0.60625440  1
  Rh  Rh227  1  0.80260248  0.00010230  0.40183418  1
  Rh  Rh228  1  0.00843639  0.79468452  0.19454546  1
  Rh  Rh229  1  0.39370100  0.60076713  0.39927516  1
  Rh  Rh230  1  0.39931513  0.60138319  -0.00046583  1
  Rh  Rh231  1  0.59228708  0.40860287  0.20440117  1
  Rh  Rh232  1  0.40724385  0.78859843  0.60019430  1
  Rh  Rh233  1  0.40575767  0.19545842  0.40105742  1
  Rh  Rh234  1  0.60346341  0.79884390  0.00347140  1
  Rh  Rh235  1  0.59027479  0.40899324  0.78905352  1
  Rh  Rh236  1  0.79087547  0.80694824  0.20201004  1
  Rh  Rh237  1  0.80197638  0.39736587  0.19064148  1
  Rh  Rh238  1  0.40539724  0.39386212  0.00460352  1
  Rh  Rh239  1  -0.00879182  0.00741386  0.20562089  1
  Rh  Rh240  1  0.80178272  0.00058625  0.79577155  1
  Rh  Rh241  1  0.60492854  0.00052520  0.00016609  1
  Rh  Rh242  1  0.41094105  0.19421782  0.81014390  1
  Rh  Rh243  1  0.81050977  0.41218319  0.40507712  1
  Rh  Rh244  1  0.39967651  0.78989337  -0.01367406  1
  Rh  Rh245  1  0.59279927  0.01157583  0.40711455  1
  Rh  Rh246  1  0.59930515  0.20784418  0.59724791  1
  Rh  Rh247  1  0.19014697  0.78686532  0.60743639  1
  Rh  Rh248  1  0.60314017  0.79430355  0.39772518  1
  Rh  Rh249  1  -0.00823254  0.60339964  0.80178746  1
