# generated using pymatgen
data_ZrScNbPdRh
_symmetry_space_group_name_H-M   'P 1'
_cell_length_a   16.55814468
_cell_length_b   16.55442090
_cell_length_c   16.55550072
_cell_angle_alpha   89.96914008
_cell_angle_beta   89.99064591
_cell_angle_gamma   89.99835686
_symmetry_Int_Tables_number   1
_chemical_formula_structural   ZrScNbPdRh
_chemical_formula_sum   'Zr50 Sc50 Nb50 Pd50 Rh50'
_cell_volume   4538.03579785
_cell_formula_units_Z   50
loop_
 _symmetry_equiv_pos_site_id
 _symmetry_equiv_pos_as_xyz
  1  'x, y, z'
loop_
 _atom_site_type_symbol
 _atom_site_label
 _atom_site_symmetry_multiplicity
 _atom_site_fract_x
 _atom_site_fract_y
 _atom_site_fract_z
 _atom_site_occupancy
  Zr  Zr0  1  0.50212581  0.90663116  0.29983332  1
  Zr  Zr1  1  0.50286833  0.10154128  0.90505211  1
  Zr  Zr2  1  0.69951498  0.49934561  0.89755794  1
  Zr  Zr3  1  0.09895933  0.90161736  0.50029310  1
  Zr  Zr4  1  0.29998515  0.90091744  0.30348384  1
  Zr  Zr5  1  0.10507258  0.50411221  0.29928590  1
  Zr  Zr6  1  0.50260228  0.69339994  0.09904089  1
  Zr  Zr7  1  0.89235236  0.50161007  0.90537532  1
  Zr  Zr8  1  0.09365446  0.28653789  0.10422084  1
  Zr  Zr9  1  0.49983166  0.09649512  0.68412007  1
  Zr  Zr10  1  0.30555441  0.29890962  0.09452771  1
  Zr  Zr11  1  0.10315734  0.30050438  0.30146459  1
  Zr  Zr12  1  0.91394722  0.09680439  0.09747651  1
  Zr  Zr13  1  0.70661015  0.30044596  0.49996953  1
  Zr  Zr14  1  0.09812758  0.09880617  0.48992614  1
  Zr  Zr15  1  0.69411637  0.30224393  0.10647685  1
  Zr  Zr16  1  0.70157024  0.29711012  0.69235518  1
  Zr  Zr17  1  0.90349303  0.50310342  0.50745321  1
  Zr  Zr18  1  0.49681388  0.29990703  0.69254421  1
  Zr  Zr19  1  0.09849583  0.30401065  0.69922811  1
  Zr  Zr20  1  0.50800456  0.90145145  0.69105571  1
  Zr  Zr21  1  0.71039971  0.10856767  0.50340910  1
  Zr  Zr22  1  0.70469792  0.09704169  0.90262965  1
  Zr  Zr23  1  0.49881038  0.09877566  0.30431008  1
  Zr  Zr24  1  0.49576513  0.29696075  0.50040376  1
  Zr  Zr25  1  0.90299288  0.90140464  0.09585640  1
  Zr  Zr26  1  0.70935981  0.50417890  0.50084827  1
  Zr  Zr27  1  0.89812457  0.69913709  0.30054789  1
  Zr  Zr28  1  0.70632802  0.89553412  0.70318371  1
  Zr  Zr29  1  0.10448687  0.30815061  0.49925721  1
  Zr  Zr30  1  0.10190294  0.10612079  0.29042190  1
  Zr  Zr31  1  0.30272636  0.70234842  0.89971149  1
  Zr  Zr32  1  0.28279378  0.09318249  0.09559548  1
  Zr  Zr33  1  0.50575676  0.69362095  0.69525687  1
  Zr  Zr34  1  0.70548257  0.30058605  0.30621158  1
  Zr  Zr35  1  0.30415851  0.49569150  0.29984040  1
  Zr  Zr36  1  0.69915041  0.89810002  0.30517558  1
  Zr  Zr37  1  0.50505196  0.50137037  0.10569319  1
  Zr  Zr38  1  0.30350850  0.69923651  0.49963227  1
  Zr  Zr39  1  0.29548690  0.29180096  0.89838059  1
  Zr  Zr40  1  0.09844371  0.50442964  0.68838823  1
  Zr  Zr41  1  0.30103724  0.50653109  0.89427856  1
  Zr  Zr42  1  0.30317368  0.30266790  0.69764239  1
  Zr  Zr43  1  0.09689986  0.10603520  0.90678130  1
  Zr  Zr44  1  0.89894056  0.89839094  0.70111770  1
  Zr  Zr45  1  0.30003586  0.09573468  0.30094160  1
  Zr  Zr46  1  0.29977222  0.09899714  0.90137888  1
  Zr  Zr47  1  0.70088132  0.90627205  0.09566229  1
  Zr  Zr48  1  0.89526744  0.69307173  0.09504393  1
  Zr  Zr49  1  0.49505842  0.51234813  0.50458434  1
  Sc  Sc50  1  0.50309639  0.10382250  0.10290200  1
  Sc  Sc51  1  0.30754198  0.69381917  0.09826207  1
  Sc  Sc52  1  0.48994162  0.29784489  0.90703678  1
  Sc  Sc53  1  0.09378260  0.29282649  0.89387204  1
  Sc  Sc54  1  0.30545291  0.30058806  0.30805740  1
  Sc  Sc55  1  0.09256360  0.69026391  0.10989995  1
  Sc  Sc56  1  0.89885023  0.10252523  0.90270043  1
  Sc  Sc57  1  0.10232598  0.10291065  0.70672276  1
  Sc  Sc58  1  0.88923736  0.90098971  0.90072047  1
  Sc  Sc59  1  0.29038692  0.90252513  0.49725117  1
  Sc  Sc60  1  0.09746558  0.89609069  0.30638807  1
  Sc  Sc61  1  0.89921026  0.30084788  0.89734255  1
  Sc  Sc62  1  0.09897277  0.89507020  0.88712281  1
  Sc  Sc63  1  0.50195039  0.50684950  0.90368876  1
  Sc  Sc64  1  0.69807133  0.50090843  0.10071274  1
  Sc  Sc65  1  0.49738211  0.30090795  0.29688398  1
  Sc  Sc66  1  0.08574948  0.49885253  0.09996581  1
  Sc  Sc67  1  0.29835302  0.90985627  0.69821603  1
  Sc  Sc68  1  0.49755423  0.90061938  0.90612397  1
  Sc  Sc69  1  0.49643256  0.49713890  0.29564936  1
  Sc  Sc70  1  0.50088312  0.30085110  0.10156675  1
  Sc  Sc71  1  0.90280447  0.30428960  0.10461904  1
  Sc  Sc72  1  0.89647576  0.49759584  0.10033354  1
  Sc  Sc73  1  0.08696197  0.50558894  0.89759750  1
  Sc  Sc74  1  0.89019171  0.49652016  0.29888898  1
  Sc  Sc75  1  0.90189714  0.69782995  0.89471712  1
  Sc  Sc76  1  0.30275017  0.10122704  0.70329650  1
  Sc  Sc77  1  0.89619835  0.70018952  0.70016381  1
  Sc  Sc78  1  0.51661136  0.69668445  0.29918276  1
  Sc  Sc79  1  0.89176318  0.09937338  0.70022344  1
  Sc  Sc80  1  0.89613333  0.50332671  0.69776097  1
  Sc  Sc81  1  0.30358317  0.09388059  0.49282090  1
  Sc  Sc82  1  0.09798973  0.70145785  0.30422439  1
  Sc  Sc83  1  0.30988082  0.50743139  0.10575862  1
  Sc  Sc84  1  0.10210834  0.69634233  0.50084111  1
  Sc  Sc85  1  0.70387361  0.29928228  0.90423781  1
  Sc  Sc86  1  0.50373981  0.69638873  0.90164826  1
  Sc  Sc87  1  0.70108163  0.70020452  0.69947950  1
  Sc  Sc88  1  0.29254870  0.69013886  0.29724750  1
  Sc  Sc89  1  0.90396553  0.09671881  0.31503103  1
  Sc  Sc90  1  0.10303783  0.90253241  0.69634294  1
  Sc  Sc91  1  0.70330633  0.69515972  0.89601497  1
  Sc  Sc92  1  0.50260026  0.90638473  0.10068539  1
  Sc  Sc93  1  0.28990073  0.69062447  0.70298926  1
  Sc  Sc94  1  0.29571732  0.50013132  0.50009065  1
  Sc  Sc95  1  0.89328655  0.69155178  0.50064967  1
  Sc  Sc96  1  0.90079718  0.30435343  0.29685994  1
  Sc  Sc97  1  0.90043941  0.30286445  0.70519626  1
  Sc  Sc98  1  0.69055616  0.10076022  0.09322615  1
  Sc  Sc99  1  0.90318168  0.89861926  0.31144599  1
  Nb  Nb100  1  0.70286781  0.09833589  0.30608820  1
  Nb  Nb101  1  0.29412737  0.30526076  0.49576525  1
  Nb  Nb102  1  0.69814654  0.70016082  0.48551030  1
  Nb  Nb103  1  0.09846683  0.90695708  0.09619053  1
  Nb  Nb104  1  0.69642427  0.10178264  0.70155475  1
  Nb  Nb105  1  0.09418539  0.09366569  0.09668908  1
  Nb  Nb106  1  0.50408933  0.09050653  0.50194336  1
  Nb  Nb107  1  0.70476885  0.69826062  0.30260119  1
  Nb  Nb108  1  0.90520068  0.09605490  0.50274572  1
  Nb  Nb109  1  0.09370488  0.70702657  0.70976906  1
  Nb  Nb110  1  0.10267100  0.70139140  0.89122885  1
  Nb  Nb111  1  0.69416297  0.49741064  0.70105805  1
  Nb  Nb112  1  0.30922347  0.89594727  0.90733409  1
  Nb  Nb113  1  0.70414346  0.89967912  0.50249427  1
  Nb  Nb114  1  0.90344550  0.91710805  0.50628356  1
  Nb  Nb115  1  0.70047039  0.90335845  0.90080960  1
  Nb  Nb116  1  0.49896081  0.70252866  0.50162540  1
  Nb  Nb117  1  0.69743510  0.69939171  0.10460370  1
  Nb  Nb118  1  0.30232986  0.50012316  0.70220911  1
  Nb  Nb119  1  0.69888896  0.49493191  0.30054990  1
  Nb  Nb120  1  0.49969360  0.49934769  0.69961778  1
  Nb  Nb121  1  0.09464698  0.49473044  0.50425615  1
  Nb  Nb122  1  0.50256267  0.90409834  0.50472284  1
  Nb  Nb123  1  0.29965954  0.89383606  0.09303624  1
  Nb  Nb124  1  0.89637233  0.29713978  0.49888429  1
  Nb  Nb125  1  0.20220149  0.40626862  0.79942745  1
  Nb  Nb126  1  0.79821692  0.00123318  0.20333006  1
  Nb  Nb127  1  0.19775472  0.40357151  -0.00122446  1
  Nb  Nb128  1  0.60548439  0.00115319  0.41038203  1
  Nb  Nb129  1  0.59974888  0.19918092  0.79471126  1
  Nb  Nb130  1  0.40163069  0.80226437  0.79445329  1
  Nb  Nb131  1  0.79524715  0.79898464  0.20033414  1
  Nb  Nb132  1  0.40379322  0.79905091  0.59770799  1
  Nb  Nb133  1  0.00164772  0.40359464  0.40670678  1
  Nb  Nb134  1  -0.00092120  0.19875462  0.59316437  1
  Nb  Nb135  1  0.39783879  0.80180071  0.20195230  1
  Nb  Nb136  1  0.60474540  0.00218720  0.79698591  1
  Nb  Nb137  1  0.20141464  0.80473507  0.18920768  1
  Nb  Nb138  1  0.19614965  0.79842004  0.00133560  1
  Nb  Nb139  1  0.20019427  0.39914299  0.19361440  1
  Nb  Nb140  1  0.00889617  0.79834519  -0.00033015  1
  Nb  Nb141  1  0.59608011  0.39854748  0.79237825  1
  Nb  Nb142  1  0.79839093  0.19004652  0.20403205  1
  Nb  Nb143  1  0.19870778  0.20604207  0.59236421  1
  Nb  Nb144  1  0.40714443  0.79916371  0.40244284  1
  Nb  Nb145  1  0.60780700  0.79948173  0.00292779  1
  Nb  Nb146  1  -0.00460777  -0.00016027  0.79936631  1
  Nb  Nb147  1  0.60280485  0.40387112  0.40405379  1
  Nb  Nb148  1  0.19467320  0.60261266  -0.00440210  1
  Nb  Nb149  1  -0.00143540  0.80247836  0.60052591  1
  Pd  Pd150  1  0.60424411  0.19705147  0.20513955  1
  Pd  Pd151  1  0.19320401  -0.01031851  -0.01323661  1
  Pd  Pd152  1  0.40649240  0.60698930  0.79613734  1
  Pd  Pd153  1  -0.00567624  0.59704628  0.79497563  1
  Pd  Pd154  1  -0.00777090  0.59339505  0.20582693  1
  Pd  Pd155  1  0.80624528  0.40026644  0.60592220  1
  Pd  Pd156  1  0.79841281  0.79281258  -0.00123299  1
  Pd  Pd157  1  0.80816749  0.80352295  0.40500679  1
  Pd  Pd158  1  0.38860296  0.19454560  0.58875285  1
  Pd  Pd159  1  0.79898192  0.39737001  0.00564905  1
  Pd  Pd160  1  0.40335478  0.40170626  0.80472870  1
  Pd  Pd161  1  0.61004544  0.60431125  0.59740393  1
  Pd  Pd162  1  0.40872093  -0.00528732  0.79838807  1
  Pd  Pd163  1  0.19767194  0.60269609  0.59895823  1
  Pd  Pd164  1  0.80460224  0.20127912  0.01209468  1
  Pd  Pd165  1  0.79919032  0.59990655  0.79453434  1
  Pd  Pd166  1  0.60569434  0.79410854  0.59251621  1
  Pd  Pd167  1  0.80427174  0.79449111  0.59050567  1
  Pd  Pd168  1  0.39446603  0.19685213  0.19648167  1
  Pd  Pd169  1  0.19848430  0.59697717  0.40634792  1
  Pd  Pd170  1  0.21154430  0.80801562  0.79885213  1
  Pd  Pd171  1  0.59694365  0.20052996  0.40406496  1
  Pd  Pd172  1  -0.00198248  0.59453007  0.39854634  1
  Pd  Pd173  1  -0.00431363  0.20857154  0.39999793  1
  Pd  Pd174  1  0.39625653  -0.00131296  0.18947485  1
  Pd  Pd175  1  0.40688269  0.19552866  0.79769542  1
  Pd  Pd176  1  0.59732379  0.39668573  -0.00838233  1
  Pd  Pd177  1  0.79438783  0.59916192  0.20104552  1
  Pd  Pd178  1  0.39681560  0.40865712  0.00013690  1
  Pd  Pd179  1  0.60106004  0.59236248  0.39649212  1
  Pd  Pd180  1  -0.00482735  -0.00330379  0.21095589  1
  Pd  Pd181  1  0.00026806  0.40701734  0.79973783  1
  Pd  Pd182  1  0.00001621  0.80222307  0.19443709  1
  Pd  Pd183  1  0.20985624  0.20674338  0.19967132  1
  Pd  Pd184  1  0.19925842  0.79655203  0.60499388  1
  Pd  Pd185  1  0.79804917  0.20361412  0.79992199  1
  Pd  Pd186  1  0.40404337  0.60667813  0.39072236  1
  Pd  Pd187  1  0.59799819  0.40485213  0.59557149  1
  Pd  Pd188  1  0.00345000  0.39346009  -0.00358451  1
  Pd  Pd189  1  0.39461202  0.40723275  0.59289988  1
  Pd  Pd190  1  0.19530422  -0.00912626  0.20339257  1
  Pd  Pd191  1  0.59997893  0.80100908  0.19398977  1
  Pd  Pd192  1  0.40356920  0.00634527  0.00836790  1
  Pd  Pd193  1  0.39837521  0.19886504  0.40491657  1
  Pd  Pd194  1  0.59609504  0.80502249  0.40562728  1
  Pd  Pd195  1  -0.00693586  0.79679540  0.41433257  1
  Pd  Pd196  1  0.19761307  -0.00099682  0.80732952  1
  Pd  Pd197  1  0.59647297  0.80467619  0.81047508  1
  Pd  Pd198  1  0.19982760  0.01294311  0.59999009  1
  Pd  Pd199  1  0.79612259  0.00323963  0.60335590  1
  Rh  Rh200  1  -0.01065697  0.39161056  0.59574005  1
  Rh  Rh201  1  0.00534478  -0.00231322  0.39629221  1
  Rh  Rh202  1  0.79248323  0.40194310  0.79728520  1
  Rh  Rh203  1  0.60764550  0.60598839  0.00091035  1
  Rh  Rh204  1  0.19299780  0.00181993  0.39193784  1
  Rh  Rh205  1  0.79929541  0.79684017  0.80529921  1
  Rh  Rh206  1  0.40819051  0.60972873  0.20774293  1
  Rh  Rh207  1  0.40711252  -0.00655546  0.40726343  1
  Rh  Rh208  1  0.40802777  0.79639749  0.00072297  1
  Rh  Rh209  1  -0.00983976  0.19453577  0.20481138  1
  Rh  Rh210  1  0.39559161  0.39424288  0.19902433  1
  Rh  Rh211  1  0.60675249  0.59407833  0.20534054  1
  Rh  Rh212  1  0.20601300  0.79427944  0.39084283  1
  Rh  Rh213  1  0.79893954  0.00003695  0.80146008  1
  Rh  Rh214  1  0.39798061  0.18996121  0.00788923  1
  Rh  Rh215  1  0.80936084  0.19875008  0.39629143  1
  Rh  Rh216  1  0.60584439  0.00848360  0.20956389  1
  Rh  Rh217  1  0.00524825  0.61418280  0.60533310  1
  Rh  Rh218  1  0.00297266  0.00252489  0.60991017  1
  Rh  Rh219  1  0.81037516  0.20011931  0.60225357  1
  Rh  Rh220  1  0.18962938  0.59120899  0.80097607  1
  Rh  Rh221  1  0.20229078  0.20545138  0.79051559  1
  Rh  Rh222  1  -0.00794333  0.18993478  0.79227502  1
  Rh  Rh223  1  0.40797777  0.40214214  0.40596325  1
  Rh  Rh224  1  0.79062592  0.60502687  0.60250456  1
  Rh  Rh225  1  0.60021077  0.19836759  0.59732245  1
  Rh  Rh226  1  0.00306912  0.61157274  -0.00517308  1
  Rh  Rh227  1  0.59724231  0.20760932  -0.00640411  1
  Rh  Rh228  1  0.79542370  0.59882757  -0.00004479  1
  Rh  Rh229  1  0.20869735  0.19642865  0.40326184  1
  Rh  Rh230  1  0.80389835  0.40336663  0.40316168  1
  Rh  Rh231  1  -0.00584202  0.80597926  0.79858161  1
  Rh  Rh232  1  0.59690271  -0.00566383  -0.00780487  1
  Rh  Rh233  1  0.80135917  0.00736366  0.00587029  1
  Rh  Rh234  1  0.79621840  -0.00162223  0.40315382  1
  Rh  Rh235  1  0.19478743  0.20343480  0.00295821  1
  Rh  Rh236  1  0.59901192  0.59148096  0.79796910  1
  Rh  Rh237  1  0.79558289  0.39378960  0.19619948  1
  Rh  Rh238  1  0.00507897  0.40340638  0.21021055  1
  Rh  Rh239  1  0.19804458  0.59599365  0.19003751  1
  Rh  Rh240  1  0.39783052  0.59739838  -0.00127208  1
  Rh  Rh241  1  0.59969524  0.40121947  0.20942224  1
  Rh  Rh242  1  0.39456208  0.60274843  0.60717958  1
  Rh  Rh243  1  0.80004391  0.59719000  0.39534741  1
  Rh  Rh244  1  0.39016857  -0.00593104  0.59335694  1
  Rh  Rh245  1  -0.00434997  0.20578116  -0.00134794  1
  Rh  Rh246  1  0.00555094  -0.01000809  -0.01548110  1
  Rh  Rh247  1  0.19745875  0.40680310  0.39310785  1
  Rh  Rh248  1  0.61490446  0.00076827  0.59732906  1
  Rh  Rh249  1  0.20852341  0.40182239  0.60637609  1
