# generated using pymatgen
data_ZrScNbPdRh
_symmetry_space_group_name_H-M   'P 1'
_cell_length_a   16.55631531
_cell_length_b   16.55837492
_cell_length_c   16.56228280
_cell_angle_alpha   89.99573378
_cell_angle_beta   90.01036623
_cell_angle_gamma   89.98722697
_symmetry_Int_Tables_number   1
_chemical_formula_structural   ZrScNbPdRh
_chemical_formula_sum   'Zr50 Sc50 Nb50 Pd50 Rh50'
_cell_volume   4540.47801587
_cell_formula_units_Z   50
loop_
 _symmetry_equiv_pos_site_id
 _symmetry_equiv_pos_as_xyz
  1  'x, y, z'
loop_
 _atom_site_type_symbol
 _atom_site_label
 _atom_site_symmetry_multiplicity
 _atom_site_fract_x
 _atom_site_fract_y
 _atom_site_fract_z
 _atom_site_occupancy
  Zr  Zr0  1  0.30066997  0.29793047  0.30104049  1
  Zr  Zr1  1  0.90106925  0.69916199  0.89797807  1
  Zr  Zr2  1  0.90564568  0.70651882  0.30517741  1
  Zr  Zr3  1  0.70414667  0.71123307  0.50000064  1
  Zr  Zr4  1  0.10518170  0.70314577  0.70041042  1
  Zr  Zr5  1  0.29863713  0.10974131  0.29960118  1
  Zr  Zr6  1  0.49421252  0.29511701  0.29990764  1
  Zr  Zr7  1  0.31006993  0.88685485  0.90199606  1
  Zr  Zr8  1  0.70321535  0.10435904  0.69544257  1
  Zr  Zr9  1  0.69467010  0.09785711  0.50261842  1
  Zr  Zr10  1  0.90122232  0.29929375  0.90213532  1
  Zr  Zr11  1  0.30562557  0.89804525  0.49697945  1
  Zr  Zr12  1  0.09847324  0.49695112  0.90072146  1
  Zr  Zr13  1  0.90183414  0.50416117  0.70555424  1
  Zr  Zr14  1  0.49953819  0.50576594  0.69628071  1
  Zr  Zr15  1  0.90646481  0.10471548  0.10255552  1
  Zr  Zr16  1  0.89751118  0.90433849  0.10944548  1
  Zr  Zr17  1  0.89853345  0.30462805  0.29882948  1
  Zr  Zr18  1  0.89162245  0.70306441  0.10291726  1
  Zr  Zr19  1  0.69415253  0.10252986  0.90054111  1
  Zr  Zr20  1  0.70721925  0.90329502  0.30481241  1
  Zr  Zr21  1  0.68637534  0.49933091  0.10122901  1
  Zr  Zr22  1  0.69964829  0.89908441  0.69313516  1
  Zr  Zr23  1  0.89060678  0.10116760  0.90571774  1
  Zr  Zr24  1  0.49008850  0.70751199  0.89234659  1
  Zr  Zr25  1  0.91957988  0.70669504  0.69461285  1
  Zr  Zr26  1  0.29719531  0.08579413  0.50168540  1
  Zr  Zr27  1  0.49872931  0.10440058  0.29094648  1
  Zr  Zr28  1  0.10523363  0.29970499  0.30484934  1
  Zr  Zr29  1  0.90387872  0.49815031  0.30256738  1
  Zr  Zr30  1  0.10546616  0.70134021  0.10945787  1
  Zr  Zr31  1  0.68983586  0.10531646  0.09258749  1
  Zr  Zr32  1  0.49531246  0.70667513  0.29488296  1
  Zr  Zr33  1  0.09744969  0.69359342  0.50188363  1
  Zr  Zr34  1  0.69494654  0.70091387  0.90013523  1
  Zr  Zr35  1  0.50835208  0.90550784  0.29922889  1
  Zr  Zr36  1  0.90577753  0.29888724  0.09540619  1
  Zr  Zr37  1  0.89936075  0.10048932  0.29915143  1
  Zr  Zr38  1  0.90381273  0.49825893  0.10340008  1
  Zr  Zr39  1  0.10122087  0.10364433  0.29686966  1
  Zr  Zr40  1  0.09727481  0.29126281  0.49949624  1
  Zr  Zr41  1  0.51133204  0.30011234  0.10995708  1
  Zr  Zr42  1  0.50229041  0.29062720  0.89277608  1
  Zr  Zr43  1  0.49960540  0.29830739  0.49570079  1
  Zr  Zr44  1  0.29821325  0.70834108  0.30367590  1
  Zr  Zr45  1  0.70691079  0.29214174  0.89715250  1
  Zr  Zr46  1  0.70346007  0.49942543  0.89723260  1
  Zr  Zr47  1  0.31082729  0.70021577  0.09737584  1
  Zr  Zr48  1  0.90322460  0.90567286  0.69783382  1
  Zr  Zr49  1  0.49831440  0.49507539  0.50547643  1
  Sc  Sc50  1  0.29630189  0.09899233  0.70191365  1
  Sc  Sc51  1  0.29927021  0.09471837  0.10638126  1
  Sc  Sc52  1  0.10345404  0.50168154  0.49908118  1
  Sc  Sc53  1  0.10312377  0.29599978  0.90839605  1
  Sc  Sc54  1  0.70368994  0.89990194  0.10679061  1
  Sc  Sc55  1  0.29441013  0.49946339  0.50647308  1
  Sc  Sc56  1  0.69217351  0.50225886  0.69755093  1
  Sc  Sc57  1  0.89063992  0.29117454  0.70264207  1
  Sc  Sc58  1  0.10085986  0.89456631  0.29305775  1
  Sc  Sc59  1  0.11385981  0.89326036  0.89796959  1
  Sc  Sc60  1  0.89504788  0.10436842  0.50205843  1
  Sc  Sc61  1  0.09375927  0.89649693  0.70102249  1
  Sc  Sc62  1  0.29393270  0.29446520  0.89334673  1
  Sc  Sc63  1  0.10602758  0.70482769  0.88641968  1
  Sc  Sc64  1  0.30218495  0.69095009  0.71164972  1
  Sc  Sc65  1  0.30009270  0.29644815  0.70407097  1
  Sc  Sc66  1  0.69772047  0.09467178  0.30506784  1
  Sc  Sc67  1  0.29239281  0.49030941  0.29517765  1
  Sc  Sc68  1  0.50105670  0.50605383  0.90105123  1
  Sc  Sc69  1  0.10043425  0.69396409  0.30178236  1
  Sc  Sc70  1  0.89465581  0.88956698  0.49947682  1
  Sc  Sc71  1  0.29770748  0.49691447  0.69940643  1
  Sc  Sc72  1  0.50446341  0.09665921  0.70341166  1
  Sc  Sc73  1  0.49408623  0.49355985  0.29066163  1
  Sc  Sc74  1  0.69281432  0.71299241  0.29570599  1
  Sc  Sc75  1  0.09943012  0.09267472  0.68849815  1
  Sc  Sc76  1  0.49482283  0.91197013  0.09978781  1
  Sc  Sc77  1  0.10543350  0.51311205  0.69963078  1
  Sc  Sc78  1  0.50304921  0.69919932  0.50548285  1
  Sc  Sc79  1  0.89282990  0.90502562  0.89830434  1
  Sc  Sc80  1  0.29345253  0.30308561  0.49381718  1
  Sc  Sc81  1  0.50002146  0.29835581  0.69494826  1
  Sc  Sc82  1  0.30398780  0.91106427  0.70121174  1
  Sc  Sc83  1  0.10387037  0.28512513  0.69609463  1
  Sc  Sc84  1  0.70247252  0.90634068  0.49664418  1
  Sc  Sc85  1  0.10268570  0.49512329  0.10641603  1
  Sc  Sc86  1  0.69339363  0.49116058  0.49935210  1
  Sc  Sc87  1  0.30759427  0.89737083  0.30261259  1
  Sc  Sc88  1  0.10241265  0.10158771  0.10658180  1
  Sc  Sc89  1  0.10945261  0.90160732  0.10403903  1
  Sc  Sc90  1  0.49611173  0.91216924  0.49810420  1
  Sc  Sc91  1  0.69111169  0.29653342  0.50096270  1
  Sc  Sc92  1  0.29377630  0.29914811  0.10477995  1
  Sc  Sc93  1  0.90208372  0.29349729  0.49243333  1
  Sc  Sc94  1  0.30074684  0.09508224  0.89524352  1
  Sc  Sc95  1  0.29801641  0.49566398  0.89396829  1
  Sc  Sc96  1  0.69732536  0.90844818  0.90533688  1
  Sc  Sc97  1  0.10693185  0.09979465  0.89972316  1
  Sc  Sc98  1  0.10450102  0.90804483  0.50430977  1
  Sc  Sc99  1  0.50000694  0.89665498  0.71053820  1
  Nb  Nb100  1  0.48903700  0.50417710  0.09682751  1
  Nb  Nb101  1  0.50087028  0.89981069  0.90507860  1
  Nb  Nb102  1  0.68655586  0.70437945  0.70139572  1
  Nb  Nb103  1  0.69952676  0.30582091  0.10265741  1
  Nb  Nb104  1  0.09281360  0.29266999  0.09409869  1
  Nb  Nb105  1  0.30062008  0.70291246  0.49587973  1
  Nb  Nb106  1  0.09666959  0.50228529  0.30024063  1
  Nb  Nb107  1  0.29897221  0.70418142  0.90636083  1
  Nb  Nb108  1  0.69645920  0.69967551  0.09996113  1
  Nb  Nb109  1  0.50059184  0.68854941  0.09785947  1
  Nb  Nb110  1  0.89958134  0.49837002  0.90032049  1
  Nb  Nb111  1  0.29527527  0.88981653  0.08993732  1
  Nb  Nb112  1  0.89717028  0.90687173  0.30011218  1
  Nb  Nb113  1  0.90299478  0.09724112  0.70089372  1
  Nb  Nb114  1  0.90406799  0.69296377  0.49751967  1
  Nb  Nb115  1  0.50946901  0.70099810  0.70451640  1
  Nb  Nb116  1  0.50123399  0.10719353  0.49804810  1
  Nb  Nb117  1  0.69770880  0.31449913  0.28730938  1
  Nb  Nb118  1  0.70643409  0.49838194  0.29948751  1
  Nb  Nb119  1  0.50986535  0.09382660  0.91440292  1
  Nb  Nb120  1  0.70017484  0.30141659  0.70465383  1
  Nb  Nb121  1  0.50181512  0.10458543  0.10011457  1
  Nb  Nb122  1  0.90000060  0.50344902  0.50349909  1
  Nb  Nb123  1  0.30921007  0.49998684  0.09573608  1
  Nb  Nb124  1  0.09632449  0.10332376  0.49588302  1
  Nb  Nb125  1  0.80157800  0.60419746  0.59861058  1
  Nb  Nb126  1  0.39810152  0.79448364  0.60386014  1
  Nb  Nb127  1  0.40100313  0.60205469  0.40101880  1
  Nb  Nb128  1  0.80394924  0.40314430  0.60165660  1
  Nb  Nb129  1  0.20374484  0.60211690  0.00066958  1
  Nb  Nb130  1  0.79591468  0.79518570  0.79260539  1
  Nb  Nb131  1  0.00444697  0.60457307  0.00095820  1
  Nb  Nb132  1  0.79670787  0.59949663  0.40083792  1
  Nb  Nb133  1  0.79352219  0.20953327  0.19886013  1
  Nb  Nb134  1  0.60256917  0.39673030  0.79854521  1
  Nb  Nb135  1  0.40214787  0.19333732  0.59184206  1
  Nb  Nb136  1  0.60028994  0.59761333  0.39483427  1
  Nb  Nb137  1  -0.00510893  0.19469300  0.79982808  1
  Nb  Nb138  1  0.59437735  0.79496972  0.00518944  1
  Nb  Nb139  1  0.40333000  0.39565503  0.00326976  1
  Nb  Nb140  1  0.00138718  -0.00481856  0.00284105  1
  Nb  Nb141  1  -0.00290314  0.00121117  0.39513591  1
  Nb  Nb142  1  0.79325998  0.60024848  0.20426177  1
  Nb  Nb143  1  -0.00248827  0.39427570  0.79702503  1
  Nb  Nb144  1  0.00020616  0.80060898  0.00261598  1
  Nb  Nb145  1  0.40767361  0.19809848  0.00244360  1
  Nb  Nb146  1  0.20943118  0.79635629  0.59827668  1
  Nb  Nb147  1  -0.00512963  0.39950318  0.60437931  1
  Nb  Nb148  1  0.79915959  0.39977656  0.00187080  1
  Nb  Nb149  1  0.79784447  0.60858764  0.79216242  1
  Pd  Pd150  1  0.19026697  0.39804860  0.60603658  1
  Pd  Pd151  1  0.60113802  0.59709926  0.20831002  1
  Pd  Pd152  1  0.59457999  0.80712829  0.18818649  1
  Pd  Pd153  1  0.00550816  0.40343562  0.40955252  1
  Pd  Pd154  1  0.39138056  0.59785330  0.21181547  1
  Pd  Pd155  1  0.21034555  0.19590244  0.59556362  1
  Pd  Pd156  1  0.00083893  0.80273600  0.19808827  1
  Pd  Pd157  1  0.39454505  0.40956984  0.40122026  1
  Pd  Pd158  1  0.19538215  0.39599191  0.19530873  1
  Pd  Pd159  1  0.00648235  0.00238766  0.81072408  1
  Pd  Pd160  1  0.59342221  -0.00319825  0.60119989  1
  Pd  Pd161  1  0.00692944  0.81023515  0.40464270  1
  Pd  Pd162  1  0.40654728  0.40233219  0.80400696  1
  Pd  Pd163  1  0.60638922  0.20254995  0.39042763  1
  Pd  Pd164  1  0.60742911  0.60121310  0.59021402  1
  Pd  Pd165  1  0.20869010  -0.00753035  0.20506517  1
  Pd  Pd166  1  0.40470301  0.00830100  0.39277538  1
  Pd  Pd167  1  0.79131234  0.01378420  0.19505274  1
  Pd  Pd168  1  0.40335441  0.80814531  0.19154222  1
  Pd  Pd169  1  0.39355907  0.38881444  0.60183845  1
  Pd  Pd170  1  0.80067379  0.20553521  0.59689394  1
  Pd  Pd171  1  0.39419059  0.00608310  -0.00013229  1
  Pd  Pd172  1  0.39381622  0.60726012  0.59728951  1
  Pd  Pd173  1  0.59736434  0.39510906  -0.00855426  1
  Pd  Pd174  1  0.39747051  0.59563223  0.80344556  1
  Pd  Pd175  1  0.19529633  -0.00283018  0.79611882  1
  Pd  Pd176  1  0.19902839  0.00078926  0.00019721  1
  Pd  Pd177  1  0.20934044  0.59693159  0.19679033  1
  Pd  Pd178  1  0.20693656  0.59352662  0.39769067  1
  Pd  Pd179  1  0.21009042  0.19338232  0.00404285  1
  Pd  Pd180  1  0.78821226  0.20646034  0.39186487  1
  Pd  Pd181  1  0.40323244  0.18865968  0.79870352  1
  Pd  Pd182  1  0.60107872  -0.00188123  0.79929016  1
  Pd  Pd183  1  0.80250283  0.59346428  0.00400663  1
  Pd  Pd184  1  0.79339330  -0.00241096  0.79631481  1
  Pd  Pd185  1  0.79600007  0.80758250  -0.00477739  1
  Pd  Pd186  1  0.01076958  0.39365434  0.20074677  1
  Pd  Pd187  1  -0.00622667  -0.00007290  0.58675153  1
  Pd  Pd188  1  0.18926685  0.80455364  0.40420229  1
  Pd  Pd189  1  0.59626475  0.40326185  0.39154699  1
  Pd  Pd190  1  0.58761218  0.81164851  0.59344303  1
  Pd  Pd191  1  0.79769730  0.39896509  0.41067368  1
  Pd  Pd192  1  0.39264632  -0.00353174  0.19909104  1
  Pd  Pd193  1  0.80464130  0.79461717  0.60564397  1
  Pd  Pd194  1  0.59392716  0.60443825  -0.00653893  1
  Pd  Pd195  1  0.40701733  0.00434619  0.80597048  1
  Pd  Pd196  1  0.20646016  0.40300592  0.00496650  1
  Pd  Pd197  1  0.59382232  0.80163374  0.40718641  1
  Pd  Pd198  1  0.18879802  0.39496424  0.79239561  1
  Pd  Pd199  1  0.19247542  -0.00367281  0.39197204  1
  Rh  Rh200  1  0.00042816  0.59335183  0.80923619  1
  Rh  Rh201  1  0.19283183  0.79076178  0.00236030  1
  Rh  Rh202  1  0.80868062  -0.00026346  0.40796959  1
  Rh  Rh203  1  0.20378566  0.19588710  0.40634316  1
  Rh  Rh204  1  0.21020026  0.80267243  0.20088565  1
  Rh  Rh205  1  0.80321369  0.79834790  0.39587167  1
  Rh  Rh206  1  -0.00505160  0.20092510  0.60629337  1
  Rh  Rh207  1  0.79844054  0.79426958  0.20808640  1
  Rh  Rh208  1  0.60251304  0.00134247  0.19827868  1
  Rh  Rh209  1  0.60021764  0.59306705  0.80079362  1
  Rh  Rh210  1  0.00019012  0.19288924  0.39536623  1
  Rh  Rh211  1  0.41061588  0.79389105  0.40934669  1
  Rh  Rh212  1  0.60987576  0.19743719  0.20838547  1
  Rh  Rh213  1  0.00002995  0.59428367  0.39760301  1
  Rh  Rh214  1  0.79724563  0.40807441  0.79757714  1
  Rh  Rh215  1  0.20517928  0.59963768  0.80826554  1
  Rh  Rh216  1  0.80255644  0.00251961  0.00911984  1
  Rh  Rh217  1  0.20599656  0.60739182  0.60017310  1
  Rh  Rh218  1  0.00481270  -0.00359741  0.20093250  1
  Rh  Rh219  1  0.00273293  0.59364099  0.59648989  1
  Rh  Rh220  1  0.21270967  0.80421144  0.78839644  1
  Rh  Rh221  1  0.39328640  0.19394637  0.40844076  1
  Rh  Rh222  1  0.80045723  0.40300610  0.19050698  1
  Rh  Rh223  1  0.60545975  0.39249781  0.60906434  1
  Rh  Rh224  1  0.60108528  -0.00998196  0.00750338  1
  Rh  Rh225  1  0.19341729  0.40508446  0.39937899  1
  Rh  Rh226  1  0.01117593  0.80339275  0.58908034  1
  Rh  Rh227  1  0.19523241  0.20721715  0.19454207  1
  Rh  Rh228  1  0.39665402  0.79908394  0.79116872  1
  Rh  Rh229  1  0.80302918  0.18896589  0.79553984  1
  Rh  Rh230  1  0.59669095  0.00523312  0.39994304  1
  Rh  Rh231  1  0.19923233  -0.00667997  0.60293200  1
  Rh  Rh232  1  0.59293762  0.40874707  0.20288115  1
  Rh  Rh233  1  0.39608839  0.20237998  0.19040446  1
  Rh  Rh234  1  0.60396567  0.80956609  0.81049713  1
  Rh  Rh235  1  0.39342577  0.59359659  -0.00968580  1
  Rh  Rh236  1  0.59692035  0.20838890  -0.00026857  1
  Rh  Rh237  1  0.40576869  0.00329019  0.60424048  1
  Rh  Rh238  1  0.00903925  0.18651724  -0.00826652  1
  Rh  Rh239  1  -0.00113226  0.20852575  0.20574871  1
  Rh  Rh240  1  0.79442480  0.20677947  0.01115978  1
  Rh  Rh241  1  -0.00805085  0.81286826  0.81070446  1
  Rh  Rh242  1  -0.00568392  0.60141050  0.19942563  1
  Rh  Rh243  1  0.80401346  0.00225045  0.59595812  1
  Rh  Rh244  1  0.39923987  0.39518088  0.19203933  1
  Rh  Rh245  1  0.19189050  0.19642195  0.79930746  1
  Rh  Rh246  1  -0.00179339  0.40610304  -0.00413204  1
  Rh  Rh247  1  0.60061531  0.20011148  0.79415654  1
  Rh  Rh248  1  0.59456443  0.20134895  0.60447633  1
  Rh  Rh249  1  0.41206066  0.80061976  0.00917494  1
