# generated using pymatgen
data_ZrScNbPdRh
_symmetry_space_group_name_H-M   'P 1'
_cell_length_a   16.55756043
_cell_length_b   16.56106779
_cell_length_c   16.55641860
_cell_angle_alpha   90.00312955
_cell_angle_beta   89.99797789
_cell_angle_gamma   90.00661606
_symmetry_Int_Tables_number   1
_chemical_formula_structural   ZrScNbPdRh
_chemical_formula_sum   'Zr50 Sc50 Nb50 Pd50 Rh50'
_cell_volume   4539.95008714
_cell_formula_units_Z   50
loop_
 _symmetry_equiv_pos_site_id
 _symmetry_equiv_pos_as_xyz
  1  'x, y, z'
loop_
 _atom_site_type_symbol
 _atom_site_label
 _atom_site_symmetry_multiplicity
 _atom_site_fract_x
 _atom_site_fract_y
 _atom_site_fract_z
 _atom_site_occupancy
  Zr  Zr0  1  0.90477536  0.90082213  0.68723903  1
  Zr  Zr1  1  0.70334418  0.50201825  0.09885857  1
  Zr  Zr2  1  0.50554973  0.09724315  0.50461940  1
  Zr  Zr3  1  0.69246146  0.69463776  0.29538943  1
  Zr  Zr4  1  0.49128163  0.70289232  0.50127969  1
  Zr  Zr5  1  0.30029445  0.68908477  0.90042848  1
  Zr  Zr6  1  0.69344831  0.29604349  0.09869337  1
  Zr  Zr7  1  0.30089204  0.49508823  0.09589483  1
  Zr  Zr8  1  0.69641832  0.89919805  0.89391677  1
  Zr  Zr9  1  0.89591220  0.29072939  0.70074942  1
  Zr  Zr10  1  0.10360205  0.49935249  0.90501455  1
  Zr  Zr11  1  0.89321689  0.69956877  0.10220883  1
  Zr  Zr12  1  0.50274962  0.90811191  0.89241182  1
  Zr  Zr13  1  0.49483772  0.49550752  0.90715989  1
  Zr  Zr14  1  0.29644024  0.09354099  0.70029855  1
  Zr  Zr15  1  0.30318344  0.89991370  0.69905646  1
  Zr  Zr16  1  0.09499607  0.09877272  0.30123438  1
  Zr  Zr17  1  0.50260278  0.10825016  0.09637953  1
  Zr  Zr18  1  0.90108095  0.29665768  0.30728155  1
  Zr  Zr19  1  0.29349925  0.10588017  0.28552904  1
  Zr  Zr20  1  0.89766975  0.89361423  0.10922292  1
  Zr  Zr21  1  0.69541043  0.49261476  0.49942212  1
  Zr  Zr22  1  0.30859852  0.09941349  0.09169879  1
  Zr  Zr23  1  0.10902165  0.50085727  0.30171439  1
  Zr  Zr24  1  0.89597731  0.09670882  0.29668280  1
  Zr  Zr25  1  0.89520509  0.10039136  0.10664176  1
  Zr  Zr26  1  0.50320717  0.50050241  0.71178461  1
  Zr  Zr27  1  0.70966305  0.29326980  0.50358439  1
  Zr  Zr28  1  0.69670248  0.29505071  0.69488536  1
  Zr  Zr29  1  0.09834356  0.31369375  0.30302817  1
  Zr  Zr30  1  0.10043945  0.09479242  0.50185349  1
  Zr  Zr31  1  0.69848901  0.50125260  0.30182328  1
  Zr  Zr32  1  0.49427580  0.69760940  0.10145503  1
  Zr  Zr33  1  0.30373614  0.30504908  0.70035666  1
  Zr  Zr34  1  0.10194512  0.90983109  0.70450706  1
  Zr  Zr35  1  0.29710315  0.70495404  0.50413149  1
  Zr  Zr36  1  0.70282856  0.70243560  0.49773792  1
  Zr  Zr37  1  0.31540791  0.89461625  0.49690168  1
  Zr  Zr38  1  0.49873784  0.10359773  0.90039330  1
  Zr  Zr39  1  0.70175297  0.90620242  0.69789783  1
  Zr  Zr40  1  0.31731771  0.49968845  0.49421764  1
  Zr  Zr41  1  0.10118815  0.70397971  0.11495005  1
  Zr  Zr42  1  0.90728529  0.49436989  0.29844243  1
  Zr  Zr43  1  0.69905326  0.10493977  0.10542886  1
  Zr  Zr44  1  0.51135413  0.89645016  0.69664560  1
  Zr  Zr45  1  0.29766399  0.90580101  0.09945762  1
  Zr  Zr46  1  0.30108066  0.69926808  0.69768971  1
  Zr  Zr47  1  0.09868812  0.48899893  0.10375141  1
  Zr  Zr48  1  0.29842679  0.30715228  0.50407277  1
  Zr  Zr49  1  0.89950900  0.10920368  0.89326119  1
  Sc  Sc50  1  0.89982059  0.09508503  0.49745134  1
  Sc  Sc51  1  0.30282516  0.09288579  0.50861451  1
  Sc  Sc52  1  0.90345609  0.68622428  0.69337837  1
  Sc  Sc53  1  0.28487763  0.70020963  0.30888807  1
  Sc  Sc54  1  0.69408888  0.50413829  0.90284023  1
  Sc  Sc55  1  0.50331890  0.90530247  0.49866215  1
  Sc  Sc56  1  0.90063777  0.69093504  0.90715203  1
  Sc  Sc57  1  0.30119151  0.29462416  0.10274938  1
  Sc  Sc58  1  0.10718725  0.31205928  0.69008270  1
  Sc  Sc59  1  0.69434491  0.29945878  0.90095564  1
  Sc  Sc60  1  0.50019149  0.09595175  0.70803662  1
  Sc  Sc61  1  0.70390701  0.28795122  0.30564443  1
  Sc  Sc62  1  0.10636403  0.70083026  0.90637005  1
  Sc  Sc63  1  0.89772826  0.09849882  0.70066668  1
  Sc  Sc64  1  0.69331445  0.70423184  0.70233316  1
  Sc  Sc65  1  0.08598600  0.89692155  0.50265096  1
  Sc  Sc66  1  0.10241205  0.89153806  0.09608531  1
  Sc  Sc67  1  0.90080112  0.29612567  0.90070772  1
  Sc  Sc68  1  0.49412000  0.91250002  0.09761280  1
  Sc  Sc69  1  0.29027445  0.90414946  0.89678164  1
  Sc  Sc70  1  0.11704684  0.10442651  0.10157090  1
  Sc  Sc71  1  0.49601065  0.29916409  0.08783441  1
  Sc  Sc72  1  0.89474544  0.89676602  0.49864813  1
  Sc  Sc73  1  0.08865538  0.89406171  0.29798281  1
  Sc  Sc74  1  0.30403253  0.09839686  0.89662629  1
  Sc  Sc75  1  0.30169572  0.30389078  0.90119697  1
  Sc  Sc76  1  0.09832806  0.50944935  0.69509872  1
  Sc  Sc77  1  0.70089464  0.69830415  0.90423240  1
  Sc  Sc78  1  0.29413464  0.50239259  0.70386262  1
  Sc  Sc79  1  0.09531956  0.10050376  0.89117824  1
  Sc  Sc80  1  0.69416077  0.10183560  0.50093620  1
  Sc  Sc81  1  0.10757823  0.70159337  0.68851220  1
  Sc  Sc82  1  0.69699472  0.88441292  0.30302187  1
  Sc  Sc83  1  0.09514150  0.29856421  0.90542232  1
  Sc  Sc84  1  0.28895482  0.70311320  0.10075831  1
  Sc  Sc85  1  0.89288975  0.71050964  0.30050869  1
  Sc  Sc86  1  0.90510992  0.70331085  0.50324067  1
  Sc  Sc87  1  0.50437436  0.68270113  0.89441322  1
  Sc  Sc88  1  0.89755365  0.89107100  0.90920988  1
  Sc  Sc89  1  0.09336570  0.49985567  0.49606042  1
  Sc  Sc90  1  0.51430776  0.30420303  0.51040258  1
  Sc  Sc91  1  0.50147235  0.50370940  0.31144545  1
  Sc  Sc92  1  0.70544474  0.69931446  0.10577721  1
  Sc  Sc93  1  0.49382428  0.49283264  0.09646757  1
  Sc  Sc94  1  0.50557301  0.10017746  0.30354642  1
  Sc  Sc95  1  0.90078163  0.50235029  0.08963806  1
  Sc  Sc96  1  0.49601039  0.30038645  0.29004601  1
  Sc  Sc97  1  0.90140667  0.30306916  0.09102463  1
  Sc  Sc98  1  0.89750737  0.50300842  0.51260836  1
  Sc  Sc99  1  0.69606293  0.90098629  0.50550861  1
  Nb  Nb100  1  0.89852605  0.50433257  0.70338368  1
  Nb  Nb101  1  0.49778412  0.89839020  0.30450541  1
  Nb  Nb102  1  0.30492277  0.48921174  0.29756098  1
  Nb  Nb103  1  0.49811159  0.29895187  0.88974479  1
  Nb  Nb104  1  0.29629665  0.50336848  0.90465052  1
  Nb  Nb105  1  0.70163848  0.09454364  0.89547517  1
  Nb  Nb106  1  0.09743158  0.69312230  0.30709412  1
  Nb  Nb107  1  0.70202143  0.89833243  0.09610570  1
  Nb  Nb108  1  0.09878929  0.30128986  0.49552904  1
  Nb  Nb109  1  0.70930641  0.50557163  0.69374386  1
  Nb  Nb110  1  0.09957405  0.69947843  0.48882575  1
  Nb  Nb111  1  0.09634888  0.10130561  0.69867734  1
  Nb  Nb112  1  0.50191429  0.70408977  0.29746388  1
  Nb  Nb113  1  0.50788992  0.50763967  0.50045946  1
  Nb  Nb114  1  0.70284667  0.09912246  0.29576499  1
  Nb  Nb115  1  0.50122374  0.69962716  0.70304350  1
  Nb  Nb116  1  0.09459913  0.89957574  0.89796922  1
  Nb  Nb117  1  0.89514188  0.90715999  0.29768147  1
  Nb  Nb118  1  0.49775781  0.29555522  0.71325247  1
  Nb  Nb119  1  0.71061706  0.10032534  0.69860135  1
  Nb  Nb120  1  0.09821781  0.30166458  0.10050783  1
  Nb  Nb121  1  0.90409595  0.50151925  0.89446837  1
  Nb  Nb122  1  0.30909653  0.90457431  0.30329909  1
  Nb  Nb123  1  0.90358227  0.29504624  0.49957370  1
  Nb  Nb124  1  0.30043300  0.30646359  0.30676594  1
  Nb  Nb125  1  0.20382567  -0.00194958  0.39558794  1
  Nb  Nb126  1  0.59739852  0.59748522  0.60074984  1
  Nb  Nb127  1  0.79887871  0.00218768  0.00130874  1
  Nb  Nb128  1  0.79437026  -0.00081926  0.39017499  1
  Nb  Nb129  1  0.20257613  0.20205645  0.40166323  1
  Nb  Nb130  1  0.00501059  0.20631572  0.19907922  1
  Nb  Nb131  1  0.80770741  0.79932759  0.79663571  1
  Nb  Nb132  1  0.39989037  0.80073578  0.20494189  1
  Nb  Nb133  1  0.60570271  0.39941469  0.19802308  1
  Nb  Nb134  1  0.80271741  0.40832088  0.79550901  1
  Nb  Nb135  1  -0.00038675  0.80021588  0.79872263  1
  Nb  Nb136  1  0.39356269  0.60194385  0.20676656  1
  Nb  Nb137  1  0.39404903  0.20396103  0.40562275  1
  Nb  Nb138  1  0.79628980  0.59860843  0.39949880  1
  Nb  Nb139  1  -0.00460680  0.00018926  0.00018558  1
  Nb  Nb140  1  0.40141480  0.80016363  -0.00394499  1
  Nb  Nb141  1  0.00600906  0.20252703  0.59584413  1
  Nb  Nb142  1  0.40360223  0.20372193  0.60439107  1
  Nb  Nb143  1  0.40430514  0.79523758  0.80138611  1
  Nb  Nb144  1  0.59421782  0.80269831  0.00212291  1
  Nb  Nb145  1  0.79665977  0.39900761  0.19963797  1
  Nb  Nb146  1  -0.00721266  0.40729783  0.79683023  1
  Nb  Nb147  1  0.60477963  -0.00310217  0.20380931  1
  Nb  Nb148  1  0.19841454  0.20019529  0.79056630  1
  Nb  Nb149  1  0.00489459  0.60274973  0.20567083  1
  Pd  Pd150  1  0.40258254  0.20255948  0.20192140  1
  Pd  Pd151  1  0.20491073  0.80784808  0.21331826  1
  Pd  Pd152  1  -0.00512961  0.39686665  0.60206062  1
  Pd  Pd153  1  0.59632458  0.38781374  0.39180917  1
  Pd  Pd154  1  0.19165739  0.39734293  0.80514744  1
  Pd  Pd155  1  0.58736992  0.58844569  0.19443348  1
  Pd  Pd156  1  0.19170088  -0.01165248  0.20455905  1
  Pd  Pd157  1  0.39693338  0.01431891  0.39578555  1
  Pd  Pd158  1  0.80523453  0.40349529  0.40031244  1
  Pd  Pd159  1  0.59184135  0.81056650  0.18957557  1
  Pd  Pd160  1  0.00601571  0.19050798  0.00962124  1
  Pd  Pd161  1  0.39306286  0.40813643  0.80523509  1
  Pd  Pd162  1  0.20802021  0.59104919  0.40736054  1
  Pd  Pd163  1  0.19964185  0.59387935  0.58727719  1
  Pd  Pd164  1  0.39581702  0.60865803  0.39114434  1
  Pd  Pd165  1  0.19941747  0.79590655  0.80358170  1
  Pd  Pd166  1  -0.01038981  -0.00709018  0.80642107  1
  Pd  Pd167  1  0.20085154  0.20173781  0.59913741  1
  Pd  Pd168  1  -0.00732591  0.80170265  0.39708828  1
  Pd  Pd169  1  0.19079790  0.00256770  -0.00826610  1
  Pd  Pd170  1  0.80101801  0.40270555  -0.00666447  1
  Pd  Pd171  1  0.79438291  0.19673782  -0.00387463  1
  Pd  Pd172  1  0.20258716  0.20189772  -0.01095275  1
  Pd  Pd173  1  0.19504628  0.81213776  0.39926072  1
  Pd  Pd174  1  0.80604834  0.39757739  0.60307555  1
  Pd  Pd175  1  0.19391918  0.80837346  0.59191089  1
  Pd  Pd176  1  0.41324922  0.39980820  0.60375348  1
  Pd  Pd177  1  0.01099967  0.60591338  0.79871651  1
  Pd  Pd178  1  0.20750473  0.39365225  0.19558673  1
  Pd  Pd179  1  0.59531563  0.80118371  0.40659057  1
  Pd  Pd180  1  0.40954991  0.00241162  0.20476153  1
  Pd  Pd181  1  0.01078614  0.00470280  0.18784169  1
  Pd  Pd182  1  0.00638576  0.60348719  0.00928904  1
  Pd  Pd183  1  0.59670241  0.40422412  0.61077177  1
  Pd  Pd184  1  0.40515099  0.59441679  0.60792252  1
  Pd  Pd185  1  0.79471822  0.60465063  0.80408097  1
  Pd  Pd186  1  0.60110048  0.60490909  0.00808938  1
  Pd  Pd187  1  0.00269278  0.79823165  -0.00235273  1
  Pd  Pd188  1  0.60679701  0.19271035  0.79923674  1
  Pd  Pd189  1  0.80069855  0.79307326  0.60737493  1
  Pd  Pd190  1  0.59467263  0.20406391  0.39751314  1
  Pd  Pd191  1  0.19450669  0.60018776  0.01002165  1
  Pd  Pd192  1  0.41625118  0.39210854  0.40283607  1
  Pd  Pd193  1  0.19941715  0.41520102  0.59177898  1
  Pd  Pd194  1  0.61171632  0.40478708  0.80081390  1
  Pd  Pd195  1  0.81055072  -0.00807805  0.80534377  1
  Pd  Pd196  1  0.19918818  -0.01323886  0.58979928  1
  Pd  Pd197  1  0.60557251  -0.00029264  0.00576868  1
  Pd  Pd198  1  -0.01139066  0.60027818  0.39927284  1
  Pd  Pd199  1  0.00410668  0.19844877  0.40091928  1
  Rh  Rh200  1  0.60458326  0.00770641  0.60611720  1
  Rh  Rh201  1  0.20260115  0.39325665  0.00183518  1
  Rh  Rh202  1  0.20033478  0.59510482  0.20420038  1
  Rh  Rh203  1  -0.01141700  0.39896039  0.18961770  1
  Rh  Rh204  1  -0.00369162  0.79352151  0.20768544  1
  Rh  Rh205  1  0.59436470  0.39594847  -0.00032885  1
  Rh  Rh206  1  0.01523284  0.21683501  0.78443558  1
  Rh  Rh207  1  0.40915421  0.00165942  0.60512886  1
  Rh  Rh208  1  0.60940193  -0.00554557  0.39023844  1
  Rh  Rh209  1  0.59855684  0.78981622  0.81133858  1
  Rh  Rh210  1  0.80844548  0.19142172  0.59406539  1
  Rh  Rh211  1  0.39904429  -0.00786220  0.79797977  1
  Rh  Rh212  1  0.81395199  0.59255224  0.20761228  1
  Rh  Rh213  1  0.19729138  0.60063890  0.80020409  1
  Rh  Rh214  1  -0.00444656  0.00920565  0.59874360  1
  Rh  Rh215  1  0.39378859  0.60287697  0.00758687  1
  Rh  Rh216  1  -0.00083265  0.40051969  -0.00801860  1
  Rh  Rh217  1  0.39366795  0.59837356  0.79724834  1
  Rh  Rh218  1  0.78976079  0.80199683  -0.00553342  1
  Rh  Rh219  1  0.40159923  0.79310628  0.39168331  1
  Rh  Rh220  1  0.19230131  0.21477211  0.20806359  1
  Rh  Rh221  1  -0.00562911  0.40365840  0.41298780  1
  Rh  Rh222  1  0.59462674  0.20018156  0.20344258  1
  Rh  Rh223  1  0.79622007  0.80160272  0.20324831  1
  Rh  Rh224  1  0.20183648  0.40394290  0.40721994  1
  Rh  Rh225  1  0.79574092  0.00570428  0.58829316  1
  Rh  Rh226  1  0.79974916  0.18781202  0.40755991  1
  Rh  Rh227  1  -0.00694907  -0.00852449  0.40135057  1
  Rh  Rh228  1  0.59374115  0.19397477  0.61221689  1
  Rh  Rh229  1  0.40015060  0.20385709  -0.00889943  1
  Rh  Rh230  1  0.40616537  0.40521102  0.20131107  1
  Rh  Rh231  1  0.79015095  0.20710792  0.80399034  1
  Rh  Rh232  1  0.60178957  0.60905784  0.40924447  1
  Rh  Rh233  1  0.00539693  0.79313453  0.60468873  1
  Rh  Rh234  1  0.20499066  0.80341802  -0.00546314  1
  Rh  Rh235  1  0.80991873  0.21409262  0.19873541  1
  Rh  Rh236  1  0.79882994  0.59764003  -0.00375096  1
  Rh  Rh237  1  0.60969733  0.59652670  0.79269424  1
  Rh  Rh238  1  0.80060727  0.80151916  0.39972891  1
  Rh  Rh239  1  0.39626666  0.39469349  -0.00552463  1
  Rh  Rh240  1  0.60624808  0.01096599  0.79110577  1
  Rh  Rh241  1  0.59625319  0.79174175  0.59485214  1
  Rh  Rh242  1  0.19656053  0.00793201  0.80421170  1
  Rh  Rh243  1  0.40711236  0.80347192  0.60908591  1
  Rh  Rh244  1  0.39709314  -0.00348371  -0.00755217  1
  Rh  Rh245  1  0.79227979  0.60317920  0.59252056  1
  Rh  Rh246  1  0.00694287  0.60525502  0.59366740  1
  Rh  Rh247  1  0.39087521  0.19987070  0.79620558  1
  Rh  Rh248  1  0.59911251  0.20065199  -0.01184083  1
  Rh  Rh249  1  0.78681733  -0.01234901  0.20209690  1
