# generated using pymatgen
data_ZrScNbPdRh
_symmetry_space_group_name_H-M   'P 1'
_cell_length_a   16.55772754
_cell_length_b   16.55236168
_cell_length_c   16.55453070
_cell_angle_alpha   89.98140854
_cell_angle_beta   89.99903108
_cell_angle_gamma   89.97402163
_symmetry_Int_Tables_number   1
_chemical_formula_structural   ZrScNbPdRh
_chemical_formula_sum   'Zr50 Sc50 Nb50 Pd50 Rh50'
_cell_volume   4537.09116133
_cell_formula_units_Z   50
loop_
 _symmetry_equiv_pos_site_id
 _symmetry_equiv_pos_as_xyz
  1  'x, y, z'
loop_
 _atom_site_type_symbol
 _atom_site_label
 _atom_site_symmetry_multiplicity
 _atom_site_fract_x
 _atom_site_fract_y
 _atom_site_fract_z
 _atom_site_occupancy
  Zr  Zr0  1  0.90316745  0.09746068  0.30212753  1
  Zr  Zr1  1  0.29728945  0.50373269  0.29834148  1
  Zr  Zr2  1  0.69958307  0.30497736  0.49547686  1
  Zr  Zr3  1  0.49299895  0.50487709  0.88994690  1
  Zr  Zr4  1  0.89685563  0.89250779  0.50183976  1
  Zr  Zr5  1  0.09885611  0.10127489  0.50643623  1
  Zr  Zr6  1  0.50037791  0.69957793  0.29539666  1
  Zr  Zr7  1  0.90074016  0.50137672  0.69475933  1
  Zr  Zr8  1  0.69238154  0.09680274  0.50197655  1
  Zr  Zr9  1  0.49656312  0.29163658  0.10137467  1
  Zr  Zr10  1  0.49895529  0.10125350  0.11480957  1
  Zr  Zr11  1  0.10738484  0.10113104  0.10411400  1
  Zr  Zr12  1  0.29097070  0.70284021  0.69669109  1
  Zr  Zr13  1  0.49567442  0.70184934  0.90670769  1
  Zr  Zr14  1  0.10852770  0.90910398  0.49790787  1
  Zr  Zr15  1  0.29391501  0.10265902  0.69628854  1
  Zr  Zr16  1  0.89828518  0.69541508  0.50278153  1
  Zr  Zr17  1  0.09611712  0.29577097  0.11004771  1
  Zr  Zr18  1  0.69911364  0.90075022  0.29703942  1
  Zr  Zr19  1  0.10039756  0.89325899  0.10312602  1
  Zr  Zr20  1  0.69459245  0.90289299  0.70395057  1
  Zr  Zr21  1  0.09884279  0.70556190  0.90128261  1
  Zr  Zr22  1  0.90589112  0.30175050  0.29602224  1
  Zr  Zr23  1  0.70040609  0.90151448  0.89978009  1
  Zr  Zr24  1  0.69793438  0.10204392  0.71635272  1
  Zr  Zr25  1  0.48989578  0.30249690  0.69606887  1
  Zr  Zr26  1  0.91059710  0.70129443  0.08785857  1
  Zr  Zr27  1  0.10101485  0.49685764  0.69338212  1
  Zr  Zr28  1  0.10759886  0.69752452  0.29920906  1
  Zr  Zr29  1  0.69400412  0.69619484  0.89837170  1
  Zr  Zr30  1  0.89357335  0.90198633  0.09804391  1
  Zr  Zr31  1  0.30583719  0.09742493  0.49873636  1
  Zr  Zr32  1  0.09771975  0.49659197  0.89682790  1
  Zr  Zr33  1  0.30215412  0.69116907  0.09963065  1
  Zr  Zr34  1  0.49605694  0.69793579  0.49654928  1
  Zr  Zr35  1  0.48623582  0.69996487  0.69886111  1
  Zr  Zr36  1  0.70093750  0.30406667  0.30420029  1
  Zr  Zr37  1  0.30175883  0.29804023  0.90376537  1
  Zr  Zr38  1  0.49278783  0.30185087  0.48976944  1
  Zr  Zr39  1  0.29832638  0.70045687  0.89844691  1
  Zr  Zr40  1  0.29539283  0.09741492  0.89925166  1
  Zr  Zr41  1  0.90606017  0.71009344  0.69355383  1
  Zr  Zr42  1  0.09693957  0.30183954  0.69924491  1
  Zr  Zr43  1  0.50050451  0.89661918  0.89386265  1
  Zr  Zr44  1  0.29575853  0.49881035  0.90527585  1
  Zr  Zr45  1  0.10223295  0.50660667  0.49553261  1
  Zr  Zr46  1  0.49576130  0.29684605  0.89812055  1
  Zr  Zr47  1  0.30968565  0.50028124  0.70484004  1
  Zr  Zr48  1  0.89852561  0.50749614  0.90942730  1
  Zr  Zr49  1  0.91019233  0.09691892  0.50223614  1
  Sc  Sc50  1  0.10555346  0.70218208  0.09480682  1
  Sc  Sc51  1  0.70805903  0.49991631  0.49225882  1
  Sc  Sc52  1  0.90111971  0.70546993  0.89760445  1
  Sc  Sc53  1  0.30504035  0.49578659  0.48908893  1
  Sc  Sc54  1  0.09648183  0.10224617  0.30116654  1
  Sc  Sc55  1  0.70678612  0.08976169  0.11109033  1
  Sc  Sc56  1  0.90031087  0.30028051  0.50006726  1
  Sc  Sc57  1  0.69811244  0.49867961  0.30279214  1
  Sc  Sc58  1  0.49239411  0.09475819  0.89233253  1
  Sc  Sc59  1  0.10759468  0.49955700  0.09848019  1
  Sc  Sc60  1  0.90715452  0.09988553  0.09827500  1
  Sc  Sc61  1  0.10200119  0.30176963  0.51075363  1
  Sc  Sc62  1  0.69135414  0.89678116  0.50853527  1
  Sc  Sc63  1  0.30289167  0.30539084  0.30883082  1
  Sc  Sc64  1  0.90421710  0.89962940  0.89577181  1
  Sc  Sc65  1  0.10049769  0.09623429  0.69459919  1
  Sc  Sc66  1  0.49594113  0.70251417  0.10154578  1
  Sc  Sc67  1  0.29509429  0.29370634  0.09853545  1
  Sc  Sc68  1  0.90011727  0.89552335  0.30381697  1
  Sc  Sc69  1  0.89438621  0.49476739  0.29916901  1
  Sc  Sc70  1  0.50188693  0.51000372  0.31224548  1
  Sc  Sc71  1  0.90735938  0.30936579  0.90389714  1
  Sc  Sc72  1  0.11436333  0.49946308  0.29798222  1
  Sc  Sc73  1  0.30638822  0.70026413  0.30496994  1
  Sc  Sc74  1  0.49291135  0.51081656  0.09709346  1
  Sc  Sc75  1  0.68361752  0.70679077  0.09585987  1
  Sc  Sc76  1  0.90343411  0.30631892  0.69681664  1
  Sc  Sc77  1  0.50162006  0.89199663  0.10500791  1
  Sc  Sc78  1  0.49880823  0.10419432  0.30327979  1
  Sc  Sc79  1  0.89605423  0.70415680  0.30975949  1
  Sc  Sc80  1  0.49551423  0.09250995  0.69926902  1
  Sc  Sc81  1  0.29691106  0.29865612  0.69540312  1
  Sc  Sc82  1  0.29891550  0.90376617  0.90034337  1
  Sc  Sc83  1  0.90030211  0.09251703  0.89632355  1
  Sc  Sc84  1  0.10150826  0.09420357  0.90293955  1
  Sc  Sc85  1  0.70236333  0.30419543  0.10238245  1
  Sc  Sc86  1  0.09659185  0.89854754  0.69868235  1
  Sc  Sc87  1  0.29845442  0.70575822  0.50218393  1
  Sc  Sc88  1  0.69394748  0.69620373  0.30193096  1
  Sc  Sc89  1  0.30165129  0.09745108  0.10447593  1
  Sc  Sc90  1  0.29469913  0.89554555  0.68879310  1
  Sc  Sc91  1  0.69446969  0.10158937  0.29749340  1
  Sc  Sc92  1  0.29948204  0.90779753  0.11240990  1
  Sc  Sc93  1  0.30816928  0.09319968  0.29568702  1
  Sc  Sc94  1  0.90708695  0.09618450  0.70532432  1
  Sc  Sc95  1  0.10594254  0.30171612  0.90932538  1
  Sc  Sc96  1  0.30639906  0.30084273  0.50227172  1
  Sc  Sc97  1  0.70783542  0.70094918  0.69889481  1
  Sc  Sc98  1  0.70840572  0.49721770  0.09425771  1
  Sc  Sc99  1  0.29495502  0.49883569  0.10057825  1
  Nb  Nb100  1  0.10235178  0.69752643  0.69225386  1
  Nb  Nb101  1  0.70371829  0.70511050  0.49577638  1
  Nb  Nb102  1  0.90614513  0.49970234  0.49865394  1
  Nb  Nb103  1  0.49661492  0.90551458  0.50578197  1
  Nb  Nb104  1  0.50527004  0.89704275  0.69042430  1
  Nb  Nb105  1  0.10567457  0.89810717  0.29881397  1
  Nb  Nb106  1  0.50210839  0.29751201  0.29588790  1
  Nb  Nb107  1  0.69672094  0.50014706  0.89451519  1
  Nb  Nb108  1  0.69989055  0.90051559  0.10115050  1
  Nb  Nb109  1  0.30045714  0.90262168  0.31247260  1
  Nb  Nb110  1  0.69651465  0.29348521  0.89109578  1
  Nb  Nb111  1  0.89771491  0.30757613  0.10541388  1
  Nb  Nb112  1  0.89927816  0.90275723  0.70069199  1
  Nb  Nb113  1  0.69751314  0.10333069  0.89664270  1
  Nb  Nb114  1  0.89908241  0.49810151  0.10225333  1
  Nb  Nb115  1  0.09900410  0.69582191  0.50464026  1
  Nb  Nb116  1  0.09625180  0.89954309  0.89845630  1
  Nb  Nb117  1  0.49829745  0.09788473  0.50370455  1
  Nb  Nb118  1  0.10341245  0.30234295  0.30085221  1
  Nb  Nb119  1  0.48953794  0.89570330  0.30656211  1
  Nb  Nb120  1  0.50366682  0.49894025  0.50143972  1
  Nb  Nb121  1  0.30544020  0.90187605  0.48985680  1
  Nb  Nb122  1  0.69807598  0.49944073  0.70097115  1
  Nb  Nb123  1  0.49899011  0.50039285  0.69540644  1
  Nb  Nb124  1  0.69687226  0.29814940  0.70195449  1
  Nb  Nb125  1  0.80708904  0.20606074  0.19732431  1
  Nb  Nb126  1  0.79681286  0.79807792  0.19406564  1
  Nb  Nb127  1  0.40680349  0.39830431  0.20381688  1
  Nb  Nb128  1  0.00420713  0.20401183  0.80162565  1
  Nb  Nb129  1  0.01357201  0.79718072  0.40467925  1
  Nb  Nb130  1  0.79395998  0.19650490  0.60392097  1
  Nb  Nb131  1  0.19918445  0.20048330  0.40204697  1
  Nb  Nb132  1  0.60315031  0.00300372  0.00068862  1
  Nb  Nb133  1  0.59214792  0.80321385  0.40249992  1
  Nb  Nb134  1  0.59154556  0.39852366  0.19769359  1
  Nb  Nb135  1  0.79808365  -0.00081750  0.40693419  1
  Nb  Nb136  1  0.60694413  0.19457360  -0.00260361  1
  Nb  Nb137  1  0.00549306  -0.00818690  0.20168969  1
  Nb  Nb138  1  0.80600670  0.60572644  0.19213569  1
  Nb  Nb139  1  0.00476148  0.40221632  0.39896620  1
  Nb  Nb140  1  0.79022983  0.40309678  0.80138445  1
  Nb  Nb141  1  0.59971753  0.59417249  0.59921426  1
  Nb  Nb142  1  0.60109628  0.40229699  0.79621107  1
  Nb  Nb143  1  -0.00563315  0.59853654  0.19635573  1
  Nb  Nb144  1  0.79705185  0.20329625  -0.00122352  1
  Nb  Nb145  1  0.00454797  0.60342736  0.79276504  1
  Nb  Nb146  1  0.60081415  0.39650384  -0.00810086  1
  Nb  Nb147  1  0.59881464  0.20416079  0.60147218  1
  Nb  Nb148  1  0.79950567  0.00169914  0.60282404  1
  Nb  Nb149  1  0.59981036  0.40268441  0.60261848  1
  Pd  Pd150  1  -0.00007444  0.59769775  0.38874984  1
  Pd  Pd151  1  0.79969174  0.59679717  0.39287172  1
  Pd  Pd152  1  0.00816249  0.41189163  0.20530314  1
  Pd  Pd153  1  0.59502360  0.19829058  0.40326763  1
  Pd  Pd154  1  0.79363653  0.60896460  0.00456773  1
  Pd  Pd155  1  0.20557650  0.39456197  0.79930111  1
  Pd  Pd156  1  0.40135777  0.18638514  0.00166283  1
  Pd  Pd157  1  0.81633823  0.20837133  0.80148193  1
  Pd  Pd158  1  0.19571268  -0.00559542  0.79465807  1
  Pd  Pd159  1  0.39263590  0.80109783  0.20065258  1
  Pd  Pd160  1  -0.00592260  0.20082587  -0.00479934  1
  Pd  Pd161  1  0.19127509  0.20190038  0.80266358  1
  Pd  Pd162  1  0.19968333  0.01241305  0.39280391  1
  Pd  Pd163  1  0.59142723  -0.00706595  0.20036769  1
  Pd  Pd164  1  0.59958861  0.78790229  0.59775462  1
  Pd  Pd165  1  0.79541294  0.00859194  -0.00493797  1
  Pd  Pd166  1  0.40844896  -0.00046670  0.00795621  1
  Pd  Pd167  1  0.20978886  0.40534016  0.59470076  1
  Pd  Pd168  1  0.59739467  0.79090329  0.79420321  1
  Pd  Pd169  1  0.39549272  -0.00465054  0.60452826  1
  Pd  Pd170  1  0.00329341  -0.00350950  0.00501328  1
  Pd  Pd171  1  0.40234193  0.40345229  0.00865531  1
  Pd  Pd172  1  0.20872959  0.20115373  0.21243226  1
  Pd  Pd173  1  0.19530360  0.80764362  0.79822688  1
  Pd  Pd174  1  0.21279935  0.79695718  0.20212384  1
  Pd  Pd175  1  0.00561323  0.40214102  0.00824088  1
  Pd  Pd176  1  0.80122486  0.19301912  0.40005789  1
  Pd  Pd177  1  0.00875859  0.80629473  0.59386949  1
  Pd  Pd178  1  -0.00669506  0.79611679  0.20810193  1
  Pd  Pd179  1  0.39645145  0.19667955  0.79545853  1
  Pd  Pd180  1  0.20813073  0.80783555  0.00219750  1
  Pd  Pd181  1  0.19938028  -0.00491756  0.00271890  1
  Pd  Pd182  1  0.79733760  0.39669265  0.60192492  1
  Pd  Pd183  1  0.19902974  0.79512602  0.40474201  1
  Pd  Pd184  1  0.80867210  0.59934660  0.79812440  1
  Pd  Pd185  1  0.79454488  0.79399677  0.00142394  1
  Pd  Pd186  1  0.79331985  0.59943066  0.59589418  1
  Pd  Pd187  1  0.19460648  0.59895573  0.79975126  1
  Pd  Pd188  1  0.39529185  0.59640196  0.59189119  1
  Pd  Pd189  1  0.79306528  0.39280166  -0.00798836  1
  Pd  Pd190  1  0.21147284  0.59304990  0.59299638  1
  Pd  Pd191  1  0.59972627  0.59253539  0.00411819  1
  Pd  Pd192  1  0.80109906  0.80223814  0.80063486  1
  Pd  Pd193  1  0.39332025  0.80748245  0.79428247  1
  Pd  Pd194  1  0.39325374  0.80797737  0.00562736  1
  Pd  Pd195  1  0.60726452  0.58999652  0.19225753  1
  Pd  Pd196  1  0.59620003  0.60436539  0.79004256  1
  Pd  Pd197  1  0.00939768  0.21166680  0.40337770  1
  Pd  Pd198  1  0.59765369  -0.00662948  0.39689681  1
  Pd  Pd199  1  0.39485040  -0.01053030  0.78799626  1
  Rh  Rh200  1  0.00504350  0.79725785  0.79748637  1
  Rh  Rh201  1  0.20522104  -0.00222073  0.59886551  1
  Rh  Rh202  1  0.39703906  0.60091597  0.40239508  1
  Rh  Rh203  1  0.79503320  0.80689416  0.60549584  1
  Rh  Rh204  1  0.39391397  0.60574126  0.80126213  1
  Rh  Rh205  1  0.19886854  0.39521318  0.00594799  1
  Rh  Rh206  1  0.20963081  0.39360038  0.19739815  1
  Rh  Rh207  1  0.20123607  0.19433638  -0.00066282  1
  Rh  Rh208  1  0.00725214  0.59438119  -0.00041506  1
  Rh  Rh209  1  0.19859349  0.59990518  -0.00265122  1
  Rh  Rh210  1  0.19624310  0.80245411  0.59165034  1
  Rh  Rh211  1  0.81232003  0.40386998  0.40236700  1
  Rh  Rh212  1  0.20497975  0.19812606  0.59271109  1
  Rh  Rh213  1  0.00207444  0.80812938  -0.00670318  1
  Rh  Rh214  1  0.39659478  0.19535619  0.39778944  1
  Rh  Rh215  1  0.60028034  0.00761627  0.60810905  1
  Rh  Rh216  1  0.59723272  0.80884467  -0.00253562  1
  Rh  Rh217  1  -0.00449575  0.19370669  0.19756018  1
  Rh  Rh218  1  0.20667593  0.60626075  0.40369209  1
  Rh  Rh219  1  0.80383654  -0.00466605  0.79825934  1
  Rh  Rh220  1  -0.00525130  -0.00624324  0.60477710  1
  Rh  Rh221  1  0.59483323  0.40318844  0.39738781  1
  Rh  Rh222  1  0.19690837  0.60558479  0.19654500  1
  Rh  Rh223  1  0.40362682  0.80160780  0.40598772  1
  Rh  Rh224  1  0.78939688  0.80538786  0.39614572  1
  Rh  Rh225  1  0.40626058  0.40425951  0.39092697  1
  Rh  Rh226  1  0.39955601  0.40489602  0.59614602  1
  Rh  Rh227  1  0.39822613  0.80616947  0.59568882  1
  Rh  Rh228  1  -0.00037519  0.40217408  0.58843615  1
  Rh  Rh229  1  0.39654460  0.59961252  -0.00251845  1
  Rh  Rh230  1  0.00606687  0.00159856  0.79984780  1
  Rh  Rh231  1  -0.00162626  -0.01349655  0.39176677  1
  Rh  Rh232  1  0.80971835  -0.00256685  0.20932393  1
  Rh  Rh233  1  -0.00884661  0.40458650  0.80197872  1
  Rh  Rh234  1  -0.00713394  0.20192996  0.61137321  1
  Rh  Rh235  1  0.79075268  0.40313039  0.20294565  1
  Rh  Rh236  1  0.60180192  0.80312552  0.20888899  1
  Rh  Rh237  1  0.60604691  0.60700373  0.41158817  1
  Rh  Rh238  1  0.19244012  0.38980080  0.40511825  1
  Rh  Rh239  1  0.39937625  0.59445130  0.20302170  1
  Rh  Rh240  1  0.19516557  -0.00074525  0.20749624  1
  Rh  Rh241  1  0.59239992  -0.00119569  0.80424688  1
  Rh  Rh242  1  0.40406087  -0.00668846  0.20702427  1
  Rh  Rh243  1  0.40381106  0.19614157  0.59843807  1
  Rh  Rh244  1  0.39690821  0.39768475  0.80021631  1
  Rh  Rh245  1  0.00049194  0.59949386  0.60417985  1
  Rh  Rh246  1  0.40916007  0.00314245  0.39968047  1
  Rh  Rh247  1  0.39124267  0.20785300  0.20721753  1
  Rh  Rh248  1  0.61452320  0.20688355  0.19677882  1
  Rh  Rh249  1  0.58540108  0.20098122  0.79675131  1
