# generated using pymatgen
data_ZrScNbPdRh
_symmetry_space_group_name_H-M   'P 1'
_cell_length_a   16.55432335
_cell_length_b   16.55515840
_cell_length_c   16.55532730
_cell_angle_alpha   89.98853937
_cell_angle_beta   90.01481503
_cell_angle_gamma   89.99860386
_symmetry_Int_Tables_number   1
_chemical_formula_structural   ZrScNbPdRh
_chemical_formula_sum   'Zr50 Sc50 Nb50 Pd50 Rh50'
_cell_volume   4537.14357081
_cell_formula_units_Z   50
loop_
 _symmetry_equiv_pos_site_id
 _symmetry_equiv_pos_as_xyz
  1  'x, y, z'
loop_
 _atom_site_type_symbol
 _atom_site_label
 _atom_site_symmetry_multiplicity
 _atom_site_fract_x
 _atom_site_fract_y
 _atom_site_fract_z
 _atom_site_occupancy
  Zr  Zr0  1  0.69899214  0.29440344  0.49442595  1
  Zr  Zr1  1  0.10152611  0.50156552  0.70202793  1
  Zr  Zr2  1  0.70068792  0.69587398  0.69762093  1
  Zr  Zr3  1  0.70265804  0.29833935  0.09995681  1
  Zr  Zr4  1  0.10288721  0.30282596  0.09588444  1
  Zr  Zr5  1  0.50229641  0.89645472  0.49927183  1
  Zr  Zr6  1  0.50759527  0.70690408  0.30352749  1
  Zr  Zr7  1  0.90016784  0.30999785  0.29781024  1
  Zr  Zr8  1  0.50383630  0.49735939  0.89095668  1
  Zr  Zr9  1  0.50332423  0.10165059  0.70857895  1
  Zr  Zr10  1  0.69418256  0.50126582  0.50701444  1
  Zr  Zr11  1  0.50041021  0.90496023  0.09877764  1
  Zr  Zr12  1  0.50174074  0.10016941  0.09439121  1
  Zr  Zr13  1  0.49631356  0.30372124  0.11048043  1
  Zr  Zr14  1  0.89718271  0.50086455  0.70765524  1
  Zr  Zr15  1  0.09717706  0.29748935  0.29725210  1
  Zr  Zr16  1  0.29693308  0.89467274  0.69994480  1
  Zr  Zr17  1  0.29443720  0.71228902  0.30288104  1
  Zr  Zr18  1  0.29608940  0.90168707  0.49438072  1
  Zr  Zr19  1  0.49830137  0.50280926  0.50464359  1
  Zr  Zr20  1  0.70214859  0.89795235  0.50732617  1
  Zr  Zr21  1  0.50753631  0.70621562  0.09972395  1
  Zr  Zr22  1  0.90752230  0.08206050  0.89564809  1
  Zr  Zr23  1  0.70504340  0.69608828  0.29973258  1
  Zr  Zr24  1  0.50204703  0.49820545  0.10448513  1
  Zr  Zr25  1  0.89801637  0.70020900  0.09356682  1
  Zr  Zr26  1  0.09330429  0.49144407  0.29782676  1
  Zr  Zr27  1  0.30502087  0.29022586  0.29571770  1
  Zr  Zr28  1  0.69775281  0.90099395  0.70365579  1
  Zr  Zr29  1  0.50290356  0.90369887  0.90204795  1
  Zr  Zr30  1  0.71412979  0.09660954  0.30108470  1
  Zr  Zr31  1  0.29666082  0.30128419  0.90553656  1
  Zr  Zr32  1  0.90280954  0.90281252  0.30211475  1
  Zr  Zr33  1  0.89591915  0.09615720  0.10787551  1
  Zr  Zr34  1  0.70070428  0.89506669  0.89645932  1
  Zr  Zr35  1  0.09821920  0.49672047  0.89732808  1
  Zr  Zr36  1  0.10009886  0.49758598  0.49975365  1
  Zr  Zr37  1  0.90245869  0.10219668  0.30483841  1
  Zr  Zr38  1  0.08653442  0.90928883  0.89667436  1
  Zr  Zr39  1  0.50500914  0.69412007  0.50038039  1
  Zr  Zr40  1  0.89850462  0.89365959  0.90193721  1
  Zr  Zr41  1  0.89550776  0.29023627  0.50011666  1
  Zr  Zr42  1  0.70250471  0.09798762  0.10283264  1
  Zr  Zr43  1  0.69688521  0.70108046  0.49775550  1
  Zr  Zr44  1  0.48844633  0.09384068  0.90018520  1
  Zr  Zr45  1  0.29836997  0.09878321  0.48696202  1
  Zr  Zr46  1  0.29277272  0.69845123  0.70254399  1
  Zr  Zr47  1  0.10039243  0.88907866  0.10065660  1
  Zr  Zr48  1  0.49359807  0.29550855  0.69489955  1
  Zr  Zr49  1  0.09589536  0.10060354  0.49794187  1
  Sc  Sc50  1  0.90615469  0.70433197  0.69577847  1
  Sc  Sc51  1  0.28845521  0.71286382  0.08770076  1
  Sc  Sc52  1  0.29850444  0.50503153  0.50478610  1
  Sc  Sc53  1  0.69318622  0.29384469  0.69772079  1
  Sc  Sc54  1  0.30735461  0.70347357  0.50921249  1
  Sc  Sc55  1  0.50437854  0.49384081  0.69780835  1
  Sc  Sc56  1  0.30162805  0.29205587  0.50410310  1
  Sc  Sc57  1  0.90072895  0.90236879  0.70656628  1
  Sc  Sc58  1  0.51083092  0.70025413  0.89825155  1
  Sc  Sc59  1  0.49960067  0.69045776  0.69977587  1
  Sc  Sc60  1  0.69303974  0.89876587  0.10375998  1
  Sc  Sc61  1  0.09919696  0.10601445  0.10799236  1
  Sc  Sc62  1  0.90876603  0.89750905  0.09368049  1
  Sc  Sc63  1  0.30640794  0.90618546  0.90525826  1
  Sc  Sc64  1  0.90073186  0.70439948  0.90172290  1
  Sc  Sc65  1  0.10592856  0.30805279  0.90134434  1
  Sc  Sc66  1  0.70960738  0.49818986  0.29821030  1
  Sc  Sc67  1  0.49543015  0.11039987  0.50223045  1
  Sc  Sc68  1  0.50552750  0.30031786  0.50455243  1
  Sc  Sc69  1  0.89547528  0.50644519  0.49579579  1
  Sc  Sc70  1  0.89738329  0.49506157  0.09477344  1
  Sc  Sc71  1  0.89359024  0.30105165  0.70470368  1
  Sc  Sc72  1  0.30196376  0.50018913  0.70130318  1
  Sc  Sc73  1  0.70164717  0.30215944  0.90195286  1
  Sc  Sc74  1  0.48848468  0.09968530  0.30372216  1
  Sc  Sc75  1  0.09907771  0.70793201  0.70371217  1
  Sc  Sc76  1  0.10124318  0.10610189  0.30192540  1
  Sc  Sc77  1  0.50245445  0.49827346  0.29427475  1
  Sc  Sc78  1  0.70016141  0.70116603  0.90004371  1
  Sc  Sc79  1  0.09457708  0.49651531  0.08658861  1
  Sc  Sc80  1  0.30611345  0.11246525  0.10235631  1
  Sc  Sc81  1  0.50398343  0.29519536  0.89431663  1
  Sc  Sc82  1  0.09163677  0.70713818  0.51245310  1
  Sc  Sc83  1  0.69726416  0.89959806  0.29794335  1
  Sc  Sc84  1  0.29001902  0.49782940  0.88984809  1
  Sc  Sc85  1  0.50414826  0.30115820  0.30245286  1
  Sc  Sc86  1  0.29637910  0.30274319  0.70313500  1
  Sc  Sc87  1  0.68678991  0.10195315  0.90041978  1
  Sc  Sc88  1  0.30094646  0.10659233  0.71191421  1
  Sc  Sc89  1  0.69866703  0.69769282  0.09488973  1
  Sc  Sc90  1  0.10532831  0.69752009  0.90117529  1
  Sc  Sc91  1  0.09270813  0.90049025  0.49815649  1
  Sc  Sc92  1  0.89282367  0.71338030  0.50098118  1
  Sc  Sc93  1  0.89724856  0.48968380  0.89837892  1
  Sc  Sc94  1  0.30036153  0.29554794  0.09886450  1
  Sc  Sc95  1  0.30324400  0.50094326  0.30026550  1
  Sc  Sc96  1  0.10549133  0.29717859  0.49161561  1
  Sc  Sc97  1  0.89383954  0.30364078  0.09304954  1
  Sc  Sc98  1  0.50539370  0.90620352  0.70799180  1
  Sc  Sc99  1  0.70066330  0.49734885  0.09377687  1
  Nb  Nb100  1  0.30215997  0.90876889  0.30473289  1
  Nb  Nb101  1  0.70477109  0.49790035  0.70538966  1
  Nb  Nb102  1  0.09635177  0.29511738  0.69350220  1
  Nb  Nb103  1  0.71510349  0.10027531  0.50043491  1
  Nb  Nb104  1  0.30468463  0.50014990  0.10264816  1
  Nb  Nb105  1  0.10202875  0.09779384  0.89874373  1
  Nb  Nb106  1  0.10224437  0.89906576  0.69874757  1
  Nb  Nb107  1  0.11295309  0.88973597  0.29926938  1
  Nb  Nb108  1  0.49846795  0.90305316  0.30147569  1
  Nb  Nb109  1  0.70151710  0.29726811  0.30093586  1
  Nb  Nb110  1  0.29920034  0.90318271  0.09938081  1
  Nb  Nb111  1  0.89637384  0.09995430  0.69801562  1
  Nb  Nb112  1  0.10002555  0.70017089  0.10279026  1
  Nb  Nb113  1  0.89855847  0.29319621  0.89733094  1
  Nb  Nb114  1  0.30329744  0.69705333  0.89654633  1
  Nb  Nb115  1  0.29945834  0.09498982  0.30422893  1
  Nb  Nb116  1  0.70516192  0.09607775  0.69733376  1
  Nb  Nb117  1  0.29492123  0.10450122  0.90847309  1
  Nb  Nb118  1  0.09875832  0.70510514  0.29394494  1
  Nb  Nb119  1  0.90125906  0.90667943  0.50034729  1
  Nb  Nb120  1  0.70194330  0.49791738  0.88389092  1
  Nb  Nb121  1  0.90078062  0.50898797  0.29496538  1
  Nb  Nb122  1  0.89552925  0.69425395  0.29959376  1
  Nb  Nb123  1  0.89372456  0.09391862  0.50081339  1
  Nb  Nb124  1  0.09977655  0.09840431  0.70524720  1
  Nb  Nb125  1  0.39724748  0.79571603  0.80416075  1
  Nb  Nb126  1  0.79809389  0.40091910  0.60290173  1
  Nb  Nb127  1  0.80522378  0.79427555  0.20168334  1
  Nb  Nb128  1  0.60341303  0.00287856  0.40568324  1
  Nb  Nb129  1  -0.00336492  0.19474562  0.60549138  1
  Nb  Nb130  1  -0.00178397  0.19634690  -0.00986708  1
  Nb  Nb131  1  0.19006829  0.60558789  0.39436435  1
  Nb  Nb132  1  0.60686105  0.19884217  0.20366863  1
  Nb  Nb133  1  0.39450729  0.61261337  0.19426203  1
  Nb  Nb134  1  0.39435216  0.00141510  0.60164734  1
  Nb  Nb135  1  0.19742741  0.00215444  0.60555513  1
  Nb  Nb136  1  0.00029584  0.60633286  0.39163001  1
  Nb  Nb137  1  0.79921820  -0.00166180  -0.00180920  1
  Nb  Nb138  1  0.20735471  -0.00511819  0.20338904  1
  Nb  Nb139  1  0.40060991  0.40703811  -0.00011081  1
  Nb  Nb140  1  -0.00292458  0.39526221  0.60243879  1
  Nb  Nb141  1  0.20128175  0.40353079  0.19735093  1
  Nb  Nb142  1  0.39760065  0.59889410  0.00053639  1
  Nb  Nb143  1  0.19935085  0.00498501  0.00471069  1
  Nb  Nb144  1  0.40086807  0.40023027  0.40185089  1
  Nb  Nb145  1  0.39734382  0.80994992  0.20179973  1
  Nb  Nb146  1  0.80392912  0.19085936  0.79847127  1
  Nb  Nb147  1  0.19623455  0.60197973  0.19757914  1
  Nb  Nb148  1  0.00103883  0.60508825  0.20016420  1
  Nb  Nb149  1  0.00123594  0.19527480  0.79837111  1
  Pd  Pd150  1  0.20462204  0.59466056  0.00181976  1
  Pd  Pd151  1  0.19998013  0.19223425  0.59941304  1
  Pd  Pd152  1  0.80386928  0.59939290  0.59837775  1
  Pd  Pd153  1  0.20171767  0.80523861  0.81175034  1
  Pd  Pd154  1  0.60014275  0.18946745  0.39401944  1
  Pd  Pd155  1  0.60250747  0.59727758  0.20168701  1
  Pd  Pd156  1  0.79903666  0.40336038  0.19659543  1
  Pd  Pd157  1  -0.00561539  0.59633784  0.59415746  1
  Pd  Pd158  1  0.60430495  0.59024359  0.39236691  1
  Pd  Pd159  1  -0.00107571  0.60731404  0.80506338  1
  Pd  Pd160  1  0.19787556  0.39766398  0.60188094  1
  Pd  Pd161  1  0.59367727  0.01095816  0.59402871  1
  Pd  Pd162  1  0.39423066  0.59752881  0.39433243  1
  Pd  Pd163  1  -0.00867681  0.79719823  0.20229966  1
  Pd  Pd164  1  0.80175779  0.40470819  0.40498715  1
  Pd  Pd165  1  0.19443130  0.20732133  0.80457358  1
  Pd  Pd166  1  0.40197244  0.60095930  0.80256152  1
  Pd  Pd167  1  -0.00240137  0.60097225  -0.00145904  1
  Pd  Pd168  1  0.19402147  0.79332963  0.41326520  1
  Pd  Pd169  1  0.00311982  0.39134866  0.79709170  1
  Pd  Pd170  1  0.80293958  0.79201336  0.79378719  1
  Pd  Pd171  1  0.00810932  -0.00190052  0.39194379  1
  Pd  Pd172  1  0.39458371  0.39998072  0.59484434  1
  Pd  Pd173  1  -0.00031727  0.79658826  0.40013270  1
  Pd  Pd174  1  0.79733292  0.59253030  -0.00867596  1
  Pd  Pd175  1  0.60418778  0.19237271  0.59964551  1
  Pd  Pd176  1  0.79762438  0.80640448  0.39604928  1
  Pd  Pd177  1  0.80522907  0.60876957  0.80604954  1
  Pd  Pd178  1  0.19803935  0.60619399  0.59572940  1
  Pd  Pd179  1  0.40341289  0.79399668  -0.00224473  1
  Pd  Pd180  1  -0.00878470  0.20940438  0.19171330  1
  Pd  Pd181  1  0.40280790  0.80018680  0.39909442  1
  Pd  Pd182  1  0.39592156  0.00233622  0.19475995  1
  Pd  Pd183  1  0.01221609  -0.00383572  0.20445871  1
  Pd  Pd184  1  0.20621838  -0.00147986  0.80380573  1
  Pd  Pd185  1  0.60030792  0.59394380  -0.00679117  1
  Pd  Pd186  1  -0.00924022  0.40322111  0.40916517  1
  Pd  Pd187  1  0.80384677  -0.00761040  0.60458164  1
  Pd  Pd188  1  0.00306638  0.00023027  0.60557322  1
  Pd  Pd189  1  0.60110958  0.39074470  0.79300724  1
  Pd  Pd190  1  0.59864677  0.39995046  -0.00260813  1
  Pd  Pd191  1  0.21215074  0.40076765  0.39446553  1
  Pd  Pd192  1  0.59689981  0.00881350  0.21220998  1
  Pd  Pd193  1  0.19564846  0.80926321  -0.01294024  1
  Pd  Pd194  1  0.40983295  0.80414628  0.61129457  1
  Pd  Pd195  1  0.80593610  0.18819150  -0.01094385  1
  Pd  Pd196  1  0.59464713  0.20606298  0.00389037  1
  Pd  Pd197  1  0.59470825  0.79640604  0.60914889  1
  Pd  Pd198  1  0.39579736  0.20520286  0.80564014  1
  Pd  Pd199  1  0.59560610  0.40515682  0.39615398  1
  Rh  Rh200  1  0.60315581  0.80349628  -0.00175320  1
  Rh  Rh201  1  0.80108990  0.60031241  0.40649327  1
  Rh  Rh202  1  0.20920696  0.80381434  0.19735960  1
  Rh  Rh203  1  0.41040433  -0.00080846  0.41015065  1
  Rh  Rh204  1  0.59315949  0.79514829  0.79605312  1
  Rh  Rh205  1  0.19990393  0.20053392  0.39506186  1
  Rh  Rh206  1  0.40560900  0.20902930  -0.00418216  1
  Rh  Rh207  1  0.80342261  0.60248691  0.18926000  1
  Rh  Rh208  1  0.39226510  -0.00414167  0.79660032  1
  Rh  Rh209  1  -0.00563781  0.19790886  0.40572933  1
  Rh  Rh210  1  0.60421265  0.00426169  0.80247938  1
  Rh  Rh211  1  0.60595053  0.39969119  0.60382990  1
  Rh  Rh212  1  0.79633627  -0.00792406  0.40480092  1
  Rh  Rh213  1  0.19538125  0.59972308  0.79848334  1
  Rh  Rh214  1  0.59984045  0.59704619  0.60686337  1
  Rh  Rh215  1  0.18877091  0.00034208  0.39649205  1
  Rh  Rh216  1  0.39236967  0.40320227  0.20428876  1
  Rh  Rh217  1  0.80544764  0.80692285  0.60398023  1
  Rh  Rh218  1  0.79041726  0.00455401  0.80584343  1
  Rh  Rh219  1  0.20344751  0.19872761  0.20420257  1
  Rh  Rh220  1  0.80061062  0.20292534  0.60607100  1
  Rh  Rh221  1  -0.00510230  0.38947744  -0.00545037  1
  Rh  Rh222  1  0.79316383  0.80734287  0.00948024  1
  Rh  Rh223  1  0.00888733  0.79161154  -0.00670767  1
  Rh  Rh224  1  0.00062136  0.40427462  0.18942156  1
  Rh  Rh225  1  0.61204408  0.39311291  0.20453625  1
  Rh  Rh226  1  0.19609591  0.39688337  0.79179201  1
  Rh  Rh227  1  0.39861347  0.39637515  0.80585027  1
  Rh  Rh228  1  0.00271971  -0.00110610  0.78743398  1
  Rh  Rh229  1  0.19350715  0.80694065  0.59598107  1
  Rh  Rh230  1  0.79241984  0.38894543  0.79752550  1
  Rh  Rh231  1  0.80590445  0.20151096  0.39409215  1
  Rh  Rh232  1  0.39962847  0.59783256  0.60553907  1
  Rh  Rh233  1  0.40719744  0.19501213  0.20279064  1
  Rh  Rh234  1  0.60813738  -0.00439322  -0.00440428  1
  Rh  Rh235  1  0.80169655  0.20905746  0.20742731  1
  Rh  Rh236  1  0.00326532  0.79990536  0.80005501  1
  Rh  Rh237  1  0.80619217  -0.01846009  0.19066585  1
  Rh  Rh238  1  0.18963513  0.19254611  0.00008146  1
  Rh  Rh239  1  -0.00422187  0.81190972  0.60387637  1
  Rh  Rh240  1  0.20933960  0.40696752  0.00644826  1
  Rh  Rh241  1  0.00421168  0.00910577  0.01454282  1
  Rh  Rh242  1  0.60597603  0.19797376  0.79640173  1
  Rh  Rh243  1  0.39310066  0.19385224  0.60434190  1
  Rh  Rh244  1  0.40178576  0.20955707  0.40018243  1
  Rh  Rh245  1  0.60169610  0.80096118  0.20449740  1
  Rh  Rh246  1  0.38987601  0.00777256  0.00524616  1
  Rh  Rh247  1  0.60509884  0.80805746  0.39813286  1
  Rh  Rh248  1  0.60614678  0.59929282  0.79666701  1
  Rh  Rh249  1  0.79645955  0.40248710  -0.00933942  1
