# generated using pymatgen
data_ZrScNbPdRh
_symmetry_space_group_name_H-M   'P 1'
_cell_length_a   16.56107122
_cell_length_b   16.56197478
_cell_length_c   16.56714588
_cell_angle_alpha   89.98606296
_cell_angle_beta   90.00406396
_cell_angle_gamma   90.00879981
_symmetry_Int_Tables_number   1
_chemical_formula_structural   ZrScNbPdRh
_chemical_formula_sum   'Zr50 Sc50 Nb50 Pd50 Rh50'
_cell_volume   4544.10356595
_cell_formula_units_Z   50
loop_
 _symmetry_equiv_pos_site_id
 _symmetry_equiv_pos_as_xyz
  1  'x, y, z'
loop_
 _atom_site_type_symbol
 _atom_site_label
 _atom_site_symmetry_multiplicity
 _atom_site_fract_x
 _atom_site_fract_y
 _atom_site_fract_z
 _atom_site_occupancy
  Zr  Zr0  1  0.10573570  0.70171389  0.29947489  1
  Zr  Zr1  1  0.89914373  0.70705787  0.89754953  1
  Zr  Zr2  1  0.29497330  0.88556514  0.30247098  1
  Zr  Zr3  1  0.09823095  0.49727249  0.10196336  1
  Zr  Zr4  1  0.89517219  0.30067816  0.50449459  1
  Zr  Zr5  1  0.88078423  0.89581444  0.09847797  1
  Zr  Zr6  1  0.50651817  0.10341554  0.49897374  1
  Zr  Zr7  1  0.90232930  0.70548128  0.49612796  1
  Zr  Zr8  1  0.30886936  0.69197519  0.90261759  1
  Zr  Zr9  1  0.89880338  0.10596621  0.49930852  1
  Zr  Zr10  1  0.50158568  0.50232346  0.29962092  1
  Zr  Zr11  1  0.08997402  0.49966506  0.30207232  1
  Zr  Zr12  1  0.49962413  0.29841338  0.70020712  1
  Zr  Zr13  1  0.10104233  0.49954428  0.69349517  1
  Zr  Zr14  1  0.29978116  0.69826027  0.48864286  1
  Zr  Zr15  1  0.69756626  0.10435305  0.70417837  1
  Zr  Zr16  1  0.29560675  0.69434482  0.10557690  1
  Zr  Zr17  1  0.70087830  0.29916751  0.10928612  1
  Zr  Zr18  1  0.09653029  0.90006580  0.30308536  1
  Zr  Zr19  1  0.71254638  0.29880616  0.89232906  1
  Zr  Zr20  1  0.50020375  0.70190427  0.89616536  1
  Zr  Zr21  1  0.09401806  0.09920625  0.90697283  1
  Zr  Zr22  1  0.49237751  0.89827955  0.70252538  1
  Zr  Zr23  1  0.29255865  0.50002147  0.50091202  1
  Zr  Zr24  1  0.48960795  0.70068029  0.30315476  1
  Zr  Zr25  1  0.28984652  0.10818871  0.10325656  1
  Zr  Zr26  1  0.49801402  0.90014037  0.89734844  1
  Zr  Zr27  1  0.90515169  0.50065210  0.10816214  1
  Zr  Zr28  1  0.90724599  0.49924622  0.69852370  1
  Zr  Zr29  1  0.90580865  0.10301399  0.89908862  1
  Zr  Zr30  1  0.30208563  0.70356500  0.68943007  1
  Zr  Zr31  1  0.50040398  0.50778826  0.89507416  1
  Zr  Zr32  1  0.10496397  0.29462081  0.88938908  1
  Zr  Zr33  1  0.89307247  0.09900381  0.69770066  1
  Zr  Zr34  1  0.30291578  0.89950087  0.09802243  1
  Zr  Zr35  1  0.89531793  0.49565228  0.90162625  1
  Zr  Zr36  1  0.30806348  0.89827668  0.89816754  1
  Zr  Zr37  1  0.90414302  0.70055257  0.70465091  1
  Zr  Zr38  1  0.70203583  0.90269697  0.50030667  1
  Zr  Zr39  1  0.29882394  0.51079442  0.30407918  1
  Zr  Zr40  1  0.09240172  0.90143877  0.89479505  1
  Zr  Zr41  1  0.30411232  0.49882631  0.89362328  1
  Zr  Zr42  1  0.49959516  0.10311971  0.69744947  1
  Zr  Zr43  1  0.89431097  0.69339893  0.30213420  1
  Zr  Zr44  1  0.70663344  0.08517343  0.10659716  1
  Zr  Zr45  1  0.30136722  0.90322236  0.69638846  1
  Zr  Zr46  1  0.10329421  0.29082749  0.10267541  1
  Zr  Zr47  1  0.70082650  0.10512801  0.49976975  1
  Zr  Zr48  1  0.49922707  0.89255708  0.29746565  1
  Zr  Zr49  1  0.70691346  0.30230771  0.30377237  1
  Sc  Sc50  1  0.70190663  0.90812654  0.70369761  1
  Sc  Sc51  1  0.28727244  0.10723559  0.30530247  1
  Sc  Sc52  1  0.69908388  0.69945702  0.50430497  1
  Sc  Sc53  1  0.50245233  0.89761639  0.50279919  1
  Sc  Sc54  1  0.51086068  0.50593403  0.10133492  1
  Sc  Sc55  1  0.50267417  0.49683159  0.69295722  1
  Sc  Sc56  1  0.50477205  0.09960495  0.10786366  1
  Sc  Sc57  1  0.10208002  0.89642304  0.49524512  1
  Sc  Sc58  1  0.89356495  0.89095757  0.30827815  1
  Sc  Sc59  1  0.28920483  0.29380476  0.29469764  1
  Sc  Sc60  1  0.49876311  0.29812999  0.88732918  1
  Sc  Sc61  1  0.90569815  0.30275699  0.89381048  1
  Sc  Sc62  1  0.10622340  0.10441013  0.70877444  1
  Sc  Sc63  1  0.70705164  0.70321856  0.10672807  1
  Sc  Sc64  1  0.69712846  0.10797307  0.29825110  1
  Sc  Sc65  1  0.09767847  0.29925155  0.50397317  1
  Sc  Sc66  1  0.69890806  0.09687363  0.89194675  1
  Sc  Sc67  1  0.70824051  0.50374372  0.10364070  1
  Sc  Sc68  1  0.90768710  0.29957912  0.10766135  1
  Sc  Sc69  1  0.50598271  0.30213090  0.51059324  1
  Sc  Sc70  1  0.09339754  0.69637670  0.69401816  1
  Sc  Sc71  1  0.09543640  0.69038108  0.09545350  1
  Sc  Sc72  1  0.08922765  0.69636730  0.89913241  1
  Sc  Sc73  1  0.51213828  0.29288454  0.29185691  1
  Sc  Sc74  1  0.10297633  0.69693493  0.50436837  1
  Sc  Sc75  1  0.09887816  0.30086214  0.30145903  1
  Sc  Sc76  1  0.29714134  0.89393704  0.50652215  1
  Sc  Sc77  1  0.70378162  0.90092427  0.89904726  1
  Sc  Sc78  1  0.09895414  0.89866510  0.69913734  1
  Sc  Sc79  1  0.50274366  0.70329467  0.50251638  1
  Sc  Sc80  1  0.50614692  0.70061893  0.69934007  1
  Sc  Sc81  1  0.90034124  0.89332786  0.89403318  1
  Sc  Sc82  1  0.90348433  0.89808515  0.49656028  1
  Sc  Sc83  1  0.09228490  0.89848743  0.08893059  1
  Sc  Sc84  1  0.89659374  0.69931254  0.09452177  1
  Sc  Sc85  1  0.50430054  0.90346297  0.10472111  1
  Sc  Sc86  1  0.51007158  0.10111596  0.29940233  1
  Sc  Sc87  1  0.70384390  0.69497319  0.88985864  1
  Sc  Sc88  1  0.29117323  0.09880085  0.89706644  1
  Sc  Sc89  1  0.29575630  0.30482806  0.70814038  1
  Sc  Sc90  1  0.09471902  0.10436225  0.31395925  1
  Sc  Sc91  1  0.09617751  0.49863229  0.89868429  1
  Sc  Sc92  1  0.50350142  0.09841991  0.89126408  1
  Sc  Sc93  1  0.90782412  0.49835889  0.49577278  1
  Sc  Sc94  1  0.70074412  0.50080285  0.51652933  1
  Sc  Sc95  1  0.89435882  0.30345087  0.30226428  1
  Sc  Sc96  1  0.28968631  0.29935880  0.50831747  1
  Sc  Sc97  1  0.50266555  0.70143160  0.10780429  1
  Sc  Sc98  1  0.28557854  0.10262050  0.50607592  1
  Sc  Sc99  1  0.69825855  0.89499946  0.29109295  1
  Nb  Nb100  1  0.90232175  0.30479013  0.70176150  1
  Nb  Nb101  1  0.09534663  0.10442164  0.50387904  1
  Nb  Nb102  1  0.90120388  0.90204111  0.69874439  1
  Nb  Nb103  1  0.89416445  0.49951781  0.29973922  1
  Nb  Nb104  1  0.70207225  0.50601796  0.70292574  1
  Nb  Nb105  1  0.89987209  0.10051052  0.10427262  1
  Nb  Nb106  1  0.30117542  0.29935926  0.10102807  1
  Nb  Nb107  1  0.70980066  0.50050603  0.30168942  1
  Nb  Nb108  1  0.70640317  0.69279205  0.69401950  1
  Nb  Nb109  1  0.70436480  0.30854068  0.69733997  1
  Nb  Nb110  1  0.09879401  0.30747540  0.70129155  1
  Nb  Nb111  1  0.50061030  0.29994574  0.09852785  1
  Nb  Nb112  1  0.29548982  0.49663054  0.09449062  1
  Nb  Nb113  1  0.30242930  0.30676104  0.90034270  1
  Nb  Nb114  1  0.70325279  0.69785173  0.30448959  1
  Nb  Nb115  1  0.30273941  0.70168228  0.30113280  1
  Nb  Nb116  1  0.30050301  0.49983061  0.70043180  1
  Nb  Nb117  1  0.08864687  0.09910611  0.09718443  1
  Nb  Nb118  1  0.89138174  0.09838870  0.29670248  1
  Nb  Nb119  1  0.50021291  0.49913133  0.49844505  1
  Nb  Nb120  1  0.29685754  0.10366639  0.69524721  1
  Nb  Nb121  1  0.70068953  0.49380900  0.89914056  1
  Nb  Nb122  1  0.70295761  0.30400028  0.49541447  1
  Nb  Nb123  1  0.69659363  0.89497283  0.09951975  1
  Nb  Nb124  1  0.10510116  0.49912427  0.50307079  1
  Nb  Nb125  1  0.38946998  0.00144473  0.20777834  1
  Nb  Nb126  1  0.19072059  0.00150277  0.19735036  1
  Nb  Nb127  1  0.40221394  0.39612295  0.00377547  1
  Nb  Nb128  1  0.39635519  0.39805039  0.19490884  1
  Nb  Nb129  1  0.00045207  0.00693265  0.59763135  1
  Nb  Nb130  1  0.61084993  0.40413271  0.79784533  1
  Nb  Nb131  1  0.60177277  0.39692537  -0.00620145  1
  Nb  Nb132  1  0.80256152  0.80027871  0.60670721  1
  Nb  Nb133  1  0.60364571  0.80184554  0.00040290  1
  Nb  Nb134  1  0.20344502  0.79519790  0.80361890  1
  Nb  Nb135  1  0.40344458  0.39567104  0.39626963  1
  Nb  Nb136  1  -0.00391714  0.80185329  0.20007890  1
  Nb  Nb137  1  0.39741569  0.59419927  0.59474185  1
  Nb  Nb138  1  0.60371275  0.40526897  0.40252605  1
  Nb  Nb139  1  0.79832385  0.00511723  0.39911296  1
  Nb  Nb140  1  0.60240260  0.20512690  0.00049154  1
  Nb  Nb141  1  0.40146922  0.20150306  0.40265484  1
  Nb  Nb142  1  0.80145758  0.19535794  0.00485674  1
  Nb  Nb143  1  0.40102096  0.20783157  0.00244856  1
  Nb  Nb144  1  0.20438540  0.60100506  0.79603978  1
  Nb  Nb145  1  -0.00579768  0.00098031  0.19911124  1
  Nb  Nb146  1  0.20252175  0.79668112  -0.00773231  1
  Nb  Nb147  1  0.20741165  0.39612621  0.00142115  1
  Nb  Nb148  1  0.60405075  0.59463798  0.39741737  1
  Nb  Nb149  1  0.39770443  0.00411739  0.39731272  1
  Pd  Pd150  1  -0.00164720  0.39449111  0.40189835  1
  Pd  Pd151  1  -0.00151264  0.19920809  0.79146320  1
  Pd  Pd152  1  -0.00817497  0.00208189  0.40125754  1
  Pd  Pd153  1  0.39631733  0.01172497  0.79765073  1
  Pd  Pd154  1  0.80060524  0.39240633  0.00918728  1
  Pd  Pd155  1  0.18903681  -0.00040052  0.60025796  1
  Pd  Pd156  1  0.00798846  0.39115978  -0.00237977  1
  Pd  Pd157  1  0.59749535  -0.00264437  0.60575710  1
  Pd  Pd158  1  -0.00073718  0.80810018  0.59935639  1
  Pd  Pd159  1  0.00518116  0.60244734  0.40358757  1
  Pd  Pd160  1  0.39205903  0.19988733  0.59492685  1
  Pd  Pd161  1  0.40185496  0.19855394  0.20597972  1
  Pd  Pd162  1  0.60028959  0.40466927  0.20028014  1
  Pd  Pd163  1  0.59761306  -0.00010260  -0.00250496  1
  Pd  Pd164  1  0.00525853  0.19926311  0.60979591  1
  Pd  Pd165  1  -0.01450584  -0.00844413  0.00415725  1
  Pd  Pd166  1  0.40610785  0.59528017  0.01121674  1
  Pd  Pd167  1  0.60852186  0.20669906  0.60161289  1
  Pd  Pd168  1  0.80306243  0.00362600  -0.00993284  1
  Pd  Pd169  1  0.80351443  0.40483381  0.60147704  1
  Pd  Pd170  1  0.19617578  0.59602985  0.20209977  1
  Pd  Pd171  1  0.80636890  0.59558350  0.80125388  1
  Pd  Pd172  1  0.60410542  0.79288378  0.39861162  1
  Pd  Pd173  1  0.20266206  0.39532030  0.39804969  1
  Pd  Pd174  1  0.40541564  0.01492073  0.00766971  1
  Pd  Pd175  1  0.60937828  0.80232327  0.80059952  1
  Pd  Pd176  1  0.60864857  0.60639054  0.20629629  1
  Pd  Pd177  1  0.00033287  0.19533228  0.21023570  1
  Pd  Pd178  1  0.19934640  -0.00429239  0.79824751  1
  Pd  Pd179  1  0.79391493  0.20640019  0.60426381  1
  Pd  Pd180  1  0.60257687  -0.00261077  0.39209579  1
  Pd  Pd181  1  0.20323276  0.20399616  -0.00634744  1
  Pd  Pd182  1  0.39852758  0.00648537  0.58924698  1
  Pd  Pd183  1  0.20153034  0.40292849  0.20047068  1
  Pd  Pd184  1  0.39478966  0.40111605  0.59596076  1
  Pd  Pd185  1  0.20353371  0.00009999  0.40048994  1
  Pd  Pd186  1  -0.00525947  0.59831716  -0.00329333  1
  Pd  Pd187  1  0.79361352  0.59311404  0.41211116  1
  Pd  Pd188  1  0.60825220  0.80195313  0.60897464  1
  Pd  Pd189  1  -0.00628634  0.20784553  0.39620676  1
  Pd  Pd190  1  0.81030331  0.60356827  0.59509501  1
  Pd  Pd191  1  0.40570473  0.79593547  0.00937665  1
  Pd  Pd192  1  0.18810966  0.80388931  0.18562183  1
  Pd  Pd193  1  0.79588397  0.60323225  -0.00081164  1
  Pd  Pd194  1  0.39062280  0.19456492  0.80407806  1
  Pd  Pd195  1  0.60033120  0.59758846  0.79344147  1
  Pd  Pd196  1  0.39844300  0.59287557  0.19247773  1
  Pd  Pd197  1  0.61143992  0.60569946  0.00121818  1
  Pd  Pd198  1  0.19784290  -0.00587984  0.00271538  1
  Pd  Pd199  1  0.80347474  -0.00224203  0.80513220  1
  Rh  Rh200  1  0.80171074  0.19660125  0.39757553  1
  Rh  Rh201  1  0.19566780  0.79998617  0.60464490  1
  Rh  Rh202  1  0.79645381  0.80073287  0.78979276  1
  Rh  Rh203  1  0.19822879  0.59796643  -0.00960263  1
  Rh  Rh204  1  0.59632184  0.21352171  0.40526983  1
  Rh  Rh205  1  0.39656093  0.79418170  0.79408395  1
  Rh  Rh206  1  0.19495846  0.40759873  0.80241425  1
  Rh  Rh207  1  0.59543797  -0.00392111  0.79565009  1
  Rh  Rh208  1  -0.00138991  0.59537650  0.59112403  1
  Rh  Rh209  1  0.80610425  0.40160427  0.19915516  1
  Rh  Rh210  1  0.60760300  0.19463251  0.19186935  1
  Rh  Rh211  1  0.59791118  -0.00348138  0.20466318  1
  Rh  Rh212  1  0.00101984  0.79865736  0.00437923  1
  Rh  Rh213  1  0.60333702  0.79423911  0.19743459  1
  Rh  Rh214  1  0.60607769  0.40056351  0.60306857  1
  Rh  Rh215  1  0.19314078  0.20462245  0.60983260  1
  Rh  Rh216  1  0.19231883  0.60119670  0.39682108  1
  Rh  Rh217  1  0.19928676  0.20502178  0.40857725  1
  Rh  Rh218  1  0.19656503  0.39654152  0.60474620  1
  Rh  Rh219  1  -0.00219369  0.39940421  0.20869072  1
  Rh  Rh220  1  0.41097776  0.40396193  0.79914104  1
  Rh  Rh221  1  0.80332331  0.60021566  0.19937329  1
  Rh  Rh222  1  0.60633070  0.20925832  0.79989029  1
  Rh  Rh223  1  0.39850372  0.60320286  0.78245968  1
  Rh  Rh224  1  0.79256212  0.80470174  0.40677326  1
  Rh  Rh225  1  0.20564970  0.20111193  0.79729671  1
  Rh  Rh226  1  0.18429475  0.18949888  0.20376363  1
  Rh  Rh227  1  0.80962941  -0.00862348  0.59098699  1
  Rh  Rh228  1  0.39990416  0.80256995  0.19598483  1
  Rh  Rh229  1  0.80143415  0.79533117  0.20511022  1
  Rh  Rh230  1  -0.00466777  0.60542799  0.20338501  1
  Rh  Rh231  1  0.00249739  0.59499654  0.80225773  1
  Rh  Rh232  1  0.59245810  0.60035181  0.59780923  1
  Rh  Rh233  1  0.80190475  -0.00639186  0.20956678  1
  Rh  Rh234  1  0.78901867  0.79515605  -0.00734074  1
  Rh  Rh235  1  0.40612432  0.59701733  0.40688805  1
  Rh  Rh236  1  0.00297631  0.39833853  0.59657217  1
  Rh  Rh237  1  0.80164736  0.40524968  0.78988827  1
  Rh  Rh238  1  0.00447842  0.79246670  0.39525722  1
  Rh  Rh239  1  0.19660107  0.79459581  0.40513835  1
  Rh  Rh240  1  0.40356840  0.79435412  0.59523768  1
  Rh  Rh241  1  0.00128755  0.40260842  0.79994351  1
  Rh  Rh242  1  0.20424959  0.59867794  0.60393687  1
  Rh  Rh243  1  0.80505118  0.20156961  0.79771710  1
  Rh  Rh244  1  -0.00276273  0.00172591  0.79098256  1
  Rh  Rh245  1  0.79674313  0.40792310  0.40707281  1
  Rh  Rh246  1  0.00670001  0.80014918  0.79519813  1
  Rh  Rh247  1  -0.00794116  0.20567207  0.00107030  1
  Rh  Rh248  1  0.80072505  0.20111680  0.19697034  1
  Rh  Rh249  1  0.39973162  0.80791882  0.40722399  1
