# generated using pymatgen
data_ZrScNbPdRh
_symmetry_space_group_name_H-M   'P 1'
_cell_length_a   16.56368695
_cell_length_b   16.56209924
_cell_length_c   16.55923003
_cell_angle_alpha   90.00508654
_cell_angle_beta   89.98661115
_cell_angle_gamma   90.00955680
_symmetry_Int_Tables_number   1
_chemical_formula_structural   ZrScNbPdRh
_chemical_formula_sum   'Zr50 Sc50 Nb50 Pd50 Rh50'
_cell_volume   4542.68388118
_cell_formula_units_Z   50
loop_
 _symmetry_equiv_pos_site_id
 _symmetry_equiv_pos_as_xyz
  1  'x, y, z'
loop_
 _atom_site_type_symbol
 _atom_site_label
 _atom_site_symmetry_multiplicity
 _atom_site_fract_x
 _atom_site_fract_y
 _atom_site_fract_z
 _atom_site_occupancy
  Zr  Zr0  1  0.50391321  0.09734338  0.09796194  1
  Zr  Zr1  1  0.09832410  0.29625501  0.10987353  1
  Zr  Zr2  1  0.70367009  0.30183544  0.49842228  1
  Zr  Zr3  1  0.50115716  0.29102241  0.09497073  1
  Zr  Zr4  1  0.70047296  0.50076713  0.70265468  1
  Zr  Zr5  1  0.89538311  0.49568283  0.90268031  1
  Zr  Zr6  1  0.49852154  0.90560703  0.29868700  1
  Zr  Zr7  1  0.90284174  0.90304145  0.90565973  1
  Zr  Zr8  1  0.30708071  0.49951775  0.30206866  1
  Zr  Zr9  1  0.29712828  0.11414286  0.09662573  1
  Zr  Zr10  1  0.69623017  0.30493338  0.90055225  1
  Zr  Zr11  1  0.29484873  0.09628156  0.89971267  1
  Zr  Zr12  1  0.69719477  0.70036550  0.10220354  1
  Zr  Zr13  1  0.09886519  0.49130498  0.89703826  1
  Zr  Zr14  1  0.49407448  0.49957473  0.29911167  1
  Zr  Zr15  1  0.30883936  0.10148860  0.29455662  1
  Zr  Zr16  1  0.50588527  0.50086930  0.89574163  1
  Zr  Zr17  1  0.49677028  0.70362438  0.70276439  1
  Zr  Zr18  1  0.70231393  0.70259220  0.49360134  1
  Zr  Zr19  1  0.29844507  0.30230230  0.28071608  1
  Zr  Zr20  1  0.69454001  0.69246662  0.90129180  1
  Zr  Zr21  1  0.30427574  0.70542335  0.90546910  1
  Zr  Zr22  1  0.10094172  0.09287394  0.91792470  1
  Zr  Zr23  1  0.89296606  0.30504856  0.49279014  1
  Zr  Zr24  1  0.29712828  0.29002865  0.50849605  1
  Zr  Zr25  1  0.50059314  0.90752248  0.89778346  1
  Zr  Zr26  1  0.09785890  0.70042091  0.10546948  1
  Zr  Zr27  1  0.30180112  0.70308908  0.69526112  1
  Zr  Zr28  1  0.09923400  0.09463967  0.50001448  1
  Zr  Zr29  1  0.69860593  0.90560106  0.70378063  1
  Zr  Zr30  1  0.89126055  0.29933919  0.69308977  1
  Zr  Zr31  1  0.69616804  0.09133101  0.10636548  1
  Zr  Zr32  1  0.09358838  0.49796621  0.29681908  1
  Zr  Zr33  1  0.29967819  0.10640255  0.69170372  1
  Zr  Zr34  1  0.50144250  0.90279057  0.69702540  1
  Zr  Zr35  1  0.30319242  0.09869705  0.50164307  1
  Zr  Zr36  1  0.90265486  0.10257085  0.90805223  1
  Zr  Zr37  1  0.49923378  0.49614943  0.49573388  1
  Zr  Zr38  1  0.30103037  0.48622572  0.10864790  1
  Zr  Zr39  1  0.29429777  0.70430131  0.50318052  1
  Zr  Zr40  1  0.30032327  0.29061457  0.90189213  1
  Zr  Zr41  1  0.10280492  0.70251314  0.69049404  1
  Zr  Zr42  1  0.49526861  0.69656407  0.29442554  1
  Zr  Zr43  1  0.70153646  0.90282789  0.48754757  1
  Zr  Zr44  1  0.50117215  0.90725819  0.49910809  1
  Zr  Zr45  1  0.89295984  0.69926868  0.10890468  1
  Zr  Zr46  1  0.10256037  0.70558512  0.90500906  1
  Zr  Zr47  1  0.69503395  0.29157457  0.69551227  1
  Zr  Zr48  1  0.50704267  0.50081871  0.11132214  1
  Zr  Zr49  1  0.88712708  0.49890133  0.50690047  1
  Sc  Sc50  1  0.10580244  0.69926742  0.49965391  1
  Sc  Sc51  1  0.90293465  0.50131902  0.30461618  1
  Sc  Sc52  1  0.30099100  0.30023886  0.70092030  1
  Sc  Sc53  1  0.69735230  0.50460590  0.90126048  1
  Sc  Sc54  1  0.30598366  0.90788439  0.69595528  1
  Sc  Sc55  1  0.89821274  0.49565148  0.10171050  1
  Sc  Sc56  1  0.49351444  0.70845760  0.50555563  1
  Sc  Sc57  1  0.10709766  0.31406437  0.69920270  1
  Sc  Sc58  1  0.50775055  0.89678563  0.10422384  1
  Sc  Sc59  1  0.09711049  0.89679846  0.69313004  1
  Sc  Sc60  1  0.50040913  0.10563718  0.70407592  1
  Sc  Sc61  1  0.09636971  0.30233380  0.90861833  1
  Sc  Sc62  1  0.90241858  0.90395019  0.48770107  1
  Sc  Sc63  1  0.91091270  0.09031668  0.10344475  1
  Sc  Sc64  1  0.09555223  0.29794403  0.50187544  1
  Sc  Sc65  1  0.70105645  0.70285972  0.71119514  1
  Sc  Sc66  1  0.90308218  0.30344778  0.91045335  1
  Sc  Sc67  1  0.29427726  0.49518311  0.69831497  1
  Sc  Sc68  1  0.50030722  0.70319173  0.09810018  1
  Sc  Sc69  1  0.10554305  0.90541061  0.09968936  1
  Sc  Sc70  1  0.50492648  0.09928936  0.29792553  1
  Sc  Sc71  1  0.70774047  0.70283354  0.29587410  1
  Sc  Sc72  1  0.70239741  0.90356055  0.30019394  1
  Sc  Sc73  1  0.70008091  0.50274934  0.09855027  1
  Sc  Sc74  1  0.88642372  0.70534952  0.89078724  1
  Sc  Sc75  1  0.49659016  0.69900047  0.90280596  1
  Sc  Sc76  1  0.09707343  0.49247512  0.09640098  1
  Sc  Sc77  1  0.09495593  0.50790845  0.50683752  1
  Sc  Sc78  1  0.50016054  0.49321860  0.70147208  1
  Sc  Sc79  1  0.30203609  0.70795768  0.09217224  1
  Sc  Sc80  1  0.29855206  0.50060491  0.90344075  1
  Sc  Sc81  1  0.89797483  0.09149745  0.49833315  1
  Sc  Sc82  1  0.69698409  0.09419027  0.89114652  1
  Sc  Sc83  1  0.50694153  0.30230962  0.29979947  1
  Sc  Sc84  1  0.89660222  0.69226348  0.48777255  1
  Sc  Sc85  1  0.29567151  0.69876923  0.30379457  1
  Sc  Sc86  1  0.89902194  0.89785147  0.70146476  1
  Sc  Sc87  1  0.10521890  0.90095172  0.28865249  1
  Sc  Sc88  1  0.50000558  0.29905743  0.70633964  1
  Sc  Sc89  1  0.89705501  0.70489872  0.70086267  1
  Sc  Sc90  1  0.69242662  0.49692113  0.29287007  1
  Sc  Sc91  1  0.30347008  0.50530602  0.49796567  1
  Sc  Sc92  1  0.50179119  0.10587501  0.89634635  1
  Sc  Sc93  1  0.69916628  0.90028682  0.90300447  1
  Sc  Sc94  1  0.50398847  0.30291846  0.50433318  1
  Sc  Sc95  1  0.10148257  0.89583197  0.50087727  1
  Sc  Sc96  1  0.69182967  0.30383488  0.10086162  1
  Sc  Sc97  1  0.89881271  0.69205791  0.29244902  1
  Sc  Sc98  1  0.91386191  0.09035212  0.30409908  1
  Sc  Sc99  1  0.49356363  0.10372563  0.49457463  1
  Nb  Nb100  1  0.89310190  0.89910147  0.10570616  1
  Nb  Nb101  1  0.10126905  0.10072111  0.29547780  1
  Nb  Nb102  1  0.90777500  0.30124736  0.29885275  1
  Nb  Nb103  1  0.71196764  0.29568599  0.30558134  1
  Nb  Nb104  1  0.30380872  0.90406644  0.49542484  1
  Nb  Nb105  1  0.09767522  0.10054760  0.10667759  1
  Nb  Nb106  1  0.30257478  0.29612230  0.09774457  1
  Nb  Nb107  1  0.89497327  0.10297259  0.70321301  1
  Nb  Nb108  1  0.09455939  0.69334890  0.29833862  1
  Nb  Nb109  1  0.50069041  0.29874730  0.89540663  1
  Nb  Nb110  1  0.10417817  0.90333824  0.90332841  1
  Nb  Nb111  1  0.90003637  0.29533274  0.10410260  1
  Nb  Nb112  1  0.90140639  0.89745996  0.29758560  1
  Nb  Nb113  1  0.09659164  0.50454090  0.70347957  1
  Nb  Nb114  1  0.30643227  0.89716402  0.10078263  1
  Nb  Nb115  1  0.69675915  0.49931801  0.50367695  1
  Nb  Nb116  1  0.70270773  0.10038224  0.49768518  1
  Nb  Nb117  1  0.09846930  0.09909181  0.69652195  1
  Nb  Nb118  1  0.71110047  0.10399385  0.69341590  1
  Nb  Nb119  1  0.09170748  0.29802550  0.30072558  1
  Nb  Nb120  1  0.70026634  0.10193203  0.30846017  1
  Nb  Nb121  1  0.70617337  0.90113670  0.10186511  1
  Nb  Nb122  1  0.29421977  0.90235293  0.91002166  1
  Nb  Nb123  1  0.30435006  0.90165693  0.29616704  1
  Nb  Nb124  1  0.90161150  0.49922919  0.70031194  1
  Nb  Nb125  1  0.39473772  -0.00104601  0.00083303  1
  Nb  Nb126  1  0.79893301  0.19888936  0.01077594  1
  Nb  Nb127  1  0.40537847  0.39209067  0.00097027  1
  Nb  Nb128  1  0.60284857  0.59995742  0.59569639  1
  Nb  Nb129  1  0.19412023  0.60498554  0.79927129  1
  Nb  Nb130  1  0.19594559  0.19916725  0.39101081  1
  Nb  Nb131  1  0.20619724  0.00200048  0.39372785  1
  Nb  Nb132  1  -0.00411975  0.19569355  0.60710198  1
  Nb  Nb133  1  0.80083011  0.40025990  0.79616019  1
  Nb  Nb134  1  0.19739602  0.39249172  0.39482285  1
  Nb  Nb135  1  0.80304671  0.38725537  0.20542551  1
  Nb  Nb136  1  0.20231713  0.80408656  0.80539390  1
  Nb  Nb137  1  0.00422613  0.79564687  0.38746920  1
  Nb  Nb138  1  0.00248514  0.19513421  0.79461826  1
  Nb  Nb139  1  0.61071277  0.00956948  0.59816064  1
  Nb  Nb140  1  0.39391399  0.80804701  0.39730343  1
  Nb  Nb141  1  0.00218778  0.59735254  0.79880088  1
  Nb  Nb142  1  0.18999749  0.19219464  0.79906793  1
  Nb  Nb143  1  0.79528741  0.80354965  0.59280481  1
  Nb  Nb144  1  -0.00391442  0.80146780  0.00412057  1
  Nb  Nb145  1  0.19744046  0.59834916  0.20067298  1
  Nb  Nb146  1  -0.00316448  0.60569453  -0.00563085  1
  Nb  Nb147  1  0.00401899  0.00695496  0.80003238  1
  Nb  Nb148  1  0.59856084  0.59917862  0.40525232  1
  Nb  Nb149  1  0.80316676  0.20054661  0.20536031  1
  Pd  Pd150  1  0.80167019  -0.00648317  0.59663000  1
  Pd  Pd151  1  0.59570691  0.40637866  0.00137111  1
  Pd  Pd152  1  0.80385901  0.20752193  0.81342551  1
  Pd  Pd153  1  0.60849157  0.19248475  -0.00758156  1
  Pd  Pd154  1  0.39861649  0.00417808  0.80305318  1
  Pd  Pd155  1  0.79577334  0.00599149  0.00098626  1
  Pd  Pd156  1  0.38815916  0.60936146  0.18987909  1
  Pd  Pd157  1  0.20044833  -0.00654616  0.59586911  1
  Pd  Pd158  1  0.80611723  -0.00236730  0.80412076  1
  Pd  Pd159  1  0.39414703  0.39982379  0.80699980  1
  Pd  Pd160  1  0.00002502  0.19596101  0.40714074  1
  Pd  Pd161  1  0.19892967  0.40691709  0.59015022  1
  Pd  Pd162  1  0.20543833  0.39268999  -0.00002651  1
  Pd  Pd163  1  0.20679748  0.79256944  0.19982213  1
  Pd  Pd164  1  0.79027892  0.59050026  0.38939706  1
  Pd  Pd165  1  0.19672854  0.59517571  0.00428994  1
  Pd  Pd166  1  0.81206904  0.18980868  0.39678713  1
  Pd  Pd167  1  -0.00629303  0.39410213  0.79661262  1
  Pd  Pd168  1  0.60581593  0.40252579  0.39611850  1
  Pd  Pd169  1  0.39048708  0.38695504  0.40303550  1
  Pd  Pd170  1  0.60551367  0.80271591  0.20454411  1
  Pd  Pd171  1  0.39367370  0.80785533  0.80385931  1
  Pd  Pd172  1  -0.00160543  0.80618661  0.19930563  1
  Pd  Pd173  1  -0.00853569  -0.00002996  0.60567312  1
  Pd  Pd174  1  0.40043342  0.39749058  0.60054492  1
  Pd  Pd175  1  0.80299952  0.00606478  0.20942151  1
  Pd  Pd176  1  0.40375612  0.58923437  0.00735784  1
  Pd  Pd177  1  0.79573203  0.61081736  0.60746705  1
  Pd  Pd178  1  0.00632514  0.80405616  0.80548993  1
  Pd  Pd179  1  -0.01277210  0.79574835  0.58309801  1
  Pd  Pd180  1  0.80076826  0.79856490  0.00028143  1
  Pd  Pd181  1  0.19740193  0.80841914  0.39293641  1
  Pd  Pd182  1  0.19551854  0.59062452  0.39615082  1
  Pd  Pd183  1  0.39244099  0.59366569  0.79782336  1
  Pd  Pd184  1  0.60766289  0.80095031  0.60076466  1
  Pd  Pd185  1  0.00085090  0.39604041  0.59692384  1
  Pd  Pd186  1  0.40222077  0.00167456  0.18878583  1
  Pd  Pd187  1  0.59027490  0.79299890  0.39266431  1
  Pd  Pd188  1  0.00364113  0.40773517  0.40930718  1
  Pd  Pd189  1  0.40497085  0.59485045  0.60086012  1
  Pd  Pd190  1  0.20549382  0.00552602  0.19772245  1
  Pd  Pd191  1  0.59908133  0.79987034  0.80721212  1
  Pd  Pd192  1  0.59857893  0.80369746  -0.00183855  1
  Pd  Pd193  1  0.60668307  0.20237449  0.20638931  1
  Pd  Pd194  1  0.80344864  0.60094502  0.00336440  1
  Pd  Pd195  1  -0.00811191  0.60749939  0.60148653  1
  Pd  Pd196  1  0.59487119  0.19359858  0.59584308  1
  Pd  Pd197  1  0.59729736  0.19930277  0.40346073  1
  Pd  Pd198  1  0.19376082  -0.00367761  0.79300825  1
  Pd  Pd199  1  0.39757879  0.21017039  0.39439455  1
  Rh  Rh200  1  -0.00111116  0.20158185  0.00642031  1
  Rh  Rh201  1  0.20734497  -0.00200255  0.01607057  1
  Rh  Rh202  1  0.20293750  0.59549443  0.60472251  1
  Rh  Rh203  1  -0.00685660  0.40112819  0.19801392  1
  Rh  Rh204  1  0.01473347  -0.01438586  0.39126065  1
  Rh  Rh205  1  0.60488405  -0.00453413  0.20482573  1
  Rh  Rh206  1  0.80001585  0.00283763  0.39170773  1
  Rh  Rh207  1  -0.00365272  0.40113334  0.00934486  1
  Rh  Rh208  1  0.79819531  0.58634300  0.20127687  1
  Rh  Rh209  1  0.19496280  0.80737694  0.00203696  1
  Rh  Rh210  1  0.39512849  0.80832526  0.59359007  1
  Rh  Rh211  1  0.60581071  0.39203552  0.20324672  1
  Rh  Rh212  1  0.18935356  0.20531574  0.00084870  1
  Rh  Rh213  1  0.40560227  0.19736523  -0.00602429  1
  Rh  Rh214  1  0.41275201  0.38959086  0.19242755  1
  Rh  Rh215  1  0.00279766  0.59186723  0.19102479  1
  Rh  Rh216  1  0.39207176  0.19885464  0.79953723  1
  Rh  Rh217  1  0.40883866  0.81249053  0.00011679  1
  Rh  Rh218  1  0.60032760  0.40246562  0.60379880  1
  Rh  Rh219  1  0.80631636  0.19622501  0.58651643  1
  Rh  Rh220  1  0.41090728  0.00454864  0.60082963  1
  Rh  Rh221  1  0.00176834  -0.00529641  0.19891428  1
  Rh  Rh222  1  0.60082384  0.00997320  0.40230219  1
  Rh  Rh223  1  0.79787215  0.40789673  0.39222400  1
  Rh  Rh224  1  0.59211910  0.60335513  0.79343661  1
  Rh  Rh225  1  0.00198696  0.60363684  0.40347498  1
  Rh  Rh226  1  0.00115595  -0.01042239  0.00642831  1
  Rh  Rh227  1  0.60518452  0.19779739  0.79886319  1
  Rh  Rh228  1  0.39692317  -0.00224650  0.39642273  1
  Rh  Rh229  1  0.79455834  0.80888139  0.79712547  1
  Rh  Rh230  1  0.20746270  0.80916720  0.60638215  1
  Rh  Rh231  1  0.79567782  0.80533579  0.20271886  1
  Rh  Rh232  1  0.19136198  0.40338503  0.20534009  1
  Rh  Rh233  1  0.59697160  -0.00374278  0.00094967  1
  Rh  Rh234  1  0.41048446  0.20146476  0.20195586  1
  Rh  Rh235  1  0.60670655  0.39655669  0.79687992  1
  Rh  Rh236  1  0.20274188  0.39982608  0.80308997  1
  Rh  Rh237  1  0.79747046  0.39105666  0.00388096  1
  Rh  Rh238  1  0.40677456  0.61396993  0.40753989  1
  Rh  Rh239  1  0.81457659  0.80221542  0.39621283  1
  Rh  Rh240  1  -0.00382157  0.19309679  0.20054120  1
  Rh  Rh241  1  0.79179766  0.40076299  0.60536784  1
  Rh  Rh242  1  0.60130060  0.00876585  0.78890517  1
  Rh  Rh243  1  0.19402448  0.19845918  0.20133115  1
  Rh  Rh244  1  0.40825433  0.20431676  0.60366197  1
  Rh  Rh245  1  0.59503858  0.60096094  0.00282701  1
  Rh  Rh246  1  0.39717072  0.79776981  0.20483721  1
  Rh  Rh247  1  0.18833498  0.20414489  0.60312221  1
  Rh  Rh248  1  0.60397701  0.60700477  0.20524014  1
  Rh  Rh249  1  0.80800165  0.59173622  0.79730615  1
