# generated using pymatgen
data_ZrScNbPdRh
_symmetry_space_group_name_H-M   'P 1'
_cell_length_a   16.56377613
_cell_length_b   16.56336089
_cell_length_c   16.56064761
_cell_angle_alpha   90.00793909
_cell_angle_beta   90.04140078
_cell_angle_gamma   90.00669757
_symmetry_Int_Tables_number   1
_chemical_formula_structural   ZrScNbPdRh
_chemical_formula_sum   'Zr50 Sc50 Nb50 Pd50 Rh50'
_cell_volume   4543.44224881
_cell_formula_units_Z   50
loop_
 _symmetry_equiv_pos_site_id
 _symmetry_equiv_pos_as_xyz
  1  'x, y, z'
loop_
 _atom_site_type_symbol
 _atom_site_label
 _atom_site_symmetry_multiplicity
 _atom_site_fract_x
 _atom_site_fract_y
 _atom_site_fract_z
 _atom_site_occupancy
  Zr  Zr0  1  0.89841119  0.49883564  0.09541644  1
  Zr  Zr1  1  0.30087066  0.69869240  0.29178813  1
  Zr  Zr2  1  0.69029973  0.30895249  0.90263580  1
  Zr  Zr3  1  0.70660197  0.10437339  0.49567487  1
  Zr  Zr4  1  0.89052806  0.29886660  0.49704537  1
  Zr  Zr5  1  0.69564964  0.69034764  0.88826590  1
  Zr  Zr6  1  0.30571530  0.50799401  0.51531610  1
  Zr  Zr7  1  0.50469178  0.30403056  0.29358600  1
  Zr  Zr8  1  0.89832855  0.90051022  0.90299996  1
  Zr  Zr9  1  0.29612811  0.30428446  0.08593224  1
  Zr  Zr10  1  0.09161254  0.30498769  0.09296351  1
  Zr  Zr11  1  0.29011726  0.50585194  0.29796346  1
  Zr  Zr12  1  0.49470026  0.69794221  0.10208487  1
  Zr  Zr13  1  0.50310827  0.90108219  0.50293749  1
  Zr  Zr14  1  0.90597893  0.29522067  0.90853380  1
  Zr  Zr15  1  0.70562342  0.89169632  0.70189546  1
  Zr  Zr16  1  0.49157898  0.30547225  0.89830728  1
  Zr  Zr17  1  0.10597784  0.88924119  0.50570991  1
  Zr  Zr18  1  0.70043727  0.89283557  0.50222339  1
  Zr  Zr19  1  0.70200322  0.69615679  0.08734763  1
  Zr  Zr20  1  0.50632006  0.29570116  0.09299981  1
  Zr  Zr21  1  0.29319512  0.88623280  0.29520829  1
  Zr  Zr22  1  0.10744992  0.69500347  0.30061881  1
  Zr  Zr23  1  0.90803903  0.50233738  0.50737979  1
  Zr  Zr24  1  0.10656018  0.29615101  0.71457206  1
  Zr  Zr25  1  0.50243988  0.90123369  0.70058019  1
  Zr  Zr26  1  0.30040182  0.10204384  0.90491209  1
  Zr  Zr27  1  0.70778456  0.70077834  0.30448819  1
  Zr  Zr28  1  0.10105785  0.50660600  0.49675742  1
  Zr  Zr29  1  0.29766329  0.30421328  0.29453835  1
  Zr  Zr30  1  0.89436982  0.50236575  0.29245254  1
  Zr  Zr31  1  0.70364849  0.30041288  0.49671103  1
  Zr  Zr32  1  0.89637734  0.09540103  0.90124068  1
  Zr  Zr33  1  0.29843728  0.10289523  0.49682687  1
  Zr  Zr34  1  0.71100123  0.70401719  0.51272073  1
  Zr  Zr35  1  0.71680312  0.50492773  0.71481657  1
  Zr  Zr36  1  0.69650053  0.29948001  0.69189089  1
  Zr  Zr37  1  0.50830323  0.31342765  0.51118546  1
  Zr  Zr38  1  0.49830528  0.69510561  0.29668644  1
  Zr  Zr39  1  0.09217901  0.08462133  0.50197391  1
  Zr  Zr40  1  0.29633342  0.68448158  0.90548974  1
  Zr  Zr41  1  0.90005348  0.89713609  0.09976745  1
  Zr  Zr42  1  0.50278916  0.10255563  0.50041783  1
  Zr  Zr43  1  0.29671958  0.90333191  0.70273571  1
  Zr  Zr44  1  0.89798118  0.08678202  0.30373876  1
  Zr  Zr45  1  0.10304565  0.09468176  0.69919920  1
  Zr  Zr46  1  0.10412936  0.30700501  0.29525625  1
  Zr  Zr47  1  0.09658664  0.49918569  0.30170374  1
  Zr  Zr48  1  0.69179053  0.90073005  0.09331921  1
  Zr  Zr49  1  0.09377862  0.11490163  0.89752677  1
  Sc  Sc50  1  0.10133301  0.89964162  0.69622474  1
  Sc  Sc51  1  0.29650526  0.09620277  0.70835261  1
  Sc  Sc52  1  0.70010630  0.29961147  0.10264381  1
  Sc  Sc53  1  0.51320765  0.69655762  0.50690272  1
  Sc  Sc54  1  0.30127987  0.68594315  0.70120915  1
  Sc  Sc55  1  0.90987396  0.70278512  0.29808782  1
  Sc  Sc56  1  0.29598562  0.89137296  0.50438003  1
  Sc  Sc57  1  0.09470903  0.50147960  0.70484902  1
  Sc  Sc58  1  0.29617644  0.30241755  0.48558400  1
  Sc  Sc59  1  0.50351366  0.09854341  0.09679914  1
  Sc  Sc60  1  0.49655416  0.10521931  0.91126826  1
  Sc  Sc61  1  0.50557646  0.68948817  0.90017184  1
  Sc  Sc62  1  0.90888394  0.89443412  0.49176035  1
  Sc  Sc63  1  0.70208475  0.10061685  0.29530855  1
  Sc  Sc64  1  0.09149126  0.89582858  0.29392915  1
  Sc  Sc65  1  0.89359980  0.10413955  0.09452368  1
  Sc  Sc66  1  0.89938925  0.69018439  0.10144532  1
  Sc  Sc67  1  0.69287105  0.10660474  0.09680895  1
  Sc  Sc68  1  0.10502320  0.10233379  0.09558573  1
  Sc  Sc69  1  0.09445509  0.70297954  0.70382356  1
  Sc  Sc70  1  0.88471407  0.30864393  0.29835937  1
  Sc  Sc71  1  0.10949554  0.90211004  0.10749310  1
  Sc  Sc72  1  0.10241557  0.09114597  0.29346255  1
  Sc  Sc73  1  0.50998132  0.69444228  0.70389234  1
  Sc  Sc74  1  0.49941283  0.88874617  0.30379431  1
  Sc  Sc75  1  0.29842364  0.50023517  0.71191857  1
  Sc  Sc76  1  0.90573797  0.08849221  0.70534369  1
  Sc  Sc77  1  0.70265005  0.10181288  0.69251951  1
  Sc  Sc78  1  0.50917311  0.50619755  0.10018502  1
  Sc  Sc79  1  0.49653376  0.09800533  0.69437804  1
  Sc  Sc80  1  0.28465734  0.70247600  0.50075242  1
  Sc  Sc81  1  0.70210380  0.90494305  0.30752830  1
  Sc  Sc82  1  0.50269574  0.90968131  0.91131671  1
  Sc  Sc83  1  0.09244579  0.49831849  0.09891980  1
  Sc  Sc84  1  0.89530720  0.31490008  0.69886204  1
  Sc  Sc85  1  0.89484031  0.69301699  0.69282025  1
  Sc  Sc86  1  0.09733453  0.50098050  0.90104256  1
  Sc  Sc87  1  0.90541443  0.89264822  0.70967826  1
  Sc  Sc88  1  0.09857886  0.69326278  0.90053875  1
  Sc  Sc89  1  0.69730601  0.49550405  0.29666601  1
  Sc  Sc90  1  0.69290574  0.49991676  0.49683078  1
  Sc  Sc91  1  0.90558198  0.70168632  0.89612367  1
  Sc  Sc92  1  0.29819599  0.09839377  0.09689404  1
  Sc  Sc93  1  0.29702965  0.11148637  0.29430482  1
  Sc  Sc94  1  0.70819041  0.89466709  0.90322875  1
  Sc  Sc95  1  0.10754443  0.30520389  0.90624161  1
  Sc  Sc96  1  0.89555831  0.30562942  0.10113177  1
  Sc  Sc97  1  0.09863809  0.30946824  0.48891426  1
  Sc  Sc98  1  0.49910910  0.10807582  0.29186751  1
  Sc  Sc99  1  0.10108153  0.90078647  0.90647638  1
  Nb  Nb100  1  0.90222837  0.09872078  0.49861290  1
  Nb  Nb101  1  0.50050000  0.50201080  0.30144145  1
  Nb  Nb102  1  0.30069119  0.49108584  0.90424596  1
  Nb  Nb103  1  0.49768684  0.50151480  0.49928386  1
  Nb  Nb104  1  0.09060735  0.69612087  0.50031754  1
  Nb  Nb105  1  0.29924105  0.30737083  0.89290889  1
  Nb  Nb106  1  0.30355797  0.90045359  0.90527057  1
  Nb  Nb107  1  0.90042890  0.50024914  0.70324543  1
  Nb  Nb108  1  0.69776413  0.50117240  0.90510423  1
  Nb  Nb109  1  0.30016772  0.89535109  0.09921878  1
  Nb  Nb110  1  0.90294448  0.69673494  0.49918506  1
  Nb  Nb111  1  0.70174797  0.10381984  0.89687943  1
  Nb  Nb112  1  0.29697114  0.69805723  0.10468863  1
  Nb  Nb113  1  0.48216479  0.49136371  0.68214254  1
  Nb  Nb114  1  0.70799918  0.50543265  0.09161943  1
  Nb  Nb115  1  0.50779585  0.49291757  0.89720897  1
  Nb  Nb116  1  0.89070737  0.49570700  0.88933374  1
  Nb  Nb117  1  0.30372677  0.30466530  0.70870824  1
  Nb  Nb118  1  0.89906002  0.89510928  0.29155067  1
  Nb  Nb119  1  0.70007788  0.30408892  0.30460292  1
  Nb  Nb120  1  0.49468159  0.30476046  0.70065226  1
  Nb  Nb121  1  0.49800264  0.90154739  0.09939475  1
  Nb  Nb122  1  0.70278883  0.70193805  0.69690181  1
  Nb  Nb123  1  0.30319411  0.51083628  0.09810316  1
  Nb  Nb124  1  0.09732426  0.70043619  0.09741136  1
  Nb  Nb125  1  0.60381319  0.20821734  0.39986812  1
  Nb  Nb126  1  0.20413071  -0.00611867  0.39789197  1
  Nb  Nb127  1  0.00285019  0.79747227  0.00643096  1
  Nb  Nb128  1  0.39690177  -0.00951423  0.19987667  1
  Nb  Nb129  1  0.39647940  0.80128507  0.80680778  1
  Nb  Nb130  1  0.39167831  0.79902074  0.00153729  1
  Nb  Nb131  1  0.80634824  0.60319058  0.40538400  1
  Nb  Nb132  1  0.79746341  0.80233061  0.19790228  1
  Nb  Nb133  1  0.20227279  0.39345808  0.60584929  1
  Nb  Nb134  1  0.00275326  0.20092438  0.59571808  1
  Nb  Nb135  1  0.60396652  0.79854597  0.19484456  1
  Nb  Nb136  1  0.21069446  0.79934414  0.80759526  1
  Nb  Nb137  1  0.60691586  0.00723235  0.80369114  1
  Nb  Nb138  1  0.39996343  0.40639924  0.19858909  1
  Nb  Nb139  1  0.40586758  0.41000386  0.39602824  1
  Nb  Nb140  1  0.19909850  0.20572911  0.60155593  1
  Nb  Nb141  1  0.40372484  0.59754322  0.40192379  1
  Nb  Nb142  1  0.40163731  0.79847957  0.60931941  1
  Nb  Nb143  1  0.79458630  0.20170123  0.80408024  1
  Nb  Nb144  1  -0.00624491  0.19637251  0.39723338  1
  Nb  Nb145  1  0.80571163  -0.00359822  0.59484786  1
  Nb  Nb146  1  0.59794179  0.20203839  0.79711765  1
  Nb  Nb147  1  0.39263510  0.21086809  0.60380856  1
  Nb  Nb148  1  -0.00290857  0.20270448  0.20639186  1
  Nb  Nb149  1  0.39473125  -0.00208743  0.39457333  1
  Pd  Pd150  1  0.19270165  0.59168927  0.00562965  1
  Pd  Pd151  1  -0.01438117  0.20451194  0.78932848  1
  Pd  Pd152  1  -0.00533084  0.59930172  0.79937608  1
  Pd  Pd153  1  0.19802467  0.79672922  -0.00077054  1
  Pd  Pd154  1  -0.01021714  0.39536550  0.39291018  1
  Pd  Pd155  1  0.00607974  -0.00243244  0.00709673  1
  Pd  Pd156  1  0.79440611  -0.00414487  0.19101928  1
  Pd  Pd157  1  0.40455126  0.40908730  0.00678581  1
  Pd  Pd158  1  0.18948587  0.59836961  0.60987691  1
  Pd  Pd159  1  0.61058456  0.60236999  0.19821994  1
  Pd  Pd160  1  -0.00528028  0.79757457  0.60329116  1
  Pd  Pd161  1  0.41019305  0.00008609  0.80730176  1
  Pd  Pd162  1  0.80405076  0.79083153  0.80055940  1
  Pd  Pd163  1  0.40065333  0.79269076  0.41530179  1
  Pd  Pd164  1  0.59356419  0.80892258  0.81009512  1
  Pd  Pd165  1  0.40770406  0.59462495  0.80335600  1
  Pd  Pd166  1  0.60964107  0.41528802  0.61078469  1
  Pd  Pd167  1  0.81560054  0.19124395  0.61278355  1
  Pd  Pd168  1  0.20299925  0.40768052  0.18582094  1
  Pd  Pd169  1  0.00860466  -0.00729411  0.80313110  1
  Pd  Pd170  1  0.41060304  0.20739130  0.40473756  1
  Pd  Pd171  1  0.19286613  0.20289250  0.19190137  1
  Pd  Pd172  1  0.01049625  0.39323109  0.60419703  1
  Pd  Pd173  1  0.40699554  0.59672267  -0.00268031  1
  Pd  Pd174  1  0.60297109  0.40378735  0.19211853  1
  Pd  Pd175  1  0.79882711  0.39685671  -0.00095520  1
  Pd  Pd176  1  0.79174250  0.00410299  0.00499849  1
  Pd  Pd177  1  -0.00005295  0.00799374  0.19016223  1
  Pd  Pd178  1  0.60117435  0.79453569  0.39877536  1
  Pd  Pd179  1  0.60444659  0.60293179  0.40060293  1
  Pd  Pd180  1  0.19319638  -0.00442531  0.81173475  1
  Pd  Pd181  1  0.00171038  0.39862935  0.80633539  1
  Pd  Pd182  1  0.59220027  0.58377974  0.78833792  1
  Pd  Pd183  1  0.80264757  0.19980777  0.20301274  1
  Pd  Pd184  1  0.80883063  0.60349038  -0.01318794  1
  Pd  Pd185  1  0.59186079  -0.00606719  0.20661842  1
  Pd  Pd186  1  0.79423018  0.41134482  0.59475144  1
  Pd  Pd187  1  0.80371237  -0.00936839  0.40692935  1
  Pd  Pd188  1  0.19710559  0.00318752  -0.00207516  1
  Pd  Pd189  1  0.59534479  0.40419046  0.78896818  1
  Pd  Pd190  1  0.39805400  0.20112696  0.18699026  1
  Pd  Pd191  1  0.39159574  -0.00055901  0.59376668  1
  Pd  Pd192  1  0.61146526  0.00001861  0.60523696  1
  Pd  Pd193  1  0.00323073  0.60033408  0.19773157  1
  Pd  Pd194  1  0.59145590  0.00877272  0.38988880  1
  Pd  Pd195  1  0.60607839  0.59096772  0.61058438  1
  Pd  Pd196  1  0.00407278  0.79826256  0.39655893  1
  Pd  Pd197  1  0.18421892  0.19044231  0.40325462  1
  Pd  Pd198  1  0.59028495  0.79641370  -0.00366723  1
  Pd  Pd199  1  0.40330107  0.19413057  0.79591931  1
  Rh  Rh200  1  0.39576687  0.20227517  0.00053797  1
  Rh  Rh201  1  0.20010907  0.40769926  -0.00037398  1
  Rh  Rh202  1  0.60146671  0.40815588  0.00689953  1
  Rh  Rh203  1  0.00429134  -0.00600689  0.39507498  1
  Rh  Rh204  1  0.81160458  0.80721112  0.60161657  1
  Rh  Rh205  1  0.60072234  0.20152295  -0.00719567  1
  Rh  Rh206  1  0.19146290  0.59962609  0.19002589  1
  Rh  Rh207  1  0.59592586  0.79757939  0.60587083  1
  Rh  Rh208  1  0.79983860  0.39239291  0.80680945  1
  Rh  Rh209  1  0.79637971  0.60329951  0.20524358  1
  Rh  Rh210  1  0.20546871  0.78913315  0.61636866  1
  Rh  Rh211  1  0.58845904  0.19929953  0.60114847  1
  Rh  Rh212  1  0.80100860  0.59407583  0.59671619  1
  Rh  Rh213  1  0.79149833  0.00573137  0.79064080  1
  Rh  Rh214  1  0.40248363  0.41051819  0.80341985  1
  Rh  Rh215  1  0.80746384  0.60722166  0.80317704  1
  Rh  Rh216  1  0.79538724  0.20496159  -0.00501530  1
  Rh  Rh217  1  0.79863929  0.19733482  0.38967341  1
  Rh  Rh218  1  -0.00608237  0.40761351  -0.00673665  1
  Rh  Rh219  1  0.40639230  0.61400849  0.59457323  1
  Rh  Rh220  1  0.39796964  0.59225971  0.20379433  1
  Rh  Rh221  1  0.20221496  0.20286520  -0.00620042  1
  Rh  Rh222  1  -0.00967120  -0.00592490  0.60091278  1
  Rh  Rh223  1  0.38660180  0.39175293  0.59386356  1
  Rh  Rh224  1  -0.00421324  0.39432627  0.20289282  1
  Rh  Rh225  1  0.19720445  0.59912561  0.80315324  1
  Rh  Rh226  1  0.19215775  0.79225238  0.19427702  1
  Rh  Rh227  1  0.20344723  0.60210568  0.40396853  1
  Rh  Rh228  1  0.21074527  -0.00022271  0.20622600  1
  Rh  Rh229  1  0.59880387  0.59459496  -0.00269596  1
  Rh  Rh230  1  0.21028865  0.41596869  0.41104652  1
  Rh  Rh231  1  -0.00485296  0.60179010  0.39740393  1
  Rh  Rh232  1  0.39729983  -0.00226660  0.01082353  1
  Rh  Rh233  1  0.81194315  0.79325328  0.00380349  1
  Rh  Rh234  1  0.00159401  0.60213937  0.60547796  1
  Rh  Rh235  1  0.40670507  0.80439844  0.19041130  1
  Rh  Rh236  1  -0.00467627  0.59980679  -0.00351624  1
  Rh  Rh237  1  0.60473734  0.00560229  -0.00741231  1
  Rh  Rh238  1  0.20812321  0.19896225  0.80418889  1
  Rh  Rh239  1  0.19965393  0.40727351  0.80172995  1
  Rh  Rh240  1  0.19056975  0.79941328  0.39700780  1
  Rh  Rh241  1  -0.00256868  0.19802675  0.01115088  1
  Rh  Rh242  1  0.80944709  0.79661710  0.39410255  1
  Rh  Rh243  1  0.59689156  0.39656441  0.39767626  1
  Rh  Rh244  1  0.01268455  0.80418274  0.81245516  1
  Rh  Rh245  1  0.60711917  0.20268746  0.20643608  1
  Rh  Rh246  1  -0.00251631  0.79521959  0.19130005  1
  Rh  Rh247  1  0.78966820  0.40541950  0.19307994  1
  Rh  Rh248  1  0.80042208  0.41439404  0.40379113  1
  Rh  Rh249  1  0.20646060  0.00494692  0.59254569  1
