# generated using pymatgen
data_ZrScNbPdRh
_symmetry_space_group_name_H-M   'P 1'
_cell_length_a   16.55638045
_cell_length_b   16.55855067
_cell_length_c   16.55725872
_cell_angle_alpha   90.00999389
_cell_angle_beta   90.00339692
_cell_angle_gamma   89.98844084
_symmetry_Int_Tables_number   1
_chemical_formula_structural   ZrScNbPdRh
_chemical_formula_sum   'Zr50 Sc50 Nb50 Pd50 Rh50'
_cell_volume   4539.16675444
_cell_formula_units_Z   50
loop_
 _symmetry_equiv_pos_site_id
 _symmetry_equiv_pos_as_xyz
  1  'x, y, z'
loop_
 _atom_site_type_symbol
 _atom_site_label
 _atom_site_symmetry_multiplicity
 _atom_site_fract_x
 _atom_site_fract_y
 _atom_site_fract_z
 _atom_site_occupancy
  Zr  Zr0  1  0.09774795  0.90327466  0.89469663  1
  Zr  Zr1  1  0.50104261  0.50591156  0.89883441  1
  Zr  Zr2  1  0.30795478  0.09482406  0.10952240  1
  Zr  Zr3  1  0.49921112  0.09758509  0.49638259  1
  Zr  Zr4  1  0.50051504  0.90451191  0.49511767  1
  Zr  Zr5  1  0.28617208  0.50209752  0.49665561  1
  Zr  Zr6  1  0.69747588  0.90099026  0.49887286  1
  Zr  Zr7  1  0.50437907  0.50699596  0.29823434  1
  Zr  Zr8  1  0.69534802  0.89271700  0.90368332  1
  Zr  Zr9  1  0.69776242  0.29521764  0.70625488  1
  Zr  Zr10  1  0.50375768  0.50882508  0.10439892  1
  Zr  Zr11  1  0.29903314  0.70123177  0.50099920  1
  Zr  Zr12  1  0.50322368  0.69965394  0.90619214  1
  Zr  Zr13  1  0.69802042  0.10565301  0.90230199  1
  Zr  Zr14  1  0.09557627  0.10648703  0.10496543  1
  Zr  Zr15  1  0.70273318  0.30097985  0.30614986  1
  Zr  Zr16  1  0.30295593  0.29122168  0.49780357  1
  Zr  Zr17  1  0.50383429  0.30573493  0.50170635  1
  Zr  Zr18  1  0.10122297  0.89579081  0.49743341  1
  Zr  Zr19  1  0.69718109  0.50616900  0.90344624  1
  Zr  Zr20  1  0.29506567  0.50181716  0.89700500  1
  Zr  Zr21  1  0.49557196  0.29103957  0.10452637  1
  Zr  Zr22  1  0.49532792  0.70087917  0.10793198  1
  Zr  Zr23  1  0.09983957  0.29386046  0.90907572  1
  Zr  Zr24  1  0.90593659  0.89057696  0.90176729  1
  Zr  Zr25  1  0.10224901  0.49582229  0.69239454  1
  Zr  Zr26  1  0.30275201  0.09318946  0.90397170  1
  Zr  Zr27  1  0.29393019  0.09933844  0.30244587  1
  Zr  Zr28  1  0.89571364  0.48953630  0.50844121  1
  Zr  Zr29  1  0.10163384  0.89765894  0.70160945  1
  Zr  Zr30  1  0.49927064  0.09426305  0.10007375  1
  Zr  Zr31  1  0.10112626  0.70335134  0.89455416  1
  Zr  Zr32  1  0.90079033  0.89570383  0.70352072  1
  Zr  Zr33  1  0.69530982  0.09595613  0.09649723  1
  Zr  Zr34  1  0.10011445  0.09776310  0.89434674  1
  Zr  Zr35  1  0.70138961  0.49777254  0.10932516  1
  Zr  Zr36  1  0.89960347  0.89102046  0.10412309  1
  Zr  Zr37  1  0.89401543  0.29788987  0.49284703  1
  Zr  Zr38  1  0.69850647  0.89266221  0.30222272  1
  Zr  Zr39  1  0.29790041  0.29101601  0.30255788  1
  Zr  Zr40  1  0.10691399  0.70328027  0.50050660  1
  Zr  Zr41  1  0.30711177  0.90244910  0.90067382  1
  Zr  Zr42  1  0.89900268  0.70038937  0.89787647  1
  Zr  Zr43  1  0.10757154  0.50187574  0.30669785  1
  Zr  Zr44  1  0.30111275  0.69896644  0.89960098  1
  Zr  Zr45  1  0.69569934  0.51021194  0.30609198  1
  Zr  Zr46  1  0.89865709  0.09456899  0.10833828  1
  Zr  Zr47  1  0.88903894  0.69289217  0.70351218  1
  Zr  Zr48  1  0.90038101  0.90160717  0.49254119  1
  Zr  Zr49  1  0.50277520  0.90476787  0.70196943  1
  Sc  Sc50  1  0.29249832  0.51097806  0.09725466  1
  Sc  Sc51  1  0.50476039  0.49880847  0.70512106  1
  Sc  Sc52  1  0.49797037  0.89870812  0.09936957  1
  Sc  Sc53  1  0.30125513  0.70564228  0.10391718  1
  Sc  Sc54  1  0.50428963  0.30734646  0.70476608  1
  Sc  Sc55  1  0.09553726  0.90018955  0.10565939  1
  Sc  Sc56  1  0.69552501  0.89616627  0.10436137  1
  Sc  Sc57  1  0.89400862  0.29321092  0.09437144  1
  Sc  Sc58  1  0.10420298  0.51287932  0.09756488  1
  Sc  Sc59  1  0.70109269  0.89960290  0.70113086  1
  Sc  Sc60  1  0.10201092  0.90494585  0.29974258  1
  Sc  Sc61  1  0.29950958  0.70228338  0.29116972  1
  Sc  Sc62  1  0.49547743  0.69688717  0.70308429  1
  Sc  Sc63  1  0.49965337  0.89366244  0.30106296  1
  Sc  Sc64  1  0.29987915  0.90470836  0.29320310  1
  Sc  Sc65  1  0.29339392  0.30091018  0.90594858  1
  Sc  Sc66  1  0.29629128  0.69497697  0.69757221  1
  Sc  Sc67  1  0.10455845  0.70587589  0.29442820  1
  Sc  Sc68  1  0.90979320  0.29986875  0.68879385  1
  Sc  Sc69  1  0.29534811  0.10399286  0.69291951  1
  Sc  Sc70  1  0.69803567  0.70018074  0.89635806  1
  Sc  Sc71  1  0.89669694  0.70697296  0.50222552  1
  Sc  Sc72  1  0.49744624  0.30013201  0.31109590  1
  Sc  Sc73  1  0.70786138  0.70101753  0.48769502  1
  Sc  Sc74  1  0.30618705  0.90229319  0.10338256  1
  Sc  Sc75  1  0.89274259  0.70550985  0.29860772  1
  Sc  Sc76  1  0.30096233  0.09893580  0.49395064  1
  Sc  Sc77  1  0.10802666  0.50936287  0.90416042  1
  Sc  Sc78  1  0.09240173  0.30897494  0.50171476  1
  Sc  Sc79  1  0.10206288  0.70479397  0.10517993  1
  Sc  Sc80  1  0.69806518  0.09163071  0.49215642  1
  Sc  Sc81  1  0.90480403  0.10317302  0.70149501  1
  Sc  Sc82  1  0.90770269  0.70487284  0.10403553  1
  Sc  Sc83  1  0.70291587  0.70817339  0.10006532  1
  Sc  Sc84  1  0.70091074  0.29015071  0.90431316  1
  Sc  Sc85  1  0.70067401  0.31370635  0.49509288  1
  Sc  Sc86  1  0.70294547  0.29514193  0.09951628  1
  Sc  Sc87  1  0.10795422  0.09392610  0.49360296  1
  Sc  Sc88  1  0.49382605  0.70509174  0.49447318  1
  Sc  Sc89  1  0.89239928  0.29828656  0.30098835  1
  Sc  Sc90  1  0.29903347  0.90079545  0.49693906  1
  Sc  Sc91  1  0.49888739  0.09640128  0.70163873  1
  Sc  Sc92  1  0.50500833  0.09733787  0.90417750  1
  Sc  Sc93  1  0.89707836  0.09389315  0.49369387  1
  Sc  Sc94  1  0.90899439  0.10839691  0.90619751  1
  Sc  Sc95  1  0.29589365  0.29049561  0.09842490  1
  Sc  Sc96  1  0.30480589  0.90168342  0.70066153  1
  Sc  Sc97  1  0.69595869  0.09534574  0.70365805  1
  Sc  Sc98  1  0.70468914  0.50385219  0.69902994  1
  Sc  Sc99  1  0.89392146  0.50223065  0.29589327  1
  Nb  Nb100  1  0.50453622  0.69607737  0.29835943  1
  Nb  Nb101  1  0.90514399  0.90710382  0.29731110  1
  Nb  Nb102  1  0.49646418  0.09714316  0.30309597  1
  Nb  Nb103  1  0.10051649  0.10264771  0.29680681  1
  Nb  Nb104  1  0.69154701  0.70393469  0.30229397  1
  Nb  Nb105  1  0.70064086  0.09975549  0.29837994  1
  Nb  Nb106  1  0.49478790  0.89901649  0.89741573  1
  Nb  Nb107  1  0.90136569  0.50020764  0.09818773  1
  Nb  Nb108  1  0.90197362  0.50322315  0.89862848  1
  Nb  Nb109  1  0.50167972  0.30097382  0.90056537  1
  Nb  Nb110  1  0.09847757  0.70316169  0.69774239  1
  Nb  Nb111  1  0.29926774  0.29994732  0.69708693  1
  Nb  Nb112  1  0.69406189  0.50206522  0.50072890  1
  Nb  Nb113  1  0.89989645  0.50256082  0.70446960  1
  Nb  Nb114  1  0.09536321  0.50376307  0.49644470  1
  Nb  Nb115  1  0.09423374  0.10202121  0.69961287  1
  Nb  Nb116  1  0.70105516  0.69693662  0.69435815  1
  Nb  Nb117  1  0.10161147  0.29193512  0.70193638  1
  Nb  Nb118  1  0.30086869  0.49419105  0.69876521  1
  Nb  Nb119  1  0.50535839  0.49844989  0.49807784  1
  Nb  Nb120  1  0.10140330  0.30643367  0.10018571  1
  Nb  Nb121  1  0.10159324  0.29276157  0.29275480  1
  Nb  Nb122  1  0.89976762  0.30521103  0.90300851  1
  Nb  Nb123  1  0.90267157  0.09342866  0.30014720  1
  Nb  Nb124  1  0.29854311  0.49930336  0.29991942  1
  Nb  Nb125  1  0.00198430  0.19458944  0.38914012  1
  Nb  Nb126  1  0.19891530  0.39782075  0.20103660  1
  Nb  Nb127  1  0.80757105  0.59505360  0.00200961  1
  Nb  Nb128  1  0.00104626  0.40042958  0.80406196  1
  Nb  Nb129  1  0.00489501  0.39924330  0.19373061  1
  Nb  Nb130  1  0.39280706  0.40358318  0.20018867  1
  Nb  Nb131  1  0.20108112  0.80596481  -0.00582860  1
  Nb  Nb132  1  0.80415573  -0.00133453  0.81025669  1
  Nb  Nb133  1  0.39843973  0.59530851  0.39678285  1
  Nb  Nb134  1  -0.00404557  0.40463812  0.00019257  1
  Nb  Nb135  1  0.00016323  0.59758006  0.59905230  1
  Nb  Nb136  1  0.81072479  0.40174653  0.80453841  1
  Nb  Nb137  1  0.00279972  0.59847446  0.40737102  1
  Nb  Nb138  1  0.00419957  -0.00212830  0.60120773  1
  Nb  Nb139  1  0.39367798  0.40445432  0.60061163  1
  Nb  Nb140  1  0.80095697  -0.00398531  -0.00273250  1
  Nb  Nb141  1  0.60367561  0.20145037  0.59694345  1
  Nb  Nb142  1  0.59287723  0.39896769  0.00132664  1
  Nb  Nb143  1  0.39782626  0.20705742  0.80186064  1
  Nb  Nb144  1  0.60323800  0.60294084  0.59288549  1
  Nb  Nb145  1  0.19703721  0.39345606  0.79148105  1
  Nb  Nb146  1  0.60116123  0.79578203  0.59897923  1
  Nb  Nb147  1  0.59936862  0.19206673  0.20895655  1
  Nb  Nb148  1  0.79377961  0.19976080  0.59620122  1
  Nb  Nb149  1  0.40386162  0.40224147  0.00261768  1
  Pd  Pd150  1  0.60382890  0.19823503  0.40254175  1
  Pd  Pd151  1  -0.00374117  -0.00073795  0.00342150  1
  Pd  Pd152  1  0.19650977  -0.00447291  0.01015624  1
  Pd  Pd153  1  0.80668892  0.39628514  0.20053657  1
  Pd  Pd154  1  0.61181113  0.39998063  0.80822216  1
  Pd  Pd155  1  0.20519818  0.00425474  0.79111946  1
  Pd  Pd156  1  0.20786348  0.80215541  0.39115110  1
  Pd  Pd157  1  -0.00341401  0.79753648  0.60301777  1
  Pd  Pd158  1  0.81017805  0.20107548  0.79477539  1
  Pd  Pd159  1  0.79581441  -0.00812180  0.19724528  1
  Pd  Pd160  1  0.00910623  0.59749096  0.79329766  1
  Pd  Pd161  1  0.41159565  0.20678246  0.60862174  1
  Pd  Pd162  1  -0.00150671  0.79320337  0.39190450  1
  Pd  Pd163  1  0.59356274  0.38774449  0.20197493  1
  Pd  Pd164  1  0.79563283  0.40333808  -0.00341250  1
  Pd  Pd165  1  0.20126769  0.18998557  0.00590536  1
  Pd  Pd166  1  0.39477870  0.79587035  0.39114719  1
  Pd  Pd167  1  0.60393245  0.00065112  0.80628273  1
  Pd  Pd168  1  0.79397827  0.39503742  0.61008588  1
  Pd  Pd169  1  0.20645561  0.80127253  0.79865596  1
  Pd  Pd170  1  0.39951405  0.20223869  -0.00862068  1
  Pd  Pd171  1  0.79365193  0.80124698  0.59815836  1
  Pd  Pd172  1  -0.00560604  0.20648564  0.80069208  1
  Pd  Pd173  1  0.19548550  0.60246954  0.60446812  1
  Pd  Pd174  1  0.59952290  0.79413051  0.79212023  1
  Pd  Pd175  1  0.80527002  0.00749397  0.60922662  1
  Pd  Pd176  1  0.79687287  -0.00276385  0.39257658  1
  Pd  Pd177  1  0.40751850  0.59130550  0.59399979  1
  Pd  Pd178  1  0.20091931  0.39255619  0.59777788  1
  Pd  Pd179  1  0.80961331  0.59804402  0.40521793  1
  Pd  Pd180  1  0.19198067  0.20102704  0.59213990  1
  Pd  Pd181  1  0.19622287  0.38934151  0.39759177  1
  Pd  Pd182  1  -0.00068063  0.18972286  0.58487492  1
  Pd  Pd183  1  0.20707928  0.19979802  0.80049634  1
  Pd  Pd184  1  0.00189416  0.59699617  0.21004681  1
  Pd  Pd185  1  0.19769122  -0.00051986  0.60141480  1
  Pd  Pd186  1  0.40346397  0.80290319  0.60294837  1
  Pd  Pd187  1  0.79842110  0.61082577  0.19390805  1
  Pd  Pd188  1  0.39267773  0.39423082  0.80232225  1
  Pd  Pd189  1  0.79513088  0.19813148  0.20211895  1
  Pd  Pd190  1  0.39867364  0.40695907  0.40129309  1
  Pd  Pd191  1  0.59506681  -0.00171561  0.20695597  1
  Pd  Pd192  1  0.59465639  0.80019836  0.00556029  1
  Pd  Pd193  1  0.40110402  0.79663454  0.79715266  1
  Pd  Pd194  1  0.39601403  0.00053907  0.59867283  1
  Pd  Pd195  1  0.39878397  0.60080463  0.79693278  1
  Pd  Pd196  1  -0.00125690  0.60366204  0.00252040  1
  Pd  Pd197  1  -0.00803398  0.20786867  0.20097064  1
  Pd  Pd198  1  -0.00309994  0.39836567  0.38806977  1
  Pd  Pd199  1  0.39537968  0.59841287  0.00302721  1
  Rh  Rh200  1  0.79612894  0.41207617  0.39420414  1
  Rh  Rh201  1  0.79972865  0.80050034  0.20666848  1
  Rh  Rh202  1  0.00106175  0.40265339  0.60458970  1
  Rh  Rh203  1  0.40609359  0.20140682  0.21122658  1
  Rh  Rh204  1  -0.00032181  0.80391039  0.20805456  1
  Rh  Rh205  1  0.80387308  0.19135814  0.40267351  1
  Rh  Rh206  1  -0.00192842  0.79164975  0.79356232  1
  Rh  Rh207  1  0.79425915  0.80238607  0.79961610  1
  Rh  Rh208  1  0.60060482  -0.00887163  -0.00393893  1
  Rh  Rh209  1  0.19976828  0.40401465  0.00120403  1
  Rh  Rh210  1  0.59806716  0.79547761  0.40526718  1
  Rh  Rh211  1  0.19893031  0.59490848  0.79134920  1
  Rh  Rh212  1  0.59849863  -0.00152830  0.39231753  1
  Rh  Rh213  1  0.61008137  0.61229374  0.19604755  1
  Rh  Rh214  1  0.59633934  0.79707927  0.20054249  1
  Rh  Rh215  1  0.79185938  0.59695908  0.80661475  1
  Rh  Rh216  1  0.01105189  0.79617612  0.00075138  1
  Rh  Rh217  1  0.39399930  0.59672250  0.20704331  1
  Rh  Rh218  1  0.40830260  -0.00411107  -0.00071545  1
  Rh  Rh219  1  0.59268034  0.60813542  0.40765663  1
  Rh  Rh220  1  0.60282694  0.60541933  0.78782451  1
  Rh  Rh221  1  0.80437111  0.19001799  0.00117782  1
  Rh  Rh222  1  0.00362054  -0.00230734  0.20394502  1
  Rh  Rh223  1  0.80400153  0.80540952  0.39364239  1
  Rh  Rh224  1  0.40258400  0.19434905  0.39934836  1
  Rh  Rh225  1  0.20019402  -0.00278999  0.39479017  1
  Rh  Rh226  1  0.00463764  0.00441367  0.40108346  1
  Rh  Rh227  1  0.60325191  0.40356607  0.39442938  1
  Rh  Rh228  1  0.20075579  0.59837680  0.20228084  1
  Rh  Rh229  1  0.18863799  0.20443688  0.40708613  1
  Rh  Rh230  1  0.20177073  0.80764032  0.19040922  1
  Rh  Rh231  1  -0.00402404  0.00458195  0.79344202  1
  Rh  Rh232  1  0.20758090  0.80215165  0.60454805  1
  Rh  Rh233  1  0.20161148  0.19944523  0.19380422  1
  Rh  Rh234  1  0.39732225  0.80152837  0.00065997  1
  Rh  Rh235  1  0.61187132  0.59950438  0.01157317  1
  Rh  Rh236  1  0.79919339  0.59738279  0.59339170  1
  Rh  Rh237  1  0.80251704  0.79622191  -0.00030389  1
  Rh  Rh238  1  0.40333251  0.80234725  0.20238905  1
  Rh  Rh239  1  0.20151971  0.61845573  0.00249428  1
  Rh  Rh240  1  0.19660674  0.00305984  0.19784637  1
  Rh  Rh241  1  0.59907844  -0.00167902  0.59769217  1
  Rh  Rh242  1  0.20118881  0.61049491  0.39549286  1
  Rh  Rh243  1  0.40593497  -0.00196833  0.20640770  1
  Rh  Rh244  1  0.39736225  -0.00092597  0.39666016  1
  Rh  Rh245  1  0.59833872  0.20594782  0.00832068  1
  Rh  Rh246  1  0.58659825  0.19725996  0.79336328  1
  Rh  Rh247  1  -0.00160532  0.20438156  0.00698187  1
  Rh  Rh248  1  0.59639392  0.40543462  0.60177471  1
  Rh  Rh249  1  0.39954247  0.00986766  0.79970538  1
