# generated using pymatgen
data_ZrScNbPdRh
_symmetry_space_group_name_H-M   'P 1'
_cell_length_a   16.56190661
_cell_length_b   16.55823570
_cell_length_c   16.55983365
_cell_angle_alpha   89.96693701
_cell_angle_beta   90.02953407
_cell_angle_gamma   89.99429397
_symmetry_Int_Tables_number   1
_chemical_formula_structural   ZrScNbPdRh
_chemical_formula_sum   'Zr50 Sc50 Nb50 Pd50 Rh50'
_cell_volume   4541.30038447
_cell_formula_units_Z   50
loop_
 _symmetry_equiv_pos_site_id
 _symmetry_equiv_pos_as_xyz
  1  'x, y, z'
loop_
 _atom_site_type_symbol
 _atom_site_label
 _atom_site_symmetry_multiplicity
 _atom_site_fract_x
 _atom_site_fract_y
 _atom_site_fract_z
 _atom_site_occupancy
  Zr  Zr0  1  0.10514621  0.90288498  0.70267395  1
  Zr  Zr1  1  0.50564880  0.49125192  0.10594181  1
  Zr  Zr2  1  0.90466238  0.90431205  0.49864836  1
  Zr  Zr3  1  0.09273237  0.69549840  0.09988923  1
  Zr  Zr4  1  0.50408116  0.49597901  0.70368286  1
  Zr  Zr5  1  0.69583581  0.90202556  0.49884632  1
  Zr  Zr6  1  0.28952105  0.90439478  0.29825752  1
  Zr  Zr7  1  0.70233057  0.30531294  0.90227951  1
  Zr  Zr8  1  0.10943293  0.70082228  0.90467772  1
  Zr  Zr9  1  0.50734587  0.09956881  0.50100156  1
  Zr  Zr10  1  0.69512806  0.30013102  0.69145437  1
  Zr  Zr11  1  0.69459266  0.89883340  0.29785065  1
  Zr  Zr12  1  0.71004662  0.50932031  0.49970868  1
  Zr  Zr13  1  0.69871712  0.90741074  0.10256269  1
  Zr  Zr14  1  0.89994568  0.10493452  0.90249450  1
  Zr  Zr15  1  0.89887760  0.29234998  0.89979765  1
  Zr  Zr16  1  0.50146572  0.89652476  0.31000134  1
  Zr  Zr17  1  0.49249423  0.09101020  0.70408652  1
  Zr  Zr18  1  0.29897431  0.10185749  0.29313848  1
  Zr  Zr19  1  0.69850223  0.70137262  0.50090909  1
  Zr  Zr20  1  0.90498340  0.50417575  0.49214570  1
  Zr  Zr21  1  0.49935185  0.69381508  0.89609117  1
  Zr  Zr22  1  0.10327709  0.70196127  0.69578431  1
  Zr  Zr23  1  0.89860959  0.48759647  0.89511851  1
  Zr  Zr24  1  0.29145418  0.09840709  0.70022886  1
  Zr  Zr25  1  0.10709609  0.09964438  0.30583135  1
  Zr  Zr26  1  0.10986467  0.89800818  0.10804924  1
  Zr  Zr27  1  0.90006908  0.91042845  0.90048079  1
  Zr  Zr28  1  0.69368109  0.50068753  0.28970223  1
  Zr  Zr29  1  0.89835617  0.69246900  0.49697195  1
  Zr  Zr30  1  0.09715789  0.90320846  0.90780498  1
  Zr  Zr31  1  0.28900257  0.90421893  0.90250956  1
  Zr  Zr32  1  0.90513144  0.29230839  0.49286205  1
  Zr  Zr33  1  0.29673172  0.50461038  0.49195138  1
  Zr  Zr34  1  0.50024344  0.10002563  0.90208715  1
  Zr  Zr35  1  0.69844245  0.90512623  0.70641246  1
  Zr  Zr36  1  0.70642432  0.70625406  0.30189914  1
  Zr  Zr37  1  0.29413173  0.50141803  0.69226034  1
  Zr  Zr38  1  0.69665351  0.69973240  0.70135958  1
  Zr  Zr39  1  0.30112584  0.90543138  0.69221416  1
  Zr  Zr40  1  0.29609627  0.69897561  0.50811178  1
  Zr  Zr41  1  0.90103026  0.29697382  0.70274527  1
  Zr  Zr42  1  0.30635651  0.69164506  0.30983014  1
  Zr  Zr43  1  0.90557418  0.69853298  0.11173567  1
  Zr  Zr44  1  0.30796536  0.49591132  0.10122424  1
  Zr  Zr45  1  0.70569054  0.10692482  0.29776375  1
  Zr  Zr46  1  0.29912690  0.10286385  0.90214009  1
  Zr  Zr47  1  0.49259145  0.90137893  0.50867597  1
  Zr  Zr48  1  0.09313805  0.29953702  0.89455840  1
  Zr  Zr49  1  0.10014351  0.90135468  0.30373256  1
  Sc  Sc50  1  0.10584810  0.49568355  0.49562157  1
  Sc  Sc51  1  0.89199090  0.49960426  0.68825355  1
  Sc  Sc52  1  0.09635392  0.70247050  0.49894450  1
  Sc  Sc53  1  0.89222719  0.10240974  0.70245070  1
  Sc  Sc54  1  0.10363061  0.89626996  0.49319328  1
  Sc  Sc55  1  0.90784428  0.71445007  0.91105998  1
  Sc  Sc56  1  0.29413846  0.29522300  0.89557571  1
  Sc  Sc57  1  0.10981036  0.10243441  0.09456646  1
  Sc  Sc58  1  0.90165907  0.90209009  0.71020228  1
  Sc  Sc59  1  0.90799068  0.50443539  0.29822057  1
  Sc  Sc60  1  0.49982671  0.09823631  0.29586197  1
  Sc  Sc61  1  0.51671634  0.29770262  0.50114632  1
  Sc  Sc62  1  0.29146960  0.09793149  0.50129207  1
  Sc  Sc63  1  0.89885946  0.10310356  0.49895139  1
  Sc  Sc64  1  0.29781435  0.89762253  0.50235708  1
  Sc  Sc65  1  0.49730118  0.50057704  0.28986359  1
  Sc  Sc66  1  0.10222141  0.09789954  0.89862118  1
  Sc  Sc67  1  0.51024414  0.91220518  0.10950500  1
  Sc  Sc68  1  0.90330408  0.89668407  0.09359858  1
  Sc  Sc69  1  0.69676729  0.29112765  0.49617532  1
  Sc  Sc70  1  0.29927459  0.69007411  0.09179339  1
  Sc  Sc71  1  0.29629077  0.50393176  0.89647358  1
  Sc  Sc72  1  0.28949793  0.30092664  0.70436262  1
  Sc  Sc73  1  0.10303270  0.49582103  0.90700402  1
  Sc  Sc74  1  0.90198143  0.90042551  0.30747404  1
  Sc  Sc75  1  0.10040646  0.29512007  0.49397889  1
  Sc  Sc76  1  0.29724865  0.29297601  0.29342289  1
  Sc  Sc77  1  0.90111735  0.29515843  0.09205820  1
  Sc  Sc78  1  0.69666948  0.29249386  0.09701497  1
  Sc  Sc79  1  0.50246902  0.69682998  0.69492635  1
  Sc  Sc80  1  0.91352173  0.50321021  0.10924411  1
  Sc  Sc81  1  0.70948254  0.70445569  0.11082371  1
  Sc  Sc82  1  0.49169276  0.70565115  0.49906922  1
  Sc  Sc83  1  0.50653288  0.49297006  0.89080695  1
  Sc  Sc84  1  0.48989068  0.68676476  0.10291154  1
  Sc  Sc85  1  0.69983348  0.70649727  0.89523653  1
  Sc  Sc86  1  0.09224322  0.49191153  0.30576283  1
  Sc  Sc87  1  0.69809643  0.09863911  0.90352135  1
  Sc  Sc88  1  0.10382335  0.29445785  0.69608150  1
  Sc  Sc89  1  0.10610110  0.49531421  0.69859392  1
  Sc  Sc90  1  0.69944210  0.90394717  0.89837278  1
  Sc  Sc91  1  0.50179286  0.28698809  0.10308438  1
  Sc  Sc92  1  0.09705814  0.30413457  0.09167896  1
  Sc  Sc93  1  0.50080957  0.50950065  0.50020780  1
  Sc  Sc94  1  0.88768209  0.10032857  0.09692035  1
  Sc  Sc95  1  0.09965404  0.10657329  0.49715471  1
  Sc  Sc96  1  0.09630975  0.71086293  0.29969754  1
  Sc  Sc97  1  0.28534273  0.30253898  0.49858213  1
  Sc  Sc98  1  0.89605959  0.10176097  0.30945732  1
  Sc  Sc99  1  0.69479303  0.50274183  0.69770455  1
  Nb  Nb100  1  0.49587822  0.90452812  0.89695851  1
  Nb  Nb101  1  0.30694976  0.29101711  0.09802873  1
  Nb  Nb102  1  0.68014026  0.09740081  0.09862528  1
  Nb  Nb103  1  0.29706634  0.70145465  0.70175669  1
  Nb  Nb104  1  0.69409466  0.10029076  0.69643312  1
  Nb  Nb105  1  0.30084903  0.90793129  0.10428817  1
  Nb  Nb106  1  0.10605591  0.50212009  0.10434243  1
  Nb  Nb107  1  0.29879215  0.49412123  0.30091713  1
  Nb  Nb108  1  0.49143283  0.90280657  0.70837852  1
  Nb  Nb109  1  0.90351435  0.69876081  0.69720267  1
  Nb  Nb110  1  0.90187187  0.69612455  0.29972861  1
  Nb  Nb111  1  0.50003604  0.70195043  0.30188988  1
  Nb  Nb112  1  0.90221482  0.30032102  0.29788033  1
  Nb  Nb113  1  0.51003629  0.30329063  0.30845184  1
  Nb  Nb114  1  0.69955707  0.30148306  0.30207469  1
  Nb  Nb115  1  0.09393587  0.30138865  0.30084170  1
  Nb  Nb116  1  0.70268838  0.49971762  0.90447220  1
  Nb  Nb117  1  0.30415923  0.70058301  0.89787605  1
  Nb  Nb118  1  0.70240899  0.49840032  0.10016381  1
  Nb  Nb119  1  0.69854263  0.10228663  0.50913007  1
  Nb  Nb120  1  0.49943523  0.30361358  0.70085530  1
  Nb  Nb121  1  0.31446253  0.11067507  0.10280571  1
  Nb  Nb122  1  0.50012514  0.29971504  0.89266738  1
  Nb  Nb123  1  0.10344094  0.10106348  0.68891663  1
  Nb  Nb124  1  0.50322188  0.10195664  0.09522145  1
  Nb  Nb125  1  0.40228076  0.38984054  -0.00185206  1
  Nb  Nb126  1  0.80305067  0.79929734  0.60268990  1
  Nb  Nb127  1  0.39737146  0.80291008  0.19859254  1
  Nb  Nb128  1  0.40146400  0.39509632  0.40029207  1
  Nb  Nb129  1  0.00355608  0.00311543  0.60238175  1
  Nb  Nb130  1  0.40405301  0.20681053  0.40319914  1
  Nb  Nb131  1  0.20043153  0.59042544  0.20260357  1
  Nb  Nb132  1  0.20001033  0.40011394  0.19746288  1
  Nb  Nb133  1  0.60016107  0.60746012  0.39292723  1
  Nb  Nb134  1  -0.00250906  0.39484700  0.59613845  1
  Nb  Nb135  1  0.79966135  0.39590632  0.39065492  1
  Nb  Nb136  1  0.40210370  0.20705176  0.59915963  1
  Nb  Nb137  1  0.00324622  0.00600692  0.20250540  1
  Nb  Nb138  1  0.79939735  0.39545777  0.20307919  1
  Nb  Nb139  1  0.59081570  0.79810233  0.00049720  1
  Nb  Nb140  1  0.39964080  0.00160642  0.00701333  1
  Nb  Nb141  1  0.39430556  0.79942406  0.80303266  1
  Nb  Nb142  1  0.00050083  0.19894618  0.20378482  1
  Nb  Nb143  1  0.60918494  0.59706798  0.00184442  1
  Nb  Nb144  1  0.59640630  0.20396522  0.79570181  1
  Nb  Nb145  1  0.40162349  0.80863942  0.00058658  1
  Nb  Nb146  1  -0.00486243  0.60297034  0.79770947  1
  Nb  Nb147  1  0.80671915  0.60160661  0.80583374  1
  Nb  Nb148  1  0.79909827  0.59536313  -0.00109576  1
  Nb  Nb149  1  0.40078481  0.39507646  0.59670119  1
  Pd  Pd150  1  0.80579669  0.80177459  0.40515292  1
  Pd  Pd151  1  0.80775411  0.40404799  0.01308161  1
  Pd  Pd152  1  0.80728682  -0.00415721  0.60374949  1
  Pd  Pd153  1  0.00421202  0.40622460  0.78778094  1
  Pd  Pd154  1  0.00235240  0.79673149  0.80366532  1
  Pd  Pd155  1  0.00575918  0.19057683  0.79408020  1
  Pd  Pd156  1  0.39823515  0.60099929  0.79291998  1
  Pd  Pd157  1  0.19308975  0.59673873  0.80230167  1
  Pd  Pd158  1  0.79331672  0.00439255  0.40271147  1
  Pd  Pd159  1  0.59640581  0.20035813  0.20625920  1
  Pd  Pd160  1  0.79392410  0.00353426  0.00090137  1
  Pd  Pd161  1  0.00818985  0.58936467  0.60324876  1
  Pd  Pd162  1  0.80771079  -0.00301680  0.20157489  1
  Pd  Pd163  1  0.78732999  0.19586628  0.80080383  1
  Pd  Pd164  1  0.59061513  0.80307601  0.80346530  1
  Pd  Pd165  1  0.20372304  0.80193120  0.79815379  1
  Pd  Pd166  1  0.59348306  0.39740122  0.00242117  1
  Pd  Pd167  1  0.40498460  -0.00232196  0.19950307  1
  Pd  Pd168  1  0.59815230  0.40812381  0.59062585  1
  Pd  Pd169  1  0.81051176  0.81225237  0.20292218  1
  Pd  Pd170  1  -0.00352634  0.40309858  0.00484240  1
  Pd  Pd171  1  0.60583306  0.00725841  0.39613855  1
  Pd  Pd172  1  0.59626709  -0.00553458  0.60594269  1
  Pd  Pd173  1  0.19763430  0.20398325  -0.00079289  1
  Pd  Pd174  1  0.38814350  0.39912068  0.79932866  1
  Pd  Pd175  1  0.58897484  0.79181815  0.18990750  1
  Pd  Pd176  1  0.79139795  0.79640965  0.00070304  1
  Pd  Pd177  1  0.39262953  0.80411929  0.39913908  1
  Pd  Pd178  1  0.80670424  0.79651062  0.79823294  1
  Pd  Pd179  1  -0.00612986  0.59336719  -0.00902636  1
  Pd  Pd180  1  0.19035180  0.20850458  0.19443512  1
  Pd  Pd181  1  -0.00312695  0.80873035  0.59948649  1
  Pd  Pd182  1  0.00390587  0.01026417  0.79355996  1
  Pd  Pd183  1  0.00194097  0.00656393  0.01207304  1
  Pd  Pd184  1  0.60080264  0.41305252  0.40466415  1
  Pd  Pd185  1  0.60182650  0.61085583  0.19733973  1
  Pd  Pd186  1  0.39250360  0.00759868  0.40492233  1
  Pd  Pd187  1  0.20912173  0.39535979  0.00282480  1
  Pd  Pd188  1  0.80424591  0.20475394  0.19440192  1
  Pd  Pd189  1  0.40219202  0.59625945  0.60437194  1
  Pd  Pd190  1  0.39984953  0.20291731  0.79383488  1
  Pd  Pd191  1  0.18781782  0.60271929  0.39209694  1
  Pd  Pd192  1  0.79273352  0.40525509  0.79056719  1
  Pd  Pd193  1  0.80151775  0.19994008  0.59670521  1
  Pd  Pd194  1  0.39928633  0.38596926  0.20201282  1
  Pd  Pd195  1  0.40819938  0.58638103  -0.00777394  1
  Pd  Pd196  1  0.20524977  0.79611686  0.00951288  1
  Pd  Pd197  1  0.21111363  0.78325478  0.19762525  1
  Pd  Pd198  1  0.59854058  0.80511416  0.60304382  1
  Pd  Pd199  1  0.80434088  0.39183757  0.58769344  1
  Rh  Rh200  1  0.80549296  0.59185937  0.19740259  1
  Rh  Rh201  1  0.00258605  0.19634722  0.39129283  1
  Rh  Rh202  1  0.19905236  0.79988862  0.59820747  1
  Rh  Rh203  1  0.20974951  0.00866905  0.00913816  1
  Rh  Rh204  1  0.00062398  0.19504472  0.00324919  1
  Rh  Rh205  1  0.60178745  0.19071082  0.39500861  1
  Rh  Rh206  1  0.20469744  0.79644679  0.40341414  1
  Rh  Rh207  1  0.19792770  0.01070043  0.19415412  1
  Rh  Rh208  1  0.61063763  0.59585758  0.80709425  1
  Rh  Rh209  1  -0.00177967  0.19871031  0.60361819  1
  Rh  Rh210  1  0.19627164  0.39974190  0.59777253  1
  Rh  Rh211  1  -0.00497730  0.79469108  0.39903065  1
  Rh  Rh212  1  0.78995094  0.19370411  0.00446822  1
  Rh  Rh213  1  0.59531419  -0.00802875  -0.00412047  1
  Rh  Rh214  1  -0.00442970  0.39756525  0.40661399  1
  Rh  Rh215  1  0.39820228  0.79714888  0.61116883  1
  Rh  Rh216  1  0.41077678  0.58895668  0.39367708  1
  Rh  Rh217  1  0.79566817  0.59305132  0.38357164  1
  Rh  Rh218  1  0.40461835  0.20193978  -0.00430008  1
  Rh  Rh219  1  0.19629142  0.00360876  0.79971258  1
  Rh  Rh220  1  0.79602915  0.00661484  0.80238191  1
  Rh  Rh221  1  0.59185307  0.19403259  0.61015118  1
  Rh  Rh222  1  0.39750858  0.00738578  0.59422953  1
  Rh  Rh223  1  0.00589799  0.80523667  0.00408797  1
  Rh  Rh224  1  0.01267778  0.60145955  0.21148706  1
  Rh  Rh225  1  0.59905385  0.20475265  -0.01010060  1
  Rh  Rh226  1  0.00357123  0.00375258  0.40315436  1
  Rh  Rh227  1  0.59819742  0.60108194  0.59109029  1
  Rh  Rh228  1  0.20590806  0.20290727  0.39659196  1
  Rh  Rh229  1  0.60007094  0.00633324  0.20944283  1
  Rh  Rh230  1  0.00574898  0.60593852  0.39661535  1
  Rh  Rh231  1  0.19195720  0.19661531  0.80073757  1
  Rh  Rh232  1  0.59522232  0.79578709  0.40660824  1
  Rh  Rh233  1  0.60575172  0.38787450  0.19371535  1
  Rh  Rh234  1  0.41060919  0.20339786  0.21041874  1
  Rh  Rh235  1  0.00217746  0.38975384  0.19597946  1
  Rh  Rh236  1  0.20274250  -0.00013195  0.40529142  1
  Rh  Rh237  1  0.60381619  0.00602950  0.79959947  1
  Rh  Rh238  1  -0.00490360  0.80984311  0.20400855  1
  Rh  Rh239  1  0.79400686  0.20210265  0.40377052  1
  Rh  Rh240  1  0.39320011  0.60432797  0.20648022  1
  Rh  Rh241  1  0.38812793  -0.00514918  0.80811506  1
  Rh  Rh242  1  0.20129737  0.59865917  0.00227787  1
  Rh  Rh243  1  0.18972971  -0.00305601  0.59227514  1
  Rh  Rh244  1  0.60952976  0.39515835  0.79853991  1
  Rh  Rh245  1  0.19680536  0.39952263  0.80355826  1
  Rh  Rh246  1  0.79777194  0.60953475  0.61076272  1
  Rh  Rh247  1  0.19569845  0.60275542  0.59777015  1
  Rh  Rh248  1  0.20612230  0.20163887  0.59903243  1
  Rh  Rh249  1  0.20362572  0.39303162  0.38819721  1
