# generated using pymatgen
data_ZrScNbPdRh
_symmetry_space_group_name_H-M   'P 1'
_cell_length_a   16.56100232
_cell_length_b   16.56006062
_cell_length_c   16.55761999
_cell_angle_alpha   90.00653275
_cell_angle_beta   89.98174258
_cell_angle_gamma   89.99461503
_symmetry_Int_Tables_number   1
_chemical_formula_structural   ZrScNbPdRh
_chemical_formula_sum   'Zr50 Sc50 Nb50 Pd50 Rh50'
_cell_volume   4540.94691062
_cell_formula_units_Z   50
loop_
 _symmetry_equiv_pos_site_id
 _symmetry_equiv_pos_as_xyz
  1  'x, y, z'
loop_
 _atom_site_type_symbol
 _atom_site_label
 _atom_site_symmetry_multiplicity
 _atom_site_fract_x
 _atom_site_fract_y
 _atom_site_fract_z
 _atom_site_occupancy
  Zr  Zr0  1  0.29645084  0.50040650  0.29926566  1
  Zr  Zr1  1  0.09373681  0.89625259  0.50539738  1
  Zr  Zr2  1  0.11161868  0.49476941  0.09453627  1
  Zr  Zr3  1  0.09606585  0.30431631  0.69665232  1
  Zr  Zr4  1  0.30679071  0.09357465  0.70367127  1
  Zr  Zr5  1  0.09840520  0.90377984  0.69889906  1
  Zr  Zr6  1  0.31548004  0.10496169  0.09985739  1
  Zr  Zr7  1  0.49878174  0.91265232  0.69207989  1
  Zr  Zr8  1  0.09767756  0.29652540  0.50681404  1
  Zr  Zr9  1  0.50333049  0.89908717  0.49741787  1
  Zr  Zr10  1  0.89417723  0.50320415  0.31194858  1
  Zr  Zr11  1  0.50078398  0.09326017  0.49852947  1
  Zr  Zr12  1  0.29229081  0.30259415  0.10180947  1
  Zr  Zr13  1  0.29660126  0.90526892  0.89838279  1
  Zr  Zr14  1  0.30302549  0.10480382  0.30647385  1
  Zr  Zr15  1  0.48658323  0.69498418  0.09420621  1
  Zr  Zr16  1  0.50078903  0.29965154  0.89148676  1
  Zr  Zr17  1  0.49329498  0.28957242  0.09682410  1
  Zr  Zr18  1  0.30101778  0.50994580  0.10552249  1
  Zr  Zr19  1  0.49395151  0.09838530  0.89324778  1
  Zr  Zr20  1  0.70327287  0.49837096  0.29689624  1
  Zr  Zr21  1  0.69304241  0.70722286  0.89508918  1
  Zr  Zr22  1  0.10687630  0.51135084  0.31255002  1
  Zr  Zr23  1  0.10316617  0.10490981  0.30300108  1
  Zr  Zr24  1  0.10539168  0.89896451  0.10248124  1
  Zr  Zr25  1  0.90683254  0.30147380  0.89467456  1
  Zr  Zr26  1  0.90001657  0.10294644  0.89659038  1
  Zr  Zr27  1  0.08646027  0.50279616  0.89566287  1
  Zr  Zr28  1  0.30121138  0.30083568  0.70050473  1
  Zr  Zr29  1  0.10207846  0.69978385  0.68828541  1
  Zr  Zr30  1  0.69409307  0.30089793  0.50468828  1
  Zr  Zr31  1  0.70251164  0.30357634  0.30528952  1
  Zr  Zr32  1  0.89934820  0.10036207  0.50837197  1
  Zr  Zr33  1  0.09855620  0.90640085  0.29307458  1
  Zr  Zr34  1  0.69554837  0.49826390  0.09623955  1
  Zr  Zr35  1  0.09685814  0.09926793  0.10979536  1
  Zr  Zr36  1  0.90607748  0.89845882  0.10512095  1
  Zr  Zr37  1  0.70698067  0.08309386  0.89569621  1
  Zr  Zr38  1  0.50409538  0.89001019  0.89820934  1
  Zr  Zr39  1  0.30037827  0.70654967  0.10542443  1
  Zr  Zr40  1  0.30197459  0.70326984  0.69783290  1
  Zr  Zr41  1  0.10579843  0.89853485  0.90453060  1
  Zr  Zr42  1  0.70907134  0.89435411  0.09053867  1
  Zr  Zr43  1  0.89544803  0.69965538  0.10370651  1
  Zr  Zr44  1  0.29666808  0.29864845  0.30042396  1
  Zr  Zr45  1  0.49076313  0.89083466  0.10882307  1
  Zr  Zr46  1  0.50452798  0.50017644  0.09883279  1
  Zr  Zr47  1  0.29741837  0.09318155  0.90103840  1
  Zr  Zr48  1  0.70573183  0.50091149  0.69468219  1
  Zr  Zr49  1  0.29587844  0.69292221  0.29731981  1
  Sc  Sc50  1  0.90355625  0.30213787  0.10118010  1
  Sc  Sc51  1  0.30004425  0.71062450  0.90518474  1
  Sc  Sc52  1  0.89590251  0.29792334  0.69945782  1
  Sc  Sc53  1  0.70655338  0.70277915  0.30225802  1
  Sc  Sc54  1  0.89751109  0.30428679  0.30078307  1
  Sc  Sc55  1  0.50046784  0.29742659  0.31505434  1
  Sc  Sc56  1  0.29739687  0.29671055  0.49605419  1
  Sc  Sc57  1  0.10149703  0.70007928  0.30415653  1
  Sc  Sc58  1  0.09946753  0.70721129  0.09171979  1
  Sc  Sc59  1  0.70704901  0.10336123  0.31340669  1
  Sc  Sc60  1  0.70095221  0.69661959  0.69818125  1
  Sc  Sc61  1  0.70387714  0.70746703  0.50557066  1
  Sc  Sc62  1  0.50481356  0.49823473  0.29857973  1
  Sc  Sc63  1  0.70255748  0.90150715  0.49258778  1
  Sc  Sc64  1  0.29847391  0.70661099  0.51061739  1
  Sc  Sc65  1  0.29875082  0.90562991  0.29337089  1
  Sc  Sc66  1  0.51213822  0.50144776  0.70528424  1
  Sc  Sc67  1  0.89705872  0.50285382  0.50008722  1
  Sc  Sc68  1  0.30102311  0.89690906  0.69671008  1
  Sc  Sc69  1  0.29316177  0.49065604  0.70061519  1
  Sc  Sc70  1  0.09789863  0.30083573  0.10235293  1
  Sc  Sc71  1  0.10233610  0.29655445  0.29916556  1
  Sc  Sc72  1  0.90219631  0.10299576  0.10652806  1
  Sc  Sc73  1  0.88621845  0.50145159  0.09392065  1
  Sc  Sc74  1  0.90189689  0.50135966  0.69877850  1
  Sc  Sc75  1  0.89727657  0.49526195  0.89711290  1
  Sc  Sc76  1  0.28920033  0.49448787  0.90323067  1
  Sc  Sc77  1  0.90151133  0.68451354  0.89926503  1
  Sc  Sc78  1  0.50699392  0.70654425  0.69592573  1
  Sc  Sc79  1  0.90053538  0.10003583  0.70258936  1
  Sc  Sc80  1  0.89923249  0.88670357  0.30750950  1
  Sc  Sc81  1  0.51173708  0.48932588  0.49873006  1
  Sc  Sc82  1  0.09670199  0.09321768  0.89335883  1
  Sc  Sc83  1  0.50181489  0.71142125  0.28913256  1
  Sc  Sc84  1  0.69988225  0.09907416  0.70106847  1
  Sc  Sc85  1  0.70640572  0.09631496  0.10114545  1
  Sc  Sc86  1  0.90455743  0.10629202  0.29723745  1
  Sc  Sc87  1  0.70413782  0.69391069  0.09914920  1
  Sc  Sc88  1  0.89468306  0.89608970  0.50573553  1
  Sc  Sc89  1  0.30364157  0.30018114  0.89494895  1
  Sc  Sc90  1  0.70580890  0.89907519  0.70598010  1
  Sc  Sc91  1  0.29206087  0.49255113  0.49458805  1
  Sc  Sc92  1  0.88964900  0.69625684  0.69544090  1
  Sc  Sc93  1  0.51204965  0.50132936  0.90177061  1
  Sc  Sc94  1  0.88585162  0.90586982  0.89986912  1
  Sc  Sc95  1  0.89644748  0.30417867  0.50523465  1
  Sc  Sc96  1  0.89499870  0.70187142  0.49275607  1
  Sc  Sc97  1  0.69982176  0.30945596  0.89223247  1
  Sc  Sc98  1  0.70108652  0.30938171  0.10436507  1
  Sc  Sc99  1  0.09133619  0.30672465  0.90425407  1
  Nb  Nb100  1  0.50030482  0.09983956  0.09948242  1
  Nb  Nb101  1  0.09626830  0.10219508  0.69425750  1
  Nb  Nb102  1  0.09365931  0.69866804  0.89349902  1
  Nb  Nb103  1  0.29911330  0.09501211  0.49661561  1
  Nb  Nb104  1  0.69241717  0.29849156  0.68851148  1
  Nb  Nb105  1  0.29274891  0.89606924  0.09172103  1
  Nb  Nb106  1  0.50627303  0.90057199  0.30485770  1
  Nb  Nb107  1  0.50099424  0.70304636  0.49993458  1
  Nb  Nb108  1  0.89844186  0.68996136  0.30270442  1
  Nb  Nb109  1  0.09831706  0.50254280  0.69456404  1
  Nb  Nb110  1  0.49588822  0.69787539  0.89350651  1
  Nb  Nb111  1  0.50140807  0.10277440  0.70134055  1
  Nb  Nb112  1  0.69891528  0.50368649  0.90322695  1
  Nb  Nb113  1  0.90536974  0.89837635  0.69625796  1
  Nb  Nb114  1  0.30529025  0.90607241  0.49957325  1
  Nb  Nb115  1  0.50560651  0.29183929  0.69825934  1
  Nb  Nb116  1  0.09735126  0.50864639  0.50756185  1
  Nb  Nb117  1  0.10437070  0.69604382  0.49866844  1
  Nb  Nb118  1  0.69814312  0.90325535  0.90200134  1
  Nb  Nb119  1  0.09987225  0.10399839  0.50361346  1
  Nb  Nb120  1  0.50682459  0.29756622  0.51101381  1
  Nb  Nb121  1  0.49502067  0.09424341  0.29444904  1
  Nb  Nb122  1  0.70354677  0.49827143  0.49781227  1
  Nb  Nb123  1  0.69266209  0.89879814  0.30117442  1
  Nb  Nb124  1  0.70780440  0.10641550  0.50440647  1
  Nb  Nb125  1  0.59972137  0.60460104  0.40389120  1
  Nb  Nb126  1  0.20240928  0.80432981  0.40576988  1
  Nb  Nb127  1  0.40210348  0.40095837  0.00486930  1
  Nb  Nb128  1  -0.00250595  0.59608814  0.20219337  1
  Nb  Nb129  1  0.40917888  0.39363503  0.60191252  1
  Nb  Nb130  1  0.19910801  0.00617655  0.59345917  1
  Nb  Nb131  1  0.40779697  0.19854061  0.60074318  1
  Nb  Nb132  1  0.00322014  0.00350604  0.40605686  1
  Nb  Nb133  1  0.19493248  0.60243660  0.79717299  1
  Nb  Nb134  1  0.60357055  0.19204377  0.00010144  1
  Nb  Nb135  1  0.39823108  0.39880043  0.19856980  1
  Nb  Nb136  1  0.59614247  0.19019027  0.20043952  1
  Nb  Nb137  1  0.00034647  -0.00306227  0.00357736  1
  Nb  Nb138  1  0.39715914  0.60261532  0.79742324  1
  Nb  Nb139  1  0.40728147  0.60572625  0.40764180  1
  Nb  Nb140  1  -0.00166127  0.79856929  0.79805730  1
  Nb  Nb141  1  0.39955042  0.80296872  0.40051327  1
  Nb  Nb142  1  0.59724969  -0.00243759  0.00493003  1
  Nb  Nb143  1  0.19998899  0.19517180  -0.00384707  1
  Nb  Nb144  1  0.79723057  0.20049123  -0.00545114  1
  Nb  Nb145  1  0.59995216  -0.00131692  0.20187439  1
  Nb  Nb146  1  0.19486347  0.19697377  0.79692565  1
  Nb  Nb147  1  0.79373892  -0.00829016  0.20704036  1
  Nb  Nb148  1  0.40479253  0.59362261  0.59853262  1
  Nb  Nb149  1  0.00179685  0.41418364  0.20467336  1
  Pd  Pd150  1  0.40639164  0.41193096  0.79918804  1
  Pd  Pd151  1  0.40659097  -0.01061313  -0.00041012  1
  Pd  Pd152  1  -0.00980091  0.80459246  -0.01211982  1
  Pd  Pd153  1  -0.00494379  -0.00697619  0.80515231  1
  Pd  Pd154  1  0.19391243  0.79536563  0.79958084  1
  Pd  Pd155  1  -0.00527017  0.40337669  0.59922586  1
  Pd  Pd156  1  0.20090571  0.60904340  -0.00824701  1
  Pd  Pd157  1  0.80684029  0.79862286  0.80176145  1
  Pd  Pd158  1  0.21068351  0.59166557  0.59997588  1
  Pd  Pd159  1  0.79676508  -0.00290414  0.60601438  1
  Pd  Pd160  1  -0.00478533  0.19994764  0.40230071  1
  Pd  Pd161  1  0.79890598  0.40018637  0.79280845  1
  Pd  Pd162  1  0.60713682  0.79783343  0.19332675  1
  Pd  Pd163  1  0.79556941  0.59769317  0.80278182  1
  Pd  Pd164  1  0.60182512  0.60914820  -0.00323532  1
  Pd  Pd165  1  0.81037006  -0.00236999  0.39515646  1
  Pd  Pd166  1  0.00475826  0.79826294  0.39906622  1
  Pd  Pd167  1  0.18846204  0.39447973  0.40454099  1
  Pd  Pd168  1  0.40320982  0.80017609  0.79400527  1
  Pd  Pd169  1  0.21278275  0.00758477  0.19417364  1
  Pd  Pd170  1  0.19392496  -0.00505379  0.40501271  1
  Pd  Pd171  1  0.80823289  0.78987401  -0.01139976  1
  Pd  Pd172  1  -0.00894907  0.78864447  0.60187902  1
  Pd  Pd173  1  0.79740720  0.80139270  0.20697132  1
  Pd  Pd174  1  0.60543626  0.40248516  0.79519721  1
  Pd  Pd175  1  0.00224782  0.78821030  0.20642378  1
  Pd  Pd176  1  -0.00251153  0.59516547  0.01019151  1
  Pd  Pd177  1  0.60031987  0.80391065  0.78967276  1
  Pd  Pd178  1  0.79417588  0.19843782  0.19553390  1
  Pd  Pd179  1  0.39832600  -0.00571636  0.20097336  1
  Pd  Pd180  1  0.60509986  0.00746632  0.39874348  1
  Pd  Pd181  1  0.61339839  0.00214763  0.59771997  1
  Pd  Pd182  1  0.59817741  0.59762235  0.59271343  1
  Pd  Pd183  1  0.60043975  0.60830823  0.20639670  1
  Pd  Pd184  1  0.40399886  0.20039261  0.40795195  1
  Pd  Pd185  1  -0.01074805  0.60563306  0.59440900  1
  Pd  Pd186  1  0.80017153  0.39219084  -0.00235258  1
  Pd  Pd187  1  0.40489075  0.40582094  0.40357683  1
  Pd  Pd188  1  0.00166256  0.19305633  0.00154268  1
  Pd  Pd189  1  0.18868603  0.39872768  0.80440736  1
  Pd  Pd190  1  0.00591613  0.40105085  0.40084972  1
  Pd  Pd191  1  0.59863527  0.19285677  0.39862445  1
  Pd  Pd192  1  0.39543891  0.59249700  -0.01530671  1
  Pd  Pd193  1  0.61119803  0.19536926  0.80516445  1
  Pd  Pd194  1  0.59025620  0.38658821  0.20415646  1
  Pd  Pd195  1  0.80790016  0.20673788  0.40619290  1
  Pd  Pd196  1  0.60836863  0.80663701  0.60309485  1
  Pd  Pd197  1  0.59574659  0.79621519  0.00665326  1
  Pd  Pd198  1  0.20957230  0.19506100  0.60331579  1
  Pd  Pd199  1  0.79259449  0.20450260  0.79962003  1
  Rh  Rh200  1  0.60074668  0.18709188  0.59890605  1
  Rh  Rh201  1  0.00577775  0.60532324  0.78799839  1
  Rh  Rh202  1  0.40463081  -0.00918895  0.80091279  1
  Rh  Rh203  1  -0.00251335  0.40251338  0.79109895  1
  Rh  Rh204  1  0.40563186  0.20829841  0.21298300  1
  Rh  Rh205  1  0.59715405  0.39216047  -0.00410700  1
  Rh  Rh206  1  0.39653314  0.00633092  0.59725578  1
  Rh  Rh207  1  0.20019278  0.40230012  0.59404502  1
  Rh  Rh208  1  0.40192915  -0.00602552  0.39503447  1
  Rh  Rh209  1  0.79296380  0.60141421  -0.00820162  1
  Rh  Rh210  1  0.39817313  0.80303452  -0.00336494  1
  Rh  Rh211  1  0.60572822  0.40457966  0.39924254  1
  Rh  Rh212  1  0.20941485  0.60978927  0.41424593  1
  Rh  Rh213  1  0.78823086  0.60342980  0.40606991  1
  Rh  Rh214  1  0.19653907  0.00482336  0.78629887  1
  Rh  Rh215  1  0.00169950  0.00479833  0.59552220  1
  Rh  Rh216  1  -0.01196689  -0.00234099  0.20795242  1
  Rh  Rh217  1  0.79713391  0.20232881  0.60374414  1
  Rh  Rh218  1  -0.00113739  0.21529641  0.20406835  1
  Rh  Rh219  1  0.20253819  0.19435895  0.19411487  1
  Rh  Rh220  1  0.79628258  0.79923595  0.39803605  1
  Rh  Rh221  1  0.40869975  0.59319346  0.21183206  1
  Rh  Rh222  1  0.40451696  0.79973392  0.59600242  1
  Rh  Rh223  1  0.20015399  0.79539977  -0.00274668  1
  Rh  Rh224  1  0.80814040  0.40359218  0.20154602  1
  Rh  Rh225  1  0.19737978  0.40239106  0.20734252  1
  Rh  Rh226  1  0.00804910  0.20359586  0.79380130  1
  Rh  Rh227  1  0.18442145  0.60954841  0.19097121  1
  Rh  Rh228  1  -0.00429311  0.40787807  0.00999804  1
  Rh  Rh229  1  0.59581284  -0.00406346  0.80218274  1
  Rh  Rh230  1  0.80630476  -0.00544475  0.78946405  1
  Rh  Rh231  1  0.79928496  0.59792667  0.59404783  1
  Rh  Rh232  1  0.79840311  0.39979210  0.60154106  1
  Rh  Rh233  1  0.00064760  0.60452755  0.40322245  1
  Rh  Rh234  1  0.20058253  0.79874922  0.20543588  1
  Rh  Rh235  1  0.39843510  0.20564100  -0.01360259  1
  Rh  Rh236  1  0.59763340  0.79292382  0.39955689  1
  Rh  Rh237  1  0.79931748  0.80385686  0.60181902  1
  Rh  Rh238  1  0.39396656  0.19980265  0.79575828  1
  Rh  Rh239  1  0.20293817  0.38821511  -0.00788190  1
  Rh  Rh240  1  -0.00825154  0.20095543  0.60306259  1
  Rh  Rh241  1  0.80333029  0.59700133  0.20116800  1
  Rh  Rh242  1  0.19871631  0.20280994  0.40480485  1
  Rh  Rh243  1  0.80536177  0.00681873  0.00936573  1
  Rh  Rh244  1  0.59967846  0.60324671  0.80337420  1
  Rh  Rh245  1  0.19353362  0.00816208  0.01104151  1
  Rh  Rh246  1  0.60076196  0.40500519  0.60628657  1
  Rh  Rh247  1  0.79650649  0.39711587  0.40649823  1
  Rh  Rh248  1  0.20318228  0.81233728  0.59241949  1
  Rh  Rh249  1  0.39081794  0.80590877  0.20813789  1
