# generated using pymatgen
data_ZrScNbPdRh
_symmetry_space_group_name_H-M   'P 1'
_cell_length_a   16.55627775
_cell_length_b   16.56035012
_cell_length_c   16.55835212
_cell_angle_alpha   89.98135049
_cell_angle_beta   90.04243902
_cell_angle_gamma   89.93629059
_symmetry_Int_Tables_number   1
_chemical_formula_structural   ZrScNbPdRh
_chemical_formula_sum   'Zr50 Sc50 Nb50 Pd50 Rh50'
_cell_volume   4539.92753642
_cell_formula_units_Z   50
loop_
 _symmetry_equiv_pos_site_id
 _symmetry_equiv_pos_as_xyz
  1  'x, y, z'
loop_
 _atom_site_type_symbol
 _atom_site_label
 _atom_site_symmetry_multiplicity
 _atom_site_fract_x
 _atom_site_fract_y
 _atom_site_fract_z
 _atom_site_occupancy
  Zr  Zr0  1  0.50661054  0.69891982  0.29699282  1
  Zr  Zr1  1  0.30183397  0.70361603  0.88820675  1
  Zr  Zr2  1  0.49834140  0.49571133  0.69561126  1
  Zr  Zr3  1  0.49789666  0.89031448  0.30327483  1
  Zr  Zr4  1  0.90729680  0.90169428  0.10101122  1
  Zr  Zr5  1  0.91506470  0.50138880  0.30244748  1
  Zr  Zr6  1  0.49845722  0.89068116  0.09772456  1
  Zr  Zr7  1  0.30239984  0.89419190  0.69828137  1
  Zr  Zr8  1  0.89596972  0.50336791  0.69058271  1
  Zr  Zr9  1  0.10443853  0.69215705  0.29947010  1
  Zr  Zr10  1  0.10858731  0.89556147  0.90514703  1
  Zr  Zr11  1  0.09640802  0.29218957  0.69670315  1
  Zr  Zr12  1  0.70521532  0.88314736  0.30437830  1
  Zr  Zr13  1  0.70053998  0.50600463  0.50703082  1
  Zr  Zr14  1  0.30567336  0.50116768  0.90099740  1
  Zr  Zr15  1  0.29745362  0.70301482  0.50879296  1
  Zr  Zr16  1  0.70619079  0.10343501  0.31653847  1
  Zr  Zr17  1  0.09285726  0.09889826  0.89520867  1
  Zr  Zr18  1  0.10020032  0.29813769  0.89710801  1
  Zr  Zr19  1  0.88770742  0.49972106  0.90070286  1
  Zr  Zr20  1  0.89931505  0.49987206  0.50630868  1
  Zr  Zr21  1  0.29813706  0.09005457  0.90240795  1
  Zr  Zr22  1  0.49890059  0.50536343  0.90855464  1
  Zr  Zr23  1  0.09543182  0.50808297  0.89907013  1
  Zr  Zr24  1  0.90195811  0.09359327  0.08688253  1
  Zr  Zr25  1  0.89996560  0.30474744  0.69614478  1
  Zr  Zr26  1  0.09896566  0.89631242  0.29881181  1
  Zr  Zr27  1  0.89345060  0.69986537  0.70086690  1
  Zr  Zr28  1  0.89938705  0.50968906  0.09848833  1
  Zr  Zr29  1  0.49888105  0.69774407  0.08762305  1
  Zr  Zr30  1  0.29546754  0.30284929  0.70068154  1
  Zr  Zr31  1  0.09884202  0.50503784  0.12053973  1
  Zr  Zr32  1  0.90221315  0.09486591  0.30114381  1
  Zr  Zr33  1  0.09924221  0.09890156  0.09441657  1
  Zr  Zr34  1  0.49947357  0.50524942  0.49880436  1
  Zr  Zr35  1  0.49991890  0.10644491  0.50167693  1
  Zr  Zr36  1  0.50021389  0.10990885  0.30789446  1
  Zr  Zr37  1  0.29972594  0.10631577  0.30090438  1
  Zr  Zr38  1  0.69685048  0.70947322  0.70508002  1
  Zr  Zr39  1  0.49410476  0.90258230  0.50471104  1
  Zr  Zr40  1  0.70919665  0.09977841  0.89719446  1
  Zr  Zr41  1  0.30302898  0.30290489  0.10733197  1
  Zr  Zr42  1  0.69665404  0.30328093  0.29465705  1
  Zr  Zr43  1  0.50730637  0.89178014  0.70192532  1
  Zr  Zr44  1  0.50472050  0.10387314  0.09844571  1
  Zr  Zr45  1  0.50435968  0.29867944  0.70166592  1
  Zr  Zr46  1  0.69077883  0.50972972  0.28824083  1
  Zr  Zr47  1  0.09944988  0.09375077  0.50729917  1
  Zr  Zr48  1  0.69994563  0.09813975  0.50407088  1
  Zr  Zr49  1  0.30292294  0.70350905  0.30272081  1
  Sc  Sc50  1  0.30135804  0.70437157  0.10749911  1
  Sc  Sc51  1  0.89505887  0.70786892  0.30345520  1
  Sc  Sc52  1  0.70276231  0.30531711  0.89781196  1
  Sc  Sc53  1  0.49513759  0.30767562  0.49966437  1
  Sc  Sc54  1  0.49655901  0.70341302  0.48901058  1
  Sc  Sc55  1  0.88892931  0.09873386  0.49779402  1
  Sc  Sc56  1  0.29629541  0.50833046  0.29149695  1
  Sc  Sc57  1  0.90223019  0.89414548  0.50794915  1
  Sc  Sc58  1  0.10108655  0.91245655  0.68899387  1
  Sc  Sc59  1  0.90201718  0.30087770  0.50147834  1
  Sc  Sc60  1  0.49279090  0.89083660  0.90138324  1
  Sc  Sc61  1  0.70392335  0.89265383  0.88910125  1
  Sc  Sc62  1  0.90237230  0.90643288  0.89905735  1
  Sc  Sc63  1  0.29983108  0.89759985  0.09298924  1
  Sc  Sc64  1  0.88932024  0.31011426  0.09290528  1
  Sc  Sc65  1  0.10735874  0.09953331  0.29569918  1
  Sc  Sc66  1  0.29880878  0.10224904  0.48886947  1
  Sc  Sc67  1  0.09656061  0.70374539  0.09554130  1
  Sc  Sc68  1  0.70823210  0.49507538  0.70183929  1
  Sc  Sc69  1  0.29398580  0.10086901  0.10277048  1
  Sc  Sc70  1  0.69798105  0.29945328  0.70342871  1
  Sc  Sc71  1  0.31517257  0.50361382  0.49900848  1
  Sc  Sc72  1  0.70532505  0.69814763  0.89653048  1
  Sc  Sc73  1  0.50468196  0.09956452  0.70225459  1
  Sc  Sc74  1  0.09948663  0.30205660  0.29817748  1
  Sc  Sc75  1  0.69855179  0.69344267  0.11534844  1
  Sc  Sc76  1  0.30281004  0.51153501  0.69221736  1
  Sc  Sc77  1  0.70290236  0.89491349  0.69524944  1
  Sc  Sc78  1  0.49438070  0.50935201  0.29974804  1
  Sc  Sc79  1  0.70219955  0.10437171  0.09356529  1
  Sc  Sc80  1  0.29460585  0.09631679  0.70723873  1
  Sc  Sc81  1  0.29595979  0.29648180  0.89551350  1
  Sc  Sc82  1  0.69444130  0.71035998  0.49919578  1
  Sc  Sc83  1  0.50272267  0.09857996  0.89290124  1
  Sc  Sc84  1  0.30248147  0.29364984  0.30373058  1
  Sc  Sc85  1  0.09706987  0.50346416  0.69325787  1
  Sc  Sc86  1  0.09898267  0.70649130  0.49837718  1
  Sc  Sc87  1  0.90796255  0.68856812  0.90483065  1
  Sc  Sc88  1  0.29732706  0.89474841  0.29808052  1
  Sc  Sc89  1  0.90434731  0.30140708  0.30825835  1
  Sc  Sc90  1  0.69786136  0.49415001  0.09786902  1
  Sc  Sc91  1  0.69990429  0.10100600  0.69845368  1
  Sc  Sc92  1  0.10305053  0.90180393  0.09735945  1
  Sc  Sc93  1  0.51091951  0.30119106  0.89795161  1
  Sc  Sc94  1  0.89284684  0.29557860  0.89712726  1
  Sc  Sc95  1  0.09307943  0.29038707  0.49819508  1
  Sc  Sc96  1  0.70166511  0.28881618  0.50418869  1
  Sc  Sc97  1  0.08345468  0.50953720  0.49551276  1
  Sc  Sc98  1  0.69925293  0.88588611  0.10533525  1
  Sc  Sc99  1  0.90731710  0.69629051  0.50526813  1
  Nb  Nb100  1  0.69856880  0.49826473  0.89303836  1
  Nb  Nb101  1  0.49596523  0.69678954  0.89564998  1
  Nb  Nb102  1  0.48797668  0.49500533  0.09491734  1
  Nb  Nb103  1  0.30167501  0.50039502  0.09519702  1
  Nb  Nb104  1  0.50825031  0.30385330  0.10549013  1
  Nb  Nb105  1  0.11261321  0.69749302  0.70225581  1
  Nb  Nb106  1  0.90646191  0.89552964  0.70505539  1
  Nb  Nb107  1  0.90406649  0.70304326  0.09915721  1
  Nb  Nb108  1  0.10010653  0.90090339  0.49966024  1
  Nb  Nb109  1  0.30080081  0.69932532  0.69755917  1
  Nb  Nb110  1  0.91704321  0.08755518  0.71514439  1
  Nb  Nb111  1  0.29837517  0.90398815  0.89758370  1
  Nb  Nb112  1  0.90001572  0.90048322  0.30128085  1
  Nb  Nb113  1  0.10106800  0.29916302  0.09777812  1
  Nb  Nb114  1  0.90213291  0.09545664  0.89477932  1
  Nb  Nb115  1  0.29312312  0.89838749  0.50388352  1
  Nb  Nb116  1  0.69358881  0.69857342  0.30483093  1
  Nb  Nb117  1  0.50617578  0.30137423  0.29561072  1
  Nb  Nb118  1  0.49383980  0.70034408  0.70813614  1
  Nb  Nb119  1  0.29737787  0.30250534  0.49884782  1
  Nb  Nb120  1  0.69198162  0.30289455  0.10548792  1
  Nb  Nb121  1  0.08944905  0.09853029  0.70178785  1
  Nb  Nb122  1  0.10042574  0.69931399  0.89810518  1
  Nb  Nb123  1  0.09969075  0.50116944  0.30502597  1
  Nb  Nb124  1  0.69700583  0.90475744  0.50101703  1
  Nb  Nb125  1  0.60210734  -0.00122971  0.20473357  1
  Nb  Nb126  1  0.60194358  0.40263464  0.39471719  1
  Nb  Nb127  1  0.60156784  -0.00504054  0.00262390  1
  Nb  Nb128  1  0.40493692  0.20299838  0.00388640  1
  Nb  Nb129  1  0.19689891  0.40494921  0.00765839  1
  Nb  Nb130  1  0.59592331  0.60786500  0.60862169  1
  Nb  Nb131  1  0.79684069  -0.00028695  0.20359477  1
  Nb  Nb132  1  -0.00160010  0.40225342  0.80165347  1
  Nb  Nb133  1  0.79489843  0.59967853  0.39750851  1
  Nb  Nb134  1  -0.00380910  0.19956221  0.19030410  1
  Nb  Nb135  1  0.60204584  -0.00595938  0.40054018  1
  Nb  Nb136  1  0.40735377  0.00117737  0.20166666  1
  Nb  Nb137  1  0.00636617  0.40331498  -0.00014770  1
  Nb  Nb138  1  0.39398241  0.20461816  0.60035199  1
  Nb  Nb139  1  0.80267460  0.19824919  0.19838530  1
  Nb  Nb140  1  0.00899585  0.79465699  0.79838565  1
  Nb  Nb141  1  0.20031686  0.39914325  0.58931778  1
  Nb  Nb142  1  0.19803831  0.40400279  0.40397909  1
  Nb  Nb143  1  0.79334287  0.40901068  0.39838448  1
  Nb  Nb144  1  0.40189131  0.40247470  0.79855186  1
  Nb  Nb145  1  -0.00312710  0.80199431  0.20164123  1
  Nb  Nb146  1  0.59512081  0.59928919  0.79998354  1
  Nb  Nb147  1  0.20136125  0.59753198  0.00067832  1
  Nb  Nb148  1  0.00251509  -0.00793625  0.40257778  1
  Nb  Nb149  1  0.80864734  0.79440159  0.00503483  1
  Pd  Pd150  1  0.20523243  0.59200889  0.40902067  1
  Pd  Pd151  1  0.19726795  0.19019531  0.79838299  1
  Pd  Pd152  1  0.19604677  0.80788573  0.79164732  1
  Pd  Pd153  1  0.20884293  0.20383029  0.00171125  1
  Pd  Pd154  1  0.20678549  0.79068774  0.00226238  1
  Pd  Pd155  1  0.20104486  0.80106089  0.40319028  1
  Pd  Pd156  1  0.60673526  0.39808183  0.59447989  1
  Pd  Pd157  1  0.80811883  -0.00311244  0.60971766  1
  Pd  Pd158  1  0.60961028  0.19156436  0.20152713  1
  Pd  Pd159  1  0.20928463  -0.00485884  0.19753975  1
  Pd  Pd160  1  0.19765172  -0.00230427  0.39840566  1
  Pd  Pd161  1  0.80778638  0.60431204  0.20784602  1
  Pd  Pd162  1  0.20368351  0.59444857  0.80028421  1
  Pd  Pd163  1  0.60064578  0.19787807  -0.00843415  1
  Pd  Pd164  1  0.40584368  0.00445310  0.00422479  1
  Pd  Pd165  1  0.39217226  0.01082316  0.60362848  1
  Pd  Pd166  1  0.39893266  -0.00565417  0.39573736  1
  Pd  Pd167  1  0.40166032  0.20417261  0.80196982  1
  Pd  Pd168  1  0.79728087  0.20725146  0.00279753  1
  Pd  Pd169  1  -0.00842801  0.20866273  0.00052427  1
  Pd  Pd170  1  0.78900141  -0.01471026  0.00517161  1
  Pd  Pd171  1  0.80716272  0.39819356  0.20539309  1
  Pd  Pd172  1  0.20349858  0.39714031  0.20648805  1
  Pd  Pd173  1  0.40186990  0.60313201  0.19531338  1
  Pd  Pd174  1  0.61124236  0.79769283  -0.00767766  1
  Pd  Pd175  1  0.40489168  0.79516751  0.59994737  1
  Pd  Pd176  1  0.39916865  0.39946141  0.38868765  1
  Pd  Pd177  1  0.80767293  0.19413310  0.60919223  1
  Pd  Pd178  1  0.60311769  -0.00465827  0.80527774  1
  Pd  Pd179  1  0.40174451  0.19728706  0.19541607  1
  Pd  Pd180  1  0.60006864  -0.00007009  0.59999378  1
  Pd  Pd181  1  0.19848244  0.41046794  0.79238266  1
  Pd  Pd182  1  0.00934684  0.79569221  0.60978934  1
  Pd  Pd183  1  0.60346836  0.39998540  0.00028447  1
  Pd  Pd184  1  0.19470929  0.59207384  0.58933195  1
  Pd  Pd185  1  0.80578934  0.79528480  0.41214083  1
  Pd  Pd186  1  0.40408099  -0.00595542  0.79624643  1
  Pd  Pd187  1  0.80266390  0.19763049  0.79205685  1
  Pd  Pd188  1  0.78886941  0.60590694  0.00327637  1
  Pd  Pd189  1  -0.01195029  0.18916607  0.59907012  1
  Pd  Pd190  1  0.79975266  0.80015753  0.59476875  1
  Pd  Pd191  1  0.39674087  0.38610387  -0.00713230  1
  Pd  Pd192  1  0.20460472  0.19788774  0.59771179  1
  Pd  Pd193  1  0.60893079  0.60015704  -0.00209184  1
  Pd  Pd194  1  0.20805067  0.00502605  0.60110005  1
  Pd  Pd195  1  0.40164750  0.40280483  0.20872192  1
  Pd  Pd196  1  -0.00595655  0.38937917  0.19481754  1
  Pd  Pd197  1  0.00521795  0.18983446  0.39467275  1
  Pd  Pd198  1  -0.00334169  0.60025089  0.79095418  1
  Pd  Pd199  1  0.79762053  -0.00372182  0.79045255  1
  Rh  Rh200  1  0.00910163  0.59521010  0.00803330  1
  Rh  Rh201  1  0.59457651  0.79468644  0.80845141  1
  Rh  Rh202  1  0.82088512  0.79649585  0.81215869  1
  Rh  Rh203  1  0.58655502  0.41137800  0.19945472  1
  Rh  Rh204  1  0.39130529  0.39239959  0.60739330  1
  Rh  Rh205  1  0.60927891  0.19549155  0.80300776  1
  Rh  Rh206  1  -0.00672479  0.61008374  0.39598980  1
  Rh  Rh207  1  0.59284292  0.79631743  0.59616727  1
  Rh  Rh208  1  0.58508629  0.59487419  0.18465928  1
  Rh  Rh209  1  0.59518594  0.79524730  0.19829319  1
  Rh  Rh210  1  0.80802616  0.79967486  0.19459860  1
  Rh  Rh211  1  0.40336221  0.59454129  0.79503394  1
  Rh  Rh212  1  0.00714016  0.61192123  0.60687688  1
  Rh  Rh213  1  0.00936828  -0.01458805  0.80534239  1
  Rh  Rh214  1  0.19586967  0.80181040  0.60346866  1
  Rh  Rh215  1  0.40381741  0.21050305  0.40610936  1
  Rh  Rh216  1  0.19088576  0.79922621  0.19653112  1
  Rh  Rh217  1  0.59548872  0.40876240  0.80376369  1
  Rh  Rh218  1  0.19419341  -0.00208688  0.79738373  1
  Rh  Rh219  1  0.79328166  0.60024020  0.79844636  1
  Rh  Rh220  1  0.79549234  0.39057016  0.59412682  1
  Rh  Rh221  1  0.78775600  0.61400768  0.59674708  1
  Rh  Rh222  1  0.39021128  0.79531802  -0.00803835  1
  Rh  Rh223  1  0.59839306  0.80594297  0.40725997  1
  Rh  Rh224  1  -0.00293204  -0.00125407  0.20762219  1
  Rh  Rh225  1  0.38869143  0.61029246  0.00371912  1
  Rh  Rh226  1  0.19924995  0.00143382  -0.00027507  1
  Rh  Rh227  1  -0.00678252  0.20710693  0.80119529  1
  Rh  Rh228  1  -0.00908253  0.00231552  0.59268363  1
  Rh  Rh229  1  0.20383679  0.60561367  0.19539412  1
  Rh  Rh230  1  0.38922746  0.80316128  0.40592456  1
  Rh  Rh231  1  0.80222915  0.21474328  0.39652925  1
  Rh  Rh232  1  0.00978674  0.39758615  0.60253041  1
  Rh  Rh233  1  0.79361135  0.40084600  -0.00102720  1
  Rh  Rh234  1  0.79974869  -0.01389596  0.40140225  1
  Rh  Rh235  1  0.19135738  0.20406682  0.20069032  1
  Rh  Rh236  1  0.00619186  -0.00431334  -0.01016670  1
  Rh  Rh237  1  0.60532385  0.59663834  0.40788531  1
  Rh  Rh238  1  0.00399964  0.39872925  0.40631918  1
  Rh  Rh239  1  0.40819952  0.61247284  0.59901009  1
  Rh  Rh240  1  -0.00001568  0.80375777  0.39590068  1
  Rh  Rh241  1  -0.00387172  0.61311090  0.20559998  1
  Rh  Rh242  1  0.39805871  0.80527714  0.79957292  1
  Rh  Rh243  1  0.39532611  0.60622220  0.39791480  1
  Rh  Rh244  1  0.19440196  0.20585463  0.39898345  1
  Rh  Rh245  1  0.59218033  0.20186993  0.60122895  1
  Rh  Rh246  1  0.59377613  0.21021775  0.40768670  1
  Rh  Rh247  1  -0.00360585  0.80119971  -0.00394178  1
  Rh  Rh248  1  0.80542740  0.40039637  0.79657944  1
  Rh  Rh249  1  0.40159623  0.80261688  0.19938728  1
