# generated using pymatgen
data_ZrScNbPdRh
_symmetry_space_group_name_H-M   'P 1'
_cell_length_a   16.55476673
_cell_length_b   16.55745819
_cell_length_c   16.55730694
_cell_angle_alpha   90.02127748
_cell_angle_beta   89.98310157
_cell_angle_gamma   89.99130734
_symmetry_Int_Tables_number   1
_chemical_formula_structural   ZrScNbPdRh
_chemical_formula_sum   'Zr50 Sc50 Nb50 Pd50 Rh50'
_cell_volume   4538.43770342
_cell_formula_units_Z   50
loop_
 _symmetry_equiv_pos_site_id
 _symmetry_equiv_pos_as_xyz
  1  'x, y, z'
loop_
 _atom_site_type_symbol
 _atom_site_label
 _atom_site_symmetry_multiplicity
 _atom_site_fract_x
 _atom_site_fract_y
 _atom_site_fract_z
 _atom_site_occupancy
  Zr  Zr0  1  0.29706618  0.30328515  0.49450775  1
  Zr  Zr1  1  0.50857471  0.28990817  0.70880019  1
  Zr  Zr2  1  0.30434049  0.89824155  0.29057118  1
  Zr  Zr3  1  0.89265926  0.89943458  0.69666037  1
  Zr  Zr4  1  0.29142772  0.49891751  0.49892644  1
  Zr  Zr5  1  0.29579640  0.09348956  0.69936572  1
  Zr  Zr6  1  0.30373779  0.49683238  0.89763483  1
  Zr  Zr7  1  0.30407454  0.30558160  0.90098302  1
  Zr  Zr8  1  0.30383535  0.49376984  0.30939015  1
  Zr  Zr9  1  0.09936667  0.89155314  0.30464375  1
  Zr  Zr10  1  0.51068993  0.90691496  0.29873964  1
  Zr  Zr11  1  0.50208307  0.69010792  0.30296870  1
  Zr  Zr12  1  0.10353345  0.10108608  0.70151363  1
  Zr  Zr13  1  0.50341267  0.48944533  0.90085013  1
  Zr  Zr14  1  0.89775519  0.10793517  0.09539014  1
  Zr  Zr15  1  0.90163975  0.30317997  0.90343619  1
  Zr  Zr16  1  0.09932837  0.29744522  0.69839230  1
  Zr  Zr17  1  0.89284811  0.89586968  0.10180361  1
  Zr  Zr18  1  0.70216396  0.70315681  0.09938073  1
  Zr  Zr19  1  0.49897767  0.49894917  0.29852973  1
  Zr  Zr20  1  0.89599936  0.09740197  0.29870613  1
  Zr  Zr21  1  0.10027484  0.09335941  0.89786485  1
  Zr  Zr22  1  0.30740228  0.29753497  0.29716323  1
  Zr  Zr23  1  0.90299963  0.50208922  0.69681358  1
  Zr  Zr24  1  0.10289791  0.30655964  0.90374606  1
  Zr  Zr25  1  0.89703493  0.08532626  0.49639859  1
  Zr  Zr26  1  0.70396751  0.90359352  0.50035732  1
  Zr  Zr27  1  0.09590253  0.09770391  0.30168792  1
  Zr  Zr28  1  0.09713142  0.69581003  0.49768816  1
  Zr  Zr29  1  0.09966697  0.50058816  0.09987367  1
  Zr  Zr30  1  0.90335321  0.70065061  0.30190309  1
  Zr  Zr31  1  0.70016883  0.89277543  0.90147580  1
  Zr  Zr32  1  0.29735764  0.89590346  0.50445995  1
  Zr  Zr33  1  0.69937848  0.29697152  0.29742235  1
  Zr  Zr34  1  0.89695330  0.90301895  0.90013832  1
  Zr  Zr35  1  0.70220746  0.29897082  0.50351909  1
  Zr  Zr36  1  0.89947017  0.09851735  0.70269581  1
  Zr  Zr37  1  0.10588194  0.90251012  0.09898394  1
  Zr  Zr38  1  0.69365876  0.10560596  0.69487287  1
  Zr  Zr39  1  0.09438754  0.30476752  0.09507136  1
  Zr  Zr40  1  0.49292946  0.51218909  0.70307865  1
  Zr  Zr41  1  0.49644874  0.49854074  0.10005834  1
  Zr  Zr42  1  0.69347026  0.09529587  0.90922438  1
  Zr  Zr43  1  0.69805682  0.89949445  0.09853762  1
  Zr  Zr44  1  0.10523241  0.10130568  0.50899123  1
  Zr  Zr45  1  0.90200910  0.90097482  0.30723515  1
  Zr  Zr46  1  0.90554777  0.50035195  0.89495916  1
  Zr  Zr47  1  0.30450399  0.10390539  0.09803759  1
  Zr  Zr48  1  0.90519695  0.50711437  0.50049590  1
  Zr  Zr49  1  0.68748656  0.31163753  0.88779512  1
  Sc  Sc50  1  0.30301953  0.29615782  0.10024254  1
  Sc  Sc51  1  0.10070818  0.70039313  0.30181925  1
  Sc  Sc52  1  0.70271407  0.89509880  0.69913191  1
  Sc  Sc53  1  0.10236593  0.31041331  0.29080567  1
  Sc  Sc54  1  0.89766549  0.30983961  0.29281895  1
  Sc  Sc55  1  0.69507108  0.10112170  0.50061180  1
  Sc  Sc56  1  0.89484209  0.89141972  0.49733086  1
  Sc  Sc57  1  0.50606668  0.90406224  0.10878243  1
  Sc  Sc58  1  0.89864629  0.30808163  0.69819903  1
  Sc  Sc59  1  0.10134660  0.11022645  0.09010318  1
  Sc  Sc60  1  0.90051558  0.31554591  0.50251125  1
  Sc  Sc61  1  0.49742933  0.29772333  0.90364411  1
  Sc  Sc62  1  0.69995830  0.30021393  0.69564872  1
  Sc  Sc63  1  0.71027640  0.50219682  0.50008561  1
  Sc  Sc64  1  0.29855001  0.10380442  0.89930425  1
  Sc  Sc65  1  0.70123910  0.10129273  0.10087561  1
  Sc  Sc66  1  0.49783654  0.69900653  0.50925964  1
  Sc  Sc67  1  0.30139101  0.51062621  0.09454945  1
  Sc  Sc68  1  0.09872959  0.89413216  0.49802046  1
  Sc  Sc69  1  0.30566421  0.10433683  0.51106639  1
  Sc  Sc70  1  0.90115059  0.30100962  0.09973595  1
  Sc  Sc71  1  0.09351587  0.70325218  0.70244246  1
  Sc  Sc72  1  0.68892080  0.70540088  0.70068186  1
  Sc  Sc73  1  0.70108447  0.48875269  0.70124009  1
  Sc  Sc74  1  0.49860853  0.29718691  0.29452970  1
  Sc  Sc75  1  0.89777737  0.70445337  0.89829380  1
  Sc  Sc76  1  0.29994584  0.29764764  0.70686243  1
  Sc  Sc77  1  0.30231970  0.70384791  0.70057353  1
  Sc  Sc78  1  0.11188342  0.89851932  0.70811485  1
  Sc  Sc79  1  0.49466426  0.51925486  0.48991141  1
  Sc  Sc80  1  0.10110753  0.30789084  0.50570991  1
  Sc  Sc81  1  0.70311092  0.50332658  0.30314131  1
  Sc  Sc82  1  0.69885085  0.29854810  0.10313912  1
  Sc  Sc83  1  0.90267038  0.50102959  0.30144616  1
  Sc  Sc84  1  0.70270994  0.69618051  0.50104227  1
  Sc  Sc85  1  0.29714018  0.49474171  0.70467189  1
  Sc  Sc86  1  0.50084343  0.69208258  0.88120767  1
  Sc  Sc87  1  0.09766418  0.50382003  0.29925631  1
  Sc  Sc88  1  0.30314962  0.89664436  0.70521485  1
  Sc  Sc89  1  0.70449365  0.90608255  0.29342752  1
  Sc  Sc90  1  0.90319073  0.69904691  0.69623321  1
  Sc  Sc91  1  0.69554433  0.50903940  0.09227419  1
  Sc  Sc92  1  0.90082448  0.09710244  0.90363190  1
  Sc  Sc93  1  0.30123523  0.69282204  0.90185247  1
  Sc  Sc94  1  0.49636662  0.30321355  0.09811227  1
  Sc  Sc95  1  0.11095831  0.69258650  0.11046503  1
  Sc  Sc96  1  0.49598551  0.27803643  0.49038641  1
  Sc  Sc97  1  0.89407350  0.69845611  0.10248269  1
  Sc  Sc98  1  0.89920643  0.50476044  0.10386699  1
  Sc  Sc99  1  0.29533491  0.69751629  0.49852283  1
  Nb  Nb100  1  0.49885450  0.89865668  0.49777737  1
  Nb  Nb101  1  0.30470437  0.70719554  0.10339008  1
  Nb  Nb102  1  0.50197528  0.09494010  0.90159377  1
  Nb  Nb103  1  0.30100169  0.10092248  0.29810502  1
  Nb  Nb104  1  0.50317041  0.09875532  0.08203991  1
  Nb  Nb105  1  0.10217412  0.50055395  0.50408433  1
  Nb  Nb106  1  0.10244557  0.50193847  0.90314930  1
  Nb  Nb107  1  0.30511272  0.89872879  0.10010130  1
  Nb  Nb108  1  0.49694717  0.88445646  0.70360232  1
  Nb  Nb109  1  0.50579298  0.10519617  0.31513773  1
  Nb  Nb110  1  0.50169067  0.69878673  0.10425903  1
  Nb  Nb111  1  0.10082943  0.70220059  0.89809943  1
  Nb  Nb112  1  0.09659606  0.50295797  0.70284307  1
  Nb  Nb113  1  0.29862265  0.89465220  0.90050876  1
  Nb  Nb114  1  0.69514443  0.70442676  0.29696086  1
  Nb  Nb115  1  0.29876738  0.70737387  0.29449161  1
  Nb  Nb116  1  0.10742220  0.89494573  0.90121846  1
  Nb  Nb117  1  0.49528641  0.09422282  0.70059373  1
  Nb  Nb118  1  0.70111732  0.69317764  0.90710524  1
  Nb  Nb119  1  0.69666237  0.10531559  0.30318807  1
  Nb  Nb120  1  0.50206903  0.09336943  0.49952131  1
  Nb  Nb121  1  0.90034578  0.69572705  0.50349811  1
  Nb  Nb122  1  0.69932451  0.50206418  0.90105191  1
  Nb  Nb123  1  0.49512630  0.70862071  0.69894005  1
  Nb  Nb124  1  0.49619960  0.89260014  0.89547943  1
  Nb  Nb125  1  0.80382974  0.19968549  0.39820733  1
  Nb  Nb126  1  0.00032491  -0.00152938  0.60374325  1
  Nb  Nb127  1  0.79630696  0.20066288  0.80329609  1
  Nb  Nb128  1  0.59928591  0.39920593  0.40470730  1
  Nb  Nb129  1  0.40844620  0.39879375  0.59733494  1
  Nb  Nb130  1  0.40252228  -0.00802056  -0.00357438  1
  Nb  Nb131  1  0.20844243  0.00333022  0.39645865  1
  Nb  Nb132  1  0.59813375  0.80023346  0.39864174  1
  Nb  Nb133  1  0.00931251  0.79908837  -0.00229773  1
  Nb  Nb134  1  0.79553191  0.40617375  -0.00799251  1
  Nb  Nb135  1  0.58612384  0.40051275  0.59147807  1
  Nb  Nb136  1  0.40379764  0.80342451  0.39682460  1
  Nb  Nb137  1  0.00228515  -0.00077878  0.19775704  1
  Nb  Nb138  1  0.00780651  0.60501641  -0.00542320  1
  Nb  Nb139  1  0.40223079  0.00192354  0.39931881  1
  Nb  Nb140  1  0.58779349  -0.00521921  0.79688858  1
  Nb  Nb141  1  0.20504696  0.79941297  0.00137409  1
  Nb  Nb142  1  0.59271804  0.79314296  -0.00243702  1
  Nb  Nb143  1  0.20225585  0.00187165  0.20020576  1
  Nb  Nb144  1  -0.00094049  0.20141040  0.40115803  1
  Nb  Nb145  1  0.58583219  -0.00454440  0.60466659  1
  Nb  Nb146  1  0.19061125  0.59671254  0.80548859  1
  Nb  Nb147  1  0.40271619  0.79947428  0.00368545  1
  Nb  Nb148  1  0.19893888  0.19803400  0.39632142  1
  Nb  Nb149  1  0.79421931  0.59796820  0.80621484  1
  Pd  Pd150  1  0.20080251  0.20162366  0.80488262  1
  Pd  Pd151  1  0.39980119  0.20517959  0.60483607  1
  Pd  Pd152  1  0.60061157  0.21018759  0.00098486  1
  Pd  Pd153  1  0.59095815  0.19344238  0.19346401  1
  Pd  Pd154  1  -0.00236212  0.80559749  0.80240348  1
  Pd  Pd155  1  0.41289859  0.79798418  0.20202600  1
  Pd  Pd156  1  0.60083298  0.01576464  0.19857722  1
  Pd  Pd157  1  0.79503754  0.40635932  0.18976550  1
  Pd  Pd158  1  0.20767731  0.40544734  0.19508919  1
  Pd  Pd159  1  0.60530868  0.59527522  0.19945564  1
  Pd  Pd160  1  0.00450210  -0.01004190  0.79484580  1
  Pd  Pd161  1  0.80128274  0.00393969  0.19709000  1
  Pd  Pd162  1  0.00591834  0.39828011  0.39867556  1
  Pd  Pd163  1  0.79324771  0.79416791  0.39809940  1
  Pd  Pd164  1  0.41386913  0.39765426  0.40898140  1
  Pd  Pd165  1  -0.00335849  -0.00436374  0.00505315  1
  Pd  Pd166  1  -0.00618635  0.20233038  0.80502520  1
  Pd  Pd167  1  0.40146060  -0.00890405  0.59975512  1
  Pd  Pd168  1  0.19932490  0.60193486  0.39321122  1
  Pd  Pd169  1  0.38795274  0.59874943  0.60205586  1
  Pd  Pd170  1  0.20871334  0.40074152  0.00796737  1
  Pd  Pd171  1  0.60463994  0.40483643  0.20300055  1
  Pd  Pd172  1  0.19614122  0.19839263  0.20141291  1
  Pd  Pd173  1  0.00142705  0.79796550  0.19212222  1
  Pd  Pd174  1  0.78751912  0.00728285  0.79953935  1
  Pd  Pd175  1  0.60098137  0.80289446  0.59263477  1
  Pd  Pd176  1  0.20486610  0.39751471  0.60810469  1
  Pd  Pd177  1  0.39940045  0.19662199  0.80416498  1
  Pd  Pd178  1  0.40871659  0.60684689  -0.00461370  1
  Pd  Pd179  1  -0.00164461  0.20057218  0.20471669  1
  Pd  Pd180  1  0.58864860  0.60538492  -0.00300431  1
  Pd  Pd181  1  0.80053887  0.60477511  0.39562729  1
  Pd  Pd182  1  0.20909927  0.59614482  0.20846685  1
  Pd  Pd183  1  0.60570102  0.59359295  0.60195439  1
  Pd  Pd184  1  0.00528835  0.39741417  0.79557879  1
  Pd  Pd185  1  0.19742594  0.79491948  0.60475254  1
  Pd  Pd186  1  -0.01002236  0.19834809  0.59202770  1
  Pd  Pd187  1  0.79208558  0.60436357  0.61357520  1
  Pd  Pd188  1  0.20973622  -0.00075344  0.00112622  1
  Pd  Pd189  1  0.39292147  0.59673288  0.20401057  1
  Pd  Pd190  1  0.60740517  0.59705875  0.79231320  1
  Pd  Pd191  1  0.79721587  0.59977324  0.20515383  1
  Pd  Pd192  1  0.39791590  -0.00258948  0.80585586  1
  Pd  Pd193  1  0.41382775  0.19199816  0.19711987  1
  Pd  Pd194  1  0.79073836  0.21107689  -0.00723876  1
  Pd  Pd195  1  0.40616757  0.01196652  0.19861367  1
  Pd  Pd196  1  0.79840348  0.78837176  0.79572212  1
  Pd  Pd197  1  0.00054336  0.80701471  0.59838786  1
  Pd  Pd198  1  0.19744347  0.60464543  0.61213156  1
  Pd  Pd199  1  0.81062751  0.20270420  0.59861754  1
  Rh  Rh200  1  0.81262938  0.59589548  -0.00812036  1
  Rh  Rh201  1  0.59198283  0.40818115  0.78917988  1
  Rh  Rh202  1  0.19756137  0.80242248  0.19639787  1
  Rh  Rh203  1  0.80052673  0.20020952  0.20498226  1
  Rh  Rh204  1  0.38750881  0.61196084  0.39626562  1
  Rh  Rh205  1  0.00232530  0.59937528  0.40213097  1
  Rh  Rh206  1  0.79850767  0.79851004  0.20827265  1
  Rh  Rh207  1  0.39158971  0.19032440  0.39869805  1
  Rh  Rh208  1  0.79685687  0.40412186  0.59926352  1
  Rh  Rh209  1  0.20027909  0.20613398  -0.00486861  1
  Rh  Rh210  1  0.60820760  0.60231157  0.40227955  1
  Rh  Rh211  1  0.20909513  0.80057885  0.39783109  1
  Rh  Rh212  1  -0.00585833  0.79061335  0.40788522  1
  Rh  Rh213  1  0.19588863  0.60815472  -0.00385948  1
  Rh  Rh214  1  0.60281530  -0.00384023  0.40579241  1
  Rh  Rh215  1  0.60478976  0.39902996  0.00641376  1
  Rh  Rh216  1  -0.00280562  0.40536368  0.19699871  1
  Rh  Rh217  1  0.78634312  0.00658160  0.39707835  1
  Rh  Rh218  1  0.80125631  0.39948070  0.80377180  1
  Rh  Rh219  1  0.79205302  0.39358570  0.39812019  1
  Rh  Rh220  1  -0.00871427  0.41088890  0.00624026  1
  Rh  Rh221  1  0.39802023  0.79824111  0.59580179  1
  Rh  Rh222  1  0.19195062  0.39538409  0.39727359  1
  Rh  Rh223  1  0.59222138  -0.01434355  -0.00546709  1
  Rh  Rh224  1  0.01148963  0.00073991  0.40750476  1
  Rh  Rh225  1  0.00504712  0.40808705  0.60178558  1
  Rh  Rh226  1  0.39261563  0.79268679  0.80409823  1
  Rh  Rh227  1  -0.00008604  0.60188317  0.80274861  1
  Rh  Rh228  1  0.79982033  0.79091366  0.59959463  1
  Rh  Rh229  1  0.38876804  0.60359653  0.79557070  1
  Rh  Rh230  1  0.80175020  0.00012558  0.00344062  1
  Rh  Rh231  1  0.40243801  0.19526751  -0.00463978  1
  Rh  Rh232  1  0.39683556  0.39965344  0.00487388  1
  Rh  Rh233  1  0.39501770  0.40356528  0.19516316  1
  Rh  Rh234  1  0.19550635  -0.00752153  0.59863391  1
  Rh  Rh235  1  0.00377737  0.20019382  -0.00664724  1
  Rh  Rh236  1  -0.00053772  0.60238588  0.19573072  1
  Rh  Rh237  1  0.20520712  -0.00198986  0.80363790  1
  Rh  Rh238  1  0.40729338  0.39650086  0.79277038  1
  Rh  Rh239  1  0.20858135  0.20841394  0.59878484  1
  Rh  Rh240  1  0.20692067  0.79100510  0.80532086  1
  Rh  Rh241  1  0.60887418  0.20528371  0.40117047  1
  Rh  Rh242  1  0.00590166  0.59942705  0.59748675  1
  Rh  Rh243  1  0.79857900  -0.00196661  0.60188863  1
  Rh  Rh244  1  0.60256397  0.18767584  0.80536734  1
  Rh  Rh245  1  0.59025859  0.19670781  0.59703479  1
  Rh  Rh246  1  0.60218952  0.79691154  0.20023985  1
  Rh  Rh247  1  0.19266705  0.40543678  0.79698791  1
  Rh  Rh248  1  0.60226723  0.79938086  0.80613666  1
  Rh  Rh249  1  0.79956087  0.79796093  -0.00097742  1
