# generated using pymatgen
data_ZrScNbPdRh
_symmetry_space_group_name_H-M   'P 1'
_cell_length_a   16.55542418
_cell_length_b   16.55950649
_cell_length_c   16.55696273
_cell_angle_alpha   90.02194308
_cell_angle_beta   90.00205907
_cell_angle_gamma   90.02016941
_symmetry_Int_Tables_number   1
_chemical_formula_structural   ZrScNbPdRh
_chemical_formula_sum   'Zr50 Sc50 Nb50 Pd50 Rh50'
_cell_volume   4539.08498932
_cell_formula_units_Z   50
loop_
 _symmetry_equiv_pos_site_id
 _symmetry_equiv_pos_as_xyz
  1  'x, y, z'
loop_
 _atom_site_type_symbol
 _atom_site_label
 _atom_site_symmetry_multiplicity
 _atom_site_fract_x
 _atom_site_fract_y
 _atom_site_fract_z
 _atom_site_occupancy
  Zr  Zr0  1  0.89169638  0.29359723  0.70063662  1
  Zr  Zr1  1  0.70388942  0.89832324  0.88916539  1
  Zr  Zr2  1  0.29959173  0.31193076  0.69869572  1
  Zr  Zr3  1  0.09454126  0.90139135  0.90301369  1
  Zr  Zr4  1  0.28241291  0.09284216  0.49848317  1
  Zr  Zr5  1  0.29701873  0.49206866  0.30984314  1
  Zr  Zr6  1  0.89183406  0.08846796  0.29398310  1
  Zr  Zr7  1  0.70159829  0.10977332  0.69528220  1
  Zr  Zr8  1  0.30895760  0.49558250  0.88856023  1
  Zr  Zr9  1  0.49855258  0.09817218  0.09433996  1
  Zr  Zr10  1  0.49603991  0.29544148  0.30849149  1
  Zr  Zr11  1  0.70905528  0.70872049  0.29667103  1
  Zr  Zr12  1  0.90157063  0.10843926  0.50572234  1
  Zr  Zr13  1  0.30090709  0.49500255  0.10501198  1
  Zr  Zr14  1  0.11065314  0.90680283  0.50467612  1
  Zr  Zr15  1  0.10168670  0.70958244  0.50320808  1
  Zr  Zr16  1  0.51047748  0.10197433  0.30163732  1
  Zr  Zr17  1  0.70833976  0.30014097  0.89242596  1
  Zr  Zr18  1  0.10053509  0.69832457  0.30710749  1
  Zr  Zr19  1  0.30264839  0.29963864  0.89916298  1
  Zr  Zr20  1  0.11176858  0.50141865  0.69507369  1
  Zr  Zr21  1  0.09599377  0.09730750  0.09874308  1
  Zr  Zr22  1  0.49632468  0.89701284  0.70262260  1
  Zr  Zr23  1  0.69447071  0.08666548  0.49508218  1
  Zr  Zr24  1  0.31237136  0.69980894  0.69828105  1
  Zr  Zr25  1  0.90136407  0.49706468  0.09787430  1
  Zr  Zr26  1  0.08668665  0.69698261  0.70225893  1
  Zr  Zr27  1  0.70302481  0.89763874  0.09965451  1
  Zr  Zr28  1  0.49714824  0.69925488  0.10814026  1
  Zr  Zr29  1  0.49421221  0.50251394  0.49233559  1
  Zr  Zr30  1  0.30226016  0.29632013  0.10720772  1
  Zr  Zr31  1  0.90154082  0.49928556  0.90793566  1
  Zr  Zr32  1  0.09757199  0.69603258  0.90321877  1
  Zr  Zr33  1  0.70600277  0.09782783  0.90127259  1
  Zr  Zr34  1  0.30114722  0.50125529  0.50776563  1
  Zr  Zr35  1  0.88707900  0.88960704  0.70298769  1
  Zr  Zr36  1  0.69588130  0.50275740  0.90875338  1
  Zr  Zr37  1  0.29742915  0.10063947  0.70159336  1
  Zr  Zr38  1  0.69614797  0.69828902  0.50311721  1
  Zr  Zr39  1  0.10351827  0.90283243  0.10705000  1
  Zr  Zr40  1  0.10748186  0.50683691  0.49623065  1
  Zr  Zr41  1  0.49766547  0.30280898  0.90217810  1
  Zr  Zr42  1  0.50635462  0.30393131  0.10755925  1
  Zr  Zr43  1  0.89564640  0.89655679  0.29593375  1
  Zr  Zr44  1  0.89180146  0.49670666  0.49488290  1
  Zr  Zr45  1  0.90196071  0.69799063  0.30115298  1
  Zr  Zr46  1  0.49653194  0.09271669  0.89929950  1
  Zr  Zr47  1  0.70140364  0.30178666  0.09460674  1
  Zr  Zr48  1  0.68804028  0.29611963  0.29034675  1
  Zr  Zr49  1  0.10082588  0.29715079  0.70005760  1
  Sc  Sc50  1  0.29434105  0.90382280  0.29427146  1
  Sc  Sc51  1  0.48486888  0.51331488  0.70952568  1
  Sc  Sc52  1  0.30101852  0.10108493  0.29753981  1
  Sc  Sc53  1  0.90353024  0.30365766  0.89941815  1
  Sc  Sc54  1  0.90158240  0.09837641  0.90324119  1
  Sc  Sc55  1  0.10051033  0.09916856  0.68744897  1
  Sc  Sc56  1  0.70838242  0.91445647  0.30625012  1
  Sc  Sc57  1  0.50394235  0.69998644  0.89492054  1
  Sc  Sc58  1  0.09313867  0.49576863  0.10035285  1
  Sc  Sc59  1  0.09910154  0.50845921  0.90225547  1
  Sc  Sc60  1  0.10191497  0.29948809  0.09928479  1
  Sc  Sc61  1  0.90379255  0.69590851  0.89839824  1
  Sc  Sc62  1  0.69894355  0.49887608  0.30682465  1
  Sc  Sc63  1  0.49679921  0.69432933  0.50552122  1
  Sc  Sc64  1  0.90117347  0.91982375  0.10484138  1
  Sc  Sc65  1  0.11415262  0.69640008  0.09325627  1
  Sc  Sc66  1  0.09462945  0.29573952  0.90150124  1
  Sc  Sc67  1  0.50494500  0.90855026  0.50341352  1
  Sc  Sc68  1  0.50480786  0.49802916  0.30079719  1
  Sc  Sc69  1  0.49363465  0.91069435  0.29536831  1
  Sc  Sc70  1  0.88994668  0.68834555  0.10547435  1
  Sc  Sc71  1  0.89725973  0.29437507  0.49818086  1
  Sc  Sc72  1  0.69332942  0.50987924  0.70088066  1
  Sc  Sc73  1  0.29566123  0.69616325  0.91260372  1
  Sc  Sc74  1  0.49342830  0.89597278  0.90060627  1
  Sc  Sc75  1  0.31015093  0.10085431  0.90655964  1
  Sc  Sc76  1  0.49568993  0.90007848  0.09550364  1
  Sc  Sc77  1  0.69798938  0.29859665  0.49480364  1
  Sc  Sc78  1  0.30760006  0.89374806  0.69913565  1
  Sc  Sc79  1  0.69932259  0.68942881  0.09667358  1
  Sc  Sc80  1  0.08658422  0.89987304  0.69858165  1
  Sc  Sc81  1  0.89570246  0.89713176  0.50367573  1
  Sc  Sc82  1  0.69432900  0.50610418  0.49678882  1
  Sc  Sc83  1  0.30218446  0.88459117  0.10570777  1
  Sc  Sc84  1  0.49675293  0.68768515  0.30463205  1
  Sc  Sc85  1  0.70343963  0.10248310  0.09980066  1
  Sc  Sc86  1  0.89768818  0.70222704  0.50465225  1
  Sc  Sc87  1  0.69470095  0.70150501  0.89697197  1
  Sc  Sc88  1  0.10881690  0.30142088  0.29379664  1
  Sc  Sc89  1  0.89911100  0.09501035  0.70329775  1
  Sc  Sc90  1  0.10341197  0.90350762  0.29751796  1
  Sc  Sc91  1  0.89716766  0.91313095  0.89237760  1
  Sc  Sc92  1  0.30033515  0.10438195  0.10011788  1
  Sc  Sc93  1  0.49886386  0.10828858  0.49483902  1
  Sc  Sc94  1  0.69551662  0.71182403  0.69978031  1
  Sc  Sc95  1  0.91017678  0.50222654  0.70165599  1
  Sc  Sc96  1  0.50164557  0.70480701  0.70331692  1
  Sc  Sc97  1  0.89974589  0.30204543  0.29783765  1
  Sc  Sc98  1  0.09140105  0.10192946  0.89824947  1
  Sc  Sc99  1  0.11111853  0.10105587  0.30019418  1
  Nb  Nb100  1  0.50019446  0.10143895  0.69569291  1
  Nb  Nb101  1  0.51757659  0.49920700  0.09169526  1
  Nb  Nb102  1  0.91277502  0.49865877  0.29405915  1
  Nb  Nb103  1  0.09075952  0.28356886  0.49696979  1
  Nb  Nb104  1  0.31117527  0.30529246  0.49294402  1
  Nb  Nb105  1  0.49024401  0.30228249  0.50443123  1
  Nb  Nb106  1  0.30392973  0.90274503  0.89682546  1
  Nb  Nb107  1  0.89686673  0.69980300  0.70148896  1
  Nb  Nb108  1  0.69450635  0.89805605  0.50817400  1
  Nb  Nb109  1  0.90640708  0.30373450  0.09852614  1
  Nb  Nb110  1  0.30367229  0.69411819  0.11155459  1
  Nb  Nb111  1  0.29745952  0.50056817  0.70208856  1
  Nb  Nb112  1  0.29920244  0.30469958  0.29398882  1
  Nb  Nb113  1  0.30293214  0.70911037  0.49823938  1
  Nb  Nb114  1  0.50301708  0.29140557  0.69468898  1
  Nb  Nb115  1  0.90265992  0.10319240  0.09908145  1
  Nb  Nb116  1  0.09613203  0.10354763  0.49689865  1
  Nb  Nb117  1  0.30094499  0.89734634  0.50388519  1
  Nb  Nb118  1  0.69998675  0.49707147  0.09443252  1
  Nb  Nb119  1  0.09771395  0.49884496  0.29946377  1
  Nb  Nb120  1  0.69281833  0.90316547  0.69144412  1
  Nb  Nb121  1  0.50233329  0.50010680  0.89978271  1
  Nb  Nb122  1  0.30583347  0.70286220  0.29349362  1
  Nb  Nb123  1  0.69730712  0.10243101  0.30318955  1
  Nb  Nb124  1  0.69825110  0.30027057  0.70068035  1
  Nb  Nb125  1  0.79479322  0.39859449  0.60458953  1
  Nb  Nb126  1  0.59940598  0.00245938  0.79162581  1
  Nb  Nb127  1  0.00256185  0.00561780  0.40517380  1
  Nb  Nb128  1  0.80264778  0.60285351  0.79810762  1
  Nb  Nb129  1  0.59537279  0.39757549  0.79427513  1
  Nb  Nb130  1  0.59459741  0.39511659  0.60545814  1
  Nb  Nb131  1  0.40654158  0.59226370  0.00550623  1
  Nb  Nb132  1  0.00477045  0.40184084  0.39976950  1
  Nb  Nb133  1  0.20656766  0.39959035  -0.00187876  1
  Nb  Nb134  1  0.59795354  0.80320381  0.39772674  1
  Nb  Nb135  1  -0.00075117  0.79747443  0.19598876  1
  Nb  Nb136  1  0.20369729  0.59713519  0.20815496  1
  Nb  Nb137  1  0.00199034  0.39555795  0.59223381  1
  Nb  Nb138  1  0.80652944  0.80263771  -0.00061131  1
  Nb  Nb139  1  0.19992105  0.80269206  0.80410949  1
  Nb  Nb140  1  0.60159769  0.80038028  0.20641133  1
  Nb  Nb141  1  0.79412055  0.19293584  0.39230363  1
  Nb  Nb142  1  0.39774146  0.80121579  0.40140019  1
  Nb  Nb143  1  0.20270327  -0.00537645  -0.00382641  1
  Nb  Nb144  1  0.80222916  0.40374834  0.19519156  1
  Nb  Nb145  1  0.39781145  0.00437905  0.60039783  1
  Nb  Nb146  1  -0.00566612  0.19654894  0.19597789  1
  Nb  Nb147  1  0.20252057  -0.00583417  0.80444928  1
  Nb  Nb148  1  0.40473007  0.20271906  0.79235211  1
  Nb  Nb149  1  -0.00625753  0.80276243  0.00814288  1
  Pd  Pd150  1  0.19300182  0.38755290  0.58609799  1
  Pd  Pd151  1  -0.00338791  0.80100918  0.80818412  1
  Pd  Pd152  1  0.20841112  0.20859679  0.39698348  1
  Pd  Pd153  1  0.01147391  0.60945339  0.19156405  1
  Pd  Pd154  1  0.60840920  0.60028219  0.20599181  1
  Pd  Pd155  1  0.40074839  0.58640792  0.20069596  1
  Pd  Pd156  1  0.60134088  -0.00736563  -0.00823048  1
  Pd  Pd157  1  0.80366152  0.20533884  0.20193000  1
  Pd  Pd158  1  0.19839506  0.19821803  -0.00284553  1
  Pd  Pd159  1  0.59934832  0.20118440  -0.00138896  1
  Pd  Pd160  1  0.79393204  0.80456818  0.40950788  1
  Pd  Pd161  1  0.00706300  0.40485094  0.79649446  1
  Pd  Pd162  1  0.80163961  0.59599900  0.60914694  1
  Pd  Pd163  1  0.39894932  0.79035949  -0.00181672  1
  Pd  Pd164  1  0.80152648  0.60043087  0.39461116  1
  Pd  Pd165  1  0.20596860  0.60915375  0.79863770  1
  Pd  Pd166  1  0.40795508  0.40856948  0.60777736  1
  Pd  Pd167  1  0.80261821  -0.00025264  0.60059125  1
  Pd  Pd168  1  0.38886276  0.19489976  0.59817895  1
  Pd  Pd169  1  -0.00669419  -0.00426746  0.59688080  1
  Pd  Pd170  1  -0.00610625  0.19698743  0.38398459  1
  Pd  Pd171  1  0.60479600  0.79599099  0.00581609  1
  Pd  Pd172  1  0.79444355  0.58705728  0.20617115  1
  Pd  Pd173  1  0.20596157  0.61354645  0.60125838  1
  Pd  Pd174  1  0.20572306  0.20925825  0.59435464  1
  Pd  Pd175  1  0.59537181  0.19788292  0.80500049  1
  Pd  Pd176  1  0.39288459  0.00069255  0.19351764  1
  Pd  Pd177  1  0.00117148  0.81139234  0.39897280  1
  Pd  Pd178  1  0.20009603  0.80534867  -0.00225359  1
  Pd  Pd179  1  -0.00396416  0.59742153  0.40836693  1
  Pd  Pd180  1  -0.00446499  0.59579609  0.59222502  1
  Pd  Pd181  1  0.41138823  0.40599618  0.20417805  1
  Pd  Pd182  1  0.80244607  0.39217521  0.39462788  1
  Pd  Pd183  1  0.60371461  0.20232381  0.58812815  1
  Pd  Pd184  1  0.20930518  0.60617038  0.39789514  1
  Pd  Pd185  1  0.20329590  0.19091965  0.80730495  1
  Pd  Pd186  1  0.81003165  0.20323889  -0.00385155  1
  Pd  Pd187  1  0.79366368  0.41368852  0.79192467  1
  Pd  Pd188  1  0.59661567  0.39557830  0.40833588  1
  Pd  Pd189  1  -0.00394166  0.19420801  0.79550077  1
  Pd  Pd190  1  0.40068124  0.40304890  0.00707738  1
  Pd  Pd191  1  0.19820392  0.79993046  0.61468080  1
  Pd  Pd192  1  0.19339517  0.38874670  0.40870252  1
  Pd  Pd193  1  0.60483299  -0.00400011  0.19865327  1
  Pd  Pd194  1  0.39737998  -0.00326118  0.40634050  1
  Pd  Pd195  1  0.39041077  0.19483296  0.39893370  1
  Pd  Pd196  1  0.20746414  0.80558670  0.39376389  1
  Pd  Pd197  1  0.58975951  0.59480636  0.60545762  1
  Pd  Pd198  1  0.40474273  0.19586859  0.20375629  1
  Pd  Pd199  1  0.18877343  0.40135595  0.81004071  1
  Rh  Rh200  1  0.39674800  0.60866210  0.80970115  1
  Rh  Rh201  1  0.60289485  0.39300862  -0.00785141  1
  Rh  Rh202  1  0.19608867  -0.00400958  0.39750178  1
  Rh  Rh203  1  -0.00355686  0.20266437  0.00540274  1
  Rh  Rh204  1  0.40876626  0.80683674  0.58875785  1
  Rh  Rh205  1  -0.00437391  0.80025848  0.59842979  1
  Rh  Rh206  1  0.40158809  0.39923245  0.39617249  1
  Rh  Rh207  1  0.41095524  0.80130974  0.21067035  1
  Rh  Rh208  1  0.80094842  0.79079619  0.80568928  1
  Rh  Rh209  1  0.39309747  0.79133258  0.81077800  1
  Rh  Rh210  1  0.60514307  0.59646604  0.80182432  1
  Rh  Rh211  1  0.59216794  0.00399731  0.60430742  1
  Rh  Rh212  1  0.59884807  0.81002963  0.79792559  1
  Rh  Rh213  1  0.60695474  0.40920805  0.19996220  1
  Rh  Rh214  1  0.00119655  -0.00113559  -0.00074646  1
  Rh  Rh215  1  0.79977853  0.60686533  -0.00986479  1
  Rh  Rh216  1  -0.00126867  0.39061096  0.20637662  1
  Rh  Rh217  1  0.19566334  0.40457238  0.19408960  1
  Rh  Rh218  1  0.20668924  0.00475261  0.19070874  1
  Rh  Rh219  1  0.79134444  0.20553166  0.58977007  1
  Rh  Rh220  1  0.40085635  0.00770833  0.79122729  1
  Rh  Rh221  1  0.39709240  0.59944341  0.59860684  1
  Rh  Rh222  1  0.80085800  -0.00292629  0.00209936  1
  Rh  Rh223  1  0.80591537  0.19498328  0.80554843  1
  Rh  Rh224  1  0.39092127  0.60537527  0.40389932  1
  Rh  Rh225  1  0.80249925  0.80223475  0.18879603  1
  Rh  Rh226  1  0.79050715  0.00586141  0.79027577  1
  Rh  Rh227  1  0.21044543  0.58744790  0.00959355  1
  Rh  Rh228  1  0.00517065  0.00395970  0.21109264  1
  Rh  Rh229  1  0.41040244  0.39345360  0.78935379  1
  Rh  Rh230  1  0.59388770  0.60711137  -0.00223271  1
  Rh  Rh231  1  -0.00415520  0.59549984  0.80027757  1
  Rh  Rh232  1  0.38999429  -0.00718655  0.01015379  1
  Rh  Rh233  1  0.59653810  0.19153744  0.19186994  1
  Rh  Rh234  1  0.80274304  0.39584020  0.00448350  1
  Rh  Rh235  1  0.79564469  0.79782628  0.59994177  1
  Rh  Rh236  1  0.20647164  -0.00918024  0.61199247  1
  Rh  Rh237  1  0.59732317  -0.00688587  0.39747505  1
  Rh  Rh238  1  0.19304565  0.78821498  0.20526437  1
  Rh  Rh239  1  0.59473739  0.79822023  0.59305690  1
  Rh  Rh240  1  0.60238657  0.20470720  0.40659595  1
  Rh  Rh241  1  0.00948820  0.39784727  -0.00385939  1
  Rh  Rh242  1  0.60438542  0.60914453  0.39660338  1
  Rh  Rh243  1  0.40648856  0.20321622  0.00051132  1
  Rh  Rh244  1  -0.00038942  0.20265643  0.60943048  1
  Rh  Rh245  1  0.19661705  0.19983073  0.20061808  1
  Rh  Rh246  1  0.79031615  0.00550030  0.19284410  1
  Rh  Rh247  1  0.00536522  0.00497027  0.79484941  1
  Rh  Rh248  1  0.80717470  0.00296323  0.41119267  1
  Rh  Rh249  1  -0.00247598  0.60649288  0.00624727  1
