# generated using pymatgen
data_ZrScNbPdRh
_symmetry_space_group_name_H-M   'P 1'
_cell_length_a   16.55438207
_cell_length_b   16.55500151
_cell_length_c   16.55420753
_cell_angle_alpha   89.97618110
_cell_angle_beta   90.01513927
_cell_angle_gamma   89.99065805
_symmetry_Int_Tables_number   1
_chemical_formula_structural   ZrScNbPdRh
_chemical_formula_sum   'Zr50 Sc50 Nb50 Pd50 Rh50'
_cell_volume   4536.80941860
_cell_formula_units_Z   50
loop_
 _symmetry_equiv_pos_site_id
 _symmetry_equiv_pos_as_xyz
  1  'x, y, z'
loop_
 _atom_site_type_symbol
 _atom_site_label
 _atom_site_symmetry_multiplicity
 _atom_site_fract_x
 _atom_site_fract_y
 _atom_site_fract_z
 _atom_site_occupancy
  Zr  Zr0  1  0.90132835  0.50633211  0.50178436  1
  Zr  Zr1  1  0.29837804  0.10746825  0.50482380  1
  Zr  Zr2  1  0.49733621  0.70654533  0.69859554  1
  Zr  Zr3  1  0.49897108  0.09648643  0.29158369  1
  Zr  Zr4  1  0.29982035  0.89694998  0.09851730  1
  Zr  Zr5  1  0.49769138  0.50605413  0.89991544  1
  Zr  Zr6  1  0.09955466  0.10207499  0.09209581  1
  Zr  Zr7  1  0.69472167  0.30952970  0.69607153  1
  Zr  Zr8  1  0.10362180  0.30756158  0.69460038  1
  Zr  Zr9  1  0.49949393  0.69886352  0.50270730  1
  Zr  Zr10  1  0.69200645  0.09807406  0.90210970  1
  Zr  Zr11  1  0.89200845  0.69235992  0.09641981  1
  Zr  Zr12  1  0.29892065  0.30232247  0.89976104  1
  Zr  Zr13  1  0.91007793  0.50308941  0.90158049  1
  Zr  Zr14  1  0.89796682  0.90514511  0.30813862  1
  Zr  Zr15  1  0.89479799  0.28837755  0.50234741  1
  Zr  Zr16  1  0.69998597  0.29988710  0.89599104  1
  Zr  Zr17  1  0.10881922  0.49793585  0.50851184  1
  Zr  Zr18  1  0.10099268  0.89877000  0.89259029  1
  Zr  Zr19  1  0.90070774  0.89625755  0.49543942  1
  Zr  Zr20  1  0.90232298  0.10503424  0.09621882  1
  Zr  Zr21  1  0.89435198  0.09715723  0.49527481  1
  Zr  Zr22  1  0.30431531  0.70063253  0.50721301  1
  Zr  Zr23  1  0.90539006  0.10017719  0.90023936  1
  Zr  Zr24  1  0.50767735  0.50155647  0.30425199  1
  Zr  Zr25  1  0.69684424  0.30226148  0.29836599  1
  Zr  Zr26  1  0.09458785  0.09869271  0.90096720  1
  Zr  Zr27  1  0.89983856  0.29497229  0.90163947  1
  Zr  Zr28  1  0.90370524  0.89315845  0.69480763  1
  Zr  Zr29  1  0.69275065  0.68944064  0.28925280  1
  Zr  Zr30  1  0.70250214  0.29461756  0.10637284  1
  Zr  Zr31  1  0.10439323  0.69941948  0.70301278  1
  Zr  Zr32  1  0.30985339  0.90203811  0.29520272  1
  Zr  Zr33  1  0.09796950  0.10197295  0.50283325  1
  Zr  Zr34  1  0.48850331  0.50444862  0.09867298  1
  Zr  Zr35  1  0.49921718  0.69434661  0.89337292  1
  Zr  Zr36  1  0.90274076  0.09582191  0.70036467  1
  Zr  Zr37  1  0.69472437  0.49655734  0.88629208  1
  Zr  Zr38  1  0.11137003  0.09117256  0.70007980  1
  Zr  Zr39  1  0.49957578  0.88525352  0.50243099  1
  Zr  Zr40  1  0.10108529  0.68695114  0.89616256  1
  Zr  Zr41  1  0.29393351  0.50357049  0.09998639  1
  Zr  Zr42  1  0.70233138  0.89505008  0.49309194  1
  Zr  Zr43  1  0.09834496  0.10073412  0.30339957  1
  Zr  Zr44  1  0.30016890  0.10147090  0.09489578  1
  Zr  Zr45  1  0.89947555  0.70370280  0.50630569  1
  Zr  Zr46  1  0.69519813  0.89929644  0.70339245  1
  Zr  Zr47  1  0.10810977  0.30094072  0.49983915  1
  Zr  Zr48  1  0.69686974  0.89342884  0.09925303  1
  Zr  Zr49  1  0.30678871  0.50244067  0.90564976  1
  Sc  Sc50  1  0.10000449  0.29540887  0.90096973  1
  Sc  Sc51  1  0.28606518  0.89483894  0.70145681  1
  Sc  Sc52  1  0.50224605  0.50135676  0.70074548  1
  Sc  Sc53  1  0.49995234  0.69693818  0.30047258  1
  Sc  Sc54  1  0.90469024  0.49693545  0.09935549  1
  Sc  Sc55  1  0.50722817  0.89283412  0.29828405  1
  Sc  Sc56  1  0.50291164  0.90464729  0.11036748  1
  Sc  Sc57  1  0.89561902  0.69567355  0.90170938  1
  Sc  Sc58  1  0.90267195  0.49196582  0.70119565  1
  Sc  Sc59  1  0.30855969  0.50233732  0.29454382  1
  Sc  Sc60  1  0.69840118  0.89412809  0.89869993  1
  Sc  Sc61  1  0.88865526  0.89576443  0.09822258  1
  Sc  Sc62  1  0.69837278  0.69773040  0.69440695  1
  Sc  Sc63  1  0.09843847  0.30623717  0.10478063  1
  Sc  Sc64  1  0.30324611  0.50036553  0.50093039  1
  Sc  Sc65  1  0.48326352  0.30643017  0.90120916  1
  Sc  Sc66  1  0.30382552  0.69851623  0.70341734  1
  Sc  Sc67  1  0.50004900  0.30372412  0.30666557  1
  Sc  Sc68  1  0.70206535  0.70510712  0.09662073  1
  Sc  Sc69  1  0.50870989  0.69758680  0.09901310  1
  Sc  Sc70  1  0.09973559  0.89708602  0.50974417  1
  Sc  Sc71  1  0.11853236  0.69756819  0.09853397  1
  Sc  Sc72  1  0.90961263  0.69757184  0.31190875  1
  Sc  Sc73  1  0.90354009  0.49974768  0.29514035  1
  Sc  Sc74  1  0.10031068  0.30180802  0.29574072  1
  Sc  Sc75  1  0.69674213  0.10806152  0.70022038  1
  Sc  Sc76  1  0.29735030  0.69890567  0.29112878  1
  Sc  Sc77  1  0.89757612  0.29752012  0.28944167  1
  Sc  Sc78  1  0.49598745  0.10946175  0.69889881  1
  Sc  Sc79  1  0.30406143  0.10831980  0.30275041  1
  Sc  Sc80  1  0.90004650  0.90151140  0.89263497  1
  Sc  Sc81  1  0.10091595  0.69862581  0.49277652  1
  Sc  Sc82  1  0.69165465  0.70299756  0.90288718  1
  Sc  Sc83  1  0.89601081  0.10006669  0.30632162  1
  Sc  Sc84  1  0.30488832  0.50297372  0.68913264  1
  Sc  Sc85  1  0.70320409  0.10499609  0.29728424  1
  Sc  Sc86  1  0.10636848  0.69698219  0.30539510  1
  Sc  Sc87  1  0.89816649  0.70010194  0.69754034  1
  Sc  Sc88  1  0.10536931  0.90555398  0.08666701  1
  Sc  Sc89  1  0.09834302  0.89337034  0.31282472  1
  Sc  Sc90  1  0.50304323  0.29969341  0.10092620  1
  Sc  Sc91  1  0.29848507  0.30524269  0.30369581  1
  Sc  Sc92  1  0.89605137  0.29740359  0.70446131  1
  Sc  Sc93  1  0.10463168  0.50103348  0.30084261  1
  Sc  Sc94  1  0.29286034  0.11687228  0.89748103  1
  Sc  Sc95  1  0.70089415  0.90030317  0.29533878  1
  Sc  Sc96  1  0.51148993  0.89163245  0.88972533  1
  Sc  Sc97  1  0.68593209  0.10189564  0.10488970  1
  Sc  Sc98  1  0.69764360  0.70100829  0.50695681  1
  Sc  Sc99  1  0.70649513  0.51108550  0.11626892  1
  Nb  Nb100  1  0.30365914  0.70274734  0.89755702  1
  Nb  Nb101  1  0.49945853  0.10832377  0.49886165  1
  Nb  Nb102  1  0.30814198  0.30081865  0.70854208  1
  Nb  Nb103  1  0.10344365  0.50227066  0.70252617  1
  Nb  Nb104  1  0.10014549  0.50365493  0.89718845  1
  Nb  Nb105  1  0.49576182  0.10208795  0.90365699  1
  Nb  Nb106  1  0.30274991  0.90256751  0.50146926  1
  Nb  Nb107  1  0.30354036  0.69684395  0.09829132  1
  Nb  Nb108  1  0.49796334  0.49717988  0.50036479  1
  Nb  Nb109  1  0.69718890  0.11115492  0.50357885  1
  Nb  Nb110  1  0.70502399  0.49845944  0.69643357  1
  Nb  Nb111  1  0.30863782  0.30499689  0.50644610  1
  Nb  Nb112  1  0.69942215  0.49796450  0.30866453  1
  Nb  Nb113  1  0.69699828  0.29127779  0.50265574  1
  Nb  Nb114  1  0.89905924  0.30230379  0.09941559  1
  Nb  Nb115  1  0.49713654  0.09907597  0.09708032  1
  Nb  Nb116  1  0.30544442  0.89258013  0.89870140  1
  Nb  Nb117  1  0.48892306  0.30322756  0.69989880  1
  Nb  Nb118  1  0.09646925  0.89740370  0.70319983  1
  Nb  Nb119  1  0.30085901  0.30057074  0.09214568  1
  Nb  Nb120  1  0.29903038  0.09877625  0.70441451  1
  Nb  Nb121  1  0.69971824  0.49613602  0.50998568  1
  Nb  Nb122  1  0.09888379  0.50481279  0.09387665  1
  Nb  Nb123  1  0.49677652  0.90109988  0.69715353  1
  Nb  Nb124  1  0.49656023  0.29123965  0.50679169  1
  Nb  Nb125  1  0.39839301  0.80025883  -0.00262128  1
  Nb  Nb126  1  0.19723420  0.00146066  0.20594097  1
  Nb  Nb127  1  0.79551453  0.00408264  -0.00194484  1
  Nb  Nb128  1  0.39789136  0.00074041  0.79986722  1
  Nb  Nb129  1  0.40334309  -0.00227465  -0.00944646  1
  Nb  Nb130  1  0.79240965  0.00118195  0.59532594  1
  Nb  Nb131  1  0.39911141  -0.00046917  0.60208769  1
  Nb  Nb132  1  0.79529251  0.59230154  0.79513211  1
  Nb  Nb133  1  0.79750490  0.39761847  0.00125784  1
  Nb  Nb134  1  0.00667043  0.60390366  0.19304680  1
  Nb  Nb135  1  0.79369088  0.40111024  0.40584396  1
  Nb  Nb136  1  0.00707795  0.59703011  0.60383906  1
  Nb  Nb137  1  0.79194206  0.59105352  0.40363464  1
  Nb  Nb138  1  0.00283161  -0.00483409  0.19890534  1
  Nb  Nb139  1  0.00199492  0.79921605  0.19449307  1
  Nb  Nb140  1  0.39940691  0.20125896  0.19304191  1
  Nb  Nb141  1  0.59448218  0.00453398  0.59363028  1
  Nb  Nb142  1  0.60518018  0.40409781  0.00190744  1
  Nb  Nb143  1  0.40434790  0.00133863  0.40999888  1
  Nb  Nb144  1  0.58950794  0.20701472  0.80218933  1
  Nb  Nb145  1  0.19915705  0.40746248  0.79860213  1
  Nb  Nb146  1  0.20801198  -0.00070401  0.40361397  1
  Nb  Nb147  1  0.00132524  0.79462559  0.00353336  1
  Nb  Nb148  1  0.59667757  0.00643733  0.40953321  1
  Nb  Nb149  1  -0.00396320  0.39921121  0.40469817  1
  Pd  Pd150  1  0.58468926  0.39445287  0.80216306  1
  Pd  Pd151  1  0.00829186  0.19973646  0.79126962  1
  Pd  Pd152  1  0.59809813  0.19784467  0.39306101  1
  Pd  Pd153  1  0.60893368  0.59359740  0.00635320  1
  Pd  Pd154  1  -0.00203701  0.20923311  0.39376600  1
  Pd  Pd155  1  0.39625723  0.60202431  0.39779902  1
  Pd  Pd156  1  -0.00402833  -0.00223702  0.59764970  1
  Pd  Pd157  1  0.78955207  0.58916691  -0.00964924  1
  Pd  Pd158  1  0.60230954  0.39548445  0.41381029  1
  Pd  Pd159  1  0.79849038  0.00170595  0.79964099  1
  Pd  Pd160  1  0.19931035  0.40431902  0.20029602  1
  Pd  Pd161  1  0.19410161  0.40040445  -0.00539601  1
  Pd  Pd162  1  0.79225217  0.78467149  0.39094332  1
  Pd  Pd163  1  0.21278236  0.59360646  0.79797821  1
  Pd  Pd164  1  0.19140462  0.80795730  0.20155132  1
  Pd  Pd165  1  0.59748094  0.40616040  0.19326577  1
  Pd  Pd166  1  0.79622962  0.19697418  0.00361925  1
  Pd  Pd167  1  -0.00240616  0.19614189  0.20046685  1
  Pd  Pd168  1  0.20623724  0.19984582  0.19686566  1
  Pd  Pd169  1  0.21039218  0.59643063  0.39991227  1
  Pd  Pd170  1  0.58986642  0.39770243  0.59558353  1
  Pd  Pd171  1  0.80274520  0.00619835  0.19222036  1
  Pd  Pd172  1  0.20456202  0.20255439  0.39987103  1
  Pd  Pd173  1  -0.00529955  0.40057705  0.59569512  1
  Pd  Pd174  1  0.59636486  -0.00959434  0.00122042  1
  Pd  Pd175  1  0.20052631  0.40323407  0.39832511  1
  Pd  Pd176  1  0.80294527  0.40406983  0.20054350  1
  Pd  Pd177  1  0.00504210  0.39733399  0.80246198  1
  Pd  Pd178  1  0.60420113  0.60312169  0.40985992  1
  Pd  Pd179  1  0.79342026  0.19800134  0.79561852  1
  Pd  Pd180  1  0.39470818  0.19840955  0.60573181  1
  Pd  Pd181  1  0.59075603  0.21093341  -0.00562853  1
  Pd  Pd182  1  -0.00034911  0.39567075  0.00094601  1
  Pd  Pd183  1  0.40799358  0.79132503  0.19141472  1
  Pd  Pd184  1  0.20841211  0.80391876  0.40173871  1
  Pd  Pd185  1  0.59598545  0.59682707  0.60245292  1
  Pd  Pd186  1  0.20678172  0.20694029  0.60709784  1
  Pd  Pd187  1  -0.00306043  0.79198166  0.80677688  1
  Pd  Pd188  1  0.00132204  0.19960362  0.60650425  1
  Pd  Pd189  1  0.19993466  0.79346953  -0.00756104  1
  Pd  Pd190  1  0.19925416  0.79689889  0.59980441  1
  Pd  Pd191  1  0.21044209  0.00334121  -0.00950787  1
  Pd  Pd192  1  0.40211671  0.39927699  0.40498844  1
  Pd  Pd193  1  0.20779258  -0.00146310  0.80860920  1
  Pd  Pd194  1  0.58975784  0.01003874  0.79172558  1
  Pd  Pd195  1  0.39704819  0.79696716  0.39514912  1
  Pd  Pd196  1  0.80840621  0.79070768  0.21046026  1
  Pd  Pd197  1  0.39920334  0.39208889  0.19665292  1
  Pd  Pd198  1  0.80455918  0.39489867  0.59663938  1
  Pd  Pd199  1  0.79721166  0.78833549  0.80120633  1
  Rh  Rh200  1  0.60176646  0.79345610  0.79366673  1
  Rh  Rh201  1  0.81041585  0.40609546  0.80637812  1
  Rh  Rh202  1  0.19670989  0.20960296  0.79238792  1
  Rh  Rh203  1  0.40324206  0.40128993  0.59717526  1
  Rh  Rh204  1  0.39988662  0.80457874  0.79939092  1
  Rh  Rh205  1  0.39290216  0.00908836  0.19573252  1
  Rh  Rh206  1  0.39990915  0.20451409  0.39471634  1
  Rh  Rh207  1  0.40744641  0.59792117  0.59809473  1
  Rh  Rh208  1  0.39676231  0.61068925  0.00070040  1
  Rh  Rh209  1  0.40226850  0.60485602  0.20138161  1
  Rh  Rh210  1  0.59502851  0.20572619  0.60957530  1
  Rh  Rh211  1  0.19738239  0.59473145  0.20007613  1
  Rh  Rh212  1  0.40282209  0.39857876  0.00786584  1
  Rh  Rh213  1  0.78545422  0.00869626  0.40669625  1
  Rh  Rh214  1  -0.00948208  0.60088682  0.79008467  1
  Rh  Rh215  1  0.59979210  0.79735314  0.19949012  1
  Rh  Rh216  1  0.00740042  0.60851374  0.00874854  1
  Rh  Rh217  1  0.59400574  0.59423447  0.19705256  1
  Rh  Rh218  1  0.79469529  0.80809317  0.60349865  1
  Rh  Rh219  1  0.79435526  0.20717658  0.39512454  1
  Rh  Rh220  1  0.81142302  0.60212533  0.21287044  1
  Rh  Rh221  1  0.60384644  0.80294596  0.60403825  1
  Rh  Rh222  1  0.20362937  -0.00376591  0.59674617  1
  Rh  Rh223  1  0.39346061  0.41076931  0.79505852  1
  Rh  Rh224  1  0.20493044  0.60012380  -0.00422477  1
  Rh  Rh225  1  0.19326268  0.20777657  0.00254832  1
  Rh  Rh226  1  0.39823546  0.59780986  0.79515786  1
  Rh  Rh227  1  0.60531308  0.60345020  0.78957527  1
  Rh  Rh228  1  0.40204761  0.19972871  0.00619566  1
  Rh  Rh229  1  0.00987196  -0.00141919  0.39993761  1
  Rh  Rh230  1  0.60460848  -0.00014068  0.20578803  1
  Rh  Rh231  1  0.00274230  -0.00123301  0.79431088  1
  Rh  Rh232  1  0.21524879  0.39485453  0.60781445  1
  Rh  Rh233  1  0.60521567  0.79724640  0.39330015  1
  Rh  Rh234  1  0.00934832  0.79055072  0.59980723  1
  Rh  Rh235  1  0.19867489  0.79784903  0.80202255  1
  Rh  Rh236  1  -0.01458123  -0.01411560  0.00564371  1
  Rh  Rh237  1  0.19753475  0.60593300  0.59890930  1
  Rh  Rh238  1  0.00421202  0.40800497  0.20253141  1
  Rh  Rh239  1  0.00176144  0.80030493  0.40044950  1
  Rh  Rh240  1  -0.00097835  0.59219569  0.40140860  1
  Rh  Rh241  1  0.40224830  0.19412904  0.80101691  1
  Rh  Rh242  1  0.79827997  0.19589874  0.60859337  1
  Rh  Rh243  1  0.80220211  0.19592549  0.19885041  1
  Rh  Rh244  1  0.80663484  0.59895246  0.60298123  1
  Rh  Rh245  1  0.58971463  0.20108534  0.20359449  1
  Rh  Rh246  1  0.00502139  0.21021947  0.00458292  1
  Rh  Rh247  1  0.58954787  0.80334669  0.00320544  1
  Rh  Rh248  1  0.38966165  0.80427088  0.60968940  1
  Rh  Rh249  1  0.80403392  0.80864296  -0.01027151  1
