# generated using pymatgen
data_ZrScNbPdRh
_symmetry_space_group_name_H-M   'P 1'
_cell_length_a   16.55409386
_cell_length_b   16.55548720
_cell_length_c   16.55371130
_cell_angle_alpha   90.04455266
_cell_angle_beta   89.98720512
_cell_angle_gamma   90.01319195
_symmetry_Int_Tables_number   1
_chemical_formula_structural   ZrScNbPdRh
_chemical_formula_sum   'Zr50 Sc50 Nb50 Pd50 Rh50'
_cell_volume   4536.72654189
_cell_formula_units_Z   50
loop_
 _symmetry_equiv_pos_site_id
 _symmetry_equiv_pos_as_xyz
  1  'x, y, z'
loop_
 _atom_site_type_symbol
 _atom_site_label
 _atom_site_symmetry_multiplicity
 _atom_site_fract_x
 _atom_site_fract_y
 _atom_site_fract_z
 _atom_site_occupancy
  Zr  Zr0  1  0.11219858  0.69228658  0.49933202  1
  Zr  Zr1  1  0.70498669  0.91055939  0.91048812  1
  Zr  Zr2  1  0.29022217  0.28997968  0.49899923  1
  Zr  Zr3  1  0.89741806  0.48772596  0.89636053  1
  Zr  Zr4  1  0.49686407  0.90626418  0.89937371  1
  Zr  Zr5  1  0.68765660  0.51468640  0.10283714  1
  Zr  Zr6  1  0.29598491  0.10099835  0.29613676  1
  Zr  Zr7  1  0.50519101  0.08535426  0.49299369  1
  Zr  Zr8  1  0.49528141  0.49470985  0.09359123  1
  Zr  Zr9  1  0.89977269  0.90006180  0.49300260  1
  Zr  Zr10  1  0.49560248  0.50232837  0.30247648  1
  Zr  Zr11  1  0.90210809  0.90239753  0.09654141  1
  Zr  Zr12  1  0.49529242  0.29467716  0.29252416  1
  Zr  Zr13  1  0.69502463  0.50075017  0.90329462  1
  Zr  Zr14  1  0.29904693  0.50424767  0.29520126  1
  Zr  Zr15  1  0.69231572  0.29548846  0.49602518  1
  Zr  Zr16  1  0.90492319  0.49035824  0.48648125  1
  Zr  Zr17  1  0.69570985  0.69827152  0.28499359  1
  Zr  Zr18  1  0.70137025  0.70295800  0.69851537  1
  Zr  Zr19  1  0.09344834  0.29885620  0.90074040  1
  Zr  Zr20  1  0.90208092  0.09736331  0.70022681  1
  Zr  Zr21  1  0.89726594  0.89951931  0.89860555  1
  Zr  Zr22  1  0.09977612  0.90219619  0.90231542  1
  Zr  Zr23  1  0.30850544  0.29906555  0.69867547  1
  Zr  Zr24  1  0.89981790  0.29998295  0.09243786  1
  Zr  Zr25  1  0.50151107  0.50086922  0.49278647  1
  Zr  Zr26  1  0.50477640  0.71634151  0.69273730  1
  Zr  Zr27  1  0.10114304  0.10220734  0.70098832  1
  Zr  Zr28  1  0.89164677  0.69608332  0.69848224  1
  Zr  Zr29  1  0.09408663  0.29446028  0.09848432  1
  Zr  Zr30  1  0.09570300  0.30501842  0.50260648  1
  Zr  Zr31  1  0.89793039  0.49776501  0.69974173  1
  Zr  Zr32  1  0.50071421  0.90195802  0.09875490  1
  Zr  Zr33  1  0.30057752  0.50040691  0.70838034  1
  Zr  Zr34  1  0.70330645  0.29960954  0.88756091  1
  Zr  Zr35  1  0.69860022  0.10648942  0.70616064  1
  Zr  Zr36  1  0.90092955  0.50224758  0.09653937  1
  Zr  Zr37  1  0.09690683  0.90107388  0.49425843  1
  Zr  Zr38  1  0.49807797  0.49870721  0.90047908  1
  Zr  Zr39  1  0.09740952  0.09697023  0.29176525  1
  Zr  Zr40  1  0.49361061  0.89010117  0.31183055  1
  Zr  Zr41  1  0.89851180  0.09455100  0.29867435  1
  Zr  Zr42  1  0.29773134  0.30235071  0.90336869  1
  Zr  Zr43  1  0.10256164  0.29348862  0.30062108  1
  Zr  Zr44  1  0.49745788  0.09693020  0.70395215  1
  Zr  Zr45  1  0.29807498  0.90616729  0.89943394  1
  Zr  Zr46  1  0.10868064  0.10049580  0.89856922  1
  Zr  Zr47  1  0.49823023  0.70687927  0.89690014  1
  Zr  Zr48  1  0.69759383  0.89174432  0.10170373  1
  Zr  Zr49  1  0.49971535  0.29621142  0.70308528  1
  Sc  Sc50  1  0.70004252  0.71206634  0.90401491  1
  Sc  Sc51  1  0.90596862  0.08451741  0.50496247  1
  Sc  Sc52  1  0.10705559  0.70360634  0.90682167  1
  Sc  Sc53  1  0.10463631  0.10471104  0.50854905  1
  Sc  Sc54  1  0.10586004  0.49138013  0.70093796  1
  Sc  Sc55  1  0.09381982  0.09818230  0.10111962  1
  Sc  Sc56  1  0.29620648  0.30114285  0.29475852  1
  Sc  Sc57  1  0.30088004  0.90679016  0.09998278  1
  Sc  Sc58  1  0.49649862  0.30002753  0.49369890  1
  Sc  Sc59  1  0.89848803  0.70432848  0.90264132  1
  Sc  Sc60  1  0.09453856  0.29490950  0.69929616  1
  Sc  Sc61  1  0.10173996  0.51347934  0.10383249  1
  Sc  Sc62  1  0.69055425  0.69529679  0.50644312  1
  Sc  Sc63  1  0.30170374  0.10419150  0.70014172  1
  Sc  Sc64  1  0.89490446  0.69495579  0.49245208  1
  Sc  Sc65  1  0.70170049  0.50220106  0.49186297  1
  Sc  Sc66  1  0.09343992  0.90249564  0.10154652  1
  Sc  Sc67  1  0.70656824  0.89771277  0.29815371  1
  Sc  Sc68  1  0.51022685  0.70205644  0.10965261  1
  Sc  Sc69  1  0.90055450  0.08703650  0.89465962  1
  Sc  Sc70  1  0.09605414  0.69527258  0.29368785  1
  Sc  Sc71  1  0.70696849  0.50993400  0.69516241  1
  Sc  Sc72  1  0.90948172  0.70506681  0.10514609  1
  Sc  Sc73  1  0.89834426  0.70234019  0.29543459  1
  Sc  Sc74  1  0.50499383  0.30700034  0.90146753  1
  Sc  Sc75  1  0.69825928  0.09345250  0.10534679  1
  Sc  Sc76  1  0.69942865  0.90878999  0.49432246  1
  Sc  Sc77  1  0.50987508  0.10526919  0.10368374  1
  Sc  Sc78  1  0.90248974  0.10061736  0.10437680  1
  Sc  Sc79  1  0.11737583  0.70014464  0.69488399  1
  Sc  Sc80  1  0.11604412  0.90279921  0.70304984  1
  Sc  Sc81  1  0.29156786  0.49904941  0.49507247  1
  Sc  Sc82  1  0.89736861  0.30053089  0.30219623  1
  Sc  Sc83  1  0.69583033  0.90232615  0.70591890  1
  Sc  Sc84  1  0.30078817  0.09748841  0.09873885  1
  Sc  Sc85  1  0.09898968  0.50457685  0.30648285  1
  Sc  Sc86  1  0.50440246  0.89148910  0.50626252  1
  Sc  Sc87  1  0.50318510  0.09650127  0.90464486  1
  Sc  Sc88  1  0.29533233  0.50141720  0.10230242  1
  Sc  Sc89  1  0.90662208  0.89620430  0.30084469  1
  Sc  Sc90  1  0.30309499  0.31026062  0.10607602  1
  Sc  Sc91  1  0.09880046  0.69953655  0.09835170  1
  Sc  Sc92  1  0.31529955  0.69637648  0.29905471  1
  Sc  Sc93  1  0.10728118  0.49942852  0.90114678  1
  Sc  Sc94  1  0.49118736  0.49409786  0.70390804  1
  Sc  Sc95  1  0.30518178  0.90284016  0.70588270  1
  Sc  Sc96  1  0.30053617  0.70706917  0.70718034  1
  Sc  Sc97  1  0.31387606  0.90356089  0.49819251  1
  Sc  Sc98  1  0.69217790  0.28678560  0.09917537  1
  Sc  Sc99  1  0.69205574  0.29331402  0.30322272  1
  Nb  Nb100  1  0.70347420  0.10309925  0.90583550  1
  Nb  Nb101  1  0.09871281  0.50334685  0.50111058  1
  Nb  Nb102  1  0.29819687  0.70197708  0.90382454  1
  Nb  Nb103  1  0.49547136  0.69824463  0.49565371  1
  Nb  Nb104  1  0.10475953  0.90084391  0.29887880  1
  Nb  Nb105  1  0.89668908  0.49756320  0.29780792  1
  Nb  Nb106  1  0.89460718  0.30662601  0.89443393  1
  Nb  Nb107  1  0.69944619  0.09910675  0.49442250  1
  Nb  Nb108  1  0.29725074  0.69394365  0.50277387  1
  Nb  Nb109  1  0.90225788  0.29617076  0.50246845  1
  Nb  Nb110  1  0.89742159  0.89880857  0.69888572  1
  Nb  Nb111  1  0.30898965  0.10002925  0.90119323  1
  Nb  Nb112  1  0.69240657  0.09795606  0.30801627  1
  Nb  Nb113  1  0.69569643  0.70242815  0.09986560  1
  Nb  Nb114  1  0.49799237  0.89918450  0.70378059  1
  Nb  Nb115  1  0.49737776  0.70203885  0.30888958  1
  Nb  Nb116  1  0.30300152  0.89780777  0.29950790  1
  Nb  Nb117  1  0.50077528  0.09902099  0.29874515  1
  Nb  Nb118  1  0.70050629  0.49725860  0.29580271  1
  Nb  Nb119  1  0.49607929  0.29787583  0.10049832  1
  Nb  Nb120  1  0.89511626  0.29862655  0.70716805  1
  Nb  Nb121  1  0.30494028  0.50419113  0.90149213  1
  Nb  Nb122  1  0.70156147  0.29568010  0.69785388  1
  Nb  Nb123  1  0.29742208  0.70098609  0.10077868  1
  Nb  Nb124  1  0.30042702  0.10099022  0.49586714  1
  Nb  Nb125  1  0.80125374  0.19242200  0.40699960  1
  Nb  Nb126  1  0.40206561  0.20401324  0.00257366  1
  Nb  Nb127  1  0.79614606  0.60169284  0.00582697  1
  Nb  Nb128  1  0.79466960  0.40433347  0.20022458  1
  Nb  Nb129  1  0.80076268  0.20063262  0.59800493  1
  Nb  Nb130  1  0.20639229  0.80184955  0.39478810  1
  Nb  Nb131  1  0.39950262  0.60576061  0.59594555  1
  Nb  Nb132  1  0.59856880  0.40158950  0.20036010  1
  Nb  Nb133  1  0.80126111  0.20045780  -0.01054787  1
  Nb  Nb134  1  0.80401957  0.80575303  0.59995626  1
  Nb  Nb135  1  -0.00207348  0.79655958  0.60284734  1
  Nb  Nb136  1  0.40396234  0.00005571  0.20791408  1
  Nb  Nb137  1  0.20267820  -0.00275939  0.39589591  1
  Nb  Nb138  1  -0.00014360  0.79724805  0.79041677  1
  Nb  Nb139  1  0.00107003  0.60397628  0.79439137  1
  Nb  Nb140  1  0.00433484  0.59800188  0.59877891  1
  Nb  Nb141  1  0.39488852  0.60663026  -0.00274470  1
  Nb  Nb142  1  0.39822736  0.19134342  0.39606189  1
  Nb  Nb143  1  0.79965869  0.38952667  0.59820516  1
  Nb  Nb144  1  0.60474979  0.39613559  0.60067234  1
  Nb  Nb145  1  0.20610537  0.80266146  0.20505926  1
  Nb  Nb146  1  0.59728604  0.60546228  0.79876672  1
  Nb  Nb147  1  0.39514147  0.79578976  0.00144020  1
  Nb  Nb148  1  -0.00637273  0.40347807  0.20211753  1
  Nb  Nb149  1  -0.00402008  0.19948928  0.40461807  1
  Pd  Pd150  1  0.39128372  0.39112887  0.39874249  1
  Pd  Pd151  1  0.79575793  0.20399352  0.20345358  1
  Pd  Pd152  1  0.60281027  0.00205821  0.80464716  1
  Pd  Pd153  1  0.60614856  0.60342552  0.39296431  1
  Pd  Pd154  1  -0.00045753  0.60485182  0.39912408  1
  Pd  Pd155  1  0.19630959  0.40548372  0.00572074  1
  Pd  Pd156  1  0.00789144  0.79016275  0.40077800  1
  Pd  Pd157  1  -0.00683131  0.19946430  0.80670895  1
  Pd  Pd158  1  0.78950029  0.79288181  0.40475644  1
  Pd  Pd159  1  0.19481877  0.60313204  0.80406399  1
  Pd  Pd160  1  0.79432745  0.38993838  0.39713337  1
  Pd  Pd161  1  0.60357430  -0.00428769  0.60356156  1
  Pd  Pd162  1  0.40509622  0.60234776  0.19036139  1
  Pd  Pd163  1  0.79307946  0.60506751  0.39584112  1
  Pd  Pd164  1  0.80036709  -0.00488955  0.20137787  1
  Pd  Pd165  1  0.19857268  0.39291320  0.80051172  1
  Pd  Pd166  1  0.00784210  -0.00877998  0.60727296  1
  Pd  Pd167  1  0.20355231  0.20033452  0.18744752  1
  Pd  Pd168  1  -0.01161927  0.19079412  -0.01113804  1
  Pd  Pd169  1  0.20181352  0.80637772  0.01019196  1
  Pd  Pd170  1  0.20542524  0.20219765  0.79668193  1
  Pd  Pd171  1  0.58807491  0.59073579  0.60758635  1
  Pd  Pd172  1  0.18704693  0.40502794  0.19875139  1
  Pd  Pd173  1  -0.00440057  0.60077879  -0.01138395  1
  Pd  Pd174  1  0.40808735  0.19291677  0.58888547  1
  Pd  Pd175  1  0.01041477  0.40738832  0.00344638  1
  Pd  Pd176  1  0.20315704  0.39957762  0.60134665  1
  Pd  Pd177  1  0.39912661  0.00049571  0.60456736  1
  Pd  Pd178  1  0.79715298  0.60321321  0.81465294  1
  Pd  Pd179  1  0.20552757  0.81138561  0.59219277  1
  Pd  Pd180  1  0.78558070  0.39831436  0.00988421  1
  Pd  Pd181  1  0.39301085  0.79814449  0.59738444  1
  Pd  Pd182  1  0.60638541  0.80495335  0.80586483  1
  Pd  Pd183  1  -0.00393038  0.40232553  0.60535978  1
  Pd  Pd184  1  0.60892854  0.79842902  0.40203085  1
  Pd  Pd185  1  0.79153872  -0.00031688  0.60357446  1
  Pd  Pd186  1  0.40503679  0.60828410  0.79532809  1
  Pd  Pd187  1  0.59464564  0.19932562  0.59579906  1
  Pd  Pd188  1  0.80497349  0.79264302  0.00831406  1
  Pd  Pd189  1  0.20789743  0.19900840  0.00761603  1
  Pd  Pd190  1  0.20816708  -0.00263780  0.59371844  1
  Pd  Pd191  1  0.00532578  -0.00937514  0.79397280  1
  Pd  Pd192  1  0.59228415  0.19769457  0.80858934  1
  Pd  Pd193  1  0.19757389  0.00305298  0.00572519  1
  Pd  Pd194  1  0.19724237  0.40344747  0.39773704  1
  Pd  Pd195  1  0.80622594  0.60228387  0.19547636  1
  Pd  Pd196  1  0.40193822  0.40663044  0.59291478  1
  Pd  Pd197  1  0.60610221  0.39045053  0.00714775  1
  Pd  Pd198  1  0.59536632  -0.00808916  0.20938396  1
  Pd  Pd199  1  0.60739959  0.40987378  0.78684537  1
  Rh  Rh200  1  0.40546364  0.00670826  0.00969863  1
  Rh  Rh201  1  0.59380916  0.80281781  -0.00072805  1
  Rh  Rh202  1  0.00664237  0.39294018  0.39163614  1
  Rh  Rh203  1  0.81049465  0.59144936  0.58306078  1
  Rh  Rh204  1  0.59846270  0.61335538  -0.01090681  1
  Rh  Rh205  1  0.20524913  0.58793389  0.60565140  1
  Rh  Rh206  1  0.39932574  0.80511931  0.19127177  1
  Rh  Rh207  1  0.40354709  0.20130620  0.81292571  1
  Rh  Rh208  1  0.39428119  0.40025939  -0.00233446  1
  Rh  Rh209  1  0.80099388  0.80796927  0.79673565  1
  Rh  Rh210  1  0.59342028  0.19349064  0.39923050  1
  Rh  Rh211  1  0.20028342  0.20032613  0.60644061  1
  Rh  Rh212  1  0.39847625  0.19209031  0.19657739  1
  Rh  Rh213  1  -0.00395936  -0.00710802  0.20030279  1
  Rh  Rh214  1  0.79842809  0.00411460  0.39342760  1
  Rh  Rh215  1  0.39939734  0.00319898  0.79708684  1
  Rh  Rh216  1  0.39471686  0.80709873  0.80636267  1
  Rh  Rh217  1  0.80110369  0.00977369  0.00839998  1
  Rh  Rh218  1  0.60911823  0.80936752  0.59713540  1
  Rh  Rh219  1  0.60189444  0.20197520  0.20320648  1
  Rh  Rh220  1  0.59877239  0.40445992  0.39598644  1
  Rh  Rh221  1  0.00162486  0.00400520  -0.00075595  1
  Rh  Rh222  1  0.39347585  0.79137814  0.40902676  1
  Rh  Rh223  1  -0.00291572  0.59444673  0.20491236  1
  Rh  Rh224  1  0.19609912  0.19020387  0.40150448  1
  Rh  Rh225  1  -0.00598772  0.19917733  0.59857095  1
  Rh  Rh226  1  0.58840316  0.59765622  0.20870019  1
  Rh  Rh227  1  0.39673803  0.39242037  0.80695178  1
  Rh  Rh228  1  0.39446820  0.60183507  0.40687168  1
  Rh  Rh229  1  0.59545988  0.80288402  0.20793588  1
  Rh  Rh230  1  0.00565947  0.40209432  0.80003069  1
  Rh  Rh231  1  0.19728936  0.80172869  0.80510778  1
  Rh  Rh232  1  -0.00468552  0.20894593  0.20674835  1
  Rh  Rh233  1  0.39565990  0.00669300  0.39397757  1
  Rh  Rh234  1  0.20090669  0.60963657  0.20404623  1
  Rh  Rh235  1  0.79167810  0.40345390  0.78923899  1
  Rh  Rh236  1  0.80772290  0.19361684  0.80168329  1
  Rh  Rh237  1  0.20768281  0.59724037  -0.00094679  1
  Rh  Rh238  1  0.60222373  0.00331559  0.00239139  1
  Rh  Rh239  1  0.79456580  0.00013561  0.79711386  1
  Rh  Rh240  1  0.40489996  0.40384667  0.20121058  1
  Rh  Rh241  1  0.20741739  0.00879686  0.80156577  1
  Rh  Rh242  1  0.20560288  0.60449229  0.39111263  1
  Rh  Rh243  1  0.60067226  -0.00927292  0.39392850  1
  Rh  Rh244  1  0.20478596  -0.00659871  0.20122752  1
  Rh  Rh245  1  0.80377813  0.80112087  0.19510682  1
  Rh  Rh246  1  0.00956068  0.00864196  0.39762961  1
  Rh  Rh247  1  0.00792603  0.80214956  0.20154444  1
  Rh  Rh248  1  0.60054603  0.19992977  -0.00430315  1
  Rh  Rh249  1  0.00133068  0.80206932  -0.00712224  1
