# generated using pymatgen
data_ZrScNbPdRh
_symmetry_space_group_name_H-M   'P 1'
_cell_length_a   16.56426181
_cell_length_b   16.55662476
_cell_length_c   16.55989401
_cell_angle_alpha   89.99805379
_cell_angle_beta   90.04610891
_cell_angle_gamma   89.99093776
_symmetry_Int_Tables_number   1
_chemical_formula_structural   ZrScNbPdRh
_chemical_formula_sum   'Zr50 Sc50 Nb50 Pd50 Rh50'
_cell_volume   4541.52070442
_cell_formula_units_Z   50
loop_
 _symmetry_equiv_pos_site_id
 _symmetry_equiv_pos_as_xyz
  1  'x, y, z'
loop_
 _atom_site_type_symbol
 _atom_site_label
 _atom_site_symmetry_multiplicity
 _atom_site_fract_x
 _atom_site_fract_y
 _atom_site_fract_z
 _atom_site_occupancy
  Zr  Zr0  1  0.89394358  0.69489557  0.49401092  1
  Zr  Zr1  1  0.48495270  0.10116635  0.69788035  1
  Zr  Zr2  1  0.69342589  0.09214758  0.49897007  1
  Zr  Zr3  1  0.69795667  0.70535024  0.50272161  1
  Zr  Zr4  1  0.09967745  0.70099970  0.30724719  1
  Zr  Zr5  1  0.90543408  0.69979852  0.11290595  1
  Zr  Zr6  1  0.90720485  0.70703643  0.89047782  1
  Zr  Zr7  1  0.89154942  0.90042011  0.10814689  1
  Zr  Zr8  1  0.29699622  0.69572859  0.10164293  1
  Zr  Zr9  1  0.89143633  0.89810944  0.70380662  1
  Zr  Zr10  1  0.69464862  0.70201927  0.90159230  1
  Zr  Zr11  1  0.68569785  0.29824080  0.49162821  1
  Zr  Zr12  1  0.69622451  0.09622793  0.09714345  1
  Zr  Zr13  1  0.09758155  0.69812173  0.90131398  1
  Zr  Zr14  1  0.29594255  0.29608889  0.29162578  1
  Zr  Zr15  1  0.29963851  0.30482939  0.50125958  1
  Zr  Zr16  1  0.29757054  0.69716561  0.30338402  1
  Zr  Zr17  1  0.90175703  0.69563030  0.69189088  1
  Zr  Zr18  1  0.89809725  0.30488720  0.50829780  1
  Zr  Zr19  1  0.89910950  0.50311367  0.50171330  1
  Zr  Zr20  1  0.11118075  0.89222548  0.09506145  1
  Zr  Zr21  1  0.48974387  0.49171283  0.49128253  1
  Zr  Zr22  1  0.30246918  0.10341460  0.51406229  1
  Zr  Zr23  1  0.90246018  0.30218293  0.09370118  1
  Zr  Zr24  1  0.69613244  0.30661351  0.91061028  1
  Zr  Zr25  1  0.30463891  0.10500373  0.10358917  1
  Zr  Zr26  1  0.10357019  0.89802494  0.89974046  1
  Zr  Zr27  1  0.89286491  0.09501341  0.50094223  1
  Zr  Zr28  1  0.90242816  0.10327887  0.69907091  1
  Zr  Zr29  1  0.29843786  0.09870794  0.29963667  1
  Zr  Zr30  1  0.49575163  0.90136454  0.70050959  1
  Zr  Zr31  1  0.90432814  0.29817483  0.70023761  1
  Zr  Zr32  1  0.10350614  0.90359740  0.30542876  1
  Zr  Zr33  1  0.10529144  0.50244301  0.09739395  1
  Zr  Zr34  1  0.69699258  0.90487649  0.09752336  1
  Zr  Zr35  1  0.10719961  0.09700980  0.89776815  1
  Zr  Zr36  1  0.90246992  0.89139214  0.30679726  1
  Zr  Zr37  1  0.49388565  0.89809318  0.30650221  1
  Zr  Zr38  1  0.10763937  0.30649049  0.89624377  1
  Zr  Zr39  1  0.30646696  0.90119115  0.10380975  1
  Zr  Zr40  1  0.30139524  0.90316829  0.30052671  1
  Zr  Zr41  1  0.49392057  0.70217129  0.09431838  1
  Zr  Zr42  1  0.30031235  0.49718661  0.10115721  1
  Zr  Zr43  1  0.70351974  0.30432906  0.69762637  1
  Zr  Zr44  1  0.89921530  0.09867079  0.10005571  1
  Zr  Zr45  1  0.10189555  0.89238299  0.49701058  1
  Zr  Zr46  1  0.90920368  0.49306008  0.90318693  1
  Zr  Zr47  1  0.30308975  0.69453086  0.89904559  1
  Zr  Zr48  1  0.49507311  0.50693673  0.11149382  1
  Zr  Zr49  1  0.50678144  0.89704854  0.91313148  1
  Sc  Sc50  1  0.31158988  0.70758433  0.69482168  1
  Sc  Sc51  1  0.68502554  0.50436196  0.29745177  1
  Sc  Sc52  1  0.69523909  0.50181903  0.70022921  1
  Sc  Sc53  1  0.70257007  0.69585597  0.30353905  1
  Sc  Sc54  1  0.09366867  0.49113744  0.69630099  1
  Sc  Sc55  1  0.90934862  0.29638642  0.89584726  1
  Sc  Sc56  1  0.49691048  0.30027723  0.90310287  1
  Sc  Sc57  1  0.49103370  0.10455054  0.90614603  1
  Sc  Sc58  1  0.69551589  0.90151987  0.68745678  1
  Sc  Sc59  1  0.70172102  0.69572554  0.11117223  1
  Sc  Sc60  1  0.69995973  0.90535089  0.90639296  1
  Sc  Sc61  1  0.10040922  0.49936422  0.49550010  1
  Sc  Sc62  1  0.10482148  0.11006587  0.09642199  1
  Sc  Sc63  1  0.90629357  0.49813764  0.10205412  1
  Sc  Sc64  1  0.50430546  0.50456649  0.89796707  1
  Sc  Sc65  1  0.49496629  0.70397512  0.70573982  1
  Sc  Sc66  1  0.70394948  0.90207757  0.30293125  1
  Sc  Sc67  1  0.91691723  0.30350456  0.29005555  1
  Sc  Sc68  1  0.49855745  0.29574268  0.10433991  1
  Sc  Sc69  1  0.89908527  0.09607095  0.88761651  1
  Sc  Sc70  1  0.50003186  0.10004348  0.10177729  1
  Sc  Sc71  1  0.10777720  0.09876639  0.50066705  1
  Sc  Sc72  1  0.29742840  0.49472342  0.49711021  1
  Sc  Sc73  1  0.10374501  0.09861280  0.70034091  1
  Sc  Sc74  1  0.10765747  0.49670778  0.30118537  1
  Sc  Sc75  1  0.50168621  0.70233152  0.89987069  1
  Sc  Sc76  1  0.30302970  0.10078619  0.90814844  1
  Sc  Sc77  1  0.90947692  0.50645709  0.30026156  1
  Sc  Sc78  1  0.29746339  0.29984283  0.69108111  1
  Sc  Sc79  1  0.29458333  0.90941104  0.90803548  1
  Sc  Sc80  1  0.11178775  0.90448440  0.69638349  1
  Sc  Sc81  1  0.09778136  0.30045971  0.69587116  1
  Sc  Sc82  1  0.89659491  0.08806084  0.30049087  1
  Sc  Sc83  1  0.70161805  0.70608630  0.69544444  1
  Sc  Sc84  1  0.71070552  0.09718694  0.69479417  1
  Sc  Sc85  1  0.70735571  0.50544751  0.49827701  1
  Sc  Sc86  1  0.10516249  0.30171036  0.29455361  1
  Sc  Sc87  1  0.69378956  0.09861927  0.29772399  1
  Sc  Sc88  1  0.49239511  0.29634681  0.69960909  1
  Sc  Sc89  1  0.49959054  0.69421794  0.30885088  1
  Sc  Sc90  1  0.29716155  0.70640485  0.49854205  1
  Sc  Sc91  1  0.10844136  0.30312723  0.50276009  1
  Sc  Sc92  1  0.90074645  0.49616423  0.68709812  1
  Sc  Sc93  1  0.49503763  0.10098438  0.29440974  1
  Sc  Sc94  1  0.29633139  0.90096964  0.50418190  1
  Sc  Sc95  1  0.29852221  0.50139679  0.29929439  1
  Sc  Sc96  1  0.09921737  0.29686079  0.10538500  1
  Sc  Sc97  1  0.69791139  0.49697290  0.09617219  1
  Sc  Sc98  1  0.51177545  0.30260213  0.30245935  1
  Sc  Sc99  1  0.69279457  0.49734257  0.90333116  1
  Nb  Nb100  1  0.69503393  0.10143713  0.90321974  1
  Nb  Nb101  1  0.50354276  0.10679779  0.50048336  1
  Nb  Nb102  1  0.29827100  0.90854565  0.69949387  1
  Nb  Nb103  1  0.50155034  0.89817571  0.10133045  1
  Nb  Nb104  1  0.52273063  0.90092495  0.50219001  1
  Nb  Nb105  1  0.89635751  0.89856269  0.49734426  1
  Nb  Nb106  1  0.10666593  0.69900446  0.10034096  1
  Nb  Nb107  1  0.09886868  0.10392712  0.29793135  1
  Nb  Nb108  1  0.89562658  0.70312724  0.29835645  1
  Nb  Nb109  1  0.29884513  0.30577371  0.89977199  1
  Nb  Nb110  1  0.49989012  0.29548436  0.49814422  1
  Nb  Nb111  1  0.10776539  0.49573405  0.89358450  1
  Nb  Nb112  1  0.49137627  0.50100859  0.69356565  1
  Nb  Nb113  1  0.30182264  0.09746588  0.70515952  1
  Nb  Nb114  1  0.90165358  0.89804242  0.90367673  1
  Nb  Nb115  1  0.49666003  0.50262615  0.29859370  1
  Nb  Nb116  1  0.28537503  0.48754866  0.89657179  1
  Nb  Nb117  1  0.30256772  0.50099751  0.69454726  1
  Nb  Nb118  1  0.69794254  0.29940948  0.29824476  1
  Nb  Nb119  1  0.69963041  0.29566259  0.10129068  1
  Nb  Nb120  1  0.50558391  0.70894731  0.49991735  1
  Nb  Nb121  1  0.10444923  0.70248110  0.50548851  1
  Nb  Nb122  1  0.29711609  0.30084672  0.09541663  1
  Nb  Nb123  1  0.69427158  0.90000380  0.50333813  1
  Nb  Nb124  1  0.10021229  0.69874003  0.69835889  1
  Nb  Nb125  1  0.20287581  0.79461812  0.79676576  1
  Nb  Nb126  1  -0.00014496  0.79985134  0.59597792  1
  Nb  Nb127  1  0.80516891  0.79602750  0.00041824  1
  Nb  Nb128  1  0.80124053  0.40250427  0.80216354  1
  Nb  Nb129  1  0.58652528  0.59770585  0.59652161  1
  Nb  Nb130  1  0.20985018  0.20208334  0.80144348  1
  Nb  Nb131  1  0.00622393  -0.00234673  0.19720913  1
  Nb  Nb132  1  0.59306941  0.80306339  0.19998684  1
  Nb  Nb133  1  0.79806534  0.20552430  0.19941630  1
  Nb  Nb134  1  0.79588406  0.19866663  0.00128661  1
  Nb  Nb135  1  0.59002285  0.40285822  0.59559982  1
  Nb  Nb136  1  0.79569993  0.39294009  0.20262202  1
  Nb  Nb137  1  -0.00135963  -0.00627434  0.00113142  1
  Nb  Nb138  1  0.80170126  0.20706772  0.39341075  1
  Nb  Nb139  1  0.79853803  0.39465026  0.38993969  1
  Nb  Nb140  1  0.40283763  0.20055722  0.40649670  1
  Nb  Nb141  1  -0.00513299  -0.00847370  0.59588255  1
  Nb  Nb142  1  0.19932011  0.60319419  0.60577541  1
  Nb  Nb143  1  0.80325690  0.59702322  0.80503835  1
  Nb  Nb144  1  0.39142466  0.40587593  0.79838165  1
  Nb  Nb145  1  0.80703084  0.60465180  -0.00535113  1
  Nb  Nb146  1  -0.00128975  0.19686465  0.39983460  1
  Nb  Nb147  1  0.59707390  0.00841539  0.80093939  1
  Nb  Nb148  1  0.60311510  0.19525515  0.80248444  1
  Nb  Nb149  1  0.20100354  0.59577798  0.79408547  1
  Pd  Pd150  1  0.79970413  0.58630932  0.20033861  1
  Pd  Pd151  1  0.59985289  0.19966863  0.61182505  1
  Pd  Pd152  1  0.19899926  0.20136785  0.40061238  1
  Pd  Pd153  1  0.40451752  0.80827121  0.59208779  1
  Pd  Pd154  1  0.00322167  0.60317871  0.40162409  1
  Pd  Pd155  1  -0.00393342  0.19076899  -0.01131847  1
  Pd  Pd156  1  0.00898775  0.19263293  0.59322822  1
  Pd  Pd157  1  0.20045679  0.59929471  -0.00549407  1
  Pd  Pd158  1  0.58716864  0.40189580  0.01138990  1
  Pd  Pd159  1  0.39516750  0.60256057  0.40617777  1
  Pd  Pd160  1  0.00906647  0.80379520  0.20235585  1
  Pd  Pd161  1  0.40260156  -0.00564789  0.81197538  1
  Pd  Pd162  1  0.40658425  -0.00932102  0.58859927  1
  Pd  Pd163  1  0.60478293  0.60169120  0.00618957  1
  Pd  Pd164  1  0.01012336  0.81067179  0.78716680  1
  Pd  Pd165  1  0.60083790  0.40050737  0.19556013  1
  Pd  Pd166  1  0.40362765  0.00542495  0.41144625  1
  Pd  Pd167  1  0.01160650  0.39789650  0.00221726  1
  Pd  Pd168  1  0.79234310  0.20143290  0.59071680  1
  Pd  Pd169  1  -0.00110424  0.60147370  0.00143329  1
  Pd  Pd170  1  0.19457695  0.00606857  0.19390931  1
  Pd  Pd171  1  0.39175383  0.80275144  -0.00500537  1
  Pd  Pd172  1  0.79154063  0.80138997  0.40174122  1
  Pd  Pd173  1  0.00332359  0.00658979  0.40148208  1
  Pd  Pd174  1  0.01000125  0.59840248  0.20462086  1
  Pd  Pd175  1  0.39756157  0.58816042  -0.00826945  1
  Pd  Pd176  1  0.59757789  0.00252132  0.39293762  1
  Pd  Pd177  1  0.39860602  0.20524516  0.00256613  1
  Pd  Pd178  1  0.60495105  0.80969886  0.79566989  1
  Pd  Pd179  1  0.59275925  -0.00552403  0.20585982  1
  Pd  Pd180  1  0.39796129  0.60673477  0.58874926  1
  Pd  Pd181  1  0.39233686  0.81236602  0.80955729  1
  Pd  Pd182  1  0.39729877  0.39047675  0.38681175  1
  Pd  Pd183  1  -0.00022847  0.39311478  0.40182096  1
  Pd  Pd184  1  0.00314351  -0.00591267  0.79627396  1
  Pd  Pd185  1  0.60241993  0.60371326  0.78945663  1
  Pd  Pd186  1  0.59889061  0.59699159  0.40797386  1
  Pd  Pd187  1  0.79024441  -0.00490512  0.80237757  1
  Pd  Pd188  1  0.20090401  0.79674840  0.20574072  1
  Pd  Pd189  1  0.40187088  0.39483012  0.20571009  1
  Pd  Pd190  1  -0.00402933  0.80167395  0.00795711  1
  Pd  Pd191  1  0.39923300  0.80358632  0.41025971  1
  Pd  Pd192  1  0.39619545  0.59167777  0.80470587  1
  Pd  Pd193  1  0.00087631  0.58847183  0.79376593  1
  Pd  Pd194  1  0.59269638  0.39401534  0.79159210  1
  Pd  Pd195  1  0.79269125  0.20866868  0.80905523  1
  Pd  Pd196  1  0.40461613  0.79293106  0.20483286  1
  Pd  Pd197  1  0.79013215  0.80087547  0.80423972  1
  Pd  Pd198  1  0.40586820  0.40660024  -0.00536355  1
  Pd  Pd199  1  0.20370724  0.00381109  0.40625960  1
  Rh  Rh200  1  0.59387563  0.00818053  0.60838634  1
  Rh  Rh201  1  0.19698251  0.00330174  0.60053104  1
  Rh  Rh202  1  0.78803968  0.59880976  0.60977220  1
  Rh  Rh203  1  0.40314252  -0.00097859  0.00717583  1
  Rh  Rh204  1  0.20549155  0.80076745  0.39656581  1
  Rh  Rh205  1  0.39849261  0.20583056  0.59631091  1
  Rh  Rh206  1  0.01556085  0.19947914  0.80045325  1
  Rh  Rh207  1  0.40222538  0.20574325  0.20551091  1
  Rh  Rh208  1  0.80511462  0.80344401  0.59322255  1
  Rh  Rh209  1  0.19820250  0.40951909  0.59967980  1
  Rh  Rh210  1  0.60117201  0.19781872  0.19935110  1
  Rh  Rh211  1  0.60975476  0.79253291  0.01265251  1
  Rh  Rh212  1  0.40333830  0.39389168  0.60380534  1
  Rh  Rh213  1  0.59377828  0.79315988  0.60680653  1
  Rh  Rh214  1  0.80339734  -0.00720855  0.59715701  1
  Rh  Rh215  1  0.00437649  0.39981662  0.59275018  1
  Rh  Rh216  1  0.78970767  0.40296635  0.59752718  1
  Rh  Rh217  1  0.20941183  0.00275055  0.80021586  1
  Rh  Rh218  1  0.00834020  0.60331943  0.59411502  1
  Rh  Rh219  1  0.20157441  0.19927215  0.19496432  1
  Rh  Rh220  1  -0.00516645  0.18787866  0.20949357  1
  Rh  Rh221  1  0.80230857  0.00012164  0.20803702  1
  Rh  Rh222  1  0.80262970  0.59217696  0.38722332  1
  Rh  Rh223  1  0.78866757  0.80082074  0.20016816  1
  Rh  Rh224  1  0.20095878  0.40077666  0.19472899  1
  Rh  Rh225  1  0.79290438  -0.00023854  0.40217603  1
  Rh  Rh226  1  0.20065793  0.59953022  0.40884077  1
  Rh  Rh227  1  0.60460557  0.80051032  0.39190356  1
  Rh  Rh228  1  0.20040648  0.19677221  0.61058398  1
  Rh  Rh229  1  0.19748211  0.00589508  0.00825467  1
  Rh  Rh230  1  0.19820973  0.60123215  0.20258043  1
  Rh  Rh231  1  0.20001310  0.79547926  0.61014993  1
  Rh  Rh232  1  0.60203094  0.40924394  0.40312347  1
  Rh  Rh233  1  -0.00170439  0.78947998  0.40612496  1
  Rh  Rh234  1  0.20689529  0.79077921  -0.00630481  1
  Rh  Rh235  1  0.58989357  0.00847615  -0.00361123  1
  Rh  Rh236  1  0.80852395  0.00163340  -0.01176271  1
  Rh  Rh237  1  0.00265200  0.40775929  0.19701095  1
  Rh  Rh238  1  0.60042656  0.19878061  -0.00197200  1
  Rh  Rh239  1  0.40389661  -0.00008921  0.19637119  1
  Rh  Rh240  1  0.59595523  0.19147844  0.39247327  1
  Rh  Rh241  1  0.80103657  0.40036047  0.00069839  1
  Rh  Rh242  1  0.20156162  0.39915648  0.39600208  1
  Rh  Rh243  1  0.19531869  0.39449620  0.01010637  1
  Rh  Rh244  1  0.59077505  0.60860285  0.20008597  1
  Rh  Rh245  1  0.39431262  0.21044895  0.80295502  1
  Rh  Rh246  1  0.39895592  0.60347848  0.20677481  1
  Rh  Rh247  1  -0.00562032  0.40032397  0.79520998  1
  Rh  Rh248  1  0.20572157  0.20703695  -0.00419182  1
  Rh  Rh249  1  0.20361110  0.39670152  0.78624799  1
