# generated using pymatgen
data_ZrScNbPdRh
_symmetry_space_group_name_H-M   'P 1'
_cell_length_a   16.55028583
_cell_length_b   16.55765778
_cell_length_c   16.55748613
_cell_angle_alpha   90.00297550
_cell_angle_beta   89.96504901
_cell_angle_gamma   90.00821731
_symmetry_Int_Tables_number   1
_chemical_formula_structural   ZrScNbPdRh
_chemical_formula_sum   'Zr50 Sc50 Nb50 Pd50 Rh50'
_cell_volume   4537.31274581
_cell_formula_units_Z   50
loop_
 _symmetry_equiv_pos_site_id
 _symmetry_equiv_pos_as_xyz
  1  'x, y, z'
loop_
 _atom_site_type_symbol
 _atom_site_label
 _atom_site_symmetry_multiplicity
 _atom_site_fract_x
 _atom_site_fract_y
 _atom_site_fract_z
 _atom_site_occupancy
  Zr  Zr0  1  0.70302419  0.49723092  0.89671642  1
  Zr  Zr1  1  0.89724573  0.70417988  0.49717453  1
  Zr  Zr2  1  0.69920903  0.50540626  0.49675089  1
  Zr  Zr3  1  0.49934078  0.49998856  0.30137775  1
  Zr  Zr4  1  0.70155905  0.28738052  0.50898401  1
  Zr  Zr5  1  0.89250535  0.30475082  0.90197917  1
  Zr  Zr6  1  0.49365696  0.50060150  0.49989738  1
  Zr  Zr7  1  0.69413667  0.90919425  0.30571128  1
  Zr  Zr8  1  0.89151258  0.09071562  0.08957826  1
  Zr  Zr9  1  0.30233255  0.90224943  0.09856344  1
  Zr  Zr10  1  0.89967272  0.90112572  0.50287378  1
  Zr  Zr11  1  0.11371488  0.49715968  0.69773380  1
  Zr  Zr12  1  0.50109306  0.49886785  0.91176985  1
  Zr  Zr13  1  0.49125527  0.29770652  0.30572948  1
  Zr  Zr14  1  0.89792621  0.09185351  0.70367859  1
  Zr  Zr15  1  0.91059148  0.49964543  0.09379007  1
  Zr  Zr16  1  0.48993111  0.70162178  0.30303201  1
  Zr  Zr17  1  0.30391068  0.29405565  0.29806850  1
  Zr  Zr18  1  0.90704257  0.70547912  0.90020624  1
  Zr  Zr19  1  0.70245844  0.69838596  0.10196907  1
  Zr  Zr20  1  0.89945260  0.10681138  0.29995862  1
  Zr  Zr21  1  0.70312125  0.69320753  0.30618468  1
  Zr  Zr22  1  0.70275798  0.70252071  0.70117652  1
  Zr  Zr23  1  0.10104735  0.49289221  0.49200597  1
  Zr  Zr24  1  0.50152135  0.69916097  0.90522634  1
  Zr  Zr25  1  0.30458740  0.29762974  0.09879900  1
  Zr  Zr26  1  0.29416321  0.30688926  0.70923454  1
  Zr  Zr27  1  0.30792353  0.09757671  0.09963290  1
  Zr  Zr28  1  0.90321649  0.49529687  0.50509660  1
  Zr  Zr29  1  0.29590015  0.49753925  0.89812102  1
  Zr  Zr30  1  0.50903497  0.29238428  0.70669124  1
  Zr  Zr31  1  0.89931432  0.70654402  0.69506833  1
  Zr  Zr32  1  0.69745517  0.69874659  0.89657975  1
  Zr  Zr33  1  0.70488131  0.90751675  0.10201322  1
  Zr  Zr34  1  0.29689376  0.50557135  0.50375915  1
  Zr  Zr35  1  0.69955493  0.70467194  0.50087254  1
  Zr  Zr36  1  0.69045674  0.90063440  0.69487155  1
  Zr  Zr37  1  0.50259814  0.30052014  0.50707935  1
  Zr  Zr38  1  0.70845166  0.50072151  0.69940525  1
  Zr  Zr39  1  0.09920748  0.10190325  0.69370920  1
  Zr  Zr40  1  0.29743121  0.89799793  0.89724029  1
  Zr  Zr41  1  0.70184444  0.10014938  0.10642638  1
  Zr  Zr42  1  0.10467554  0.50321654  0.30069445  1
  Zr  Zr43  1  0.89943587  0.89956917  0.70090702  1
  Zr  Zr44  1  0.90688215  0.29672579  0.10284056  1
  Zr  Zr45  1  0.50052640  0.09938005  0.50253050  1
  Zr  Zr46  1  0.70271450  0.29457759  0.30048344  1
  Zr  Zr47  1  0.30082814  0.09473505  0.89987959  1
  Zr  Zr48  1  0.10099099  0.30553080  0.30174070  1
  Zr  Zr49  1  0.29863260  0.70193841  0.90661467  1
  Sc  Sc50  1  0.28425483  0.69664464  0.69561068  1
  Sc  Sc51  1  0.91733062  0.69635288  0.10550843  1
  Sc  Sc52  1  0.29948802  0.50395015  0.69666353  1
  Sc  Sc53  1  0.29837417  0.69863571  0.30401457  1
  Sc  Sc54  1  0.09541492  0.30952389  0.10320081  1
  Sc  Sc55  1  0.70005228  0.89574088  0.89484522  1
  Sc  Sc56  1  0.29538108  0.89512332  0.69183954  1
  Sc  Sc57  1  0.69921468  0.09765337  0.30664276  1
  Sc  Sc58  1  0.10326177  0.89981655  0.30671250  1
  Sc  Sc59  1  0.30274973  0.09170647  0.30620035  1
  Sc  Sc60  1  0.90581338  0.30234867  0.29335464  1
  Sc  Sc61  1  0.10559992  0.31299386  0.90324311  1
  Sc  Sc62  1  0.09894627  0.69685826  0.29886953  1
  Sc  Sc63  1  0.69830061  0.09264313  0.49997160  1
  Sc  Sc64  1  0.09975664  0.09367212  0.30188853  1
  Sc  Sc65  1  0.08812824  0.90009143  0.10253189  1
  Sc  Sc66  1  0.49686073  0.30447044  0.10450808  1
  Sc  Sc67  1  0.49458906  0.10254765  0.88795529  1
  Sc  Sc68  1  0.49475411  0.90003585  0.10177509  1
  Sc  Sc69  1  0.10064170  0.50229389  0.91019286  1
  Sc  Sc70  1  0.10767465  0.70372753  0.90039514  1
  Sc  Sc71  1  0.30157860  0.50464284  0.09709378  1
  Sc  Sc72  1  0.10193391  0.50479434  0.10207534  1
  Sc  Sc73  1  0.49627026  0.49360435  0.69035024  1
  Sc  Sc74  1  0.70634879  0.50345217  0.29582954  1
  Sc  Sc75  1  0.69900077  0.10383324  0.69978600  1
  Sc  Sc76  1  0.70106675  0.30299753  0.10015389  1
  Sc  Sc77  1  0.09487722  0.90040780  0.89982838  1
  Sc  Sc78  1  0.69862958  0.30440622  0.88952119  1
  Sc  Sc79  1  0.49461328  0.89968186  0.51203346  1
  Sc  Sc80  1  0.70172231  0.49577975  0.10215289  1
  Sc  Sc81  1  0.29488513  0.89390393  0.49591275  1
  Sc  Sc82  1  0.90958783  0.89889505  0.30862331  1
  Sc  Sc83  1  0.50126793  0.09059108  0.70453969  1
  Sc  Sc84  1  0.90748046  0.50709382  0.29556763  1
  Sc  Sc85  1  0.50176604  0.90351013  0.89500854  1
  Sc  Sc86  1  0.29508466  0.49688920  0.30125232  1
  Sc  Sc87  1  0.50009254  0.09730619  0.30091862  1
  Sc  Sc88  1  0.90505108  0.90932953  0.89819983  1
  Sc  Sc89  1  0.50330404  0.70334840  0.69203605  1
  Sc  Sc90  1  0.30799970  0.30874261  0.90506635  1
  Sc  Sc91  1  0.09099476  0.09091259  0.10535135  1
  Sc  Sc92  1  0.09536697  0.89150203  0.69276983  1
  Sc  Sc93  1  0.48802288  0.70089255  0.09291752  1
  Sc  Sc94  1  0.29603282  0.09503029  0.49921072  1
  Sc  Sc95  1  0.10757161  0.09748525  0.50118970  1
  Sc  Sc96  1  0.89095688  0.30079980  0.68675313  1
  Sc  Sc97  1  0.11061639  0.70180424  0.49545207  1
  Sc  Sc98  1  0.29884378  0.29769016  0.48802013  1
  Sc  Sc99  1  0.88778057  0.09910223  0.50568112  1
  Nb  Nb100  1  0.49302518  0.89207012  0.30323676  1
  Nb  Nb101  1  0.89937598  0.50477105  0.70065017  1
  Nb  Nb102  1  0.50217257  0.10564602  0.09443347  1
  Nb  Nb103  1  0.49796487  0.69512822  0.49731316  1
  Nb  Nb104  1  0.09391210  0.09805073  0.89645768  1
  Nb  Nb105  1  0.09101066  0.30036905  0.50169414  1
  Nb  Nb106  1  0.50331433  0.50114990  0.09991735  1
  Nb  Nb107  1  0.69087949  0.30092173  0.69630690  1
  Nb  Nb108  1  0.09990717  0.69656371  0.69916611  1
  Nb  Nb109  1  0.30766341  0.89163892  0.29793077  1
  Nb  Nb110  1  0.49841838  0.90079561  0.70308189  1
  Nb  Nb111  1  0.90255621  0.49961333  0.89619739  1
  Nb  Nb112  1  0.90012077  0.29911922  0.49596739  1
  Nb  Nb113  1  0.90064473  0.89434381  0.09732211  1
  Nb  Nb114  1  0.71644171  0.10796286  0.91010066  1
  Nb  Nb115  1  0.30555854  0.70020951  0.50101211  1
  Nb  Nb116  1  0.50730136  0.30262352  0.90281651  1
  Nb  Nb117  1  0.09733979  0.29822188  0.69974586  1
  Nb  Nb118  1  0.29690958  0.70633254  0.09789248  1
  Nb  Nb119  1  0.89791182  0.70176729  0.29343456  1
  Nb  Nb120  1  0.29722180  0.10314833  0.70376621  1
  Nb  Nb121  1  0.89911723  0.10412440  0.89839379  1
  Nb  Nb122  1  0.69523377  0.90513408  0.49782919  1
  Nb  Nb123  1  0.10285443  0.70149518  0.10219264  1
  Nb  Nb124  1  0.10189818  0.89584030  0.49547372  1
  Nb  Nb125  1  0.80332546  0.79988089  0.20137716  1
  Nb  Nb126  1  0.60361629  0.01265024  0.00026093  1
  Nb  Nb127  1  -0.00361104  0.40285876  0.79375868  1
  Nb  Nb128  1  0.60496012  0.39715187  0.40162539  1
  Nb  Nb129  1  0.20406695  0.79981985  0.19651251  1
  Nb  Nb130  1  0.59952741  0.19783316  -0.00365889  1
  Nb  Nb131  1  0.19451230  0.19895140  0.80370516  1
  Nb  Nb132  1  0.19495346  0.19445968  0.00020464  1
  Nb  Nb133  1  0.19679886  0.00580196  0.79608504  1
  Nb  Nb134  1  0.80039655  0.39454614  0.40305153  1
  Nb  Nb135  1  0.60001544  0.79821580  0.20672178  1
  Nb  Nb136  1  0.80706458  0.60153428  -0.00308123  1
  Nb  Nb137  1  0.59350588  0.80154937  0.40133359  1
  Nb  Nb138  1  0.60047750  0.60239712  0.59364335  1
  Nb  Nb139  1  0.39478369  0.19814553  0.60830910  1
  Nb  Nb140  1  -0.00007192  0.20477240  0.40732668  1
  Nb  Nb141  1  0.20182748  0.19667388  0.19520569  1
  Nb  Nb142  1  0.00105889  0.59596838  0.79431012  1
  Nb  Nb143  1  0.80515584  0.79800965  0.00553900  1
  Nb  Nb144  1  0.59340176  0.60350903  0.19949577  1
  Nb  Nb145  1  0.00332049  0.60049073  0.60484085  1
  Nb  Nb146  1  0.39959180  0.60557789  0.80236955  1
  Nb  Nb147  1  0.00140378  0.19653990  -0.00816737  1
  Nb  Nb148  1  0.39924699  0.79644016  0.79662200  1
  Nb  Nb149  1  0.00108446  0.20505891  0.80055511  1
  Pd  Pd150  1  0.39760541  0.59982508  0.19568175  1
  Pd  Pd151  1  0.60777282  0.59588701  0.00815783  1
  Pd  Pd152  1  0.19253842  0.19699974  0.39408473  1
  Pd  Pd153  1  0.81182667  0.59196290  0.39995194  1
  Pd  Pd154  1  0.20720032  0.20872502  0.60076735  1
  Pd  Pd155  1  0.39584417  0.40675562  0.19667537  1
  Pd  Pd156  1  0.18964207  0.00019009  -0.00178154  1
  Pd  Pd157  1  0.19009843  0.81031803  0.00722809  1
  Pd  Pd158  1  0.59547062  0.20302797  0.19698954  1
  Pd  Pd159  1  0.79506027  0.39897008  0.59678552  1
  Pd  Pd160  1  0.39066892  0.38869693  0.59937604  1
  Pd  Pd161  1  0.19868081  -0.00741919  0.60169966  1
  Pd  Pd162  1  0.79478719  0.80892605  0.59910221  1
  Pd  Pd163  1  0.40696517  0.00288667  0.20246569  1
  Pd  Pd164  1  0.60212270  0.81136586  0.00743023  1
  Pd  Pd165  1  0.39668671  0.79443489  0.60387400  1
  Pd  Pd166  1  0.81064367  -0.00718707  0.21233082  1
  Pd  Pd167  1  -0.00707895  0.19592841  0.59770239  1
  Pd  Pd168  1  0.20413590  0.39687707  0.19536294  1
  Pd  Pd169  1  -0.00109947  0.01204469  0.40973170  1
  Pd  Pd170  1  -0.00673487  -0.00485350  0.20404185  1
  Pd  Pd171  1  0.80722239  0.60494976  0.80535822  1
  Pd  Pd172  1  0.00705206  0.79840414  0.80055567  1
  Pd  Pd173  1  0.80076721  0.20699866  0.79032126  1
  Pd  Pd174  1  0.19858484  0.59922299  0.00408794  1
  Pd  Pd175  1  0.41192130  -0.00309992  -0.00437111  1
  Pd  Pd176  1  0.80111908  0.20019447  0.19811779  1
  Pd  Pd177  1  0.60010299  0.40315992  0.20606749  1
  Pd  Pd178  1  0.59891240  0.20013692  0.39991639  1
  Pd  Pd179  1  0.20144316  -0.00373901  0.20493888  1
  Pd  Pd180  1  0.00244284  0.40355788  0.60708321  1
  Pd  Pd181  1  0.40008623  -0.00625164  0.40428687  1
  Pd  Pd182  1  0.58825000  0.59318027  0.78814594  1
  Pd  Pd183  1  0.79561476  0.80916279  0.39393975  1
  Pd  Pd184  1  0.79705723  0.40329419  0.00304120  1
  Pd  Pd185  1  0.40443407  0.20402413  -0.00746130  1
  Pd  Pd186  1  0.39579093  0.20555560  0.80021775  1
  Pd  Pd187  1  0.59593440  0.40898172  0.79629567  1
  Pd  Pd188  1  0.20479119  0.39009251  0.59103260  1
  Pd  Pd189  1  0.61043827  0.00954601  0.80920703  1
  Pd  Pd190  1  -0.00156810  0.60643265  0.40491974  1
  Pd  Pd191  1  0.58857771  -0.00315889  0.19761431  1
  Pd  Pd192  1  0.40881833  0.40823233  0.80139807  1
  Pd  Pd193  1  0.39444888  0.00508058  0.60496117  1
  Pd  Pd194  1  0.00604059  0.79404444  0.39966944  1
  Pd  Pd195  1  0.59184005  0.79926975  0.79772019  1
  Pd  Pd196  1  0.39032439  0.59633361  0.39790408  1
  Pd  Pd197  1  0.80736538  0.40446090  0.20509453  1
  Pd  Pd198  1  0.00354332  -0.00154110  0.59267570  1
  Pd  Pd199  1  0.79249156  -0.00356636  0.80281875  1
  Rh  Rh200  1  0.40023736  0.19165878  0.40895100  1
  Rh  Rh201  1  0.59466323  0.59939851  0.39900462  1
  Rh  Rh202  1  0.00257012  0.60487460  -0.00624507  1
  Rh  Rh203  1  0.40271267  0.60787913  0.60648069  1
  Rh  Rh204  1  0.40123429  0.40295223  0.40115517  1
  Rh  Rh205  1  0.60761069  0.40799362  0.59575159  1
  Rh  Rh206  1  0.00403040  0.80031854  0.20463324  1
  Rh  Rh207  1  0.00188159  0.40996761  0.20227426  1
  Rh  Rh208  1  0.19513729  0.79820699  0.59351814  1
  Rh  Rh209  1  0.79751683  -0.01139011  -0.00992801  1
  Rh  Rh210  1  0.58882854  -0.00710250  0.40608373  1
  Rh  Rh211  1  0.80357523  0.60225326  0.18934906  1
  Rh  Rh212  1  0.20125465  0.80747125  0.79459043  1
  Rh  Rh213  1  0.01032278  0.19769285  0.20260509  1
  Rh  Rh214  1  0.20230041  0.60955518  0.19702596  1
  Rh  Rh215  1  0.19433690  0.39993602  0.80399651  1
  Rh  Rh216  1  0.19467667  0.60238723  0.59155448  1
  Rh  Rh217  1  0.20249289  0.39704496  0.40276773  1
  Rh  Rh218  1  0.60646870  0.19543474  0.80751971  1
  Rh  Rh219  1  0.40461385  0.40228415  0.00528506  1
  Rh  Rh220  1  0.00475450  0.00288793  0.79441864  1
  Rh  Rh221  1  0.20004443  0.59896683  0.80535376  1
  Rh  Rh222  1  -0.00336507  0.00232447  -0.00136303  1
  Rh  Rh223  1  0.39548602  0.79727058  0.19535697  1
  Rh  Rh224  1  0.60157014  0.39202894  0.00241073  1
  Rh  Rh225  1  0.39502455  0.59658820  -0.00173081  1
  Rh  Rh226  1  0.59845265  -0.00092826  0.60085446  1
  Rh  Rh227  1  0.80446101  -0.00072196  0.40113964  1
  Rh  Rh228  1  0.00724229  0.79365850  0.59080768  1
  Rh  Rh229  1  0.00075535  0.39498660  -0.00570097  1
  Rh  Rh230  1  0.38851426  -0.01388121  0.79012483  1
  Rh  Rh231  1  0.79807558  0.19556662  0.60416229  1
  Rh  Rh232  1  0.20436723  0.60189369  0.40115722  1
  Rh  Rh233  1  0.20424457  0.39699142  0.00661208  1
  Rh  Rh234  1  0.79230567  -0.00446510  0.60162357  1
  Rh  Rh235  1  -0.00688909  0.39397511  0.39499019  1
  Rh  Rh236  1  0.80033715  0.21016942  0.00536686  1
  Rh  Rh237  1  0.39735047  0.19025432  0.20566182  1
  Rh  Rh238  1  0.80717984  0.20309616  0.39827003  1
  Rh  Rh239  1  0.00769115  0.60086739  0.20191651  1
  Rh  Rh240  1  0.40033883  0.80060618  0.41035408  1
  Rh  Rh241  1  0.59345337  0.18925476  0.60672889  1
  Rh  Rh242  1  0.20321150  -0.00989298  0.39945662  1
  Rh  Rh243  1  0.20452758  0.79943150  0.39331017  1
  Rh  Rh244  1  0.80075533  0.60361328  0.59747655  1
  Rh  Rh245  1  0.00005265  0.80066860  0.00060460  1
  Rh  Rh246  1  0.80203067  0.80667712  0.80438423  1
  Rh  Rh247  1  0.40245346  0.80676765  -0.00657650  1
  Rh  Rh248  1  0.59684990  0.79907175  0.59305354  1
  Rh  Rh249  1  0.80345148  0.39483709  0.79026006  1
