# generated using pymatgen
data_ZrScNbPdRh
_symmetry_space_group_name_H-M   'P 1'
_cell_length_a   16.55136067
_cell_length_b   16.55093072
_cell_length_c   16.54929089
_cell_angle_alpha   89.98488557
_cell_angle_beta   90.02803241
_cell_angle_gamma   90.03730196
_symmetry_Int_Tables_number   1
_chemical_formula_structural   ZrScNbPdRh
_chemical_formula_sum   'Zr50 Sc50 Nb50 Pd50 Rh50'
_cell_volume   4533.51809826
_cell_formula_units_Z   50
loop_
 _symmetry_equiv_pos_site_id
 _symmetry_equiv_pos_as_xyz
  1  'x, y, z'
loop_
 _atom_site_type_symbol
 _atom_site_label
 _atom_site_symmetry_multiplicity
 _atom_site_fract_x
 _atom_site_fract_y
 _atom_site_fract_z
 _atom_site_occupancy
  Zr  Zr0  1  0.89665268  0.11029563  0.50424204  1
  Zr  Zr1  1  0.49841508  0.49684174  0.09693258  1
  Zr  Zr2  1  0.09848243  0.09810666  0.69545313  1
  Zr  Zr3  1  0.49744212  0.90236231  0.90487774  1
  Zr  Zr4  1  0.90604337  0.30209799  0.90332590  1
  Zr  Zr5  1  0.31050120  0.49653245  0.90454450  1
  Zr  Zr6  1  0.90186483  0.50177609  0.89950540  1
  Zr  Zr7  1  0.89048832  0.69265036  0.89630645  1
  Zr  Zr8  1  0.09681875  0.50243756  0.29808214  1
  Zr  Zr9  1  0.48912934  0.49930167  0.50484745  1
  Zr  Zr10  1  0.30382467  0.70213807  0.69481148  1
  Zr  Zr11  1  0.89785304  0.69808923  0.70050818  1
  Zr  Zr12  1  0.10481999  0.90198175  0.89896651  1
  Zr  Zr13  1  0.09484599  0.09309000  0.30163217  1
  Zr  Zr14  1  0.30949343  0.69754887  0.90440686  1
  Zr  Zr15  1  0.69526102  0.10266594  0.89920995  1
  Zr  Zr16  1  0.10058781  0.90352652  0.10343755  1
  Zr  Zr17  1  0.09578309  0.30109751  0.29745695  1
  Zr  Zr18  1  0.29646746  0.30257110  0.09624457  1
  Zr  Zr19  1  0.09878134  0.09746563  0.89407460  1
  Zr  Zr20  1  0.30000536  0.49925407  0.09885572  1
  Zr  Zr21  1  0.50487737  0.70104122  0.50638533  1
  Zr  Zr22  1  0.70293806  0.69108272  0.50382648  1
  Zr  Zr23  1  0.29598987  0.09743744  0.69578580  1
  Zr  Zr24  1  0.30488969  0.29016859  0.70619636  1
  Zr  Zr25  1  0.50493397  0.50876528  0.89655500  1
  Zr  Zr26  1  0.90038130  0.50097620  0.70309154  1
  Zr  Zr27  1  0.89454636  0.70144177  0.29749007  1
  Zr  Zr28  1  0.89419283  0.50277404  0.49557595  1
  Zr  Zr29  1  0.89573552  0.49038660  0.09883317  1
  Zr  Zr30  1  0.10301845  0.29692760  0.90337956  1
  Zr  Zr31  1  0.69866299  0.90003584  0.10315963  1
  Zr  Zr32  1  0.50200971  0.10595015  0.10423643  1
  Zr  Zr33  1  0.50202509  0.29667444  0.70041902  1
  Zr  Zr34  1  0.09775297  0.29865120  0.10068937  1
  Zr  Zr35  1  0.29615256  0.70229386  0.29510390  1
  Zr  Zr36  1  0.49878668  0.90194993  0.70162963  1
  Zr  Zr37  1  0.50229844  0.29496020  0.50621763  1
  Zr  Zr38  1  0.29675795  0.09750857  0.50057442  1
  Zr  Zr39  1  0.49358855  0.49825000  0.29863835  1
  Zr  Zr40  1  0.50286379  0.70650592  0.09798412  1
  Zr  Zr41  1  0.70558730  0.49760328  0.50268181  1
  Zr  Zr42  1  0.90052899  0.90626125  0.69641338  1
  Zr  Zr43  1  0.29619015  0.70061851  0.09576253  1
  Zr  Zr44  1  0.30163025  0.30173819  0.29507761  1
  Zr  Zr45  1  0.69265583  0.90483364  0.90217912  1
  Zr  Zr46  1  0.90367985  0.09705800  0.10183020  1
  Zr  Zr47  1  0.30255345  0.90087852  0.90458989  1
  Zr  Zr48  1  0.09956908  0.50444636  0.49795574  1
  Zr  Zr49  1  0.50073227  0.70239426  0.29313865  1
  Sc  Sc50  1  0.69994807  0.30217473  0.89376494  1
  Sc  Sc51  1  0.30295073  0.90444695  0.29979897  1
  Sc  Sc52  1  0.30117712  0.89910273  0.50619070  1
  Sc  Sc53  1  0.69610000  0.90288591  0.69613020  1
  Sc  Sc54  1  0.10912054  0.70817963  0.49347880  1
  Sc  Sc55  1  0.69883582  0.10294868  0.09248671  1
  Sc  Sc56  1  0.49537129  0.28872926  0.29852724  1
  Sc  Sc57  1  0.30267440  0.90642782  0.09673502  1
  Sc  Sc58  1  0.69511222  0.70531855  0.11083691  1
  Sc  Sc59  1  0.70275226  0.29436792  0.30059195  1
  Sc  Sc60  1  0.50116589  0.90451326  0.49980155  1
  Sc  Sc61  1  0.70551949  0.90460173  0.29643348  1
  Sc  Sc62  1  0.69750422  0.69456976  0.70092162  1
  Sc  Sc63  1  0.89543046  0.68899545  0.09993136  1
  Sc  Sc64  1  0.09814369  0.29302661  0.69951151  1
  Sc  Sc65  1  0.49437646  0.90507628  0.30406471  1
  Sc  Sc66  1  0.69352616  0.91222887  0.50206198  1
  Sc  Sc67  1  0.90488761  0.30614049  0.30355772  1
  Sc  Sc68  1  0.49678109  0.09993245  0.30226989  1
  Sc  Sc69  1  0.69734232  0.49791916  0.70239048  1
  Sc  Sc70  1  0.09155162  0.50117515  0.70332515  1
  Sc  Sc71  1  0.29519996  0.09827458  0.89544659  1
  Sc  Sc72  1  0.30463347  0.50377849  0.30060828  1
  Sc  Sc73  1  0.10411921  0.69962274  0.68825924  1
  Sc  Sc74  1  0.09849030  0.10606806  0.10629093  1
  Sc  Sc75  1  0.10324917  0.50174938  0.09754474  1
  Sc  Sc76  1  0.10990383  0.69476030  0.10399837  1
  Sc  Sc77  1  0.69488900  0.10549845  0.69666655  1
  Sc  Sc78  1  0.70013087  0.09998143  0.30612436  1
  Sc  Sc79  1  0.69354087  0.30337695  0.70011302  1
  Sc  Sc80  1  0.29994807  0.69566301  0.50317888  1
  Sc  Sc81  1  0.89583072  0.90020019  0.89379755  1
  Sc  Sc82  1  0.89372997  0.30268972  0.70103959  1
  Sc  Sc83  1  0.69835314  0.29812939  0.09679799  1
  Sc  Sc84  1  0.89739863  0.91244317  0.29676890  1
  Sc  Sc85  1  0.09552457  0.28662051  0.49649695  1
  Sc  Sc86  1  0.90049040  0.49382643  0.29370713  1
  Sc  Sc87  1  0.50259405  0.09725940  0.49830906  1
  Sc  Sc88  1  0.71147754  0.49761183  0.29627620  1
  Sc  Sc89  1  0.89622859  0.91291490  0.49288565  1
  Sc  Sc90  1  0.10794536  0.69528512  0.91337871  1
  Sc  Sc91  1  0.30362896  0.09712473  0.29834923  1
  Sc  Sc92  1  0.70645580  0.29558192  0.50527692  1
  Sc  Sc93  1  0.70363389  0.49525777  0.09400632  1
  Sc  Sc94  1  0.50025462  0.69163479  0.69800289  1
  Sc  Sc95  1  0.10167083  0.90806538  0.69616690  1
  Sc  Sc96  1  0.50220888  0.30596875  0.89100424  1
  Sc  Sc97  1  0.30516009  0.28834336  0.50636137  1
  Sc  Sc98  1  0.70223577  0.10185682  0.49740174  1
  Sc  Sc99  1  0.49860485  0.90120216  0.09513664  1
  Nb  Nb100  1  0.09584597  0.89658430  0.48630177  1
  Nb  Nb101  1  0.69772363  0.70345771  0.30080456  1
  Nb  Nb102  1  0.90291768  0.30437287  0.50136257  1
  Nb  Nb103  1  0.70019894  0.51050111  0.90078940  1
  Nb  Nb104  1  0.90613392  0.29565746  0.10278577  1
  Nb  Nb105  1  0.89792170  0.69907184  0.49872896  1
  Nb  Nb106  1  0.89545369  0.89849820  0.10350812  1
  Nb  Nb107  1  0.29522737  0.29829666  0.90105731  1
  Nb  Nb108  1  0.49991499  0.29554709  0.10821471  1
  Nb  Nb109  1  0.50107388  0.10368121  0.70999595  1
  Nb  Nb110  1  0.30730324  0.49976657  0.70151150  1
  Nb  Nb111  1  0.89419450  0.09894859  0.29652950  1
  Nb  Nb112  1  0.50631185  0.09326540  0.89992814  1
  Nb  Nb113  1  0.09206625  0.89254433  0.30798217  1
  Nb  Nb114  1  0.10252108  0.10044875  0.50217988  1
  Nb  Nb115  1  0.29755311  0.49622429  0.50277189  1
  Nb  Nb116  1  0.29856613  0.89582515  0.70207301  1
  Nb  Nb117  1  0.10125881  0.49495985  0.89416668  1
  Nb  Nb118  1  0.09910764  0.70907868  0.30227329  1
  Nb  Nb119  1  0.89736320  0.10173172  0.90046993  1
  Nb  Nb120  1  0.69688949  0.69698774  0.89849897  1
  Nb  Nb121  1  0.49019344  0.49321791  0.70883936  1
  Nb  Nb122  1  0.90507227  0.09515913  0.69899250  1
  Nb  Nb123  1  0.50517419  0.70156697  0.90265667  1
  Nb  Nb124  1  0.30988252  0.09782573  0.10141323  1
  Nb  Nb125  1  0.59700572  0.79674854  0.80601537  1
  Nb  Nb126  1  0.20116417  0.40205092  0.60102318  1
  Nb  Nb127  1  0.59508183  0.39576069  0.20222547  1
  Nb  Nb128  1  -0.00474682  0.80312156  0.59229052  1
  Nb  Nb129  1  0.60564025  0.79361791  0.39918886  1
  Nb  Nb130  1  0.00482381  0.79897340  0.79983906  1
  Nb  Nb131  1  0.20541149  0.40212222  0.79915562  1
  Nb  Nb132  1  0.00046289  0.80234079  0.20092552  1
  Nb  Nb133  1  -0.00494612  -0.00291857  0.00056079  1
  Nb  Nb134  1  0.59633156  0.40356174  0.39888699  1
  Nb  Nb135  1  0.59932545  0.00416083  0.19789666  1
  Nb  Nb136  1  0.80190587  0.00929464  0.79804647  1
  Nb  Nb137  1  0.79932964  0.79859666  -0.00156113  1
  Nb  Nb138  1  0.40037511  0.20107386  -0.00140516  1
  Nb  Nb139  1  -0.00647081  0.80323776  0.00232745  1
  Nb  Nb140  1  0.20311007  0.79777858  0.79814171  1
  Nb  Nb141  1  -0.00108656  0.60883601  0.39656073  1
  Nb  Nb142  1  -0.00776405  0.19258474  0.79979592  1
  Nb  Nb143  1  0.20637263  0.59604528  0.80048168  1
  Nb  Nb144  1  0.60134971  0.59765793  0.39670794  1
  Nb  Nb145  1  0.20251299  0.40014045  0.40703478  1
  Nb  Nb146  1  -0.00069791  0.39849134  0.59372599  1
  Nb  Nb147  1  0.79726780  0.79708939  0.40356761  1
  Nb  Nb148  1  0.80866842  0.19916083  0.19813249  1
  Nb  Nb149  1  0.80286291  0.79929792  0.59390107  1
  Pd  Pd150  1  0.39850726  0.80902772  0.19400023  1
  Pd  Pd151  1  0.00236350  0.60170602  0.00176395  1
  Pd  Pd152  1  0.40473721  0.00328104  0.60103240  1
  Pd  Pd153  1  0.59593375  0.00778875  0.60381605  1
  Pd  Pd154  1  0.19941056  0.59869543  0.39461587  1
  Pd  Pd155  1  0.39602801  0.00472358  0.80069327  1
  Pd  Pd156  1  0.59974542  0.40339295  0.59770894  1
  Pd  Pd157  1  0.79903698  0.20243482  0.60718789  1
  Pd  Pd158  1  0.39812778  0.19567197  0.40099437  1
  Pd  Pd159  1  0.40867640  0.38941970  -0.00302723  1
  Pd  Pd160  1  0.19579066  -0.00705218  0.59348495  1
  Pd  Pd161  1  0.59847600  0.39483910  -0.00015095  1
  Pd  Pd162  1  0.39393862  0.39370889  0.60301236  1
  Pd  Pd163  1  0.21319675  0.80545470  0.40173500  1
  Pd  Pd164  1  0.79428178  0.39200941  0.39802610  1
  Pd  Pd165  1  0.20512287  0.18882885  0.00435321  1
  Pd  Pd166  1  0.80165604  0.20662130  0.00430043  1
  Pd  Pd167  1  0.00223362  0.60643174  0.20140146  1
  Pd  Pd168  1  0.40344206  0.19396171  0.81094843  1
  Pd  Pd169  1  0.80201371  0.19710705  0.79319276  1
  Pd  Pd170  1  -0.00575090  0.00970959  0.40398724  1
  Pd  Pd171  1  0.59570751  0.58729337  0.60341325  1
  Pd  Pd172  1  0.80374101  -0.00475139  -0.00443427  1
  Pd  Pd173  1  0.20223441  0.59296478  0.60671023  1
  Pd  Pd174  1  0.79435803  0.40453205  0.80455372  1
  Pd  Pd175  1  0.40466441  0.80243467  0.59732246  1
  Pd  Pd176  1  0.20259132  -0.00542726  0.39891016  1
  Pd  Pd177  1  0.60244045  0.20467327  0.40095351  1
  Pd  Pd178  1  0.01327383  0.61226389  0.80420532  1
  Pd  Pd179  1  0.79270387  0.80823979  0.79696430  1
  Pd  Pd180  1  0.19525802  0.00949655  0.00683738  1
  Pd  Pd181  1  0.79736241  0.39384147  -0.00488276  1
  Pd  Pd182  1  0.19964407  -0.00094133  0.20593698  1
  Pd  Pd183  1  0.59238891  0.20837046  -0.00754489  1
  Pd  Pd184  1  0.39768389  0.60298119  0.19307832  1
  Pd  Pd185  1  0.40186173  0.79856990  0.40508831  1
  Pd  Pd186  1  0.00470297  -0.00334272  0.58603636  1
  Pd  Pd187  1  0.40129460  0.60757799  0.40320614  1
  Pd  Pd188  1  0.19770506  0.80741984  0.19944656  1
  Pd  Pd189  1  0.19971100  0.40610439  0.20586972  1
  Pd  Pd190  1  0.20170623  0.20361679  0.39642662  1
  Pd  Pd191  1  0.00598224  0.40478827  0.00392790  1
  Pd  Pd192  1  0.79349697  0.59766056  0.19555014  1
  Pd  Pd193  1  0.40443234  0.79541591  0.79941519  1
  Pd  Pd194  1  0.00102594  0.60354428  0.59153422  1
  Pd  Pd195  1  0.20298442  0.19384948  0.20326647  1
  Pd  Pd196  1  -0.00489604  0.19504643  0.39581226  1
  Pd  Pd197  1  0.60663197  0.58787231  0.20233752  1
  Pd  Pd198  1  0.39776369  0.39169155  0.40252854  1
  Pd  Pd199  1  0.60612408  0.60361707  0.00828820  1
  Rh  Rh200  1  0.80178034  0.60197994  0.39042901  1
  Rh  Rh201  1  0.40369803  0.39631961  0.19848488  1
  Rh  Rh202  1  0.19088794  0.80943934  0.60134554  1
  Rh  Rh203  1  0.79119740  0.60502156  0.00389463  1
  Rh  Rh204  1  0.79664743  0.38680880  0.19545026  1
  Rh  Rh205  1  0.40773224  0.18785038  0.60211748  1
  Rh  Rh206  1  0.80848811  0.20160402  0.39471165  1
  Rh  Rh207  1  0.59842987  0.20020295  0.80164435  1
  Rh  Rh208  1  0.39530683  0.00260301  0.40536108  1
  Rh  Rh209  1  0.80664562  0.39910866  0.60179365  1
  Rh  Rh210  1  0.19983550  0.80240573  -0.00215606  1
  Rh  Rh211  1  0.40128926  0.60355106  0.79856306  1
  Rh  Rh212  1  0.39896190  0.59791712  0.60172223  1
  Rh  Rh213  1  0.20127083  0.58863918  -0.00586199  1
  Rh  Rh214  1  -0.00274580  0.20446153  0.60542589  1
  Rh  Rh215  1  0.59983055  -0.00679246  0.39081426  1
  Rh  Rh216  1  0.00528889  0.40724953  0.40701062  1
  Rh  Rh217  1  0.00702828  0.38762015  0.79240753  1
  Rh  Rh218  1  0.00006418  0.19254198  -0.00620036  1
  Rh  Rh219  1  0.60376815  0.80341149  0.60364230  1
  Rh  Rh220  1  0.40707794  0.60447120  0.00671312  1
  Rh  Rh221  1  0.39942582  0.79821451  0.00428067  1
  Rh  Rh222  1  -0.00858374  0.00100778  0.80857480  1
  Rh  Rh223  1  0.39670523  0.39500087  0.80213366  1
  Rh  Rh224  1  0.59423566  0.00303996  0.00932815  1
  Rh  Rh225  1  0.59845502  0.60175637  0.79619829  1
  Rh  Rh226  1  0.60414683  -0.00250285  0.79494889  1
  Rh  Rh227  1  0.19278957  0.20284076  0.79674897  1
  Rh  Rh228  1  0.40781137  0.00002307  0.19798057  1
  Rh  Rh229  1  0.19687174  0.20172644  0.59937610  1
  Rh  Rh230  1  -0.00567508  0.20139421  0.20865317  1
  Rh  Rh231  1  0.79269367  0.59238280  0.79737790  1
  Rh  Rh232  1  0.20190128  0.59983523  0.20487399  1
  Rh  Rh233  1  0.61232582  0.19900658  0.20300700  1
  Rh  Rh234  1  0.59810442  0.19620595  0.60087348  1
  Rh  Rh235  1  0.59518762  0.81568676  0.21117971  1
  Rh  Rh236  1  0.78969093  0.01282958  0.19754442  1
  Rh  Rh237  1  0.20956638  -0.00659933  0.79443573  1
  Rh  Rh238  1  0.80144023  0.60004550  0.60984387  1
  Rh  Rh239  1  0.39171967  0.20117106  0.19525302  1
  Rh  Rh240  1  0.00284939  -0.00540075  0.19929367  1
  Rh  Rh241  1  0.00061970  0.40035144  0.19287808  1
  Rh  Rh242  1  -0.01049722  0.79725013  0.39839273  1
  Rh  Rh243  1  0.40279729  0.01161492  -0.00165612  1
  Rh  Rh244  1  0.79607623  0.00163706  0.60382576  1
  Rh  Rh245  1  0.60673780  0.79666877  -0.00576339  1
  Rh  Rh246  1  0.60201764  0.40852109  0.80137503  1
  Rh  Rh247  1  0.79850785  0.00201237  0.40187594  1
  Rh  Rh248  1  0.19631650  0.40439119  -0.00663767  1
  Rh  Rh249  1  0.80567848  0.79926755  0.20002603  1
