# generated using pymatgen
data_ZrScNbPdRh
_symmetry_space_group_name_H-M   'P 1'
_cell_length_a   16.56326899
_cell_length_b   16.56781434
_cell_length_c   16.56341729
_cell_angle_alpha   90.01459113
_cell_angle_beta   90.01697311
_cell_angle_gamma   89.97477305
_symmetry_Int_Tables_number   1
_chemical_formula_structural   ZrScNbPdRh
_chemical_formula_sum   'Zr50 Sc50 Nb50 Pd50 Rh50'
_cell_volume   4545.28523651
_cell_formula_units_Z   50
loop_
 _symmetry_equiv_pos_site_id
 _symmetry_equiv_pos_as_xyz
  1  'x, y, z'
loop_
 _atom_site_type_symbol
 _atom_site_label
 _atom_site_symmetry_multiplicity
 _atom_site_fract_x
 _atom_site_fract_y
 _atom_site_fract_z
 _atom_site_occupancy
  Zr  Zr0  1  0.49559099  0.10108675  0.88995515  1
  Zr  Zr1  1  0.08971209  0.89342164  0.90080797  1
  Zr  Zr2  1  0.09927775  0.30278353  0.71362622  1
  Zr  Zr3  1  0.10422157  0.10385468  0.90883114  1
  Zr  Zr4  1  0.90384453  0.29710393  0.29787760  1
  Zr  Zr5  1  0.69614215  0.69899529  0.49545650  1
  Zr  Zr6  1  0.29154968  0.69790188  0.09557823  1
  Zr  Zr7  1  0.30277438  0.69613212  0.50107027  1
  Zr  Zr8  1  0.89995939  0.10107057  0.30313732  1
  Zr  Zr9  1  0.69403167  0.08997603  0.29728068  1
  Zr  Zr10  1  0.50006564  0.29811475  0.90594745  1
  Zr  Zr11  1  0.29971566  0.49859910  0.70541816  1
  Zr  Zr12  1  0.69154417  0.29496880  0.08662069  1
  Zr  Zr13  1  0.50392137  0.69152631  0.29937411  1
  Zr  Zr14  1  0.70272126  0.89717917  0.30447717  1
  Zr  Zr15  1  0.09319598  0.69757908  0.49429915  1
  Zr  Zr16  1  0.70451748  0.29497729  0.30783754  1
  Zr  Zr17  1  0.68922324  0.30202652  0.89550016  1
  Zr  Zr18  1  0.29990964  0.89575044  0.49984787  1
  Zr  Zr19  1  0.50986889  0.90221695  0.71317224  1
  Zr  Zr20  1  0.70310964  0.10752605  0.50627540  1
  Zr  Zr21  1  0.48554140  0.09527795  0.10451134  1
  Zr  Zr22  1  0.90107388  0.50580569  0.09641256  1
  Zr  Zr23  1  0.10294817  0.29809853  0.49590882  1
  Zr  Zr24  1  0.30178050  0.50017259  0.49399830  1
  Zr  Zr25  1  0.50467408  0.10100825  0.50074163  1
  Zr  Zr26  1  0.30278912  0.09522849  0.71326218  1
  Zr  Zr27  1  0.30076274  0.90420864  0.89921656  1
  Zr  Zr28  1  0.28865263  0.09612583  0.09536099  1
  Zr  Zr29  1  0.49832123  0.50219322  0.49901536  1
  Zr  Zr30  1  0.90194187  0.50644117  0.29693228  1
  Zr  Zr31  1  0.49662483  0.29359571  0.48840582  1
  Zr  Zr32  1  0.90305859  0.10498037  0.50165469  1
  Zr  Zr33  1  0.69981435  0.49722880  0.90046540  1
  Zr  Zr34  1  0.09604817  0.50101265  0.90153636  1
  Zr  Zr35  1  0.90231336  0.51114400  0.50134896  1
  Zr  Zr36  1  0.48892498  0.69974922  0.09883678  1
  Zr  Zr37  1  0.30520425  0.90532058  0.09848265  1
  Zr  Zr38  1  0.89276038  0.10008179  0.69981561  1
  Zr  Zr39  1  0.89831661  0.50968422  0.69450719  1
  Zr  Zr40  1  0.49726117  0.48517463  0.90434096  1
  Zr  Zr41  1  0.30673475  0.69303673  0.70131991  1
  Zr  Zr42  1  0.50236429  0.90942627  0.29808390  1
  Zr  Zr43  1  0.70086154  0.50102913  0.50589078  1
  Zr  Zr44  1  0.09722749  0.89578035  0.29297786  1
  Zr  Zr45  1  0.29489731  0.90028214  0.70091263  1
  Zr  Zr46  1  0.90235693  0.90060914  0.49558632  1
  Zr  Zr47  1  0.69833981  0.70049465  0.29837438  1
  Zr  Zr48  1  0.70090759  0.90273651  0.10517616  1
  Zr  Zr49  1  0.69616532  0.09970076  0.70149290  1
  Sc  Sc50  1  0.10543159  0.90015785  0.70499132  1
  Sc  Sc51  1  0.29911643  0.09931702  0.90466666  1
  Sc  Sc52  1  0.70036380  0.50940084  0.10139946  1
  Sc  Sc53  1  0.70186469  0.51234239  0.29996788  1
  Sc  Sc54  1  0.50476838  0.69243910  0.50131696  1
  Sc  Sc55  1  0.90630742  0.89836596  0.09353506  1
  Sc  Sc56  1  0.30031152  0.69981331  0.90234492  1
  Sc  Sc57  1  0.29973833  0.69807516  0.29905457  1
  Sc  Sc58  1  0.69936849  0.49854431  0.69904004  1
  Sc  Sc59  1  0.10219142  0.10077418  0.70827288  1
  Sc  Sc60  1  0.09947804  0.28361932  0.09711538  1
  Sc  Sc61  1  0.09672818  0.70384907  0.70339194  1
  Sc  Sc62  1  0.10675749  0.50735036  0.29599328  1
  Sc  Sc63  1  0.30475977  0.30122325  0.30702587  1
  Sc  Sc64  1  0.11303423  0.30246640  0.29718882  1
  Sc  Sc65  1  0.30376156  0.89685563  0.30086879  1
  Sc  Sc66  1  0.69470299  0.70071941  0.69378088  1
  Sc  Sc67  1  0.49202863  0.49575322  0.10193109  1
  Sc  Sc68  1  0.70673334  0.69513243  0.10305605  1
  Sc  Sc69  1  0.89328453  0.29662185  0.49705509  1
  Sc  Sc70  1  0.90251071  0.70061329  0.10024620  1
  Sc  Sc71  1  0.90622484  0.69939599  0.29611431  1
  Sc  Sc72  1  0.29784828  0.49654747  0.10046911  1
  Sc  Sc73  1  0.90881035  0.70109236  0.90327990  1
  Sc  Sc74  1  0.69769877  0.30691187  0.69827978  1
  Sc  Sc75  1  0.49490783  0.10160445  0.30540547  1
  Sc  Sc76  1  0.90117021  0.50571551  0.89464706  1
  Sc  Sc77  1  0.49091871  0.30397180  0.09397417  1
  Sc  Sc78  1  0.30116209  0.10245264  0.49362522  1
  Sc  Sc79  1  0.69852245  0.10359454  0.90321559  1
  Sc  Sc80  1  0.90939364  0.29002596  0.09375814  1
  Sc  Sc81  1  0.70342838  0.91144749  0.70129446  1
  Sc  Sc82  1  0.30021752  0.29919827  0.10640176  1
  Sc  Sc83  1  0.90397024  0.90958549  0.70427412  1
  Sc  Sc84  1  0.90542057  0.09142805  0.90191347  1
  Sc  Sc85  1  0.29694834  0.50111056  0.89915111  1
  Sc  Sc86  1  0.69687377  0.09758697  0.09418747  1
  Sc  Sc87  1  0.09819116  0.10348580  0.29156816  1
  Sc  Sc88  1  0.71172062  0.69933844  0.90517854  1
  Sc  Sc89  1  0.91061628  0.30680201  0.69950444  1
  Sc  Sc90  1  0.89865019  0.89944714  0.29695567  1
  Sc  Sc91  1  0.91100379  0.09867318  0.09616603  1
  Sc  Sc92  1  0.50133421  0.29825092  0.71746167  1
  Sc  Sc93  1  0.30028781  0.10221263  0.29229070  1
  Sc  Sc94  1  0.10133903  0.50687910  0.49730787  1
  Sc  Sc95  1  0.49185932  0.50045890  0.29903707  1
  Sc  Sc96  1  0.29491874  0.48941000  0.29644532  1
  Sc  Sc97  1  0.09512435  0.50007867  0.70400649  1
  Sc  Sc98  1  0.10308845  0.89005945  0.50243356  1
  Sc  Sc99  1  0.49748013  0.50413031  0.69598875  1
  Nb  Nb100  1  0.10363033  0.10198800  0.49787335  1
  Nb  Nb101  1  0.50187271  0.89598816  0.90305486  1
  Nb  Nb102  1  0.29826686  0.29995456  0.49739513  1
  Nb  Nb103  1  0.50031529  0.70227292  0.70365358  1
  Nb  Nb104  1  0.91044335  0.29742750  0.89762719  1
  Nb  Nb105  1  0.49886008  0.09906595  0.70053224  1
  Nb  Nb106  1  0.49784810  0.89928256  0.50200953  1
  Nb  Nb107  1  0.49952758  0.29844373  0.29719210  1
  Nb  Nb108  1  0.70169711  0.89610381  0.50063474  1
  Nb  Nb109  1  0.10088133  0.70168524  0.10238620  1
  Nb  Nb110  1  0.09715186  0.69826744  0.28574626  1
  Nb  Nb111  1  0.10535844  0.50154090  0.10141555  1
  Nb  Nb112  1  0.10392291  0.08984399  0.09849969  1
  Nb  Nb113  1  0.29688548  0.30640303  0.89201554  1
  Nb  Nb114  1  0.10359444  0.90182927  0.10097814  1
  Nb  Nb115  1  0.29756362  0.30183707  0.70410510  1
  Nb  Nb116  1  0.10172762  0.70157199  0.91170039  1
  Nb  Nb117  1  0.69576191  0.30059699  0.49591738  1
  Nb  Nb118  1  0.89704626  0.89795629  0.89735926  1
  Nb  Nb119  1  0.49647809  0.89922193  0.09805650  1
  Nb  Nb120  1  0.89728444  0.70370376  0.69564283  1
  Nb  Nb121  1  0.49812594  0.70811183  0.89744975  1
  Nb  Nb122  1  0.90441816  0.69697871  0.51320636  1
  Nb  Nb123  1  0.09404981  0.30118016  0.89875892  1
  Nb  Nb124  1  0.70159702  0.90295334  0.89990062  1
  Nb  Nb125  1  0.19103650  0.39472284  -0.00498200  1
  Nb  Nb126  1  0.59779110  0.80145523  -0.00022715  1
  Nb  Nb127  1  0.59122865  0.60683152  -0.00608068  1
  Nb  Nb128  1  0.39283551  0.38872794  0.59979192  1
  Nb  Nb129  1  0.39627323  0.19998077  0.60686410  1
  Nb  Nb130  1  0.79560444  0.20119673  0.19791135  1
  Nb  Nb131  1  -0.00078518  0.40394358  0.39446975  1
  Nb  Nb132  1  0.60286381  0.39656211  0.39841043  1
  Nb  Nb133  1  0.40580700  -0.00093537  0.60271140  1
  Nb  Nb134  1  0.00524659  0.00587089  0.59413138  1
  Nb  Nb135  1  0.20598230  0.20477721  0.60236580  1
  Nb  Nb136  1  0.80385551  0.80131705  0.59854829  1
  Nb  Nb137  1  0.80452108  0.20507285  0.80416165  1
  Nb  Nb138  1  0.59260348  -0.00929917  -0.00205678  1
  Nb  Nb139  1  0.19468403  -0.00041014  0.39987845  1
  Nb  Nb140  1  0.40866980  0.80341200  0.60375345  1
  Nb  Nb141  1  0.20472615  0.39463012  0.60089780  1
  Nb  Nb142  1  0.80546836  0.80361071  0.79826840  1
  Nb  Nb143  1  0.00090699  0.40250018  0.19748701  1
  Nb  Nb144  1  0.60424542  0.39334313  0.20497569  1
  Nb  Nb145  1  0.59272361  0.60743740  0.80681248  1
  Nb  Nb146  1  0.80396870  0.39428364  -0.00139450  1
  Nb  Nb147  1  0.80040324  0.39353452  0.19365402  1
  Nb  Nb148  1  0.59599806  0.80318686  0.19452402  1
  Nb  Nb149  1  0.59820793  0.20293059  0.20035582  1
  Pd  Pd150  1  0.59122883  0.80234666  0.39567608  1
  Pd  Pd151  1  0.80135423  0.40581529  0.39753746  1
  Pd  Pd152  1  -0.00202264  0.81068407  0.60859550  1
  Pd  Pd153  1  0.79981896  0.21327679  0.60964145  1
  Pd  Pd154  1  0.00960395  0.19600418  0.60676442  1
  Pd  Pd155  1  0.59335248  0.21067374  0.60874760  1
  Pd  Pd156  1  0.60213974  0.80452645  0.60146866  1
  Pd  Pd157  1  0.00318863  0.60556687  0.00414757  1
  Pd  Pd158  1  0.79687272  0.00443265  0.40572710  1
  Pd  Pd159  1  0.20173610  0.19777035  0.80402838  1
  Pd  Pd160  1  0.58871430  0.39367068  0.59776311  1
  Pd  Pd161  1  0.40684736  0.59472181  0.80847684  1
  Pd  Pd162  1  0.59941557  -0.00532428  0.59578777  1
  Pd  Pd163  1  0.39911292  0.59667608  -0.00587029  1
  Pd  Pd164  1  0.20350647  0.78931415  0.60321986  1
  Pd  Pd165  1  0.20119564  0.00916350  0.59471559  1
  Pd  Pd166  1  0.40152266  0.80083340  0.20333863  1
  Pd  Pd167  1  -0.00205903  0.79360183  0.39415163  1
  Pd  Pd168  1  0.40836519  0.79254727  0.40381905  1
  Pd  Pd169  1  0.00503904  0.00363359  0.79796516  1
  Pd  Pd170  1  0.00056507  0.39850956  0.00529773  1
  Pd  Pd171  1  0.20071113  0.80590574  -0.00036931  1
  Pd  Pd172  1  0.00665143  0.40347168  0.59007678  1
  Pd  Pd173  1  0.80031296  0.80111396  -0.00216209  1
  Pd  Pd174  1  -0.00335880  -0.00194873  0.19672160  1
  Pd  Pd175  1  0.20083590  0.60363844  0.39163428  1
  Pd  Pd176  1  0.79340712  0.60966821  0.79483351  1
  Pd  Pd177  1  0.81003617  0.00647744  0.19283699  1
  Pd  Pd178  1  0.39188407  0.20297452  -0.00237932  1
  Pd  Pd179  1  0.01009466  -0.00167196  0.40321531  1
  Pd  Pd180  1  0.19532800  0.79968090  0.39302466  1
  Pd  Pd181  1  0.80805559  0.39413347  0.80345594  1
  Pd  Pd182  1  0.20493245  0.80218078  0.20012717  1
  Pd  Pd183  1  0.39521726  0.80329965  0.79687857  1
  Pd  Pd184  1  0.80826140  0.20097741  -0.00450119  1
  Pd  Pd185  1  0.00790541  0.20631194  0.39397049  1
  Pd  Pd186  1  0.39280366  0.00368057  0.40189725  1
  Pd  Pd187  1  0.19335613  0.60519444  0.80455058  1
  Pd  Pd188  1  0.19902949  0.79224534  0.80434571  1
  Pd  Pd189  1  0.61530389  0.79359918  0.80681774  1
  Pd  Pd190  1  0.81060882  0.79098133  0.40463123  1
  Pd  Pd191  1  0.80421707  0.39568297  0.59849389  1
  Pd  Pd192  1  0.00300587  0.60792766  0.79862292  1
  Pd  Pd193  1  0.80555745  0.60978289  0.40135283  1
  Pd  Pd194  1  0.20231883  0.20151160  0.19994655  1
  Pd  Pd195  1  0.80126369  0.79803854  0.19815973  1
  Pd  Pd196  1  0.60476061  -0.00170334  0.41052357  1
  Pd  Pd197  1  0.79830963  0.00170104  0.00025295  1
  Pd  Pd198  1  0.38952975  0.59388145  0.20258158  1
  Pd  Pd199  1  0.19352848  0.59655435  0.60430803  1
  Rh  Rh200  1  0.59991143  0.58903234  0.39942728  1
  Rh  Rh201  1  0.00615020  0.59818282  0.19379386  1
  Rh  Rh202  1  0.60781904  0.19677344  0.79744700  1
  Rh  Rh203  1  0.19304976  -0.00150764  0.81093314  1
  Rh  Rh204  1  0.79598966  0.19054140  0.39829606  1
  Rh  Rh205  1  0.58213185  0.18311792  0.00693530  1
  Rh  Rh206  1  0.40388194  0.60326584  0.60013534  1
  Rh  Rh207  1  0.19702263  0.59428133  0.00067815  1
  Rh  Rh208  1  0.40544228  0.40164067  0.40063729  1
  Rh  Rh209  1  0.80598817  -0.00756945  0.59114468  1
  Rh  Rh210  1  0.59326969  0.00282066  0.19161091  1
  Rh  Rh211  1  -0.00001853  0.19949627  0.19954171  1
  Rh  Rh212  1  0.00229927  0.60203768  0.39508945  1
  Rh  Rh213  1  0.00181551  0.80010943  0.00449471  1
  Rh  Rh214  1  -0.00700904  0.19394590  0.80278690  1
  Rh  Rh215  1  0.19129665  0.39613462  0.18766400  1
  Rh  Rh216  1  0.39355161  -0.00095714  0.20430507  1
  Rh  Rh217  1  0.40209810  0.20243661  0.20172229  1
  Rh  Rh218  1  0.60671272  0.41503195  0.01309914  1
  Rh  Rh219  1  -0.00514321  0.79675142  0.80117895  1
  Rh  Rh220  1  0.59443202  0.60050887  0.19156181  1
  Rh  Rh221  1  0.40413508  0.39696287  0.20187164  1
  Rh  Rh222  1  0.19195543  0.40603435  0.40623244  1
  Rh  Rh223  1  0.20048085  -0.00464305  0.20574423  1
  Rh  Rh224  1  0.19538059  0.40433436  0.80367276  1
  Rh  Rh225  1  0.39589727  0.80147694  -0.00240166  1
  Rh  Rh226  1  0.39540629  0.20392738  0.80234867  1
  Rh  Rh227  1  0.38171123  0.39537284  -0.00065182  1
  Rh  Rh228  1  0.00791409  0.60106450  0.60709122  1
  Rh  Rh229  1  0.80299479  0.60179566  0.20002180  1
  Rh  Rh230  1  0.40229292  0.40041160  0.79792172  1
  Rh  Rh231  1  0.19392994  -0.00806015  -0.00324512  1
  Rh  Rh232  1  0.79215228  0.60701179  0.60220304  1
  Rh  Rh233  1  0.60359178  0.00603061  0.80965172  1
  Rh  Rh234  1  0.59979820  0.59931984  0.60788293  1
  Rh  Rh235  1  0.39583284  0.19609226  0.39814614  1
  Rh  Rh236  1  0.20397391  0.20985043  -0.00439388  1
  Rh  Rh237  1  0.20231704  0.19061498  0.39888303  1
  Rh  Rh238  1  0.00517581  -0.00611596  0.00132259  1
  Rh  Rh239  1  0.00322550  0.19251424  -0.00230623  1
  Rh  Rh240  1  -0.00656442  0.40877774  0.80081909  1
  Rh  Rh241  1  0.79929458  0.59367910  -0.00342750  1
  Rh  Rh242  1  0.39507718  0.59909467  0.39454329  1
  Rh  Rh243  1  0.20285823  0.60206075  0.19824679  1
  Rh  Rh244  1  0.59490042  0.41218736  0.79143059  1
  Rh  Rh245  1  0.40428502  -0.00082731  -0.00756262  1
  Rh  Rh246  1  0.79713981  0.00384957  0.80827666  1
  Rh  Rh247  1  0.60294289  0.19780999  0.39397899  1
  Rh  Rh248  1  0.40212378  -0.00615804  0.80081525  1
  Rh  Rh249  1  0.00060752  0.80007804  0.19367182  1
