# generated using pymatgen
data_ZrScNbPdRh
_symmetry_space_group_name_H-M   'P 1'
_cell_length_a   16.56079659
_cell_length_b   16.55700987
_cell_length_c   16.55599664
_cell_angle_alpha   90.01318345
_cell_angle_beta   89.98216211
_cell_angle_gamma   89.98938783
_symmetry_Int_Tables_number   1
_chemical_formula_structural   ZrScNbPdRh
_chemical_formula_sum   'Zr50 Sc50 Nb50 Pd50 Rh50'
_cell_volume   4539.60870544
_cell_formula_units_Z   50
loop_
 _symmetry_equiv_pos_site_id
 _symmetry_equiv_pos_as_xyz
  1  'x, y, z'
loop_
 _atom_site_type_symbol
 _atom_site_label
 _atom_site_symmetry_multiplicity
 _atom_site_fract_x
 _atom_site_fract_y
 _atom_site_fract_z
 _atom_site_occupancy
  Zr  Zr0  1  0.49565303  0.69805429  0.50709322  1
  Zr  Zr1  1  0.09980393  0.70132339  0.50432243  1
  Zr  Zr2  1  0.50145696  0.29416085  0.09336606  1
  Zr  Zr3  1  0.29612956  0.29567433  0.70277534  1
  Zr  Zr4  1  0.70660941  0.28999981  0.70394561  1
  Zr  Zr5  1  0.50984090  0.70057687  0.30038090  1
  Zr  Zr6  1  0.49279265  0.09352820  0.29842510  1
  Zr  Zr7  1  0.49716448  0.50157767  0.69527760  1
  Zr  Zr8  1  0.50404807  0.89823475  0.28766099  1
  Zr  Zr9  1  0.90043355  0.31341601  0.69720746  1
  Zr  Zr10  1  0.30267844  0.69108207  0.09694367  1
  Zr  Zr11  1  0.29601349  0.71426489  0.50571384  1
  Zr  Zr12  1  0.50637890  0.10141198  0.89769032  1
  Zr  Zr13  1  0.70096571  0.89918768  0.70423104  1
  Zr  Zr14  1  0.70154086  0.70016799  0.89771759  1
  Zr  Zr15  1  0.49599521  0.70019668  0.89883149  1
  Zr  Zr16  1  0.29624626  0.10045494  0.29980835  1
  Zr  Zr17  1  0.89876732  0.70406464  0.90745294  1
  Zr  Zr18  1  0.70073933  0.09988633  0.70094894  1
  Zr  Zr19  1  0.69866374  0.90030081  0.29518261  1
  Zr  Zr20  1  0.70204562  0.89746014  0.10352870  1
  Zr  Zr21  1  0.09457548  0.69815902  0.10417677  1
  Zr  Zr22  1  0.70021345  0.30121281  0.50218061  1
  Zr  Zr23  1  0.10429795  0.70091682  0.70870998  1
  Zr  Zr24  1  0.29870699  0.69909041  0.89312784  1
  Zr  Zr25  1  0.89362618  0.50191053  0.89361474  1
  Zr  Zr26  1  0.29588299  0.90617729  0.31279539  1
  Zr  Zr27  1  0.70187937  0.10361567  0.88681946  1
  Zr  Zr28  1  0.89240273  0.10283422  0.29008736  1
  Zr  Zr29  1  0.29393967  0.08772088  0.50328337  1
  Zr  Zr30  1  0.50096326  0.50496794  0.89098162  1
  Zr  Zr31  1  0.90670403  0.09401940  0.50010518  1
  Zr  Zr32  1  0.08518782  0.50326780  0.70116199  1
  Zr  Zr33  1  0.70211489  0.70036760  0.30268146  1
  Zr  Zr34  1  0.69640966  0.50561330  0.30750304  1
  Zr  Zr35  1  0.49030831  0.50639776  0.10402205  1
  Zr  Zr36  1  0.49631874  0.10063766  0.10469770  1
  Zr  Zr37  1  0.49703442  0.10271595  0.51066763  1
  Zr  Zr38  1  0.89492824  0.10327675  0.70081163  1
  Zr  Zr39  1  0.09400813  0.89534695  0.89780872  1
  Zr  Zr40  1  0.10840759  0.10036492  0.29665661  1
  Zr  Zr41  1  0.29290237  0.50294098  0.09738564  1
  Zr  Zr42  1  0.90405426  0.68350649  0.70428424  1
  Zr  Zr43  1  0.90669558  0.89764281  0.50266321  1
  Zr  Zr44  1  0.28939004  0.30961368  0.89507188  1
  Zr  Zr45  1  0.70625743  0.49979737  0.70384342  1
  Zr  Zr46  1  0.30254645  0.50267895  0.29251530  1
  Zr  Zr47  1  0.69992560  0.30200497  0.90557500  1
  Zr  Zr48  1  0.09826091  0.90125751  0.29323072  1
  Zr  Zr49  1  0.89890860  0.70766780  0.49790804  1
  Sc  Sc50  1  0.49461230  0.31051706  0.30621827  1
  Sc  Sc51  1  0.10187497  0.31011479  0.49413256  1
  Sc  Sc52  1  0.09546111  0.08536609  0.90200469  1
  Sc  Sc53  1  0.29748116  0.50205365  0.89849174  1
  Sc  Sc54  1  0.30290495  0.29825797  0.50847900  1
  Sc  Sc55  1  0.90163214  0.90307527  0.09523543  1
  Sc  Sc56  1  0.69537946  0.70106823  0.69747484  1
  Sc  Sc57  1  0.08972690  0.90774033  0.09354854  1
  Sc  Sc58  1  0.48405807  0.89660378  0.49675608  1
  Sc  Sc59  1  0.50832049  0.29483513  0.89562085  1
  Sc  Sc60  1  0.89818712  0.30663703  0.10734682  1
  Sc  Sc61  1  0.69892282  0.49938093  0.90044411  1
  Sc  Sc62  1  0.09681104  0.70386211  0.29964171  1
  Sc  Sc63  1  0.89909157  0.09562054  0.89664145  1
  Sc  Sc64  1  0.71326549  0.88796014  0.49832095  1
  Sc  Sc65  1  0.30537503  0.49995557  0.51190073  1
  Sc  Sc66  1  0.50242685  0.50212400  0.30436754  1
  Sc  Sc67  1  0.09690441  0.89898223  0.49312872  1
  Sc  Sc68  1  0.30286936  0.10019245  0.89109285  1
  Sc  Sc69  1  0.90516110  0.30697945  0.29755447  1
  Sc  Sc70  1  0.49787873  0.49525349  0.49826572  1
  Sc  Sc71  1  0.90439814  0.69587006  0.29750562  1
  Sc  Sc72  1  0.08675037  0.30682153  0.09221658  1
  Sc  Sc73  1  0.30958795  0.89159576  0.09145681  1
  Sc  Sc74  1  0.89674633  0.30493651  0.49924079  1
  Sc  Sc75  1  0.89698807  0.49305165  0.51309019  1
  Sc  Sc76  1  0.49188297  0.70401870  0.10242944  1
  Sc  Sc77  1  0.30128619  0.29764909  0.10201656  1
  Sc  Sc78  1  0.30118682  0.89802632  0.89272236  1
  Sc  Sc79  1  0.90305780  0.90101067  0.90000304  1
  Sc  Sc80  1  0.70946586  0.89843444  0.89396506  1
  Sc  Sc81  1  0.71219801  0.09143968  0.11637541  1
  Sc  Sc82  1  0.29388383  0.70272242  0.29632689  1
  Sc  Sc83  1  0.71036474  0.50077794  0.09268481  1
  Sc  Sc84  1  0.71430338  0.30573617  0.30622266  1
  Sc  Sc85  1  0.71364980  0.10620074  0.50392997  1
  Sc  Sc86  1  0.70621388  0.69149895  0.09443235  1
  Sc  Sc87  1  0.49815035  0.10392507  0.70447176  1
  Sc  Sc88  1  0.11190762  0.09534255  0.69790453  1
  Sc  Sc89  1  0.50095075  0.89766366  0.88844093  1
  Sc  Sc90  1  0.50078157  0.69797620  0.70087442  1
  Sc  Sc91  1  0.29568412  0.29538178  0.29883925  1
  Sc  Sc92  1  0.90207656  0.30465924  0.90611620  1
  Sc  Sc93  1  0.90611297  0.89716054  0.30415043  1
  Sc  Sc94  1  0.69983393  0.69432953  0.49388365  1
  Sc  Sc95  1  0.29950910  0.10699404  0.10379608  1
  Sc  Sc96  1  0.30527337  0.50129472  0.70736984  1
  Sc  Sc97  1  0.89774159  0.49569424  0.29599398  1
  Sc  Sc98  1  0.50219971  0.89414960  0.70085638  1
  Sc  Sc99  1  0.09242386  0.09607812  0.10077841  1
  Nb  Nb100  1  0.10146737  0.10841790  0.49910501  1
  Nb  Nb101  1  0.10373889  0.30028783  0.70247292  1
  Nb  Nb102  1  0.69601013  0.49262719  0.49457292  1
  Nb  Nb103  1  0.90537910  0.90598506  0.69738190  1
  Nb  Nb104  1  0.89928678  0.10376202  0.10152602  1
  Nb  Nb105  1  0.10213830  0.49788191  0.49940638  1
  Nb  Nb106  1  0.50085670  0.29741339  0.50434308  1
  Nb  Nb107  1  0.49763078  0.29640016  0.68426838  1
  Nb  Nb108  1  0.29769457  0.89754160  0.50081884  1
  Nb  Nb109  1  0.09516862  0.69941286  0.89807551  1
  Nb  Nb110  1  0.90160208  0.51006933  0.09985093  1
  Nb  Nb111  1  0.69968156  0.09937260  0.30224332  1
  Nb  Nb112  1  0.29155686  0.90044097  0.69220246  1
  Nb  Nb113  1  0.09583602  0.90108027  0.71337792  1
  Nb  Nb114  1  0.89509508  0.49843669  0.70348043  1
  Nb  Nb115  1  0.09639708  0.30885270  0.30354421  1
  Nb  Nb116  1  0.09885334  0.49077773  0.30814423  1
  Nb  Nb117  1  0.10107072  0.50218494  0.10236199  1
  Nb  Nb118  1  0.10419818  0.49124827  0.90895017  1
  Nb  Nb119  1  0.69881226  0.30090046  0.09874854  1
  Nb  Nb120  1  0.90031712  0.69754593  0.10186306  1
  Nb  Nb121  1  0.29932781  0.09964949  0.69128610  1
  Nb  Nb122  1  0.10327426  0.30520218  0.89812528  1
  Nb  Nb123  1  0.50595385  0.89895432  0.09877852  1
  Nb  Nb124  1  0.29693600  0.70468257  0.69658502  1
  Nb  Nb125  1  0.59842452  0.80446715  0.00085668  1
  Nb  Nb126  1  0.19714514  0.80185480  0.19055774  1
  Nb  Nb127  1  0.19123453  0.20361105  -0.00731206  1
  Nb  Nb128  1  0.39413356  0.60557259  0.40278569  1
  Nb  Nb129  1  0.00658159  0.19945332  0.39955054  1
  Nb  Nb130  1  0.19364412  0.40181465  0.60742883  1
  Nb  Nb131  1  0.60014968  -0.00310417  0.00200198  1
  Nb  Nb132  1  0.60181596  0.00439840  0.40398201  1
  Nb  Nb133  1  0.00801368  0.20622200  0.79732086  1
  Nb  Nb134  1  0.60429498  0.39619981  0.19578790  1
  Nb  Nb135  1  0.19397003  0.79391143  -0.00309868  1
  Nb  Nb136  1  0.80054920  0.19856305  0.00803607  1
  Nb  Nb137  1  0.40182399  0.40059083  -0.00258107  1
  Nb  Nb138  1  0.00302704  0.59666829  0.00070867  1
  Nb  Nb139  1  0.18911624  0.40340185  0.20160106  1
  Nb  Nb140  1  0.59850698  0.19714231  0.39838315  1
  Nb  Nb141  1  0.40309497  0.19583189  0.40601025  1
  Nb  Nb142  1  0.60565403  0.20447086  0.20743455  1
  Nb  Nb143  1  0.80431930  0.79444078  0.19641722  1
  Nb  Nb144  1  0.19809640  0.59524914  0.40363828  1
  Nb  Nb145  1  0.00626021  0.59092362  0.40492108  1
  Nb  Nb146  1  0.60042095  0.39539806  0.60044268  1
  Nb  Nb147  1  0.41062239  0.00006223  -0.00132931  1
  Nb  Nb148  1  0.60319754  -0.00112156  0.59487048  1
  Nb  Nb149  1  0.00848422  0.20283707  0.59998213  1
  Pd  Pd150  1  0.80715264  0.20307148  0.40041534  1
  Pd  Pd151  1  0.20412505  -0.00020324  0.80142278  1
  Pd  Pd152  1  0.01022919  0.00478141  0.60658395  1
  Pd  Pd153  1  0.80413789  0.79304905  0.60946207  1
  Pd  Pd154  1  0.79792739  -0.00462962  0.39876390  1
  Pd  Pd155  1  0.40144771  0.20505718  0.79933608  1
  Pd  Pd156  1  -0.00239445  0.19410365  -0.00877977  1
  Pd  Pd157  1  0.00094177  0.39963347  0.80416397  1
  Pd  Pd158  1  0.79511050  0.60001365  0.59459142  1
  Pd  Pd159  1  0.19736560  0.59292242  0.79996297  1
  Pd  Pd160  1  0.19303532  0.18871135  0.80551157  1
  Pd  Pd161  1  0.59767446  0.80890089  0.40986681  1
  Pd  Pd162  1  0.20429210  0.59387837  0.60170207  1
  Pd  Pd163  1  0.18790413  -0.01056760  0.59591120  1
  Pd  Pd164  1  0.39968317  0.79467826  0.39047931  1
  Pd  Pd165  1  0.38858207  -0.00669022  0.19170480  1
  Pd  Pd166  1  0.20718551  -0.01022463  0.18405086  1
  Pd  Pd167  1  0.40677604  0.39283128  0.80256410  1
  Pd  Pd168  1  0.40006208  0.39428011  0.19452681  1
  Pd  Pd169  1  0.21365433  0.40289837  0.40267098  1
  Pd  Pd170  1  0.38787347  0.20135561  -0.00985105  1
  Pd  Pd171  1  -0.00848102  0.40917517  0.00185261  1
  Pd  Pd172  1  0.39528442  0.79979284  0.79100545  1
  Pd  Pd173  1  0.61635222  0.18256779  0.01218892  1
  Pd  Pd174  1  0.80921918  0.79798370  0.79150888  1
  Pd  Pd175  1  0.21278823  0.00023409  0.00145525  1
  Pd  Pd176  1  0.00451225  0.00809455  0.39193279  1
  Pd  Pd177  1  0.59323596  0.41111212  0.00565157  1
  Pd  Pd178  1  0.60508071  0.59593894  0.19142226  1
  Pd  Pd179  1  0.39230824  0.39999367  0.40669891  1
  Pd  Pd180  1  0.00373037  0.80012755  0.61132931  1
  Pd  Pd181  1  0.20232285  0.20695778  0.40599326  1
  Pd  Pd182  1  0.81323219  0.59357734  0.40453061  1
  Pd  Pd183  1  0.18567744  0.21248879  0.18647280  1
  Pd  Pd184  1  0.79584376  -0.00463811  0.59887577  1
  Pd  Pd185  1  0.00307837  0.59267899  0.20697550  1
  Pd  Pd186  1  -0.00428904  0.59853383  0.59231655  1
  Pd  Pd187  1  0.39794849  -0.00176500  0.79455699  1
  Pd  Pd188  1  0.18707977  0.81117436  0.60467814  1
  Pd  Pd189  1  0.79669721  0.00604832  -0.00285101  1
  Pd  Pd190  1  0.39214159  0.80041583  0.20525752  1
  Pd  Pd191  1  0.59855842  0.80701494  0.59264015  1
  Pd  Pd192  1  0.19327462  0.60553135  -0.00738212  1
  Pd  Pd193  1  0.40543220  -0.00721967  0.60981165  1
  Pd  Pd194  1  0.79503624  0.40619399  0.19832205  1
  Pd  Pd195  1  0.59564299  0.60423235  0.00289332  1
  Pd  Pd196  1  0.59917762  0.39472593  0.79012005  1
  Pd  Pd197  1  0.60454203  0.59080799  0.59615824  1
  Pd  Pd198  1  -0.01059538  0.79870549  0.79506786  1
  Pd  Pd199  1  0.00459985  0.20372458  0.20514719  1
  Rh  Rh200  1  0.19127328  0.59792948  0.21218092  1
  Rh  Rh201  1  0.59990567  0.00935235  0.20131391  1
  Rh  Rh202  1  0.80371916  0.40589642  0.40110387  1
  Rh  Rh203  1  0.40112394  0.00269454  0.40401744  1
  Rh  Rh204  1  0.79812498  0.60324809  0.20336864  1
  Rh  Rh205  1  0.60572474  0.19791209  0.60003736  1
  Rh  Rh206  1  -0.01024676  0.00611150  0.00021925  1
  Rh  Rh207  1  0.61054616  0.78563091  0.18756889  1
  Rh  Rh208  1  0.19147283  0.41260752  0.79136507  1
  Rh  Rh209  1  0.79659955  0.20773968  0.19665359  1
  Rh  Rh210  1  0.40057538  0.59197927  -0.00763693  1
  Rh  Rh211  1  0.39704334  0.80389445  0.60960060  1
  Rh  Rh212  1  0.60263466  0.60249070  0.79773562  1
  Rh  Rh213  1  0.00023731  0.79210769  0.39758628  1
  Rh  Rh214  1  0.81325245  0.20334116  0.59779080  1
  Rh  Rh215  1  0.39732666  0.60711463  0.79342305  1
  Rh  Rh216  1  0.80446330  0.39679206  0.00354590  1
  Rh  Rh217  1  0.40446045  0.60915222  0.21354455  1
  Rh  Rh218  1  0.39373788  0.60679563  0.59981996  1
  Rh  Rh219  1  0.79511441  0.60350038  0.80072400  1
  Rh  Rh220  1  0.19822053  0.20717008  0.59793847  1
  Rh  Rh221  1  0.00290105  0.79431772  0.00249367  1
  Rh  Rh222  1  0.00342747  0.40666085  0.19653003  1
  Rh  Rh223  1  0.80581543  0.79908944  0.38950458  1
  Rh  Rh224  1  0.00766511  0.39599788  0.59781404  1
  Rh  Rh225  1  0.80744812  0.59786443  -0.00426845  1
  Rh  Rh226  1  0.81060438  -0.01255267  0.20504510  1
  Rh  Rh227  1  0.80671206  -0.00700955  0.79758463  1
  Rh  Rh228  1  0.58921994  0.59964084  0.40934275  1
  Rh  Rh229  1  0.60236631  -0.00204718  0.79555314  1
  Rh  Rh230  1  -0.00980164  0.40088978  0.40542358  1
  Rh  Rh231  1  0.60335616  0.39312310  0.39942259  1
  Rh  Rh232  1  0.38972391  0.19645159  0.59878259  1
  Rh  Rh233  1  0.39909709  0.39921785  0.60398891  1
  Rh  Rh234  1  0.00202605  0.59328957  0.81269134  1
  Rh  Rh235  1  0.40759348  0.20829089  0.21392268  1
  Rh  Rh236  1  0.79672253  0.39645358  0.80529587  1
  Rh  Rh237  1  0.19544211  0.79919855  0.39320260  1
  Rh  Rh238  1  0.78920385  0.40347889  0.60053165  1
  Rh  Rh239  1  0.79647899  0.79907672  0.00760976  1
  Rh  Rh240  1  -0.00304126  0.80610838  0.19587145  1
  Rh  Rh241  1  -0.00662946  0.00362513  0.20004493  1
  Rh  Rh242  1  0.59455944  0.20599355  0.78975598  1
  Rh  Rh243  1  0.19310419  -0.00212007  0.40679042  1
  Rh  Rh244  1  0.20087759  0.80339026  0.80273706  1
  Rh  Rh245  1  -0.00274896  0.00630590  0.79297404  1
  Rh  Rh246  1  0.40461642  0.80579923  -0.00860152  1
  Rh  Rh247  1  0.20515245  0.39268451  0.01150379  1
  Rh  Rh248  1  0.81419889  0.20965279  0.81270918  1
  Rh  Rh249  1  0.60176269  0.79585000  0.80660562  1
