# generated using pymatgen
data_ZrScNbPdRh
_symmetry_space_group_name_H-M   'P 1'
_cell_length_a   16.54921855
_cell_length_b   16.54672476
_cell_length_c   16.54904457
_cell_angle_alpha   90.04079202
_cell_angle_beta   90.01092844
_cell_angle_gamma   89.99191455
_symmetry_Int_Tables_number   1
_chemical_formula_structural   ZrScNbPdRh
_chemical_formula_sum   'Zr50 Sc50 Nb50 Pd50 Rh50'
_cell_volume   4531.71237350
_cell_formula_units_Z   50
loop_
 _symmetry_equiv_pos_site_id
 _symmetry_equiv_pos_as_xyz
  1  'x, y, z'
loop_
 _atom_site_type_symbol
 _atom_site_label
 _atom_site_symmetry_multiplicity
 _atom_site_fract_x
 _atom_site_fract_y
 _atom_site_fract_z
 _atom_site_occupancy
  Zr  Zr0  1  0.70593313  0.29939502  0.50105679  1
  Zr  Zr1  1  0.89752098  0.89646568  0.50120163  1
  Zr  Zr2  1  0.29504671  0.90005596  0.90799205  1
  Zr  Zr3  1  0.49922859  0.70041505  0.30688108  1
  Zr  Zr4  1  0.70044957  0.90596298  0.10821418  1
  Zr  Zr5  1  0.10397519  0.49574999  0.70279277  1
  Zr  Zr6  1  0.69484542  0.09745877  0.49590934  1
  Zr  Zr7  1  0.49727094  0.29805618  0.29756092  1
  Zr  Zr8  1  0.69505243  0.70009913  0.90343512  1
  Zr  Zr9  1  0.90431609  0.49690954  0.10170480  1
  Zr  Zr10  1  0.09912080  0.69635170  0.49708087  1
  Zr  Zr11  1  0.70202410  0.09332062  0.70134616  1
  Zr  Zr12  1  0.10614205  0.10636873  0.49869376  1
  Zr  Zr13  1  0.29918868  0.10250812  0.49830130  1
  Zr  Zr14  1  0.89869195  0.10064657  0.28824239  1
  Zr  Zr15  1  0.50262935  0.89699448  0.49404898  1
  Zr  Zr16  1  0.49886156  0.30150139  0.90010675  1
  Zr  Zr17  1  0.69544505  0.90264086  0.88381270  1
  Zr  Zr18  1  0.70431060  0.10142073  0.90624281  1
  Zr  Zr19  1  0.10252316  0.70015576  0.89945290  1
  Zr  Zr20  1  0.89854149  0.89914928  0.70170000  1
  Zr  Zr21  1  0.49945219  0.10766890  0.49274263  1
  Zr  Zr22  1  0.29261668  0.70302485  0.09346001  1
  Zr  Zr23  1  0.09621365  0.29945531  0.69970438  1
  Zr  Zr24  1  0.49985169  0.90632701  0.10818864  1
  Zr  Zr25  1  0.50465466  0.70102532  0.09906073  1
  Zr  Zr26  1  0.90462656  0.90475966  0.10443747  1
  Zr  Zr27  1  0.10169447  0.30539203  0.90023446  1
  Zr  Zr28  1  0.90640634  0.29706607  0.10902485  1
  Zr  Zr29  1  0.30051577  0.90899998  0.30083643  1
  Zr  Zr30  1  0.89998008  0.69476084  0.49661396  1
  Zr  Zr31  1  0.69994908  0.29773640  0.90428031  1
  Zr  Zr32  1  0.29866265  0.90201612  0.69728677  1
  Zr  Zr33  1  0.69907363  0.49529716  0.90653061  1
  Zr  Zr34  1  0.09784703  0.90610033  0.29620625  1
  Zr  Zr35  1  0.28661645  0.50219304  0.90024130  1
  Zr  Zr36  1  0.69719560  0.50085301  0.29608705  1
  Zr  Zr37  1  0.50221450  0.49380566  0.10940055  1
  Zr  Zr38  1  0.69607339  0.49171645  0.69709935  1
  Zr  Zr39  1  0.31216214  0.69897555  0.50412373  1
  Zr  Zr40  1  0.69544576  0.49570714  0.10043837  1
  Zr  Zr41  1  0.90544991  0.29216255  0.89706354  1
  Zr  Zr42  1  0.49690365  0.48734092  0.69773401  1
  Zr  Zr43  1  0.90256194  0.09603605  0.89917063  1
  Zr  Zr44  1  0.29729553  0.69653741  0.70552483  1
  Zr  Zr45  1  0.91184140  0.90014260  0.89882714  1
  Zr  Zr46  1  0.89234265  0.89884269  0.29126094  1
  Zr  Zr47  1  0.29991492  0.49210473  0.50133942  1
  Zr  Zr48  1  0.50497810  0.90760289  0.70626556  1
  Zr  Zr49  1  0.10592600  0.30235016  0.29582232  1
  Sc  Sc50  1  0.71269162  0.69978636  0.49383262  1
  Sc  Sc51  1  0.89924677  0.10026061  0.70603082  1
  Sc  Sc52  1  0.49816363  0.90029429  0.90211327  1
  Sc  Sc53  1  0.10545741  0.09898679  0.09961758  1
  Sc  Sc54  1  0.30286067  0.10347355  0.10067297  1
  Sc  Sc55  1  0.29363240  0.09902828  0.90208023  1
  Sc  Sc56  1  0.10610744  0.49733966  0.10585179  1
  Sc  Sc57  1  0.29852551  0.10650079  0.29645435  1
  Sc  Sc58  1  0.90487563  0.49944375  0.68823748  1
  Sc  Sc59  1  0.48904542  0.10092679  0.70040901  1
  Sc  Sc60  1  0.29759365  0.10326080  0.69836828  1
  Sc  Sc61  1  0.72010831  0.49790804  0.49862001  1
  Sc  Sc62  1  0.89656579  0.09475007  0.09821275  1
  Sc  Sc63  1  0.49236977  0.30237616  0.10047277  1
  Sc  Sc64  1  0.11109941  0.10128914  0.29754282  1
  Sc  Sc65  1  0.09348274  0.90089226  0.70062166  1
  Sc  Sc66  1  0.09821714  0.89983524  0.09160358  1
  Sc  Sc67  1  0.49624689  0.09699810  0.90139805  1
  Sc  Sc68  1  0.70574116  0.29699963  0.29965644  1
  Sc  Sc69  1  0.49389433  0.48724192  0.89989975  1
  Sc  Sc70  1  0.88913692  0.10119179  0.50388166  1
  Sc  Sc71  1  0.70425144  0.70554011  0.70245592  1
  Sc  Sc72  1  0.90196386  0.48955503  0.90576057  1
  Sc  Sc73  1  0.29570486  0.29558328  0.49710447  1
  Sc  Sc74  1  0.10397768  0.90446549  0.50820257  1
  Sc  Sc75  1  0.89656903  0.31351652  0.49746416  1
  Sc  Sc76  1  0.09387530  0.70173549  0.70300742  1
  Sc  Sc77  1  0.29812749  0.29951907  0.91297646  1
  Sc  Sc78  1  0.29913361  0.29880689  0.29891006  1
  Sc  Sc79  1  0.30194607  0.90881207  0.09380695  1
  Sc  Sc80  1  0.69705169  0.10606202  0.30280972  1
  Sc  Sc81  1  0.10617907  0.31037125  0.49964188  1
  Sc  Sc82  1  0.90484133  0.70352431  0.10346789  1
  Sc  Sc83  1  0.48738572  0.30248144  0.50067744  1
  Sc  Sc84  1  0.90304912  0.49117750  0.30418144  1
  Sc  Sc85  1  0.10249741  0.50543959  0.30329501  1
  Sc  Sc86  1  0.90300404  0.70005394  0.29521931  1
  Sc  Sc87  1  0.29724348  0.30369913  0.10416883  1
  Sc  Sc88  1  0.29334250  0.49524270  0.29652622  1
  Sc  Sc89  1  0.30340276  0.29714606  0.68922251  1
  Sc  Sc90  1  0.30164854  0.49767386  0.70314145  1
  Sc  Sc91  1  0.10233685  0.10007874  0.70765514  1
  Sc  Sc92  1  0.69913020  0.29652524  0.09929767  1
  Sc  Sc93  1  0.09546437  0.69637457  0.10758802  1
  Sc  Sc94  1  0.90511183  0.70638014  0.69981905  1
  Sc  Sc95  1  0.69322390  0.69345390  0.09545184  1
  Sc  Sc96  1  0.49977022  0.09846938  0.10227328  1
  Sc  Sc97  1  0.49898381  0.10485433  0.29709949  1
  Sc  Sc98  1  0.48728970  0.69871948  0.69978462  1
  Sc  Sc99  1  0.70674940  0.70282393  0.30289526  1
  Nb  Nb100  1  0.29713292  0.69804860  0.29900800  1
  Nb  Nb101  1  0.49799355  0.69401642  0.50351582  1
  Nb  Nb102  1  0.89564024  0.29469449  0.69520564  1
  Nb  Nb103  1  0.70761824  0.10256017  0.09818539  1
  Nb  Nb104  1  0.91013441  0.49920481  0.49406972  1
  Nb  Nb105  1  0.70063784  0.30162463  0.69505588  1
  Nb  Nb106  1  0.10253336  0.91037558  0.89950877  1
  Nb  Nb107  1  0.30404714  0.49976942  0.10061958  1
  Nb  Nb108  1  0.49559052  0.69907037  0.90167241  1
  Nb  Nb109  1  0.09373033  0.49700805  0.50163753  1
  Nb  Nb110  1  0.90087610  0.70008000  0.89837097  1
  Nb  Nb111  1  0.09895088  0.09936733  0.89816367  1
  Nb  Nb112  1  0.69548566  0.90133696  0.69560306  1
  Nb  Nb113  1  0.49381820  0.50453017  0.50002569  1
  Nb  Nb114  1  0.90606568  0.29594468  0.30071063  1
  Nb  Nb115  1  0.69841552  0.90260541  0.49685265  1
  Nb  Nb116  1  0.29969317  0.70049093  0.90010189  1
  Nb  Nb117  1  0.50612026  0.30216289  0.70059256  1
  Nb  Nb118  1  0.50472063  0.89969087  0.30009770  1
  Nb  Nb119  1  0.29822922  0.90082815  0.49989102  1
  Nb  Nb120  1  0.50334546  0.49977682  0.29596729  1
  Nb  Nb121  1  0.69381666  0.90136467  0.31214553  1
  Nb  Nb122  1  0.10495929  0.70033674  0.29772307  1
  Nb  Nb123  1  0.10460301  0.29968605  0.09543791  1
  Nb  Nb124  1  0.09830944  0.49753214  0.89918381  1
  Nb  Nb125  1  0.79974097  0.59373314  0.19639966  1
  Nb  Nb126  1  0.20179256  0.80181815  0.80798869  1
  Nb  Nb127  1  0.00637135  0.80341577  0.39662151  1
  Nb  Nb128  1  0.59492387  0.40739193  0.39986485  1
  Nb  Nb129  1  0.20395023  0.79913884  0.20558453  1
  Nb  Nb130  1  0.60146546  0.20469759  0.79419587  1
  Nb  Nb131  1  -0.00214301  0.20148427  0.39924352  1
  Nb  Nb132  1  0.59505635  0.59514631  0.40666718  1
  Nb  Nb133  1  0.80149304  0.80238211  -0.00465552  1
  Nb  Nb134  1  0.79911104  0.59533149  0.80565124  1
  Nb  Nb135  1  0.19724990  0.59604627  0.59643383  1
  Nb  Nb136  1  0.20228082  0.79845697  0.39850216  1
  Nb  Nb137  1  0.40118550  -0.00468885  0.40057721  1
  Nb  Nb138  1  -0.00345654  0.20539416  0.59747170  1
  Nb  Nb139  1  0.79963767  0.39544879  0.79402453  1
  Nb  Nb140  1  0.39669989  0.60178999  -0.00006100  1
  Nb  Nb141  1  -0.00178726  0.00311149  0.39899358  1
  Nb  Nb142  1  0.39763233  0.60285183  0.19878994  1
  Nb  Nb143  1  0.00719633  0.20126976  -0.00231069  1
  Nb  Nb144  1  0.59811213  0.59793288  0.79911766  1
  Nb  Nb145  1  0.60052145  0.20471971  0.60510024  1
  Nb  Nb146  1  0.60213172  0.80154766  0.59573548  1
  Nb  Nb147  1  0.59663266  0.60160050  0.59636686  1
  Nb  Nb148  1  0.00283156  0.59606085  -0.00610230  1
  Nb  Nb149  1  0.39779306  0.79884791  0.20546380  1
  Pd  Pd150  1  0.79917975  0.39867761  0.20352017  1
  Pd  Pd151  1  0.79452704  0.79954271  0.59882086  1
  Pd  Pd152  1  0.60209720  0.19978646  0.19364041  1
  Pd  Pd153  1  0.39625290  0.80540484  0.80244472  1
  Pd  Pd154  1  0.79444437  0.20227948  0.79747049  1
  Pd  Pd155  1  0.20526885  0.59915951  0.40616156  1
  Pd  Pd156  1  0.40366001  0.79987927  0.00488868  1
  Pd  Pd157  1  0.19581512  0.79393721  0.60239692  1
  Pd  Pd158  1  -0.00938977  0.40407447  0.79400433  1
  Pd  Pd159  1  0.00953227  0.40495969  0.20506595  1
  Pd  Pd160  1  0.40721864  0.80660605  0.60411903  1
  Pd  Pd161  1  0.79819204  0.60150147  0.60781546  1
  Pd  Pd162  1  0.00957304  0.19317912  0.19740299  1
  Pd  Pd163  1  0.20625632  0.20487617  0.80134478  1
  Pd  Pd164  1  0.80740601  0.20147492  0.39937192  1
  Pd  Pd165  1  0.59267666  0.19806108  0.00107284  1
  Pd  Pd166  1  0.38699479  0.39010863  0.80171720  1
  Pd  Pd167  1  0.39903920  0.19751786  0.00315134  1
  Pd  Pd168  1  -0.00316295  0.60226656  0.39040994  1
  Pd  Pd169  1  0.19417377  0.59626057  0.00500574  1
  Pd  Pd170  1  0.20098894  -0.00313424  0.18989593  1
  Pd  Pd171  1  0.60416801  0.81166543  0.00007530  1
  Pd  Pd172  1  0.59986852  -0.00152364  -0.00172801  1
  Pd  Pd173  1  0.39769688  0.59130492  0.39168046  1
  Pd  Pd174  1  0.60445320  0.01003775  0.20780573  1
  Pd  Pd175  1  0.59462074  0.00337269  0.59820089  1
  Pd  Pd176  1  -0.00250577  0.01117173  0.59737993  1
  Pd  Pd177  1  0.80044212  -0.00208695  0.60233563  1
  Pd  Pd178  1  0.79858109  -0.01048389  -0.00394046  1
  Pd  Pd179  1  0.59765324  0.40018137  0.58374157  1
  Pd  Pd180  1  0.80265929  0.79673549  0.80281967  1
  Pd  Pd181  1  0.19769014  0.00431861  0.60503462  1
  Pd  Pd182  1  0.58618249  0.58978389  -0.00841845  1
  Pd  Pd183  1  0.39894109  0.20343937  0.80077445  1
  Pd  Pd184  1  0.80480965  0.38922328  0.00090034  1
  Pd  Pd185  1  0.40521180  0.59351128  0.80733170  1
  Pd  Pd186  1  0.59085874  0.78997488  0.79153873  1
  Pd  Pd187  1  -0.00791562  0.59259383  0.80443678  1
  Pd  Pd188  1  0.60589396  0.79003236  0.40753330  1
  Pd  Pd189  1  0.80314260  0.00065098  0.39380589  1
  Pd  Pd190  1  0.39235661  0.00177282  0.80549837  1
  Pd  Pd191  1  0.79204813  0.79123923  0.19152992  1
  Pd  Pd192  1  0.00041571  0.79382843  0.00084776  1
  Pd  Pd193  1  0.39451211  0.80490469  0.39651821  1
  Pd  Pd194  1  0.00462111  0.60154461  0.60346818  1
  Pd  Pd195  1  0.60262119  0.79632955  0.20381268  1
  Pd  Pd196  1  0.40019963  0.40162885  0.39371421  1
  Pd  Pd197  1  0.81016873  0.60660137  0.00343846  1
  Pd  Pd198  1  0.20829435  0.38867914  0.79716631  1
  Pd  Pd199  1  0.40104727  0.00035912  0.59315092  1
  Rh  Rh200  1  0.39422393  0.19507985  0.39649983  1
  Rh  Rh201  1  0.79949375  0.19872281  0.59878007  1
  Rh  Rh202  1  0.40538080  0.20196786  0.60104400  1
  Rh  Rh203  1  0.59867882  0.21449196  0.40783249  1
  Rh  Rh204  1  0.19847127  0.00590412  0.00031075  1
  Rh  Rh205  1  0.20199918  0.20407321  0.19542816  1
  Rh  Rh206  1  0.00363485  0.00401482  0.19884061  1
  Rh  Rh207  1  0.60400783  0.61034954  0.21051583  1
  Rh  Rh208  1  0.39475716  0.40568252  0.00184449  1
  Rh  Rh209  1  0.00150135  0.00077681  0.79538917  1
  Rh  Rh210  1  0.81209754  0.20213307  0.00947130  1
  Rh  Rh211  1  0.20131563  0.40486481  0.60067646  1
  Rh  Rh212  1  0.20207214  -0.00205187  0.40859637  1
  Rh  Rh213  1  0.80273151  -0.00470276  0.79917011  1
  Rh  Rh214  1  -0.00223014  0.39416841  0.59834436  1
  Rh  Rh215  1  0.80987527  0.40354837  0.60272969  1
  Rh  Rh216  1  0.39675425  0.59201626  0.60684990  1
  Rh  Rh217  1  0.20166393  -0.00531130  0.79864014  1
  Rh  Rh218  1  0.59446843  0.00284579  0.39352103  1
  Rh  Rh219  1  0.40367217  -0.00138329  0.20700299  1
  Rh  Rh220  1  -0.00537138  0.59607452  0.19745282  1
  Rh  Rh221  1  0.39749755  0.39667510  0.59945557  1
  Rh  Rh222  1  0.20482909  0.60175191  0.19765581  1
  Rh  Rh223  1  0.39530103  0.40388951  0.20334090  1
  Rh  Rh224  1  0.00801871  0.80424522  0.80265217  1
  Rh  Rh225  1  -0.00213588  0.79803130  0.59247163  1
  Rh  Rh226  1  0.60109099  0.38603182  0.20501325  1
  Rh  Rh227  1  0.00834734  0.39925172  0.00453930  1
  Rh  Rh228  1  0.19205180  0.20220027  0.60393096  1
  Rh  Rh229  1  0.80469980  0.59366181  0.38982315  1
  Rh  Rh230  1  0.00642414  0.01062726  0.00203588  1
  Rh  Rh231  1  0.80030890  0.40085139  0.39446536  1
  Rh  Rh232  1  0.80628002  0.80486831  0.39849367  1
  Rh  Rh233  1  0.19226726  0.80189209  -0.00061131  1
  Rh  Rh234  1  0.79705776  0.19950577  0.19634609  1
  Rh  Rh235  1  0.78708102  0.00540422  0.20582279  1
  Rh  Rh236  1  0.19480285  0.60561184  0.79456836  1
  Rh  Rh237  1  0.00459131  0.39453122  0.39747658  1
  Rh  Rh238  1  0.19488229  0.19849198  0.00074543  1
  Rh  Rh239  1  0.19736242  0.40252560  0.39864286  1
  Rh  Rh240  1  0.19901461  0.40421579  0.00517267  1
  Rh  Rh241  1  0.39840869  0.20267709  0.19805614  1
  Rh  Rh242  1  0.00910400  0.80230018  0.20365716  1
  Rh  Rh243  1  0.20008826  0.40016998  0.19849292  1
  Rh  Rh244  1  0.59442161  0.39534824  0.00597940  1
  Rh  Rh245  1  0.39987957  0.00427229  0.00014361  1
  Rh  Rh246  1  0.19592137  0.20481594  0.39695836  1
  Rh  Rh247  1  0.00228265  0.19667078  0.79787219  1
  Rh  Rh248  1  0.60722694  0.39603597  0.80611020  1
  Rh  Rh249  1  0.59742142  0.01143648  0.80229725  1
