# generated using pymatgen
data_ZrScNbPdRh
_symmetry_space_group_name_H-M   'P 1'
_cell_length_a   16.55514890
_cell_length_b   16.55646089
_cell_length_c   16.55477757
_cell_angle_alpha   90.01916455
_cell_angle_beta   90.00319421
_cell_angle_gamma   90.00460732
_symmetry_Int_Tables_number   1
_chemical_formula_structural   ZrScNbPdRh
_chemical_formula_sum   'Zr50 Sc50 Nb50 Pd50 Rh50'
_cell_volume   4537.57610616
_cell_formula_units_Z   50
loop_
 _symmetry_equiv_pos_site_id
 _symmetry_equiv_pos_as_xyz
  1  'x, y, z'
loop_
 _atom_site_type_symbol
 _atom_site_label
 _atom_site_symmetry_multiplicity
 _atom_site_fract_x
 _atom_site_fract_y
 _atom_site_fract_z
 _atom_site_occupancy
  Zr  Zr0  1  0.50578631  0.70277410  0.69708814  1
  Zr  Zr1  1  0.90197329  0.09849889  0.89473067  1
  Zr  Zr2  1  0.89504425  0.30773143  0.08958337  1
  Zr  Zr3  1  0.10795703  0.70208845  0.29371477  1
  Zr  Zr4  1  0.70405213  0.70011105  0.50778660  1
  Zr  Zr5  1  0.69014166  0.30250862  0.30004933  1
  Zr  Zr6  1  0.70403841  0.90727397  0.30679839  1
  Zr  Zr7  1  0.50227046  0.89473221  0.30783327  1
  Zr  Zr8  1  0.29915726  0.49475790  0.08586861  1
  Zr  Zr9  1  0.89662614  0.88956688  0.49755081  1
  Zr  Zr10  1  0.89809617  0.69329760  0.69645685  1
  Zr  Zr11  1  0.49148174  0.50495265  0.90071096  1
  Zr  Zr12  1  0.29771487  0.49557492  0.49979373  1
  Zr  Zr13  1  0.29843085  0.50770495  0.30669210  1
  Zr  Zr14  1  0.10633256  0.10180246  0.10242959  1
  Zr  Zr15  1  0.70092707  0.90280989  0.89418329  1
  Zr  Zr16  1  0.30094471  0.30046293  0.49301036  1
  Zr  Zr17  1  0.09353211  0.09752632  0.69136248  1
  Zr  Zr18  1  0.29829388  0.29714582  0.10680916  1
  Zr  Zr19  1  0.10028391  0.70272780  0.70365156  1
  Zr  Zr20  1  0.90134820  0.09823287  0.49740449  1
  Zr  Zr21  1  0.89755048  0.30239313  0.90346467  1
  Zr  Zr22  1  0.11085493  0.50117663  0.90054341  1
  Zr  Zr23  1  0.89526323  0.49778735  0.89523954  1
  Zr  Zr24  1  0.09581093  0.09754074  0.90353751  1
  Zr  Zr25  1  0.29930912  0.10927820  0.30201824  1
  Zr  Zr26  1  0.09811440  0.70685474  0.89762838  1
  Zr  Zr27  1  0.10499282  0.09823062  0.49819612  1
  Zr  Zr28  1  0.10296330  0.29596374  0.49744712  1
  Zr  Zr29  1  0.50237188  0.90195306  0.90130650  1
  Zr  Zr30  1  0.30041044  0.49280522  0.70729925  1
  Zr  Zr31  1  0.89694423  0.70534936  0.90176079  1
  Zr  Zr32  1  0.10225849  0.50066118  0.69880904  1
  Zr  Zr33  1  0.89793509  0.90000879  0.90365761  1
  Zr  Zr34  1  0.89972911  0.49843444  0.09147432  1
  Zr  Zr35  1  0.69956592  0.09352779  0.70756502  1
  Zr  Zr36  1  0.49637389  0.69565717  0.09671945  1
  Zr  Zr37  1  0.09883386  0.30078463  0.69173767  1
  Zr  Zr38  1  0.49039876  0.69844530  0.30163346  1
  Zr  Zr39  1  0.29743156  0.09987835  0.50889218  1
  Zr  Zr40  1  0.09654419  0.10270234  0.30258232  1
  Zr  Zr41  1  0.89748399  0.09697012  0.69466049  1
  Zr  Zr42  1  0.30688469  0.69405133  0.49692807  1
  Zr  Zr43  1  0.89549290  0.50600872  0.50315387  1
  Zr  Zr44  1  0.51335281  0.50091900  0.29489395  1
  Zr  Zr45  1  0.10188036  0.50095029  0.09263740  1
  Zr  Zr46  1  0.50682593  0.50077776  0.70395799  1
  Zr  Zr47  1  0.50911939  0.70133792  0.50200025  1
  Zr  Zr48  1  0.09760212  0.89508776  0.29971090  1
  Zr  Zr49  1  0.10716249  0.29387028  0.29631690  1
  Sc  Sc50  1  0.30201805  0.69815696  0.89678765  1
  Sc  Sc51  1  0.09844582  0.89886229  0.50637088  1
  Sc  Sc52  1  0.69631663  0.10336687  0.30431986  1
  Sc  Sc53  1  0.89125229  0.29822975  0.50358349  1
  Sc  Sc54  1  0.69918257  0.89554469  0.49849004  1
  Sc  Sc55  1  0.30181527  0.70118157  0.11205990  1
  Sc  Sc56  1  0.09295955  0.89757095  0.10535604  1
  Sc  Sc57  1  0.69912470  0.30539684  0.49681365  1
  Sc  Sc58  1  0.49758320  0.30013799  0.49937249  1
  Sc  Sc59  1  0.70862884  0.90871119  0.08897829  1
  Sc  Sc60  1  0.51293015  0.29782320  0.10598284  1
  Sc  Sc61  1  0.48627129  0.10235773  0.70844478  1
  Sc  Sc62  1  0.69451132  0.09319076  0.90174979  1
  Sc  Sc63  1  0.30788315  0.10211537  0.90503454  1
  Sc  Sc64  1  0.10309589  0.30247587  0.09499665  1
  Sc  Sc65  1  0.90018153  0.89842031  0.09996711  1
  Sc  Sc66  1  0.68872955  0.69113961  0.31266438  1
  Sc  Sc67  1  0.50580990  0.50385787  0.09393097  1
  Sc  Sc68  1  0.90098494  0.29110791  0.30738622  1
  Sc  Sc69  1  0.09787183  0.89139714  0.69986846  1
  Sc  Sc70  1  0.09366233  0.70167264  0.50508228  1
  Sc  Sc71  1  0.50559704  0.10087731  0.89882041  1
  Sc  Sc72  1  0.10977300  0.50554750  0.30525817  1
  Sc  Sc73  1  0.69749402  0.69995553  0.70662554  1
  Sc  Sc74  1  0.49859578  0.28598399  0.30123979  1
  Sc  Sc75  1  0.30392381  0.30832258  0.89940288  1
  Sc  Sc76  1  0.89410754  0.10053443  0.29872380  1
  Sc  Sc77  1  0.69653448  0.50680978  0.89942193  1
  Sc  Sc78  1  0.70561404  0.09981799  0.48833254  1
  Sc  Sc79  1  0.89306394  0.50678300  0.31441775  1
  Sc  Sc80  1  0.30176522  0.10380738  0.09618122  1
  Sc  Sc81  1  0.49836432  0.30061751  0.70157608  1
  Sc  Sc82  1  0.50539892  0.49728523  0.50969991  1
  Sc  Sc83  1  0.91113396  0.70595076  0.31476517  1
  Sc  Sc84  1  0.30634042  0.89782775  0.90187736  1
  Sc  Sc85  1  0.50020094  0.10858002  0.09742793  1
  Sc  Sc86  1  0.10892395  0.49934271  0.50469968  1
  Sc  Sc87  1  0.70856605  0.49851393  0.69922514  1
  Sc  Sc88  1  0.50339155  0.89630503  0.50296438  1
  Sc  Sc89  1  0.70175837  0.30685110  0.69173961  1
  Sc  Sc90  1  0.30057329  0.70787117  0.70029538  1
  Sc  Sc91  1  0.50013882  0.29366664  0.89861634  1
  Sc  Sc92  1  0.69600108  0.69832278  0.09572941  1
  Sc  Sc93  1  0.49985913  0.89639250  0.70474543  1
  Sc  Sc94  1  0.30518297  0.29656427  0.70019184  1
  Sc  Sc95  1  0.30403382  0.89891297  0.69977196  1
  Sc  Sc96  1  0.89978915  0.09624524  0.09706740  1
  Sc  Sc97  1  0.69888136  0.89624967  0.70208281  1
  Sc  Sc98  1  0.69386084  0.10146195  0.09257473  1
  Sc  Sc99  1  0.50114850  0.69413514  0.89374608  1
  Nb  Nb100  1  0.89702957  0.49196144  0.70353353  1
  Nb  Nb101  1  0.49629151  0.89502114  0.10107111  1
  Nb  Nb102  1  0.29504791  0.90800466  0.49196075  1
  Nb  Nb103  1  0.09384905  0.29649207  0.89477257  1
  Nb  Nb104  1  0.70286363  0.49781492  0.30329043  1
  Nb  Nb105  1  0.30328654  0.30442107  0.29945246  1
  Nb  Nb106  1  0.30397741  0.89645723  0.10363458  1
  Nb  Nb107  1  0.89966067  0.70198343  0.50282789  1
  Nb  Nb108  1  0.30000758  0.70129114  0.30305880  1
  Nb  Nb109  1  0.30109055  0.89459859  0.29683124  1
  Nb  Nb110  1  0.89274933  0.31038297  0.70073572  1
  Nb  Nb111  1  0.30399817  0.49752361  0.90106689  1
  Nb  Nb112  1  0.70142943  0.29993302  0.90398861  1
  Nb  Nb113  1  0.69763435  0.49800987  0.10458118  1
  Nb  Nb114  1  0.70578061  0.49726299  0.48149794  1
  Nb  Nb115  1  0.69900343  0.30381267  0.09644209  1
  Nb  Nb116  1  0.90059794  0.89887633  0.29900436  1
  Nb  Nb117  1  0.90015580  0.70387542  0.09742230  1
  Nb  Nb118  1  0.70114485  0.70482559  0.90013247  1
  Nb  Nb119  1  0.10273026  0.89755306  0.90035132  1
  Nb  Nb120  1  0.49962933  0.09979887  0.49223594  1
  Nb  Nb121  1  0.29226511  0.10119263  0.70362663  1
  Nb  Nb122  1  0.50150190  0.09819786  0.30256182  1
  Nb  Nb123  1  0.09315928  0.70543336  0.09996029  1
  Nb  Nb124  1  0.89724499  0.90590609  0.69173379  1
  Nb  Nb125  1  0.20794646  0.80030126  0.39706862  1
  Nb  Nb126  1  0.59539144  0.00943238  0.59807834  1
  Nb  Nb127  1  0.79879834  0.60331472  0.00348748  1
  Nb  Nb128  1  0.39821403  0.39985122  0.20404053  1
  Nb  Nb129  1  -0.00116494  0.39923318  0.79635759  1
  Nb  Nb130  1  0.39618465  0.00055931  0.39798216  1
  Nb  Nb131  1  0.19752485  0.80248225  0.00612297  1
  Nb  Nb132  1  0.40128695  -0.00419419  0.20351152  1
  Nb  Nb133  1  0.59757198  0.19026061  0.59741114  1
  Nb  Nb134  1  0.60217570  0.80520502  0.19660348  1
  Nb  Nb135  1  0.79647763  0.40369039  0.20134609  1
  Nb  Nb136  1  0.19472277  0.19420115  0.79943107  1
  Nb  Nb137  1  0.80081946  0.20619419  0.79951047  1
  Nb  Nb138  1  0.59192360  -0.00400517  0.20016475  1
  Nb  Nb139  1  0.59832922  0.80277013  0.00019641  1
  Nb  Nb140  1  0.20798574  -0.00550060  0.20190713  1
  Nb  Nb141  1  0.80193210  0.60134584  0.19922299  1
  Nb  Nb142  1  0.79823045  0.79494565  0.20332271  1
  Nb  Nb143  1  -0.00359314  0.60101817  0.19483403  1
  Nb  Nb144  1  -0.00290838  -0.00551557  0.39774824  1
  Nb  Nb145  1  0.19613623  0.00374432  0.80277290  1
  Nb  Nb146  1  0.60285721  0.39937464  0.80352717  1
  Nb  Nb147  1  0.79285334  0.21053755  0.19192185  1
  Nb  Nb148  1  0.00278977  0.39902006  0.39912962  1
  Nb  Nb149  1  -0.00475713  0.40716165  0.20562440  1
  Pd  Pd150  1  0.19988656  0.40534129  0.20272221  1
  Pd  Pd151  1  0.20577918  0.80107663  0.59183028  1
  Pd  Pd152  1  -0.01032998  0.80679864  0.79363193  1
  Pd  Pd153  1  0.59112670  0.39716244  0.40284282  1
  Pd  Pd154  1  0.61327389  0.59150486  0.59868289  1
  Pd  Pd155  1  0.20472222  0.60459157  0.60323826  1
  Pd  Pd156  1  0.20267315  0.20689005  -0.00952905  1
  Pd  Pd157  1  0.00339612  -0.00964671  0.79597532  1
  Pd  Pd158  1  -0.00784372  0.20456478  0.59668651  1
  Pd  Pd159  1  0.41011116  0.39104388  0.00890584  1
  Pd  Pd160  1  0.20664309  0.60475746  0.79798235  1
  Pd  Pd161  1  -0.00155203  0.59406997  0.80070103  1
  Pd  Pd162  1  0.79487387  0.79178017  0.39326122  1
  Pd  Pd163  1  0.79202354  0.00522961  0.19863545  1
  Pd  Pd164  1  0.79465880  0.19120469  -0.00297259  1
  Pd  Pd165  1  0.20386231  -0.00933165  0.00167873  1
  Pd  Pd166  1  0.39678661  0.59673285  0.60641897  1
  Pd  Pd167  1  0.00803124  0.59650209  0.39993205  1
  Pd  Pd168  1  0.79438575  0.59634916  0.60201056  1
  Pd  Pd169  1  -0.00515212  0.40247163  0.59520451  1
  Pd  Pd170  1  0.20709519  0.61432097  0.00279397  1
  Pd  Pd171  1  -0.00459472  0.20683291  0.79104068  1
  Pd  Pd172  1  0.00217782  0.00105384  0.20371400  1
  Pd  Pd173  1  0.40087931  0.39813971  0.60358790  1
  Pd  Pd174  1  0.39572436  0.60433163  0.79299858  1
  Pd  Pd175  1  -0.01018613  0.20854606  0.19114279  1
  Pd  Pd176  1  0.39831601  0.79160733  -0.00399461  1
  Pd  Pd177  1  0.19816985  -0.00972742  0.61078656  1
  Pd  Pd178  1  0.40485979  0.00418407  0.00689686  1
  Pd  Pd179  1  0.60583375  0.60757871  0.19921221  1
  Pd  Pd180  1  0.19952781  0.59821709  0.19150983  1
  Pd  Pd181  1  0.60754573  0.20755346  0.79313507  1
  Pd  Pd182  1  0.39629700  0.58958920  0.19603849  1
  Pd  Pd183  1  0.40568071  -0.00343283  0.59563157  1
  Pd  Pd184  1  0.40966090  0.40601271  0.39231039  1
  Pd  Pd185  1  -0.00059859  -0.00482485  0.00602648  1
  Pd  Pd186  1  0.00026447  0.20011757  0.00847317  1
  Pd  Pd187  1  0.40470077  0.20656967  0.00102366  1
  Pd  Pd188  1  0.79044180  0.19903605  0.60342817  1
  Pd  Pd189  1  0.39844338  0.80614144  0.59526786  1
  Pd  Pd190  1  0.80482272  0.80198313  0.79147579  1
  Pd  Pd191  1  0.59742868  0.40174723  -0.00773717  1
  Pd  Pd192  1  0.19628694  0.38959721  0.80218516  1
  Pd  Pd193  1  0.39443950  0.00035215  0.80240997  1
  Pd  Pd194  1  0.41146337  0.58963039  0.40565749  1
  Pd  Pd195  1  0.00073745  0.59691835  0.60087527  1
  Pd  Pd196  1  0.39713190  0.80503910  0.40893075  1
  Pd  Pd197  1  -0.00359632  0.60321658  -0.00237630  1
  Pd  Pd198  1  0.40433466  0.20017722  0.60016008  1
  Pd  Pd199  1  0.78981955  -0.00394477  0.59218519  1
  Rh  Rh200  1  0.20222005  0.80314436  0.19739273  1
  Rh  Rh201  1  0.59466840  0.00051194  0.40254343  1
  Rh  Rh202  1  0.60425626  0.59602488  0.80030219  1
  Rh  Rh203  1  0.19447857  0.39683148  0.39717111  1
  Rh  Rh204  1  0.40367891  0.79630620  0.79993684  1
  Rh  Rh205  1  -0.01268958  0.79359387  0.20066304  1
  Rh  Rh206  1  0.60580425  0.60719877  -0.00503950  1
  Rh  Rh207  1  0.20893892  0.39627950  0.60032815  1
  Rh  Rh208  1  0.79544251  0.20300845  0.39161656  1
  Rh  Rh209  1  0.39017806  0.20072985  0.80416803  1
  Rh  Rh210  1  0.19905187  0.39202592  -0.00773572  1
  Rh  Rh211  1  0.19551082  0.61190284  0.40888777  1
  Rh  Rh212  1  0.59342240  -0.00109605  0.79206837  1
  Rh  Rh213  1  -0.00701591  0.79817611  0.60554694  1
  Rh  Rh214  1  0.40161696  0.20216438  0.20006941  1
  Rh  Rh215  1  0.79888593  0.60489803  0.80541342  1
  Rh  Rh216  1  0.39640406  0.19525363  0.40274379  1
  Rh  Rh217  1  0.40857079  0.39958676  0.80139975  1
  Rh  Rh218  1  0.79868104  0.60979127  0.39950039  1
  Rh  Rh219  1  0.20347346  0.19515352  0.19901114  1
  Rh  Rh220  1  0.80821849  0.39435424  0.39652482  1
  Rh  Rh221  1  0.60733883  0.19022341  0.19854937  1
  Rh  Rh222  1  0.39320696  0.60338079  -0.00058478  1
  Rh  Rh223  1  0.60376759  0.79660920  0.40041968  1
  Rh  Rh224  1  0.00577768  0.80581929  -0.00002239  1
  Rh  Rh225  1  0.20528037  0.80882356  0.80922265  1
  Rh  Rh226  1  -0.00177266  0.19799246  0.40633352  1
  Rh  Rh227  1  -0.00270868  -0.00674876  0.59202952  1
  Rh  Rh228  1  0.20485230  0.20299628  0.40083162  1
  Rh  Rh229  1  0.20499064  0.20513757  0.60513611  1
  Rh  Rh230  1  0.79119541  0.79523207  0.00696303  1
  Rh  Rh231  1  0.79684601  0.40752244  0.59029618  1
  Rh  Rh232  1  0.59898461  0.39973923  0.19980751  1
  Rh  Rh233  1  0.40559718  0.79865121  0.20187056  1
  Rh  Rh234  1  0.00854369  0.80479812  0.40593958  1
  Rh  Rh235  1  0.59234655  -0.00512669  0.00643686  1
  Rh  Rh236  1  0.60349600  0.80823524  0.60362330  1
  Rh  Rh237  1  0.60277358  0.39655774  0.60459264  1
  Rh  Rh238  1  0.19554093  -0.00693398  0.39185930  1
  Rh  Rh239  1  0.80517620  0.00510758  -0.00369950  1
  Rh  Rh240  1  0.78471770  0.41081288  -0.00132700  1
  Rh  Rh241  1  0.60116251  0.20138857  -0.00294527  1
  Rh  Rh242  1  0.01242980  0.39891275  -0.00841225  1
  Rh  Rh243  1  0.59787455  0.79802490  0.80793468  1
  Rh  Rh244  1  0.79505988  0.39470286  0.80494862  1
  Rh  Rh245  1  0.59947564  0.20184030  0.40784059  1
  Rh  Rh246  1  0.59638521  0.59615892  0.40781368  1
  Rh  Rh247  1  0.80884464  -0.00112254  0.40054566  1
  Rh  Rh248  1  0.80179656  0.79875900  0.60662187  1
  Rh  Rh249  1  0.80373317  0.00100911  0.80139258  1
