# generated using pymatgen
data_ZrScNbPdRh
_symmetry_space_group_name_H-M   'P 1'
_cell_length_a   16.55490941
_cell_length_b   16.55777400
_cell_length_c   16.55476467
_cell_angle_alpha   89.98164893
_cell_angle_beta   89.98985104
_cell_angle_gamma   89.99090153
_symmetry_Int_Tables_number   1
_chemical_formula_structural   ZrScNbPdRh
_chemical_formula_sum   'Zr50 Sc50 Nb50 Pd50 Rh50'
_cell_volume   4537.86671960
_cell_formula_units_Z   50
loop_
 _symmetry_equiv_pos_site_id
 _symmetry_equiv_pos_as_xyz
  1  'x, y, z'
loop_
 _atom_site_type_symbol
 _atom_site_label
 _atom_site_symmetry_multiplicity
 _atom_site_fract_x
 _atom_site_fract_y
 _atom_site_fract_z
 _atom_site_occupancy
  Zr  Zr0  1  0.89761526  0.30063350  0.10937555  1
  Zr  Zr1  1  0.49961724  0.49961812  0.49368365  1
  Zr  Zr2  1  0.29776868  0.49637168  0.90762739  1
  Zr  Zr3  1  0.10226721  0.89882864  0.69965001  1
  Zr  Zr4  1  0.30655859  0.09385573  0.70130880  1
  Zr  Zr5  1  0.49125444  0.30727458  0.49796252  1
  Zr  Zr6  1  0.70160966  0.09836925  0.09927622  1
  Zr  Zr7  1  0.10394417  0.30732483  0.49322747  1
  Zr  Zr8  1  0.49625809  0.50357924  0.69662784  1
  Zr  Zr9  1  0.70991640  0.30500322  0.29691032  1
  Zr  Zr10  1  0.30228130  0.10194388  0.50330745  1
  Zr  Zr11  1  0.69955053  0.89291823  0.69792643  1
  Zr  Zr12  1  0.49648582  0.10145196  0.88592785  1
  Zr  Zr13  1  0.09025636  0.90605787  0.10349202  1
  Zr  Zr14  1  0.90174593  0.30497900  0.69180740  1
  Zr  Zr15  1  0.89648497  0.89688684  0.69869665  1
  Zr  Zr16  1  0.29757291  0.90904646  0.70142852  1
  Zr  Zr17  1  0.49903739  0.90578017  0.29950734  1
  Zr  Zr18  1  0.10984969  0.10317936  0.28827342  1
  Zr  Zr19  1  0.29992378  0.09294640  0.11094008  1
  Zr  Zr20  1  0.68850871  0.89811359  0.09188457  1
  Zr  Zr21  1  0.90407748  0.30087574  0.89500366  1
  Zr  Zr22  1  0.10353810  0.49196616  0.29928852  1
  Zr  Zr23  1  0.09512919  0.30320670  0.29685679  1
  Zr  Zr24  1  0.09834760  0.50669883  0.69156998  1
  Zr  Zr25  1  0.09256262  0.49911483  0.90886089  1
  Zr  Zr26  1  0.69915015  0.30215317  0.10758496  1
  Zr  Zr27  1  0.08918769  0.29573190  0.10402274  1
  Zr  Zr28  1  0.10211732  0.89634663  0.49753795  1
  Zr  Zr29  1  0.30275659  0.70961899  0.30131726  1
  Zr  Zr30  1  0.30041627  0.69391828  0.69819261  1
  Zr  Zr31  1  0.90383491  0.68787224  0.90426981  1
  Zr  Zr32  1  0.49611660  0.09458626  0.68916402  1
  Zr  Zr33  1  0.29984911  0.70402341  0.90705716  1
  Zr  Zr34  1  0.50768980  0.30689888  0.10317529  1
  Zr  Zr35  1  0.70526350  0.30786969  0.90360016  1
  Zr  Zr36  1  0.69425548  0.50275024  0.09725659  1
  Zr  Zr37  1  0.49824453  0.29124478  0.70816128  1
  Zr  Zr38  1  0.69958264  0.89311278  0.30199705  1
  Zr  Zr39  1  0.30538221  0.09807861  0.30193048  1
  Zr  Zr40  1  0.29795082  0.29928399  0.31233507  1
  Zr  Zr41  1  0.69182141  0.10914171  0.30204564  1
  Zr  Zr42  1  0.70098675  0.09226462  0.90378906  1
  Zr  Zr43  1  0.89974747  0.49610315  0.30445496  1
  Zr  Zr44  1  0.09689103  0.30140430  0.90311879  1
  Zr  Zr45  1  0.69497555  0.70814043  0.70556033  1
  Zr  Zr46  1  0.30689720  0.50716790  0.28398853  1
  Zr  Zr47  1  0.50201379  0.89583762  0.70246023  1
  Zr  Zr48  1  0.10281042  0.09596857  0.49429394  1
  Zr  Zr49  1  0.69935717  0.09562411  0.68680072  1
  Sc  Sc50  1  0.90100536  0.70122781  0.70521525  1
  Sc  Sc51  1  0.89572114  0.50412066  0.09479547  1
  Sc  Sc52  1  0.70720110  0.29058219  0.69400238  1
  Sc  Sc53  1  0.70876925  0.29993024  0.49455452  1
  Sc  Sc54  1  0.11645524  0.09701375  0.70120039  1
  Sc  Sc55  1  0.51032756  0.30582160  0.30571171  1
  Sc  Sc56  1  0.50519653  0.50673683  0.89824679  1
  Sc  Sc57  1  0.29519744  0.70528725  0.49981480  1
  Sc  Sc58  1  0.50211503  0.70083273  0.89999720  1
  Sc  Sc59  1  0.10151472  0.89414974  0.89979278  1
  Sc  Sc60  1  0.50482158  0.08683455  0.10305738  1
  Sc  Sc61  1  0.29837479  0.09135343  0.89109370  1
  Sc  Sc62  1  0.09086991  0.10415735  0.90410377  1
  Sc  Sc63  1  0.70258758  0.50435513  0.49563187  1
  Sc  Sc64  1  0.51093430  0.70150136  0.09907990  1
  Sc  Sc65  1  0.30846666  0.50219366  0.70139888  1
  Sc  Sc66  1  0.30177056  0.29858229  0.70266314  1
  Sc  Sc67  1  0.49211426  0.69538642  0.49183873  1
  Sc  Sc68  1  0.89698696  0.09269484  0.30861575  1
  Sc  Sc69  1  0.10396201  0.70322481  0.09764525  1
  Sc  Sc70  1  0.70112374  0.51208421  0.69887890  1
  Sc  Sc71  1  0.70664716  0.89695599  0.50332640  1
  Sc  Sc72  1  0.30993927  0.50635380  0.50865050  1
  Sc  Sc73  1  0.69434245  0.69110396  0.90512107  1
  Sc  Sc74  1  0.90167236  0.49722915  0.50343664  1
  Sc  Sc75  1  0.89895877  0.89950918  0.48239172  1
  Sc  Sc76  1  0.09409558  0.70527550  0.69664889  1
  Sc  Sc77  1  0.09607212  0.70441948  0.90362534  1
  Sc  Sc78  1  0.50321919  0.69247789  0.71022231  1
  Sc  Sc79  1  0.49941556  0.90237870  0.49885694  1
  Sc  Sc80  1  0.30278633  0.89477047  0.90254317  1
  Sc  Sc81  1  0.89763172  0.69358345  0.09593452  1
  Sc  Sc82  1  0.90099998  0.89527613  0.91447271  1
  Sc  Sc83  1  0.89029116  0.10786638  0.69637154  1
  Sc  Sc84  1  0.29897574  0.89296694  0.49573217  1
  Sc  Sc85  1  0.90210954  0.69747108  0.49684518  1
  Sc  Sc86  1  0.09836210  0.30282466  0.70676587  1
  Sc  Sc87  1  0.91360288  0.09168004  0.08998340  1
  Sc  Sc88  1  0.90214883  0.50381637  0.69718532  1
  Sc  Sc89  1  0.29513466  0.70120741  0.10514381  1
  Sc  Sc90  1  0.69793385  0.89100258  0.90634193  1
  Sc  Sc91  1  0.30169344  0.30626107  0.89714836  1
  Sc  Sc92  1  0.09187266  0.50642825  0.49994196  1
  Sc  Sc93  1  0.88836571  0.09468045  0.49723586  1
  Sc  Sc94  1  0.70331210  0.69886587  0.49827077  1
  Sc  Sc95  1  0.10382223  0.70248360  0.50604928  1
  Sc  Sc96  1  0.89533931  0.69761907  0.30267692  1
  Sc  Sc97  1  0.30406847  0.30178457  0.49875514  1
  Sc  Sc98  1  0.08856761  0.89384598  0.29762639  1
  Sc  Sc99  1  0.31234794  0.31776779  0.09802458  1
  Nb  Nb100  1  0.88770473  0.50021249  0.90474994  1
  Nb  Nb101  1  0.50112260  0.69933909  0.29676036  1
  Nb  Nb102  1  0.69608646  0.51059859  0.29664386  1
  Nb  Nb103  1  0.50170478  0.29587877  0.90100406  1
  Nb  Nb104  1  0.90007365  0.30197233  0.49501099  1
  Nb  Nb105  1  0.69819763  0.69526361  0.10952147  1
  Nb  Nb106  1  0.10630819  0.69630907  0.29511835  1
  Nb  Nb107  1  0.89404511  0.89501490  0.29546356  1
  Nb  Nb108  1  0.49979725  0.10230370  0.30603350  1
  Nb  Nb109  1  0.70583266  0.49763474  0.90368941  1
  Nb  Nb110  1  0.50134448  0.89518716  0.91015604  1
  Nb  Nb111  1  0.50188875  0.10276140  0.49167693  1
  Nb  Nb112  1  0.10508820  0.49933698  0.10524824  1
  Nb  Nb113  1  0.30406633  0.50476963  0.09960036  1
  Nb  Nb114  1  0.30651511  0.90161140  0.10119236  1
  Nb  Nb115  1  0.30035404  0.90202285  0.29587038  1
  Nb  Nb116  1  0.89410268  0.89872931  0.10563765  1
  Nb  Nb117  1  0.69079550  0.69298281  0.28780351  1
  Nb  Nb118  1  0.89846844  0.09868216  0.89890793  1
  Nb  Nb119  1  0.49587505  0.89671609  0.09311806  1
  Nb  Nb120  1  0.89862156  0.30070585  0.30613783  1
  Nb  Nb121  1  0.50465935  0.51250787  0.30061236  1
  Nb  Nb122  1  0.48787444  0.49555108  0.10679368  1
  Nb  Nb123  1  0.69875060  0.10226314  0.50229163  1
  Nb  Nb124  1  0.10380581  0.10205526  0.09815681  1
  Nb  Nb125  1  -0.00072138  0.00187446  0.60089602  1
  Nb  Nb126  1  0.19981755  0.40354197  0.60086759  1
  Nb  Nb127  1  0.59830348  0.79293193  0.39083934  1
  Nb  Nb128  1  0.79501154  0.79936667  0.19723960  1
  Nb  Nb129  1  0.19968460  0.60302528  0.39140754  1
  Nb  Nb130  1  0.40078850  0.80019878  0.60592196  1
  Nb  Nb131  1  0.20459548  0.19729848  0.00732580  1
  Nb  Nb132  1  0.79959217  -0.00240612  0.80222596  1
  Nb  Nb133  1  0.59892533  0.20133496  -0.00187530  1
  Nb  Nb134  1  0.20181740  -0.00408745  0.39102782  1
  Nb  Nb135  1  0.80167214  0.20089324  -0.00084674  1
  Nb  Nb136  1  -0.00194527  0.20367776  0.40081072  1
  Nb  Nb137  1  0.79968375  -0.00860161  0.19823090  1
  Nb  Nb138  1  0.60362259  0.39889444  0.79850663  1
  Nb  Nb139  1  0.19841638  0.00270657  0.00933704  1
  Nb  Nb140  1  -0.00813586  0.00069519  0.79714581  1
  Nb  Nb141  1  0.59672918  0.39951910  0.60426461  1
  Nb  Nb142  1  0.00823612  0.59576332  0.20195538  1
  Nb  Nb143  1  0.40444607  0.80652949  0.19964024  1
  Nb  Nb144  1  0.60191282  -0.00538166  0.79835735  1
  Nb  Nb145  1  0.19876849  0.59876893  0.80408241  1
  Nb  Nb146  1  0.40671916  0.19833595  0.20240550  1
  Nb  Nb147  1  0.39927321  0.59546961  0.00845164  1
  Nb  Nb148  1  0.40292571  0.20007593  0.00246611  1
  Nb  Nb149  1  0.00050654  0.19924200  0.59179425  1
  Pd  Pd150  1  0.19948533  0.60288844  -0.00026847  1
  Pd  Pd151  1  0.60682560  -0.00490731  0.40822389  1
  Pd  Pd152  1  0.40136141  0.80033111  0.79827659  1
  Pd  Pd153  1  0.00220817  0.19039152  0.78771059  1
  Pd  Pd154  1  0.19809949  0.40948403  0.79236007  1
  Pd  Pd155  1  0.60291721  -0.00129851  0.20204938  1
  Pd  Pd156  1  0.40778264  0.40173995  0.80443297  1
  Pd  Pd157  1  0.39638275  0.00602772  -0.00642211  1
  Pd  Pd158  1  0.79710150  0.60178628  0.80056842  1
  Pd  Pd159  1  0.81116354  0.18471382  0.19730160  1
  Pd  Pd160  1  0.21386148  0.21560001  0.19131473  1
  Pd  Pd161  1  0.79635165  0.40651418  0.78929270  1
  Pd  Pd162  1  0.58984259  0.78959606  0.58698047  1
  Pd  Pd163  1  0.39048014  0.60037690  0.39840151  1
  Pd  Pd164  1  -0.00715426  0.00605764  0.20721299  1
  Pd  Pd165  1  0.60121417  0.20865866  0.40638397  1
  Pd  Pd166  1  -0.00768477  0.40312118  0.00674476  1
  Pd  Pd167  1  0.00464475  0.59734338  0.80145450  1
  Pd  Pd168  1  0.20413231  0.39317835  0.19392880  1
  Pd  Pd169  1  0.80464600  0.80075243  0.81416138  1
  Pd  Pd170  1  0.79720293  0.60120050  0.39741409  1
  Pd  Pd171  1  0.00189017  0.79203738  0.39704166  1
  Pd  Pd172  1  0.80773389  0.79505382  0.59207023  1
  Pd  Pd173  1  0.59689484  0.20877767  0.58834149  1
  Pd  Pd174  1  0.60886846  0.40333005  0.40213900  1
  Pd  Pd175  1  0.20214639  0.80821131  0.19671806  1
  Pd  Pd176  1  0.79122801  0.40439926  0.59990183  1
  Pd  Pd177  1  -0.00428495  0.41065223  0.79884650  1
  Pd  Pd178  1  0.19874137  0.79252783  0.79728948  1
  Pd  Pd179  1  0.78916643  0.00098566  0.39648478  1
  Pd  Pd180  1  0.79494381  0.19546600  0.80363650  1
  Pd  Pd181  1  0.61191870  0.19853893  0.80193676  1
  Pd  Pd182  1  0.39442334  -0.00343139  0.40657757  1
  Pd  Pd183  1  -0.00067747  0.79751103  0.00560387  1
  Pd  Pd184  1  0.00740972  0.60486574  0.39594980  1
  Pd  Pd185  1  0.19708982  0.20957457  0.60135451  1
  Pd  Pd186  1  0.59390984  0.40388077  -0.00660366  1
  Pd  Pd187  1  0.20262732  0.19887936  0.80979272  1
  Pd  Pd188  1  0.39972167  0.20260734  0.59857863  1
  Pd  Pd189  1  -0.00835061  0.80483170  0.59270522  1
  Pd  Pd190  1  -0.01020716  0.78599189  0.19756279  1
  Pd  Pd191  1  0.59798141  0.60097296  0.59440705  1
  Pd  Pd192  1  0.40720459  0.39218041  0.21423966  1
  Pd  Pd193  1  0.79539829  0.78838379  0.00413653  1
  Pd  Pd194  1  -0.01245538  0.18891957  0.20827983  1
  Pd  Pd195  1  0.80369805  0.60669496  0.60171288  1
  Pd  Pd196  1  0.80042013  0.41285705  0.20010694  1
  Pd  Pd197  1  0.59911273  -0.00472491  0.59389196  1
  Pd  Pd198  1  0.21286964  0.41794326  0.41078236  1
  Pd  Pd199  1  0.19630177  0.39201801  0.00972769  1
  Rh  Rh200  1  0.00717587  0.39425838  0.59794206  1
  Rh  Rh201  1  -0.00656980  0.40923953  0.19607477  1
  Rh  Rh202  1  0.40028274  -0.00545939  0.59096348  1
  Rh  Rh203  1  0.38972121  0.60061498  0.81653222  1
  Rh  Rh204  1  0.19475166  -0.01159411  0.20068015  1
  Rh  Rh205  1  0.80731742  0.60137868  0.20183014  1
  Rh  Rh206  1  0.59039013  0.19492358  0.19648023  1
  Rh  Rh207  1  0.59481483  0.59489402  0.00523534  1
  Rh  Rh208  1  0.60059740  0.79077197  -0.00036396  1
  Rh  Rh209  1  0.39814231  0.41042767  0.39196351  1
  Rh  Rh210  1  0.59010034  0.59241908  0.19095243  1
  Rh  Rh211  1  0.59783421  0.80308672  0.80932408  1
  Rh  Rh212  1  -0.00324831  0.20259110  -0.00071850  1
  Rh  Rh213  1  0.80644186  0.20094309  0.58869938  1
  Rh  Rh214  1  0.40708031  0.20101274  0.39644464  1
  Rh  Rh215  1  0.60781799  0.59264033  0.80465577  1
  Rh  Rh216  1  0.80456970  -0.00381306  0.59965723  1
  Rh  Rh217  1  0.79221856  0.60085185  0.00014451  1
  Rh  Rh218  1  0.19892803  -0.00539930  0.58863448  1
  Rh  Rh219  1  0.40702799  0.61309111  0.19172861  1
  Rh  Rh220  1  0.40862729  0.40461331  -0.00773147  1
  Rh  Rh221  1  -0.00636595  0.80389796  0.80595158  1
  Rh  Rh222  1  0.40764803  0.80448689  0.39750067  1
  Rh  Rh223  1  0.79173558  0.78899081  0.39215410  1
  Rh  Rh224  1  0.19602807  0.19272143  0.39947542  1
  Rh  Rh225  1  0.20010563  0.59524337  0.59844090  1
  Rh  Rh226  1  0.59978891  0.41198437  0.20994859  1
  Rh  Rh227  1  0.79769484  0.40723963  0.39842737  1
  Rh  Rh228  1  0.18651217  0.00143120  0.81545216  1
  Rh  Rh229  1  0.40538128  0.61210634  0.59897296  1
  Rh  Rh230  1  0.19314980  0.80053507  0.39255708  1
  Rh  Rh231  1  0.60393550  0.60616841  0.40040750  1
  Rh  Rh232  1  0.59657401  0.80462775  0.20109202  1
  Rh  Rh233  1  0.58807881  0.00466148  -0.01024552  1
  Rh  Rh234  1  -0.00558480  0.39678634  0.40242750  1
  Rh  Rh235  1  0.39975183  0.39555517  0.60635742  1
  Rh  Rh236  1  0.41004046  -0.01328968  0.80623416  1
  Rh  Rh237  1  0.40829574  -0.00103838  0.20148322  1
  Rh  Rh238  1  0.38813238  0.20211057  0.80547891  1
  Rh  Rh239  1  0.40148685  0.79030193  0.00887090  1
  Rh  Rh240  1  0.80684900  0.00278662  0.00114281  1
  Rh  Rh241  1  0.19556503  0.59881313  0.20032108  1
  Rh  Rh242  1  0.00535896  0.59560081  0.00896101  1
  Rh  Rh243  1  0.00750183  0.00313915  0.39905222  1
  Rh  Rh244  1  -0.00552310  0.60775224  0.59905924  1
  Rh  Rh245  1  0.20011636  0.81326478  0.00920209  1
  Rh  Rh246  1  0.20990269  0.80222265  0.60719135  1
  Rh  Rh247  1  0.80651482  0.39502764  0.00468625  1
  Rh  Rh248  1  0.80191990  0.19876917  0.40099235  1
  Rh  Rh249  1  0.00636007  -0.00410296  -0.00834053  1
