# generated using pymatgen
data_ZrScNbPdRh
_symmetry_space_group_name_H-M   'P 1'
_cell_length_a   16.55429255
_cell_length_b   16.55503777
_cell_length_c   16.55209467
_cell_angle_alpha   90.00945201
_cell_angle_beta   90.00327728
_cell_angle_gamma   90.05342712
_symmetry_Int_Tables_number   1
_chemical_formula_structural   ZrScNbPdRh
_chemical_formula_sum   'Zr50 Sc50 Nb50 Pd50 Rh50'
_cell_volume   4536.21434952
_cell_formula_units_Z   50
loop_
 _symmetry_equiv_pos_site_id
 _symmetry_equiv_pos_as_xyz
  1  'x, y, z'
loop_
 _atom_site_type_symbol
 _atom_site_label
 _atom_site_symmetry_multiplicity
 _atom_site_fract_x
 _atom_site_fract_y
 _atom_site_fract_z
 _atom_site_occupancy
  Zr  Zr0  1  0.09741662  0.50612262  0.51200131  1
  Zr  Zr1  1  0.90509341  0.69713509  0.29739901  1
  Zr  Zr2  1  0.09717131  0.29896887  0.29604127  1
  Zr  Zr3  1  0.09950622  0.10239173  0.69811422  1
  Zr  Zr4  1  0.29559683  0.49629232  0.49780816  1
  Zr  Zr5  1  0.69285448  0.69909135  0.09782734  1
  Zr  Zr6  1  0.89867040  0.10133708  0.29733534  1
  Zr  Zr7  1  0.51193435  0.09559331  0.09992208  1
  Zr  Zr8  1  0.89832420  0.10285108  0.09127488  1
  Zr  Zr9  1  0.10241657  0.70358841  0.49871510  1
  Zr  Zr10  1  0.30078255  0.91345085  0.29874836  1
  Zr  Zr11  1  0.10357508  0.49735919  0.09187687  1
  Zr  Zr12  1  0.89178440  0.89656431  0.10070217  1
  Zr  Zr13  1  0.09738938  0.50534913  0.28649536  1
  Zr  Zr14  1  0.29458277  0.30390067  0.50016097  1
  Zr  Zr15  1  0.89748564  0.49635695  0.69606338  1
  Zr  Zr16  1  0.49862089  0.69253716  0.69766499  1
  Zr  Zr17  1  0.70130225  0.29487889  0.50549972  1
  Zr  Zr18  1  0.09583355  0.10376620  0.88913750  1
  Zr  Zr19  1  0.10399219  0.69283455  0.10403249  1
  Zr  Zr20  1  0.89937232  0.49242575  0.10731081  1
  Zr  Zr21  1  0.69600037  0.69675926  0.70157200  1
  Zr  Zr22  1  0.69503167  0.48707384  0.69746934  1
  Zr  Zr23  1  0.69522905  0.69729537  0.30950181  1
  Zr  Zr24  1  0.09431430  0.28918131  0.70079398  1
  Zr  Zr25  1  0.29380225  0.29191731  0.69807440  1
  Zr  Zr26  1  0.49983406  0.68958260  0.10597520  1
  Zr  Zr27  1  0.70218426  0.30246683  0.69833484  1
  Zr  Zr28  1  0.69204592  0.90376858  0.89557592  1
  Zr  Zr29  1  0.49781504  0.90140246  0.49988962  1
  Zr  Zr30  1  0.10539574  0.30526522  0.90367950  1
  Zr  Zr31  1  0.70320886  0.90707885  0.50625791  1
  Zr  Zr32  1  0.29906825  0.89903985  0.71630287  1
  Zr  Zr33  1  0.89524325  0.70003922  0.10067292  1
  Zr  Zr34  1  0.51057891  0.30781361  0.69817506  1
  Zr  Zr35  1  0.30771472  0.09887024  0.88953203  1
  Zr  Zr36  1  0.50754449  0.70260885  0.49612977  1
  Zr  Zr37  1  0.50049775  0.49672780  0.29718194  1
  Zr  Zr38  1  0.70023133  0.09900339  0.29908670  1
  Zr  Zr39  1  0.10577269  0.10182896  0.30532827  1
  Zr  Zr40  1  0.29889683  0.50049336  0.29580289  1
  Zr  Zr41  1  0.30083271  0.30755530  0.30488769  1
  Zr  Zr42  1  0.69831349  0.70082077  0.50313203  1
  Zr  Zr43  1  0.31127197  0.89700334  0.90992927  1
  Zr  Zr44  1  0.89818927  0.50085812  0.30660836  1
  Zr  Zr45  1  0.48619706  0.50448636  0.90160756  1
  Zr  Zr46  1  0.89966565  0.69179091  0.50001550  1
  Zr  Zr47  1  0.29322428  0.10481250  0.49547737  1
  Zr  Zr48  1  0.49681463  0.89733063  0.30109108  1
  Zr  Zr49  1  0.89749489  0.89937334  0.29922491  1
  Sc  Sc50  1  0.50466507  0.09687227  0.90354619  1
  Sc  Sc51  1  0.50598470  0.29228602  0.29695952  1
  Sc  Sc52  1  0.10626988  0.50426308  0.70002991  1
  Sc  Sc53  1  0.70615235  0.49442493  0.29787960  1
  Sc  Sc54  1  0.90468892  0.30831895  0.30220860  1
  Sc  Sc55  1  0.30069827  0.69242656  0.70285270  1
  Sc  Sc56  1  0.29916492  0.70492942  0.89646564  1
  Sc  Sc57  1  0.11960928  0.88948041  0.89701797  1
  Sc  Sc58  1  0.69445353  0.71107806  0.89943775  1
  Sc  Sc59  1  0.70013011  0.29415276  0.30163688  1
  Sc  Sc60  1  0.89586958  0.29751282  0.91138801  1
  Sc  Sc61  1  0.30607173  0.70641386  0.50169227  1
  Sc  Sc62  1  0.10137925  0.29704461  0.50217785  1
  Sc  Sc63  1  0.91366706  0.10127702  0.70047145  1
  Sc  Sc64  1  0.49847585  0.10425754  0.70697525  1
  Sc  Sc65  1  0.70493566  0.29973918  0.09401964  1
  Sc  Sc66  1  0.70548998  0.90423745  0.29385729  1
  Sc  Sc67  1  0.89627230  0.49622490  0.89447331  1
  Sc  Sc68  1  0.50421874  0.90576241  0.70653128  1
  Sc  Sc69  1  0.70000832  0.49026592  0.89123082  1
  Sc  Sc70  1  0.89737357  0.30031290  0.50536512  1
  Sc  Sc71  1  0.29823645  0.70023473  0.09754561  1
  Sc  Sc72  1  0.90101195  0.90472778  0.70256939  1
  Sc  Sc73  1  0.89705290  0.89919597  0.50834231  1
  Sc  Sc74  1  0.69919129  0.90393757  0.70379478  1
  Sc  Sc75  1  0.50166424  0.50571213  0.70378411  1
  Sc  Sc76  1  0.89510583  0.69543295  0.70075648  1
  Sc  Sc77  1  0.09338961  0.30796732  0.09727330  1
  Sc  Sc78  1  0.32216607  0.09535155  0.10790448  1
  Sc  Sc79  1  0.29808023  0.50657571  0.09382568  1
  Sc  Sc80  1  0.88518134  0.69928384  0.89540990  1
  Sc  Sc81  1  0.49769737  0.28527895  0.09878425  1
  Sc  Sc82  1  0.11335711  0.69231188  0.89887800  1
  Sc  Sc83  1  0.30502469  0.89808203  0.48523853  1
  Sc  Sc84  1  0.89872533  0.09871187  0.89644035  1
  Sc  Sc85  1  0.09069721  0.90663943  0.70285451  1
  Sc  Sc86  1  0.69353025  0.90239855  0.09715994  1
  Sc  Sc87  1  0.09408696  0.10851487  0.10426452  1
  Sc  Sc88  1  0.30399545  0.30702816  0.89867215  1
  Sc  Sc89  1  0.70502783  0.50385704  0.49558191  1
  Sc  Sc90  1  0.09392180  0.89699329  0.49832484  1
  Sc  Sc91  1  0.10595544  0.89715289  0.09965977  1
  Sc  Sc92  1  0.50263010  0.10368306  0.49953752  1
  Sc  Sc93  1  0.30576540  0.70838664  0.29703004  1
  Sc  Sc94  1  0.50525713  0.50247052  0.50341926  1
  Sc  Sc95  1  0.50371002  0.10231335  0.29154685  1
  Sc  Sc96  1  0.49735783  0.29682453  0.90106312  1
  Sc  Sc97  1  0.88500211  0.89867154  0.89639781  1
  Sc  Sc98  1  0.10044611  0.69013454  0.69687437  1
  Sc  Sc99  1  0.49950028  0.30073533  0.49848817  1
  Nb  Nb100  1  0.49960368  0.70105615  0.89880490  1
  Nb  Nb101  1  0.69805888  0.30197641  0.89366054  1
  Nb  Nb102  1  0.29991948  0.49978367  0.69849310  1
  Nb  Nb103  1  0.10015374  0.89865926  0.30203375  1
  Nb  Nb104  1  0.70059433  0.10284045  0.90476616  1
  Nb  Nb105  1  0.30577786  0.29296223  0.09771406  1
  Nb  Nb106  1  0.10125552  0.70666940  0.30079684  1
  Nb  Nb107  1  0.30234453  0.10016821  0.30252143  1
  Nb  Nb108  1  0.28978952  0.50036192  0.89314207  1
  Nb  Nb109  1  0.89532235  0.29783280  0.70029399  1
  Nb  Nb110  1  0.90338288  0.29522744  0.10100450  1
  Nb  Nb111  1  0.70877392  0.10300187  0.49813050  1
  Nb  Nb112  1  0.69997756  0.09752693  0.10074187  1
  Nb  Nb113  1  0.30214465  0.90258991  0.09919464  1
  Nb  Nb114  1  0.89965537  0.49728897  0.49740664  1
  Nb  Nb115  1  0.69407221  0.49907966  0.09924000  1
  Nb  Nb116  1  0.50243538  0.50188861  0.10027356  1
  Nb  Nb117  1  0.49070064  0.90692704  0.09529201  1
  Nb  Nb118  1  0.49917632  0.90351990  0.90429179  1
  Nb  Nb119  1  0.09279061  0.10145476  0.50246069  1
  Nb  Nb120  1  0.10154137  0.49490071  0.90396563  1
  Nb  Nb121  1  0.69733638  0.10315324  0.69813792  1
  Nb  Nb122  1  0.29837695  0.09998842  0.69727336  1
  Nb  Nb123  1  0.89466756  0.09652858  0.50001023  1
  Nb  Nb124  1  0.50068629  0.69696561  0.30199061  1
  Nb  Nb125  1  0.39091862  0.00371994  0.60308829  1
  Nb  Nb126  1  0.39435038  0.19935628  0.39692077  1
  Nb  Nb127  1  0.00018798  0.79643895  -0.00493416  1
  Nb  Nb128  1  0.59530898  0.40574885  0.00462641  1
  Nb  Nb129  1  0.60196844  0.39801417  0.40015210  1
  Nb  Nb130  1  0.39467701  0.40128828  0.60337837  1
  Nb  Nb131  1  0.79466276  0.59327712  0.00538189  1
  Nb  Nb132  1  0.00121121  0.39729736  0.79926928  1
  Nb  Nb133  1  0.20319573  0.00032619  0.59952758  1
  Nb  Nb134  1  0.79184881  0.20117215  0.79963281  1
  Nb  Nb135  1  0.20027081  0.60455207  0.39596772  1
  Nb  Nb136  1  0.00560774  -0.00839075  -0.00083009  1
  Nb  Nb137  1  0.00005037  0.79473128  0.80807030  1
  Nb  Nb138  1  -0.00472322  0.60006673  -0.00264950  1
  Nb  Nb139  1  0.40331609  0.40016611  0.19122031  1
  Nb  Nb140  1  0.40158599  0.60031289  0.39591676  1
  Nb  Nb141  1  0.20355019  0.00704617  0.00275339  1
  Nb  Nb142  1  -0.00260958  0.00265603  0.39798470  1
  Nb  Nb143  1  0.60741354  0.00420053  0.40368117  1
  Nb  Nb144  1  0.80514974  0.19831478  0.19207610  1
  Nb  Nb145  1  0.20845995  0.19603872  0.00452844  1
  Nb  Nb146  1  0.20894769  0.19991481  0.19867479  1
  Nb  Nb147  1  0.00191657  -0.00360644  0.20171492  1
  Nb  Nb148  1  0.20195487  0.80840424  0.60272241  1
  Nb  Nb149  1  0.19965508  0.80801908  0.20557638  1
  Pd  Pd150  1  0.00597952  0.40334219  0.40501493  1
  Pd  Pd151  1  0.78918177  0.59798050  0.80463981  1
  Pd  Pd152  1  0.00111320  0.39682496  0.60619148  1
  Pd  Pd153  1  0.40753311  0.79032522  0.00598827  1
  Pd  Pd154  1  0.19719217  0.00143160  0.80156409  1
  Pd  Pd155  1  0.79227391  0.60076154  0.19936492  1
  Pd  Pd156  1  0.58925507  0.80397681  0.00401167  1
  Pd  Pd157  1  0.39152569  0.60573766  -0.00421919  1
  Pd  Pd158  1  0.00309895  0.79541209  0.61079827  1
  Pd  Pd159  1  0.79840737  -0.00205682  -0.00086181  1
  Pd  Pd160  1  0.59236795  0.80043848  0.79596649  1
  Pd  Pd161  1  0.40067935  0.40061872  0.79133700  1
  Pd  Pd162  1  0.39755395  0.59392944  0.59243319  1
  Pd  Pd163  1  0.59879549  0.80488350  0.19795089  1
  Pd  Pd164  1  0.60279357  0.19685750  0.80251847  1
  Pd  Pd165  1  0.00700115  0.80401006  0.19332958  1
  Pd  Pd166  1  0.60453237  0.20684953  -0.00018784  1
  Pd  Pd167  1  0.00720634  0.19810528  -0.00522451  1
  Pd  Pd168  1  0.19084400  -0.00297741  0.40949900  1
  Pd  Pd169  1  0.39455360  0.81059074  0.60626820  1
  Pd  Pd170  1  0.59429088  0.00863434  0.59969146  1
  Pd  Pd171  1  0.59682430  0.39054293  0.19674343  1
  Pd  Pd172  1  0.80144794  0.80088481  0.40206996  1
  Pd  Pd173  1  0.40138176  0.40047899  0.00599163  1
  Pd  Pd174  1  0.80041800  0.80082999  0.60818736  1
  Pd  Pd175  1  0.40880818  0.79525127  0.79872769  1
  Pd  Pd176  1  0.79585947  0.59406088  0.60024428  1
  Pd  Pd177  1  0.80738407  0.20713815  0.39386024  1
  Pd  Pd178  1  0.59986945  0.80406437  0.60796504  1
  Pd  Pd179  1  0.60625148  0.81194541  0.39891957  1
  Pd  Pd180  1  0.00296942  0.59719560  0.80628762  1
  Pd  Pd181  1  -0.00628215  0.19877872  0.40679910  1
  Pd  Pd182  1  0.40394541  0.20166354  0.59542724  1
  Pd  Pd183  1  0.40394335  0.20478354  0.79953989  1
  Pd  Pd184  1  0.78812175  0.79461513  0.20144173  1
  Pd  Pd185  1  0.18343213  0.40916082  0.40067750  1
  Pd  Pd186  1  0.20632743  0.39187035  0.18784366  1
  Pd  Pd187  1  0.60603879  0.59292016  -0.01355052  1
  Pd  Pd188  1  -0.00805520  0.80532438  0.40374145  1
  Pd  Pd189  1  0.39645437  0.80221483  0.19632690  1
  Pd  Pd190  1  0.79626465  0.40241491  -0.00061493  1
  Pd  Pd191  1  0.79889911  0.01146879  0.79322321  1
  Pd  Pd192  1  0.19628929  0.00478223  0.19063020  1
  Pd  Pd193  1  0.19442874  0.39968636  0.79278719  1
  Pd  Pd194  1  0.60578215  0.59705458  0.20861813  1
  Pd  Pd195  1  0.60242271  0.59592041  0.80723237  1
  Pd  Pd196  1  0.00782604  0.59832896  0.39981083  1
  Pd  Pd197  1  0.80478526  0.00744105  0.61096330  1
  Pd  Pd198  1  0.79867240  0.38942285  0.20120790  1
  Pd  Pd199  1  0.59805179  0.19513745  0.59850190  1
  Rh  Rh200  1  0.59939250  0.00578300  0.80425833  1
  Rh  Rh201  1  0.20065622  0.59629554  -0.00731295  1
  Rh  Rh202  1  -0.00626050  0.19979255  0.59429840  1
  Rh  Rh203  1  0.20610774  0.61326113  0.20846250  1
  Rh  Rh204  1  0.79754500  0.79400878  -0.00031872  1
  Rh  Rh205  1  0.80197687  0.40385128  0.59271966  1
  Rh  Rh206  1  0.80995332  0.38907533  0.80193254  1
  Rh  Rh207  1  -0.01372357  0.21297438  0.80657851  1
  Rh  Rh208  1  0.39393943  0.60351449  0.80514555  1
  Rh  Rh209  1  0.40722651  0.00043642  0.79697154  1
  Rh  Rh210  1  0.40891221  -0.00161355  0.20337401  1
  Rh  Rh211  1  0.20884079  0.60942576  0.59288126  1
  Rh  Rh212  1  0.60592198  0.59783296  0.60167117  1
  Rh  Rh213  1  -0.00863713  0.40805045  -0.00463906  1
  Rh  Rh214  1  0.40326904  0.79138177  0.39651189  1
  Rh  Rh215  1  0.20222039  0.59630617  0.80037490  1
  Rh  Rh216  1  0.80660150  0.19016268  0.61058162  1
  Rh  Rh217  1  0.20261619  0.79772254  0.39812323  1
  Rh  Rh218  1  0.20161642  0.39916968  0.60790978  1
  Rh  Rh219  1  0.20251065  0.20377784  0.39491676  1
  Rh  Rh220  1  0.61475526  0.20197064  0.19132782  1
  Rh  Rh221  1  0.39391088  0.20749590  0.21089137  1
  Rh  Rh222  1  0.80191707  0.80097221  0.79224378  1
  Rh  Rh223  1  0.59593721  0.40310283  0.58970238  1
  Rh  Rh224  1  0.39722108  0.19172297  -0.00659117  1
  Rh  Rh225  1  0.20584154  0.20188276  0.80795771  1
  Rh  Rh226  1  0.59642322  0.19860581  0.40562401  1
  Rh  Rh227  1  0.41351035  0.01196847  0.40222893  1
  Rh  Rh228  1  0.19318619  0.19402868  0.59744159  1
  Rh  Rh229  1  0.39873151  0.59580855  0.20251091  1
  Rh  Rh230  1  -0.00103789  0.20085168  0.20044960  1
  Rh  Rh231  1  0.80389811  0.00732587  0.19086551  1
  Rh  Rh232  1  -0.00234758  0.39959571  0.19939353  1
  Rh  Rh233  1  0.58624003  0.40412188  0.81436142  1
  Rh  Rh234  1  0.60183846  -0.00337544  -0.00167761  1
  Rh  Rh235  1  0.21129994  0.39564563  0.00198038  1
  Rh  Rh236  1  0.00207830  0.00156941  0.58923778  1
  Rh  Rh237  1  0.80166891  0.60051717  0.39962023  1
  Rh  Rh238  1  0.00161399  -0.01744291  0.81813824  1
  Rh  Rh239  1  -0.00111127  0.59920258  0.19556434  1
  Rh  Rh240  1  0.40037647  0.00535962  -0.00139757  1
  Rh  Rh241  1  0.59659216  -0.00645226  0.20307438  1
  Rh  Rh242  1  -0.00816962  0.59983802  0.60159565  1
  Rh  Rh243  1  0.20131317  0.80434313  0.01089073  1
  Rh  Rh244  1  0.41453652  0.39805830  0.39892714  1
  Rh  Rh245  1  0.18980385  0.79098325  0.78491597  1
  Rh  Rh246  1  0.79287842  0.19994683  -0.00164906  1
  Rh  Rh247  1  0.80018836  -0.00267902  0.40570332  1
  Rh  Rh248  1  0.79420198  0.39570505  0.40640661  1
  Rh  Rh249  1  0.59539609  0.59070963  0.39496983  1
