# generated using pymatgen
data_ZrScNbPdRh
_symmetry_space_group_name_H-M   'P 1'
_cell_length_a   16.56265849
_cell_length_b   16.55935531
_cell_length_c   16.56277437
_cell_angle_alpha   90.00447130
_cell_angle_beta   89.99450248
_cell_angle_gamma   89.98885621
_symmetry_Int_Tables_number   1
_chemical_formula_structural   ZrScNbPdRh
_chemical_formula_sum   'Zr50 Sc50 Nb50 Pd50 Rh50'
_cell_volume   4542.62143548
_cell_formula_units_Z   50
loop_
 _symmetry_equiv_pos_site_id
 _symmetry_equiv_pos_as_xyz
  1  'x, y, z'
loop_
 _atom_site_type_symbol
 _atom_site_label
 _atom_site_symmetry_multiplicity
 _atom_site_fract_x
 _atom_site_fract_y
 _atom_site_fract_z
 _atom_site_occupancy
  Zr  Zr0  1  0.51043377  0.69705509  0.90551255  1
  Zr  Zr1  1  0.90862365  0.10536373  0.29567444  1
  Zr  Zr2  1  0.70642841  0.50251521  0.11197967  1
  Zr  Zr3  1  0.10102496  0.09610382  0.30189970  1
  Zr  Zr4  1  0.10358794  0.50332921  0.09827197  1
  Zr  Zr5  1  0.30356644  0.10332892  0.09188736  1
  Zr  Zr6  1  0.10725888  0.10483398  0.89613503  1
  Zr  Zr7  1  0.50662427  0.90943874  0.50505656  1
  Zr  Zr8  1  0.90123423  0.89404114  0.90654707  1
  Zr  Zr9  1  0.90238502  0.10643315  0.49985415  1
  Zr  Zr10  1  0.50036867  0.10130348  0.09729669  1
  Zr  Zr11  1  0.29956185  0.90875705  0.89140780  1
  Zr  Zr12  1  0.09001178  0.49851004  0.49034398  1
  Zr  Zr13  1  0.09282285  0.29994633  0.70882107  1
  Zr  Zr14  1  0.49806219  0.09894320  0.90096926  1
  Zr  Zr15  1  0.49893270  0.90357956  0.69993953  1
  Zr  Zr16  1  0.50220014  0.11017713  0.50093637  1
  Zr  Zr17  1  0.30490231  0.69178654  0.50237544  1
  Zr  Zr18  1  0.90629930  0.30082390  0.89236791  1
  Zr  Zr19  1  0.30489275  0.49856998  0.69709587  1
  Zr  Zr20  1  0.09937856  0.90287251  0.48679060  1
  Zr  Zr21  1  0.50393147  0.10461031  0.30285139  1
  Zr  Zr22  1  0.89872192  0.09540032  0.11398975  1
  Zr  Zr23  1  0.88927191  0.50349510  0.69134283  1
  Zr  Zr24  1  0.29698082  0.70366247  0.30118684  1
  Zr  Zr25  1  0.29878733  0.50591863  0.89687617  1
  Zr  Zr26  1  0.09093041  0.70478103  0.49358482  1
  Zr  Zr27  1  0.89488369  0.29651952  0.69855511  1
  Zr  Zr28  1  0.10110700  0.50117917  0.29705317  1
  Zr  Zr29  1  0.49770098  0.30224131  0.30164318  1
  Zr  Zr30  1  0.90273511  0.91731231  0.29385024  1
  Zr  Zr31  1  0.09850405  0.89901032  0.70072606  1
  Zr  Zr32  1  0.70536927  0.89388856  0.90910089  1
  Zr  Zr33  1  0.29937243  0.89801748  0.09524487  1
  Zr  Zr34  1  0.69793411  0.29815072  0.70921328  1
  Zr  Zr35  1  0.09403093  0.30102224  0.90351461  1
  Zr  Zr36  1  0.28566794  0.90202592  0.29785565  1
  Zr  Zr37  1  0.49751206  0.49321709  0.70415555  1
  Zr  Zr38  1  0.50151321  0.50203523  0.89648889  1
  Zr  Zr39  1  0.49671400  0.29594092  0.69309360  1
  Zr  Zr40  1  0.69546129  0.89949802  0.69197532  1
  Zr  Zr41  1  0.10183869  0.10417269  0.69739167  1
  Zr  Zr42  1  0.29912975  0.69958528  0.90377497  1
  Zr  Zr43  1  0.70714096  0.69360877  0.70434581  1
  Zr  Zr44  1  0.70299239  0.89933099  0.50427101  1
  Zr  Zr45  1  0.89610076  0.69704025  0.89889560  1
  Zr  Zr46  1  0.89967109  0.70330533  0.69765075  1
  Zr  Zr47  1  0.69844214  0.30266955  0.29991922  1
  Zr  Zr48  1  0.49082084  0.89548606  0.30141200  1
  Zr  Zr49  1  0.90130185  0.50164388  0.10471172  1
  Sc  Sc50  1  0.90058412  0.50236951  0.90371819  1
  Sc  Sc51  1  0.49950534  0.50186239  0.11035429  1
  Sc  Sc52  1  0.09522441  0.11073040  0.10688971  1
  Sc  Sc53  1  0.50717858  0.70491011  0.70223516  1
  Sc  Sc54  1  0.69941430  0.69219550  0.30425668  1
  Sc  Sc55  1  0.69576605  0.30284551  0.11652381  1
  Sc  Sc56  1  0.89627853  0.89851096  0.69492927  1
  Sc  Sc57  1  0.89557609  0.89926793  0.49852409  1
  Sc  Sc58  1  0.10907209  0.89145576  0.90544663  1
  Sc  Sc59  1  0.69634354  0.09860430  0.50068670  1
  Sc  Sc60  1  0.29803991  0.69506905  0.70959771  1
  Sc  Sc61  1  0.70643098  0.10419989  0.29617471  1
  Sc  Sc62  1  0.89799550  0.69721931  0.50289915  1
  Sc  Sc63  1  0.29633947  0.10769461  0.49856272  1
  Sc  Sc64  1  0.89567179  0.09971711  0.89981911  1
  Sc  Sc65  1  0.70909064  0.90032959  0.30589568  1
  Sc  Sc66  1  0.09502648  0.70293475  0.69888107  1
  Sc  Sc67  1  0.50318478  0.09901699  0.69546817  1
  Sc  Sc68  1  0.10090651  0.10855988  0.49471689  1
  Sc  Sc69  1  0.49994169  0.29972634  0.11043069  1
  Sc  Sc70  1  0.30361138  0.29818796  0.49524030  1
  Sc  Sc71  1  0.30396558  0.90519031  0.48641889  1
  Sc  Sc72  1  0.10198591  0.89377884  0.09749720  1
  Sc  Sc73  1  0.29900849  0.30281852  0.10620005  1
  Sc  Sc74  1  0.89857485  0.09865520  0.69557336  1
  Sc  Sc75  1  0.29850495  0.09722484  0.70122524  1
  Sc  Sc76  1  0.89471244  0.29821090  0.30325305  1
  Sc  Sc77  1  0.48038091  0.50452056  0.50289408  1
  Sc  Sc78  1  0.29451654  0.49858378  0.10509535  1
  Sc  Sc79  1  0.28930458  0.29938366  0.90877571  1
  Sc  Sc80  1  0.89921604  0.69903420  0.30915911  1
  Sc  Sc81  1  0.69273090  0.10062860  0.89575370  1
  Sc  Sc82  1  0.51089412  0.70294387  0.10655906  1
  Sc  Sc83  1  0.29461449  0.69218799  0.09902864  1
  Sc  Sc84  1  0.49785398  0.69326715  0.49916882  1
  Sc  Sc85  1  0.90616966  0.29535371  0.10602331  1
  Sc  Sc86  1  0.89401933  0.49637456  0.30727661  1
  Sc  Sc87  1  0.10056401  0.69639841  0.90577524  1
  Sc  Sc88  1  0.69888798  0.09926002  0.10139464  1
  Sc  Sc89  1  0.90370237  0.69136161  0.08709876  1
  Sc  Sc90  1  0.70353838  0.70554063  0.50317977  1
  Sc  Sc91  1  0.70608260  0.28955341  0.50124963  1
  Sc  Sc92  1  0.49678559  0.69466908  0.30142466  1
  Sc  Sc93  1  0.51192801  0.29715120  0.89041369  1
  Sc  Sc94  1  0.50538734  0.90450574  0.89366463  1
  Sc  Sc95  1  0.71485226  0.50145280  0.49857156  1
  Sc  Sc96  1  0.49632683  0.50310083  0.30112744  1
  Sc  Sc97  1  0.30123910  0.29573975  0.68817385  1
  Sc  Sc98  1  0.10427209  0.48927839  0.89724512  1
  Sc  Sc99  1  0.09967473  0.69248422  0.09641984  1
  Nb  Nb100  1  0.10090947  0.29823421  0.49579958  1
  Nb  Nb101  1  0.29606047  0.30741649  0.29673754  1
  Nb  Nb102  1  0.89800654  0.90140703  0.10021100  1
  Nb  Nb103  1  0.50420142  0.89520226  0.10279055  1
  Nb  Nb104  1  0.70123003  0.89154412  0.09986625  1
  Nb  Nb105  1  0.29502866  0.10279793  0.29464621  1
  Nb  Nb106  1  0.10487576  0.30004176  0.30457163  1
  Nb  Nb107  1  0.30289801  0.09842078  0.89991126  1
  Nb  Nb108  1  0.70201783  0.70637400  0.09195576  1
  Nb  Nb109  1  0.70344524  0.69155110  0.90907211  1
  Nb  Nb110  1  0.90306981  0.49343672  0.49663481  1
  Nb  Nb111  1  0.10017532  0.30787824  0.09951132  1
  Nb  Nb112  1  0.29795169  0.49399927  0.30055736  1
  Nb  Nb113  1  0.29915386  0.90015062  0.70077929  1
  Nb  Nb114  1  0.09986884  0.70475086  0.30281667  1
  Nb  Nb115  1  0.29613822  0.50288087  0.50252082  1
  Nb  Nb116  1  0.09994982  0.49720064  0.70078650  1
  Nb  Nb117  1  0.50394348  0.29752317  0.50191780  1
  Nb  Nb118  1  0.10021960  0.89726261  0.30012407  1
  Nb  Nb119  1  0.69969616  0.48974349  0.30120284  1
  Nb  Nb120  1  0.90469736  0.30509235  0.49671881  1
  Nb  Nb121  1  0.69583641  0.50363052  0.89238072  1
  Nb  Nb122  1  0.70211169  0.30263435  0.89928833  1
  Nb  Nb123  1  0.70505445  0.10334668  0.69315140  1
  Nb  Nb124  1  0.69762316  0.49981635  0.70181215  1
  Nb  Nb125  1  0.60375018  0.58981215  0.60366903  1
  Nb  Nb126  1  0.79599726  0.20934723  -0.00055852  1
  Nb  Nb127  1  0.00260682  -0.00268282  0.80601082  1
  Nb  Nb128  1  0.19500945  0.59595394  0.59685597  1
  Nb  Nb129  1  0.40660135  0.40358466  -0.00266931  1
  Nb  Nb130  1  0.60545328  0.40364363  -0.00277290  1
  Nb  Nb131  1  0.59525707  -0.01007789  0.19775245  1
  Nb  Nb132  1  0.39666698  0.19448219  0.80577789  1
  Nb  Nb133  1  -0.00211581  -0.00131934  0.00072369  1
  Nb  Nb134  1  0.00847889  0.39790723  0.20374386  1
  Nb  Nb135  1  0.59799757  0.80403232  0.40227717  1
  Nb  Nb136  1  -0.00039452  0.39946334  0.59530272  1
  Nb  Nb137  1  -0.00196895  0.80119658  0.20298176  1
  Nb  Nb138  1  -0.00079073  0.59560556  0.79471339  1
  Nb  Nb139  1  0.40504853  0.80152979  -0.00001432  1
  Nb  Nb140  1  0.39422801  0.80585219  0.60428923  1
  Nb  Nb141  1  0.39985907  -0.00036859  0.19860466  1
  Nb  Nb142  1  0.20532238  0.80232929  0.59689343  1
  Nb  Nb143  1  0.60071209  0.40232470  0.59609047  1
  Nb  Nb144  1  0.19188658  0.40282680  0.59433386  1
  Nb  Nb145  1  0.79268121  0.39668696  -0.00174519  1
  Nb  Nb146  1  0.80389385  0.79970280  0.19252813  1
  Nb  Nb147  1  0.19965927  -0.00698229  0.59975507  1
  Nb  Nb148  1  0.59912307  0.40195454  0.40796272  1
  Nb  Nb149  1  0.19999993  0.59776167  0.39932569  1
  Pd  Pd150  1  0.80116557  0.01026409  0.40335647  1
  Pd  Pd151  1  0.00400892  0.79785506  0.80530909  1
  Pd  Pd152  1  0.20985722  0.20675429  0.79636685  1
  Pd  Pd153  1  0.00070818  0.20662489  0.59810227  1
  Pd  Pd154  1  0.40480595  0.79728976  0.40971731  1
  Pd  Pd155  1  0.60422707  0.59191283  0.01055863  1
  Pd  Pd156  1  0.79604968  0.39338931  0.59441188  1
  Pd  Pd157  1  0.60268183  0.59541339  0.41072200  1
  Pd  Pd158  1  0.40264577  0.79792004  0.80270448  1
  Pd  Pd159  1  0.00187967  0.59645320  0.60292060  1
  Pd  Pd160  1  0.39590356  0.79762389  0.19225373  1
  Pd  Pd161  1  0.80068054  0.60019652  0.40197683  1
  Pd  Pd162  1  0.39297286  0.01034293  0.39291096  1
  Pd  Pd163  1  0.40556581  -0.00950633  0.00102685  1
  Pd  Pd164  1  -0.00538681  0.60333858  0.20764514  1
  Pd  Pd165  1  0.39338195  0.20077423  0.39553652  1
  Pd  Pd166  1  0.61062972  0.79754818  0.80613948  1
  Pd  Pd167  1  0.39527334  0.60085943  0.19929974  1
  Pd  Pd168  1  0.60331039  -0.00461968  0.00519870  1
  Pd  Pd169  1  0.40311285  0.59983737  0.01044954  1
  Pd  Pd170  1  0.20895132  0.39286181  0.79295767  1
  Pd  Pd171  1  0.80095594  0.01004326  0.00490263  1
  Pd  Pd172  1  0.80357043  0.40699748  0.80575150  1
  Pd  Pd173  1  0.61153559  0.80040146  0.21332985  1
  Pd  Pd174  1  0.40732007  0.60790988  0.79640327  1
  Pd  Pd175  1  0.39234443  0.38423710  0.80914690  1
  Pd  Pd176  1  0.79419253  0.80278046  0.79932901  1
  Pd  Pd177  1  0.19148625  0.79314369  0.19179241  1
  Pd  Pd178  1  0.20348550  0.40118874  0.40467962  1
  Pd  Pd179  1  -0.01342171  0.80725602  0.39424009  1
  Pd  Pd180  1  0.40279078  0.40044370  0.40309949  1
  Pd  Pd181  1  0.19732494  0.79344436  0.79739239  1
  Pd  Pd182  1  0.39624464  0.19822741  0.20394954  1
  Pd  Pd183  1  0.40421520  0.21540413  -0.00694887  1
  Pd  Pd184  1  0.19956656  0.00312604  0.18961192  1
  Pd  Pd185  1  0.00326514  -0.00256471  0.59983525  1
  Pd  Pd186  1  0.19719131  0.20219701  0.00564109  1
  Pd  Pd187  1  -0.00641327  0.40321931  0.00654863  1
  Pd  Pd188  1  0.79911561  0.19203942  0.80487840  1
  Pd  Pd189  1  -0.00784127  0.19273225  0.00174736  1
  Pd  Pd190  1  0.80335288  -0.00232080  0.79648557  1
  Pd  Pd191  1  0.60644246  0.21126603  0.00665632  1
  Pd  Pd192  1  0.60484588  0.60228487  0.20279201  1
  Pd  Pd193  1  0.18984066  0.00531817  0.00507515  1
  Pd  Pd194  1  0.60620530  0.00498887  0.79372391  1
  Pd  Pd195  1  0.39108469  0.00202259  0.59901530  1
  Pd  Pd196  1  0.60548164  -0.00269324  0.39212956  1
  Pd  Pd197  1  0.80006785  0.19715673  0.40012907  1
  Pd  Pd198  1  0.19866575  0.20443311  0.19977673  1
  Pd  Pd199  1  0.80321214  0.61075269  0.20341674  1
  Rh  Rh200  1  0.80154051  0.20009650  0.59807103  1
  Rh  Rh201  1  0.60114926  0.39985725  0.79752714  1
  Rh  Rh202  1  0.59310775  0.40635748  0.20825412  1
  Rh  Rh203  1  0.79821189  0.20354510  0.19479036  1
  Rh  Rh204  1  0.19630266  0.39611532  0.19826007  1
  Rh  Rh205  1  0.80533998  0.79364546  0.00535879  1
  Rh  Rh206  1  0.00206988  0.20435887  0.39569526  1
  Rh  Rh207  1  0.60055602  0.19024681  0.20105375  1
  Rh  Rh208  1  0.60676407  0.20234943  0.60318699  1
  Rh  Rh209  1  0.01430981  -0.00906326  0.19110685  1
  Rh  Rh210  1  0.60379129  0.20724894  0.39857410  1
  Rh  Rh211  1  0.79926231  0.00419447  0.59843899  1
  Rh  Rh212  1  -0.00232644  0.80275090  0.00859199  1
  Rh  Rh213  1  0.81236397  0.39726272  0.19893101  1
  Rh  Rh214  1  0.79280047  0.59048084  -0.00032193  1
  Rh  Rh215  1  0.20782111  0.40204134  0.00427070  1
  Rh  Rh216  1  0.59624099  0.19278405  0.79395292  1
  Rh  Rh217  1  0.79619184  0.60194974  0.59378680  1
  Rh  Rh218  1  0.00684816  0.59178888  -0.01251991  1
  Rh  Rh219  1  0.40008637  0.00814916  0.79740051  1
  Rh  Rh220  1  0.60463647  0.00916197  0.60391251  1
  Rh  Rh221  1  0.20212561  0.79308564  0.40543811  1
  Rh  Rh222  1  0.19432046  0.00108177  0.79548522  1
  Rh  Rh223  1  0.20028753  0.00970107  0.40408795  1
  Rh  Rh224  1  0.79624710  0.79809262  0.39560445  1
  Rh  Rh225  1  -0.00184520  0.60045878  0.39457232  1
  Rh  Rh226  1  0.39842417  0.39468088  0.59088677  1
  Rh  Rh227  1  0.79369471  0.39654483  0.40228676  1
  Rh  Rh228  1  0.58953578  0.79008310  0.58983313  1
  Rh  Rh229  1  -0.00287598  0.39140621  0.39367132  1
  Rh  Rh230  1  -0.01039319  0.41075995  0.78952900  1
  Rh  Rh231  1  0.18794898  0.60056374  0.79580710  1
  Rh  Rh232  1  0.20523319  0.20264798  0.39290325  1
  Rh  Rh233  1  -0.00586567  0.18746339  0.79930437  1
  Rh  Rh234  1  -0.00053967  0.00466147  0.40147432  1
  Rh  Rh235  1  0.60204457  0.60429527  0.79447853  1
  Rh  Rh236  1  0.80394643  0.79996069  0.60021521  1
  Rh  Rh237  1  0.39845681  0.19527801  0.60280462  1
  Rh  Rh238  1  0.80431020  0.59536182  0.80462840  1
  Rh  Rh239  1  0.19736849  0.20163052  0.59797862  1
  Rh  Rh240  1  0.21006291  0.79549494  0.00141908  1
  Rh  Rh241  1  0.00728580  0.21244721  0.20860415  1
  Rh  Rh242  1  0.19776060  0.59374977  -0.00602665  1
  Rh  Rh243  1  0.39622546  0.40269074  0.19768431  1
  Rh  Rh244  1  0.78536998  -0.00621920  0.19559743  1
  Rh  Rh245  1  0.00124914  0.80565158  0.59330208  1
  Rh  Rh246  1  0.59591543  0.80285206  -0.00528961  1
  Rh  Rh247  1  0.40277976  0.60942979  0.61279609  1
  Rh  Rh248  1  0.20196799  0.60324240  0.21025113  1
  Rh  Rh249  1  0.39016545  0.59556530  0.38792861  1
