# generated using pymatgen
data_ZrScNbPdRh
_symmetry_space_group_name_H-M   'P 1'
_cell_length_a   16.56169537
_cell_length_b   16.55789335
_cell_length_c   16.55677832
_cell_angle_alpha   89.99897578
_cell_angle_beta   89.97689530
_cell_angle_gamma   89.99663325
_symmetry_Int_Tables_number   1
_chemical_formula_structural   ZrScNbPdRh
_chemical_formula_sum   'Zr50 Sc50 Nb50 Pd50 Rh50'
_cell_volume   4540.31172245
_cell_formula_units_Z   50
loop_
 _symmetry_equiv_pos_site_id
 _symmetry_equiv_pos_as_xyz
  1  'x, y, z'
loop_
 _atom_site_type_symbol
 _atom_site_label
 _atom_site_symmetry_multiplicity
 _atom_site_fract_x
 _atom_site_fract_y
 _atom_site_fract_z
 _atom_site_occupancy
  Zr  Zr0  1  0.51211836  0.10162559  0.49942088  1
  Zr  Zr1  1  0.88759230  0.90112748  0.89873303  1
  Zr  Zr2  1  0.90190760  0.30549882  0.89518814  1
  Zr  Zr3  1  0.09690932  0.09333586  0.09342269  1
  Zr  Zr4  1  0.49297142  0.10045423  0.09664371  1
  Zr  Zr5  1  0.70813309  0.48995796  0.89644374  1
  Zr  Zr6  1  0.49778797  0.49392554  0.69460891  1
  Zr  Zr7  1  0.10246195  0.09169534  0.50571998  1
  Zr  Zr8  1  0.89574887  0.10194908  0.10515762  1
  Zr  Zr9  1  0.50372201  0.90120616  0.51148451  1
  Zr  Zr10  1  0.89426629  0.50553239  0.09546044  1
  Zr  Zr11  1  0.49742571  0.28919702  0.89856256  1
  Zr  Zr12  1  0.90242058  0.50559545  0.50893450  1
  Zr  Zr13  1  0.10208594  0.49543414  0.50650552  1
  Zr  Zr14  1  0.89883253  0.50756570  0.70050701  1
  Zr  Zr15  1  0.69133511  0.90019553  0.50394713  1
  Zr  Zr16  1  0.09741950  0.30432339  0.90450015  1
  Zr  Zr17  1  0.29948531  0.29152664  0.69961810  1
  Zr  Zr18  1  0.70221204  0.69548558  0.10523190  1
  Zr  Zr19  1  0.29615983  0.89854707  0.30156315  1
  Zr  Zr20  1  0.29827019  0.29788079  0.09468384  1
  Zr  Zr21  1  0.49876737  0.90346391  0.30865089  1
  Zr  Zr22  1  0.29519918  0.70401170  0.10585310  1
  Zr  Zr23  1  0.30995547  0.90126893  0.69566957  1
  Zr  Zr24  1  0.70546693  0.09434670  0.88066486  1
  Zr  Zr25  1  0.29860472  0.69312151  0.50140659  1
  Zr  Zr26  1  0.90447044  0.70521525  0.89132312  1
  Zr  Zr27  1  0.10349652  0.49938172  0.89366790  1
  Zr  Zr28  1  0.29853615  0.49714368  0.51229548  1
  Zr  Zr29  1  0.08677579  0.50377022  0.10111121  1
  Zr  Zr30  1  0.10657575  0.70545161  0.29765545  1
  Zr  Zr31  1  0.49244710  0.50106031  0.89896275  1
  Zr  Zr32  1  0.09878060  0.70859773  0.90277900  1
  Zr  Zr33  1  0.70500558  0.49234596  0.49885016  1
  Zr  Zr34  1  0.90564780  0.30923261  0.49485853  1
  Zr  Zr35  1  0.10308121  0.89834096  0.30587669  1
  Zr  Zr36  1  0.69933686  0.50894209  0.29671147  1
  Zr  Zr37  1  0.50038907  0.09794952  0.70293831  1
  Zr  Zr38  1  0.89787329  0.50297929  0.30623201  1
  Zr  Zr39  1  0.89941839  0.10283844  0.70384880  1
  Zr  Zr40  1  0.49624132  0.49945442  0.09830249  1
  Zr  Zr41  1  0.30413089  0.09048866  0.09365392  1
  Zr  Zr42  1  0.50633022  0.88190833  0.89705307  1
  Zr  Zr43  1  0.29872199  0.50007801  0.31093608  1
  Zr  Zr44  1  0.90395760  0.89169290  0.50137119  1
  Zr  Zr45  1  0.09528043  0.30751327  0.30883997  1
  Zr  Zr46  1  0.89432184  0.10516296  0.49723297  1
  Zr  Zr47  1  0.10551898  0.90384781  0.69462006  1
  Zr  Zr48  1  0.70039233  0.89362354  0.08850648  1
  Zr  Zr49  1  0.29766834  0.10024453  0.70420835  1
  Sc  Sc50  1  0.90579425  0.30989011  0.09208278  1
  Sc  Sc51  1  0.70152137  0.50380063  0.09969258  1
  Sc  Sc52  1  0.29920926  0.10107186  0.50500291  1
  Sc  Sc53  1  0.69688336  0.29260855  0.50072085  1
  Sc  Sc54  1  0.50043817  0.49220758  0.30095836  1
  Sc  Sc55  1  0.89857118  0.90652364  0.09469764  1
  Sc  Sc56  1  0.90135758  0.10260107  0.89425862  1
  Sc  Sc57  1  0.90458109  0.30240000  0.70607421  1
  Sc  Sc58  1  0.30918446  0.89895126  0.09430208  1
  Sc  Sc59  1  0.10367743  0.29867205  0.71277090  1
  Sc  Sc60  1  0.90345900  0.89278860  0.69008586  1
  Sc  Sc61  1  0.90288026  0.49718750  0.90305215  1
  Sc  Sc62  1  0.89738644  0.29632771  0.30396910  1
  Sc  Sc63  1  0.70896591  0.71182703  0.50108325  1
  Sc  Sc64  1  0.09749889  0.50399910  0.30246649  1
  Sc  Sc65  1  0.69463360  0.29933728  0.29828371  1
  Sc  Sc66  1  0.50245133  0.29483070  0.69308714  1
  Sc  Sc67  1  0.50917636  0.71124866  0.50852432  1
  Sc  Sc68  1  0.29554103  0.69845149  0.29974153  1
  Sc  Sc69  1  0.69302417  0.90164496  0.70911613  1
  Sc  Sc70  1  0.70153161  0.71967417  0.89860124  1
  Sc  Sc71  1  0.49792497  0.29232000  0.10549295  1
  Sc  Sc72  1  0.30000418  0.30000479  0.50276331  1
  Sc  Sc73  1  0.29705434  0.90251141  0.89991896  1
  Sc  Sc74  1  0.48911298  0.70450803  0.09168662  1
  Sc  Sc75  1  0.49741549  0.71043850  0.70325920  1
  Sc  Sc76  1  0.09845746  0.69386618  0.70603405  1
  Sc  Sc77  1  0.50099409  0.29427329  0.30419653  1
  Sc  Sc78  1  0.10724260  0.10112117  0.69809325  1
  Sc  Sc79  1  0.49675693  0.49019905  0.49985240  1
  Sc  Sc80  1  0.69688735  0.29521825  0.10567703  1
  Sc  Sc81  1  0.90165262  0.69667678  0.09065038  1
  Sc  Sc82  1  0.29008409  0.29947166  0.89934495  1
  Sc  Sc83  1  0.29635280  0.50147391  0.90007272  1
  Sc  Sc84  1  0.49481155  0.69501072  0.29953991  1
  Sc  Sc85  1  0.88940982  0.70788324  0.30422242  1
  Sc  Sc86  1  0.89168837  0.10194400  0.29724266  1
  Sc  Sc87  1  0.30344810  0.49817783  0.09550157  1
  Sc  Sc88  1  0.70537511  0.10752248  0.30124067  1
  Sc  Sc89  1  0.69778791  0.10646681  0.10880376  1
  Sc  Sc90  1  0.30872146  0.09881504  0.89947010  1
  Sc  Sc91  1  0.70373498  0.89152142  0.31021308  1
  Sc  Sc92  1  0.10356574  0.10238753  0.89955576  1
  Sc  Sc93  1  0.70156511  0.30016036  0.89326565  1
  Sc  Sc94  1  0.30719166  0.29759433  0.30729275  1
  Sc  Sc95  1  0.89651556  0.90176596  0.29852159  1
  Sc  Sc96  1  0.29837166  0.68943380  0.70010920  1
  Sc  Sc97  1  0.09894748  0.89681573  0.49967326  1
  Sc  Sc98  1  0.30808151  0.09294495  0.30684308  1
  Sc  Sc99  1  0.30748281  0.69890962  0.90051598  1
  Nb  Nb100  1  0.69868322  0.90239201  0.90186640  1
  Nb  Nb101  1  0.70307569  0.10806163  0.69253078  1
  Nb  Nb102  1  0.09779402  0.29906441  0.49745525  1
  Nb  Nb103  1  0.10084307  0.09693319  0.29910389  1
  Nb  Nb104  1  0.09406053  0.89744873  0.90106390  1
  Nb  Nb105  1  0.09824988  0.70360386  0.09891618  1
  Nb  Nb106  1  0.09578624  0.70584983  0.49893928  1
  Nb  Nb107  1  0.69559952  0.70161234  0.30085870  1
  Nb  Nb108  1  0.70809538  0.69361513  0.69752060  1
  Nb  Nb109  1  0.50098940  0.89554502  0.69281535  1
  Nb  Nb110  1  0.70154338  0.10008229  0.50854905  1
  Nb  Nb111  1  0.29725080  0.89851058  0.49875450  1
  Nb  Nb112  1  0.11220805  0.50360399  0.70309423  1
  Nb  Nb113  1  0.10123690  0.89817669  0.08950566  1
  Nb  Nb114  1  0.70216315  0.30364585  0.70243047  1
  Nb  Nb115  1  0.70012194  0.49800938  0.69973268  1
  Nb  Nb116  1  0.29369573  0.49719777  0.69818466  1
  Nb  Nb117  1  0.90684766  0.70615029  0.51373830  1
  Nb  Nb118  1  0.50220482  0.10069451  0.90364465  1
  Nb  Nb119  1  0.50294981  0.69374953  0.89835184  1
  Nb  Nb120  1  0.50005539  0.90206890  0.09848929  1
  Nb  Nb121  1  0.49726681  0.09677159  0.29685873  1
  Nb  Nb122  1  0.89377736  0.69747804  0.68627531  1
  Nb  Nb123  1  0.10364244  0.30074363  0.09884900  1
  Nb  Nb124  1  0.50009823  0.29680298  0.49663650  1
  Nb  Nb125  1  0.59828660  0.59981287  -0.01007291  1
  Nb  Nb126  1  0.00045682  0.00190919  0.39977939  1
  Nb  Nb127  1  -0.00159026  0.61110446  0.40981420  1
  Nb  Nb128  1  0.39752701  0.80367044  0.40682012  1
  Nb  Nb129  1  0.80083619  0.20053723  -0.00358849  1
  Nb  Nb130  1  0.20181617  0.79774970  0.59660812  1
  Nb  Nb131  1  0.19730349  0.39383796  0.19880913  1
  Nb  Nb132  1  0.19229315  0.60557222  0.00416804  1
  Nb  Nb133  1  0.19569619  0.19752684  0.20236326  1
  Nb  Nb134  1  0.80185258  0.40663843  0.20043309  1
  Nb  Nb135  1  0.39591471  0.39934681  0.79337652  1
  Nb  Nb136  1  0.59885324  -0.00043221  -0.00478788  1
  Nb  Nb137  1  0.00417139  0.20427285  0.59492603  1
  Nb  Nb138  1  0.59649726  0.40242610  -0.00206775  1
  Nb  Nb139  1  0.19575801  -0.00014476  0.19614519  1
  Nb  Nb140  1  0.59747126  0.80285935  0.19908184  1
  Nb  Nb141  1  0.59359371  -0.00526315  0.19844212  1
  Nb  Nb142  1  0.00719838  0.80289860  0.19330946  1
  Nb  Nb143  1  0.00982369  0.20052847  0.19841341  1
  Nb  Nb144  1  0.60585573  0.60128492  0.40459786  1
  Nb  Nb145  1  0.79415025  0.00487424  0.60018895  1
  Nb  Nb146  1  0.60510539  0.60046198  0.79719799  1
  Nb  Nb147  1  0.60916836  0.59728210  0.60408556  1
  Nb  Nb148  1  0.19217312  0.19825216  0.39892280  1
  Nb  Nb149  1  0.00339674  -0.00714973  0.79966519  1
  Pd  Pd150  1  0.79341220  0.39244441  0.39238851  1
  Pd  Pd151  1  0.39459358  0.79879452  0.80005049  1
  Pd  Pd152  1  0.59097562  -0.00351313  0.80071738  1
  Pd  Pd153  1  0.39888690  0.59657204  0.20114987  1
  Pd  Pd154  1  0.40491837  0.80352244  0.20806680  1
  Pd  Pd155  1  0.79883140  0.80445337  0.78937708  1
  Pd  Pd156  1  0.40061891  0.00000544  0.41204199  1
  Pd  Pd157  1  0.20740538  0.79994052  -0.00146160  1
  Pd  Pd158  1  0.20271907  0.58811380  0.19389594  1
  Pd  Pd159  1  -0.00687341  0.19952259  0.00269073  1
  Pd  Pd160  1  0.41277879  0.60514530  0.40999942  1
  Pd  Pd161  1  0.60116574  0.39548728  0.59358798  1
  Pd  Pd162  1  0.00825908  0.39550965  0.61329086  1
  Pd  Pd163  1  0.39255664  0.19755900  0.20414830  1
  Pd  Pd164  1  0.19446601  0.38936347  0.60549018  1
  Pd  Pd165  1  0.40993915  -0.00550590  0.80655641  1
  Pd  Pd166  1  0.80219173  0.39313297  0.60576753  1
  Pd  Pd167  1  -0.01028252  0.61552356  0.21031342  1
  Pd  Pd168  1  -0.00179337  0.80433056  0.79036847  1
  Pd  Pd169  1  -0.00436928  0.39517223  0.20267111  1
  Pd  Pd170  1  0.00237108  -0.00417010  0.20619509  1
  Pd  Pd171  1  0.19647342  0.00026726  0.80641847  1
  Pd  Pd172  1  0.00146713  0.19080140  0.39786330  1
  Pd  Pd173  1  0.59179056  0.40051312  0.80322733  1
  Pd  Pd174  1  0.60373491  0.39905910  0.19513947  1
  Pd  Pd175  1  0.39373673  0.39764653  0.20425959  1
  Pd  Pd176  1  0.41261355  0.60507426  0.60000412  1
  Pd  Pd177  1  0.79028810  0.01355093  0.00214304  1
  Pd  Pd178  1  0.58979567  0.60757920  0.19688057  1
  Pd  Pd179  1  0.61060010  0.19768859  -0.00232526  1
  Pd  Pd180  1  0.40087424  0.59504659  0.79223363  1
  Pd  Pd181  1  0.60254580  0.20185146  0.79299660  1
  Pd  Pd182  1  0.39952469  0.39521240  0.40496693  1
  Pd  Pd183  1  0.40028777  0.00729286  0.59515977  1
  Pd  Pd184  1  0.40462830  0.19638673  0.59423433  1
  Pd  Pd185  1  0.80102091  -0.00296545  0.40562487  1
  Pd  Pd186  1  0.80773394  0.20840421  0.60101995  1
  Pd  Pd187  1  -0.00467379  -0.00077869  -0.01149951  1
  Pd  Pd188  1  0.40215569  0.39096496  -0.00774154  1
  Pd  Pd189  1  0.60877500  0.00875335  0.39175726  1
  Pd  Pd190  1  0.80074639  0.61173385  0.40951074  1
  Pd  Pd191  1  0.19101823  0.59784117  0.40470878  1
  Pd  Pd192  1  -0.00071834  0.59824831  0.79929150  1
  Pd  Pd193  1  0.20299791  0.19307694  -0.00203091  1
  Pd  Pd194  1  0.80250579  0.80178873  0.19447519  1
  Pd  Pd195  1  0.60262457  0.19676763  0.39563069  1
  Pd  Pd196  1  0.78609194  -0.00692238  0.20214549  1
  Pd  Pd197  1  0.20673169  0.79776644  0.79307651  1
  Pd  Pd198  1  0.79794722  0.60224222  0.80729674  1
  Pd  Pd199  1  0.79241617  0.60851784  -0.01351717  1
  Rh  Rh200  1  0.39823016  0.20168536  0.80219735  1
  Rh  Rh201  1  0.00482132  0.60207755  -0.01004934  1
  Rh  Rh202  1  0.19683867  0.00557288  0.39863100  1
  Rh  Rh203  1  0.00472345  0.40376621  -0.00356177  1
  Rh  Rh204  1  0.21054093  -0.00658371  0.60000017  1
  Rh  Rh205  1  0.20320168  0.60245610  0.80874818  1
  Rh  Rh206  1  -0.01401948  0.01152192  0.59890475  1
  Rh  Rh207  1  0.59994412  0.20327913  0.60289852  1
  Rh  Rh208  1  0.78725450  0.38842008  0.01049321  1
  Rh  Rh209  1  0.59773856  0.79520090  0.00615305  1
  Rh  Rh210  1  0.20517134  0.39535936  0.39776779  1
  Rh  Rh211  1  0.80654561  0.39964544  0.79176221  1
  Rh  Rh212  1  0.39868769  0.79931386  -0.00521375  1
  Rh  Rh213  1  0.79375007  0.20503154  0.40227280  1
  Rh  Rh214  1  0.20693339  0.39917363  0.79598544  1
  Rh  Rh215  1  0.60323037  0.79373737  0.79390286  1
  Rh  Rh216  1  0.80793654  -0.00754190  0.78644133  1
  Rh  Rh217  1  0.80616818  0.60034747  0.20175139  1
  Rh  Rh218  1  0.60478362  0.00442693  0.61101232  1
  Rh  Rh219  1  0.39315344  0.60589431  0.00539379  1
  Rh  Rh220  1  0.79757934  0.20928449  0.80116054  1
  Rh  Rh221  1  0.60868747  0.79388103  0.61332623  1
  Rh  Rh222  1  0.00974327  0.60221668  0.60101293  1
  Rh  Rh223  1  0.59217499  0.19065025  0.20580031  1
  Rh  Rh224  1  0.19245396  0.20470637  0.59322725  1
  Rh  Rh225  1  0.20092334  0.19579716  0.80743574  1
  Rh  Rh226  1  0.20905549  0.79468440  0.40946182  1
  Rh  Rh227  1  0.19466523  0.81295539  0.19038508  1
  Rh  Rh228  1  -0.00783778  0.80546837  0.00525874  1
  Rh  Rh229  1  0.39686472  0.39122187  0.60337206  1
  Rh  Rh230  1  -0.00633605  0.80042722  0.39040339  1
  Rh  Rh231  1  0.40051228  0.19516586  0.40586342  1
  Rh  Rh232  1  0.39470715  0.20218506  -0.00315859  1
  Rh  Rh233  1  0.20115667  -0.00406273  -0.00169625  1
  Rh  Rh234  1  0.79477754  0.59929770  0.59362895  1
  Rh  Rh235  1  0.58947049  0.78945326  0.39102410  1
  Rh  Rh236  1  0.19191043  0.41401503  0.00910609  1
  Rh  Rh237  1  0.80350790  0.80025391  0.40654778  1
  Rh  Rh238  1  0.59815906  0.40304241  0.40126753  1
  Rh  Rh239  1  0.00008621  0.41519621  0.40306848  1
  Rh  Rh240  1  0.00706731  0.19048998  0.79342844  1
  Rh  Rh241  1  0.41220921  -0.00831013  -0.01280946  1
  Rh  Rh242  1  0.01296392  0.79174812  0.61038966  1
  Rh  Rh243  1  0.39772986  -0.00090813  0.20007127  1
  Rh  Rh244  1  0.39082183  0.79592987  0.59579213  1
  Rh  Rh245  1  0.79165246  0.81035605  0.60449502  1
  Rh  Rh246  1  0.81361855  0.21626589  0.19077196  1
  Rh  Rh247  1  0.19228325  0.60634216  0.60051905  1
  Rh  Rh248  1  0.80601352  0.79589878  0.00000121  1
  Rh  Rh249  1  0.00132666  0.41006308  0.79625721  1
