# generated using pymatgen
data_ZrScNbPdRh
_symmetry_space_group_name_H-M   'P 1'
_cell_length_a   16.55860057
_cell_length_b   16.56158545
_cell_length_c   16.56242000
_cell_angle_alpha   89.98435973
_cell_angle_beta   89.97460049
_cell_angle_gamma   89.98490868
_symmetry_Int_Tables_number   1
_chemical_formula_structural   ZrScNbPdRh
_chemical_formula_sum   'Zr50 Sc50 Nb50 Pd50 Rh50'
_cell_volume   4542.02227320
_cell_formula_units_Z   50
loop_
 _symmetry_equiv_pos_site_id
 _symmetry_equiv_pos_as_xyz
  1  'x, y, z'
loop_
 _atom_site_type_symbol
 _atom_site_label
 _atom_site_symmetry_multiplicity
 _atom_site_fract_x
 _atom_site_fract_y
 _atom_site_fract_z
 _atom_site_occupancy
  Zr  Zr0  1  0.50416762  0.70963265  0.90058932  1
  Zr  Zr1  1  0.50254070  0.69746252  0.50073786  1
  Zr  Zr2  1  0.49549849  0.49537740  0.09158199  1
  Zr  Zr3  1  0.69280987  0.69610683  0.29762189  1
  Zr  Zr4  1  0.09890791  0.90369282  0.09809766  1
  Zr  Zr5  1  0.89418999  0.11190563  0.29813388  1
  Zr  Zr6  1  0.30184367  0.90737062  0.29945510  1
  Zr  Zr7  1  0.50617875  0.91169894  0.49742494  1
  Zr  Zr8  1  0.30331484  0.69880895  0.09548768  1
  Zr  Zr9  1  0.49672898  0.49760935  0.90010763  1
  Zr  Zr10  1  0.29947090  0.10179552  0.70333151  1
  Zr  Zr11  1  0.89694905  0.09914125  0.50122242  1
  Zr  Zr12  1  0.70035226  0.90044351  0.50142219  1
  Zr  Zr13  1  0.09547755  0.69941093  0.09663211  1
  Zr  Zr14  1  0.10006880  0.49817493  0.09737114  1
  Zr  Zr15  1  0.70444579  0.10172472  0.89041412  1
  Zr  Zr16  1  0.09715634  0.29775605  0.49606426  1
  Zr  Zr17  1  0.09340721  0.69706449  0.50054163  1
  Zr  Zr18  1  0.30310448  0.29506975  0.68773746  1
  Zr  Zr19  1  0.89581616  0.70045084  0.29749022  1
  Zr  Zr20  1  0.30306828  0.50177487  0.90146857  1
  Zr  Zr21  1  0.09270559  0.91795536  0.90212278  1
  Zr  Zr22  1  0.69971068  0.30462319  0.09295055  1
  Zr  Zr23  1  0.30398952  0.10216578  0.10023517  1
  Zr  Zr24  1  0.49584786  0.10451827  0.70009668  1
  Zr  Zr25  1  0.90542944  0.89329396  0.29772044  1
  Zr  Zr26  1  0.89090146  0.09448277  0.70014488  1
  Zr  Zr27  1  0.50676710  0.30146388  0.70143809  1
  Zr  Zr28  1  0.31043189  0.90649222  0.89673595  1
  Zr  Zr29  1  0.49633848  0.09488450  0.10097477  1
  Zr  Zr30  1  0.30187522  0.71044560  0.30454635  1
  Zr  Zr31  1  0.29685804  0.90225341  0.69503599  1
  Zr  Zr32  1  0.70083897  0.30662800  0.51024296  1
  Zr  Zr33  1  0.90495845  0.50248789  0.10300081  1
  Zr  Zr34  1  0.29972023  0.49606422  0.30299596  1
  Zr  Zr35  1  0.09597074  0.50153867  0.69244938  1
  Zr  Zr36  1  0.10407271  0.90173371  0.29837695  1
  Zr  Zr37  1  0.29243192  0.50555800  0.70442040  1
  Zr  Zr38  1  0.48897082  0.29207575  0.09361736  1
  Zr  Zr39  1  0.90977624  0.89698801  0.70373133  1
  Zr  Zr40  1  0.50278299  0.70448935  0.70478696  1
  Zr  Zr41  1  0.90470228  0.49396263  0.51333250  1
  Zr  Zr42  1  0.89838272  0.89744051  0.09288179  1
  Zr  Zr43  1  0.70275079  0.08804196  0.49818999  1
  Zr  Zr44  1  0.09806094  0.69918854  0.70069296  1
  Zr  Zr45  1  0.30672046  0.49605610  0.50720127  1
  Zr  Zr46  1  0.50379847  0.49735753  0.50328272  1
  Zr  Zr47  1  0.89953543  0.70001251  0.10125587  1
  Zr  Zr48  1  0.69980469  0.69677473  0.69855555  1
  Zr  Zr49  1  0.89234824  0.68873174  0.71500406  1
  Sc  Sc50  1  0.90477610  0.50452315  0.89659784  1
  Sc  Sc51  1  0.89129723  0.29611203  0.68657578  1
  Sc  Sc52  1  0.89932231  0.49867299  0.29451635  1
  Sc  Sc53  1  0.89934870  0.90016126  0.50411373  1
  Sc  Sc54  1  0.70536005  0.49621131  0.10522442  1
  Sc  Sc55  1  0.30262933  0.89777292  0.50249868  1
  Sc  Sc56  1  0.71380447  0.29795920  0.30108648  1
  Sc  Sc57  1  0.70020980  0.70148130  0.50682691  1
  Sc  Sc58  1  0.11119248  0.29081862  0.70075247  1
  Sc  Sc59  1  0.70482394  0.89844568  0.70455047  1
  Sc  Sc60  1  0.29674480  0.49610697  0.08994958  1
  Sc  Sc61  1  0.49267714  0.30712377  0.50418295  1
  Sc  Sc62  1  0.90066386  0.30323362  0.10699871  1
  Sc  Sc63  1  0.50144734  0.30524024  0.89648534  1
  Sc  Sc64  1  0.69561643  0.50225378  0.30200147  1
  Sc  Sc65  1  0.69228188  0.90081386  0.30439786  1
  Sc  Sc66  1  0.30642236  0.70293650  0.50573162  1
  Sc  Sc67  1  0.48596742  0.29131696  0.31160891  1
  Sc  Sc68  1  0.30852906  0.69502267  0.89713289  1
  Sc  Sc69  1  0.69956051  0.89726095  0.90598162  1
  Sc  Sc70  1  0.90333749  0.70631156  0.50151852  1
  Sc  Sc71  1  0.90907144  0.09431304  0.89484267  1
  Sc  Sc72  1  0.29422797  0.29663899  0.10364149  1
  Sc  Sc73  1  0.70313188  0.50527966  0.69393171  1
  Sc  Sc74  1  0.09192864  0.71157086  0.30444067  1
  Sc  Sc75  1  0.89560003  0.89722687  0.89603600  1
  Sc  Sc76  1  0.09155070  0.68799763  0.89700995  1
  Sc  Sc77  1  0.69646860  0.50171530  0.50321227  1
  Sc  Sc78  1  0.90445296  0.29045211  0.90167641  1
  Sc  Sc79  1  0.09459194  0.49346868  0.29455283  1
  Sc  Sc80  1  0.50480171  0.50423938  0.31440832  1
  Sc  Sc81  1  0.89735389  0.30482339  0.49700538  1
  Sc  Sc82  1  0.69736270  0.70770019  0.10676822  1
  Sc  Sc83  1  0.29725875  0.90820761  0.10418872  1
  Sc  Sc84  1  0.50220986  0.50031565  0.69816218  1
  Sc  Sc85  1  0.49890662  0.89944697  0.29702480  1
  Sc  Sc86  1  0.91223470  0.30003841  0.30092590  1
  Sc  Sc87  1  0.10325864  0.12143794  0.29800194  1
  Sc  Sc88  1  0.49186968  0.09135446  0.30165425  1
  Sc  Sc89  1  0.10685667  0.09409614  0.70189000  1
  Sc  Sc90  1  0.50632888  0.70797622  0.10095524  1
  Sc  Sc91  1  0.10383325  0.49758585  0.89854130  1
  Sc  Sc92  1  0.30485363  0.10721135  0.51017494  1
  Sc  Sc93  1  0.29897766  0.30175530  0.89295353  1
  Sc  Sc94  1  0.69969484  0.70602362  0.88574777  1
  Sc  Sc95  1  0.09808602  0.89807586  0.51246987  1
  Sc  Sc96  1  0.09913819  0.30502584  0.10165503  1
  Sc  Sc97  1  0.70723213  0.10188646  0.70165991  1
  Sc  Sc98  1  0.49111621  0.89735600  0.69991888  1
  Sc  Sc99  1  0.50718982  0.90144798  0.09672273  1
  Nb  Nb100  1  0.29218926  0.29252319  0.29817565  1
  Nb  Nb101  1  0.30117493  0.70701452  0.70454622  1
  Nb  Nb102  1  0.09678049  0.28796169  0.89342479  1
  Nb  Nb103  1  0.11379093  0.30303478  0.29654004  1
  Nb  Nb104  1  0.09969863  0.10658649  0.89882011  1
  Nb  Nb105  1  0.89689279  0.10301350  0.10214108  1
  Nb  Nb106  1  0.10261404  0.89612415  0.70213923  1
  Nb  Nb107  1  0.10005807  0.09978493  0.49924095  1
  Nb  Nb108  1  0.89471903  0.69330288  0.90110265  1
  Nb  Nb109  1  0.89746352  0.49260072  0.70259727  1
  Nb  Nb110  1  0.30332228  0.09656396  0.90287312  1
  Nb  Nb111  1  0.69958675  0.29054004  0.71011412  1
  Nb  Nb112  1  0.70059896  0.48900724  0.90936199  1
  Nb  Nb113  1  0.69858730  0.10024015  0.29679422  1
  Nb  Nb114  1  0.50670925  0.10358011  0.50087961  1
  Nb  Nb115  1  0.69609891  0.90905573  0.10092223  1
  Nb  Nb116  1  0.50193960  0.89985647  0.89721762  1
  Nb  Nb117  1  0.30486512  0.30139276  0.49593384  1
  Nb  Nb118  1  0.30139233  0.10993519  0.29533003  1
  Nb  Nb119  1  0.10119414  0.50007163  0.50099015  1
  Nb  Nb120  1  0.69865094  0.29752195  0.89749577  1
  Nb  Nb121  1  0.69730035  0.09822368  0.10074667  1
  Nb  Nb122  1  0.50242024  0.69734445  0.29692867  1
  Nb  Nb123  1  0.48808799  0.09670339  0.90291851  1
  Nb  Nb124  1  0.09844312  0.09102680  0.08674995  1
  Nb  Nb125  1  0.60123706  0.19850871  0.20109313  1
  Nb  Nb126  1  0.39981397  0.40063281  0.20442102  1
  Nb  Nb127  1  0.00552781  0.00748703  0.39544319  1
  Nb  Nb128  1  0.60230646  0.19871338  0.59807382  1
  Nb  Nb129  1  0.80356458  0.60149243  0.40117536  1
  Nb  Nb130  1  0.59039869  0.39020230  0.20067880  1
  Nb  Nb131  1  0.59117568  0.00220076  0.80609152  1
  Nb  Nb132  1  0.19830926  0.80381702  -0.00943002  1
  Nb  Nb133  1  0.60718799  0.59674683  -0.00496127  1
  Nb  Nb134  1  0.19813626  0.00892515  0.40078746  1
  Nb  Nb135  1  0.79626894  0.60057865  -0.00368609  1
  Nb  Nb136  1  0.79631791  0.19540513  0.00292161  1
  Nb  Nb137  1  0.60213009  0.19432486  -0.00358621  1
  Nb  Nb138  1  0.60272999  0.19381719  0.40262339  1
  Nb  Nb139  1  0.40004235  0.60010228  0.20285678  1
  Nb  Nb140  1  0.79714522  0.00447055  0.19526806  1
  Nb  Nb141  1  0.20404693  0.60319207  0.20573915  1
  Nb  Nb142  1  -0.00255431  0.39525536  0.79247893  1
  Nb  Nb143  1  0.19426173  0.19250399  -0.00718615  1
  Nb  Nb144  1  0.20039783  0.39738325  0.40192660  1
  Nb  Nb145  1  -0.00397853  0.00946257  0.19776600  1
  Nb  Nb146  1  0.19631586  0.59414169  0.40251483  1
  Nb  Nb147  1  0.19757304  0.80309142  0.80137198  1
  Nb  Nb148  1  0.79800353  0.39584253  0.80174259  1
  Nb  Nb149  1  0.00187569  0.19383713  0.59484057  1
  Pd  Pd150  1  0.00457307  0.79827663  -0.01068821  1
  Pd  Pd151  1  0.60368902  0.00270122  0.61544169  1
  Pd  Pd152  1  -0.00524663  0.20172890  0.78324229  1
  Pd  Pd153  1  0.39677639  0.60364551  0.39793371  1
  Pd  Pd154  1  0.60676248  0.59099963  0.80617836  1
  Pd  Pd155  1  0.19815733  0.38686444  -0.00789800  1
  Pd  Pd156  1  0.39916591  0.20641336  0.80476300  1
  Pd  Pd157  1  -0.00121277  0.39848318  -0.00975577  1
  Pd  Pd158  1  0.20782444  0.19849107  0.40820068  1
  Pd  Pd159  1  0.19864294  0.60632247  -0.00166024  1
  Pd  Pd160  1  0.20430102  0.60749617  0.59480758  1
  Pd  Pd161  1  0.19963868  0.79463036  0.60085434  1
  Pd  Pd162  1  0.39634477  0.39855522  0.79202112  1
  Pd  Pd163  1  0.39647338  0.80646292  0.00320651  1
  Pd  Pd164  1  0.59612183  0.80696255  0.60428495  1
  Pd  Pd165  1  0.80621207  0.79900799  0.60736731  1
  Pd  Pd166  1  0.80351201  0.00599637  -0.00203922  1
  Pd  Pd167  1  0.00908348  0.20127441  0.19152566  1
  Pd  Pd168  1  0.40970656  0.80412179  0.40358800  1
  Pd  Pd169  1  0.79805657  0.40048952  0.20580907  1
  Pd  Pd170  1  0.60916790  0.40864856  0.79487106  1
  Pd  Pd171  1  0.60054453  0.38648852  0.39208002  1
  Pd  Pd172  1  0.19937915  0.79481032  0.19068908  1
  Pd  Pd173  1  0.00834355  0.60349135  0.20686229  1
  Pd  Pd174  1  0.19385931  0.39789490  0.80101690  1
  Pd  Pd175  1  0.79122592  0.79131662  -0.00240424  1
  Pd  Pd176  1  0.00444904  0.79769928  0.80903675  1
  Pd  Pd177  1  0.79560551  0.20423565  0.40691014  1
  Pd  Pd178  1  0.81477057  0.39782349  -0.00712414  1
  Pd  Pd179  1  0.59738242  0.00418287  -0.00844128  1
  Pd  Pd180  1  0.78994084  0.80942670  0.20104812  1
  Pd  Pd181  1  0.19567462  0.80412390  0.41137299  1
  Pd  Pd182  1  -0.00190159  0.19988164  0.00762513  1
  Pd  Pd183  1  0.39846098  0.00027507  0.59734950  1
  Pd  Pd184  1  0.40276196  0.60244545  0.61005988  1
  Pd  Pd185  1  0.79642773  0.79500263  0.40105179  1
  Pd  Pd186  1  0.59287753  0.58899116  0.19105946  1
  Pd  Pd187  1  0.40496469  0.80146597  0.19602495  1
  Pd  Pd188  1  0.59642792  0.79683682  0.39937469  1
  Pd  Pd189  1  -0.00302235  0.59249927  0.39503865  1
  Pd  Pd190  1  0.80032667  0.41058535  0.39848031  1
  Pd  Pd191  1  0.19782116  0.39516292  0.59534084  1
  Pd  Pd192  1  0.80704068  -0.00678454  0.38918311  1
  Pd  Pd193  1  0.19362849  0.01458170  0.20743385  1
  Pd  Pd194  1  0.19967657  -0.00088890  0.80148162  1
  Pd  Pd195  1  0.00403554  0.00359033  0.60117063  1
  Pd  Pd196  1  0.00431139  0.40254177  0.39642075  1
  Pd  Pd197  1  0.40355076  0.60100320  0.79636730  1
  Pd  Pd198  1  0.39028199  0.00887664  0.40443711  1
  Pd  Pd199  1  -0.00927984  0.60516357  0.60521038  1
  Rh  Rh200  1  0.60138019  0.00121472  0.20496877  1
  Rh  Rh201  1  0.59828132  0.00453817  0.39237812  1
  Rh  Rh202  1  -0.01145399  0.00343611  0.00124899  1
  Rh  Rh203  1  0.59671310  0.60049384  0.59970378  1
  Rh  Rh204  1  0.40152687  -0.00698349  0.00661391  1
  Rh  Rh205  1  0.39296180  0.39514354  0.39570229  1
  Rh  Rh206  1  -0.00729416  0.59700518  -0.00114386  1
  Rh  Rh207  1  0.20131973  0.00202616  0.59503974  1
  Rh  Rh208  1  0.20843244  0.19411607  0.80626110  1
  Rh  Rh209  1  0.00234131  0.80469930  0.19398627  1
  Rh  Rh210  1  0.20145026  0.60617590  0.80033553  1
  Rh  Rh211  1  0.60087125  0.81290663  0.79645110  1
  Rh  Rh212  1  0.80576429  0.59955420  0.59284456  1
  Rh  Rh213  1  0.39965305  0.19426961  0.40532263  1
  Rh  Rh214  1  0.00216601  0.00397402  0.79276502  1
  Rh  Rh215  1  0.79690556  0.19900266  0.59375434  1
  Rh  Rh216  1  0.00292174  0.39527138  0.20151259  1
  Rh  Rh217  1  0.80209229  0.80225538  0.79970458  1
  Rh  Rh218  1  0.79356056  0.58715322  0.80885558  1
  Rh  Rh219  1  0.40239438  0.20282491  0.20559934  1
  Rh  Rh220  1  0.19397228  0.19518879  0.18373710  1
  Rh  Rh221  1  0.79903385  -0.01042925  0.60472370  1
  Rh  Rh222  1  0.39996096  -0.00244282  0.19893942  1
  Rh  Rh223  1  0.80976491  0.20603237  0.80712674  1
  Rh  Rh224  1  0.79249177  0.20006306  0.19264381  1
  Rh  Rh225  1  0.38857408  0.39097163  0.00149338  1
  Rh  Rh226  1  0.00105228  0.59011071  0.79818219  1
  Rh  Rh227  1  0.00685958  0.38801039  0.60804885  1
  Rh  Rh228  1  0.60642291  0.79731963  0.00001925  1
  Rh  Rh229  1  0.60029148  0.80840885  0.20134469  1
  Rh  Rh230  1  0.79795044  0.59892387  0.19966914  1
  Rh  Rh231  1  0.40537100  0.80010443  0.59738440  1
  Rh  Rh232  1  0.39995622  0.40250118  0.60762380  1
  Rh  Rh233  1  0.19584841  0.19812800  0.59487233  1
  Rh  Rh234  1  0.20508180  0.40649705  0.20210211  1
  Rh  Rh235  1  -0.00396601  0.79514191  0.60640143  1
  Rh  Rh236  1  0.39471223  0.80061607  0.79873566  1
  Rh  Rh237  1  0.79630332  -0.00760568  0.80250065  1
  Rh  Rh238  1  0.40435282  0.00095710  0.79536650  1
  Rh  Rh239  1  0.79314874  0.40115417  0.60924434  1
  Rh  Rh240  1  0.39365268  0.20288389  -0.01013878  1
  Rh  Rh241  1  0.59570131  0.39700343  0.00294724  1
  Rh  Rh242  1  0.60760875  0.60714373  0.40795059  1
  Rh  Rh243  1  0.59225186  0.19110708  0.80260570  1
  Rh  Rh244  1  0.41470505  0.60833682  0.00386310  1
  Rh  Rh245  1  0.40900473  0.20408787  0.59567303  1
  Rh  Rh246  1  0.20600370  0.00225573  -0.00604797  1
  Rh  Rh247  1  0.00317244  0.81365979  0.40829504  1
  Rh  Rh248  1  0.60438406  0.39607555  0.60830857  1
  Rh  Rh249  1  -0.00336543  0.19864723  0.40546011  1
