# generated using pymatgen
data_ZrScNbPdRh
_symmetry_space_group_name_H-M   'P 1'
_cell_length_a   16.56547713
_cell_length_b   16.56222846
_cell_length_c   16.56885914
_cell_angle_alpha   90.01300915
_cell_angle_beta   90.07606670
_cell_angle_gamma   89.99957725
_symmetry_Int_Tables_number   1
_chemical_formula_structural   ZrScNbPdRh
_chemical_formula_sum   'Zr50 Sc50 Nb50 Pd50 Rh50'
_cell_volume   4545.84823311
_cell_formula_units_Z   50
loop_
 _symmetry_equiv_pos_site_id
 _symmetry_equiv_pos_as_xyz
  1  'x, y, z'
loop_
 _atom_site_type_symbol
 _atom_site_label
 _atom_site_symmetry_multiplicity
 _atom_site_fract_x
 _atom_site_fract_y
 _atom_site_fract_z
 _atom_site_occupancy
  Zr  Zr0  1  0.70322070  0.29468041  0.30325868  1
  Zr  Zr1  1  0.09525879  0.10337609  0.69795671  1
  Zr  Zr2  1  0.90247135  0.09804264  0.69652177  1
  Zr  Zr3  1  0.70239286  0.70564301  0.29898077  1
  Zr  Zr4  1  0.50925770  0.70080968  0.29622972  1
  Zr  Zr5  1  0.69660751  0.30063676  0.49313836  1
  Zr  Zr6  1  0.71253377  0.29814449  0.90027446  1
  Zr  Zr7  1  0.30655096  0.09449831  0.29432371  1
  Zr  Zr8  1  0.69658274  0.69575377  0.50010122  1
  Zr  Zr9  1  0.90292158  0.50061714  0.30133903  1
  Zr  Zr10  1  0.29526719  0.89702111  0.29800337  1
  Zr  Zr11  1  0.89502029  0.29394498  0.71007465  1
  Zr  Zr12  1  0.90168724  0.69720437  0.69659729  1
  Zr  Zr13  1  0.30098589  0.30476083  0.50235888  1
  Zr  Zr14  1  0.70921331  0.50197686  0.69499884  1
  Zr  Zr15  1  0.70549077  0.90893240  0.09914983  1
  Zr  Zr16  1  0.90144451  0.29921254  0.29657955  1
  Zr  Zr17  1  0.89955970  0.69984958  0.30894141  1
  Zr  Zr18  1  0.09856807  0.69587096  0.69792588  1
  Zr  Zr19  1  0.69475590  0.88896871  0.89594980  1
  Zr  Zr20  1  0.70908548  0.10694958  0.70072028  1
  Zr  Zr21  1  0.09492658  0.89602170  0.90140709  1
  Zr  Zr22  1  0.70333755  0.70777153  0.70386404  1
  Zr  Zr23  1  0.50315531  0.90601619  0.29832104  1
  Zr  Zr24  1  0.50762720  0.70680527  0.90276711  1
  Zr  Zr25  1  0.09303421  0.09743252  0.49871417  1
  Zr  Zr26  1  0.90652627  0.90544036  0.49847589  1
  Zr  Zr27  1  0.11392040  0.30348733  0.50003340  1
  Zr  Zr28  1  0.69428369  0.69827484  0.09806985  1
  Zr  Zr29  1  0.29922130  0.49762359  0.89479432  1
  Zr  Zr30  1  0.49398546  0.10818443  0.71724977  1
  Zr  Zr31  1  0.50638500  0.09604981  0.29756027  1
  Zr  Zr32  1  0.29143630  0.69405190  0.28873328  1
  Zr  Zr33  1  0.69627675  0.29870428  0.09748960  1
  Zr  Zr34  1  0.09456249  0.49463704  0.09976789  1
  Zr  Zr35  1  0.09473714  0.69754430  0.49645549  1
  Zr  Zr36  1  0.09978725  0.89973002  0.09164477  1
  Zr  Zr37  1  0.70201517  0.49550051  0.09591341  1
  Zr  Zr38  1  0.89805148  0.09616527  0.50423746  1
  Zr  Zr39  1  0.29765394  0.89196128  0.69705565  1
  Zr  Zr40  1  0.70781423  0.49733969  0.49688854  1
  Zr  Zr41  1  0.90242227  0.10439858  0.90285203  1
  Zr  Zr42  1  0.89768639  0.89707068  0.70415596  1
  Zr  Zr43  1  0.90908839  0.90405551  0.90602488  1
  Zr  Zr44  1  0.09762552  0.50090545  0.69530017  1
  Zr  Zr45  1  0.29291392  0.29897136  0.90628950  1
  Zr  Zr46  1  0.70334403  0.30010887  0.70180996  1
  Zr  Zr47  1  0.28983048  0.69941919  0.70780329  1
  Zr  Zr48  1  0.70628902  0.49532079  0.90731063  1
  Zr  Zr49  1  0.30987477  0.50058682  0.10334138  1
  Sc  Sc50  1  0.30632020  0.69978480  0.10191181  1
  Sc  Sc51  1  0.89290156  0.89384947  0.30175343  1
  Sc  Sc52  1  0.51169179  0.30621851  0.29719323  1
  Sc  Sc53  1  0.49967092  0.49364194  0.10401981  1
  Sc  Sc54  1  0.90622956  0.49359117  0.69541999  1
  Sc  Sc55  1  0.49381888  0.29486354  0.89715457  1
  Sc  Sc56  1  0.29480191  0.11057719  0.48949622  1
  Sc  Sc57  1  0.89310120  0.69645856  0.10476269  1
  Sc  Sc58  1  0.49779799  0.69736846  0.09846921  1
  Sc  Sc59  1  0.49997639  0.10779387  0.90060087  1
  Sc  Sc60  1  0.30054628  0.30177207  0.30769113  1
  Sc  Sc61  1  0.10378744  0.09868070  0.89903916  1
  Sc  Sc62  1  0.91249800  0.29475454  0.09919896  1
  Sc  Sc63  1  0.30103333  0.70354639  0.52082988  1
  Sc  Sc64  1  0.49960757  0.09998514  0.48552390  1
  Sc  Sc65  1  0.29572336  0.10158884  0.71743168  1
  Sc  Sc66  1  0.29522723  0.49216524  0.50233703  1
  Sc  Sc67  1  0.09974798  0.09776662  0.30267297  1
  Sc  Sc68  1  0.29631913  0.89833555  0.10191095  1
  Sc  Sc69  1  0.29381904  0.90346924  0.89559779  1
  Sc  Sc70  1  0.89956542  0.69676999  0.49824998  1
  Sc  Sc71  1  0.90087612  0.49849519  0.09240256  1
  Sc  Sc72  1  0.50563677  0.89639753  0.10035324  1
  Sc  Sc73  1  0.09722720  0.30240020  0.69935479  1
  Sc  Sc74  1  0.30601905  0.50212974  0.70091871  1
  Sc  Sc75  1  0.11454428  0.70254596  0.10111793  1
  Sc  Sc76  1  0.70034520  0.10385649  0.49876528  1
  Sc  Sc77  1  0.50238060  0.90217537  0.90448558  1
  Sc  Sc78  1  0.29748555  0.31077150  0.70477015  1
  Sc  Sc79  1  0.69579681  0.90018074  0.50547405  1
  Sc  Sc80  1  0.50136078  0.49520914  0.29506360  1
  Sc  Sc81  1  0.09939954  0.89077413  0.70650573  1
  Sc  Sc82  1  0.49468817  0.89695871  0.70916330  1
  Sc  Sc83  1  0.89989275  0.10810640  0.30126532  1
  Sc  Sc84  1  0.69713588  0.49880201  0.30300732  1
  Sc  Sc85  1  0.08892506  0.49682881  0.89570421  1
  Sc  Sc86  1  0.48159131  0.70132711  0.69733620  1
  Sc  Sc87  1  0.49623006  0.30692611  0.48800321  1
  Sc  Sc88  1  0.30786871  0.69311712  0.89887842  1
  Sc  Sc89  1  0.90887419  0.69806398  0.89637794  1
  Sc  Sc90  1  0.48933450  0.50495986  0.90220197  1
  Sc  Sc91  1  0.30148333  0.50211855  0.29780658  1
  Sc  Sc92  1  0.70317539  0.89511196  0.69771525  1
  Sc  Sc93  1  0.11268266  0.50965316  0.30775007  1
  Sc  Sc94  1  0.10235101  0.10626577  0.09998065  1
  Sc  Sc95  1  0.29542577  0.89340626  0.50042135  1
  Sc  Sc96  1  0.89203586  0.29681202  0.49296002  1
  Sc  Sc97  1  0.10192370  0.69544998  0.89133167  1
  Sc  Sc98  1  0.28901665  0.10589030  0.09846995  1
  Sc  Sc99  1  0.50038262  0.89934391  0.49988684  1
  Nb  Nb100  1  0.70163965  0.09794838  0.91073707  1
  Nb  Nb101  1  0.09238905  0.30175186  0.91461503  1
  Nb  Nb102  1  0.49457435  0.50363698  0.50788568  1
  Nb  Nb103  1  0.70481814  0.10103849  0.08974043  1
  Nb  Nb104  1  0.69301330  0.90696376  0.29769094  1
  Nb  Nb105  1  0.88887356  0.08405686  0.09210433  1
  Nb  Nb106  1  0.09697580  0.89385717  0.30722748  1
  Nb  Nb107  1  0.90326883  0.30695976  0.89978948  1
  Nb  Nb108  1  0.09977252  0.90347413  0.48686850  1
  Nb  Nb109  1  0.90361437  0.90163974  0.09615922  1
  Nb  Nb110  1  0.09136211  0.30531559  0.28994369  1
  Nb  Nb111  1  0.49659840  0.30078455  0.10567919  1
  Nb  Nb112  1  0.89993615  0.49309440  0.89860268  1
  Nb  Nb113  1  0.50774772  0.10502003  0.09282449  1
  Nb  Nb114  1  0.10394403  0.30063422  0.10196785  1
  Nb  Nb115  1  0.69815134  0.09716634  0.29680600  1
  Nb  Nb116  1  0.09526738  0.49705912  0.50032296  1
  Nb  Nb117  1  0.69930945  0.69995501  0.89796656  1
  Nb  Nb118  1  0.10097837  0.70275362  0.29874965  1
  Nb  Nb119  1  0.30555746  0.10140742  0.89993899  1
  Nb  Nb120  1  0.49805244  0.69822068  0.50010542  1
  Nb  Nb121  1  0.90321646  0.50449101  0.49496057  1
  Nb  Nb122  1  0.49879297  0.30233006  0.70434528  1
  Nb  Nb123  1  0.29832917  0.30119797  0.10132332  1
  Nb  Nb124  1  0.49614685  0.49643353  0.70074383  1
  Nb  Nb125  1  0.20293689  0.59109236  -0.00033487  1
  Nb  Nb126  1  0.40414572  0.20080993  0.60417081  1
  Nb  Nb127  1  0.00316377  0.80060615  0.20247696  1
  Nb  Nb128  1  -0.00445444  -0.00788077  0.19593666  1
  Nb  Nb129  1  0.60251210  0.59784282  0.79608117  1
  Nb  Nb130  1  0.59947429  0.40455522  0.79585282  1
  Nb  Nb131  1  0.59072460  0.20422107  0.60327813  1
  Nb  Nb132  1  0.40152038  0.79077646  0.39667447  1
  Nb  Nb133  1  0.19847891  0.00074448  0.59788807  1
  Nb  Nb134  1  0.59267932  0.40176820  0.60351989  1
  Nb  Nb135  1  0.79977693  0.80072377  -0.00127892  1
  Nb  Nb136  1  0.59167281  0.01105270  0.60980409  1
  Nb  Nb137  1  0.00553490  0.40368713  0.40174459  1
  Nb  Nb138  1  0.79220835  0.00063267  0.39344962  1
  Nb  Nb139  1  0.19727835  0.39346514  0.19627351  1
  Nb  Nb140  1  0.59324899  0.59713724  0.60316829  1
  Nb  Nb141  1  0.79870025  0.59885219  0.80415946  1
  Nb  Nb142  1  0.80133980  0.39565914  0.19928431  1
  Nb  Nb143  1  0.39885135  0.00943032  0.00069159  1
  Nb  Nb144  1  0.40427422  0.60623962  0.40550522  1
  Nb  Nb145  1  0.60782774  0.00661248  0.80159564  1
  Nb  Nb146  1  0.00603654  0.60619342  0.20541773  1
  Nb  Nb147  1  0.79791626  0.00179138  0.80576083  1
  Nb  Nb148  1  0.39660247  0.00859555  0.60324668  1
  Nb  Nb149  1  0.40524011  0.20306293  0.19279032  1
  Pd  Pd150  1  0.19880521  0.40562195  0.00406112  1
  Pd  Pd151  1  -0.00352018  0.18614054  0.19240710  1
  Pd  Pd152  1  0.40159586  0.00846449  0.18369448  1
  Pd  Pd153  1  0.20208313  0.59271378  0.59630879  1
  Pd  Pd154  1  0.19320596  0.20800548  0.80445097  1
  Pd  Pd155  1  0.79369016  0.80831062  0.40695203  1
  Pd  Pd156  1  0.80098841  0.80396972  0.19379365  1
  Pd  Pd157  1  0.01143163  -0.01208464  0.60647288  1
  Pd  Pd158  1  0.20549846  0.20635932  0.20888961  1
  Pd  Pd159  1  0.39279783  -0.00958235  0.40896046  1
  Pd  Pd160  1  0.59942314  0.20761381  -0.00629309  1
  Pd  Pd161  1  -0.00700110  0.39151779  0.59163818  1
  Pd  Pd162  1  0.59817039  0.80661128  0.40094122  1
  Pd  Pd163  1  0.20964048  0.78856676  -0.00768858  1
  Pd  Pd164  1  0.58891988  0.39590357  -0.01005632  1
  Pd  Pd165  1  0.21224937  0.60714204  0.41241205  1
  Pd  Pd166  1  0.21082633  0.19436902  0.60728513  1
  Pd  Pd167  1  0.19354897  0.20151305  0.38877481  1
  Pd  Pd168  1  0.60043422  0.00492601  0.18770650  1
  Pd  Pd169  1  0.40258718  0.79949262  0.20338140  1
  Pd  Pd170  1  0.80384969  0.79975673  0.58946113  1
  Pd  Pd171  1  0.18896288  0.39926572  0.80011910  1
  Pd  Pd172  1  0.58941336  0.79965190  0.60741230  1
  Pd  Pd173  1  0.39669338  0.19745632  0.00598100  1
  Pd  Pd174  1  0.20408683  0.00466220  -0.00299709  1
  Pd  Pd175  1  0.80158290  0.19991136  0.18984163  1
  Pd  Pd176  1  0.19463031  -0.00289766  0.79545758  1
  Pd  Pd177  1  0.59881526  0.59309140  0.19701342  1
  Pd  Pd178  1  0.80588269  0.00161268  0.20885151  1
  Pd  Pd179  1  0.40677488  0.20464535  0.39159752  1
  Pd  Pd180  1  0.00844098  0.20565243  0.80639616  1
  Pd  Pd181  1  0.39664311  0.80253207  0.81001134  1
  Pd  Pd182  1  0.59964955  0.19689710  0.19908648  1
  Pd  Pd183  1  0.00639834  0.20853720  0.40376902  1
  Pd  Pd184  1  -0.00331482  0.21214300  0.59315572  1
  Pd  Pd185  1  0.59331333  0.59454553  -0.00354295  1
  Pd  Pd186  1  -0.00340061  0.78399016  0.00867682  1
  Pd  Pd187  1  0.00743236  0.60678069  0.00643626  1
  Pd  Pd188  1  0.40101367  0.40995226  0.39480456  1
  Pd  Pd189  1  0.40478148  0.39672770  -0.00233448  1
  Pd  Pd190  1  0.00382082  0.80417585  0.59602651  1
  Pd  Pd191  1  0.80674122  0.60826534  -0.00788320  1
  Pd  Pd192  1  0.80228105  0.59191030  0.20257252  1
  Pd  Pd193  1  0.39503857  0.81034818  -0.00218187  1
  Pd  Pd194  1  -0.00013720  0.19368345  0.00484164  1
  Pd  Pd195  1  0.20584085  0.00159910  0.40321014  1
  Pd  Pd196  1  0.20814086  0.78834744  0.40550657  1
  Pd  Pd197  1  0.80663802  0.39460778  0.59561640  1
  Pd  Pd198  1  0.18900902  -0.00403955  0.20118352  1
  Pd  Pd199  1  0.59546602  0.59204576  0.40420665  1
  Rh  Rh200  1  0.79671927  -0.00900230  -0.01027544  1
  Rh  Rh201  1  0.81185609  0.80000087  0.81154825  1
  Rh  Rh202  1  0.59676539  0.40801934  0.40617982  1
  Rh  Rh203  1  0.59272203  0.79627870  0.79287855  1
  Rh  Rh204  1  0.61054183  0.39994909  0.19824500  1
  Rh  Rh205  1  0.40521380  -0.00343136  0.80910371  1
  Rh  Rh206  1  -0.00414900  0.39719230  -0.00078695  1
  Rh  Rh207  1  0.80814975  0.40264478  0.39127941  1
  Rh  Rh208  1  0.79788297  0.20557020  0.59308693  1
  Rh  Rh209  1  0.19672808  0.20082020  -0.00435833  1
  Rh  Rh210  1  0.80765164  0.20408894  0.00386235  1
  Rh  Rh211  1  0.59991972  0.19758200  0.39925056  1
  Rh  Rh212  1  0.60438452  0.80298591  0.19640616  1
  Rh  Rh213  1  0.00081599  0.79579185  0.79911347  1
  Rh  Rh214  1  -0.00824970  0.59304843  0.79621973  1
  Rh  Rh215  1  0.40504351  0.60236573  0.79852949  1
  Rh  Rh216  1  0.80338815  0.60264817  0.59997450  1
  Rh  Rh217  1  0.79546938  0.18869137  0.39971313  1
  Rh  Rh218  1  0.19481881  0.80858604  0.19974874  1
  Rh  Rh219  1  0.40836417  0.60209138  0.20716674  1
  Rh  Rh220  1  0.60605212  0.80112471  0.00798366  1
  Rh  Rh221  1  0.00888726  0.01095648  0.00691070  1
  Rh  Rh222  1  0.60926411  -0.00010471  0.40851796  1
  Rh  Rh223  1  0.61160520  0.20444114  0.80391409  1
  Rh  Rh224  1  0.81215802  0.38912367  0.01069279  1
  Rh  Rh225  1  -0.00306515  0.00160415  0.79713128  1
  Rh  Rh226  1  0.19477468  0.58914720  0.18769704  1
  Rh  Rh227  1  0.40344679  0.81205883  0.59370604  1
  Rh  Rh228  1  0.38511283  0.21271869  0.79877424  1
  Rh  Rh229  1  0.19840733  0.59369139  0.80545756  1
  Rh  Rh230  1  0.79595038  0.60060815  0.39985057  1
  Rh  Rh231  1  -0.00290507  0.59787225  0.59666861  1
  Rh  Rh232  1  0.40284965  0.39773644  0.80665382  1
  Rh  Rh233  1  0.00291558  0.59594995  0.39734573  1
  Rh  Rh234  1  0.80321003  0.19336766  0.81009223  1
  Rh  Rh235  1  0.20092127  0.40571621  0.60624174  1
  Rh  Rh236  1  0.00097502  0.39568488  0.80066877  1
  Rh  Rh237  1  0.39707450  0.59796607  0.60019053  1
  Rh  Rh238  1  -0.00020520  0.80054257  0.39938245  1
  Rh  Rh239  1  0.19326099  0.39742195  0.39034502  1
  Rh  Rh240  1  0.80178699  0.40706107  0.80118148  1
  Rh  Rh241  1  0.39834028  0.60143213  0.00350725  1
  Rh  Rh242  1  -0.01249000  -0.00151735  0.38754517  1
  Rh  Rh243  1  0.18455985  0.80898748  0.59300342  1
  Rh  Rh244  1  0.00216099  0.41118134  0.20613443  1
  Rh  Rh245  1  0.79116551  -0.00216058  0.59805210  1
  Rh  Rh246  1  0.19875630  0.79627030  0.80720650  1
  Rh  Rh247  1  0.59350875  0.00290635  -0.00408225  1
  Rh  Rh248  1  0.40062843  0.39271551  0.60071631  1
  Rh  Rh249  1  0.39200802  0.38974645  0.20448875  1
