# generated using pymatgen
data_ZrScNbPdRh
_symmetry_space_group_name_H-M   'P 1'
_cell_length_a   16.55009559
_cell_length_b   16.54669634
_cell_length_c   16.54824033
_cell_angle_alpha   90.02551315
_cell_angle_beta   89.97468679
_cell_angle_gamma   90.00958558
_symmetry_Int_Tables_number   1
_chemical_formula_structural   ZrScNbPdRh
_chemical_formula_sum   'Zr50 Sc50 Nb50 Pd50 Rh50'
_cell_volume   4531.72483162
_cell_formula_units_Z   50
loop_
 _symmetry_equiv_pos_site_id
 _symmetry_equiv_pos_as_xyz
  1  'x, y, z'
loop_
 _atom_site_type_symbol
 _atom_site_label
 _atom_site_symmetry_multiplicity
 _atom_site_fract_x
 _atom_site_fract_y
 _atom_site_fract_z
 _atom_site_occupancy
  Zr  Zr0  1  0.69938136  0.69752089  0.50426006  1
  Zr  Zr1  1  0.29748972  0.70419596  0.09890944  1
  Zr  Zr2  1  0.11060220  0.69450136  0.51394712  1
  Zr  Zr3  1  0.69370515  0.89480670  0.50884504  1
  Zr  Zr4  1  0.49738911  0.90194471  0.30584888  1
  Zr  Zr5  1  0.49539893  0.48943759  0.49624511  1
  Zr  Zr6  1  0.49870011  0.69841853  0.10176224  1
  Zr  Zr7  1  0.50055841  0.91694196  0.69604650  1
  Zr  Zr8  1  0.29006495  0.29927518  0.10085306  1
  Zr  Zr9  1  0.30595976  0.29981152  0.49665411  1
  Zr  Zr10  1  0.89953197  0.89163664  0.10220780  1
  Zr  Zr11  1  0.51783214  0.10044637  0.29860680  1
  Zr  Zr12  1  0.50689008  0.09776438  0.09516885  1
  Zr  Zr13  1  0.10038851  0.70208649  0.10322563  1
  Zr  Zr14  1  0.30131199  0.50575524  0.08941271  1
  Zr  Zr15  1  0.10183614  0.90436938  0.88769516  1
  Zr  Zr16  1  0.70380416  0.69605050  0.30124821  1
  Zr  Zr17  1  0.50633559  0.49639922  0.29475397  1
  Zr  Zr18  1  0.89599338  0.09276631  0.30181782  1
  Zr  Zr19  1  0.69604946  0.10612197  0.10933891  1
  Zr  Zr20  1  0.29128854  0.31925782  0.90145203  1
  Zr  Zr21  1  0.29973746  0.69798807  0.90833915  1
  Zr  Zr22  1  0.10409707  0.89286378  0.10019467  1
  Zr  Zr23  1  0.90613331  0.69336385  0.10152657  1
  Zr  Zr24  1  0.50125301  0.30194636  0.31411789  1
  Zr  Zr25  1  0.89803294  0.10025901  0.09593844  1
  Zr  Zr26  1  0.29638867  0.90020074  0.89853677  1
  Zr  Zr27  1  0.70497685  0.90161586  0.89594699  1
  Zr  Zr28  1  0.49643363  0.09895131  0.88757161  1
  Zr  Zr29  1  0.09875119  0.49845720  0.50312278  1
  Zr  Zr30  1  0.08898642  0.50493850  0.11129947  1
  Zr  Zr31  1  0.51192124  0.29684373  0.88331267  1
  Zr  Zr32  1  0.50466835  0.50352962  0.10788888  1
  Zr  Zr33  1  0.90291225  0.90800664  0.89838088  1
  Zr  Zr34  1  0.89958440  0.30574920  0.30570433  1
  Zr  Zr35  1  0.91499846  0.90255815  0.70359455  1
  Zr  Zr36  1  0.10581840  0.49516819  0.89260874  1
  Zr  Zr37  1  0.30276396  0.69661914  0.49279424  1
  Zr  Zr38  1  0.49314850  0.69120150  0.29795190  1
  Zr  Zr39  1  0.49986622  0.70376902  0.89939417  1
  Zr  Zr40  1  0.51174291  0.29990469  0.09594716  1
  Zr  Zr41  1  0.09544761  0.30132279  0.90282436  1
  Zr  Zr42  1  0.29315950  0.10063153  0.09780644  1
  Zr  Zr43  1  0.30298625  0.49669180  0.70468277  1
  Zr  Zr44  1  0.71203709  0.09841598  0.49166262  1
  Zr  Zr45  1  0.69525385  0.30248590  0.70641760  1
  Zr  Zr46  1  0.29088959  0.09454794  0.50237425  1
  Zr  Zr47  1  0.09896287  0.29936078  0.29088098  1
  Zr  Zr48  1  0.50227716  0.49135119  0.70223427  1
  Zr  Zr49  1  0.70169133  0.29382980  0.29548885  1
  Sc  Sc50  1  0.30260563  0.09738596  0.70112783  1
  Sc  Sc51  1  0.69916650  0.48534771  0.10327558  1
  Sc  Sc52  1  0.29184317  0.90700416  0.70215691  1
  Sc  Sc53  1  0.70373601  0.70096266  0.10147821  1
  Sc  Sc54  1  0.29040336  0.10695076  0.30811143  1
  Sc  Sc55  1  0.09957837  0.09676482  0.50164727  1
  Sc  Sc56  1  0.30183040  0.29737350  0.68922122  1
  Sc  Sc57  1  0.50927636  0.90144774  0.90012414  1
  Sc  Sc58  1  0.88710589  0.69859813  0.49882107  1
  Sc  Sc59  1  0.70021119  0.89836823  0.09865024  1
  Sc  Sc60  1  0.09515525  0.09586243  0.90474077  1
  Sc  Sc61  1  0.09181058  0.89731039  0.30338664  1
  Sc  Sc62  1  0.28285431  0.70988004  0.69112867  1
  Sc  Sc63  1  0.90063124  0.09527032  0.69448171  1
  Sc  Sc64  1  0.90148198  0.09484764  0.90215331  1
  Sc  Sc65  1  0.09901147  0.90407560  0.50405970  1
  Sc  Sc66  1  0.90641488  0.49467346  0.30036552  1
  Sc  Sc67  1  0.90025482  0.70696677  0.30319507  1
  Sc  Sc68  1  0.90171219  0.30516755  0.50897706  1
  Sc  Sc69  1  0.70269776  0.69938150  0.69195729  1
  Sc  Sc70  1  0.70679358  0.50165672  0.70206550  1
  Sc  Sc71  1  0.09980420  0.09642900  0.69150245  1
  Sc  Sc72  1  0.89217231  0.50289346  0.89727008  1
  Sc  Sc73  1  0.71102778  0.29803985  0.49863405  1
  Sc  Sc74  1  0.29442510  0.89296813  0.09211032  1
  Sc  Sc75  1  0.89919095  0.69225374  0.90707204  1
  Sc  Sc76  1  0.90113350  0.90516237  0.49944516  1
  Sc  Sc77  1  0.09814068  0.49052092  0.30458129  1
  Sc  Sc78  1  0.69968969  0.90296618  0.29542795  1
  Sc  Sc79  1  0.29993719  0.50244547  0.30544306  1
  Sc  Sc80  1  0.09442066  0.31612398  0.69295777  1
  Sc  Sc81  1  0.29822151  0.90419374  0.31079992  1
  Sc  Sc82  1  0.90133501  0.50149844  0.69785548  1
  Sc  Sc83  1  0.70394899  0.49142897  0.29869753  1
  Sc  Sc84  1  0.89306190  0.49848532  0.50073320  1
  Sc  Sc85  1  0.48772980  0.49896318  0.89112468  1
  Sc  Sc86  1  0.09637920  0.11204929  0.10031716  1
  Sc  Sc87  1  0.51264225  0.69797100  0.70017205  1
  Sc  Sc88  1  0.29275965  0.49580843  0.49774557  1
  Sc  Sc89  1  0.70167028  0.90347987  0.69753844  1
  Sc  Sc90  1  0.90290006  0.89809279  0.29924657  1
  Sc  Sc91  1  0.10082861  0.30368286  0.50343324  1
  Sc  Sc92  1  0.70323670  0.69587582  0.89510488  1
  Sc  Sc93  1  0.70365431  0.09693104  0.90429417  1
  Sc  Sc94  1  0.09666179  0.70137576  0.89891350  1
  Sc  Sc95  1  0.50875965  0.89718345  0.09639745  1
  Sc  Sc96  1  0.29275813  0.29980482  0.30399156  1
  Sc  Sc97  1  0.69901196  0.10138423  0.69668433  1
  Sc  Sc98  1  0.89399377  0.29495136  0.10045370  1
  Sc  Sc99  1  0.28992313  0.09385212  0.89181624  1
  Nb  Nb100  1  0.70165168  0.29743747  0.09231982  1
  Nb  Nb101  1  0.09758747  0.09647472  0.30270480  1
  Nb  Nb102  1  0.30768152  0.90248944  0.49890846  1
  Nb  Nb103  1  0.10037280  0.88059657  0.70317079  1
  Nb  Nb104  1  0.70277744  0.49711135  0.90265034  1
  Nb  Nb105  1  0.89761216  0.30017695  0.90105648  1
  Nb  Nb106  1  0.91302606  0.70165036  0.70603756  1
  Nb  Nb107  1  0.70933488  0.30894019  0.90521597  1
  Nb  Nb108  1  0.70545101  0.50779275  0.50559330  1
  Nb  Nb109  1  0.49938174  0.11535318  0.70216222  1
  Nb  Nb110  1  0.09478527  0.70309548  0.70193759  1
  Nb  Nb111  1  0.70150579  0.10232548  0.30227807  1
  Nb  Nb112  1  0.29759982  0.70062121  0.30054848  1
  Nb  Nb113  1  0.90482011  0.10021438  0.49768142  1
  Nb  Nb114  1  0.29520938  0.50419394  0.89572963  1
  Nb  Nb115  1  0.90270874  0.50435626  0.10523594  1
  Nb  Nb116  1  0.50495706  0.28822616  0.69379132  1
  Nb  Nb117  1  0.49626338  0.09767048  0.50491065  1
  Nb  Nb118  1  0.09711103  0.51312467  0.69731303  1
  Nb  Nb119  1  0.49231228  0.90229244  0.49934336  1
  Nb  Nb120  1  0.89467853  0.30597601  0.70292780  1
  Nb  Nb121  1  0.49945858  0.70143077  0.50073438  1
  Nb  Nb122  1  0.49550394  0.29863028  0.50769933  1
  Nb  Nb123  1  0.10226417  0.70233329  0.30185526  1
  Nb  Nb124  1  0.09598860  0.29950341  0.09937919  1
  Nb  Nb125  1  0.40267778  0.80294309  0.59690695  1
  Nb  Nb126  1  -0.00463719  0.20756455  0.79694916  1
  Nb  Nb127  1  0.60162968  0.59973009  0.40638049  1
  Nb  Nb128  1  0.60196650  0.59418521  -0.00222379  1
  Nb  Nb129  1  0.19816765  0.60670463  0.20381572  1
  Nb  Nb130  1  0.59742898  0.39288140  0.59751880  1
  Nb  Nb131  1  0.40154398  0.60363104  0.59854646  1
  Nb  Nb132  1  -0.00332783  0.39789974  0.00357534  1
  Nb  Nb133  1  0.19789567  0.00086311  0.20309727  1
  Nb  Nb134  1  -0.00312231  0.19514673  0.39922964  1
  Nb  Nb135  1  0.80482468  0.20862038  0.80355242  1
  Nb  Nb136  1  0.59188621  0.79554009  0.40622144  1
  Nb  Nb137  1  0.80677912  0.59517757  0.19752637  1
  Nb  Nb138  1  0.00506957  0.60356033  0.40217418  1
  Nb  Nb139  1  0.39998695  0.00507011  0.00067790  1
  Nb  Nb140  1  0.19807137  0.59938331  0.79679260  1
  Nb  Nb141  1  0.39903795  0.20175814  -0.00306942  1
  Nb  Nb142  1  0.39591217  0.80205230  0.20465539  1
  Nb  Nb143  1  0.80950488  0.80100834  0.79688681  1
  Nb  Nb144  1  0.20264359  0.79680542  0.40396425  1
  Nb  Nb145  1  0.18987811  0.20804804  0.79705323  1
  Nb  Nb146  1  0.39626393  0.00210443  0.19722348  1
  Nb  Nb147  1  0.40095413  0.80208739  0.79399052  1
  Nb  Nb148  1  0.40308490  0.20005836  0.19693630  1
  Nb  Nb149  1  0.40094344  0.39492006  0.19683228  1
  Pd  Pd150  1  0.60414231  0.80314640  0.79063203  1
  Pd  Pd151  1  0.20196494  0.40264044  0.60206915  1
  Pd  Pd152  1  0.60213224  0.20088097  0.41330276  1
  Pd  Pd153  1  0.59303951  0.40782613  -0.01155259  1
  Pd  Pd154  1  0.39936272  0.38601705  0.79297610  1
  Pd  Pd155  1  0.59549570  0.80119074  0.20693968  1
  Pd  Pd156  1  0.18650441  0.20373132  0.40650121  1
  Pd  Pd157  1  -0.01107766  0.60040720  0.59241683  1
  Pd  Pd158  1  0.80196161  0.60716408  0.79379313  1
  Pd  Pd159  1  -0.00604143  0.79748242  0.58866748  1
  Pd  Pd160  1  0.80416833  0.20020268  0.60628509  1
  Pd  Pd161  1  0.60633666  0.00782584  0.79725516  1
  Pd  Pd162  1  0.59925490  0.01176708  0.59568670  1
  Pd  Pd163  1  0.60938006  0.79184930  -0.00225925  1
  Pd  Pd164  1  0.00445598  0.59002991  -0.00974166  1
  Pd  Pd165  1  0.39984606  0.01492084  0.39417370  1
  Pd  Pd166  1  0.20132789  0.19769508  -0.01152311  1
  Pd  Pd167  1  0.40930865  0.59721736  -0.00213720  1
  Pd  Pd168  1  0.81061993  0.40594074  0.00721261  1
  Pd  Pd169  1  0.79644440  -0.00301125  0.19779011  1
  Pd  Pd170  1  0.40252234  0.19200540  0.39702727  1
  Pd  Pd171  1  0.38991658  0.61603920  0.78739552  1
  Pd  Pd172  1  0.79450212  0.00107120  0.00801455  1
  Pd  Pd173  1  0.59366957  0.58915996  0.59681288  1
  Pd  Pd174  1  0.00658110  0.79306334  0.41102091  1
  Pd  Pd175  1  0.79853576  0.79518072  -0.00685027  1
  Pd  Pd176  1  0.00576307  -0.00197208  0.19448739  1
  Pd  Pd177  1  0.39390809  0.19012473  0.59696865  1
  Pd  Pd178  1  0.60261363  0.19694966  -0.01191961  1
  Pd  Pd179  1  -0.00739762  0.40460786  0.80179225  1
  Pd  Pd180  1  -0.00148637  0.20257495  0.60048272  1
  Pd  Pd181  1  0.60769543  0.19904293  0.58913691  1
  Pd  Pd182  1  0.79905112  -0.01121099  0.39914836  1
  Pd  Pd183  1  0.40859691  0.39665577  0.00138489  1
  Pd  Pd184  1  0.80428625  -0.00183825  0.60142242  1
  Pd  Pd185  1  0.61271760  0.40182590  0.41041882  1
  Pd  Pd186  1  0.81060014  0.80062659  0.60954138  1
  Pd  Pd187  1  0.00215438  0.80241998  -0.00658261  1
  Pd  Pd188  1  0.60406579  -0.00535454  0.40705655  1
  Pd  Pd189  1  0.18722026  0.40992246  0.01108067  1
  Pd  Pd190  1  0.00661146  -0.00138589  0.00909809  1
  Pd  Pd191  1  0.80448199  0.20098588  0.20098322  1
  Pd  Pd192  1  -0.00687461  0.19951665  0.20504957  1
  Pd  Pd193  1  0.20569327  0.41105234  0.19935494  1
  Pd  Pd194  1  0.38324615  0.20888904  0.80664966  1
  Pd  Pd195  1  0.40350052  0.59113830  0.40279756  1
  Pd  Pd196  1  0.60572658  0.59287594  0.80621489  1
  Pd  Pd197  1  0.79761245  0.40276415  0.40312952  1
  Pd  Pd198  1  0.19576891  -0.00642761  0.60414834  1
  Pd  Pd199  1  0.79278434  0.80877786  0.39957810  1
  Rh  Rh200  1  0.19802428  0.40141194  0.78787101  1
  Rh  Rh201  1  0.40507135  0.40124219  0.60423033  1
  Rh  Rh202  1  0.79252952  0.40352404  0.60263899  1
  Rh  Rh203  1  0.80331911  0.39869166  0.19567083  1
  Rh  Rh204  1  0.81002475  0.19968999  0.40043597  1
  Rh  Rh205  1  -0.00700925  0.39082472  0.19115157  1
  Rh  Rh206  1  0.60510741  0.40539029  0.79924884  1
  Rh  Rh207  1  0.20039684  0.20089542  0.60380172  1
  Rh  Rh208  1  0.00620949  0.01050991  0.79276053  1
  Rh  Rh209  1  0.39267228  0.39925365  0.39214773  1
  Rh  Rh210  1  -0.00633562  0.79426349  0.81089735  1
  Rh  Rh211  1  0.80024965  0.40039716  0.79990182  1
  Rh  Rh212  1  0.00199208  0.39876348  0.40803475  1
  Rh  Rh213  1  0.19830734  0.19395576  0.20312589  1
  Rh  Rh214  1  0.20472514  0.80511859  0.21419563  1
  Rh  Rh215  1  0.20733967  0.81233461  0.58955825  1
  Rh  Rh216  1  0.80099624  0.00037791  0.79497739  1
  Rh  Rh217  1  0.19924911  0.39458302  0.40027675  1
  Rh  Rh218  1  0.00419333  0.59958822  0.80270697  1
  Rh  Rh219  1  -0.00464871  0.40708430  0.60099712  1
  Rh  Rh220  1  0.60174541  -0.00015245  -0.00184853  1
  Rh  Rh221  1  -0.00268731  0.79879682  0.20214536  1
  Rh  Rh222  1  0.20899324  0.59209845  0.60933828  1
  Rh  Rh223  1  0.60375466  -0.00414879  0.19875832  1
  Rh  Rh224  1  0.39997510  0.00558596  0.60276856  1
  Rh  Rh225  1  0.40695841  0.81196219  -0.00321151  1
  Rh  Rh226  1  0.19004055  0.79949794  -0.01128919  1
  Rh  Rh227  1  0.19251265  -0.00926869  0.39638105  1
  Rh  Rh228  1  0.19180830  0.59749549  -0.00083146  1
  Rh  Rh229  1  0.39924022  0.79989524  0.39952487  1
  Rh  Rh230  1  0.00317995  -0.00370349  0.60018020  1
  Rh  Rh231  1  0.80712005  0.60302789  0.60850423  1
  Rh  Rh232  1  0.18969769  0.00624616  0.79122991  1
  Rh  Rh233  1  0.00096390  0.00488768  0.40291704  1
  Rh  Rh234  1  -0.00194605  0.60608995  0.21711500  1
  Rh  Rh235  1  0.80140446  0.59190235  0.38967424  1
  Rh  Rh236  1  0.78847198  0.59160989  0.01027870  1
  Rh  Rh237  1  0.19787633  -0.00235044  0.00700440  1
  Rh  Rh238  1  0.38474809  0.59802187  0.19860932  1
  Rh  Rh239  1  0.60014764  0.20676755  0.20237609  1
  Rh  Rh240  1  0.19036640  0.60206309  0.39342922  1
  Rh  Rh241  1  0.61860848  0.59808467  0.19788213  1
  Rh  Rh242  1  0.80424939  0.79458215  0.19931674  1
  Rh  Rh243  1  0.61592885  0.19535064  0.80507615  1
  Rh  Rh244  1  0.20582528  0.79111193  0.80545821  1
  Rh  Rh245  1  -0.00690110  0.20483883  -0.00397198  1
  Rh  Rh246  1  0.79723942  0.19719023  -0.00488545  1
  Rh  Rh247  1  0.40079800  -0.00760855  0.80313963  1
  Rh  Rh248  1  0.58995715  0.80591438  0.60012420  1
  Rh  Rh249  1  0.60028121  0.38835131  0.20271405  1
