# generated using pymatgen
data_ZrScNbPdRh
_symmetry_space_group_name_H-M   'P 1'
_cell_length_a   16.55991579
_cell_length_b   16.55989287
_cell_length_c   16.55736612
_cell_angle_alpha   90.00506688
_cell_angle_beta   89.99247027
_cell_angle_gamma   89.99926622
_symmetry_Int_Tables_number   1
_chemical_formula_structural   ZrScNbPdRh
_chemical_formula_sum   'Zr50 Sc50 Nb50 Pd50 Rh50'
_cell_volume   4540.53359611
_cell_formula_units_Z   50
loop_
 _symmetry_equiv_pos_site_id
 _symmetry_equiv_pos_as_xyz
  1  'x, y, z'
loop_
 _atom_site_type_symbol
 _atom_site_label
 _atom_site_symmetry_multiplicity
 _atom_site_fract_x
 _atom_site_fract_y
 _atom_site_fract_z
 _atom_site_occupancy
  Zr  Zr0  1  0.10162597  0.48709470  0.10374799  1
  Zr  Zr1  1  0.30143657  0.30162716  0.69909380  1
  Zr  Zr2  1  0.09868345  0.69873231  0.48973552  1
  Zr  Zr3  1  0.70125516  0.89893420  0.49982924  1
  Zr  Zr4  1  0.31224731  0.30059071  0.89490728  1
  Zr  Zr5  1  0.69578596  0.90957782  0.90257194  1
  Zr  Zr6  1  0.70244496  0.69975507  0.50152005  1
  Zr  Zr7  1  0.30707457  0.69303936  0.50619788  1
  Zr  Zr8  1  0.30806098  0.89716066  0.49490912  1
  Zr  Zr9  1  0.09479163  0.69578101  0.30346509  1
  Zr  Zr10  1  0.09719101  0.90368915  0.10156637  1
  Zr  Zr11  1  0.70461623  0.49329473  0.10328632  1
  Zr  Zr12  1  0.29607220  0.49324355  0.09658280  1
  Zr  Zr13  1  0.50155652  0.69930663  0.50809106  1
  Zr  Zr14  1  0.69471697  0.49652149  0.89406238  1
  Zr  Zr15  1  0.10270755  0.48797563  0.69748905  1
  Zr  Zr16  1  0.29696882  0.69106298  0.88847098  1
  Zr  Zr17  1  0.09068062  0.89506018  0.29665053  1
  Zr  Zr18  1  0.49526800  0.70807205  0.09643724  1
  Zr  Zr19  1  0.70423049  0.10305283  0.70332954  1
  Zr  Zr20  1  0.49414118  0.69740313  0.90016673  1
  Zr  Zr21  1  0.31495662  0.30244350  0.50254437  1
  Zr  Zr22  1  0.29980818  0.90485813  0.29563267  1
  Zr  Zr23  1  0.49220273  0.49508063  0.50379762  1
  Zr  Zr24  1  0.09897976  0.29719166  0.70324881  1
  Zr  Zr25  1  0.30064226  0.89763486  0.10052008  1
  Zr  Zr26  1  0.49464943  0.91289357  0.30571090  1
  Zr  Zr27  1  0.49559460  0.49650377  0.89462958  1
  Zr  Zr28  1  0.50908700  0.30169900  0.09427053  1
  Zr  Zr29  1  0.89642371  0.70378022  0.70233463  1
  Zr  Zr30  1  0.90133248  0.90332344  0.89871597  1
  Zr  Zr31  1  0.89498972  0.89878483  0.28897624  1
  Zr  Zr32  1  0.10163546  0.31130694  0.29346773  1
  Zr  Zr33  1  0.90529027  0.89914548  0.10040012  1
  Zr  Zr34  1  0.90195033  0.10111087  0.70893836  1
  Zr  Zr35  1  0.10610613  0.08866472  0.69086295  1
  Zr  Zr36  1  0.30621130  0.50207219  0.29677665  1
  Zr  Zr37  1  0.49602945  0.29451363  0.29343456  1
  Zr  Zr38  1  0.29740175  0.90755457  0.90775200  1
  Zr  Zr39  1  0.88962573  0.10308398  0.30152326  1
  Zr  Zr40  1  0.69263175  0.69432070  0.90289075  1
  Zr  Zr41  1  0.69745528  0.50471583  0.50423650  1
  Zr  Zr42  1  0.70651198  0.10295343  0.89781903  1
  Zr  Zr43  1  0.89508157  0.31001610  0.10827376  1
  Zr  Zr44  1  0.70360366  0.09931910  0.50084050  1
  Zr  Zr45  1  0.10392660  0.50480997  0.49893115  1
  Zr  Zr46  1  0.09451178  0.29878679  0.90161059  1
  Zr  Zr47  1  0.29575511  0.70041667  0.30193193  1
  Zr  Zr48  1  0.49494330  0.69680399  0.69488460  1
  Zr  Zr49  1  0.70565942  0.69413899  0.30064641  1
  Sc  Sc50  1  0.89926723  0.70258375  0.29728608  1
  Sc  Sc51  1  0.89998199  0.09410235  0.09474894  1
  Sc  Sc52  1  0.70330565  0.90823389  0.69519789  1
  Sc  Sc53  1  0.69949919  0.30675248  0.70314523  1
  Sc  Sc54  1  0.50507747  0.11434224  0.10749598  1
  Sc  Sc55  1  0.10039189  0.48802939  0.90044890  1
  Sc  Sc56  1  0.70212699  0.91130022  0.10192401  1
  Sc  Sc57  1  0.90235918  0.48785078  0.30228598  1
  Sc  Sc58  1  0.10960811  0.70077351  0.71444836  1
  Sc  Sc59  1  0.29039875  0.10683667  0.70149771  1
  Sc  Sc60  1  0.89117223  0.49738300  0.90285259  1
  Sc  Sc61  1  0.30888720  0.09820970  0.30456370  1
  Sc  Sc62  1  0.09735213  0.91128061  0.49521816  1
  Sc  Sc63  1  0.09100337  0.09487778  0.09735985  1
  Sc  Sc64  1  0.09098108  0.10189807  0.89749734  1
  Sc  Sc65  1  0.71286945  0.29710470  0.29481117  1
  Sc  Sc66  1  0.69574140  0.09392235  0.29286529  1
  Sc  Sc67  1  0.30525982  0.70067636  0.10018426  1
  Sc  Sc68  1  0.89976904  0.10318393  0.90261529  1
  Sc  Sc69  1  0.69827564  0.10643292  0.09521281  1
  Sc  Sc70  1  0.50047007  0.10050703  0.50359307  1
  Sc  Sc71  1  0.90092456  0.90162328  0.70272293  1
  Sc  Sc72  1  0.50604405  0.11397456  0.90183701  1
  Sc  Sc73  1  0.50014732  0.89889115  0.91212336  1
  Sc  Sc74  1  0.70206757  0.30176560  0.90211881  1
  Sc  Sc75  1  0.49352472  0.68836542  0.29728717  1
  Sc  Sc76  1  0.70531159  0.30679977  0.49915862  1
  Sc  Sc77  1  0.89701279  0.89917191  0.49760009  1
  Sc  Sc78  1  0.09010371  0.70472106  0.08963106  1
  Sc  Sc79  1  0.11093519  0.30466348  0.50658096  1
  Sc  Sc80  1  0.30515949  0.30072915  0.09977072  1
  Sc  Sc81  1  0.10711379  0.50364194  0.30077245  1
  Sc  Sc82  1  0.89710735  0.69902190  0.49273386  1
  Sc  Sc83  1  0.90264217  0.29318350  0.89715425  1
  Sc  Sc84  1  0.51119188  0.11125601  0.70196577  1
  Sc  Sc85  1  0.69740074  0.68729388  0.69383354  1
  Sc  Sc86  1  0.70884969  0.69186095  0.10660866  1
  Sc  Sc87  1  0.49072523  0.89974929  0.09890719  1
  Sc  Sc88  1  0.28336759  0.91162369  0.70409747  1
  Sc  Sc89  1  0.89539109  0.69740183  0.10053322  1
  Sc  Sc90  1  0.29148320  0.10594159  0.50125862  1
  Sc  Sc91  1  0.30010219  0.08928971  0.09963104  1
  Sc  Sc92  1  0.90069849  0.49322668  0.49817543  1
  Sc  Sc93  1  0.50073045  0.89579640  0.50522494  1
  Sc  Sc94  1  0.31029434  0.29133136  0.30432066  1
  Sc  Sc95  1  0.09952637  0.30594217  0.09406550  1
  Sc  Sc96  1  0.09859122  0.89060727  0.89909554  1
  Sc  Sc97  1  0.90691361  0.69689878  0.90881809  1
  Sc  Sc98  1  0.10564186  0.08866716  0.30177678  1
  Sc  Sc99  1  0.90193548  0.30875340  0.70769323  1
  Nb  Nb100  1  0.30080796  0.50804514  0.70214674  1
  Nb  Nb101  1  0.89965427  0.50166827  0.70399951  1
  Nb  Nb102  1  0.69740680  0.89804784  0.29697433  1
  Nb  Nb103  1  0.51152865  0.49698952  0.70234171  1
  Nb  Nb104  1  0.69389756  0.30429083  0.10030965  1
  Nb  Nb105  1  0.49424191  0.30704132  0.70061655  1
  Nb  Nb106  1  0.68805493  0.50258373  0.29707336  1
  Nb  Nb107  1  0.30165660  0.69853295  0.69978056  1
  Nb  Nb108  1  0.50533867  0.49283510  0.29436485  1
  Nb  Nb109  1  0.89622069  0.29614471  0.48783261  1
  Nb  Nb110  1  0.49843470  0.30325678  0.88999058  1
  Nb  Nb111  1  0.90087678  0.10451149  0.49740486  1
  Nb  Nb112  1  0.09797008  0.69399359  0.89811349  1
  Nb  Nb113  1  0.89434932  0.50654554  0.10245755  1
  Nb  Nb114  1  0.09779051  0.89771053  0.69668850  1
  Nb  Nb115  1  0.49441400  0.89815142  0.70157832  1
  Nb  Nb116  1  0.90180155  0.29686128  0.30497301  1
  Nb  Nb117  1  0.49924616  0.30251867  0.49960648  1
  Nb  Nb118  1  0.30131293  0.10235979  0.89454962  1
  Nb  Nb119  1  0.70380419  0.49942283  0.70519839  1
  Nb  Nb120  1  0.50799449  0.49383866  0.10598918  1
  Nb  Nb121  1  0.50043432  0.10859523  0.30313941  1
  Nb  Nb122  1  0.30175154  0.50186403  0.89585426  1
  Nb  Nb123  1  0.09525651  0.10512322  0.50206229  1
  Nb  Nb124  1  0.29910791  0.49775734  0.50790966  1
  Nb  Nb125  1  0.60300899  0.79928967  0.39292324  1
  Nb  Nb126  1  0.40121580  0.00329169  0.79981097  1
  Nb  Nb127  1  0.19912806  0.59612080  -0.00686879  1
  Nb  Nb128  1  -0.00198645  0.59199385  0.19486433  1
  Nb  Nb129  1  0.60057332  0.80357899  0.20759324  1
  Nb  Nb130  1  0.19626971  0.80220327  0.20093787  1
  Nb  Nb131  1  -0.00074042  0.20410384  0.20696772  1
  Nb  Nb132  1  0.79740038  0.80328079  -0.00431256  1
  Nb  Nb133  1  -0.00400566  0.19879186  0.59274759  1
  Nb  Nb134  1  0.59708136  0.80099912  0.79680494  1
  Nb  Nb135  1  0.20370216  0.19896393  -0.00278428  1
  Nb  Nb136  1  0.00114301  0.20152035  0.40142642  1
  Nb  Nb137  1  0.80963634  0.20146703  0.59657865  1
  Nb  Nb138  1  0.59407843  0.59086284  0.00586990  1
  Nb  Nb139  1  0.79206047  0.79899002  0.80615563  1
  Nb  Nb140  1  0.19636028  0.19818009  0.19620723  1
  Nb  Nb141  1  0.00092988  0.60156725  0.60738009  1
  Nb  Nb142  1  0.59432147  0.39989000  0.39526198  1
  Nb  Nb143  1  0.59757809  0.20579363  0.39958502  1
  Nb  Nb144  1  0.39880441  -0.00140158  0.60988648  1
  Nb  Nb145  1  0.19734854  0.79959557  0.60063389  1
  Nb  Nb146  1  0.39722449  0.80658663  0.79515413  1
  Nb  Nb147  1  0.00821519  0.79664537  0.60302616  1
  Nb  Nb148  1  0.21253654  0.40358179  0.40376955  1
  Nb  Nb149  1  0.00149324  0.59510656  0.79746958  1
  Pd  Pd150  1  0.41084676  0.79468008  0.39342659  1
  Pd  Pd151  1  0.20257478  0.00167790  0.40280905  1
  Pd  Pd152  1  0.80318002  0.20472033  0.00537414  1
  Pd  Pd153  1  0.59878105  0.00234381  0.40449488  1
  Pd  Pd154  1  -0.01278419  0.40260048  -0.00288701  1
  Pd  Pd155  1  0.00660744  -0.00135169  0.80295618  1
  Pd  Pd156  1  0.79891883  0.80277459  0.39713318  1
  Pd  Pd157  1  -0.00747148  -0.00282427  0.59759571  1
  Pd  Pd158  1  0.00680477  0.58789779  -0.00048595  1
  Pd  Pd159  1  0.20286032  0.78938367  0.00320485  1
  Pd  Pd160  1  0.19052123  0.00906049  -0.00515909  1
  Pd  Pd161  1  0.60846403  0.21103474  0.59431441  1
  Pd  Pd162  1  0.40159550  0.59522302  0.40198158  1
  Pd  Pd163  1  0.19319035  0.60778643  0.60475112  1
  Pd  Pd164  1  0.41051659  0.01385578  -0.00477220  1
  Pd  Pd165  1  0.20407672  0.80514076  0.80015559  1
  Pd  Pd166  1  0.19427586  0.19824864  0.80600205  1
  Pd  Pd167  1  0.80965082  0.00404073  0.60136174  1
  Pd  Pd168  1  0.59592356  0.60842665  0.19207597  1
  Pd  Pd169  1  0.80864931  0.59642486  0.59660547  1
  Pd  Pd170  1  0.80141026  0.39543227  -0.00386030  1
  Pd  Pd171  1  0.80609317  0.60542836  0.80750409  1
  Pd  Pd172  1  0.60424970  0.21104429  0.80174969  1
  Pd  Pd173  1  0.80738741  0.58914422  0.39559791  1
  Pd  Pd174  1  0.59257431  0.01042458  0.00624128  1
  Pd  Pd175  1  0.40118233  0.19064725  0.60425933  1
  Pd  Pd176  1  0.40491110  0.40124336  0.00069705  1
  Pd  Pd177  1  -0.00701933  0.39672975  0.59428240  1
  Pd  Pd178  1  0.61035826  0.79613982  0.01095660  1
  Pd  Pd179  1  0.19841255  0.80492122  0.40091728  1
  Pd  Pd180  1  0.18976315  0.61159548  0.18473671  1
  Pd  Pd181  1  0.59280762  0.59934487  0.40319448  1
  Pd  Pd182  1  0.39917466  0.39581224  0.19740306  1
  Pd  Pd183  1  0.78884671  0.40747318  0.39246505  1
  Pd  Pd184  1  0.20540737  0.39913080  0.80347391  1
  Pd  Pd185  1  0.60290668  0.39811844  0.59842362  1
  Pd  Pd186  1  0.39632111  0.19584023  0.00446194  1
  Pd  Pd187  1  0.40216412  0.59645329  0.19185609  1
  Pd  Pd188  1  0.60872256  0.80230291  0.60534095  1
  Pd  Pd189  1  0.59268286  -0.00107356  0.19367446  1
  Pd  Pd190  1  0.79806550  -0.00327947  0.39673391  1
  Pd  Pd191  1  0.01161897  0.39672144  0.40635838  1
  Pd  Pd192  1  0.40778532  0.00885819  0.19592078  1
  Pd  Pd193  1  0.39937193  0.59254144  0.00780832  1
  Pd  Pd194  1  0.59223752  -0.00131864  0.60226766  1
  Pd  Pd195  1  0.59112001  -0.00324770  0.80082099  1
  Pd  Pd196  1  0.19403277  0.20709024  0.39327545  1
  Pd  Pd197  1  0.80627490  0.39619665  0.60388978  1
  Pd  Pd198  1  0.80102951  0.19692698  0.19085174  1
  Pd  Pd199  1  -0.00595413  0.00345593  0.39454798  1
  Rh  Rh200  1  0.00318894  0.20313353  0.01010905  1
  Rh  Rh201  1  0.19151675  0.58704724  0.80416051  1
  Rh  Rh202  1  -0.00646799  0.80215424  -0.00298872  1
  Rh  Rh203  1  0.79770125  0.40365937  0.20591768  1
  Rh  Rh204  1  0.79806617  0.00241174  0.19685287  1
  Rh  Rh205  1  0.40535735  0.19550596  0.79230329  1
  Rh  Rh206  1  -0.00626019  0.40300732  0.19923343  1
  Rh  Rh207  1  0.59878546  0.59283031  0.60143361  1
  Rh  Rh208  1  -0.00632239  0.40624398  0.80660422  1
  Rh  Rh209  1  0.40903382  0.19382995  0.40881036  1
  Rh  Rh210  1  0.19597323  0.00146374  0.80813612  1
  Rh  Rh211  1  0.79276295  0.80575337  0.18953280  1
  Rh  Rh212  1  0.39891159  0.40784743  0.79137726  1
  Rh  Rh213  1  0.38911656  0.79703925  -0.01240511  1
  Rh  Rh214  1  0.21647878  0.38869706  0.21086276  1
  Rh  Rh215  1  0.21256145  0.59154381  0.40311989  1
  Rh  Rh216  1  0.79998963  0.20464296  0.79531789  1
  Rh  Rh217  1  0.80345278  0.80040392  0.60584798  1
  Rh  Rh218  1  0.80121512  -0.00097030  -0.00018276  1
  Rh  Rh219  1  -0.00685921  0.01229190  0.20680934  1
  Rh  Rh220  1  0.60886747  0.20569336  0.20722003  1
  Rh  Rh221  1  0.39958716  0.40687392  0.61202422  1
  Rh  Rh222  1  0.21053450  0.39529864  -0.01105267  1
  Rh  Rh223  1  0.00213813  -0.00410992  -0.00695874  1
  Rh  Rh224  1  0.40281913  0.59002021  0.60626480  1
  Rh  Rh225  1  -0.00732418  0.59598619  0.39673321  1
  Rh  Rh226  1  0.60386746  0.20836432  -0.00582563  1
  Rh  Rh227  1  -0.00715748  0.80342090  0.40493824  1
  Rh  Rh228  1  0.79036067  0.60109252  -0.00276568  1
  Rh  Rh229  1  0.40134847  0.40629225  0.39694223  1
  Rh  Rh230  1  0.60655615  0.39037492  0.20696311  1
  Rh  Rh231  1  0.80809153  0.58883945  0.21149652  1
  Rh  Rh232  1  0.59507402  0.60208289  0.80021732  1
  Rh  Rh233  1  0.19513535  0.20453167  0.59970749  1
  Rh  Rh234  1  0.39967211  0.80149930  0.20807000  1
  Rh  Rh235  1  -0.00380369  0.79248807  0.79721222  1
  Rh  Rh236  1  0.79913026  -0.00297194  0.80225384  1
  Rh  Rh237  1  0.79256616  0.19783507  0.40412054  1
  Rh  Rh238  1  0.79969332  0.39967372  0.80100239  1
  Rh  Rh239  1  0.00408033  0.78553869  0.19817262  1
  Rh  Rh240  1  0.40513460  0.59693429  0.78998318  1
  Rh  Rh241  1  0.00374460  0.19708357  0.79188488  1
  Rh  Rh242  1  0.19916660  -0.00098704  0.19998271  1
  Rh  Rh243  1  0.38952828  0.19359757  0.19479850  1
  Rh  Rh244  1  0.20521995  -0.00611808  0.58840340  1
  Rh  Rh245  1  0.38218653  0.81139454  0.61201627  1
  Rh  Rh246  1  0.59979182  0.39463565  0.79730991  1
  Rh  Rh247  1  0.40181961  0.00965137  0.41254559  1
  Rh  Rh248  1  0.59664816  0.40100055  -0.00706855  1
  Rh  Rh249  1  0.21017999  0.39713296  0.59925955  1
