# generated using pymatgen
data_ZrScNbPdRh
_symmetry_space_group_name_H-M   'P 1'
_cell_length_a   16.56156676
_cell_length_b   16.56150355
_cell_length_c   16.56405452
_cell_angle_alpha   90.02200789
_cell_angle_beta   90.01525686
_cell_angle_gamma   89.98316409
_symmetry_Int_Tables_number   1
_chemical_formula_structural   ZrScNbPdRh
_chemical_formula_sum   'Zr50 Sc50 Nb50 Pd50 Rh50'
_cell_volume   4543.26183620
_cell_formula_units_Z   50
loop_
 _symmetry_equiv_pos_site_id
 _symmetry_equiv_pos_as_xyz
  1  'x, y, z'
loop_
 _atom_site_type_symbol
 _atom_site_label
 _atom_site_symmetry_multiplicity
 _atom_site_fract_x
 _atom_site_fract_y
 _atom_site_fract_z
 _atom_site_occupancy
  Zr  Zr0  1  0.30797794  0.49576102  0.09824219  1
  Zr  Zr1  1  0.89830411  0.69620643  0.30030703  1
  Zr  Zr2  1  0.10576410  0.90232973  0.09094169  1
  Zr  Zr3  1  0.70176953  0.50214642  0.50417960  1
  Zr  Zr4  1  0.29453786  0.89919107  0.69389676  1
  Zr  Zr5  1  0.89889971  0.90585648  0.30762155  1
  Zr  Zr6  1  0.09645994  0.71107354  0.90042983  1
  Zr  Zr7  1  0.49245925  0.50078356  0.50527623  1
  Zr  Zr8  1  0.10482414  0.67976481  0.51075404  1
  Zr  Zr9  1  0.88887430  0.50020079  0.09857033  1
  Zr  Zr10  1  0.70653699  0.49987804  0.69878089  1
  Zr  Zr11  1  0.69991222  0.30097817  0.49143691  1
  Zr  Zr12  1  0.69851470  0.70332518  0.50313207  1
  Zr  Zr13  1  0.09828198  0.10005280  0.29744962  1
  Zr  Zr14  1  0.69570995  0.50457066  0.90232666  1
  Zr  Zr15  1  0.90090287  0.69878575  0.50300495  1
  Zr  Zr16  1  0.28765984  0.30428641  0.10159993  1
  Zr  Zr17  1  0.70280436  0.88984188  0.89853968  1
  Zr  Zr18  1  0.50014036  0.29458188  0.69416365  1
  Zr  Zr19  1  0.90157149  0.30440605  0.89744659  1
  Zr  Zr20  1  0.69759760  0.29730765  0.89515169  1
  Zr  Zr21  1  0.89527197  0.50405070  0.90659827  1
  Zr  Zr22  1  0.08976490  0.10111758  0.10834094  1
  Zr  Zr23  1  0.10542888  0.90472063  0.29103385  1
  Zr  Zr24  1  0.90102087  0.90160004  0.89215174  1
  Zr  Zr25  1  0.49775611  0.09789438  0.90702118  1
  Zr  Zr26  1  0.50866938  0.90056200  0.90387238  1
  Zr  Zr27  1  0.50816159  0.30278192  0.09721417  1
  Zr  Zr28  1  0.09941432  0.30570382  0.70760296  1
  Zr  Zr29  1  0.50059411  0.90538831  0.70057671  1
  Zr  Zr30  1  0.09577597  0.09377995  0.69665849  1
  Zr  Zr31  1  0.30169147  0.11121534  0.90037241  1
  Zr  Zr32  1  0.69893647  0.10922707  0.10211366  1
  Zr  Zr33  1  0.29599864  0.09853092  0.29939758  1
  Zr  Zr34  1  0.29429429  0.70570709  0.69095108  1
  Zr  Zr35  1  0.30915987  0.09608203  0.69637029  1
  Zr  Zr36  1  0.70142810  0.10552526  0.89299073  1
  Zr  Zr37  1  0.31145141  0.29796128  0.50533620  1
  Zr  Zr38  1  0.30357572  0.09632876  0.49706257  1
  Zr  Zr39  1  0.50822562  0.50350443  0.10094068  1
  Zr  Zr40  1  0.49981571  0.29737972  0.90053065  1
  Zr  Zr41  1  0.50370782  0.29699138  0.29972549  1
  Zr  Zr42  1  0.89512443  0.29955760  0.70165954  1
  Zr  Zr43  1  0.49660368  0.70920686  0.30206250  1
  Zr  Zr44  1  0.69583280  0.90666916  0.09671386  1
  Zr  Zr45  1  0.29943867  0.70585859  0.10379301  1
  Zr  Zr46  1  0.30239957  0.29633902  0.70866617  1
  Zr  Zr47  1  0.49334258  0.49646012  0.90834935  1
  Zr  Zr48  1  0.89941057  0.69727686  0.09182855  1
  Zr  Zr49  1  0.10867264  0.29641010  0.90409596  1
  Sc  Sc50  1  0.30005942  0.50569356  0.49504950  1
  Sc  Sc51  1  0.49113971  0.89798109  0.49915690  1
  Sc  Sc52  1  0.70228346  0.90030296  0.49018743  1
  Sc  Sc53  1  0.69745786  0.91144424  0.70662032  1
  Sc  Sc54  1  0.30307400  0.90344360  0.29176685  1
  Sc  Sc55  1  0.69712556  0.49288777  0.29094286  1
  Sc  Sc56  1  0.90365224  0.29723048  0.30281396  1
  Sc  Sc57  1  0.49952191  0.50251911  0.70339690  1
  Sc  Sc58  1  0.89378653  0.29753025  0.09817825  1
  Sc  Sc59  1  0.70151446  0.90492339  0.30301283  1
  Sc  Sc60  1  0.50021377  0.91780513  0.09976712  1
  Sc  Sc61  1  0.49072124  0.10116784  0.29214885  1
  Sc  Sc62  1  0.30175506  0.70089436  0.90166106  1
  Sc  Sc63  1  0.30510200  0.09643083  0.10170592  1
  Sc  Sc64  1  0.90422595  0.29528257  0.49237463  1
  Sc  Sc65  1  0.10180704  0.29367727  0.30328985  1
  Sc  Sc66  1  0.89648379  0.49606715  0.29778521  1
  Sc  Sc67  1  0.08967647  0.48777323  0.89572180  1
  Sc  Sc68  1  0.29981140  0.29677093  0.29848512  1
  Sc  Sc69  1  0.90233020  0.49852817  0.50104543  1
  Sc  Sc70  1  0.90140276  0.09597536  0.49350199  1
  Sc  Sc71  1  0.70321929  0.09924448  0.29561591  1
  Sc  Sc72  1  0.70103583  0.69307830  0.09318436  1
  Sc  Sc73  1  0.90596191  0.69626310  0.70381683  1
  Sc  Sc74  1  0.69720648  0.71303571  0.30805863  1
  Sc  Sc75  1  0.69362898  0.09565874  0.50177821  1
  Sc  Sc76  1  0.30041069  0.90063925  0.50659257  1
  Sc  Sc77  1  0.10357082  0.49194598  0.31906022  1
  Sc  Sc78  1  0.89913338  0.50427929  0.70620451  1
  Sc  Sc79  1  0.89315138  0.70410688  0.90161589  1
  Sc  Sc80  1  0.51141829  0.69691663  0.89871195  1
  Sc  Sc81  1  0.30557969  0.70588594  0.29524017  1
  Sc  Sc82  1  0.09607610  0.09979408  0.49449161  1
  Sc  Sc83  1  0.09463476  0.09572529  0.91023533  1
  Sc  Sc84  1  0.90736204  0.90249018  0.09549467  1
  Sc  Sc85  1  0.10232266  0.90608675  0.50870645  1
  Sc  Sc86  1  0.09592804  0.88924566  0.70093565  1
  Sc  Sc87  1  0.29830568  0.90753810  0.91085904  1
  Sc  Sc88  1  0.49653821  0.49936899  0.29469220  1
  Sc  Sc89  1  0.90173528  0.09992300  0.89783974  1
  Sc  Sc90  1  0.49784328  0.29444416  0.49248339  1
  Sc  Sc91  1  0.70054520  0.29859718  0.29394555  1
  Sc  Sc92  1  0.90646173  0.09966586  0.29750256  1
  Sc  Sc93  1  0.10496965  0.71089893  0.09288777  1
  Sc  Sc94  1  0.49621930  0.69703821  0.69704225  1
  Sc  Sc95  1  0.50401539  0.10242938  0.10097795  1
  Sc  Sc96  1  0.31033580  0.49949324  0.69836666  1
  Sc  Sc97  1  0.89413105  0.08788857  0.70306334  1
  Sc  Sc98  1  0.89910372  0.90543350  0.49851746  1
  Sc  Sc99  1  0.70250836  0.69473952  0.70806095  1
  Nb  Nb100  1  0.30209183  0.30390235  0.90011285  1
  Nb  Nb101  1  0.49580531  0.70108342  0.10820307  1
  Nb  Nb102  1  0.09782184  0.30243783  0.50188301  1
  Nb  Nb103  1  0.51202663  0.09452540  0.68839201  1
  Nb  Nb104  1  0.30683523  0.70371133  0.50419823  1
  Nb  Nb105  1  0.29437422  0.49471867  0.29232425  1
  Nb  Nb106  1  0.10213871  0.49386582  0.50610826  1
  Nb  Nb107  1  0.69348673  0.10775408  0.69871534  1
  Nb  Nb108  1  0.09836983  0.90318948  0.90151487  1
  Nb  Nb109  1  0.89452543  0.89879544  0.70309949  1
  Nb  Nb110  1  0.70127586  0.48791286  0.09998776  1
  Nb  Nb111  1  0.69893408  0.30736039  0.09915162  1
  Nb  Nb112  1  0.09998657  0.30132514  0.10630534  1
  Nb  Nb113  1  0.10499553  0.49459785  0.10050410  1
  Nb  Nb114  1  0.49443783  0.70271907  0.49802585  1
  Nb  Nb115  1  0.10500563  0.69102753  0.69921341  1
  Nb  Nb116  1  0.29775978  0.89476185  0.10302297  1
  Nb  Nb117  1  0.30291080  0.49915159  0.90152384  1
  Nb  Nb118  1  0.49443503  0.09556329  0.50187179  1
  Nb  Nb119  1  0.70458809  0.70736388  0.89806257  1
  Nb  Nb120  1  0.10042432  0.50775565  0.69414593  1
  Nb  Nb121  1  0.90165031  0.09860686  0.09872296  1
  Nb  Nb122  1  0.50135413  0.90229696  0.29852592  1
  Nb  Nb123  1  0.10097819  0.69588883  0.30156230  1
  Nb  Nb124  1  0.69749115  0.29398715  0.70269497  1
  Nb  Nb125  1  0.79271186  0.19964297  0.60396284  1
  Nb  Nb126  1  0.79977945  0.00433365  0.00011309  1
  Nb  Nb127  1  0.40531177  0.80171379  0.00538641  1
  Nb  Nb128  1  0.19606856  0.59379755  0.19871190  1
  Nb  Nb129  1  0.60492942  0.39558125  0.60131762  1
  Nb  Nb130  1  0.59811377  0.80372610  0.19713563  1
  Nb  Nb131  1  0.19634742  -0.00245396  0.80292821  1
  Nb  Nb132  1  0.19716687  0.20478521  0.60041542  1
  Nb  Nb133  1  0.19638834  0.79234145  0.40314283  1
  Nb  Nb134  1  0.59644586  0.60419209  0.40389967  1
  Nb  Nb135  1  0.00993001  0.59667579  0.19711846  1
  Nb  Nb136  1  0.19700562  0.39850588  0.59960852  1
  Nb  Nb137  1  0.79932828  0.80451676  0.60612441  1
  Nb  Nb138  1  0.00702713  0.40048456  0.60059294  1
  Nb  Nb139  1  0.00670034  0.40347733  0.19496438  1
  Nb  Nb140  1  0.79205888  0.60075560  0.40191841  1
  Nb  Nb141  1  0.40139614  0.80549872  0.80413947  1
  Nb  Nb142  1  0.00165879  0.20101544  0.79884125  1
  Nb  Nb143  1  0.60157289  0.79997047  0.59786003  1
  Nb  Nb144  1  0.19724247  0.59844763  0.80075942  1
  Nb  Nb145  1  0.58881833  0.00061698  0.39886699  1
  Nb  Nb146  1  -0.00005388  0.79518211  0.20462622  1
  Nb  Nb147  1  0.80122518  0.80120700  0.19700737  1
  Nb  Nb148  1  0.20037357  0.59270926  -0.00237965  1
  Nb  Nb149  1  0.01044816  0.79505710  0.39852309  1
  Pd  Pd150  1  0.59372383  0.79344862  0.01053549  1
  Pd  Pd151  1  0.39850706  0.59796151  0.39220781  1
  Pd  Pd152  1  0.80300367  0.39154774  0.59596138  1
  Pd  Pd153  1  0.39392941  -0.00489279  0.80549540  1
  Pd  Pd154  1  0.20641454  0.80260650  0.80710978  1
  Pd  Pd155  1  0.20036451  0.20371274  0.40728138  1
  Pd  Pd156  1  0.20111824  -0.01043515  0.40265438  1
  Pd  Pd157  1  0.39634486  0.20699624  0.00977168  1
  Pd  Pd158  1  0.39596039  0.40203165  0.39439408  1
  Pd  Pd159  1  0.01032046  0.59949333  0.00266650  1
  Pd  Pd160  1  0.39423705  0.59705920  0.20620011  1
  Pd  Pd161  1  0.60180885  0.00511510  0.80494448  1
  Pd  Pd162  1  0.39712276  0.20501367  0.19442448  1
  Pd  Pd163  1  -0.00280045  0.79842726  0.79643656  1
  Pd  Pd164  1  0.80124180  0.19879415  -0.00049781  1
  Pd  Pd165  1  0.39946316  0.60932573  -0.00001430  1
  Pd  Pd166  1  0.79789400  0.40415030  0.80441505  1
  Pd  Pd167  1  -0.00128470  0.80004302  0.59720294  1
  Pd  Pd168  1  0.40456689  0.39375690  0.19858428  1
  Pd  Pd169  1  0.19303056  0.18792367  0.79649273  1
  Pd  Pd170  1  0.60736921  0.60875926  0.20831301  1
  Pd  Pd171  1  0.21256345  0.60470248  0.39412381  1
  Pd  Pd172  1  0.20178842  0.40436433  -0.00617434  1
  Pd  Pd173  1  0.60250552  0.60336419  0.00216856  1
  Pd  Pd174  1  0.20334061  0.00864021  0.00178161  1
  Pd  Pd175  1  0.60202760  0.20470857  0.58915762  1
  Pd  Pd176  1  0.38926716  0.80884066  0.39964898  1
  Pd  Pd177  1  0.79066512  0.60524872  0.20558191  1
  Pd  Pd178  1  -0.00551774  0.59394424  0.39744578  1
  Pd  Pd179  1  0.59649548  0.40991092  0.40208636  1
  Pd  Pd180  1  0.59499966  0.60126458  0.59974285  1
  Pd  Pd181  1  0.79952642  0.19223046  0.40292773  1
  Pd  Pd182  1  -0.00177471  0.20511091  -0.00215289  1
  Pd  Pd183  1  0.19925283  0.19295053  0.00935268  1
  Pd  Pd184  1  -0.00545309  0.20178396  0.60343286  1
  Pd  Pd185  1  0.41145726  0.19380241  0.79611503  1
  Pd  Pd186  1  0.80683296  -0.00372455  0.19373739  1
  Pd  Pd187  1  0.39415429  0.60921847  0.80040674  1
  Pd  Pd188  1  0.00386502  0.60153869  0.80621592  1
  Pd  Pd189  1  0.59754863  0.18673217  0.39377122  1
  Pd  Pd190  1  0.80261487  0.40451859  0.39509293  1
  Pd  Pd191  1  0.40381613  0.39950510  0.79979127  1
  Pd  Pd192  1  -0.00519201  -0.00429464  0.60036790  1
  Pd  Pd193  1  0.80550433  0.20476659  0.20223199  1
  Pd  Pd194  1  0.20751217  0.39192489  0.40591890  1
  Pd  Pd195  1  -0.00216216  0.39522355  0.00813307  1
  Pd  Pd196  1  0.59604826  0.40338129  0.79498642  1
  Pd  Pd197  1  0.20550173  0.41203273  0.79721696  1
  Pd  Pd198  1  0.60037274  0.59987946  0.79985010  1
  Pd  Pd199  1  0.79404020  0.00023923  0.59781998  1
  Rh  Rh200  1  0.20433377  0.00498283  0.19090032  1
  Rh  Rh201  1  0.80790757  0.19367529  0.79141052  1
  Rh  Rh202  1  0.59909901  -0.00843446  0.58978825  1
  Rh  Rh203  1  0.79488172  0.00276098  0.80411487  1
  Rh  Rh204  1  0.80707212  0.60793308  0.60057329  1
  Rh  Rh205  1  0.59759575  0.00115044  0.21101156  1
  Rh  Rh206  1  0.60147507  0.20291141  0.20135878  1
  Rh  Rh207  1  0.19958912  0.19554276  0.19811814  1
  Rh  Rh208  1  0.00793928  -0.00031968  0.79971183  1
  Rh  Rh209  1  0.80651080  0.39296688  0.19984663  1
  Rh  Rh210  1  0.40114101  0.19568872  0.39599428  1
  Rh  Rh211  1  0.39829783  0.39202102  0.00131900  1
  Rh  Rh212  1  0.59923477  0.39795483  0.20063774  1
  Rh  Rh213  1  0.00298234  0.19772734  0.39720826  1
  Rh  Rh214  1  -0.00483433  0.20870269  0.19840596  1
  Rh  Rh215  1  -0.00656613  0.39994713  0.79431540  1
  Rh  Rh216  1  0.40252660  -0.00246169  0.59694972  1
  Rh  Rh217  1  0.39682159  0.60258934  0.59959979  1
  Rh  Rh218  1  -0.00475691  0.80615266  -0.00014713  1
  Rh  Rh219  1  0.39640195  -0.00238861  0.00271791  1
  Rh  Rh220  1  0.79285034  0.39622282  -0.00450558  1
  Rh  Rh221  1  0.58947296  0.80575804  0.40124742  1
  Rh  Rh222  1  0.78937941  0.59995095  -0.00433024  1
  Rh  Rh223  1  0.00640766  -0.00439821  0.39951808  1
  Rh  Rh224  1  0.19064232  0.79501496  0.58824115  1
  Rh  Rh225  1  0.79949298  0.79713141  0.79075878  1
  Rh  Rh226  1  0.39790982  -0.00081705  0.19848411  1
  Rh  Rh227  1  -0.00681969  0.59120867  0.60336795  1
  Rh  Rh228  1  0.20910856  0.79852980  -0.00679513  1
  Rh  Rh229  1  -0.00306784  -0.00605153  0.19912267  1
  Rh  Rh230  1  0.60285151  0.20119290  0.00049239  1
  Rh  Rh231  1  0.60430420  0.39974619  -0.00334866  1
  Rh  Rh232  1  0.59010923  0.19406079  0.79981868  1
  Rh  Rh233  1  0.80185867  0.80788915  0.00546001  1
  Rh  Rh234  1  0.21328292  0.59031098  0.60448777  1
  Rh  Rh235  1  0.40152244  0.19417636  0.60077148  1
  Rh  Rh236  1  0.61074369  0.01172711  -0.00462157  1
  Rh  Rh237  1  0.40814820  0.80146857  0.60723303  1
  Rh  Rh238  1  0.81453949  0.79799410  0.40278901  1
  Rh  Rh239  1  0.80103282  0.60319206  0.80674767  1
  Rh  Rh240  1  -0.00799633  -0.00128403  -0.00195629  1
  Rh  Rh241  1  0.59559296  0.79461450  0.78936701  1
  Rh  Rh242  1  0.41098966  0.81337224  0.19100615  1
  Rh  Rh243  1  0.19063099  0.40191991  0.20973295  1
  Rh  Rh244  1  -0.00190178  0.39812279  0.40153458  1
  Rh  Rh245  1  0.19302176  0.79409533  0.20700520  1
  Rh  Rh246  1  0.79078606  0.00825261  0.40162699  1
  Rh  Rh247  1  0.40291322  0.40079818  0.60085263  1
  Rh  Rh248  1  0.19989972  0.00790978  0.60482590  1
  Rh  Rh249  1  0.40203640  -0.00128658  0.39653697  1
