# generated using pymatgen
data_ZrScNbPdRh
_symmetry_space_group_name_H-M   'P 1'
_cell_length_a   16.55312459
_cell_length_b   16.55489217
_cell_length_c   16.55000441
_cell_angle_alpha   89.98250847
_cell_angle_beta   90.01263398
_cell_angle_gamma   89.98396642
_symmetry_Int_Tables_number   1
_chemical_formula_structural   ZrScNbPdRh
_chemical_formula_sum   'Zr50 Sc50 Nb50 Pd50 Rh50'
_cell_volume   4535.28314583
_cell_formula_units_Z   50
loop_
 _symmetry_equiv_pos_site_id
 _symmetry_equiv_pos_as_xyz
  1  'x, y, z'
loop_
 _atom_site_type_symbol
 _atom_site_label
 _atom_site_symmetry_multiplicity
 _atom_site_fract_x
 _atom_site_fract_y
 _atom_site_fract_z
 _atom_site_occupancy
  Zr  Zr0  1  0.29853342  0.89587194  0.10561167  1
  Zr  Zr1  1  0.90291592  0.69250145  0.09858001  1
  Zr  Zr2  1  0.10111785  0.50452548  0.70077717  1
  Zr  Zr3  1  0.50607624  0.50358234  0.09618478  1
  Zr  Zr4  1  0.89949589  0.50801682  0.68901650  1
  Zr  Zr5  1  0.29733667  0.10320643  0.29200078  1
  Zr  Zr6  1  0.90046309  0.49858796  0.90417028  1
  Zr  Zr7  1  0.50108479  0.50510694  0.49706731  1
  Zr  Zr8  1  0.89487605  0.89549443  0.89249596  1
  Zr  Zr9  1  0.09339582  0.09651100  0.69828333  1
  Zr  Zr10  1  0.89744487  0.90043504  0.09151336  1
  Zr  Zr11  1  0.69280779  0.90006126  0.09428616  1
  Zr  Zr12  1  0.71032191  0.90005357  0.49780334  1
  Zr  Zr13  1  0.70256341  0.49771212  0.69338289  1
  Zr  Zr14  1  0.49740474  0.90929089  0.90644013  1
  Zr  Zr15  1  0.69257958  0.09989062  0.89479400  1
  Zr  Zr16  1  0.90140080  0.10199360  0.09950886  1
  Zr  Zr17  1  0.50220732  0.70253803  0.31123811  1
  Zr  Zr18  1  0.68970861  0.50445082  0.89926619  1
  Zr  Zr19  1  0.10432778  0.09803547  0.89725572  1
  Zr  Zr20  1  0.30273315  0.90458957  0.69804343  1
  Zr  Zr21  1  0.90189015  0.30156777  0.89849785  1
  Zr  Zr22  1  0.69419801  0.69600294  0.09770150  1
  Zr  Zr23  1  0.10420255  0.48871064  0.89660303  1
  Zr  Zr24  1  0.09799519  0.49324856  0.50512961  1
  Zr  Zr25  1  0.49935034  0.29790206  0.90089879  1
  Zr  Zr26  1  0.29283075  0.50272287  0.10417053  1
  Zr  Zr27  1  0.50260763  0.70246361  0.10445978  1
  Zr  Zr28  1  0.30201669  0.69876202  0.09016148  1
  Zr  Zr29  1  0.49308602  0.09651140  0.29281940  1
  Zr  Zr30  1  0.70182577  0.90753841  0.89945889  1
  Zr  Zr31  1  0.89471270  0.89710464  0.30905718  1
  Zr  Zr32  1  0.89613366  0.49732722  0.10343141  1
  Zr  Zr33  1  0.30128707  0.10305385  0.50348245  1
  Zr  Zr34  1  0.09983107  0.30031739  0.31080230  1
  Zr  Zr35  1  0.90032775  0.08965435  0.49983682  1
  Zr  Zr36  1  0.29611748  0.30215873  0.30389498  1
  Zr  Zr37  1  0.49408487  0.49810585  0.89759442  1
  Zr  Zr38  1  0.31264563  0.90565429  0.30075854  1
  Zr  Zr39  1  0.49257161  0.49323765  0.70665113  1
  Zr  Zr40  1  0.10852009  0.30696167  0.09033595  1
  Zr  Zr41  1  0.69466092  0.89832117  0.29679478  1
  Zr  Zr42  1  0.09574966  0.89246272  0.50203985  1
  Zr  Zr43  1  0.70464098  0.70194610  0.89729139  1
  Zr  Zr44  1  0.70059291  0.30055117  0.30529792  1
  Zr  Zr45  1  0.70565816  0.30025071  0.10770361  1
  Zr  Zr46  1  0.90457315  0.70154167  0.89340166  1
  Zr  Zr47  1  0.30269610  0.70213612  0.90243836  1
  Zr  Zr48  1  0.49450903  0.90419885  0.69535007  1
  Zr  Zr49  1  0.10314922  0.30808069  0.70645269  1
  Sc  Sc50  1  0.50282263  0.09946027  0.51583412  1
  Sc  Sc51  1  0.70205579  0.09674999  0.09499396  1
  Sc  Sc52  1  0.10355486  0.70204469  0.49786573  1
  Sc  Sc53  1  0.29587061  0.48744704  0.70199401  1
  Sc  Sc54  1  0.69414966  0.69897502  0.30447846  1
  Sc  Sc55  1  0.49220771  0.70264171  0.70512294  1
  Sc  Sc56  1  0.90281456  0.69207326  0.30573977  1
  Sc  Sc57  1  0.49114706  0.89198225  0.49595529  1
  Sc  Sc58  1  0.70767911  0.50555251  0.50272528  1
  Sc  Sc59  1  0.29574139  0.49936781  0.50013760  1
  Sc  Sc60  1  0.11352790  0.89330551  0.29668788  1
  Sc  Sc61  1  0.70286867  0.50788566  0.09722692  1
  Sc  Sc62  1  0.90747554  0.31035243  0.49673682  1
  Sc  Sc63  1  0.09994239  0.90395860  0.69543387  1
  Sc  Sc64  1  0.10210927  0.69485338  0.89683079  1
  Sc  Sc65  1  0.29895401  0.30205146  0.90596987  1
  Sc  Sc66  1  0.89955478  0.50523344  0.30395206  1
  Sc  Sc67  1  0.69949541  0.10006373  0.29585490  1
  Sc  Sc68  1  0.09735213  0.69694208  0.69617332  1
  Sc  Sc69  1  0.49546075  0.29550181  0.09725772  1
  Sc  Sc70  1  0.89989692  0.29896823  0.70015347  1
  Sc  Sc71  1  0.69397605  0.09272326  0.50248244  1
  Sc  Sc72  1  0.70995055  0.49942809  0.30461572  1
  Sc  Sc73  1  0.30376698  0.70503718  0.49865118  1
  Sc  Sc74  1  0.30024045  0.29383285  0.10268427  1
  Sc  Sc75  1  0.89254021  0.09775779  0.88829971  1
  Sc  Sc76  1  0.10993286  0.11019576  0.11104211  1
  Sc  Sc77  1  0.90509634  0.10549854  0.30066229  1
  Sc  Sc78  1  0.30284534  0.70389803  0.69772738  1
  Sc  Sc79  1  0.09838285  0.89563759  0.89848641  1
  Sc  Sc80  1  0.29356288  0.69660015  0.30585344  1
  Sc  Sc81  1  0.89926425  0.30602298  0.29999777  1
  Sc  Sc82  1  0.50799953  0.29464667  0.29716311  1
  Sc  Sc83  1  0.31138686  0.09621869  0.90677947  1
  Sc  Sc84  1  0.30127601  0.89514684  0.50767369  1
  Sc  Sc85  1  0.48725655  0.29356913  0.69994871  1
  Sc  Sc86  1  0.71225327  0.69093250  0.69896988  1
  Sc  Sc87  1  0.48974555  0.69561074  0.90027578  1
  Sc  Sc88  1  0.69783174  0.29168451  0.70427041  1
  Sc  Sc89  1  0.09276629  0.10694361  0.50051944  1
  Sc  Sc90  1  0.30547758  0.89811493  0.90398004  1
  Sc  Sc91  1  0.69794758  0.30726403  0.50019914  1
  Sc  Sc92  1  0.68576107  0.09564977  0.70010579  1
  Sc  Sc93  1  0.11311733  0.69691690  0.09790524  1
  Sc  Sc94  1  0.10990681  0.51185936  0.29998964  1
  Sc  Sc95  1  0.89692610  0.30409454  0.09734552  1
  Sc  Sc96  1  0.29814741  0.30935717  0.50568973  1
  Sc  Sc97  1  0.69648657  0.28901753  0.89786277  1
  Sc  Sc98  1  0.89943058  0.70703010  0.49931915  1
  Sc  Sc99  1  0.10085321  0.11371625  0.30323606  1
  Nb  Nb100  1  0.89984713  0.90152482  0.49899067  1
  Nb  Nb101  1  0.49900473  0.50266804  0.29765729  1
  Nb  Nb102  1  0.50026623  0.10015674  0.90557913  1
  Nb  Nb103  1  0.10105259  0.29746658  0.90095773  1
  Nb  Nb104  1  0.48595249  0.09777013  0.09105898  1
  Nb  Nb105  1  0.90224006  0.10113866  0.69317129  1
  Nb  Nb106  1  0.89127951  0.49894032  0.50122297  1
  Nb  Nb107  1  0.30326906  0.10229252  0.69875872  1
  Nb  Nb108  1  0.90093412  0.70205771  0.70773108  1
  Nb  Nb109  1  0.30061735  0.10062276  0.10355133  1
  Nb  Nb110  1  0.10035147  0.50342993  0.09980242  1
  Nb  Nb111  1  0.69622382  0.89536896  0.69807488  1
  Nb  Nb112  1  0.10276623  0.89932824  0.10095668  1
  Nb  Nb113  1  0.30081085  0.29749886  0.69903941  1
  Nb  Nb114  1  0.89405612  0.89867492  0.69019655  1
  Nb  Nb115  1  0.50241907  0.89685166  0.29643462  1
  Nb  Nb116  1  0.49992145  0.89839276  0.10835185  1
  Nb  Nb117  1  0.50246032  0.69742870  0.49954723  1
  Nb  Nb118  1  0.30617952  0.50949857  0.89826004  1
  Nb  Nb119  1  0.30719035  0.50093070  0.30187018  1
  Nb  Nb120  1  0.10722766  0.29932726  0.49436061  1
  Nb  Nb121  1  0.49828528  0.30289349  0.49949443  1
  Nb  Nb122  1  0.48607618  0.09968841  0.70336249  1
  Nb  Nb123  1  0.69030349  0.69906770  0.50096128  1
  Nb  Nb124  1  0.09198624  0.69962212  0.29954204  1
  Nb  Nb125  1  0.79933114  0.19918906  0.40810770  1
  Nb  Nb126  1  0.00529053  0.19964750  -0.00521062  1
  Nb  Nb127  1  0.00528039  -0.00778848  0.19942804  1
  Nb  Nb128  1  0.40124014  0.59625738  0.20515623  1
  Nb  Nb129  1  0.59300137  -0.00661974  0.39449770  1
  Nb  Nb130  1  0.20397820  0.80219404  0.79791942  1
  Nb  Nb131  1  0.40320219  0.20551240  0.40432919  1
  Nb  Nb132  1  0.00019320  0.80021074  0.19959540  1
  Nb  Nb133  1  0.19934609  0.00179827  0.40100637  1
  Nb  Nb134  1  0.59229419  0.40068580  0.60015550  1
  Nb  Nb135  1  0.00328166  0.59109204  0.00163050  1
  Nb  Nb136  1  0.80219873  0.79966872  0.19680291  1
  Nb  Nb137  1  0.20032567  0.20364027  0.60711028  1
  Nb  Nb138  1  0.00394672  -0.00787555  0.39733030  1
  Nb  Nb139  1  0.79812059  0.40309073  0.79976231  1
  Nb  Nb140  1  0.80364909  0.19485692  0.59761364  1
  Nb  Nb141  1  0.20362871  0.19907015  0.79637377  1
  Nb  Nb142  1  0.60072366  0.40439942  0.20204985  1
  Nb  Nb143  1  0.00458565  0.00354744  0.00429842  1
  Nb  Nb144  1  0.00720728  0.40817000  0.19614582  1
  Nb  Nb145  1  0.60335797  0.80588919  0.79587629  1
  Nb  Nb146  1  0.60349419  0.79578425  0.59968003  1
  Nb  Nb147  1  0.40386280  0.59744307  0.59680286  1
  Nb  Nb148  1  0.19785361  -0.00070811  0.00971241  1
  Nb  Nb149  1  0.40521750  0.40093438  0.39615869  1
  Pd  Pd150  1  0.00265416  0.21306106  0.19179950  1
  Pd  Pd151  1  0.39520753  0.19994361  0.80818556  1
  Pd  Pd152  1  0.80460721  0.19529447  -0.00595083  1
  Pd  Pd153  1  0.39375435  0.40240121  0.00256436  1
  Pd  Pd154  1  0.59808330  0.18785509  0.40596306  1
  Pd  Pd155  1  0.00841776  0.80425750  0.79029656  1
  Pd  Pd156  1  0.79627957  0.78963194  0.39586538  1
  Pd  Pd157  1  0.80366939  0.20013125  0.20890745  1
  Pd  Pd158  1  -0.00116100  0.59529568  0.41031681  1
  Pd  Pd159  1  0.59567323  0.61062739  0.79405702  1
  Pd  Pd160  1  0.59596998  0.19874794  0.19051826  1
  Pd  Pd161  1  0.59207068  0.79679448  -0.01053120  1
  Pd  Pd162  1  0.00161311  0.41172113  0.39185659  1
  Pd  Pd163  1  0.79504179  0.00538655  0.60870799  1
  Pd  Pd164  1  0.00986030  0.79393573  0.00489239  1
  Pd  Pd165  1  0.20500892  0.80445537  0.39916568  1
  Pd  Pd166  1  -0.00005837  0.21119869  0.59410523  1
  Pd  Pd167  1  0.80274746  0.59199243  0.80242121  1
  Pd  Pd168  1  0.60173412  0.20679754  0.60218508  1
  Pd  Pd169  1  0.21069504  -0.00112774  0.80836394  1
  Pd  Pd170  1  -0.00829918  0.40589228  0.79191618  1
  Pd  Pd171  1  0.79485972  0.60611410  0.20687974  1
  Pd  Pd172  1  0.59907539  0.40806835  0.39940703  1
  Pd  Pd173  1  0.60212882  0.39070605  0.79356065  1
  Pd  Pd174  1  0.59640421  0.00708973  0.19596025  1
  Pd  Pd175  1  0.40743022  0.39896264  0.20210365  1
  Pd  Pd176  1  0.40220580  0.00651972  0.40845653  1
  Pd  Pd177  1  0.59295055  0.60104133  0.61029360  1
  Pd  Pd178  1  0.80571219  -0.00195903  0.20216855  1
  Pd  Pd179  1  0.19409954  0.39963299  0.20721198  1
  Pd  Pd180  1  0.79842260  0.79516919  0.00276334  1
  Pd  Pd181  1  0.79792878  0.79288085  0.60227025  1
  Pd  Pd182  1  0.20961739  0.60371953  0.59827741  1
  Pd  Pd183  1  0.59981210  0.19738028  0.00681491  1
  Pd  Pd184  1  0.60764274  0.59186225  0.39636961  1
  Pd  Pd185  1  0.00094797  0.39587168  0.60224009  1
  Pd  Pd186  1  0.78674816  0.39918162  -0.00841224  1
  Pd  Pd187  1  0.60636767  0.39415049  0.00690840  1
  Pd  Pd188  1  0.20600485  0.60602669  0.79756926  1
  Pd  Pd189  1  -0.00608314  -0.00702499  0.80011013  1
  Pd  Pd190  1  -0.00289425  0.79603258  0.60470507  1
  Pd  Pd191  1  0.59090263  -0.00053023  0.79623072  1
  Pd  Pd192  1  0.79878857  0.00259276  0.78675605  1
  Pd  Pd193  1  0.20011233  0.78973667  0.20349366  1
  Pd  Pd194  1  0.39675412  0.78822074  0.20651805  1
  Pd  Pd195  1  0.19554990  0.00628033  0.59147947  1
  Pd  Pd196  1  0.21037026  0.40593422  -0.00481287  1
  Pd  Pd197  1  0.00189179  0.19902983  0.80287930  1
  Pd  Pd198  1  -0.00402171  0.60882670  0.59184602  1
  Pd  Pd199  1  0.19959827  0.59988589  0.40593522  1
  Rh  Rh200  1  0.20607402  0.60541791  0.20321257  1
  Rh  Rh201  1  0.40183079  0.59440651  0.00732692  1
  Rh  Rh202  1  0.00101585  0.59596636  0.80372721  1
  Rh  Rh203  1  0.80178922  0.19977406  0.78834370  1
  Rh  Rh204  1  0.39773161  0.59752711  0.40216124  1
  Rh  Rh205  1  0.39959565  0.80684854  0.80255563  1
  Rh  Rh206  1  0.00777192  0.60232010  0.19431079  1
  Rh  Rh207  1  0.19538951  0.39506336  0.59970084  1
  Rh  Rh208  1  0.40758293  0.80590917  0.00398293  1
  Rh  Rh209  1  0.20351512  0.40824959  0.39917906  1
  Rh  Rh210  1  0.79558862  0.80338650  0.79247353  1
  Rh  Rh211  1  0.00336662  0.80296447  0.39392266  1
  Rh  Rh212  1  0.59467048  0.00630006  0.00778309  1
  Rh  Rh213  1  0.20810182  0.19636777  0.40994536  1
  Rh  Rh214  1  0.60074041  0.80807933  0.40905351  1
  Rh  Rh215  1  0.80829237  0.61012109  0.59221211  1
  Rh  Rh216  1  0.19863712  0.80761565  -0.01051948  1
  Rh  Rh217  1  0.19548978  0.00485509  0.20379267  1
  Rh  Rh218  1  0.00119247  0.39815306  0.00806231  1
  Rh  Rh219  1  0.20990586  0.39476343  0.80667805  1
  Rh  Rh220  1  -0.00185006  -0.00866502  0.59629277  1
  Rh  Rh221  1  0.39759983  0.20113132  -0.00070635  1
  Rh  Rh222  1  0.39300839  0.39435784  0.80801420  1
  Rh  Rh223  1  0.40117745  0.00042323  0.59665663  1
  Rh  Rh224  1  0.58548451  0.19446537  0.79791007  1
  Rh  Rh225  1  0.40469010  0.40572675  0.59253182  1
  Rh  Rh226  1  0.20121893  0.19063008  -0.00667868  1
  Rh  Rh227  1  0.40027656  0.20240064  0.20273923  1
  Rh  Rh228  1  0.80371152  0.00552905  -0.00653485  1
  Rh  Rh229  1  0.19941437  0.79835349  0.60817102  1
  Rh  Rh230  1  0.39509698  0.20377918  0.59521109  1
  Rh  Rh231  1  0.59459746  0.60678141  -0.00844568  1
  Rh  Rh232  1  0.40643203  0.78994802  0.59737276  1
  Rh  Rh233  1  0.79282747  0.38969772  0.60497114  1
  Rh  Rh234  1  0.39380158  -0.00663453  0.01013712  1
  Rh  Rh235  1  0.40000007  0.00318409  0.80188923  1
  Rh  Rh236  1  0.59896889  0.59478245  0.20669042  1
  Rh  Rh237  1  0.79747418  0.00924637  0.39471943  1
  Rh  Rh238  1  0.39819508  0.79733209  0.39736525  1
  Rh  Rh239  1  0.39180251  0.59719327  0.78964148  1
  Rh  Rh240  1  0.20075617  0.20986575  0.20094083  1
  Rh  Rh241  1  0.80413199  0.39732715  0.40350931  1
  Rh  Rh242  1  0.19508773  0.59233583  -0.00887583  1
  Rh  Rh243  1  0.80090966  0.60417276  0.40815766  1
  Rh  Rh244  1  0.40314617  -0.00175476  0.19231628  1
  Rh  Rh245  1  0.59609117  -0.01507054  0.59131266  1
  Rh  Rh246  1  0.80477536  0.60381098  -0.00641088  1
  Rh  Rh247  1  0.60538231  0.79676727  0.19998167  1
  Rh  Rh248  1  -0.01065780  0.19724609  0.40740887  1
  Rh  Rh249  1  0.79986707  0.40235318  0.20385217  1
