# generated using pymatgen
data_ZrScNbPdRh
_symmetry_space_group_name_H-M   'P 1'
_cell_length_a   16.56193050
_cell_length_b   16.55749113
_cell_length_c   16.56174908
_cell_angle_alpha   89.99316497
_cell_angle_beta   90.01961485
_cell_angle_gamma   90.01410002
_symmetry_Int_Tables_number   1
_chemical_formula_structural   ZrScNbPdRh
_chemical_formula_sum   'Zr50 Sc50 Nb50 Pd50 Rh50'
_cell_volume   4541.62893314
_cell_formula_units_Z   50
loop_
 _symmetry_equiv_pos_site_id
 _symmetry_equiv_pos_as_xyz
  1  'x, y, z'
loop_
 _atom_site_type_symbol
 _atom_site_label
 _atom_site_symmetry_multiplicity
 _atom_site_fract_x
 _atom_site_fract_y
 _atom_site_fract_z
 _atom_site_occupancy
  Zr  Zr0  1  0.69411510  0.50585435  0.50295686  1
  Zr  Zr1  1  0.70516706  0.10656498  0.29786304  1
  Zr  Zr2  1  0.70399790  0.50615306  0.70611337  1
  Zr  Zr3  1  0.70463352  0.29601969  0.50283969  1
  Zr  Zr4  1  0.08882948  0.09264981  0.29702396  1
  Zr  Zr5  1  0.09727106  0.90428858  0.89452455  1
  Zr  Zr6  1  0.90261785  0.89503938  0.89667582  1
  Zr  Zr7  1  0.49071183  0.70536447  0.08975536  1
  Zr  Zr8  1  0.89922334  0.29415176  0.30373517  1
  Zr  Zr9  1  0.49847133  0.29558331  0.69984710  1
  Zr  Zr10  1  0.49714268  0.09540641  0.30419077  1
  Zr  Zr11  1  0.30665312  0.90854026  0.29521381  1
  Zr  Zr12  1  0.49852693  0.50170439  0.90148621  1
  Zr  Zr13  1  0.69669535  0.29847928  0.30020915  1
  Zr  Zr14  1  0.70878296  0.89488376  0.89872863  1
  Zr  Zr15  1  0.29618126  0.49965300  0.29884531  1
  Zr  Zr16  1  0.70336848  0.49537557  0.09480582  1
  Zr  Zr17  1  0.69823937  0.50138033  0.89735747  1
  Zr  Zr18  1  0.50282640  0.89014025  0.90791027  1
  Zr  Zr19  1  0.70058950  0.89963032  0.70304753  1
  Zr  Zr20  1  0.49842173  0.89681587  0.30132961  1
  Zr  Zr21  1  0.09645805  0.08947081  0.49882737  1
  Zr  Zr22  1  0.29462130  0.30295752  0.89706894  1
  Zr  Zr23  1  0.10832607  0.30649017  0.69652523  1
  Zr  Zr24  1  0.70182676  0.29849462  0.10077790  1
  Zr  Zr25  1  0.29752785  0.69934695  0.91331693  1
  Zr  Zr26  1  0.09304621  0.51250880  0.69847623  1
  Zr  Zr27  1  0.70137121  0.50542523  0.28835306  1
  Zr  Zr28  1  0.91251166  0.10028137  0.10419724  1
  Zr  Zr29  1  0.90220849  0.49801693  0.30423535  1
  Zr  Zr30  1  0.49181186  0.89198405  0.10709886  1
  Zr  Zr31  1  0.90363690  0.10406440  0.49346838  1
  Zr  Zr32  1  0.30007843  0.30052416  0.50437280  1
  Zr  Zr33  1  0.09992770  0.89170917  0.30776527  1
  Zr  Zr34  1  0.69874622  0.30071698  0.70038421  1
  Zr  Zr35  1  0.90367008  0.89587351  0.09215801  1
  Zr  Zr36  1  0.49781180  0.50160378  0.50031877  1
  Zr  Zr37  1  0.90114652  0.29550676  0.70089185  1
  Zr  Zr38  1  0.70909351  0.29944288  0.90164872  1
  Zr  Zr39  1  0.10024091  0.70597361  0.89152138  1
  Zr  Zr40  1  0.71233048  0.10221136  0.10291028  1
  Zr  Zr41  1  0.70442826  0.70226498  0.30316096  1
  Zr  Zr42  1  0.51413721  0.50230089  0.69917802  1
  Zr  Zr43  1  0.29876853  0.09787958  0.50735893  1
  Zr  Zr44  1  0.29167704  0.30306980  0.09692676  1
  Zr  Zr45  1  0.90516921  0.50495266  0.50137146  1
  Zr  Zr46  1  0.50476059  0.70028848  0.28693240  1
  Zr  Zr47  1  0.09735840  0.49552251  0.49650874  1
  Zr  Zr48  1  0.50100127  0.69529791  0.50034005  1
  Zr  Zr49  1  0.09514844  0.29414696  0.09524659  1
  Sc  Sc50  1  0.10197299  0.09663912  0.70449715  1
  Sc  Sc51  1  0.71087953  0.09911493  0.89384068  1
  Sc  Sc52  1  0.49759556  0.89759142  0.50889134  1
  Sc  Sc53  1  0.29947073  0.90098611  0.49240563  1
  Sc  Sc54  1  0.70563611  0.69978448  0.69796512  1
  Sc  Sc55  1  0.70722601  0.68783334  0.10777022  1
  Sc  Sc56  1  0.09634200  0.70380589  0.48598328  1
  Sc  Sc57  1  0.90299556  0.29409036  0.90172654  1
  Sc  Sc58  1  0.49880286  0.49310578  0.30127223  1
  Sc  Sc59  1  0.29921758  0.50555744  0.49073711  1
  Sc  Sc60  1  0.29593953  0.31653287  0.30196976  1
  Sc  Sc61  1  0.09213280  0.90397384  0.70686346  1
  Sc  Sc62  1  0.29634819  0.49888812  0.09031448  1
  Sc  Sc63  1  0.49888612  0.09630180  0.51009745  1
  Sc  Sc64  1  0.70498178  0.89762160  0.51528136  1
  Sc  Sc65  1  0.29589276  0.70009919  0.69498492  1
  Sc  Sc66  1  0.90292630  0.69628259  0.70033779  1
  Sc  Sc67  1  0.90304056  0.09939694  0.89593634  1
  Sc  Sc68  1  0.29530432  0.28618731  0.70016722  1
  Sc  Sc69  1  0.28276844  0.50277752  0.69701187  1
  Sc  Sc70  1  0.49521412  0.10450200  0.10304428  1
  Sc  Sc71  1  0.89320717  0.70085134  0.50111523  1
  Sc  Sc72  1  0.50453358  0.70041705  0.69492396  1
  Sc  Sc73  1  0.11560899  0.70405589  0.09892249  1
  Sc  Sc74  1  0.70149677  0.10173887  0.50973544  1
  Sc  Sc75  1  0.49675324  0.30806803  0.09907196  1
  Sc  Sc76  1  0.10054659  0.29626928  0.90339600  1
  Sc  Sc77  1  0.89071991  0.49993070  0.90441010  1
  Sc  Sc78  1  0.90257671  0.89909792  0.28907780  1
  Sc  Sc79  1  0.71268168  0.89711737  0.09996874  1
  Sc  Sc80  1  0.90267093  0.10013934  0.29570030  1
  Sc  Sc81  1  0.90392977  0.30456019  0.49099114  1
  Sc  Sc82  1  0.89970679  0.09700392  0.70328335  1
  Sc  Sc83  1  0.09739986  0.30621985  0.30085665  1
  Sc  Sc84  1  0.70204515  0.70231426  0.89524393  1
  Sc  Sc85  1  0.89974489  0.89801815  0.70186035  1
  Sc  Sc86  1  0.29918528  0.10518443  0.89307836  1
  Sc  Sc87  1  0.50904219  0.30308534  0.50071517  1
  Sc  Sc88  1  0.90243221  0.70379648  0.30218234  1
  Sc  Sc89  1  0.48922668  0.09947012  0.70323691  1
  Sc  Sc90  1  0.28705568  0.90582819  0.89635606  1
  Sc  Sc91  1  0.10596485  0.50308909  0.30431022  1
  Sc  Sc92  1  0.90675416  0.90141178  0.50949756  1
  Sc  Sc93  1  0.70418025  0.10200775  0.69918705  1
  Sc  Sc94  1  0.49053589  0.29105192  0.89873860  1
  Sc  Sc95  1  0.10804265  0.49383480  0.09221907  1
  Sc  Sc96  1  0.10601605  0.91311545  0.09931688  1
  Sc  Sc97  1  0.30197079  0.70038781  0.49682998  1
  Sc  Sc98  1  0.28502162  0.70364742  0.30245157  1
  Sc  Sc99  1  0.89846183  0.29640158  0.09084096  1
  Nb  Nb100  1  0.10153490  0.09993071  0.09977662  1
  Nb  Nb101  1  0.10365623  0.29481061  0.49852318  1
  Nb  Nb102  1  0.90145552  0.69439998  0.09305028  1
  Nb  Nb103  1  0.09747744  0.90105604  0.50379518  1
  Nb  Nb104  1  0.09672553  0.69827027  0.29818762  1
  Nb  Nb105  1  0.50159862  0.50598447  0.09905859  1
  Nb  Nb106  1  0.29785603  0.90323241  0.70564807  1
  Nb  Nb107  1  0.30160711  0.09651974  0.30263729  1
  Nb  Nb108  1  0.70360992  0.90143120  0.29914618  1
  Nb  Nb109  1  0.29299485  0.50082478  0.89784469  1
  Nb  Nb110  1  0.49317007  0.70048471  0.90314283  1
  Nb  Nb111  1  0.29331881  0.08809467  0.10898805  1
  Nb  Nb112  1  0.49926721  0.90123293  0.70522435  1
  Nb  Nb113  1  0.90178204  0.70872778  0.91065832  1
  Nb  Nb114  1  0.09854653  0.09091486  0.90991193  1
  Nb  Nb115  1  0.10527012  0.50360782  0.89562656  1
  Nb  Nb116  1  0.30005763  0.09705636  0.69816526  1
  Nb  Nb117  1  0.30492614  0.70321535  0.09827687  1
  Nb  Nb118  1  0.49847083  0.09534745  0.90343353  1
  Nb  Nb119  1  0.10192847  0.70607860  0.70315576  1
  Nb  Nb120  1  0.49385451  0.29449584  0.30317548  1
  Nb  Nb121  1  0.89537079  0.50898513  0.09996743  1
  Nb  Nb122  1  0.90190218  0.50187540  0.69517916  1
  Nb  Nb123  1  0.70191798  0.70139643  0.50024602  1
  Nb  Nb124  1  0.30213329  0.90222217  0.10413673  1
  Nb  Nb125  1  0.79535864  -0.00301408  0.39757681  1
  Nb  Nb126  1  0.80283205  0.40669591  0.60314727  1
  Nb  Nb127  1  0.19252257  0.80645743  0.60062578  1
  Nb  Nb128  1  0.39639543  0.60152167  0.19196172  1
  Nb  Nb129  1  0.20197503  0.19255772  0.20359544  1
  Nb  Nb130  1  0.00058400  0.60241762  -0.00032091  1
  Nb  Nb131  1  0.59433352  -0.00456006  0.80499670  1
  Nb  Nb132  1  0.39778885  0.00073358  0.00344687  1
  Nb  Nb133  1  0.39949868  0.79940628  0.80038381  1
  Nb  Nb134  1  0.39832950  0.60025377  0.80419789  1
  Nb  Nb135  1  0.40054723  0.40287201  0.60684033  1
  Nb  Nb136  1  0.60078871  0.19312754  -0.00216435  1
  Nb  Nb137  1  0.00267448  0.40979481  0.79791204  1
  Nb  Nb138  1  0.59799293  0.00232770  0.00187179  1
  Nb  Nb139  1  0.00656575  0.20233243  0.59702098  1
  Nb  Nb140  1  0.38998667  0.20123179  0.20671807  1
  Nb  Nb141  1  0.59375327  0.60142111  -0.00034493  1
  Nb  Nb142  1  -0.00510284  0.40751146  0.19413462  1
  Nb  Nb143  1  0.60726810  0.80126339  0.40127773  1
  Nb  Nb144  1  0.60361507  -0.00221667  0.20037907  1
  Nb  Nb145  1  0.20252126  0.19528190  0.39592304  1
  Nb  Nb146  1  0.00132366  0.59998999  0.19296046  1
  Nb  Nb147  1  0.60735922  -0.00735199  0.39825456  1
  Nb  Nb148  1  0.39576247  0.20130591  0.39709673  1
  Nb  Nb149  1  0.39381805  0.40708671  0.79594825  1
  Pd  Pd150  1  -0.00353228  0.39317213  0.60175432  1
  Pd  Pd151  1  0.00904271  0.20327998  0.79823501  1
  Pd  Pd152  1  0.00526547  0.61372004  0.59265531  1
  Pd  Pd153  1  0.01436875  0.79823535  0.00715225  1
  Pd  Pd154  1  0.19174819  0.61228758  0.58769836  1
  Pd  Pd155  1  0.39625764  0.59267382  0.61043033  1
  Pd  Pd156  1  0.19724567  -0.00825316  0.60792152  1
  Pd  Pd157  1  0.20509356  0.40483747  0.59461679  1
  Pd  Pd158  1  0.59024046  0.20001889  0.19359121  1
  Pd  Pd159  1  0.60102631  0.19029118  0.80610485  1
  Pd  Pd160  1  0.00392444  0.79462672  0.60285992  1
  Pd  Pd161  1  0.39688708  0.19374887  0.00767199  1
  Pd  Pd162  1  0.39746458  0.40317463  -0.00446259  1
  Pd  Pd163  1  0.20183344  0.80674516  0.20005622  1
  Pd  Pd164  1  0.39864142  0.60675294  0.38532627  1
  Pd  Pd165  1  0.00685710  0.79434533  0.19034448  1
  Pd  Pd166  1  0.80248296  0.81156458  0.40662443  1
  Pd  Pd167  1  0.59497676  0.19147747  0.40789929  1
  Pd  Pd168  1  0.81000726  0.60818557  0.80598265  1
  Pd  Pd169  1  0.19312865  0.19329101  0.80177884  1
  Pd  Pd170  1  -0.01088879  0.59920811  0.81117516  1
  Pd  Pd171  1  0.59880696  0.60369767  0.39543090  1
  Pd  Pd172  1  0.38951891  0.80436320  0.60716020  1
  Pd  Pd173  1  0.59657786  0.39459172  -0.00585124  1
  Pd  Pd174  1  0.40062658  -0.00554552  0.80751896  1
  Pd  Pd175  1  0.60201196  0.40110506  0.39568259  1
  Pd  Pd176  1  0.79230283  0.40421776  0.40573875  1
  Pd  Pd177  1  0.80631669  0.00254236  0.59793618  1
  Pd  Pd178  1  0.80471121  0.79452758  0.19583801  1
  Pd  Pd179  1  0.80451119  0.00364162  -0.00348225  1
  Pd  Pd180  1  0.20338840  0.19043241  0.00273469  1
  Pd  Pd181  1  0.80196071  0.59922194  0.39940461  1
  Pd  Pd182  1  0.80841702  0.39359388  0.19540026  1
  Pd  Pd183  1  -0.00281905  0.40918115  -0.00399382  1
  Pd  Pd184  1  0.61334914  0.79431820  0.01038730  1
  Pd  Pd185  1  0.59563574  0.19207521  0.60403064  1
  Pd  Pd186  1  -0.00915882  0.80282686  0.40300156  1
  Pd  Pd187  1  0.20023407  0.59680995  0.19407878  1
  Pd  Pd188  1  0.19859789  -0.00095224  0.39626563  1
  Pd  Pd189  1  0.61052554  0.80365876  0.19544140  1
  Pd  Pd190  1  0.39986671  0.40356202  0.19595097  1
  Pd  Pd191  1  0.40304085  0.79396437  0.39687963  1
  Pd  Pd192  1  0.59240767  0.39056573  0.80881385  1
  Pd  Pd193  1  0.60097864  0.79800618  0.59721905  1
  Pd  Pd194  1  0.59398653  0.39812092  0.20260905  1
  Pd  Pd195  1  0.59583658  0.79623278  0.79590999  1
  Pd  Pd196  1  0.81069495  0.39929143  0.79681065  1
  Pd  Pd197  1  0.20634796  0.60818223  0.80056077  1
  Pd  Pd198  1  0.19868867  0.81163941  0.00264930  1
  Pd  Pd199  1  0.39831925  -0.00693997  0.60065413  1
  Rh  Rh200  1  0.19820638  0.80307621  0.40568610  1
  Rh  Rh201  1  -0.00126678  0.00139343  0.80235359  1
  Rh  Rh202  1  0.20622305  0.00401530  -0.00254949  1
  Rh  Rh203  1  0.80054970  0.19579642  -0.00207318  1
  Rh  Rh204  1  0.18914372  0.39441869  0.19525831  1
  Rh  Rh205  1  -0.00243664  0.00107519  -0.00042905  1
  Rh  Rh206  1  0.19315067  -0.00172375  0.20782541  1
  Rh  Rh207  1  0.80999275  0.20596070  0.19807609  1
  Rh  Rh208  1  0.59328105  0.59715723  0.19188241  1
  Rh  Rh209  1  0.79653148  -0.00327802  0.79869033  1
  Rh  Rh210  1  0.39617036  0.20054967  0.79721502  1
  Rh  Rh211  1  0.19558832  0.40113483  0.80216006  1
  Rh  Rh212  1  0.80213957  0.00128887  0.20363998  1
  Rh  Rh213  1  0.79878990  0.59748279  0.59878827  1
  Rh  Rh214  1  -0.01116370  -0.01188597  0.39668867  1
  Rh  Rh215  1  0.40019973  0.20588774  0.59782078  1
  Rh  Rh216  1  0.59775471  -0.00037136  0.61050744  1
  Rh  Rh217  1  0.00028119  0.60335271  0.39391829  1
  Rh  Rh218  1  -0.00483553  0.79745403  0.79551379  1
  Rh  Rh219  1  0.60471964  0.40044304  0.60078048  1
  Rh  Rh220  1  0.79833785  0.19376257  0.40275070  1
  Rh  Rh221  1  0.19561012  0.39926615  -0.00878133  1
  Rh  Rh222  1  0.40762708  0.00660354  0.19283060  1
  Rh  Rh223  1  0.81083860  0.60523104  0.20811545  1
  Rh  Rh224  1  0.59452702  0.61155288  0.80828632  1
  Rh  Rh225  1  0.20580188  0.79883437  0.78975833  1
  Rh  Rh226  1  0.00553029  0.40021041  0.39484887  1
  Rh  Rh227  1  0.19236799  0.18993256  0.59539753  1
  Rh  Rh228  1  0.19685706  0.60204952  0.40177382  1
  Rh  Rh229  1  0.00923913  0.20204004  0.40306226  1
  Rh  Rh230  1  0.38353802  0.81451932  -0.00841270  1
  Rh  Rh231  1  0.60610745  0.60850343  0.59997070  1
  Rh  Rh232  1  0.80321184  0.79590749  0.60400830  1
  Rh  Rh233  1  0.00452488  0.20889093  0.20070607  1
  Rh  Rh234  1  -0.00219162  0.00724810  0.60483819  1
  Rh  Rh235  1  0.19727396  0.39766284  0.40417468  1
  Rh  Rh236  1  0.38535613  0.78921901  0.20904520  1
  Rh  Rh237  1  0.80353282  0.39897199  0.00077455  1
  Rh  Rh238  1  0.40447715  0.39392637  0.41244416  1
  Rh  Rh239  1  -0.00014852  0.19128875  -0.00524807  1
  Rh  Rh240  1  0.80869299  0.79450656  0.79753063  1
  Rh  Rh241  1  0.80187851  0.19911743  0.79846369  1
  Rh  Rh242  1  0.81217091  0.20726216  0.59665534  1
  Rh  Rh243  1  0.79539660  0.60416455  -0.00806088  1
  Rh  Rh244  1  0.19404500  0.60029442  -0.00027566  1
  Rh  Rh245  1  0.00185736  -0.00867252  0.19682084  1
  Rh  Rh246  1  0.19834650  0.00765225  0.79821570  1
  Rh  Rh247  1  0.40813803  0.00417479  0.41182859  1
  Rh  Rh248  1  0.39925056  0.59122068  0.00146679  1
  Rh  Rh249  1  0.79571262  0.79127803  0.00424862  1
