# generated using pymatgen
data_ZrScNbPdRh
_symmetry_space_group_name_H-M   'P 1'
_cell_length_a   16.55803007
_cell_length_b   16.55738229
_cell_length_c   16.55815439
_cell_angle_alpha   90.03203021
_cell_angle_beta   90.02446240
_cell_angle_gamma   90.00362461
_symmetry_Int_Tables_number   1
_chemical_formula_structural   ZrScNbPdRh
_chemical_formula_sum   'Zr50 Sc50 Nb50 Pd50 Rh50'
_cell_volume   4539.54329558
_cell_formula_units_Z   50
loop_
 _symmetry_equiv_pos_site_id
 _symmetry_equiv_pos_as_xyz
  1  'x, y, z'
loop_
 _atom_site_type_symbol
 _atom_site_label
 _atom_site_symmetry_multiplicity
 _atom_site_fract_x
 _atom_site_fract_y
 _atom_site_fract_z
 _atom_site_occupancy
  Zr  Zr0  1  0.29913883  0.09910115  0.30430728  1
  Zr  Zr1  1  0.90870179  0.49293515  0.89936236  1
  Zr  Zr2  1  0.29946381  0.88973416  0.90142299  1
  Zr  Zr3  1  0.29834217  0.49216355  0.70426074  1
  Zr  Zr4  1  0.10960469  0.29714061  0.69375955  1
  Zr  Zr5  1  0.30075200  0.10337273  0.89820604  1
  Zr  Zr6  1  0.30402812  0.30520898  0.70308262  1
  Zr  Zr7  1  0.10282997  0.09934782  0.69545225  1
  Zr  Zr8  1  0.10709094  0.89753090  0.10800208  1
  Zr  Zr9  1  0.68156149  0.70238314  0.51436275  1
  Zr  Zr10  1  0.29609621  0.69868737  0.08943690  1
  Zr  Zr11  1  0.29649903  0.09340578  0.50516879  1
  Zr  Zr12  1  0.69789710  0.29835807  0.90957009  1
  Zr  Zr13  1  0.90669130  0.09465563  0.69017029  1
  Zr  Zr14  1  0.49085892  0.29642816  0.89728990  1
  Zr  Zr15  1  0.29668194  0.30331399  0.30136311  1
  Zr  Zr16  1  0.50343292  0.10570895  0.29957545  1
  Zr  Zr17  1  0.91229807  0.29377237  0.29777682  1
  Zr  Zr18  1  0.10043153  0.69638469  0.09767386  1
  Zr  Zr19  1  0.49791085  0.70093822  0.30487428  1
  Zr  Zr20  1  0.90052487  0.89590881  0.09841895  1
  Zr  Zr21  1  0.49297798  0.30271184  0.70008495  1
  Zr  Zr22  1  0.90451288  0.70885292  0.69785019  1
  Zr  Zr23  1  0.11339658  0.70761209  0.89701018  1
  Zr  Zr24  1  0.09898250  0.70551055  0.49318269  1
  Zr  Zr25  1  0.09393624  0.49377024  0.91087202  1
  Zr  Zr26  1  0.10165845  0.50105471  0.70878032  1
  Zr  Zr27  1  0.30172155  0.69745762  0.49254408  1
  Zr  Zr28  1  0.89955752  0.09635174  0.10274553  1
  Zr  Zr29  1  0.69659547  0.29431380  0.10170358  1
  Zr  Zr30  1  0.51146237  0.29965437  0.48548857  1
  Zr  Zr31  1  0.50829536  0.89729937  0.49714431  1
  Zr  Zr32  1  0.70409012  0.70681904  0.70395713  1
  Zr  Zr33  1  0.89908368  0.29395366  0.50019503  1
  Zr  Zr34  1  0.10422381  0.09751338  0.50344930  1
  Zr  Zr35  1  0.49423902  0.29860268  0.29127391  1
  Zr  Zr36  1  0.10928720  0.09992975  0.89436556  1
  Zr  Zr37  1  0.09291636  0.09128993  0.30117777  1
  Zr  Zr38  1  0.49776896  0.90649749  0.90169171  1
  Zr  Zr39  1  0.89794425  0.70285202  0.30262025  1
  Zr  Zr40  1  0.50577281  0.30284340  0.09923617  1
  Zr  Zr41  1  0.28650282  0.50137245  0.10436133  1
  Zr  Zr42  1  0.29465847  0.70342478  0.70956551  1
  Zr  Zr43  1  0.90241499  0.30482945  0.69921617  1
  Zr  Zr44  1  0.09645916  0.30664534  0.10642969  1
  Zr  Zr45  1  0.69021293  0.50092620  0.09632336  1
  Zr  Zr46  1  0.70944202  0.30169918  0.69509259  1
  Zr  Zr47  1  0.69978134  0.90119118  0.30585472  1
  Zr  Zr48  1  0.69226176  0.89205197  0.89668658  1
  Zr  Zr49  1  0.29668978  0.90874271  0.49960541  1
  Sc  Sc50  1  0.50210326  0.51103440  0.49951818  1
  Sc  Sc51  1  0.69903327  0.50318657  0.49657901  1
  Sc  Sc52  1  0.09067705  0.70351976  0.69984119  1
  Sc  Sc53  1  0.49767889  0.89453409  0.29727880  1
  Sc  Sc54  1  0.08196451  0.90176141  0.70276552  1
  Sc  Sc55  1  0.89982825  0.69757915  0.90468456  1
  Sc  Sc56  1  0.50545523  0.50118503  0.91208870  1
  Sc  Sc57  1  0.29997788  0.50262204  0.29570764  1
  Sc  Sc58  1  0.69855580  0.70309167  0.28841067  1
  Sc  Sc59  1  0.70331351  0.10120683  0.09650534  1
  Sc  Sc60  1  0.71134474  0.09317180  0.48920882  1
  Sc  Sc61  1  0.50334029  0.70066806  0.10679627  1
  Sc  Sc62  1  0.90043181  0.28795465  0.10435068  1
  Sc  Sc63  1  0.90354350  0.09560416  0.49716948  1
  Sc  Sc64  1  0.70226225  0.70324668  0.09863021  1
  Sc  Sc65  1  0.91146022  0.69796179  0.50354305  1
  Sc  Sc66  1  0.70203314  0.89325926  0.09810758  1
  Sc  Sc67  1  0.90199588  0.51018389  0.30194722  1
  Sc  Sc68  1  0.30032114  0.30213907  0.10638842  1
  Sc  Sc69  1  0.49810153  0.09251374  0.49108646  1
  Sc  Sc70  1  0.29509481  0.90236792  0.29191528  1
  Sc  Sc71  1  0.90153891  0.89267849  0.89671367  1
  Sc  Sc72  1  0.09601830  0.50589712  0.48893952  1
  Sc  Sc73  1  0.30900362  0.50098573  0.50168490  1
  Sc  Sc74  1  0.89602797  0.09420512  0.29690796  1
  Sc  Sc75  1  0.90543513  0.50714960  0.70184488  1
  Sc  Sc76  1  0.70031004  0.51088648  0.29976653  1
  Sc  Sc77  1  0.28912375  0.30174130  0.50149828  1
  Sc  Sc78  1  0.50877006  0.69736920  0.68666391  1
  Sc  Sc79  1  0.30986405  0.91089321  0.70131171  1
  Sc  Sc80  1  0.49570090  0.09893371  0.09464898  1
  Sc  Sc81  1  0.29983374  0.70053022  0.30222005  1
  Sc  Sc82  1  0.50444003  0.50218419  0.29717713  1
  Sc  Sc83  1  0.29453364  0.10096824  0.70027863  1
  Sc  Sc84  1  0.90241356  0.50964553  0.49548058  1
  Sc  Sc85  1  0.69546198  0.09444829  0.91182271  1
  Sc  Sc86  1  0.48925246  0.49671488  0.69387928  1
  Sc  Sc87  1  0.49048488  0.09238349  0.70763074  1
  Sc  Sc88  1  0.49675371  0.09779579  0.90596301  1
  Sc  Sc89  1  0.89738324  0.70474691  0.09980828  1
  Sc  Sc90  1  0.71186394  0.50578216  0.69700619  1
  Sc  Sc91  1  0.91667767  0.50979745  0.09762067  1
  Sc  Sc92  1  0.28723740  0.50150218  0.89927117  1
  Sc  Sc93  1  0.68169468  0.28929249  0.30453042  1
  Sc  Sc94  1  0.29824601  0.09099709  0.10111417  1
  Sc  Sc95  1  0.49850163  0.70754023  0.91232350  1
  Sc  Sc96  1  0.70359012  0.50363968  0.90600220  1
  Sc  Sc97  1  0.90473606  0.90220131  0.29546013  1
  Sc  Sc98  1  0.49877582  0.50315708  0.10472747  1
  Sc  Sc99  1  0.10560727  0.09752794  0.10136011  1
  Nb  Nb100  1  0.09820223  0.29730165  0.49352414  1
  Nb  Nb101  1  0.69625452  0.69884250  0.90304889  1
  Nb  Nb102  1  0.70117826  0.30100444  0.49846672  1
  Nb  Nb103  1  0.10169991  0.30094387  0.30829468  1
  Nb  Nb104  1  0.49271478  0.70236614  0.49979495  1
  Nb  Nb105  1  0.10289612  0.50157917  0.09998432  1
  Nb  Nb106  1  0.10128775  0.90121607  0.49571086  1
  Nb  Nb107  1  0.90429098  0.30116104  0.89979707  1
  Nb  Nb108  1  0.49390602  0.90792034  0.10277802  1
  Nb  Nb109  1  0.30104552  0.70139468  0.89787334  1
  Nb  Nb110  1  0.30585444  0.90462939  0.10399539  1
  Nb  Nb111  1  0.70435255  0.90029233  0.50505587  1
  Nb  Nb112  1  0.69622324  0.09080070  0.29808145  1
  Nb  Nb113  1  0.70330541  0.89854309  0.69470931  1
  Nb  Nb114  1  0.89172577  0.89774403  0.69187887  1
  Nb  Nb115  1  0.70056194  0.10039736  0.70295295  1
  Nb  Nb116  1  0.89010327  0.90304542  0.51460840  1
  Nb  Nb117  1  0.09651497  0.30037235  0.90030287  1
  Nb  Nb118  1  0.89795925  0.10079614  0.90204431  1
  Nb  Nb119  1  0.09818242  0.90105246  0.90319439  1
  Nb  Nb120  1  0.29908754  0.29886198  0.89148819  1
  Nb  Nb121  1  0.50270074  0.90470167  0.70130525  1
  Nb  Nb122  1  0.10196944  0.89432116  0.30438854  1
  Nb  Nb123  1  0.09919690  0.49548796  0.28802951  1
  Nb  Nb124  1  0.09823434  0.71016179  0.30876294  1
  Nb  Nb125  1  0.79999149  0.39858614  0.20166657  1
  Nb  Nb126  1  0.19424682  0.20333547  0.21022497  1
  Nb  Nb127  1  0.39432891  0.39817971  -0.00087269  1
  Nb  Nb128  1  0.40365608  0.39781942  0.39507924  1
  Nb  Nb129  1  0.79848510  -0.00112672  0.79380006  1
  Nb  Nb130  1  0.60744272  -0.00098551  0.60504588  1
  Nb  Nb131  1  0.59962871  -0.00120565  0.20020164  1
  Nb  Nb132  1  0.80636887  0.39709418  0.00765153  1
  Nb  Nb133  1  -0.00214713  0.20045226  0.80382239  1
  Nb  Nb134  1  0.60459722  0.20150278  0.79483815  1
  Nb  Nb135  1  0.40115510  0.80202141  0.59636284  1
  Nb  Nb136  1  0.00519342  0.39568232  0.59417097  1
  Nb  Nb137  1  0.60191882  0.19569100  0.60078647  1
  Nb  Nb138  1  0.19972301  0.60603815  0.60092564  1
  Nb  Nb139  1  0.79717314  0.80326849  0.41093865  1
  Nb  Nb140  1  0.40080610  0.60541842  0.80616413  1
  Nb  Nb141  1  0.60399018  0.39377741  0.60015670  1
  Nb  Nb142  1  0.20201931  0.80228905  0.59664801  1
  Nb  Nb143  1  0.60093996  0.40030452  0.79677685  1
  Nb  Nb144  1  0.79804225  0.39277324  0.39444558  1
  Nb  Nb145  1  0.59895730  0.60043464  0.80224040  1
  Nb  Nb146  1  0.80318419  0.19447520  0.80389237  1
  Nb  Nb147  1  0.00155801  0.19654976  -0.00752170  1
  Nb  Nb148  1  0.00296759  0.00077784  -0.00561082  1
  Nb  Nb149  1  0.40464792  0.20079007  0.59709225  1
  Pd  Pd150  1  0.59046499  0.79230986  0.79675801  1
  Pd  Pd151  1  0.40176827  0.80316168  0.00918811  1
  Pd  Pd152  1  0.19216438  0.61006483  0.21059474  1
  Pd  Pd153  1  0.20439935  0.41108405  0.40110835  1
  Pd  Pd154  1  0.60096063  0.60455900  0.39860141  1
  Pd  Pd155  1  0.41306829  0.79410416  0.79122772  1
  Pd  Pd156  1  0.79740589  0.60260398  0.80585743  1
  Pd  Pd157  1  -0.00625168  -0.00811469  0.40492314  1
  Pd  Pd158  1  -0.01381860  0.81148322  0.40707451  1
  Pd  Pd159  1  -0.00713265  0.40396777  0.19905653  1
  Pd  Pd160  1  0.39204317  0.60835812  0.60923496  1
  Pd  Pd161  1  0.20533519  0.39056302  -0.00255350  1
  Pd  Pd162  1  0.39901127  0.60166480  0.19996038  1
  Pd  Pd163  1  0.79472623  0.39975029  0.81000413  1
  Pd  Pd164  1  0.80286339  -0.01002891  -0.00791816  1
  Pd  Pd165  1  0.20231501  -0.00975776  0.79505382  1
  Pd  Pd166  1  0.80381184  0.80207246  0.80516748  1
  Pd  Pd167  1  0.00571594  0.60879522  0.20480051  1
  Pd  Pd168  1  0.80605380  0.41110545  0.58700534  1
  Pd  Pd169  1  -0.00735638  0.40537006  0.40174028  1
  Pd  Pd170  1  0.19321844  0.81382761  0.78842783  1
  Pd  Pd171  1  0.60365924  0.00557541  0.79864391  1
  Pd  Pd172  1  0.00330002  0.80134058  -0.00213619  1
  Pd  Pd173  1  0.79655272  0.20183610  0.38985095  1
  Pd  Pd174  1  0.80350616  0.59509036  0.00393828  1
  Pd  Pd175  1  0.39215507  0.20639084  0.40903794  1
  Pd  Pd176  1  0.00112653  0.19105673  0.40147141  1
  Pd  Pd177  1  0.60631056  0.79503297  0.39695997  1
  Pd  Pd178  1  0.39569036  0.59218076  -0.00325306  1
  Pd  Pd179  1  -0.00865554  0.00050737  0.80506162  1
  Pd  Pd180  1  0.80285328  0.60518482  0.59479107  1
  Pd  Pd181  1  0.39226277  0.19282771  0.19199559  1
  Pd  Pd182  1  0.79247655  0.61155691  0.40753457  1
  Pd  Pd183  1  0.80137579  0.59428568  0.19038367  1
  Pd  Pd184  1  0.19878990  0.20715348  0.00915527  1
  Pd  Pd185  1  0.60736587  0.40440031  0.20822356  1
  Pd  Pd186  1  0.79206147  0.20289255  0.21131238  1
  Pd  Pd187  1  0.79263091  -0.00685787  0.19696136  1
  Pd  Pd188  1  0.39510542  0.79529020  0.19605310  1
  Pd  Pd189  1  0.19140787  0.41255100  0.58807344  1
  Pd  Pd190  1  0.39296456  0.20421631  0.00689394  1
  Pd  Pd191  1  0.40178727  -0.00751039  0.39121176  1
  Pd  Pd192  1  0.00003098  0.79652122  0.20148137  1
  Pd  Pd193  1  0.79826166  0.19020472  0.59862475  1
  Pd  Pd194  1  0.20703411  0.79288017  0.20037241  1
  Pd  Pd195  1  0.00285216  0.60871282  0.80844935  1
  Pd  Pd196  1  0.19916693  0.59340939  0.39667026  1
  Pd  Pd197  1  0.59629696  0.80177024  0.00880160  1
  Pd  Pd198  1  0.39254607  0.80848412  0.40077956  1
  Pd  Pd199  1  0.20090370  -0.00745836  0.00005885  1
  Rh  Rh200  1  0.00390025  -0.00428697  0.19324373  1
  Rh  Rh201  1  0.60148854  0.58573174  0.61135505  1
  Rh  Rh202  1  0.60896958  0.18500253  0.40810921  1
  Rh  Rh203  1  0.19621145  0.19393208  0.39777193  1
  Rh  Rh204  1  0.39162846  -0.00344540  -0.00402732  1
  Rh  Rh205  1  0.59955879  0.60602226  0.19821041  1
  Rh  Rh206  1  -0.00637022  0.39161403  0.01145438  1
  Rh  Rh207  1  0.19578377  0.39644875  0.20379731  1
  Rh  Rh208  1  0.59702084  0.80864423  0.19651999  1
  Rh  Rh209  1  0.80285228  0.80228444  0.20773858  1
  Rh  Rh210  1  0.20116274  0.60024598  0.79963025  1
  Rh  Rh211  1  0.59715033  0.39905484  -0.00252785  1
  Rh  Rh212  1  0.59875588  -0.00508595  0.01048012  1
  Rh  Rh213  1  0.59309261  0.19419081  -0.00340686  1
  Rh  Rh214  1  0.19847769  0.00275361  0.20504593  1
  Rh  Rh215  1  0.00641296  0.60755134  -0.00368067  1
  Rh  Rh216  1  0.00846251  0.60069893  0.38794948  1
  Rh  Rh217  1  0.00489998  0.80855814  0.59328763  1
  Rh  Rh218  1  0.00456200  0.20579543  0.59927547  1
  Rh  Rh219  1  0.79606431  0.79849813  -0.00663873  1
  Rh  Rh220  1  0.20749193  0.19961212  0.59624556  1
  Rh  Rh221  1  0.19445132  0.39467511  0.80824006  1
  Rh  Rh222  1  0.40544775  0.59305799  0.39336039  1
  Rh  Rh223  1  0.40724060  0.00307470  0.20323688  1
  Rh  Rh224  1  0.40419718  0.41767458  0.81703729  1
  Rh  Rh225  1  0.39626492  0.00167579  0.80770360  1
  Rh  Rh226  1  0.20289559  0.80573043  0.00525469  1
  Rh  Rh227  1  0.19660015  -0.00232340  0.39258638  1
  Rh  Rh228  1  0.80773198  0.20621980  -0.00417117  1
  Rh  Rh229  1  0.19947201  0.20625000  0.79829531  1
  Rh  Rh230  1  0.80776335  -0.00869839  0.39734036  1
  Rh  Rh231  1  0.19597309  0.60086420  -0.00582459  1
  Rh  Rh232  1  0.80171928  0.78777059  0.59330859  1
  Rh  Rh233  1  0.00315325  -0.00716196  0.59250824  1
  Rh  Rh234  1  0.59280960  0.81025559  0.60542002  1
  Rh  Rh235  1  -0.00365000  0.80018043  0.80388809  1
  Rh  Rh236  1  0.39986206  0.40681474  0.19738254  1
  Rh  Rh237  1  0.39824813  0.19155598  0.79424783  1
  Rh  Rh238  1  0.41074335  0.38807091  0.57917427  1
  Rh  Rh239  1  0.41351057  0.00035041  0.59813055  1
  Rh  Rh240  1  0.18914043  -0.01171781  0.60889525  1
  Rh  Rh241  1  0.00855829  0.39203407  0.78954098  1
  Rh  Rh242  1  0.01095911  0.19282192  0.19582413  1
  Rh  Rh243  1  0.20393398  0.80734154  0.40050342  1
  Rh  Rh244  1  0.60089160  0.00043830  0.39894639  1
  Rh  Rh245  1  0.60200441  0.18540078  0.19241899  1
  Rh  Rh246  1  0.60011737  0.60761644  -0.00125348  1
  Rh  Rh247  1  0.60234005  0.41026855  0.40181314  1
  Rh  Rh248  1  0.00931779  0.59014380  0.60295385  1
  Rh  Rh249  1  0.79433609  0.00780096  0.60346580  1
