# generated using pymatgen
data_ZrScNbPdRh
_symmetry_space_group_name_H-M   'P 1'
_cell_length_a   16.55788938
_cell_length_b   16.56450370
_cell_length_c   16.56328608
_cell_angle_alpha   90.01888680
_cell_angle_beta   89.97860908
_cell_angle_gamma   90.01128614
_symmetry_Int_Tables_number   1
_chemical_formula_structural   ZrScNbPdRh
_chemical_formula_sum   'Zr50 Sc50 Nb50 Pd50 Rh50'
_cell_volume   4542.86515375
_cell_formula_units_Z   50
loop_
 _symmetry_equiv_pos_site_id
 _symmetry_equiv_pos_as_xyz
  1  'x, y, z'
loop_
 _atom_site_type_symbol
 _atom_site_label
 _atom_site_symmetry_multiplicity
 _atom_site_fract_x
 _atom_site_fract_y
 _atom_site_fract_z
 _atom_site_occupancy
  Zr  Zr0  1  0.30254176  0.49336764  0.08979424  1
  Zr  Zr1  1  0.89003057  0.70698006  0.89571745  1
  Zr  Zr2  1  0.90025617  0.09905608  0.29218378  1
  Zr  Zr3  1  0.90194328  0.30079201  0.10212378  1
  Zr  Zr4  1  0.30696249  0.49797329  0.49693398  1
  Zr  Zr5  1  0.09918400  0.70266006  0.29843910  1
  Zr  Zr6  1  0.09083787  0.90897970  0.70619763  1
  Zr  Zr7  1  0.31020511  0.88826998  0.90131853  1
  Zr  Zr8  1  0.50520827  0.10777672  0.50085254  1
  Zr  Zr9  1  0.90960262  0.70722892  0.50240743  1
  Zr  Zr10  1  0.49893043  0.29806136  0.10072747  1
  Zr  Zr11  1  0.70320781  0.30415220  0.30372641  1
  Zr  Zr12  1  0.90009803  0.90898306  0.50637109  1
  Zr  Zr13  1  0.50538789  0.89552007  0.89822322  1
  Zr  Zr14  1  0.50104552  0.30266317  0.69627840  1
  Zr  Zr15  1  0.90425108  0.49381445  0.70373272  1
  Zr  Zr16  1  0.69614682  0.29577904  0.49509849  1
  Zr  Zr17  1  0.30365281  0.49863332  0.30195805  1
  Zr  Zr18  1  0.89748747  0.10482038  0.10474996  1
  Zr  Zr19  1  0.30395915  0.90772820  0.29105179  1
  Zr  Zr20  1  0.10085738  0.10842435  0.50034914  1
  Zr  Zr21  1  0.30694427  0.29287248  0.70943762  1
  Zr  Zr22  1  0.89040816  0.29569623  0.29959230  1
  Zr  Zr23  1  0.89634218  0.91006780  0.09869422  1
  Zr  Zr24  1  0.89964341  0.30088369  0.89687040  1
  Zr  Zr25  1  0.30295139  0.70117293  0.29604188  1
  Zr  Zr26  1  0.90036729  0.09560533  0.69246974  1
  Zr  Zr27  1  0.29984970  0.29727985  0.08792972  1
  Zr  Zr28  1  0.08745762  0.89749949  0.90231529  1
  Zr  Zr29  1  0.69373445  0.70957817  0.90264722  1
  Zr  Zr30  1  0.69409221  0.10032465  0.70567475  1
  Zr  Zr31  1  0.49742054  0.70402571  0.89972100  1
  Zr  Zr32  1  0.90604987  0.69883638  0.29996420  1
  Zr  Zr33  1  0.50472955  0.69149823  0.28882069  1
  Zr  Zr34  1  0.30070375  0.10857360  0.50444055  1
  Zr  Zr35  1  0.30421043  0.10135253  0.10264377  1
  Zr  Zr36  1  0.11096311  0.10217314  0.69986445  1
  Zr  Zr37  1  0.50579182  0.29880052  0.30602778  1
  Zr  Zr38  1  0.09588529  0.49979088  0.30054828  1
  Zr  Zr39  1  0.10037473  0.29667459  0.09391248  1
  Zr  Zr40  1  0.69163699  0.49765659  0.70265805  1
  Zr  Zr41  1  0.29689048  0.10675080  0.89453379  1
  Zr  Zr42  1  0.70393688  0.09627362  0.50640328  1
  Zr  Zr43  1  0.30654999  0.70158236  0.49994777  1
  Zr  Zr44  1  0.10156266  0.70680890  0.49959275  1
  Zr  Zr45  1  0.69778053  0.90696881  0.50073556  1
  Zr  Zr46  1  0.10138912  0.09553594  0.89353125  1
  Zr  Zr47  1  0.69961502  0.49719325  0.49675751  1
  Zr  Zr48  1  0.50393337  0.69973600  0.70168887  1
  Zr  Zr49  1  0.90002166  0.49602036  0.29797162  1
  Sc  Sc50  1  0.70208608  0.29402825  0.11156469  1
  Sc  Sc51  1  0.49917378  0.50124923  0.90755919  1
  Sc  Sc52  1  0.09432407  0.69296453  0.69923493  1
  Sc  Sc53  1  0.29729542  0.49002523  0.70045290  1
  Sc  Sc54  1  0.69629783  0.30023836  0.70707782  1
  Sc  Sc55  1  0.30673205  0.30484362  0.49830604  1
  Sc  Sc56  1  0.89766570  0.29633584  0.70133916  1
  Sc  Sc57  1  0.09895464  0.69502916  0.89599543  1
  Sc  Sc58  1  0.30494312  0.90030960  0.70219475  1
  Sc  Sc59  1  0.70261917  0.29414367  0.89249367  1
  Sc  Sc60  1  0.49809131  0.09953128  0.30191009  1
  Sc  Sc61  1  0.88826182  0.09513778  0.90602483  1
  Sc  Sc62  1  0.49974432  0.69127898  0.50666024  1
  Sc  Sc63  1  0.09289128  0.29864919  0.50070601  1
  Sc  Sc64  1  0.69457517  0.70946444  0.10453453  1
  Sc  Sc65  1  0.50809752  0.90873613  0.50379786  1
  Sc  Sc66  1  0.29502247  0.49229299  0.89647949  1
  Sc  Sc67  1  0.89716540  0.49717386  0.89602259  1
  Sc  Sc68  1  0.90522503  0.49411370  0.49203240  1
  Sc  Sc69  1  0.30251708  0.70660895  0.09021959  1
  Sc  Sc70  1  0.70191210  0.90434014  0.28557457  1
  Sc  Sc71  1  0.50226968  0.89841680  0.70687263  1
  Sc  Sc72  1  0.50019190  0.49599940  0.50248633  1
  Sc  Sc73  1  0.69630273  0.69324074  0.50110883  1
  Sc  Sc74  1  0.10353710  0.29672543  0.90399227  1
  Sc  Sc75  1  0.08953610  0.48782093  0.10238357  1
  Sc  Sc76  1  0.88947034  0.70795785  0.09721201  1
  Sc  Sc77  1  0.29844608  0.89971499  0.49967334  1
  Sc  Sc78  1  0.30125146  0.69309026  0.89952978  1
  Sc  Sc79  1  0.50951329  0.08937026  0.89608889  1
  Sc  Sc80  1  0.09823076  0.49703760  0.70191834  1
  Sc  Sc81  1  0.69557063  0.49849754  0.30656049  1
  Sc  Sc82  1  0.09530195  0.30318666  0.69534270  1
  Sc  Sc83  1  0.09802093  0.48369095  0.49835400  1
  Sc  Sc84  1  0.10114228  0.89842974  0.50464288  1
  Sc  Sc85  1  0.08878959  0.09838830  0.10360397  1
  Sc  Sc86  1  0.69855526  0.50577966  0.10724525  1
  Sc  Sc87  1  0.09810892  0.70662296  0.10104332  1
  Sc  Sc88  1  0.70029349  0.09639395  0.09104622  1
  Sc  Sc89  1  0.09435582  0.49421543  0.89180138  1
  Sc  Sc90  1  0.10063775  0.30627790  0.30708281  1
  Sc  Sc91  1  0.50591139  0.69473889  0.09168975  1
  Sc  Sc92  1  0.29994294  0.69933874  0.69815716  1
  Sc  Sc93  1  0.30368375  0.09881352  0.30894457  1
  Sc  Sc94  1  0.69188027  0.69658075  0.70683158  1
  Sc  Sc95  1  0.51004903  0.91405653  0.29435671  1
  Sc  Sc96  1  0.49596463  0.30194244  0.90063886  1
  Sc  Sc97  1  0.70087105  0.50319161  0.89238702  1
  Sc  Sc98  1  0.50664491  0.10025790  0.10296052  1
  Sc  Sc99  1  0.11061831  0.90526928  0.29800546  1
  Nb  Nb100  1  0.29747045  0.89927229  0.10130951  1
  Nb  Nb101  1  0.89689661  0.90446037  0.29357603  1
  Nb  Nb102  1  0.49758999  0.50294424  0.29247581  1
  Nb  Nb103  1  0.69891905  0.09166145  0.89792826  1
  Nb  Nb104  1  0.09833127  0.10493650  0.30053370  1
  Nb  Nb105  1  0.69894736  0.91369028  0.89889170  1
  Nb  Nb106  1  0.70369569  0.09714771  0.29961955  1
  Nb  Nb107  1  0.10395967  0.89898698  0.10110213  1
  Nb  Nb108  1  0.50434718  0.49924158  0.70460518  1
  Nb  Nb109  1  0.50044603  0.29498084  0.50126802  1
  Nb  Nb110  1  0.49508816  0.10334791  0.69951230  1
  Nb  Nb111  1  0.89761840  0.10783011  0.49915299  1
  Nb  Nb112  1  0.49995260  0.50015526  0.10208728  1
  Nb  Nb113  1  0.70247353  0.70422727  0.29804097  1
  Nb  Nb114  1  0.29606505  0.29680583  0.90973620  1
  Nb  Nb115  1  0.90004171  0.89508670  0.70379694  1
  Nb  Nb116  1  0.89534750  0.89917940  0.89379156  1
  Nb  Nb117  1  0.30497966  0.10245984  0.70333229  1
  Nb  Nb118  1  0.69008771  0.90197143  0.09917893  1
  Nb  Nb119  1  0.50333484  0.90270420  0.10174077  1
  Nb  Nb120  1  0.89623644  0.29186684  0.50188580  1
  Nb  Nb121  1  0.30128942  0.30446103  0.29649046  1
  Nb  Nb122  1  0.89899244  0.50119630  0.10363206  1
  Nb  Nb123  1  0.89753083  0.69994807  0.69365331  1
  Nb  Nb124  1  0.70012564  0.90470077  0.69634361  1
  Nb  Nb125  1  0.80102561  0.79970605  0.60345356  1
  Nb  Nb126  1  0.40485139  0.59497709  0.79641739  1
  Nb  Nb127  1  -0.00581277  0.59913960  0.00287639  1
  Nb  Nb128  1  -0.00009147  0.19184543  0.79907850  1
  Nb  Nb129  1  -0.00160029  0.81040815  0.19865844  1
  Nb  Nb130  1  0.19192958  0.59435282  0.00426420  1
  Nb  Nb131  1  0.19987335  0.59731697  0.59098414  1
  Nb  Nb132  1  0.60305160  0.79843490  0.39358280  1
  Nb  Nb133  1  0.80560423  0.59921438  0.60238819  1
  Nb  Nb134  1  0.80229316  0.60329190  0.20613570  1
  Nb  Nb135  1  -0.00261057  0.00813721  0.39703271  1
  Nb  Nb136  1  0.40050432  0.01190367  0.60612523  1
  Nb  Nb137  1  0.19631762  0.80240580  0.80118413  1
  Nb  Nb138  1  0.41068640  0.80173147  0.39185738  1
  Nb  Nb139  1  0.20036777  0.20194807  0.20488373  1
  Nb  Nb140  1  0.40396485  0.40067541  0.20014337  1
  Nb  Nb141  1  0.79779989  0.40112316  0.00577889  1
  Nb  Nb142  1  0.20135255  0.59880251  0.39978719  1
  Nb  Nb143  1  0.39703978  -0.00633549  0.00319968  1
  Nb  Nb144  1  0.19880837  0.59664537  0.19728261  1
  Nb  Nb145  1  0.60422586  0.39919209  0.00511432  1
  Nb  Nb146  1  0.79846645  0.80267967  0.39950666  1
  Nb  Nb147  1  0.79901856  0.40136419  0.59720392  1
  Nb  Nb148  1  0.40419024  0.80736249  0.19725802  1
  Nb  Nb149  1  0.20253138  -0.00742354  0.00293769  1
  Pd  Pd150  1  0.00236250  0.79150508  0.79574780  1
  Pd  Pd151  1  0.79912763  0.59521358  0.00658711  1
  Pd  Pd152  1  -0.00500689  0.20034355  0.39618059  1
  Pd  Pd153  1  -0.00191472  0.81855133  0.39160524  1
  Pd  Pd154  1  0.60285379  0.20473128  -0.00600046  1
  Pd  Pd155  1  0.59882574  0.40313992  0.19816947  1
  Pd  Pd156  1  -0.00028788  0.19324686  -0.00987642  1
  Pd  Pd157  1  0.78972499  0.80358416  0.79239978  1
  Pd  Pd158  1  -0.00093278  0.39035507  0.20500175  1
  Pd  Pd159  1  0.79133105  0.81266245  -0.00009633  1
  Pd  Pd160  1  0.39261344  0.60166996  0.18595468  1
  Pd  Pd161  1  0.39601898  0.59076308  0.60995308  1
  Pd  Pd162  1  0.60588681  0.19169464  0.39522406  1
  Pd  Pd163  1  0.21079140  -0.01094977  0.80719944  1
  Pd  Pd164  1  0.40870209  0.19891588  0.80963037  1
  Pd  Pd165  1  0.20370739  0.21286104  0.60241745  1
  Pd  Pd166  1  0.59427131  0.60109827  0.39881999  1
  Pd  Pd167  1  0.39623017  0.20315008  0.20750507  1
  Pd  Pd168  1  0.60741026  0.59429060  -0.00106692  1
  Pd  Pd169  1  0.20573177  0.20944009  0.39590623  1
  Pd  Pd170  1  0.19534041  0.00166292  0.40601645  1
  Pd  Pd171  1  0.20400128  0.39834035  0.19806097  1
  Pd  Pd172  1  -0.00501296  0.79483477  0.00499351  1
  Pd  Pd173  1  0.00517145  0.00579728  0.59405350  1
  Pd  Pd174  1  0.79252131  0.20733285  0.60757474  1
  Pd  Pd175  1  0.79243074  0.20583380  -0.00062958  1
  Pd  Pd176  1  0.79956099  0.60140981  0.79404236  1
  Pd  Pd177  1  0.20900663  0.80173138  0.39647059  1
  Pd  Pd178  1  0.60170629  0.39681488  0.59545728  1
  Pd  Pd179  1  0.60449736  0.79761133  0.59508656  1
  Pd  Pd180  1  0.19430551  0.79770701  0.61291431  1
  Pd  Pd181  1  0.40333408  0.40430665  0.80589304  1
  Pd  Pd182  1  0.40357555  -0.00414805  0.41099945  1
  Pd  Pd183  1  -0.00096096  0.00277359  -0.00124497  1
  Pd  Pd184  1  0.00361126  0.58990180  0.59385703  1
  Pd  Pd185  1  0.20313742  0.39778430  0.59805062  1
  Pd  Pd186  1  0.41250113  0.18734767  -0.00844840  1
  Pd  Pd187  1  0.19594373  0.79583852  -0.00706563  1
  Pd  Pd188  1  0.60481327  0.19323039  0.20537612  1
  Pd  Pd189  1  0.19569277  0.39103947  0.80260890  1
  Pd  Pd190  1  0.80248264  0.60693291  0.40144913  1
  Pd  Pd191  1  -0.00704357  0.60370417  0.80675772  1
  Pd  Pd192  1  0.80219204  -0.00083723  0.39646173  1
  Pd  Pd193  1  0.20798201  -0.00239246  0.59998432  1
  Pd  Pd194  1  0.19581059  0.01184115  0.19558640  1
  Pd  Pd195  1  0.59336462  0.20149209  0.80530821  1
  Pd  Pd196  1  0.40854616  0.39706120  0.39675912  1
  Pd  Pd197  1  0.40814266  0.81227068  0.59472431  1
  Pd  Pd198  1  0.00835297  0.59597640  0.40976498  1
  Pd  Pd199  1  0.80259641  0.00172318  0.79582341  1
  Rh  Rh200  1  0.79661449  0.41027405  0.19692937  1
  Rh  Rh201  1  0.59116764  0.00584103  0.60975158  1
  Rh  Rh202  1  -0.00051749  0.19833722  0.60589353  1
  Rh  Rh203  1  0.59077429  0.59882358  0.80787301  1
  Rh  Rh204  1  0.39445415  0.78626346  0.79363597  1
  Rh  Rh205  1  0.20082742  0.79466084  0.19807857  1
  Rh  Rh206  1  0.40080767  0.20216584  0.59925535  1
  Rh  Rh207  1  0.40427003  0.60551992  0.40138861  1
  Rh  Rh208  1  0.60968950  0.59828034  0.20052791  1
  Rh  Rh209  1  0.59143252  0.40318742  0.40105360  1
  Rh  Rh210  1  0.59940655  -0.00356682  0.79276097  1
  Rh  Rh211  1  0.00182831  0.38670425  0.80076236  1
  Rh  Rh212  1  0.40460008  -0.00154301  0.19281205  1
  Rh  Rh213  1  0.59314233  0.80169114  0.20170800  1
  Rh  Rh214  1  0.39299480  0.59413521  -0.00661642  1
  Rh  Rh215  1  -0.00872867  0.38849013  0.39851854  1
  Rh  Rh216  1  0.00035804  0.80581327  0.60854271  1
  Rh  Rh217  1  0.41120285  0.80389334  0.01139917  1
  Rh  Rh218  1  0.79667209  0.19332623  0.39844934  1
  Rh  Rh219  1  0.79257887  0.19270528  0.20044477  1
  Rh  Rh220  1  0.59655116  0.39890349  0.81145317  1
  Rh  Rh221  1  0.80403128  0.39546844  0.40731734  1
  Rh  Rh222  1  0.60461956  0.59599520  0.60081479  1
  Rh  Rh223  1  0.60504634  0.00960796  0.19761588  1
  Rh  Rh224  1  0.60199849  0.80699393  -0.00052109  1
  Rh  Rh225  1  0.80635672  0.79752667  0.20569334  1
  Rh  Rh226  1  -0.01466159  0.00559325  0.80434657  1
  Rh  Rh227  1  -0.01158742  0.39430856  0.59824236  1
  Rh  Rh228  1  0.59691324  -0.00300770  0.00098753  1
  Rh  Rh229  1  0.79733450  0.39913724  0.79837092  1
  Rh  Rh230  1  0.79569680  -0.00531151  0.00184156  1
  Rh  Rh231  1  0.20190366  0.40039494  0.40353871  1
  Rh  Rh232  1  0.60912933  0.80783440  0.79979233  1
  Rh  Rh233  1  0.40915146  0.40041087  0.00100482  1
  Rh  Rh234  1  0.40441726  0.39661499  0.60262268  1
  Rh  Rh235  1  0.79165934  0.00398896  0.19129169  1
  Rh  Rh236  1  0.60820432  0.00086796  0.39420713  1
  Rh  Rh237  1  0.00780885  -0.00644597  0.20715547  1
  Rh  Rh238  1  0.19115773  0.40662950  -0.00785732  1
  Rh  Rh239  1  0.40071468  0.00472900  0.80004144  1
  Rh  Rh240  1  0.60258996  0.20085443  0.60420359  1
  Rh  Rh241  1  0.19474262  0.20921206  0.79687645  1
  Rh  Rh242  1  -0.01010844  0.40730640  -0.00332928  1
  Rh  Rh243  1  0.19431881  0.18684605  0.00903045  1
  Rh  Rh244  1  0.20959472  0.60419595  0.79439086  1
  Rh  Rh245  1  0.39849243  0.20447920  0.39846068  1
  Rh  Rh246  1  0.80506018  0.19138620  0.79910356  1
  Rh  Rh247  1  -0.00429118  0.61149879  0.18642761  1
  Rh  Rh248  1  0.00888514  0.20843803  0.20645256  1
  Rh  Rh249  1  0.80036788  -0.00325138  0.60667349  1
