# generated using pymatgen
data_ZrScNbPdRh
_symmetry_space_group_name_H-M   'P 1'
_cell_length_a   16.55311915
_cell_length_b   16.55491410
_cell_length_c   16.55274233
_cell_angle_alpha   90.01075921
_cell_angle_beta   89.98452880
_cell_angle_gamma   89.98584225
_symmetry_Int_Tables_number   1
_chemical_formula_structural   ZrScNbPdRh
_chemical_formula_sum   'Zr50 Sc50 Nb50 Pd50 Rh50'
_cell_volume   4536.03806889
_cell_formula_units_Z   50
loop_
 _symmetry_equiv_pos_site_id
 _symmetry_equiv_pos_as_xyz
  1  'x, y, z'
loop_
 _atom_site_type_symbol
 _atom_site_label
 _atom_site_symmetry_multiplicity
 _atom_site_fract_x
 _atom_site_fract_y
 _atom_site_fract_z
 _atom_site_occupancy
  Zr  Zr0  1  0.30436706  0.30227897  0.29542122  1
  Zr  Zr1  1  0.30042710  0.29453585  0.89361391  1
  Zr  Zr2  1  0.09958875  0.51091958  0.30919417  1
  Zr  Zr3  1  0.69104857  0.50224192  0.89767828  1
  Zr  Zr4  1  0.49781175  0.30425387  0.30089767  1
  Zr  Zr5  1  0.69293510  0.70104725  0.69693700  1
  Zr  Zr6  1  0.69244264  0.29868616  0.89573125  1
  Zr  Zr7  1  0.10236399  0.69265432  0.90014400  1
  Zr  Zr8  1  0.10272154  0.29393971  0.28480363  1
  Zr  Zr9  1  0.49464603  0.30117076  0.89845652  1
  Zr  Zr10  1  0.90164301  0.69892247  0.69374110  1
  Zr  Zr11  1  0.30369389  0.88736597  0.70301256  1
  Zr  Zr12  1  0.09250758  0.10724379  0.71335191  1
  Zr  Zr13  1  0.09021575  0.49472304  0.50621372  1
  Zr  Zr14  1  0.89606915  0.90282339  0.90386034  1
  Zr  Zr15  1  0.70312901  0.09879649  0.89959513  1
  Zr  Zr16  1  0.30452248  0.90403023  0.30157968  1
  Zr  Zr17  1  0.10805180  0.10429567  0.50226164  1
  Zr  Zr18  1  0.70556455  0.10092110  0.30162713  1
  Zr  Zr19  1  0.49957891  0.49532482  0.89460424  1
  Zr  Zr20  1  0.89772787  0.10084553  0.70270875  1
  Zr  Zr21  1  0.90938733  0.50338252  0.68981309  1
  Zr  Zr22  1  0.30571224  0.69972442  0.49725542  1
  Zr  Zr23  1  0.49640498  0.09582717  0.09368918  1
  Zr  Zr24  1  0.10346898  0.90771582  0.90543327  1
  Zr  Zr25  1  0.69546105  0.89380739  0.09283799  1
  Zr  Zr26  1  0.91040752  0.50567718  0.90882633  1
  Zr  Zr27  1  0.29719481  0.10509477  0.50431750  1
  Zr  Zr28  1  0.50350780  0.89937907  0.49694891  1
  Zr  Zr29  1  0.49386352  0.49549610  0.50545743  1
  Zr  Zr30  1  0.90228676  0.69988240  0.30078732  1
  Zr  Zr31  1  0.10343267  0.10089671  0.10843299  1
  Zr  Zr32  1  0.50213709  0.09941870  0.50881311  1
  Zr  Zr33  1  0.90837467  0.09666468  0.89528648  1
  Zr  Zr34  1  0.49974134  0.49735045  0.09294699  1
  Zr  Zr35  1  0.69478114  0.50265100  0.69792507  1
  Zr  Zr36  1  0.70166187  0.30045363  0.10206356  1
  Zr  Zr37  1  0.90163422  0.89626983  0.30563137  1
  Zr  Zr38  1  0.10298690  0.89539814  0.10597572  1
  Zr  Zr39  1  0.29304159  0.30420914  0.09888287  1
  Zr  Zr40  1  0.50182356  0.69698477  0.49212004  1
  Zr  Zr41  1  0.69656530  0.89851423  0.89843486  1
  Zr  Zr42  1  0.09790260  0.70501857  0.30045586  1
  Zr  Zr43  1  0.09817818  0.89693969  0.50357438  1
  Zr  Zr44  1  0.09890147  0.48579917  0.09330511  1
  Zr  Zr45  1  0.48984256  0.29741230  0.09926412  1
  Zr  Zr46  1  0.29497744  0.69858637  0.09684446  1
  Zr  Zr47  1  0.50502364  0.89650161  0.69861976  1
  Zr  Zr48  1  0.49413362  0.10547982  0.90139190  1
  Zr  Zr49  1  0.29608065  0.50061443  0.29870775  1
  Sc  Sc50  1  0.49973323  0.49765284  0.30378957  1
  Sc  Sc51  1  0.29399945  0.90025764  0.90360962  1
  Sc  Sc52  1  0.90587326  0.28842632  0.69815290  1
  Sc  Sc53  1  0.30054578  0.50193516  0.50798112  1
  Sc  Sc54  1  0.50662236  0.90018786  0.30317245  1
  Sc  Sc55  1  0.70070734  0.68782394  0.10060037  1
  Sc  Sc56  1  0.69943269  0.30239633  0.29574718  1
  Sc  Sc57  1  0.50373032  0.09763176  0.29263184  1
  Sc  Sc58  1  0.10739161  0.50163268  0.89491310  1
  Sc  Sc59  1  0.89508521  0.50280351  0.10232040  1
  Sc  Sc60  1  0.90595636  0.30301718  0.10673165  1
  Sc  Sc61  1  0.49979929  0.90936534  0.10186286  1
  Sc  Sc62  1  0.50328953  0.69628829  0.89341335  1
  Sc  Sc63  1  0.49327075  0.30062781  0.70255785  1
  Sc  Sc64  1  0.69326852  0.70058523  0.91021136  1
  Sc  Sc65  1  0.69171422  0.50148210  0.50441742  1
  Sc  Sc66  1  0.69106014  0.68939600  0.29233629  1
  Sc  Sc67  1  0.10548072  0.50448278  0.69756667  1
  Sc  Sc68  1  0.69981154  0.90035799  0.49447942  1
  Sc  Sc69  1  0.90135201  0.71201163  0.50207391  1
  Sc  Sc70  1  0.70728424  0.10271630  0.10624587  1
  Sc  Sc71  1  0.29914463  0.89937987  0.50811773  1
  Sc  Sc72  1  0.51584295  0.69813248  0.09951068  1
  Sc  Sc73  1  0.69846981  0.29672187  0.69946954  1
  Sc  Sc74  1  0.90089945  0.10864255  0.50057060  1
  Sc  Sc75  1  0.49930258  0.50272319  0.70027476  1
  Sc  Sc76  1  0.29934019  0.90746124  0.09734943  1
  Sc  Sc77  1  0.30023329  0.50022316  0.69847148  1
  Sc  Sc78  1  0.70522682  0.91045697  0.30438352  1
  Sc  Sc79  1  0.50820343  0.90565165  0.90675247  1
  Sc  Sc80  1  0.10605896  0.70184418  0.10603430  1
  Sc  Sc81  1  0.70378293  0.49534387  0.28942623  1
  Sc  Sc82  1  0.10370741  0.30510819  0.70094261  1
  Sc  Sc83  1  0.29646814  0.11231172  0.70135621  1
  Sc  Sc84  1  0.11030356  0.30610018  0.90516011  1
  Sc  Sc85  1  0.30138560  0.49761910  0.90003612  1
  Sc  Sc86  1  0.69410439  0.89607443  0.69488423  1
  Sc  Sc87  1  0.69531033  0.10002937  0.49754891  1
  Sc  Sc88  1  0.29824606  0.69580767  0.89540139  1
  Sc  Sc89  1  0.30624684  0.09872106  0.09745918  1
  Sc  Sc90  1  0.69418084  0.10158054  0.69649688  1
  Sc  Sc91  1  0.90178720  0.29400173  0.90129034  1
  Sc  Sc92  1  0.68920365  0.30053788  0.49643145  1
  Sc  Sc93  1  0.90210446  0.90779657  0.10492113  1
  Sc  Sc94  1  0.09479336  0.69420234  0.50040990  1
  Sc  Sc95  1  0.69856288  0.70048011  0.50447472  1
  Sc  Sc96  1  0.90091780  0.89200004  0.69451290  1
  Sc  Sc97  1  0.29213014  0.69182256  0.30358712  1
  Sc  Sc98  1  0.89242141  0.09478001  0.28824072  1
  Sc  Sc99  1  0.10639961  0.89273506  0.70132800  1
  Nb  Nb100  1  0.90767834  0.31164743  0.49429984  1
  Nb  Nb101  1  0.48915530  0.30443306  0.49323033  1
  Nb  Nb102  1  0.29940192  0.30458268  0.50597745  1
  Nb  Nb103  1  0.89842556  0.10386550  0.09818196  1
  Nb  Nb104  1  0.29893959  0.30958499  0.70213248  1
  Nb  Nb105  1  0.90112872  0.69564210  0.90403617  1
  Nb  Nb106  1  0.30177958  0.69949505  0.69877602  1
  Nb  Nb107  1  0.29446420  0.09991158  0.90103180  1
  Nb  Nb108  1  0.49695258  0.70324667  0.69943843  1
  Nb  Nb109  1  0.10622476  0.09864643  0.30414569  1
  Nb  Nb110  1  0.49445658  0.09243100  0.69823641  1
  Nb  Nb111  1  0.10114597  0.29558702  0.09533456  1
  Nb  Nb112  1  0.09670217  0.69321796  0.70404882  1
  Nb  Nb113  1  0.09734147  0.90047769  0.29840087  1
  Nb  Nb114  1  0.10802858  0.10257660  0.90274514  1
  Nb  Nb115  1  0.30441350  0.49981242  0.10056785  1
  Nb  Nb116  1  0.09957328  0.30379476  0.49844907  1
  Nb  Nb117  1  0.89743042  0.31101495  0.30854054  1
  Nb  Nb118  1  0.89951918  0.90246118  0.49755782  1
  Nb  Nb119  1  0.89599293  0.69515284  0.09947051  1
  Nb  Nb120  1  0.49295242  0.69949899  0.29954892  1
  Nb  Nb121  1  0.69952527  0.50421118  0.09789302  1
  Nb  Nb122  1  0.90529198  0.48876981  0.48986460  1
  Nb  Nb123  1  0.89978867  0.49679993  0.30915991  1
  Nb  Nb124  1  0.29619618  0.10131347  0.30545923  1
  Nb  Nb125  1  0.00704732  0.19458108  0.00467848  1
  Nb  Nb126  1  0.80678561  0.39799402  0.59614734  1
  Nb  Nb127  1  0.80322431  0.79114616  0.80407741  1
  Nb  Nb128  1  0.39752971  0.20067812  0.40433745  1
  Nb  Nb129  1  0.00208907  0.20222953  0.39390249  1
  Nb  Nb130  1  0.19643197  0.80334274  0.39825260  1
  Nb  Nb131  1  0.40314690  0.79274694  0.20077589  1
  Nb  Nb132  1  0.80346510  0.60111197  0.80222679  1
  Nb  Nb133  1  0.40050995  0.60222831  0.19650242  1
  Nb  Nb134  1  0.80181239  0.79636134  0.19772064  1
  Nb  Nb135  1  0.80492346  0.40672020  0.79810377  1
  Nb  Nb136  1  0.80884825  0.21037716  0.39855042  1
  Nb  Nb137  1  0.39695575  0.00908842  0.40310698  1
  Nb  Nb138  1  0.19885376  0.39508307  0.40517007  1
  Nb  Nb139  1  -0.00348212  0.40325387  0.80073872  1
  Nb  Nb140  1  0.80595236  0.59201223  0.40057311  1
  Nb  Nb141  1  -0.00143179  0.00191507  0.59664702  1
  Nb  Nb142  1  0.00511161  0.00473343  0.39898055  1
  Nb  Nb143  1  0.40124184  0.79763249  0.00604711  1
  Nb  Nb144  1  0.79504161  0.40341760  -0.00414847  1
  Nb  Nb145  1  0.80666797  -0.00033228  0.59506535  1
  Nb  Nb146  1  -0.00253872  0.59854514  0.20331371  1
  Nb  Nb147  1  -0.00418274  0.79610850  -0.00096816  1
  Nb  Nb148  1  -0.00245249  0.79198228  0.80773903  1
  Nb  Nb149  1  0.39989373  0.00413307  0.79780005  1
  Pd  Pd150  1  0.79645244  0.20389699  0.58848574  1
  Pd  Pd151  1  0.19820764  0.59252641  0.00192737  1
  Pd  Pd152  1  0.00119390  -0.01375629  0.79059396  1
  Pd  Pd153  1  0.00345794  0.20106806  0.59425540  1
  Pd  Pd154  1  0.59680198  0.19864982  0.39608171  1
  Pd  Pd155  1  -0.00840475  0.19678203  0.20172670  1
  Pd  Pd156  1  0.40647422  0.80906466  0.81490080  1
  Pd  Pd157  1  0.40699069  0.79600696  0.59578738  1
  Pd  Pd158  1  0.59920651  0.19903258  0.19763901  1
  Pd  Pd159  1  -0.00021008  0.00318107  0.20505533  1
  Pd  Pd160  1  0.60190363  0.80259008  0.20320817  1
  Pd  Pd161  1  0.19713382  0.20816488  0.60911736  1
  Pd  Pd162  1  0.59660358  0.00369500  0.79807583  1
  Pd  Pd163  1  0.79688627  0.00389335  0.00470175  1
  Pd  Pd164  1  0.00407154  0.00240384  0.00695692  1
  Pd  Pd165  1  0.19624132  0.40560051  0.20265816  1
  Pd  Pd166  1  0.19565287  0.78685745  0.59594853  1
  Pd  Pd167  1  0.39723592  0.59727560  0.79546635  1
  Pd  Pd168  1  0.60605495  -0.00047565  0.19805221  1
  Pd  Pd169  1  0.40180936  0.20843025  0.60118163  1
  Pd  Pd170  1  0.20932259  0.00168458  0.79236779  1
  Pd  Pd171  1  0.60164967  0.19660639  0.00499099  1
  Pd  Pd172  1  0.19646375  0.00207420  0.61390547  1
  Pd  Pd173  1  0.60633435  0.59235436  0.39610251  1
  Pd  Pd174  1  0.59502669  0.40301141  0.19830270  1
  Pd  Pd175  1  0.00980087  0.60519640  0.01351209  1
  Pd  Pd176  1  0.20048198  -0.00864823  0.40228309  1
  Pd  Pd177  1  0.39827483  0.59296452  0.39583200  1
  Pd  Pd178  1  0.39276348  -0.00331551  0.60416066  1
  Pd  Pd179  1  0.59214079  0.20650499  0.60309365  1
  Pd  Pd180  1  0.79552967  -0.01026774  0.78725975  1
  Pd  Pd181  1  0.60237805  0.39677480  0.00335025  1
  Pd  Pd182  1  0.78875033  0.78801174  0.39263476  1
  Pd  Pd183  1  0.80701700  0.20495309  0.00085076  1
  Pd  Pd184  1  0.80487403  0.59248143  0.59031073  1
  Pd  Pd185  1  0.80352347  0.79593391  0.00395561  1
  Pd  Pd186  1  0.59861274  0.39223671  0.60416251  1
  Pd  Pd187  1  0.39610208  0.19234572  0.20425630  1
  Pd  Pd188  1  0.79930600  0.20523528  0.80064205  1
  Pd  Pd189  1  0.59294923  0.19606331  0.79237949  1
  Pd  Pd190  1  0.60873992  0.79760111  0.39221533  1
  Pd  Pd191  1  0.19497607  0.79328639  0.80435311  1
  Pd  Pd192  1  0.21140591  0.80282602  0.20806743  1
  Pd  Pd193  1  0.60525664  0.40658478  0.39759717  1
  Pd  Pd194  1  0.80456279  0.40066354  0.19354435  1
  Pd  Pd195  1  0.40566231  0.60795572  0.00196266  1
  Pd  Pd196  1  0.20554592  0.00326192  0.19914495  1
  Pd  Pd197  1  0.20007231  0.60366544  0.60021253  1
  Pd  Pd198  1  -0.00131820  0.40769935  0.20418846  1
  Pd  Pd199  1  0.20191855  0.21073024  0.39744549  1
  Rh  Rh200  1  0.38926253  0.39895609  0.40307401  1
  Rh  Rh201  1  0.80854110  0.01389820  0.40839914  1
  Rh  Rh202  1  0.39883772  0.39907605  0.60525257  1
  Rh  Rh203  1  0.40334917  0.60577283  0.60519054  1
  Rh  Rh204  1  -0.00158363  0.39164254  0.61075567  1
  Rh  Rh205  1  0.80663625  0.60180110  0.20741237  1
  Rh  Rh206  1  -0.00256283  0.60413084  0.59039944  1
  Rh  Rh207  1  0.40384243  0.41030102  0.19736220  1
  Rh  Rh208  1  0.60015303  0.39589502  0.79206997  1
  Rh  Rh209  1  0.60755541  0.00903514  0.00256664  1
  Rh  Rh210  1  0.39782115  0.19513895  0.79650463  1
  Rh  Rh211  1  0.60239826  0.79665260  0.80297277  1
  Rh  Rh212  1  0.20708941  0.40196812  -0.00238760  1
  Rh  Rh213  1  0.59161568  0.00528615  0.40142787  1
  Rh  Rh214  1  0.39550131  -0.00597057  -0.01277986  1
  Rh  Rh215  1  0.59137925  0.79914246  0.00004790  1
  Rh  Rh216  1  0.19944062  0.80196423  -0.00305955  1
  Rh  Rh217  1  0.39376111  0.80687037  0.39526991  1
  Rh  Rh218  1  0.58736854  0.60610757  0.59964015  1
  Rh  Rh219  1  0.79364707  0.59252119  -0.00469633  1
  Rh  Rh220  1  0.20107825  0.59893855  0.41398798  1
  Rh  Rh221  1  0.78681526  0.40124484  0.40916916  1
  Rh  Rh222  1  0.39222783  0.20272012  -0.00047928  1
  Rh  Rh223  1  0.19985660  0.00531777  0.00660390  1
  Rh  Rh224  1  0.19750516  0.40258797  0.79751297  1
  Rh  Rh225  1  0.59042931  0.59036413  0.20162861  1
  Rh  Rh226  1  0.00608394  0.80217948  0.60677026  1
  Rh  Rh227  1  0.59666844  0.59794534  -0.00232824  1
  Rh  Rh228  1  0.01617559  0.39183696  0.38770769  1
  Rh  Rh229  1  -0.00913727  0.79343178  0.18894696  1
  Rh  Rh230  1  0.79470148  0.81035777  0.60105343  1
  Rh  Rh231  1  0.79599213  -0.00935785  0.19259605  1
  Rh  Rh232  1  0.20868745  0.60118728  0.79272798  1
  Rh  Rh233  1  0.39723064  0.40409344  0.79755943  1
  Rh  Rh234  1  0.39426390  0.39519135  -0.00445994  1
  Rh  Rh235  1  0.60120853  0.60542762  0.79646940  1
  Rh  Rh236  1  -0.00099523  0.59785271  0.79744518  1
  Rh  Rh237  1  0.01104747  0.21112083  0.81627413  1
  Rh  Rh238  1  0.00718842  0.80633975  0.40204165  1
  Rh  Rh239  1  -0.00535881  0.38765694  -0.00641464  1
  Rh  Rh240  1  0.60917487  -0.00208940  0.59774328  1
  Rh  Rh241  1  0.19838547  0.20551442  0.79953638  1
  Rh  Rh242  1  0.20172013  0.39955025  0.59711049  1
  Rh  Rh243  1  0.40095202  -0.00242703  0.20871137  1
  Rh  Rh244  1  0.19686882  0.59011129  0.18872020  1
  Rh  Rh245  1  0.59587959  0.79733890  0.59279625  1
  Rh  Rh246  1  -0.00913615  0.60445093  0.40285786  1
  Rh  Rh247  1  0.20934057  0.19344545  0.19534614  1
  Rh  Rh248  1  0.19959141  0.19558689  0.00384995  1
  Rh  Rh249  1  0.80549979  0.20772324  0.20718529  1
