# generated using pymatgen
data_ZrScNbPdRh
_symmetry_space_group_name_H-M   'P 1'
_cell_length_a   16.55959488
_cell_length_b   16.55433692
_cell_length_c   16.55663272
_cell_angle_alpha   89.99338480
_cell_angle_beta   89.98568450
_cell_angle_gamma   89.99548578
_symmetry_Int_Tables_number   1
_chemical_formula_structural   ZrScNbPdRh
_chemical_formula_sum   'Zr50 Sc50 Nb50 Pd50 Rh50'
_cell_volume   4538.72108282
_cell_formula_units_Z   50
loop_
 _symmetry_equiv_pos_site_id
 _symmetry_equiv_pos_as_xyz
  1  'x, y, z'
loop_
 _atom_site_type_symbol
 _atom_site_label
 _atom_site_symmetry_multiplicity
 _atom_site_fract_x
 _atom_site_fract_y
 _atom_site_fract_z
 _atom_site_occupancy
  Zr  Zr0  1  0.09353507  0.09351350  0.91017635  1
  Zr  Zr1  1  0.30459946  0.09416819  0.90643925  1
  Zr  Zr2  1  0.09285314  0.68945008  0.11346629  1
  Zr  Zr3  1  0.50251416  0.50436440  0.09936309  1
  Zr  Zr4  1  0.30496024  0.29622127  0.70057756  1
  Zr  Zr5  1  0.29644962  0.90556284  0.70468604  1
  Zr  Zr6  1  0.89675678  0.10465078  0.09734458  1
  Zr  Zr7  1  0.89716370  0.09720774  0.49469339  1
  Zr  Zr8  1  0.90003769  0.89608395  0.69342182  1
  Zr  Zr9  1  0.09483708  0.90379091  0.29932070  1
  Zr  Zr10  1  0.29686289  0.49778430  0.30218377  1
  Zr  Zr11  1  0.30922956  0.29366824  0.50085033  1
  Zr  Zr12  1  0.10328374  0.30125082  0.28853455  1
  Zr  Zr13  1  0.30122316  0.09576494  0.69313174  1
  Zr  Zr14  1  0.09949459  0.30627689  0.90184276  1
  Zr  Zr15  1  0.49840839  0.90824617  0.68858027  1
  Zr  Zr16  1  0.89906495  0.49845208  0.50115148  1
  Zr  Zr17  1  0.29937885  0.30572956  0.30814904  1
  Zr  Zr18  1  0.09627401  0.09924636  0.29886561  1
  Zr  Zr19  1  0.50200698  0.49904110  0.50369806  1
  Zr  Zr20  1  0.89224350  0.30090225  0.69880433  1
  Zr  Zr21  1  0.30166896  0.49417578  0.49564066  1
  Zr  Zr22  1  0.29707703  0.49465085  0.89972075  1
  Zr  Zr23  1  0.50498742  0.30198030  0.50348577  1
  Zr  Zr24  1  0.89824979  0.30100671  0.90061870  1
  Zr  Zr25  1  0.70348185  0.29818201  0.50863525  1
  Zr  Zr26  1  0.50183210  0.30031247  0.09382272  1
  Zr  Zr27  1  0.49767944  0.68978094  0.69521263  1
  Zr  Zr28  1  0.70177984  0.70234026  0.69551315  1
  Zr  Zr29  1  0.10140302  0.49186343  0.10305988  1
  Zr  Zr30  1  0.70066271  0.50230688  0.29909164  1
  Zr  Zr31  1  0.69928244  0.90300878  0.69661243  1
  Zr  Zr32  1  0.69661361  0.89733191  0.29480555  1
  Zr  Zr33  1  0.10183474  0.50621919  0.29333460  1
  Zr  Zr34  1  0.49579232  0.29272180  0.30113853  1
  Zr  Zr35  1  0.69937610  0.10521616  0.49637156  1
  Zr  Zr36  1  0.70135908  0.49766738  0.49167069  1
  Zr  Zr37  1  0.29768552  0.29965402  0.89794397  1
  Zr  Zr38  1  0.49801808  0.89178001  0.10805806  1
  Zr  Zr39  1  0.89456545  0.09474200  0.70254695  1
  Zr  Zr40  1  0.10225026  0.89970830  0.71383163  1
  Zr  Zr41  1  0.29734267  0.70071679  0.70180056  1
  Zr  Zr42  1  0.49573501  0.09860881  0.10192876  1
  Zr  Zr43  1  0.49908297  0.49406998  0.69744461  1
  Zr  Zr44  1  0.70103838  0.69990931  0.89627313  1
  Zr  Zr45  1  0.89929799  0.49705231  0.89343039  1
  Zr  Zr46  1  0.90171813  0.10006775  0.29795852  1
  Zr  Zr47  1  0.10108964  0.70866776  0.89706516  1
  Zr  Zr48  1  0.10058452  0.50196252  0.69571252  1
  Zr  Zr49  1  0.10486112  0.50656250  0.49947504  1
  Sc  Sc50  1  0.49006707  0.90106335  0.91434691  1
  Sc  Sc51  1  0.11487133  0.30488823  0.50593116  1
  Sc  Sc52  1  0.68771850  0.89482072  0.50053800  1
  Sc  Sc53  1  0.50507909  0.49554873  0.89135800  1
  Sc  Sc54  1  0.89707442  0.29969679  0.28693220  1
  Sc  Sc55  1  0.30298663  0.89181582  0.50700945  1
  Sc  Sc56  1  0.50383188  0.89890651  0.29520656  1
  Sc  Sc57  1  0.29623032  0.50483050  0.10120723  1
  Sc  Sc58  1  0.90818821  0.49830076  0.69977436  1
  Sc  Sc59  1  0.10311077  0.69843593  0.69928621  1
  Sc  Sc60  1  0.29934181  0.11321483  0.29683074  1
  Sc  Sc61  1  0.89091148  0.09957943  0.90893602  1
  Sc  Sc62  1  0.70493145  0.90200218  0.10595387  1
  Sc  Sc63  1  0.69687295  0.29540414  0.30121943  1
  Sc  Sc64  1  0.50694565  0.10435920  0.50904734  1
  Sc  Sc65  1  0.50643494  0.30073763  0.69551880  1
  Sc  Sc66  1  0.50528433  0.30559142  0.88992510  1
  Sc  Sc67  1  0.11034223  0.30149598  0.70446654  1
  Sc  Sc68  1  0.89685564  0.49221133  0.10820330  1
  Sc  Sc69  1  0.90157964  0.29528167  0.09944048  1
  Sc  Sc70  1  0.70260566  0.71197887  0.10575884  1
  Sc  Sc71  1  0.30642004  0.69712319  0.09834915  1
  Sc  Sc72  1  0.09422796  0.09664567  0.10668158  1
  Sc  Sc73  1  0.50522688  0.49895964  0.29436894  1
  Sc  Sc74  1  0.90209145  0.91001658  0.89902386  1
  Sc  Sc75  1  0.30641435  0.89254634  0.29549932  1
  Sc  Sc76  1  0.10212952  0.49316177  0.90056818  1
  Sc  Sc77  1  0.29510981  0.69900822  0.50263819  1
  Sc  Sc78  1  0.28974568  0.89872955  0.90630146  1
  Sc  Sc79  1  0.69389379  0.69924088  0.49542789  1
  Sc  Sc80  1  0.88959106  0.49880178  0.29801684  1
  Sc  Sc81  1  0.70967779  0.90740581  0.90407533  1
  Sc  Sc82  1  0.30019767  0.69865384  0.90394538  1
  Sc  Sc83  1  0.30716777  0.50410697  0.70126140  1
  Sc  Sc84  1  0.50155115  0.70448239  0.28521658  1
  Sc  Sc85  1  0.69725914  0.10687500  0.69966825  1
  Sc  Sc86  1  0.91034155  0.69707785  0.69871215  1
  Sc  Sc87  1  0.70614100  0.30072635  0.10058861  1
  Sc  Sc88  1  0.69556350  0.49247399  0.10207604  1
  Sc  Sc89  1  0.69825127  0.09919416  0.29443359  1
  Sc  Sc90  1  0.09451920  0.90018064  0.50081020  1
  Sc  Sc91  1  0.10546720  0.09795273  0.50571732  1
  Sc  Sc92  1  0.29378892  0.69876643  0.30230580  1
  Sc  Sc93  1  0.30033270  0.90185348  0.09702667  1
  Sc  Sc94  1  0.29939225  0.29882231  0.10736911  1
  Sc  Sc95  1  0.10363030  0.70031308  0.49986124  1
  Sc  Sc96  1  0.30035995  0.10012867  0.10031509  1
  Sc  Sc97  1  0.10945084  0.09225447  0.69898429  1
  Sc  Sc98  1  0.90488780  0.90807970  0.30210348  1
  Sc  Sc99  1  0.70287519  0.69458611  0.29525976  1
  Nb  Nb100  1  0.49895322  0.10355788  0.90564878  1
  Nb  Nb101  1  0.89828860  0.89790215  0.10119010  1
  Nb  Nb102  1  0.09846838  0.29789657  0.09819499  1
  Nb  Nb103  1  0.69628022  0.30390752  0.89601617  1
  Nb  Nb104  1  0.49820699  0.89762153  0.49337633  1
  Nb  Nb105  1  0.50180087  0.10037139  0.70492358  1
  Nb  Nb106  1  0.69872510  0.10220829  0.90032241  1
  Nb  Nb107  1  0.89807181  0.70300564  0.10229251  1
  Nb  Nb108  1  0.89774947  0.70138961  0.50142962  1
  Nb  Nb109  1  0.70291948  0.10162261  0.09128024  1
  Nb  Nb110  1  0.49377793  0.70047912  0.49807320  1
  Nb  Nb111  1  0.50390786  0.09744393  0.29885985  1
  Nb  Nb112  1  0.69905130  0.49918007  0.90073463  1
  Nb  Nb113  1  0.50107841  0.70305421  0.08908503  1
  Nb  Nb114  1  0.09461032  0.69782207  0.30012736  1
  Nb  Nb115  1  0.10161421  0.90142557  0.91242414  1
  Nb  Nb116  1  0.90135536  0.69788764  0.29542175  1
  Nb  Nb117  1  0.29691785  0.10041963  0.50159670  1
  Nb  Nb118  1  0.89887077  0.29874920  0.50411980  1
  Nb  Nb119  1  0.50158101  0.70814527  0.90629356  1
  Nb  Nb120  1  0.89974607  0.69979329  0.90358318  1
  Nb  Nb121  1  0.89806555  0.89599612  0.50005048  1
  Nb  Nb122  1  0.69681355  0.29806475  0.70605808  1
  Nb  Nb123  1  0.69681377  0.50548600  0.70416901  1
  Nb  Nb124  1  0.09844098  0.90292800  0.09630598  1
  Nb  Nb125  1  0.40603535  0.79998169  0.79973105  1
  Nb  Nb126  1  0.79973104  0.59978549  0.59807715  1
  Nb  Nb127  1  0.60349048  0.60459577  -0.00333152  1
  Nb  Nb128  1  0.60066773  0.00752739  0.00154415  1
  Nb  Nb129  1  0.59533422  0.80531579  0.80182932  1
  Nb  Nb130  1  0.80757673  0.79832821  0.40042987  1
  Nb  Nb131  1  0.79941027  -0.00321025  0.59351293  1
  Nb  Nb132  1  0.40120315  0.40002771  -0.00096294  1
  Nb  Nb133  1  0.40502009  0.60218242  0.40198549  1
  Nb  Nb134  1  0.21008968  0.00154136  0.40092350  1
  Nb  Nb135  1  -0.00185705  0.20880930  0.40715016  1
  Nb  Nb136  1  0.79979043  0.60075439  -0.00274730  1
  Nb  Nb137  1  0.19459181  0.20263450  0.00158866  1
  Nb  Nb138  1  0.60380366  0.19854212  -0.00689084  1
  Nb  Nb139  1  0.80071022  0.79805619  0.79835397  1
  Nb  Nb140  1  -0.00502373  0.60308306  0.39616925  1
  Nb  Nb141  1  -0.00889198  0.60483310  0.00234535  1
  Nb  Nb142  1  0.18803679  0.79965299  0.19885562  1
  Nb  Nb143  1  0.40185740  0.00259848  0.40301628  1
  Nb  Nb144  1  -0.00046132  0.39839991  0.40160472  1
  Nb  Nb145  1  -0.00109166  0.79998905  0.00507223  1
  Nb  Nb146  1  -0.00053540  0.19837374  0.79842818  1
  Nb  Nb147  1  -0.00297426  0.20186596  0.60132119  1
  Nb  Nb148  1  0.59446313  0.00465661  0.80798338  1
  Nb  Nb149  1  0.40616009  0.19136053  0.79970033  1
  Pd  Pd150  1  0.19656132  0.79136991  0.01204903  1
  Pd  Pd151  1  0.00855164  0.79597886  0.60047106  1
  Pd  Pd152  1  0.59455282  0.60348686  0.80449364  1
  Pd  Pd153  1  -0.00203593  0.00399766  0.59666245  1
  Pd  Pd154  1  0.40791623  0.18915552  0.40510631  1
  Pd  Pd155  1  0.20645881  -0.00556242  0.20501271  1
  Pd  Pd156  1  0.00753870  0.59807696  0.80658281  1
  Pd  Pd157  1  -0.00397361  0.79470054  0.40043261  1
  Pd  Pd158  1  0.40316953  0.60482761  0.81005353  1
  Pd  Pd159  1  0.79941647  0.40268984  0.00292070  1
  Pd  Pd160  1  0.40436283  -0.00432556  0.80693520  1
  Pd  Pd161  1  0.59230139  0.79742776  0.59974127  1
  Pd  Pd162  1  0.60166411  0.79204776  0.39205981  1
  Pd  Pd163  1  0.80224080  0.19792002  0.80518755  1
  Pd  Pd164  1  0.60225421  0.39409871  0.20325751  1
  Pd  Pd165  1  0.79570803  0.59948788  0.18872154  1
  Pd  Pd166  1  0.40763267  0.59168327  -0.00888075  1
  Pd  Pd167  1  0.59847769  0.39507364  0.39516357  1
  Pd  Pd168  1  0.60455779  0.19869711  0.19327831  1
  Pd  Pd169  1  0.59476573  0.00222247  0.39950766  1
  Pd  Pd170  1  0.59078164  0.60702387  0.39299486  1
  Pd  Pd171  1  0.80412526  0.20710252  0.39225898  1
  Pd  Pd172  1  0.80164491  0.00146653  0.19744338  1
  Pd  Pd173  1  0.39507590  0.00152535  0.20908182  1
  Pd  Pd174  1  0.39893931  0.40232811  0.19425797  1
  Pd  Pd175  1  0.40023707  0.79688981  0.60472413  1
  Pd  Pd176  1  0.40204273  0.00496376  0.58796046  1
  Pd  Pd177  1  -0.00207894  0.80771295  0.19793350  1
  Pd  Pd178  1  0.40146509  0.79743237  0.39630121  1
  Pd  Pd179  1  0.80502278  0.38931402  0.39341206  1
  Pd  Pd180  1  0.00087421  0.00393628  0.80390689  1
  Pd  Pd181  1  0.80546417  0.60294967  0.79458819  1
  Pd  Pd182  1  0.79363751  0.40332709  0.79494950  1
  Pd  Pd183  1  0.19149532  0.19703441  0.40220272  1
  Pd  Pd184  1  -0.00626847  0.80461711  0.80696175  1
  Pd  Pd185  1  0.19868228  0.80671472  0.39448557  1
  Pd  Pd186  1  -0.00632851  0.40544532  0.00497514  1
  Pd  Pd187  1  0.00542639  0.39159272  0.59883037  1
  Pd  Pd188  1  0.39770055  0.60443215  0.20654621  1
  Pd  Pd189  1  0.79019791  -0.01188565  0.40410830  1
  Pd  Pd190  1  0.60657032  0.59707837  0.59495961  1
  Pd  Pd191  1  0.21105150  0.40271961  0.60531584  1
  Pd  Pd192  1  0.60887129  0.80813861  -0.00208413  1
  Pd  Pd193  1  0.79279376  0.40901229  0.60904382  1
  Pd  Pd194  1  0.39778938  0.20062397  0.19967725  1
  Pd  Pd195  1  0.19061300  0.60277346  0.00004775  1
  Pd  Pd196  1  0.19863701  0.18788039  0.80717070  1
  Pd  Pd197  1  0.80429699  0.80186664  -0.00450160  1
  Pd  Pd198  1  0.19563143  0.59748566  0.80304922  1
  Pd  Pd199  1  0.19261542  0.80377445  0.60192159  1
  Rh  Rh200  1  0.20025953  0.60212894  0.39938228  1
  Rh  Rh201  1  0.60681146  0.40307720  0.79226943  1
  Rh  Rh202  1  0.40188331  -0.00477771  0.00734549  1
  Rh  Rh203  1  0.79993195  0.19384454  0.60250847  1
  Rh  Rh204  1  0.60124266  0.00352384  0.19252010  1
  Rh  Rh205  1  -0.00104629  0.39964271  0.20295610  1
  Rh  Rh206  1  0.79227464  0.20971003  -0.00491557  1
  Rh  Rh207  1  0.60501664  0.00604836  0.59948535  1
  Rh  Rh208  1  0.20116501  -0.00940964  0.59164985  1
  Rh  Rh209  1  -0.00095814  0.19935713  0.20249606  1
  Rh  Rh210  1  0.20676046  0.80248448  0.80288728  1
  Rh  Rh211  1  0.39897104  0.39748007  0.60121716  1
  Rh  Rh212  1  0.59638061  0.39989891  -0.00320180  1
  Rh  Rh213  1  -0.00842339  -0.00608938  0.00768159  1
  Rh  Rh214  1  0.39318105  0.79363256  0.19472221  1
  Rh  Rh215  1  0.20168232  0.40970131  0.79132462  1
  Rh  Rh216  1  0.39891978  0.39131045  0.80099685  1
  Rh  Rh217  1  0.19693874  -0.00067553  0.81053946  1
  Rh  Rh218  1  0.60270204  0.20114159  0.60529916  1
  Rh  Rh219  1  0.19759951  0.19849450  0.60078037  1
  Rh  Rh220  1  0.80723319  0.80465669  0.21287914  1
  Rh  Rh221  1  0.39457699  0.59911050  0.58947921  1
  Rh  Rh222  1  -0.00759716  -0.00002219  0.19231596  1
  Rh  Rh223  1  0.80164462  0.79819840  0.59647202  1
  Rh  Rh224  1  -0.00362386  0.60487561  0.59205839  1
  Rh  Rh225  1  0.39984528  0.21312368  -0.00791687  1
  Rh  Rh226  1  0.00562251  0.20413992  -0.00536512  1
  Rh  Rh227  1  0.20435840  0.39845491  0.19650366  1
  Rh  Rh228  1  0.79149492  -0.00378823  0.79350888  1
  Rh  Rh229  1  0.79667508  0.19689133  0.19897077  1
  Rh  Rh230  1  0.61102449  0.40161928  0.60649155  1
  Rh  Rh231  1  0.39061905  0.80193369  -0.00206295  1
  Rh  Rh232  1  0.80584690  0.61004155  0.40501265  1
  Rh  Rh233  1  -0.01118302  0.59054434  0.20296408  1
  Rh  Rh234  1  0.00968691  0.00746339  0.40696664  1
  Rh  Rh235  1  0.19989941  0.00920863  0.00585806  1
  Rh  Rh236  1  0.60356315  0.60546022  0.18672990  1
  Rh  Rh237  1  0.20904779  0.39173578  0.00770016  1
  Rh  Rh238  1  0.19717395  0.20004509  0.19112195  1
  Rh  Rh239  1  0.19101818  0.39992395  0.39643335  1
  Rh  Rh240  1  0.59739720  0.19757815  0.80236533  1
  Rh  Rh241  1  0.79295856  0.39614980  0.20233947  1
  Rh  Rh242  1  0.20734711  0.60593760  0.20113611  1
  Rh  Rh243  1  0.20576248  0.59913959  0.60188092  1
  Rh  Rh244  1  0.60111694  0.79752097  0.19814943  1
  Rh  Rh245  1  0.41092469  0.40706451  0.39743648  1
  Rh  Rh246  1  0.79854686  -0.00164515  0.00601677  1
  Rh  Rh247  1  0.00385687  0.39265785  0.79299380  1
  Rh  Rh248  1  0.59715666  0.19818291  0.39837272  1
  Rh  Rh249  1  0.40384102  0.19692344  0.60571476  1
