# generated using pymatgen
data_ZrScNbPdRh
_symmetry_space_group_name_H-M   'P 1'
_cell_length_a   16.55899295
_cell_length_b   16.56572550
_cell_length_c   16.56222383
_cell_angle_alpha   89.99114003
_cell_angle_beta   90.03524790
_cell_angle_gamma   90.01149585
_symmetry_Int_Tables_number   1
_chemical_formula_structural   ZrScNbPdRh
_chemical_formula_sum   'Zr50 Sc50 Nb50 Pd50 Rh50'
_cell_volume   4543.21129477
_cell_formula_units_Z   50
loop_
 _symmetry_equiv_pos_site_id
 _symmetry_equiv_pos_as_xyz
  1  'x, y, z'
loop_
 _atom_site_type_symbol
 _atom_site_label
 _atom_site_symmetry_multiplicity
 _atom_site_fract_x
 _atom_site_fract_y
 _atom_site_fract_z
 _atom_site_occupancy
  Zr  Zr0  1  0.29347320  0.29148943  0.89986230  1
  Zr  Zr1  1  0.28748528  0.49704288  0.49368336  1
  Zr  Zr2  1  0.09874032  0.50511192  0.49526465  1
  Zr  Zr3  1  0.69835988  0.49148100  0.69648391  1
  Zr  Zr4  1  0.10077400  0.69846896  0.70349442  1
  Zr  Zr5  1  0.89608372  0.69979079  0.09291312  1
  Zr  Zr6  1  0.29597423  0.49498117  0.29409917  1
  Zr  Zr7  1  0.90155853  0.30521723  0.10016421  1
  Zr  Zr8  1  0.30401100  0.09894940  0.29177583  1
  Zr  Zr9  1  0.29502964  0.70063934  0.30125224  1
  Zr  Zr10  1  0.29744259  0.89593519  0.90380797  1
  Zr  Zr11  1  0.10240103  0.30397801  0.09373625  1
  Zr  Zr12  1  0.69813256  0.90087359  0.50062206  1
  Zr  Zr13  1  0.30239547  0.30137936  0.30474157  1
  Zr  Zr14  1  0.70533661  0.89628078  0.69434883  1
  Zr  Zr15  1  0.70325367  0.69511734  0.10479990  1
  Zr  Zr16  1  0.70486582  0.89862991  0.89827573  1
  Zr  Zr17  1  0.50108449  0.69499395  0.29526546  1
  Zr  Zr18  1  0.89574922  0.29963420  0.70125466  1
  Zr  Zr19  1  0.10358841  0.69698489  0.49944151  1
  Zr  Zr20  1  0.29374457  0.28816314  0.69729172  1
  Zr  Zr21  1  0.09912198  0.89874964  0.69564717  1
  Zr  Zr22  1  0.10776956  0.09493326  0.29974158  1
  Zr  Zr23  1  0.48537301  0.30107320  0.69614400  1
  Zr  Zr24  1  0.30021103  0.90503091  0.70023865  1
  Zr  Zr25  1  0.29978987  0.69954971  0.70340689  1
  Zr  Zr26  1  0.89272395  0.29172437  0.89250758  1
  Zr  Zr27  1  0.90221451  0.89180814  0.90152462  1
  Zr  Zr28  1  0.89082994  0.89679904  0.50511377  1
  Zr  Zr29  1  0.50175332  0.90185111  0.49904183  1
  Zr  Zr30  1  0.29234471  0.09681487  0.89419248  1
  Zr  Zr31  1  0.30720687  0.29951515  0.50188517  1
  Zr  Zr32  1  0.49583780  0.50068124  0.10306883  1
  Zr  Zr33  1  0.69323950  0.30824323  0.50362089  1
  Zr  Zr34  1  0.10158074  0.49759282  0.90119420  1
  Zr  Zr35  1  0.49825402  0.49453965  0.29965271  1
  Zr  Zr36  1  0.11253455  0.69742633  0.89651830  1
  Zr  Zr37  1  0.09982766  0.50363165  0.70055787  1
  Zr  Zr38  1  0.29548782  0.30485771  0.10141519  1
  Zr  Zr39  1  0.69648212  0.10147711  0.10252500  1
  Zr  Zr40  1  0.09864230  0.09981589  0.10584275  1
  Zr  Zr41  1  0.29709160  0.89992781  0.50207245  1
  Zr  Zr42  1  0.49804460  0.09793203  0.10047719  1
  Zr  Zr43  1  0.69567045  0.29008001  0.30560131  1
  Zr  Zr44  1  0.10263076  0.69997145  0.29854691  1
  Zr  Zr45  1  0.70048979  0.90492489  0.30300567  1
  Zr  Zr46  1  0.49607874  0.90498108  0.09924831  1
  Zr  Zr47  1  0.09642981  0.29118621  0.28982105  1
  Zr  Zr48  1  0.70572881  0.50055018  0.50742591  1
  Zr  Zr49  1  0.49719068  0.50412356  0.89525023  1
  Sc  Sc50  1  0.69767825  0.69749015  0.69422711  1
  Sc  Sc51  1  0.29209496  0.50275170  0.89691498  1
  Sc  Sc52  1  0.70377699  0.50771484  0.29071540  1
  Sc  Sc53  1  0.10607275  0.89981416  0.90691381  1
  Sc  Sc54  1  0.29508611  0.70499993  0.10159375  1
  Sc  Sc55  1  0.70269737  0.70208160  0.30073665  1
  Sc  Sc56  1  0.10383862  0.10358988  0.69007732  1
  Sc  Sc57  1  0.49691125  0.09965095  0.90249022  1
  Sc  Sc58  1  0.70135263  0.09318042  0.70002293  1
  Sc  Sc59  1  0.09456586  0.30652847  0.89485293  1
  Sc  Sc60  1  0.50087714  0.90751111  0.69373378  1
  Sc  Sc61  1  0.28840446  0.10084271  0.50425504  1
  Sc  Sc62  1  0.89771118  0.49746087  0.10761822  1
  Sc  Sc63  1  0.50672981  0.10690791  0.29872092  1
  Sc  Sc64  1  0.29717110  0.70907066  0.49887680  1
  Sc  Sc65  1  0.30413937  0.90394629  0.10066921  1
  Sc  Sc66  1  0.49867752  0.71466542  0.50463947  1
  Sc  Sc67  1  0.90177706  0.69198248  0.30107788  1
  Sc  Sc68  1  0.70411186  0.10836700  0.90760607  1
  Sc  Sc69  1  0.90182149  0.89382108  0.69968280  1
  Sc  Sc70  1  0.90618873  0.70580430  0.89886266  1
  Sc  Sc71  1  0.69849431  0.29964381  0.90318824  1
  Sc  Sc72  1  0.30106951  0.10613739  0.09869462  1
  Sc  Sc73  1  0.91239370  0.10847721  0.29402751  1
  Sc  Sc74  1  0.89622339  0.28927179  0.50242734  1
  Sc  Sc75  1  0.69381845  0.49092588  0.89493243  1
  Sc  Sc76  1  0.11117881  0.29008146  0.49610388  1
  Sc  Sc77  1  0.90650057  0.70780442  0.70500400  1
  Sc  Sc78  1  0.90173395  0.10127886  0.50898607  1
  Sc  Sc79  1  0.70323977  0.70809866  0.50349463  1
  Sc  Sc80  1  0.50840534  0.48068903  0.50001195  1
  Sc  Sc81  1  0.91024992  0.90771188  0.09881787  1
  Sc  Sc82  1  0.29777584  0.49630299  0.69973389  1
  Sc  Sc83  1  0.49836885  0.09800812  0.50114595  1
  Sc  Sc84  1  0.28671817  0.89976261  0.29874242  1
  Sc  Sc85  1  0.90260715  0.11296162  0.69874782  1
  Sc  Sc86  1  0.71736414  0.70400443  0.90662684  1
  Sc  Sc87  1  0.89781015  0.69361555  0.49551781  1
  Sc  Sc88  1  0.50004118  0.30615815  0.90092321  1
  Sc  Sc89  1  0.10346785  0.69932642  0.10634727  1
  Sc  Sc90  1  0.89717559  0.49422501  0.69673429  1
  Sc  Sc91  1  0.70523536  0.50032552  0.10046058  1
  Sc  Sc92  1  0.49986846  0.29266403  0.09193505  1
  Sc  Sc93  1  0.50154512  0.69292864  0.70153144  1
  Sc  Sc94  1  0.49463370  0.90871857  0.90909761  1
  Sc  Sc95  1  0.90411384  0.48373574  0.89992330  1
  Sc  Sc96  1  0.49251025  0.70646353  0.10780531  1
  Sc  Sc97  1  0.50354639  0.90053087  0.29937031  1
  Sc  Sc98  1  0.50218348  0.50018155  0.70747279  1
  Sc  Sc99  1  0.70299652  0.09697097  0.49896256  1
  Nb  Nb100  1  0.89636578  0.10344089  0.09254915  1
  Nb  Nb101  1  0.09579866  0.90211857  0.29522374  1
  Nb  Nb102  1  0.50173347  0.29914018  0.49393592  1
  Nb  Nb103  1  0.90430731  0.49799240  0.30344452  1
  Nb  Nb104  1  0.31049592  0.10722565  0.70270537  1
  Nb  Nb105  1  0.10062064  0.50454237  0.29977930  1
  Nb  Nb106  1  0.11265440  0.49853886  0.09754287  1
  Nb  Nb107  1  0.69946750  0.90139653  0.10355795  1
  Nb  Nb108  1  0.70024915  0.30308362  0.70470666  1
  Nb  Nb109  1  0.09977204  0.08980216  0.49984068  1
  Nb  Nb110  1  0.09197023  0.30185517  0.69336866  1
  Nb  Nb111  1  0.90217389  0.30348622  0.29604271  1
  Nb  Nb112  1  0.09899597  0.90319577  0.11591576  1
  Nb  Nb113  1  0.89845400  0.09951673  0.90175114  1
  Nb  Nb114  1  0.70410687  0.09869458  0.29794217  1
  Nb  Nb115  1  0.90120563  0.49682898  0.49373754  1
  Nb  Nb116  1  0.09989262  0.10109429  0.90558508  1
  Nb  Nb117  1  0.90348195  0.90021197  0.30120362  1
  Nb  Nb118  1  0.30264569  0.70137108  0.90178791  1
  Nb  Nb119  1  0.29207248  0.49842457  0.09857475  1
  Nb  Nb120  1  0.10450303  0.90831658  0.49858665  1
  Nb  Nb121  1  0.49300892  0.10655942  0.70298086  1
  Nb  Nb122  1  0.49691067  0.69989220  0.90104981  1
  Nb  Nb123  1  0.50374200  0.30538370  0.31805863  1
  Nb  Nb124  1  0.69536325  0.29242273  0.10044626  1
  Nb  Nb125  1  0.80836944  0.40025863  0.39467804  1
  Nb  Nb126  1  0.59505031  0.59947253  0.40209143  1
  Nb  Nb127  1  0.80700312  0.00145332  0.39188617  1
  Nb  Nb128  1  0.00206587  -0.00410751  0.40238221  1
  Nb  Nb129  1  0.59389810  0.60668750  -0.00174572  1
  Nb  Nb130  1  -0.00354797  0.19410464  -0.00357949  1
  Nb  Nb131  1  0.00112428  0.39850216  0.59105488  1
  Nb  Nb132  1  0.80926228  0.00120370  0.80447220  1
  Nb  Nb133  1  0.39684773  0.60241050  -0.00163832  1
  Nb  Nb134  1  -0.00217820  0.39973300  0.39620495  1
  Nb  Nb135  1  0.79902797  0.20087809  0.19818912  1
  Nb  Nb136  1  0.59567794  0.20029122  0.79146066  1
  Nb  Nb137  1  0.59324601  0.20445873  0.60576986  1
  Nb  Nb138  1  0.60075769  0.79911636  0.00120844  1
  Nb  Nb139  1  0.39596052  -0.00138919  0.39963590  1
  Nb  Nb140  1  0.80257680  0.80980698  0.20070961  1
  Nb  Nb141  1  0.00418819  0.80857602  0.39938182  1
  Nb  Nb142  1  0.39859255  0.59727529  0.59127396  1
  Nb  Nb143  1  0.00766394  0.59315082  0.00124575  1
  Nb  Nb144  1  0.40312428  0.59702556  0.40402344  1
  Nb  Nb145  1  0.59593779  0.79983915  0.80880925  1
  Nb  Nb146  1  0.59928263  0.38917675  0.20242021  1
  Nb  Nb147  1  0.80074741  0.59619696  0.79898523  1
  Nb  Nb148  1  -0.00108691  0.00626540  0.80688269  1
  Nb  Nb149  1  0.40287127  0.79837806  0.80595776  1
  Pd  Pd150  1  0.00009022  0.59561798  0.19220451  1
  Pd  Pd151  1  0.60087660  0.18947517  0.41057459  1
  Pd  Pd152  1  0.18656165  0.19908942  0.79549914  1
  Pd  Pd153  1  0.80553014  0.58612176  -0.01130643  1
  Pd  Pd154  1  0.01258716  0.79329959  0.00292200  1
  Pd  Pd155  1  0.79473564  0.39894167  -0.00138159  1
  Pd  Pd156  1  0.39333350  0.80851625  0.20693745  1
  Pd  Pd157  1  0.61449026  0.61019087  0.80926069  1
  Pd  Pd158  1  0.60464436  -0.00065215  -0.00261269  1
  Pd  Pd159  1  0.80646260  0.19620107  0.39472692  1
  Pd  Pd160  1  0.00445365  0.00185846  -0.00166234  1
  Pd  Pd161  1  0.40255982  -0.00542872  0.80324158  1
  Pd  Pd162  1  0.39877977  0.19750263  -0.00502489  1
  Pd  Pd163  1  0.39068180  0.39846072  0.80299261  1
  Pd  Pd164  1  0.80898362  0.60490419  0.60798974  1
  Pd  Pd165  1  0.39871202  0.18952371  0.40404541  1
  Pd  Pd166  1  0.79827485  -0.00435650  -0.00122794  1
  Pd  Pd167  1  0.19043899  0.00444010  0.79355393  1
  Pd  Pd168  1  0.00831180  0.40876237  0.19970758  1
  Pd  Pd169  1  0.00711225  0.19503683  0.80296149  1
  Pd  Pd170  1  0.60545426  0.80063754  0.19609981  1
  Pd  Pd171  1  0.58921738  0.60010012  0.58938592  1
  Pd  Pd172  1  0.19527505  0.80242672  0.01103997  1
  Pd  Pd173  1  0.39858339  0.40856460  0.59736016  1
  Pd  Pd174  1  0.40852477  0.21038708  0.20240999  1
  Pd  Pd175  1  0.39489556  0.00749667  0.59326419  1
  Pd  Pd176  1  0.19247060  0.39687582  0.60037318  1
  Pd  Pd177  1  0.60267254  0.40581633  0.00891919  1
  Pd  Pd178  1  0.79142575  0.59656711  0.39820322  1
  Pd  Pd179  1  0.59482562  0.00295586  0.20433912  1
  Pd  Pd180  1  0.20171058  -0.00027966  0.01000232  1
  Pd  Pd181  1  -0.00638374  0.00128060  0.60521215  1
  Pd  Pd182  1  0.39132243  0.40694164  -0.00588017  1
  Pd  Pd183  1  0.40810166  0.38707087  0.19783286  1
  Pd  Pd184  1  0.19887118  0.79876565  0.60124816  1
  Pd  Pd185  1  0.60002352  0.00829316  0.60030568  1
  Pd  Pd186  1  0.81022767  0.00480436  0.20250856  1
  Pd  Pd187  1  -0.00839787  0.59697154  0.60048134  1
  Pd  Pd188  1  0.60516346  0.00283705  0.80271473  1
  Pd  Pd189  1  0.39959610  0.80389073  0.39161301  1
  Pd  Pd190  1  0.20333075  0.19654354  0.39793853  1
  Pd  Pd191  1  0.38902856  0.60163921  0.19704804  1
  Pd  Pd192  1  0.00003544  0.19709262  0.40688257  1
  Pd  Pd193  1  -0.00043697  0.79543285  0.58969726  1
  Pd  Pd194  1  0.20012948  0.39566820  0.79714078  1
  Pd  Pd195  1  0.78693364  0.19831051  0.60412555  1
  Pd  Pd196  1  -0.00972025  0.59493442  0.80831285  1
  Pd  Pd197  1  0.60172862  0.79347955  0.39895010  1
  Pd  Pd198  1  0.78964478  0.39283818  0.20575440  1
  Pd  Pd199  1  -0.00760596  0.79476791  0.20258288  1
  Rh  Rh200  1  0.79833319  0.81061057  0.01537055  1
  Rh  Rh201  1  -0.00368927  0.00652627  0.20197343  1
  Rh  Rh202  1  0.59670371  0.80104147  0.61072807  1
  Rh  Rh203  1  0.59914209  0.20408963  0.20135424  1
  Rh  Rh204  1  0.20274931  0.60180668  0.00339121  1
  Rh  Rh205  1  0.40412626  0.20019276  0.81066337  1
  Rh  Rh206  1  0.80614583  0.00282417  0.60464880  1
  Rh  Rh207  1  0.19472657  0.39819760  0.20524213  1
  Rh  Rh208  1  0.40393636  0.79580817  -0.00161412  1
  Rh  Rh209  1  0.20181782  -0.00118782  0.39788114  1
  Rh  Rh210  1  0.00319864  0.60180106  0.39724984  1
  Rh  Rh211  1  0.18831903  0.39442421  0.38913066  1
  Rh  Rh212  1  0.20865242  0.60407328  0.60231814  1
  Rh  Rh213  1  0.20138348  0.59825688  0.19899783  1
  Rh  Rh214  1  0.60065378  0.00449894  0.39871378  1
  Rh  Rh215  1  0.20535427  0.20163309  0.19727484  1
  Rh  Rh216  1  0.19055781  0.80452938  0.40018839  1
  Rh  Rh217  1  0.78779180  0.19219805  0.79620697  1
  Rh  Rh218  1  0.79250251  0.79499162  0.79076245  1
  Rh  Rh219  1  0.80405212  0.79098063  0.60222128  1
  Rh  Rh220  1  0.40338229  0.79441899  0.61465588  1
  Rh  Rh221  1  0.20482258  0.80314344  0.79825498  1
  Rh  Rh222  1  0.20038705  0.80467158  0.19725933  1
  Rh  Rh223  1  0.01325482  0.80923996  0.80470514  1
  Rh  Rh224  1  0.40231984  -0.00235069  0.20795717  1
  Rh  Rh225  1  0.61774538  0.41168264  0.38955674  1
  Rh  Rh226  1  0.19223335  0.20173454  -0.00091955  1
  Rh  Rh227  1  0.79718316  0.40384487  0.80160279  1
  Rh  Rh228  1  0.20422366  -0.00086399  0.19405219  1
  Rh  Rh229  1  0.20569062  0.00553944  0.60773156  1
  Rh  Rh230  1  0.59976300  0.59268896  0.19683288  1
  Rh  Rh231  1  0.20416023  0.39731783  -0.00739354  1
  Rh  Rh232  1  0.00224022  0.40199881  0.00619291  1
  Rh  Rh233  1  -0.00047668  0.39947886  0.78699325  1
  Rh  Rh234  1  0.40222704  0.19508844  0.59042454  1
  Rh  Rh235  1  0.80808018  0.60659344  0.20215006  1
  Rh  Rh236  1  0.59240952  0.39252558  0.61098448  1
  Rh  Rh237  1  0.59615186  0.38957773  0.79589230  1
  Rh  Rh238  1  0.19856464  0.19662390  0.60055954  1
  Rh  Rh239  1  0.80942511  0.39387809  0.59202629  1
  Rh  Rh240  1  -0.00680000  0.19815041  0.18639368  1
  Rh  Rh241  1  0.20504149  0.60218059  0.39595375  1
  Rh  Rh242  1  0.80466148  0.20744595  0.00720740  1
  Rh  Rh243  1  0.80687727  0.80364485  0.39346667  1
  Rh  Rh244  1  0.59553974  0.19834481  -0.00875817  1
  Rh  Rh245  1  0.20454626  0.59724528  0.79732797  1
  Rh  Rh246  1  0.39484763  0.40523744  0.40593498  1
  Rh  Rh247  1  0.38970324  0.00902323  -0.00092974  1
  Rh  Rh248  1  0.39324182  0.60372742  0.79851856  1
  Rh  Rh249  1  0.00835262  0.20683344  0.59239471  1
