# generated using pymatgen
data_ZrScNbPdRh
_symmetry_space_group_name_H-M   'P 1'
_cell_length_a   16.55999115
_cell_length_b   16.56038783
_cell_length_c   16.56307110
_cell_angle_alpha   89.96582619
_cell_angle_beta   90.00926929
_cell_angle_gamma   89.98819196
_symmetry_Int_Tables_number   1
_chemical_formula_structural   ZrScNbPdRh
_chemical_formula_sum   'Zr50 Sc50 Nb50 Pd50 Rh50'
_cell_volume   4542.25359811
_cell_formula_units_Z   50
loop_
 _symmetry_equiv_pos_site_id
 _symmetry_equiv_pos_as_xyz
  1  'x, y, z'
loop_
 _atom_site_type_symbol
 _atom_site_label
 _atom_site_symmetry_multiplicity
 _atom_site_fract_x
 _atom_site_fract_y
 _atom_site_fract_z
 _atom_site_occupancy
  Zr  Zr0  1  0.50417799  0.10050030  0.10009787  1
  Zr  Zr1  1  0.90696935  0.89881280  0.50733411  1
  Zr  Zr2  1  0.70027519  0.29544844  0.50249262  1
  Zr  Zr3  1  0.49257319  0.70362399  0.49185619  1
  Zr  Zr4  1  0.50006776  0.50367680  0.09596060  1
  Zr  Zr5  1  0.89118341  0.49857819  0.51474594  1
  Zr  Zr6  1  0.49589213  0.89219923  0.89955628  1
  Zr  Zr7  1  0.10879771  0.09874683  0.49778936  1
  Zr  Zr8  1  0.29490683  0.50411091  0.49821669  1
  Zr  Zr9  1  0.89732865  0.89536878  0.70391604  1
  Zr  Zr10  1  0.70224354  0.90202098  0.51451415  1
  Zr  Zr11  1  0.69840762  0.70967606  0.70400226  1
  Zr  Zr12  1  0.69799564  0.09258382  0.09559689  1
  Zr  Zr13  1  0.70355785  0.90191834  0.89487667  1
  Zr  Zr14  1  0.29297451  0.30328313  0.10089583  1
  Zr  Zr15  1  0.89607258  0.69687799  0.09221615  1
  Zr  Zr16  1  0.09511105  0.90337376  0.30120750  1
  Zr  Zr17  1  0.70519866  0.89483441  0.09621145  1
  Zr  Zr18  1  0.69704165  0.09974797  0.50121995  1
  Zr  Zr19  1  0.10398034  0.50310181  0.71590567  1
  Zr  Zr20  1  0.70023517  0.28999819  0.10243598  1
  Zr  Zr21  1  0.70009973  0.51463711  0.30500848  1
  Zr  Zr22  1  0.10003556  0.29850451  0.50634611  1
  Zr  Zr23  1  0.29514830  0.09922909  0.10532725  1
  Zr  Zr24  1  0.50422528  0.69606471  0.09697087  1
  Zr  Zr25  1  0.89924476  0.70099055  0.29091751  1
  Zr  Zr26  1  0.29678806  0.49705598  0.28835171  1
  Zr  Zr27  1  0.30093384  0.70159973  0.50460586  1
  Zr  Zr28  1  0.70091374  0.68900385  0.49412176  1
  Zr  Zr29  1  0.09511967  0.89347370  0.89562338  1
  Zr  Zr30  1  0.89929194  0.69688722  0.70930738  1
  Zr  Zr31  1  0.49670427  0.30445786  0.29233283  1
  Zr  Zr32  1  0.70080445  0.29543186  0.30016513  1
  Zr  Zr33  1  0.89777671  0.29158329  0.29990972  1
  Zr  Zr34  1  0.29145117  0.50439837  0.90170262  1
  Zr  Zr35  1  0.89901040  0.09603618  0.50536315  1
  Zr  Zr36  1  0.50444797  0.89944731  0.10400185  1
  Zr  Zr37  1  0.30002079  0.51031296  0.69461847  1
  Zr  Zr38  1  0.90516460  0.30081422  0.10079786  1
  Zr  Zr39  1  0.10381076  0.30354207  0.70339107  1
  Zr  Zr40  1  0.69287750  0.29566344  0.89826561  1
  Zr  Zr41  1  0.50737078  0.49671884  0.89773519  1
  Zr  Zr42  1  0.50294914  0.09984978  0.89140577  1
  Zr  Zr43  1  0.29037478  0.10479852  0.30490310  1
  Zr  Zr44  1  0.10348698  0.10569019  0.10387895  1
  Zr  Zr45  1  0.49978159  0.89690495  0.70952413  1
  Zr  Zr46  1  0.90105787  0.30434154  0.50555195  1
  Zr  Zr47  1  0.90214047  0.50216729  0.70307292  1
  Zr  Zr48  1  0.29895518  0.49892580  0.09940505  1
  Zr  Zr49  1  0.50515990  0.29869719  0.89148312  1
  Sc  Sc50  1  0.49371085  0.89890218  0.49207177  1
  Sc  Sc51  1  0.50028271  0.10066601  0.50246452  1
  Sc  Sc52  1  0.90108144  0.50591865  0.90170249  1
  Sc  Sc53  1  0.71070348  0.50081395  0.70355379  1
  Sc  Sc54  1  0.90047271  0.89670030  0.09916219  1
  Sc  Sc55  1  0.91297940  0.50110202  0.30116298  1
  Sc  Sc56  1  0.50233753  0.30122331  0.08776467  1
  Sc  Sc57  1  0.29984211  0.10781194  0.89624667  1
  Sc  Sc58  1  0.29709112  0.69436841  0.29598137  1
  Sc  Sc59  1  0.68946871  0.08719998  0.69664138  1
  Sc  Sc60  1  0.10261510  0.10600764  0.70974669  1
  Sc  Sc61  1  0.50267209  0.09694361  0.30418656  1
  Sc  Sc62  1  0.09893432  0.10469220  0.89922590  1
  Sc  Sc63  1  0.90280405  0.30760822  0.90504694  1
  Sc  Sc64  1  0.29885511  0.29834332  0.90423011  1
  Sc  Sc65  1  0.09080461  0.50900848  0.49914503  1
  Sc  Sc66  1  0.70343394  0.10895939  0.29931263  1
  Sc  Sc67  1  0.09883912  0.29733456  0.09713429  1
  Sc  Sc68  1  0.90637369  0.70616480  0.90200110  1
  Sc  Sc69  1  0.49694673  0.10061683  0.70171154  1
  Sc  Sc70  1  0.70618828  0.69946920  0.89775150  1
  Sc  Sc71  1  0.29932941  0.69275814  0.09695233  1
  Sc  Sc72  1  0.70056737  0.69759106  0.28601593  1
  Sc  Sc73  1  0.09714445  0.69784934  0.89929334  1
  Sc  Sc74  1  0.10611584  0.90299893  0.51015226  1
  Sc  Sc75  1  0.09552893  0.69888905  0.09510828  1
  Sc  Sc76  1  0.10025509  0.09617899  0.29597272  1
  Sc  Sc77  1  0.30113576  0.70235947  0.89681137  1
  Sc  Sc78  1  0.70365955  0.89559911  0.28486547  1
  Sc  Sc79  1  0.10115999  0.68870560  0.29164863  1
  Sc  Sc80  1  0.30029025  0.90413447  0.29852544  1
  Sc  Sc81  1  0.48843085  0.50937676  0.49392287  1
  Sc  Sc82  1  0.50123411  0.29359515  0.69571070  1
  Sc  Sc83  1  0.49020846  0.50742101  0.29472668  1
  Sc  Sc84  1  0.90918474  0.09372697  0.10034378  1
  Sc  Sc85  1  0.30653936  0.89386435  0.88321961  1
  Sc  Sc86  1  0.90636909  0.69356843  0.51464532  1
  Sc  Sc87  1  0.50035691  0.69676562  0.89335988  1
  Sc  Sc88  1  0.10306731  0.49973571  0.09904079  1
  Sc  Sc89  1  0.70180585  0.49612675  0.89840757  1
  Sc  Sc90  1  0.48869241  0.29373809  0.50278734  1
  Sc  Sc91  1  0.09720953  0.29905732  0.29195694  1
  Sc  Sc92  1  0.10508069  0.30187846  0.90316872  1
  Sc  Sc93  1  0.09698310  0.70748940  0.70587473  1
  Sc  Sc94  1  0.69384692  0.30192033  0.70486156  1
  Sc  Sc95  1  0.49905214  0.90128357  0.30280944  1
  Sc  Sc96  1  0.29953330  0.30328798  0.30071301  1
  Sc  Sc97  1  0.09601334  0.90194812  0.10784196  1
  Sc  Sc98  1  0.91107740  0.30839382  0.69919131  1
  Sc  Sc99  1  0.29612632  0.09891641  0.70846250  1
  Nb  Nb100  1  0.10586720  0.90188050  0.70158909  1
  Nb  Nb101  1  0.90587708  0.09409153  0.30815500  1
  Nb  Nb102  1  0.89313820  0.49752905  0.09505002  1
  Nb  Nb103  1  0.69622999  0.89335421  0.70106796  1
  Nb  Nb104  1  0.29530450  0.10106758  0.49939553  1
  Nb  Nb105  1  0.50088429  0.70693026  0.29995646  1
  Nb  Nb106  1  0.30217078  0.70508649  0.70049329  1
  Nb  Nb107  1  0.70005549  0.51575179  0.10391177  1
  Nb  Nb108  1  0.10850281  0.49976472  0.30417859  1
  Nb  Nb109  1  0.29735569  0.89867908  0.50366645  1
  Nb  Nb110  1  0.10644858  0.51057465  0.90479725  1
  Nb  Nb111  1  0.49791330  0.50271585  0.69889835  1
  Nb  Nb112  1  0.69956814  0.69892363  0.10181973  1
  Nb  Nb113  1  0.30341505  0.89782933  0.09824694  1
  Nb  Nb114  1  0.49856555  0.69443993  0.69849176  1
  Nb  Nb115  1  0.90386034  0.90309954  0.30344033  1
  Nb  Nb116  1  0.29732151  0.31081436  0.68970651  1
  Nb  Nb117  1  0.69901279  0.50090548  0.50172156  1
  Nb  Nb118  1  0.10076280  0.70294994  0.49305217  1
  Nb  Nb119  1  0.89503997  0.08689618  0.89629163  1
  Nb  Nb120  1  0.29078953  0.89573076  0.69404616  1
  Nb  Nb121  1  0.90173136  0.09886578  0.70397806  1
  Nb  Nb122  1  0.29205801  0.29446564  0.50042982  1
  Nb  Nb123  1  0.70264099  0.09727458  0.89947378  1
  Nb  Nb124  1  0.89732869  0.90186768  0.90576421  1
  Nb  Nb125  1  0.39837099  0.19895682  0.19758946  1
  Nb  Nb126  1  -0.00094124  0.19611781  0.40296563  1
  Nb  Nb127  1  0.80235494  0.19554101  0.61021189  1
  Nb  Nb128  1  0.60480659  0.79713039  0.00269647  1
  Nb  Nb129  1  0.80425969  0.19100670  0.80104705  1
  Nb  Nb130  1  0.79762388  0.40854596  0.19846856  1
  Nb  Nb131  1  0.60831089  0.40650286  0.20045049  1
  Nb  Nb132  1  0.60118126  0.40477829  0.40116356  1
  Nb  Nb133  1  0.60928972  0.79694459  0.39863103  1
  Nb  Nb134  1  0.00398577  0.00047204  0.61121263  1
  Nb  Nb135  1  0.20408385  0.80803600  0.00113918  1
  Nb  Nb136  1  0.00201019  0.79919081  0.40122463  1
  Nb  Nb137  1  0.19748813  0.79723177  0.40300178  1
  Nb  Nb138  1  0.59751880  0.40986642  0.59449305  1
  Nb  Nb139  1  0.38537532  -0.00551600  0.59857284  1
  Nb  Nb140  1  0.20616250  -0.00697474  -0.00001059  1
  Nb  Nb141  1  0.40151507  0.79881972  0.19616922  1
  Nb  Nb142  1  0.59527988  0.59873605  0.60281862  1
  Nb  Nb143  1  0.80396954  -0.00599801  0.39904418  1
  Nb  Nb144  1  0.19775521  0.40128805  0.40303627  1
  Nb  Nb145  1  0.39810378  0.40410252  0.79170185  1
  Nb  Nb146  1  0.80461081  0.80245035  0.39970783  1
  Nb  Nb147  1  0.80176808  0.19022284  -0.00802630  1
  Nb  Nb148  1  0.79566658  0.40230423  0.39871202  1
  Nb  Nb149  1  0.39614983  -0.00267314  -0.00061196  1
  Pd  Pd150  1  0.59073945  0.79532937  0.59329121  1
  Pd  Pd151  1  0.20557952  0.79825468  0.19970735  1
  Pd  Pd152  1  0.39941606  0.19316452  0.00316582  1
  Pd  Pd153  1  0.39133810  0.60249176  0.39081834  1
  Pd  Pd154  1  0.00088449  0.59144864  0.19116392  1
  Pd  Pd155  1  0.00932828  0.40830004  -0.00361821  1
  Pd  Pd156  1  -0.00571206  0.20462214  0.80920324  1
  Pd  Pd157  1  0.80397477  0.39132023  0.79938696  1
  Pd  Pd158  1  0.20511554  0.19491147  0.60917545  1
  Pd  Pd159  1  0.39675016  0.59793382  0.80372889  1
  Pd  Pd160  1  0.60461198  0.00366233  0.21003765  1
  Pd  Pd161  1  0.58908208  0.20489201  0.40234642  1
  Pd  Pd162  1  -0.00612621  0.19618986  -0.00830357  1
  Pd  Pd163  1  0.39902444  0.60206075  -0.00841813  1
  Pd  Pd164  1  0.79385867  -0.00118576  0.78946832  1
  Pd  Pd165  1  0.39500708  0.00423657  0.40641240  1
  Pd  Pd166  1  0.40468856  0.40109525  0.59801737  1
  Pd  Pd167  1  0.18979966  0.60770486  0.60477479  1
  Pd  Pd168  1  0.39088737  0.21256395  0.79025984  1
  Pd  Pd169  1  -0.00028183  0.40533453  0.19763496  1
  Pd  Pd170  1  0.79172057  0.39506547  0.00531427  1
  Pd  Pd171  1  -0.00032284  0.19284914  0.60084998  1
  Pd  Pd172  1  0.81477834  0.60066982  0.39935783  1
  Pd  Pd173  1  0.59457558  -0.00665184  -0.00828991  1
  Pd  Pd174  1  0.40091151  0.19760635  0.39461953  1
  Pd  Pd175  1  -0.00484049  0.60581396  0.40065919  1
  Pd  Pd176  1  0.39908196  0.00101240  0.19977980  1
  Pd  Pd177  1  0.20258517  -0.00021013  0.80877102  1
  Pd  Pd178  1  0.61145035  0.40472429  0.00866467  1
  Pd  Pd179  1  0.40613892  0.80590145  0.60533095  1
  Pd  Pd180  1  0.19341725  0.79199216  0.59902513  1
  Pd  Pd181  1  0.39061705  0.18992344  0.60390081  1
  Pd  Pd182  1  0.20097896  -0.00957197  0.39982466  1
  Pd  Pd183  1  0.19186485  0.41149537  0.59300307  1
  Pd  Pd184  1  0.20900274  0.39618497  0.80490205  1
  Pd  Pd185  1  0.00934275  0.60103366  0.60952709  1
  Pd  Pd186  1  0.00212338  0.40441876  0.81140640  1
  Pd  Pd187  1  0.58270083  -0.00559748  0.60121820  1
  Pd  Pd188  1  -0.00051442  0.79916218  0.19995071  1
  Pd  Pd189  1  0.60803657  0.59765884  0.79569029  1
  Pd  Pd190  1  0.39777626  0.40014173  -0.00872498  1
  Pd  Pd191  1  0.80593480  0.00389952  0.20383007  1
  Pd  Pd192  1  0.80189449  0.79131379  0.59727966  1
  Pd  Pd193  1  0.39550912  0.39887239  0.40481153  1
  Pd  Pd194  1  0.00168088  0.39523681  0.40033870  1
  Pd  Pd195  1  0.61327773  -0.01050938  0.39323797  1
  Pd  Pd196  1  0.79734582  0.60156914  -0.00771225  1
  Pd  Pd197  1  0.00865876  -0.00188530  0.00155558  1
  Pd  Pd198  1  0.80991475  0.19000479  0.19014563  1
  Pd  Pd199  1  0.00357982  -0.00393297  0.79727357  1
  Rh  Rh200  1  0.60441363  0.20398405  0.60212698  1
  Rh  Rh201  1  -0.00220999  0.19284697  0.20792503  1
  Rh  Rh202  1  0.20022228  0.00731543  0.60596904  1
  Rh  Rh203  1  0.19631618  0.40145496  -0.00026658  1
  Rh  Rh204  1  0.19183754  0.39889404  0.20366386  1
  Rh  Rh205  1  0.40309277  0.61016313  0.20022004  1
  Rh  Rh206  1  0.00091554  0.59912249  0.80596109  1
  Rh  Rh207  1  0.20376268  0.21078937  0.79767655  1
  Rh  Rh208  1  0.80243922  0.60183258  0.80464394  1
  Rh  Rh209  1  0.80423384  0.00146073  0.00422832  1
  Rh  Rh210  1  0.19678892  0.59688912  0.19285437  1
  Rh  Rh211  1  0.59144680  0.40417364  0.78831844  1
  Rh  Rh212  1  0.59165214  0.59869372  0.20215754  1
  Rh  Rh213  1  0.60732407  0.60627442  -0.00669097  1
  Rh  Rh214  1  -0.00140875  0.00169898  0.19815587  1
  Rh  Rh215  1  0.40183786  0.80335278  0.00614506  1
  Rh  Rh216  1  0.60057755  -0.00247532  0.80092252  1
  Rh  Rh217  1  0.19781479  0.19346719  -0.00227784  1
  Rh  Rh218  1  0.80370381  0.00321902  0.60553556  1
  Rh  Rh219  1  0.20393278  0.20712890  0.20490555  1
  Rh  Rh220  1  0.20174728  0.59946150  0.39825598  1
  Rh  Rh221  1  0.19741989  0.61063780  -0.00046548  1
  Rh  Rh222  1  0.39895123  0.79365792  0.78974894  1
  Rh  Rh223  1  -0.00378916  0.80477951  0.80051375  1
  Rh  Rh224  1  0.19978137  0.79657470  0.80281646  1
  Rh  Rh225  1  0.59476467  0.79519102  0.19961996  1
  Rh  Rh226  1  0.60754161  0.19092786  0.79419630  1
  Rh  Rh227  1  0.79034038  0.39007261  0.60215018  1
  Rh  Rh228  1  0.39633008  -0.00169969  0.79665873  1
  Rh  Rh229  1  0.60376946  0.19445222  -0.00472188  1
  Rh  Rh230  1  0.79715980  0.79807450  -0.00170647  1
  Rh  Rh231  1  0.00980164  0.80584130  0.60201978  1
  Rh  Rh232  1  0.81118902  0.59609903  0.19592304  1
  Rh  Rh233  1  0.79072106  0.60591831  0.60979317  1
  Rh  Rh234  1  0.00998141  0.41238319  0.60785307  1
  Rh  Rh235  1  0.80751914  0.80010819  0.19829392  1
  Rh  Rh236  1  0.39232302  0.80127852  0.38745340  1
  Rh  Rh237  1  0.40802427  0.39269453  0.18612572  1
  Rh  Rh238  1  0.19769930  -0.00395830  0.19713939  1
  Rh  Rh239  1  0.59098721  0.60328008  0.40147633  1
  Rh  Rh240  1  0.80423209  0.80325322  0.80585808  1
  Rh  Rh241  1  -0.00034893  0.00058324  0.41080772  1
  Rh  Rh242  1  0.20253236  0.61264845  0.79794411  1
  Rh  Rh243  1  0.40291647  0.60630770  0.60028478  1
  Rh  Rh244  1  0.59850573  0.79686410  0.80702241  1
  Rh  Rh245  1  0.58829043  0.20264471  0.19915578  1
  Rh  Rh246  1  0.80948296  0.19561312  0.41104968  1
  Rh  Rh247  1  -0.00026769  0.59554593  0.00067356  1
  Rh  Rh248  1  0.00509292  0.80332159  0.00067244  1
  Rh  Rh249  1  0.19030449  0.21133851  0.39661514  1
