# generated using pymatgen
data_ZrScNbPdRh
_symmetry_space_group_name_H-M   'P 1'
_cell_length_a   16.55674667
_cell_length_b   16.56200259
_cell_length_c   16.56002864
_cell_angle_alpha   89.98104152
_cell_angle_beta   89.99783514
_cell_angle_gamma   89.98752619
_symmetry_Int_Tables_number   1
_chemical_formula_structural   ZrScNbPdRh
_chemical_formula_sum   'Zr50 Sc50 Nb50 Pd50 Rh50'
_cell_volume   4540.97280531
_cell_formula_units_Z   50
loop_
 _symmetry_equiv_pos_site_id
 _symmetry_equiv_pos_as_xyz
  1  'x, y, z'
loop_
 _atom_site_type_symbol
 _atom_site_label
 _atom_site_symmetry_multiplicity
 _atom_site_fract_x
 _atom_site_fract_y
 _atom_site_fract_z
 _atom_site_occupancy
  Zr  Zr0  1  0.10264634  0.90248664  0.50473649  1
  Zr  Zr1  1  0.69917834  0.29147474  0.30145690  1
  Zr  Zr2  1  0.09078632  0.50286235  0.69554991  1
  Zr  Zr3  1  0.30671575  0.09703901  0.28951464  1
  Zr  Zr4  1  0.70578684  0.50694563  0.09778923  1
  Zr  Zr5  1  0.10106716  0.30860449  0.49769463  1
  Zr  Zr6  1  0.50245322  0.89975576  0.71136685  1
  Zr  Zr7  1  0.89848264  0.49776116  0.10257146  1
  Zr  Zr8  1  0.10027024  0.10279840  0.50411645  1
  Zr  Zr9  1  0.50795731  0.90266677  0.29637912  1
  Zr  Zr10  1  0.30651425  0.49904815  0.09636233  1
  Zr  Zr11  1  0.89836735  0.70606714  0.89841229  1
  Zr  Zr12  1  0.29739045  0.89737576  0.70118255  1
  Zr  Zr13  1  0.89627277  0.30053151  0.30122463  1
  Zr  Zr14  1  0.50936772  0.70709313  0.09240147  1
  Zr  Zr15  1  0.29946445  0.30333149  0.70027717  1
  Zr  Zr16  1  0.29228539  0.49766627  0.49996677  1
  Zr  Zr17  1  0.49650608  0.50837002  0.69819564  1
  Zr  Zr18  1  0.49943299  0.70331998  0.90008537  1
  Zr  Zr19  1  0.69728031  0.30027767  0.69980379  1
  Zr  Zr20  1  0.89252005  0.70389321  0.09516441  1
  Zr  Zr21  1  0.09294347  0.09544351  0.70013660  1
  Zr  Zr22  1  0.90092893  0.30511764  0.11172469  1
  Zr  Zr23  1  0.69192971  0.90392660  0.69507161  1
  Zr  Zr24  1  0.89651433  0.49745259  0.29126589  1
  Zr  Zr25  1  0.09160500  0.09580764  0.89567843  1
  Zr  Zr26  1  0.69571358  0.49571986  0.69567630  1
  Zr  Zr27  1  0.69573340  0.88428057  0.10453989  1
  Zr  Zr28  1  0.89772872  0.09895090  0.50933742  1
  Zr  Zr29  1  0.69613973  0.50075981  0.29176956  1
  Zr  Zr30  1  0.89315434  0.50938867  0.89995933  1
  Zr  Zr31  1  0.69843054  0.70929111  0.69818717  1
  Zr  Zr32  1  0.29587483  0.89926227  0.50617468  1
  Zr  Zr33  1  0.09188499  0.29887883  0.10286872  1
  Zr  Zr34  1  0.69844539  0.09464605  0.08877409  1
  Zr  Zr35  1  0.10921454  0.28664986  0.89828105  1
  Zr  Zr36  1  0.89393888  0.90580141  0.68966497  1
  Zr  Zr37  1  0.91262989  0.49750942  0.50823445  1
  Zr  Zr38  1  0.89153902  0.89993789  0.49249486  1
  Zr  Zr39  1  0.90532040  0.89830307  0.90078072  1
  Zr  Zr40  1  0.69488917  0.29750363  0.90515146  1
  Zr  Zr41  1  0.29683463  0.69201169  0.89816081  1
  Zr  Zr42  1  0.10203242  0.90143558  0.89631122  1
  Zr  Zr43  1  0.10871585  0.09861756  0.09427344  1
  Zr  Zr44  1  0.09683610  0.70538297  0.89811733  1
  Zr  Zr45  1  0.49825390  0.49561901  0.90089694  1
  Zr  Zr46  1  0.30115127  0.29244981  0.29946086  1
  Zr  Zr47  1  0.50741181  0.09297612  0.70036999  1
  Zr  Zr48  1  0.30146187  0.69721171  0.10008297  1
  Zr  Zr49  1  0.29055871  0.10614056  0.91128828  1
  Sc  Sc50  1  0.29201467  0.90364226  0.10401169  1
  Sc  Sc51  1  0.11444854  0.70593285  0.09618038  1
  Sc  Sc52  1  0.69717094  0.09996224  0.69340667  1
  Sc  Sc53  1  0.50059588  0.90184224  0.49733490  1
  Sc  Sc54  1  0.50558155  0.10438701  0.49858436  1
  Sc  Sc55  1  0.49691439  0.50703664  0.50610223  1
  Sc  Sc56  1  0.50391280  0.29230485  0.28922627  1
  Sc  Sc57  1  0.69137612  0.10127913  0.30709530  1
  Sc  Sc58  1  0.50706128  0.89921529  0.09376790  1
  Sc  Sc59  1  0.10227202  0.29466029  0.69884543  1
  Sc  Sc60  1  0.49529289  0.70167590  0.70196341  1
  Sc  Sc61  1  0.11057707  0.51183775  0.89127722  1
  Sc  Sc62  1  0.69915859  0.29866440  0.10209285  1
  Sc  Sc63  1  0.10631066  0.50421469  0.31276587  1
  Sc  Sc64  1  0.69508836  0.29519902  0.51126058  1
  Sc  Sc65  1  0.89489888  0.29921940  0.69060327  1
  Sc  Sc66  1  0.49684132  0.49589489  0.29257026  1
  Sc  Sc67  1  0.49972875  0.69320260  0.30528769  1
  Sc  Sc68  1  0.11249442  0.10795552  0.29857456  1
  Sc  Sc69  1  0.31200549  0.29305041  0.09494952  1
  Sc  Sc70  1  0.88544640  0.10833108  0.31240761  1
  Sc  Sc71  1  0.90370258  0.70689690  0.49639811  1
  Sc  Sc72  1  0.90455672  0.69914318  0.70448582  1
  Sc  Sc73  1  0.89830650  0.89500764  0.09290354  1
  Sc  Sc74  1  0.68730037  0.49929117  0.50828408  1
  Sc  Sc75  1  0.50093473  0.30667769  0.09717080  1
  Sc  Sc76  1  0.11201773  0.90714768  0.69918134  1
  Sc  Sc77  1  0.50082417  0.30511221  0.69190833  1
  Sc  Sc78  1  0.90269286  0.50307471  0.69682941  1
  Sc  Sc79  1  0.10112296  0.70116633  0.70246433  1
  Sc  Sc80  1  0.50005291  0.69317582  0.50575711  1
  Sc  Sc81  1  0.30176934  0.90151700  0.30722766  1
  Sc  Sc82  1  0.30239464  0.50799077  0.29778052  1
  Sc  Sc83  1  0.50379808  0.08512631  0.90873841  1
  Sc  Sc84  1  0.69641143  0.09802710  0.49995040  1
  Sc  Sc85  1  0.89861568  0.10069108  0.08979419  1
  Sc  Sc86  1  0.50219191  0.49793151  0.10099902  1
  Sc  Sc87  1  0.30232467  0.11079881  0.49211359  1
  Sc  Sc88  1  0.49571474  0.08892089  0.10294403  1
  Sc  Sc89  1  0.09753080  0.69606602  0.49050406  1
  Sc  Sc90  1  0.11381924  0.89889140  0.30351750  1
  Sc  Sc91  1  0.10283707  0.50117658  0.10012675  1
  Sc  Sc92  1  0.29284713  0.09980446  0.70185601  1
  Sc  Sc93  1  0.30505940  0.70297691  0.49866169  1
  Sc  Sc94  1  0.89091564  0.28326600  0.89984083  1
  Sc  Sc95  1  0.90059906  0.70603221  0.30939536  1
  Sc  Sc96  1  0.49944503  0.89725204  0.89788764  1
  Sc  Sc97  1  0.10310618  0.90207250  0.09644472  1
  Sc  Sc98  1  0.09219710  0.29946271  0.29908211  1
  Sc  Sc99  1  0.30297265  0.70418968  0.69865316  1
  Nb  Nb100  1  0.29813840  0.90062000  0.88963687  1
  Nb  Nb101  1  0.10428869  0.70238861  0.29760787  1
  Nb  Nb102  1  0.69996876  0.69975116  0.29392270  1
  Nb  Nb103  1  0.89715390  0.30294286  0.49543719  1
  Nb  Nb104  1  0.70977751  0.10526947  0.90086846  1
  Nb  Nb105  1  0.90075691  0.90185186  0.30506516  1
  Nb  Nb106  1  0.30092886  0.49628096  0.89165803  1
  Nb  Nb107  1  0.70068748  0.50231348  0.90085879  1
  Nb  Nb108  1  0.49629339  0.29931904  0.90112050  1
  Nb  Nb109  1  0.29531965  0.09453862  0.10131418  1
  Nb  Nb110  1  0.29360373  0.70351112  0.29482973  1
  Nb  Nb111  1  0.29805020  0.50577024  0.70765994  1
  Nb  Nb112  1  0.70174725  0.70177126  0.49912234  1
  Nb  Nb113  1  0.70754551  0.89649487  0.30562214  1
  Nb  Nb114  1  0.69828039  0.69939006  0.09973486  1
  Nb  Nb115  1  0.89258784  0.09683349  0.89369469  1
  Nb  Nb116  1  0.30572976  0.30105452  0.50168079  1
  Nb  Nb117  1  0.50162834  0.09370890  0.30421390  1
  Nb  Nb118  1  0.30530096  0.30254917  0.89925704  1
  Nb  Nb119  1  0.49532730  0.29777922  0.49913771  1
  Nb  Nb120  1  0.70176067  0.69662887  0.90730521  1
  Nb  Nb121  1  0.70857644  0.89263358  0.50266827  1
  Nb  Nb122  1  0.89886001  0.09716901  0.70672494  1
  Nb  Nb123  1  0.10033814  0.50331775  0.50422087  1
  Nb  Nb124  1  0.69530033  0.90093806  0.89561928  1
  Nb  Nb125  1  0.20395673  0.39778951  0.19470238  1
  Nb  Nb126  1  -0.00091872  0.00033744  0.39661787  1
  Nb  Nb127  1  0.39976558  -0.00056952  0.60291588  1
  Nb  Nb128  1  0.79759320  0.60391110  0.59315164  1
  Nb  Nb129  1  0.39853433  0.79587515  0.20217307  1
  Nb  Nb130  1  -0.00508412  0.39802166  0.80786030  1
  Nb  Nb131  1  0.40411731  0.20289262  0.80746482  1
  Nb  Nb132  1  0.79803407  0.40104692  0.80286695  1
  Nb  Nb133  1  -0.00615804  -0.00353589  0.20863177  1
  Nb  Nb134  1  0.61169959  0.79786960  0.39949750  1
  Nb  Nb135  1  0.00310457  0.40183403  -0.01025377  1
  Nb  Nb136  1  0.60634414  0.59929878  0.80660738  1
  Nb  Nb137  1  0.00368390  0.61020109  0.20008252  1
  Nb  Nb138  1  0.79566697  0.40261105  0.40624410  1
  Nb  Nb139  1  0.79924027  0.00374210  0.80299844  1
  Nb  Nb140  1  0.59553456  0.20037945  0.80770621  1
  Nb  Nb141  1  0.20381749  0.39815296  -0.00456922  1
  Nb  Nb142  1  0.00447580  0.80134426  0.20614006  1
  Nb  Nb143  1  0.79355241  0.59744028  0.40322915  1
  Nb  Nb144  1  0.59547728  0.39534035  0.40179950  1
  Nb  Nb145  1  0.19775097  0.59401530  0.59835604  1
  Nb  Nb146  1  0.40139550  0.39243638  0.40372525  1
  Nb  Nb147  1  -0.00055952  0.60030799  0.00268448  1
  Nb  Nb148  1  0.00232978  0.80684849  0.59644366  1
  Nb  Nb149  1  0.80028886  -0.00732509  0.20533142  1
  Pd  Pd150  1  -0.00728494  0.18243424  0.20605439  1
  Pd  Pd151  1  0.59002850  0.19522333  0.00085503  1
  Pd  Pd152  1  0.19999828  0.00823380  0.40122643  1
  Pd  Pd153  1  0.79310698  0.59784846  0.78861127  1
  Pd  Pd154  1  0.80526696  0.39198038  -0.00450470  1
  Pd  Pd155  1  0.39984127  0.40731942  0.59791142  1
  Pd  Pd156  1  0.40822791  0.80690528  0.60074528  1
  Pd  Pd157  1  0.20757724  0.80615524  -0.00523798  1
  Pd  Pd158  1  0.39079021  -0.00998018  0.00098217  1
  Pd  Pd159  1  0.60748748  -0.00788260  0.40685600  1
  Pd  Pd160  1  0.79610577  -0.01111434  -0.00069003  1
  Pd  Pd161  1  0.00113309  0.19441891  0.39871604  1
  Pd  Pd162  1  0.40879415  0.19549079  0.19312280  1
  Pd  Pd163  1  0.79849535  0.19712312  0.60044300  1
  Pd  Pd164  1  0.39979808  -0.01191542  0.19674267  1
  Pd  Pd165  1  0.39105799  0.80934343  0.00342099  1
  Pd  Pd166  1  -0.00660886  0.20171369  -0.00070349  1
  Pd  Pd167  1  -0.00308063  0.40370220  0.39577933  1
  Pd  Pd168  1  -0.00042885  -0.00039477  0.00587477  1
  Pd  Pd169  1  0.19509447  0.59314188  0.19992128  1
  Pd  Pd170  1  0.00381056  0.81121174  0.78547576  1
  Pd  Pd171  1  0.20638366  0.39532640  0.39109232  1
  Pd  Pd172  1  0.19732078  0.40327800  0.60671050  1
  Pd  Pd173  1  -0.00654786  0.20645426  0.79482454  1
  Pd  Pd174  1  0.20237427  0.20008150  0.59778179  1
  Pd  Pd175  1  0.40765740  0.60743330  0.19774627  1
  Pd  Pd176  1  0.40361322  0.59665315  -0.00236835  1
  Pd  Pd177  1  0.79651785  0.80854769  0.80115666  1
  Pd  Pd178  1  0.40929757  0.79855541  0.39434433  1
  Pd  Pd179  1  0.40390296  0.39645422  0.79495573  1
  Pd  Pd180  1  0.40775114  0.19972016  0.39367337  1
  Pd  Pd181  1  0.59046032  0.80132547  0.59248148  1
  Pd  Pd182  1  0.60166273  0.40406808  0.00591457  1
  Pd  Pd183  1  0.79817584  0.18672410  0.19488355  1
  Pd  Pd184  1  0.59379560  0.60291011  0.19537068  1
  Pd  Pd185  1  0.19121933  0.39898806  0.80101396  1
  Pd  Pd186  1  0.39982901  0.00300242  0.40743502  1
  Pd  Pd187  1  0.39670711  0.59514364  0.40065393  1
  Pd  Pd188  1  0.39302771  0.00963499  0.80020799  1
  Pd  Pd189  1  -0.00261834  0.20682005  0.60024581  1
  Pd  Pd190  1  0.40722853  0.19357122  0.00061421  1
  Pd  Pd191  1  0.59483231  0.19001375  0.19234944  1
  Pd  Pd192  1  0.20121319  0.79459600  0.40470306  1
  Pd  Pd193  1  0.60259823  0.59727910  0.39991973  1
  Pd  Pd194  1  0.80808319  0.79951540  0.20600666  1
  Pd  Pd195  1  0.40114271  0.19115779  0.60911309  1
  Pd  Pd196  1  0.20287195  0.20704812  0.19254691  1
  Pd  Pd197  1  0.60080689  0.39979785  0.80120035  1
  Pd  Pd198  1  -0.00546421  0.59776862  0.39380377  1
  Pd  Pd199  1  0.61022593  0.00192433  0.19950133  1
  Rh  Rh200  1  0.19517784  0.00050647  0.20242746  1
  Rh  Rh201  1  0.19007319  0.78599179  0.59563658  1
  Rh  Rh202  1  0.79781920  0.00472836  0.39975273  1
  Rh  Rh203  1  0.60686824  0.80244596  -0.00980971  1
  Rh  Rh204  1  0.20774718  0.19658873  0.79747122  1
  Rh  Rh205  1  0.60312515  0.79157049  0.80627383  1
  Rh  Rh206  1  0.78837110  0.39340689  0.20575817  1
  Rh  Rh207  1  0.01042150  0.81095333  0.39962601  1
  Rh  Rh208  1  0.60164977  0.59693576  -0.00283358  1
  Rh  Rh209  1  0.79094726  0.80272277  -0.00701564  1
  Rh  Rh210  1  0.79204844  0.19895942  0.79142838  1
  Rh  Rh211  1  0.01585294  0.41439088  0.20415469  1
  Rh  Rh212  1  0.80497355  0.40805840  0.59826084  1
  Rh  Rh213  1  0.00328487  0.39047519  0.60528511  1
  Rh  Rh214  1  0.80355988  0.20511800  0.01014285  1
  Rh  Rh215  1  -0.00722406  -0.00496842  0.79669284  1
  Rh  Rh216  1  0.79268117  0.79054190  0.39504455  1
  Rh  Rh217  1  0.20211859  -0.00542662  -0.00605623  1
  Rh  Rh218  1  0.40499192  0.60284773  0.80193582  1
  Rh  Rh219  1  0.20432760  0.20724682  0.00868768  1
  Rh  Rh220  1  0.60409389  0.60907519  0.61034206  1
  Rh  Rh221  1  0.39342671  0.39636045  0.20761027  1
  Rh  Rh222  1  -0.00169350  -0.00375689  0.59646621  1
  Rh  Rh223  1  0.59271104  0.79250610  0.20986189  1
  Rh  Rh224  1  0.20149783  0.00626274  0.80529926  1
  Rh  Rh225  1  0.39475468  0.79762767  0.80341233  1
  Rh  Rh226  1  0.58875298  0.39742822  0.59139912  1
  Rh  Rh227  1  0.79313466  0.20802205  0.41285272  1
  Rh  Rh228  1  0.38612836  0.59857639  0.60250399  1
  Rh  Rh229  1  0.39669006  0.40307257  -0.00314762  1
  Rh  Rh230  1  0.20329255  0.79632525  0.80101998  1
  Rh  Rh231  1  0.00741642  0.79355644  0.01031079  1
  Rh  Rh232  1  0.20211643  0.60565486  0.79068014  1
  Rh  Rh233  1  0.81056309  0.79054159  0.60131115  1
  Rh  Rh234  1  0.61181363  0.01071167  0.80982428  1
  Rh  Rh235  1  0.60313935  0.39874350  0.20078106  1
  Rh  Rh236  1  0.00202985  0.61532732  0.59686006  1
  Rh  Rh237  1  0.60652072  -0.00628637  -0.00234692  1
  Rh  Rh238  1  0.20405076  0.80518016  0.20267870  1
  Rh  Rh239  1  0.59485994  0.20442403  0.40206517  1
  Rh  Rh240  1  0.80014349  0.60508297  0.00297151  1
  Rh  Rh241  1  0.59502512  0.20076463  0.60468985  1
  Rh  Rh242  1  0.19717472  0.20850497  0.40534771  1
  Rh  Rh243  1  0.80724334  0.61161640  0.20543648  1
  Rh  Rh244  1  0.20063246  0.59242439  -0.00261891  1
  Rh  Rh245  1  0.00061885  0.59738892  0.80814168  1
  Rh  Rh246  1  0.79316935  0.00612322  0.60254285  1
  Rh  Rh247  1  0.59604675  -0.00643832  0.59140130  1
  Rh  Rh248  1  0.20598108  0.60734399  0.40602924  1
  Rh  Rh249  1  0.21116297  0.01065665  0.59434174  1
