# generated using pymatgen
data_ZrScNbPdRh
_symmetry_space_group_name_H-M   'P 1'
_cell_length_a   16.55767289
_cell_length_b   16.56046591
_cell_length_c   16.56218737
_cell_angle_alpha   90.00967609
_cell_angle_beta   90.04826639
_cell_angle_gamma   90.01616415
_symmetry_Int_Tables_number   1
_chemical_formula_structural   ZrScNbPdRh
_chemical_formula_sum   'Zr50 Sc50 Nb50 Pd50 Rh50'
_cell_volume   4541.39591848
_cell_formula_units_Z   50
loop_
 _symmetry_equiv_pos_site_id
 _symmetry_equiv_pos_as_xyz
  1  'x, y, z'
loop_
 _atom_site_type_symbol
 _atom_site_label
 _atom_site_symmetry_multiplicity
 _atom_site_fract_x
 _atom_site_fract_y
 _atom_site_fract_z
 _atom_site_occupancy
  Zr  Zr0  1  0.70838599  0.49536233  0.30354096  1
  Zr  Zr1  1  0.30503705  0.30215386  0.49984671  1
  Zr  Zr2  1  0.49452536  0.31649567  0.90489508  1
  Zr  Zr3  1  0.70764024  0.90194579  0.30272105  1
  Zr  Zr4  1  0.30310274  0.09805375  0.70316172  1
  Zr  Zr5  1  0.30667930  0.29863643  0.30394064  1
  Zr  Zr6  1  0.10991249  0.90403766  0.48963838  1
  Zr  Zr7  1  0.30027365  0.90436008  0.09829881  1
  Zr  Zr8  1  0.68415242  0.10210449  0.70384882  1
  Zr  Zr9  1  0.69807663  0.69946680  0.29812705  1
  Zr  Zr10  1  0.90046202  0.70517304  0.89920891  1
  Zr  Zr11  1  0.29879120  0.90128459  0.89622172  1
  Zr  Zr12  1  0.70288792  0.69522404  0.89951970  1
  Zr  Zr13  1  0.10403626  0.29315520  0.49868911  1
  Zr  Zr14  1  0.68881151  0.29975633  0.69920603  1
  Zr  Zr15  1  0.50134330  0.90189884  0.49979352  1
  Zr  Zr16  1  0.50553257  0.48777879  0.29550107  1
  Zr  Zr17  1  0.89621020  0.50315048  0.30533096  1
  Zr  Zr18  1  0.10525552  0.90661464  0.70602703  1
  Zr  Zr19  1  0.29458268  0.49811067  0.29535800  1
  Zr  Zr20  1  0.30187764  0.49480366  0.89552451  1
  Zr  Zr21  1  0.10448924  0.30089283  0.89918868  1
  Zr  Zr22  1  0.49556057  0.69888098  0.28906421  1
  Zr  Zr23  1  0.69280601  0.90091143  0.69160849  1
  Zr  Zr24  1  0.69469977  0.69607604  0.69898275  1
  Zr  Zr25  1  0.49652705  0.29953777  0.10787471  1
  Zr  Zr26  1  0.50437034  0.70408872  0.10642604  1
  Zr  Zr27  1  0.50355617  0.30938539  0.49986108  1
  Zr  Zr28  1  0.90242364  0.89401212  0.90571534  1
  Zr  Zr29  1  0.10141611  0.10202532  0.88547613  1
  Zr  Zr30  1  0.69901607  0.30162585  0.89689173  1
  Zr  Zr31  1  0.70584479  0.50153331  0.71017894  1
  Zr  Zr32  1  0.69347199  0.89619652  0.90554860  1
  Zr  Zr33  1  0.49861516  0.69826114  0.89951984  1
  Zr  Zr34  1  0.70531886  0.09575028  0.10359228  1
  Zr  Zr35  1  0.90241194  0.49825261  0.69408608  1
  Zr  Zr36  1  0.70103079  0.10546586  0.30131999  1
  Zr  Zr37  1  0.50195260  0.49705455  0.09911139  1
  Zr  Zr38  1  0.91012263  0.10825051  0.49378685  1
  Zr  Zr39  1  0.11347742  0.49818267  0.90348984  1
  Zr  Zr40  1  0.69709162  0.10457579  0.90596296  1
  Zr  Zr41  1  0.09724687  0.10391874  0.31280066  1
  Zr  Zr42  1  0.30230130  0.70093706  0.11277583  1
  Zr  Zr43  1  0.49282229  0.90148260  0.69542637  1
  Zr  Zr44  1  0.49927472  0.50281566  0.69152788  1
  Zr  Zr45  1  0.90247630  0.50099119  0.12068507  1
  Zr  Zr46  1  0.31085144  0.69815983  0.70176771  1
  Zr  Zr47  1  0.89605452  0.90219743  0.49835119  1
  Zr  Zr48  1  0.30101734  0.70185139  0.89696983  1
  Zr  Zr49  1  0.90226535  0.69191084  0.29812606  1
  Sc  Sc50  1  0.89766604  0.09644090  0.29732768  1
  Sc  Sc51  1  0.49753632  0.10191680  0.30400033  1
  Sc  Sc52  1  0.29890860  0.10056819  0.49727339  1
  Sc  Sc53  1  0.30111091  0.90419360  0.49464661  1
  Sc  Sc54  1  0.89993024  0.89369313  0.70469925  1
  Sc  Sc55  1  0.09405984  0.09692256  0.10336268  1
  Sc  Sc56  1  0.49646036  0.69812206  0.51878372  1
  Sc  Sc57  1  0.69290667  0.10283714  0.48948266  1
  Sc  Sc58  1  0.10563984  0.49855034  0.68614716  1
  Sc  Sc59  1  0.09880580  0.29742051  0.10461061  1
  Sc  Sc60  1  0.90486441  0.70814572  0.10159116  1
  Sc  Sc61  1  0.70062615  0.89169039  0.09775319  1
  Sc  Sc62  1  0.70088033  0.70218581  0.50452649  1
  Sc  Sc63  1  0.30391508  0.09493881  0.89425315  1
  Sc  Sc64  1  0.90715625  0.10647867  0.90242996  1
  Sc  Sc65  1  0.89807290  0.68861090  0.50097437  1
  Sc  Sc66  1  0.10982651  0.29499657  0.30212375  1
  Sc  Sc67  1  0.30429665  0.30225913  0.69597838  1
  Sc  Sc68  1  0.10186481  0.90299733  0.90516265  1
  Sc  Sc69  1  0.10369778  0.70670174  0.29631521  1
  Sc  Sc70  1  0.09288406  0.51043816  0.28959791  1
  Sc  Sc71  1  0.89084326  0.69569847  0.69696147  1
  Sc  Sc72  1  0.49622329  0.29704529  0.69483983  1
  Sc  Sc73  1  0.29478978  0.30218630  0.11121918  1
  Sc  Sc74  1  0.89542355  0.48998821  0.88167152  1
  Sc  Sc75  1  0.69783094  0.49364075  0.49875853  1
  Sc  Sc76  1  0.69890964  0.70116949  0.09947936  1
  Sc  Sc77  1  0.89761096  0.10868545  0.10270437  1
  Sc  Sc78  1  0.69639106  0.50287905  0.10966738  1
  Sc  Sc79  1  0.30500420  0.10064298  0.30216102  1
  Sc  Sc80  1  0.50380525  0.89681010  0.30048448  1
  Sc  Sc81  1  0.70110741  0.28322373  0.09778827  1
  Sc  Sc82  1  0.49675019  0.09552303  0.49882816  1
  Sc  Sc83  1  0.90273359  0.29398643  0.88993145  1
  Sc  Sc84  1  0.10217098  0.70415833  0.10204519  1
  Sc  Sc85  1  0.90468311  0.90133166  0.10684997  1
  Sc  Sc86  1  0.10254337  0.71138143  0.90455602  1
  Sc  Sc87  1  0.49786506  0.08920729  0.89825161  1
  Sc  Sc88  1  0.90588208  0.29776727  0.49633068  1
  Sc  Sc89  1  0.29763007  0.49212548  0.50840230  1
  Sc  Sc90  1  0.69270476  0.90162285  0.49622900  1
  Sc  Sc91  1  0.89712341  0.50576477  0.49707216  1
  Sc  Sc92  1  0.90997344  0.11013003  0.70775488  1
  Sc  Sc93  1  0.29990694  0.70007201  0.50838715  1
  Sc  Sc94  1  0.49994153  0.09766293  0.09805608  1
  Sc  Sc95  1  0.30648972  0.09530631  0.10565757  1
  Sc  Sc96  1  0.29818475  0.30685502  0.88766132  1
  Sc  Sc97  1  0.29477506  0.90282571  0.30122080  1
  Sc  Sc98  1  0.10200191  0.90500881  0.29458972  1
  Sc  Sc99  1  0.09786299  0.29552565  0.69391181  1
  Nb  Nb100  1  0.49858579  0.90014463  0.91112073  1
  Nb  Nb101  1  0.10060276  0.69646086  0.50110457  1
  Nb  Nb102  1  0.89491848  0.30998787  0.29913539  1
  Nb  Nb103  1  0.50273718  0.89894262  0.09703741  1
  Nb  Nb104  1  0.28182723  0.50366162  0.09408285  1
  Nb  Nb105  1  0.69985455  0.49813523  0.90228991  1
  Nb  Nb106  1  0.69903997  0.29757380  0.32002797  1
  Nb  Nb107  1  0.89733002  0.30458482  0.69681037  1
  Nb  Nb108  1  0.30076904  0.69897575  0.30295073  1
  Nb  Nb109  1  0.49466642  0.09731165  0.69674681  1
  Nb  Nb110  1  0.89994471  0.30406748  0.09634436  1
  Nb  Nb111  1  0.90053255  0.89364234  0.30110977  1
  Nb  Nb112  1  0.09853084  0.10478053  0.50317697  1
  Nb  Nb113  1  0.29944527  0.50006128  0.69757558  1
  Nb  Nb114  1  0.10199580  0.50247870  0.09529081  1
  Nb  Nb115  1  0.10449691  0.10141138  0.69281225  1
  Nb  Nb116  1  0.10138126  0.89660017  0.09719271  1
  Nb  Nb117  1  0.49616884  0.70514825  0.70089490  1
  Nb  Nb118  1  0.09751792  0.50933073  0.49969810  1
  Nb  Nb119  1  0.50173277  0.49792173  0.90828767  1
  Nb  Nb120  1  0.49942848  0.30181879  0.30119610  1
  Nb  Nb121  1  0.49604868  0.49876861  0.49582976  1
  Nb  Nb122  1  0.30126396  0.89457005  0.70187757  1
  Nb  Nb123  1  0.10060606  0.69445142  0.68952250  1
  Nb  Nb124  1  0.70181622  0.29753643  0.49737202  1
  Nb  Nb125  1  0.00262960  0.40463386  0.39718472  1
  Nb  Nb126  1  -0.00252372  0.59112722  -0.00387696  1
  Nb  Nb127  1  0.79773631  0.20100594  0.60050900  1
  Nb  Nb128  1  0.59144082  0.79904449  0.79892125  1
  Nb  Nb129  1  0.60470447  -0.00220153  0.19880633  1
  Nb  Nb130  1  0.00682021  0.60036969  0.79952784  1
  Nb  Nb131  1  0.20480014  0.19832583  -0.00285367  1
  Nb  Nb132  1  0.39491208  0.20507688  -0.00103166  1
  Nb  Nb133  1  0.39817112  0.59702576  0.00250942  1
  Nb  Nb134  1  0.58982103  0.59701931  0.40016129  1
  Nb  Nb135  1  0.20223171  0.60232175  0.40229715  1
  Nb  Nb136  1  0.79641339  0.00160412  0.80136039  1
  Nb  Nb137  1  0.19737532  0.80031552  0.60457549  1
  Nb  Nb138  1  -0.00446105  0.40519873  0.00405399  1
  Nb  Nb139  1  0.80326996  0.01114220  0.60484479  1
  Nb  Nb140  1  0.39751338  0.79010949  0.39757467  1
  Nb  Nb141  1  -0.00029081  0.79924993  0.40251271  1
  Nb  Nb142  1  0.40188868  0.79931301  0.00336806  1
  Nb  Nb143  1  0.80452811  0.40153598  0.00182903  1
  Nb  Nb144  1  0.80638510  0.58912955  -0.00235567  1
  Nb  Nb145  1  0.00365248  0.00202135  0.59835096  1
  Nb  Nb146  1  0.39913335  0.59764336  0.39884255  1
  Nb  Nb147  1  0.79728211  0.38985837  0.60112173  1
  Nb  Nb148  1  0.79983312  -0.00032301  -0.00483640  1
  Nb  Nb149  1  0.00763984  0.80152522  0.59452965  1
  Pd  Pd150  1  0.60488369  0.59484511  0.59415433  1
  Pd  Pd151  1  0.61326135  0.39706217  0.00999651  1
  Pd  Pd152  1  0.19527069  0.00742301  0.20339034  1
  Pd  Pd153  1  0.39232184  0.40554224  0.19321234  1
  Pd  Pd154  1  0.58145078  0.20297312  0.80934942  1
  Pd  Pd155  1  0.19470674  0.60217107  0.79434075  1
  Pd  Pd156  1  -0.00500636  0.00131922  0.00442686  1
  Pd  Pd157  1  0.19077526  0.40099643  0.20018265  1
  Pd  Pd158  1  0.79918117  0.19681622  0.79498510  1
  Pd  Pd159  1  0.78774110  0.38744210  0.19462727  1
  Pd  Pd160  1  0.61336389  0.38442653  0.19919435  1
  Pd  Pd161  1  0.19589205  0.39776070  0.78384134  1
  Pd  Pd162  1  0.40596157  0.58945729  0.80324054  1
  Pd  Pd163  1  0.00686486  0.20558179  0.00049822  1
  Pd  Pd164  1  0.40413792  0.20243370  0.80562481  1
  Pd  Pd165  1  -0.00261699  0.40063623  0.58765075  1
  Pd  Pd166  1  0.59588305  -0.00829936  0.80108812  1
  Pd  Pd167  1  0.58468784  0.19961193  -0.00554957  1
  Pd  Pd168  1  0.59585715  0.19681070  0.20753977  1
  Pd  Pd169  1  0.19985692  0.80482613  0.20076328  1
  Pd  Pd170  1  0.59613845  0.19461373  0.59032798  1
  Pd  Pd171  1  0.00864528  0.39256654  0.20489993  1
  Pd  Pd172  1  0.80047444  0.00645434  0.40518222  1
  Pd  Pd173  1  0.00787599  0.79159987  0.79089344  1
  Pd  Pd174  1  0.80606850  0.79099690  0.40459551  1
  Pd  Pd175  1  0.20253055  0.18958625  0.19690982  1
  Pd  Pd176  1  0.41017571  -0.00384552  0.20573585  1
  Pd  Pd177  1  0.60266782  0.59997843  0.00318717  1
  Pd  Pd178  1  0.58918453  0.78725869  0.40563641  1
  Pd  Pd179  1  0.19783225  0.00955426  -0.00119717  1
  Pd  Pd180  1  0.80409512  0.20810073  0.20804488  1
  Pd  Pd181  1  0.39318390  0.00146908  0.59653187  1
  Pd  Pd182  1  -0.00060562  -0.00593887  0.39911866  1
  Pd  Pd183  1  0.78934623  0.80500675  0.79625657  1
  Pd  Pd184  1  0.59217336  0.59868068  0.80096660  1
  Pd  Pd185  1  0.20214052  -0.00231333  0.59902448  1
  Pd  Pd186  1  -0.00695507  -0.00106425  0.79523387  1
  Pd  Pd187  1  0.40519569  0.19985231  0.40516198  1
  Pd  Pd188  1  0.80061024  0.79807984  0.19652928  1
  Pd  Pd189  1  -0.00448368  0.20402332  0.20675178  1
  Pd  Pd190  1  0.19038111  0.41007591  0.40135034  1
  Pd  Pd191  1  0.20008060  0.61280113  -0.00000273  1
  Pd  Pd192  1  -0.00140229  0.00030867  0.20090275  1
  Pd  Pd193  1  0.01106991  0.40352055  0.80024835  1
  Pd  Pd194  1  0.19525830  0.79594416  0.79466971  1
  Pd  Pd195  1  0.59139090  0.40468343  0.79705374  1
  Pd  Pd196  1  0.80371796  0.80407438  0.59792008  1
  Pd  Pd197  1  0.39708662  0.58717736  0.19690540  1
  Pd  Pd198  1  0.20900973  0.20168469  0.60237660  1
  Pd  Pd199  1  0.38598472  0.39974979  0.01039330  1
  Rh  Rh200  1  0.58914898  0.20452960  0.40049599  1
  Rh  Rh201  1  0.00419343  0.80579638  0.20653857  1
  Rh  Rh202  1  -0.00612363  0.60411544  0.60523919  1
  Rh  Rh203  1  0.19798407  0.39749323  0.59740483  1
  Rh  Rh204  1  0.79705047  0.60862930  0.19435843  1
  Rh  Rh205  1  0.19517510  0.60308458  0.20392514  1
  Rh  Rh206  1  0.00535045  0.61068352  0.19178914  1
  Rh  Rh207  1  0.19779120  0.38672837  0.00725330  1
  Rh  Rh208  1  -0.00434396  0.21404797  0.38654973  1
  Rh  Rh209  1  0.39899990  -0.00063159  0.00008985  1
  Rh  Rh210  1  0.40208197  0.20019997  0.19829705  1
  Rh  Rh211  1  0.00637691  0.20633898  0.79297171  1
  Rh  Rh212  1  0.60435656  0.40390896  0.59819582  1
  Rh  Rh213  1  0.40482989  0.40739156  0.79056242  1
  Rh  Rh214  1  0.20938423  0.60130613  0.59678309  1
  Rh  Rh215  1  0.39148694  0.80706248  0.59304312  1
  Rh  Rh216  1  0.78499614  0.60372344  0.40364392  1
  Rh  Rh217  1  0.39888218  0.40382902  0.39884729  1
  Rh  Rh218  1  0.60636981  0.81024645  0.20225419  1
  Rh  Rh219  1  0.60063884  0.40129011  0.40105770  1
  Rh  Rh220  1  0.79359219  0.58842146  0.59809799  1
  Rh  Rh221  1  0.80731974  0.20124389  0.40056891  1
  Rh  Rh222  1  0.20372531  0.00300598  0.79889313  1
  Rh  Rh223  1  0.79527667  0.39170165  0.79768126  1
  Rh  Rh224  1  0.20677713  0.19713343  0.40195021  1
  Rh  Rh225  1  0.39531095  0.59318284  0.59811729  1
  Rh  Rh226  1  0.80799922  0.60211982  0.80641730  1
  Rh  Rh227  1  0.39389763  0.81312887  0.20232755  1
  Rh  Rh228  1  0.59741864  0.79825732  0.60352860  1
  Rh  Rh229  1  0.80813123  0.20156196  -0.00613344  1
  Rh  Rh230  1  0.40195883  -0.00640886  0.79765758  1
  Rh  Rh231  1  0.60494805  0.59682383  0.20757752  1
  Rh  Rh232  1  0.40752098  0.80957669  0.80781772  1
  Rh  Rh233  1  0.80916373  0.39535692  0.41061409  1
  Rh  Rh234  1  0.60167986  0.00705126  0.59449461  1
  Rh  Rh235  1  0.20652748  0.80209038  0.00634883  1
  Rh  Rh236  1  0.39921243  0.40196688  0.60403234  1
  Rh  Rh237  1  0.79930938  -0.00670717  0.19509457  1
  Rh  Rh238  1  0.60526330  0.00198282  0.01058097  1
  Rh  Rh239  1  0.20247660  0.01116015  0.39575845  1
  Rh  Rh240  1  0.40107727  -0.01131043  0.39669528  1
  Rh  Rh241  1  -0.00313217  0.19669818  0.60575281  1
  Rh  Rh242  1  0.20176648  0.79035568  0.40690433  1
  Rh  Rh243  1  0.59927349  0.00222826  0.39009344  1
  Rh  Rh244  1  0.00995684  0.60227402  0.39707738  1
  Rh  Rh245  1  0.20213266  0.19965366  0.79725150  1
  Rh  Rh246  1  0.59384332  0.79320188  -0.00354705  1
  Rh  Rh247  1  0.80605560  0.79975395  0.00513766  1
  Rh  Rh248  1  0.00464613  0.80027445  0.00697148  1
  Rh  Rh249  1  0.40238531  0.19636553  0.59832893  1
