# generated using pymatgen
data_ZrScNbPdRh
_symmetry_space_group_name_H-M   'P 1'
_cell_length_a   16.55637953
_cell_length_b   16.55095463
_cell_length_c   16.55215601
_cell_angle_alpha   90.02469410
_cell_angle_beta   90.01979253
_cell_angle_gamma   89.99622102
_symmetry_Int_Tables_number   1
_chemical_formula_structural   ZrScNbPdRh
_chemical_formula_sum   'Zr50 Sc50 Nb50 Pd50 Rh50'
_cell_volume   4535.68541736
_cell_formula_units_Z   50
loop_
 _symmetry_equiv_pos_site_id
 _symmetry_equiv_pos_as_xyz
  1  'x, y, z'
loop_
 _atom_site_type_symbol
 _atom_site_label
 _atom_site_symmetry_multiplicity
 _atom_site_fract_x
 _atom_site_fract_y
 _atom_site_fract_z
 _atom_site_occupancy
  Zr  Zr0  1  0.09594469  0.90414017  0.10330111  1
  Zr  Zr1  1  0.49987526  0.29532486  0.89262843  1
  Zr  Zr2  1  0.30273332  0.89942925  0.89936834  1
  Zr  Zr3  1  0.30347463  0.90438430  0.09973120  1
  Zr  Zr4  1  0.29567049  0.70236036  0.69986386  1
  Zr  Zr5  1  0.09670507  0.49489920  0.69895254  1
  Zr  Zr6  1  0.10188751  0.49500356  0.49872937  1
  Zr  Zr7  1  0.70559804  0.69986787  0.09948857  1
  Zr  Zr8  1  0.31245819  0.69600002  0.49393520  1
  Zr  Zr9  1  0.09614816  0.49291627  0.10532508  1
  Zr  Zr10  1  0.50716726  0.49193874  0.69590911  1
  Zr  Zr11  1  0.50682286  0.49993837  0.29836465  1
  Zr  Zr12  1  0.50666306  0.69751732  0.70208085  1
  Zr  Zr13  1  0.89921439  0.50173710  0.50539420  1
  Zr  Zr14  1  0.90269616  0.10044651  0.90602726  1
  Zr  Zr15  1  0.50236011  0.89475420  0.89381205  1
  Zr  Zr16  1  0.10558263  0.90396768  0.69991920  1
  Zr  Zr17  1  0.89754668  0.09779381  0.09879957  1
  Zr  Zr18  1  0.30286844  0.49787968  0.70140078  1
  Zr  Zr19  1  0.89242290  0.49340072  0.29566539  1
  Zr  Zr20  1  0.09487055  0.70379075  0.30127698  1
  Zr  Zr21  1  0.70074408  0.09882105  0.10364015  1
  Zr  Zr22  1  0.89813737  0.69923788  0.90529838  1
  Zr  Zr23  1  0.29200589  0.50153747  0.30360645  1
  Zr  Zr24  1  0.70315501  0.50155131  0.09694026  1
  Zr  Zr25  1  0.69801493  0.69678703  0.29424261  1
  Zr  Zr26  1  0.49654803  0.30449071  0.09784632  1
  Zr  Zr27  1  0.49995003  0.69430325  0.30413572  1
  Zr  Zr28  1  0.70011448  0.49951202  0.70497596  1
  Zr  Zr29  1  0.08359206  0.30156738  0.69652964  1
  Zr  Zr30  1  0.49507531  0.69299662  0.10046293  1
  Zr  Zr31  1  0.31023554  0.29437837  0.90395471  1
  Zr  Zr32  1  0.70291144  0.30102830  0.89295462  1
  Zr  Zr33  1  0.49536454  0.90136349  0.09758017  1
  Zr  Zr34  1  0.10491526  0.09675679  0.70041156  1
  Zr  Zr35  1  0.89777069  0.70762766  0.29610671  1
  Zr  Zr36  1  0.30393578  0.70285483  0.89948006  1
  Zr  Zr37  1  0.70498456  0.90272837  0.30363058  1
  Zr  Zr38  1  0.29789637  0.90371749  0.69584700  1
  Zr  Zr39  1  0.50710820  0.10217671  0.29912925  1
  Zr  Zr40  1  0.29841475  0.49603389  0.49970568  1
  Zr  Zr41  1  0.30484364  0.50028349  0.10193243  1
  Zr  Zr42  1  0.10033009  0.89721372  0.30372354  1
  Zr  Zr43  1  0.49752860  0.90474101  0.50395739  1
  Zr  Zr44  1  0.32306352  0.29817088  0.70064986  1
  Zr  Zr45  1  0.89840485  0.11113398  0.69340641  1
  Zr  Zr46  1  0.69553300  0.30275746  0.10184412  1
  Zr  Zr47  1  0.29764486  0.69671841  0.29887097  1
  Zr  Zr48  1  0.10618485  0.10832176  0.50441139  1
  Zr  Zr49  1  0.89647130  0.69788266  0.51095286  1
  Sc  Sc50  1  0.70227266  0.10574584  0.90475244  1
  Sc  Sc51  1  0.88602754  0.10186054  0.50360463  1
  Sc  Sc52  1  0.50709947  0.29843167  0.29430647  1
  Sc  Sc53  1  0.89162779  0.89005999  0.09569918  1
  Sc  Sc54  1  0.50969767  0.50566295  0.90842450  1
  Sc  Sc55  1  0.29897867  0.49686545  0.90379455  1
  Sc  Sc56  1  0.89199520  0.49803061  0.90132035  1
  Sc  Sc57  1  0.29861075  0.29371796  0.30410193  1
  Sc  Sc58  1  0.70017075  0.91011257  0.50499094  1
  Sc  Sc59  1  0.10397376  0.49960298  0.30047291  1
  Sc  Sc60  1  0.50516432  0.10320928  0.90110331  1
  Sc  Sc61  1  0.29939444  0.89869876  0.50268937  1
  Sc  Sc62  1  0.69991905  0.90225108  0.69889761  1
  Sc  Sc63  1  0.88645212  0.89762085  0.50154162  1
  Sc  Sc64  1  0.89428045  0.29471502  0.51130637  1
  Sc  Sc65  1  0.50552184  0.90535993  0.29221261  1
  Sc  Sc66  1  0.50589285  0.09990173  0.50490691  1
  Sc  Sc67  1  0.30153715  0.11368335  0.50126082  1
  Sc  Sc68  1  0.89451571  0.29915963  0.29658167  1
  Sc  Sc69  1  0.30371059  0.10056015  0.69122417  1
  Sc  Sc70  1  0.49903963  0.10284301  0.69763506  1
  Sc  Sc71  1  0.70792123  0.69533320  0.70248517  1
  Sc  Sc72  1  0.11028938  0.09779502  0.29859602  1
  Sc  Sc73  1  0.69914335  0.49543062  0.29986615  1
  Sc  Sc74  1  0.50085748  0.10052502  0.10479050  1
  Sc  Sc75  1  0.70294442  0.30842220  0.49673520  1
  Sc  Sc76  1  0.90311459  0.89899185  0.90354227  1
  Sc  Sc77  1  0.29548267  0.90947684  0.29323808  1
  Sc  Sc78  1  0.07511774  0.69398030  0.10096733  1
  Sc  Sc79  1  0.89787951  0.88678250  0.69734820  1
  Sc  Sc80  1  0.69849553  0.30570878  0.30231035  1
  Sc  Sc81  1  0.70111701  0.09667477  0.50040659  1
  Sc  Sc82  1  0.50468285  0.30364240  0.49914817  1
  Sc  Sc83  1  0.69976252  0.68775385  0.89376868  1
  Sc  Sc84  1  0.08471361  0.10592824  0.09097070  1
  Sc  Sc85  1  0.70180306  0.89893040  0.10029699  1
  Sc  Sc86  1  0.09889936  0.70815619  0.70065913  1
  Sc  Sc87  1  0.30119610  0.10202605  0.29631920  1
  Sc  Sc88  1  0.09540656  0.49935407  0.90004074  1
  Sc  Sc89  1  0.90165190  0.29177945  0.11106850  1
  Sc  Sc90  1  0.09633323  0.30279945  0.29152300  1
  Sc  Sc91  1  0.09745130  0.70187030  0.49317945  1
  Sc  Sc92  1  0.30390369  0.30262151  0.08902465  1
  Sc  Sc93  1  0.09948878  0.29612499  0.91224049  1
  Sc  Sc94  1  0.69836652  0.49705064  0.49705086  1
  Sc  Sc95  1  0.70629336  0.69110650  0.50377464  1
  Sc  Sc96  1  0.88525536  0.10270157  0.29738138  1
  Sc  Sc97  1  0.11131795  0.30020155  0.49930052  1
  Sc  Sc98  1  0.70248356  0.90200070  0.90342439  1
  Sc  Sc99  1  0.70272531  0.10241944  0.69893356  1
  Nb  Nb100  1  0.09919088  0.90741322  0.49920822  1
  Nb  Nb101  1  0.09268534  0.29740489  0.10302404  1
  Nb  Nb102  1  0.50258192  0.49632490  0.10285253  1
  Nb  Nb103  1  0.89255469  0.69247165  0.09880624  1
  Nb  Nb104  1  0.09588045  0.09360526  0.89637822  1
  Nb  Nb105  1  0.90152650  0.89895753  0.30262420  1
  Nb  Nb106  1  0.69499241  0.30373232  0.70442474  1
  Nb  Nb107  1  0.70039227  0.50190847  0.90359633  1
  Nb  Nb108  1  0.90197278  0.30103781  0.89183150  1
  Nb  Nb109  1  0.30040372  0.10269931  0.89917727  1
  Nb  Nb110  1  0.51091762  0.30078203  0.70481601  1
  Nb  Nb111  1  0.09787134  0.69922050  0.90190223  1
  Nb  Nb112  1  0.69053400  0.09324894  0.30269692  1
  Nb  Nb113  1  0.90079175  0.50775877  0.09863733  1
  Nb  Nb114  1  0.90974963  0.49354854  0.70096276  1
  Nb  Nb115  1  0.89535036  0.69112193  0.70148838  1
  Nb  Nb116  1  0.50222922  0.50989841  0.49450050  1
  Nb  Nb117  1  0.30329150  0.30227598  0.49574697  1
  Nb  Nb118  1  0.29936202  0.70278588  0.09605877  1
  Nb  Nb119  1  0.09944582  0.90797582  0.89727789  1
  Nb  Nb120  1  0.50262522  0.90688143  0.69587511  1
  Nb  Nb121  1  0.50098946  0.69819358  0.49597748  1
  Nb  Nb122  1  0.29827171  0.09608024  0.09688706  1
  Nb  Nb123  1  0.50160205  0.70063296  0.89956539  1
  Nb  Nb124  1  0.89422548  0.30445585  0.70637034  1
  Nb  Nb125  1  -0.00497212  0.60166586  0.79809153  1
  Nb  Nb126  1  0.20180263  0.59826190  0.59894724  1
  Nb  Nb127  1  -0.00353842  0.39554822  0.40247412  1
  Nb  Nb128  1  0.19625829  0.60873543  0.00328085  1
  Nb  Nb129  1  0.19239373  0.79956784  -0.00035855  1
  Nb  Nb130  1  0.59446065  0.79822210  0.59721966  1
  Nb  Nb131  1  0.00018936  0.19982653  0.80358449  1
  Nb  Nb132  1  0.39998011  0.40287046  0.40253241  1
  Nb  Nb133  1  0.19814820  0.19957298  0.18536730  1
  Nb  Nb134  1  -0.00582466  -0.00389666  0.20836758  1
  Nb  Nb135  1  0.40157442  -0.00269768  0.79850226  1
  Nb  Nb136  1  0.00262375  -0.00070315  0.59419945  1
  Nb  Nb137  1  0.80532531  0.00475949  0.80085557  1
  Nb  Nb138  1  0.40353788  0.00441193  0.40008881  1
  Nb  Nb139  1  -0.00058093  0.19758793  0.40032088  1
  Nb  Nb140  1  0.19604966  0.00246046  -0.00684681  1
  Nb  Nb141  1  0.59715831  0.79722019  0.40688944  1
  Nb  Nb142  1  0.60358524  0.21041335  0.60693888  1
  Nb  Nb143  1  0.20075902  0.38809447  0.79971981  1
  Nb  Nb144  1  0.19852356  0.19965686  0.80320760  1
  Nb  Nb145  1  -0.00349962  0.00207224  0.40213091  1
  Nb  Nb146  1  -0.00629789  0.39808027  0.00731528  1
  Nb  Nb147  1  0.59474696  0.79260856  -0.00284517  1
  Nb  Nb148  1  0.19881330  0.79346623  0.19000911  1
  Nb  Nb149  1  0.40545814  0.60319081  0.80086532  1
  Pd  Pd150  1  0.40712953  0.20128099  0.40389232  1
  Pd  Pd151  1  0.60384293  0.00798114  0.79722647  1
  Pd  Pd152  1  0.59965686  0.80173488  0.19782693  1
  Pd  Pd153  1  0.61103520  0.79874225  0.79788610  1
  Pd  Pd154  1  0.20407818  0.39422345  0.60924014  1
  Pd  Pd155  1  0.39520410  0.39614579  0.20960918  1
  Pd  Pd156  1  0.19205567  0.60800433  0.18970545  1
  Pd  Pd157  1  0.40529994  0.41126186  0.81105973  1
  Pd  Pd158  1  0.60607863  0.60137400  0.59745263  1
  Pd  Pd159  1  0.59720749  0.20149672  0.00240570  1
  Pd  Pd160  1  0.19432542  0.80291987  0.80559982  1
  Pd  Pd161  1  0.40275974  0.80160857  0.78964421  1
  Pd  Pd162  1  0.60531059  0.20273323  0.40841762  1
  Pd  Pd163  1  -0.01135123  0.00172162  0.78796893  1
  Pd  Pd164  1  0.00887194  0.60522500  0.60583878  1
  Pd  Pd165  1  0.19335717  0.40492713  -0.00233966  1
  Pd  Pd166  1  0.19747961  0.19281386  0.00050624  1
  Pd  Pd167  1  0.78892916  0.20176621  0.20634229  1
  Pd  Pd168  1  0.19750626  0.79350231  0.58883744  1
  Pd  Pd169  1  0.40567851  0.79912626  0.60540460  1
  Pd  Pd170  1  0.79608065  0.80532897  0.80409110  1
  Pd  Pd171  1  0.79885794  0.59863536  0.39626936  1
  Pd  Pd172  1  0.00041489  0.80297085  0.00041573  1
  Pd  Pd173  1  -0.00757027  0.80615640  0.41174824  1
  Pd  Pd174  1  0.39871165  0.59950425  0.60576444  1
  Pd  Pd175  1  0.19727829  0.59216113  0.80197638  1
  Pd  Pd176  1  0.00066884  0.80520468  0.59507319  1
  Pd  Pd177  1  0.41018342  0.39827871  0.59051696  1
  Pd  Pd178  1  0.79089364  0.79811667  0.40643817  1
  Pd  Pd179  1  0.79736510  0.20138269  0.39832817  1
  Pd  Pd180  1  -0.00019654  0.79598617  0.80091978  1
  Pd  Pd181  1  0.20701725  0.21330497  0.61160964  1
  Pd  Pd182  1  -0.00381937  0.59558712  0.21015304  1
  Pd  Pd183  1  0.39701067  0.59452954  -0.00550581  1
  Pd  Pd184  1  0.59861292  0.39779442  -0.00565176  1
  Pd  Pd185  1  0.80305283  0.20897095  0.00137545  1
  Pd  Pd186  1  -0.00431801  0.59271988  0.39429982  1
  Pd  Pd187  1  0.60280528  -0.00517525  0.00190936  1
  Pd  Pd188  1  0.80298422  -0.00596351  0.19962814  1
  Pd  Pd189  1  0.79854095  0.40673171  0.79971433  1
  Pd  Pd190  1  0.39495235  0.80158805  0.20687189  1
  Pd  Pd191  1  0.39992646  0.59667665  0.20330837  1
  Pd  Pd192  1  0.40175698  0.00842688  -0.00791797  1
  Pd  Pd193  1  0.40378854  0.81266323  0.38870867  1
  Pd  Pd194  1  0.79811109  0.40164520  0.60329818  1
  Pd  Pd195  1  0.80876900  0.39205506  0.00609807  1
  Pd  Pd196  1  0.39298584  0.20017785  0.19376743  1
  Pd  Pd197  1  0.20856213  0.00571940  0.40722422  1
  Pd  Pd198  1  0.20657292  0.80085616  0.39888518  1
  Pd  Pd199  1  0.20748483  0.38790041  0.19836309  1
  Rh  Rh200  1  0.19755221  0.60550721  0.40801107  1
  Rh  Rh201  1  0.80324805  0.80164677  0.19971674  1
  Rh  Rh202  1  -0.00593638  0.39282800  0.58839683  1
  Rh  Rh203  1  0.00355111  0.39887038  0.81181536  1
  Rh  Rh204  1  0.40588081  0.79744545  0.00315519  1
  Rh  Rh205  1  0.60312602  0.00417602  0.60417137  1
  Rh  Rh206  1  0.60344638  -0.00060521  0.19527509  1
  Rh  Rh207  1  0.80013126  -0.00100985  -0.00570499  1
  Rh  Rh208  1  0.79862489  0.40026122  0.19218753  1
  Rh  Rh209  1  0.41212992  0.20576871  0.59529610  1
  Rh  Rh210  1  0.40016967  0.18733634  0.79819068  1
  Rh  Rh211  1  0.78538803  0.21111326  0.60445622  1
  Rh  Rh212  1  0.40689024  0.19473275  0.00418086  1
  Rh  Rh213  1  -0.00208997  -0.00629533  0.00768518  1
  Rh  Rh214  1  0.59568142  -0.00546215  0.39955000  1
  Rh  Rh215  1  0.60249710  0.59358160  0.19363362  1
  Rh  Rh216  1  0.20102378  0.00029736  0.59086344  1
  Rh  Rh217  1  0.80775958  0.59070334  0.79820960  1
  Rh  Rh218  1  0.19442712  0.20544598  0.39006775  1
  Rh  Rh219  1  0.59750026  0.59443896  0.80145946  1
  Rh  Rh220  1  0.39657599  0.00523038  0.59799856  1
  Rh  Rh221  1  -0.00900760  0.20947515  -0.00624499  1
  Rh  Rh222  1  0.80371333  0.19760655  0.79895294  1
  Rh  Rh223  1  0.60081070  0.39869547  0.59456332  1
  Rh  Rh224  1  0.21173161  0.00656252  0.80485580  1
  Rh  Rh225  1  0.79785161  0.60039011  -0.00391723  1
  Rh  Rh226  1  0.60293895  0.40240768  0.19817468  1
  Rh  Rh227  1  0.19928051  0.39198963  0.39336144  1
  Rh  Rh228  1  -0.00132414  0.59099239  -0.00775501  1
  Rh  Rh229  1  0.60459987  0.19622702  0.79576557  1
  Rh  Rh230  1  0.60210731  0.60480848  0.00626137  1
  Rh  Rh231  1  0.40030568  0.59076049  0.39444128  1
  Rh  Rh232  1  0.80876733  0.39956739  0.40335416  1
  Rh  Rh233  1  0.79033156  0.79569989  0.60142480  1
  Rh  Rh234  1  0.60763635  0.60396193  0.40151582  1
  Rh  Rh235  1  0.00676029  0.18752139  0.21183595  1
  Rh  Rh236  1  0.19117710  0.00848352  0.18578438  1
  Rh  Rh237  1  0.40921046  0.40552260  -0.00263787  1
  Rh  Rh238  1  0.60062910  0.40591823  0.81006264  1
  Rh  Rh239  1  0.40358288  0.00844081  0.20748514  1
  Rh  Rh240  1  0.79998388  0.59812785  0.20267035  1
  Rh  Rh241  1  0.80226896  0.00269496  0.39711651  1
  Rh  Rh242  1  0.79982718  0.59014363  0.60829132  1
  Rh  Rh243  1  0.79097541  0.79298081  -0.00583628  1
  Rh  Rh244  1  -0.00189601  0.19882407  0.59620976  1
  Rh  Rh245  1  0.60565526  0.20125416  0.19959373  1
  Rh  Rh246  1  0.59236879  0.40373894  0.40150573  1
  Rh  Rh247  1  -0.00749840  0.40244952  0.20062395  1
  Rh  Rh248  1  -0.00524764  0.80365998  0.19495632  1
  Rh  Rh249  1  0.80725924  -0.00271971  0.61179875  1
