# generated using pymatgen
data_ZrScNbPdRh
_symmetry_space_group_name_H-M   'P 1'
_cell_length_a   16.55710751
_cell_length_b   16.55285494
_cell_length_c   16.55589131
_cell_angle_alpha   90.02359082
_cell_angle_beta   90.02518491
_cell_angle_gamma   89.97677883
_symmetry_Int_Tables_number   1
_chemical_formula_structural   ZrScNbPdRh
_chemical_formula_sum   'Zr50 Sc50 Nb50 Pd50 Rh50'
_cell_volume   4537.42887062
_cell_formula_units_Z   50
loop_
 _symmetry_equiv_pos_site_id
 _symmetry_equiv_pos_as_xyz
  1  'x, y, z'
loop_
 _atom_site_type_symbol
 _atom_site_label
 _atom_site_symmetry_multiplicity
 _atom_site_fract_x
 _atom_site_fract_y
 _atom_site_fract_z
 _atom_site_occupancy
  Zr  Zr0  1  0.90626148  0.30093249  0.10098104  1
  Zr  Zr1  1  0.10268820  0.09568074  0.70270839  1
  Zr  Zr2  1  0.10002348  0.30378140  0.28703286  1
  Zr  Zr3  1  0.69265964  0.10016072  0.49494317  1
  Zr  Zr4  1  0.10119412  0.49951535  0.90672172  1
  Zr  Zr5  1  0.90879519  0.69437575  0.89662386  1
  Zr  Zr6  1  0.90029691  0.50007167  0.50763153  1
  Zr  Zr7  1  0.89576090  0.29902659  0.50740874  1
  Zr  Zr8  1  0.70324387  0.89882994  0.69570478  1
  Zr  Zr9  1  0.30016323  0.49751463  0.68902463  1
  Zr  Zr10  1  0.49418236  0.90275039  0.69266516  1
  Zr  Zr11  1  0.50306420  0.09640244  0.49431780  1
  Zr  Zr12  1  0.10172481  0.70534663  0.90198010  1
  Zr  Zr13  1  0.90663686  0.89782717  0.49898728  1
  Zr  Zr14  1  0.10360700  0.70040128  0.30343423  1
  Zr  Zr15  1  0.10274252  0.30776788  0.70111776  1
  Zr  Zr16  1  0.49937594  0.09196903  0.10461192  1
  Zr  Zr17  1  0.69926957  0.29773134  0.50699920  1
  Zr  Zr18  1  0.70735346  0.70461595  0.29372741  1
  Zr  Zr19  1  0.49856223  0.69759582  0.90084710  1
  Zr  Zr20  1  0.30098615  0.10357062  0.90005673  1
  Zr  Zr21  1  0.09766204  0.90453166  0.69886429  1
  Zr  Zr22  1  0.70091985  0.69427111  0.49925180  1
  Zr  Zr23  1  0.30373565  0.49432760  0.29823554  1
  Zr  Zr24  1  0.69622616  0.09765287  0.69673857  1
  Zr  Zr25  1  0.90938446  0.50763027  0.28729265  1
  Zr  Zr26  1  0.89482933  0.09758026  0.49455854  1
  Zr  Zr27  1  0.69600847  0.90124142  0.91035312  1
  Zr  Zr28  1  0.49128999  0.49606646  0.10039553  1
  Zr  Zr29  1  0.90263247  0.70405342  0.30209226  1
  Zr  Zr30  1  0.89538846  0.69205944  0.10806447  1
  Zr  Zr31  1  0.89612934  0.49294900  0.71163471  1
  Zr  Zr32  1  0.09743348  0.10218159  0.28789880  1
  Zr  Zr33  1  0.10248667  0.09903213  0.90767927  1
  Zr  Zr34  1  0.10707704  0.70445900  0.09449958  1
  Zr  Zr35  1  0.49874038  0.49802220  0.89783900  1
  Zr  Zr36  1  0.09567814  0.70103046  0.70460172  1
  Zr  Zr37  1  0.30442419  0.49340441  0.91285289  1
  Zr  Zr38  1  0.30451001  0.30674487  0.69546835  1
  Zr  Zr39  1  0.50277514  0.29673241  0.50716083  1
  Zr  Zr40  1  0.49834142  0.11391233  0.90617164  1
  Zr  Zr41  1  0.69527623  0.70471060  0.10002604  1
  Zr  Zr42  1  0.49625782  0.90755932  0.49353642  1
  Zr  Zr43  1  0.68866630  0.90165679  0.10736056  1
  Zr  Zr44  1  0.49814565  0.50136593  0.29872753  1
  Zr  Zr45  1  0.70525432  0.09784208  0.10742122  1
  Zr  Zr46  1  0.10156185  0.30583503  0.90991227  1
  Zr  Zr47  1  0.10293010  0.48803469  0.09989098  1
  Zr  Zr48  1  0.29963736  0.69939450  0.69309574  1
  Zr  Zr49  1  0.70511246  0.49854701  0.09626846  1
  Sc  Sc50  1  0.90450908  0.09882070  0.10031031  1
  Sc  Sc51  1  0.90304453  0.49984548  0.09144646  1
  Sc  Sc52  1  0.10368884  0.90085779  0.30287011  1
  Sc  Sc53  1  0.49872357  0.69676054  0.10169682  1
  Sc  Sc54  1  0.89955941  0.90152508  0.30522712  1
  Sc  Sc55  1  0.50016095  0.30777144  0.70055687  1
  Sc  Sc56  1  0.30862402  0.09235887  0.49738541  1
  Sc  Sc57  1  0.29725988  0.90416485  0.69743309  1
  Sc  Sc58  1  0.49289393  0.69844937  0.69445799  1
  Sc  Sc59  1  0.70143976  0.28995655  0.09897844  1
  Sc  Sc60  1  0.10026370  0.49900437  0.69373595  1
  Sc  Sc61  1  0.09907261  0.91069967  0.10101563  1
  Sc  Sc62  1  0.69559554  0.49959471  0.29757771  1
  Sc  Sc63  1  0.90104679  0.91222596  0.09559370  1
  Sc  Sc64  1  0.30580768  0.09846244  0.29849536  1
  Sc  Sc65  1  0.69336074  0.50259217  0.69936772  1
  Sc  Sc66  1  0.30390940  0.69476361  0.49277574  1
  Sc  Sc67  1  0.49952263  0.29327169  0.10392128  1
  Sc  Sc68  1  0.09979703  0.89767440  0.90238436  1
  Sc  Sc69  1  0.30221821  0.69909010  0.30106568  1
  Sc  Sc70  1  0.69865856  0.28616607  0.29336604  1
  Sc  Sc71  1  0.29660795  0.30434564  0.10590262  1
  Sc  Sc72  1  0.49909502  0.90536044  0.90649288  1
  Sc  Sc73  1  0.09623634  0.08366736  0.50009138  1
  Sc  Sc74  1  0.29883963  0.69824699  0.10439646  1
  Sc  Sc75  1  0.70864779  0.49808162  0.89240808  1
  Sc  Sc76  1  0.29539500  0.10044317  0.10187703  1
  Sc  Sc77  1  0.29718732  0.50538135  0.50023756  1
  Sc  Sc78  1  0.29318514  0.90190293  0.89922773  1
  Sc  Sc79  1  0.50156723  0.51130606  0.50149968  1
  Sc  Sc80  1  0.90314708  0.70752791  0.50043100  1
  Sc  Sc81  1  0.30185368  0.89910752  0.49111409  1
  Sc  Sc82  1  0.69903237  0.30053327  0.70254952  1
  Sc  Sc83  1  0.90072016  0.69821556  0.70146396  1
  Sc  Sc84  1  0.49714794  0.89884357  0.29220308  1
  Sc  Sc85  1  0.29828326  0.89871866  0.10822881  1
  Sc  Sc86  1  0.29797510  0.89237600  0.30106987  1
  Sc  Sc87  1  0.30290844  0.31310156  0.49937038  1
  Sc  Sc88  1  0.30260982  0.50263282  0.10094431  1
  Sc  Sc89  1  0.90456939  0.91081895  0.90438992  1
  Sc  Sc90  1  0.70534679  0.11043566  0.90157239  1
  Sc  Sc91  1  0.29427949  0.70587699  0.90830582  1
  Sc  Sc92  1  0.49650199  0.10543447  0.68407115  1
  Sc  Sc93  1  0.69290847  0.68665733  0.89867576  1
  Sc  Sc94  1  0.70864987  0.90155028  0.49662926  1
  Sc  Sc95  1  0.90212344  0.89650670  0.69805326  1
  Sc  Sc96  1  0.10529163  0.50466449  0.29786966  1
  Sc  Sc97  1  0.89773436  0.09005489  0.70311309  1
  Sc  Sc98  1  0.49057774  0.29963849  0.29840821  1
  Sc  Sc99  1  0.70400642  0.69193104  0.70234083  1
  Nb  Nb100  1  0.09836101  0.89132699  0.49720546  1
  Nb  Nb101  1  0.31265470  0.30309227  0.89652803  1
  Nb  Nb102  1  0.29502285  0.30165550  0.30387977  1
  Nb  Nb103  1  0.50021684  0.70067301  0.49043566  1
  Nb  Nb104  1  0.69664884  0.29790568  0.90356871  1
  Nb  Nb105  1  0.10339503  0.50396095  0.49893226  1
  Nb  Nb106  1  0.49841789  0.30168500  0.90248827  1
  Nb  Nb107  1  0.10064263  0.28976814  0.10426116  1
  Nb  Nb108  1  0.49531029  0.50020840  0.70148003  1
  Nb  Nb109  1  0.69919517  0.49771883  0.49839453  1
  Nb  Nb110  1  0.89478191  0.10604472  0.29649894  1
  Nb  Nb111  1  0.90018274  0.10295303  0.90063847  1
  Nb  Nb112  1  0.89004076  0.31002831  0.89516622  1
  Nb  Nb113  1  0.90268483  0.30207414  0.30136300  1
  Nb  Nb114  1  0.69442166  0.89586101  0.29703225  1
  Nb  Nb115  1  0.09867618  0.29818902  0.49895896  1
  Nb  Nb116  1  0.10446714  0.69570780  0.49562761  1
  Nb  Nb117  1  0.90644840  0.30243422  0.70566554  1
  Nb  Nb118  1  0.50114616  0.69317764  0.30859539  1
  Nb  Nb119  1  0.69919992  0.09055768  0.29851239  1
  Nb  Nb120  1  0.29416216  0.10098842  0.70244460  1
  Nb  Nb121  1  0.89905512  0.48663217  0.90268376  1
  Nb  Nb122  1  0.50685745  0.89543232  0.09652915  1
  Nb  Nb123  1  0.09866157  0.11568426  0.10318053  1
  Nb  Nb124  1  0.50453978  0.09569390  0.30838028  1
  Nb  Nb125  1  0.79651665  0.80022178  0.80928532  1
  Nb  Nb126  1  0.00052747  0.20314271  0.40010716  1
  Nb  Nb127  1  0.00002250  0.39840545  0.40240015  1
  Nb  Nb128  1  0.59907107  0.60133262  0.20145817  1
  Nb  Nb129  1  0.40513841  0.80521055  0.00568412  1
  Nb  Nb130  1  0.00163617  0.20055041  0.60236799  1
  Nb  Nb131  1  0.59417121  0.00172316  0.79939280  1
  Nb  Nb132  1  0.59949624  0.39296034  -0.00626670  1
  Nb  Nb133  1  0.19266276  0.79816018  0.59189300  1
  Nb  Nb134  1  0.79810597  0.79751595  -0.00133469  1
  Nb  Nb135  1  0.80058016  0.59306926  0.40020983  1
  Nb  Nb136  1  0.00146318  0.79814163  0.19912189  1
  Nb  Nb137  1  0.60580466  0.40044943  0.40400664  1
  Nb  Nb138  1  0.59950106  0.79729263  0.39854005  1
  Nb  Nb139  1  0.59973990  0.80463254  0.79531785  1
  Nb  Nb140  1  0.20440439  0.59755863  0.80130370  1
  Nb  Nb141  1  0.40164006  0.00848223  0.79958991  1
  Nb  Nb142  1  0.59767384  0.79785492  0.59377248  1
  Nb  Nb143  1  0.19519080  0.20392408  0.40238453  1
  Nb  Nb144  1  0.20172714  0.20522165  0.79980881  1
  Nb  Nb145  1  0.80127654  0.40155192  0.39607109  1
  Nb  Nb146  1  0.19685147  0.19970018  0.59813756  1
  Nb  Nb147  1  0.39335439  0.59588813  0.79998827  1
  Nb  Nb148  1  -0.00294109  0.20493699  0.80270423  1
  Nb  Nb149  1  0.80452584  0.39664143  0.20389838  1
  Pd  Pd150  1  0.39102679  0.19914845  0.59420701  1
  Pd  Pd151  1  0.20508617  -0.00437765  0.59095535  1
  Pd  Pd152  1  0.80431773  0.20223418  0.79483968  1
  Pd  Pd153  1  0.40269779  0.80461088  0.80939362  1
  Pd  Pd154  1  0.00038915  0.00173877  0.80485013  1
  Pd  Pd155  1  0.00427037  0.40031049  0.59678888  1
  Pd  Pd156  1  0.59831851  0.58943482  0.00458228  1
  Pd  Pd157  1  0.79659500  -0.00346769  0.39369809  1
  Pd  Pd158  1  0.00148039  0.00307712  0.39186211  1
  Pd  Pd159  1  0.60340858  0.01429424  -0.00388830  1
  Pd  Pd160  1  -0.00821001  0.80407252  0.00807224  1
  Pd  Pd161  1  0.79918374  0.20318367  0.39388583  1
  Pd  Pd162  1  0.80681896  0.19970384  0.00289572  1
  Pd  Pd163  1  0.59440427  0.19348730  0.20331469  1
  Pd  Pd164  1  0.19368638  0.40069764  0.40126260  1
  Pd  Pd165  1  0.59390267  0.19784149  0.79388127  1
  Pd  Pd166  1  0.40490324  0.79407623  0.19845477  1
  Pd  Pd167  1  -0.00363484  0.59614309  0.40492837  1
  Pd  Pd168  1  0.20136157  0.59745108  0.19927555  1
  Pd  Pd169  1  0.60644736  0.39998092  0.19752522  1
  Pd  Pd170  1  0.80310565  -0.00025709  0.59599155  1
  Pd  Pd171  1  0.20610179  0.40387340  0.80415470  1
  Pd  Pd172  1  0.80475583  -0.00553073  0.20498493  1
  Pd  Pd173  1  0.39540625  0.79907667  0.58733660  1
  Pd  Pd174  1  0.60385606  0.39986764  0.80338555  1
  Pd  Pd175  1  0.39377599  -0.00663302  -0.00058775  1
  Pd  Pd176  1  0.20075467  0.00066283  0.20043349  1
  Pd  Pd177  1  -0.00835699  0.20361862  -0.00682138  1
  Pd  Pd178  1  0.79387781  -0.00551250  0.80747729  1
  Pd  Pd179  1  0.80222939  0.60320017  -0.00762162  1
  Pd  Pd180  1  0.39206014  0.20136795  0.40263303  1
  Pd  Pd181  1  0.00579796  0.58867714  0.80084728  1
  Pd  Pd182  1  0.59526509  0.60334684  0.60395111  1
  Pd  Pd183  1  0.21087597  0.20874920  -0.00282370  1
  Pd  Pd184  1  0.80386409  0.60087904  0.60060374  1
  Pd  Pd185  1  0.20138908  0.00603576  0.39701704  1
  Pd  Pd186  1  -0.00026748  0.60197283  0.60147051  1
  Pd  Pd187  1  0.59748336  0.20696296  0.39279231  1
  Pd  Pd188  1  0.39609744  0.19922064  0.20061439  1
  Pd  Pd189  1  0.39402117  0.20484699  0.01259807  1
  Pd  Pd190  1  0.80551642  0.19532134  0.61206388  1
  Pd  Pd191  1  0.79279025  0.40229203  0.60768018  1
  Pd  Pd192  1  0.00230508  0.59741266  0.00352465  1
  Pd  Pd193  1  0.81043085  0.81424303  0.19083193  1
  Pd  Pd194  1  0.40071907  0.19933268  0.79144487  1
  Pd  Pd195  1  0.00334056  0.79644321  0.60068951  1
  Pd  Pd196  1  0.40030959  -0.00345996  0.20165610  1
  Pd  Pd197  1  0.20241739  0.79920852  0.79226078  1
  Pd  Pd198  1  0.19966247  -0.00074077  0.00594876  1
  Pd  Pd199  1  0.41025407  0.40427229  0.40691109  1
  Rh  Rh200  1  0.20896544  0.80863335  0.00726730  1
  Rh  Rh201  1  0.20516527  0.39237448  0.00639465  1
  Rh  Rh202  1  -0.00502201  0.00058792  0.59648503  1
  Rh  Rh203  1  0.59603832  0.40510605  0.59723586  1
  Rh  Rh204  1  0.79723378  0.79521819  0.60596426  1
  Rh  Rh205  1  0.39534354  0.39483847  0.20069139  1
  Rh  Rh206  1  0.60372578  -0.00924010  0.39254142  1
  Rh  Rh207  1  0.40459852  0.59901238  0.59983608  1
  Rh  Rh208  1  -0.00894596  0.80868769  0.80340468  1
  Rh  Rh209  1  0.59952930  0.20213995  0.00499702  1
  Rh  Rh210  1  0.79302430  0.39263440  0.00460990  1
  Rh  Rh211  1  0.58615137  0.60487748  0.79096957  1
  Rh  Rh212  1  0.60337637  -0.00438844  0.59871371  1
  Rh  Rh213  1  0.79151228  0.58860864  0.20453271  1
  Rh  Rh214  1  0.20454335  0.59810999  0.39647147  1
  Rh  Rh215  1  0.20160298  0.59926188  -0.00211566  1
  Rh  Rh216  1  0.79097275  0.39673211  0.79625449  1
  Rh  Rh217  1  0.20966407  0.19953300  0.20739451  1
  Rh  Rh218  1  -0.00106649  0.39497854  0.00199224  1
  Rh  Rh219  1  0.40067112  0.40513373  0.79826905  1
  Rh  Rh220  1  -0.00873407  0.19667583  0.20273051  1
  Rh  Rh221  1  0.00160190  0.40053821  0.80671732  1
  Rh  Rh222  1  0.40914340  0.40792753  0.59271863  1
  Rh  Rh223  1  -0.00082401  -0.00054693  0.20223782  1
  Rh  Rh224  1  0.80501889  0.20132096  0.20067266  1
  Rh  Rh225  1  0.20162907  0.79659450  0.40545013  1
  Rh  Rh226  1  0.40408419  0.60265957  0.20407683  1
  Rh  Rh227  1  0.39311904  0.59491494  0.39893545  1
  Rh  Rh228  1  0.58855274  0.79106255  0.20916286  1
  Rh  Rh229  1  0.39193423  0.00329539  0.60458274  1
  Rh  Rh230  1  0.79748436  0.00434954  -0.00054820  1
  Rh  Rh231  1  0.40580256  0.38927098  0.00705291  1
  Rh  Rh232  1  0.20459288  0.00360159  0.80542567  1
  Rh  Rh233  1  0.40550893  0.79993814  0.39645347  1
  Rh  Rh234  1  0.59361690  0.00316123  0.20737063  1
  Rh  Rh235  1  0.00576990  0.00975498  0.00274137  1
  Rh  Rh236  1  0.79432446  0.79746609  0.40379997  1
  Rh  Rh237  1  0.00571663  0.80123958  0.39377094  1
  Rh  Rh238  1  0.20300806  0.40061849  0.19685476  1
  Rh  Rh239  1  0.80747445  0.59994954  0.80361726  1
  Rh  Rh240  1  0.19124015  0.80167353  0.20095530  1
  Rh  Rh241  1  0.60100234  0.20105700  0.60484412  1
  Rh  Rh242  1  0.60832918  0.60017474  0.39249362  1
  Rh  Rh243  1  0.19697737  0.39920975  0.59057463  1
  Rh  Rh244  1  -0.00084755  0.40170167  0.19799268  1
  Rh  Rh245  1  0.01445530  0.60812239  0.18912658  1
  Rh  Rh246  1  0.19367279  0.60683027  0.60199459  1
  Rh  Rh247  1  0.39421647  0.61092674  -0.00408733  1
  Rh  Rh248  1  0.59745371  0.79414416  -0.00640570  1
  Rh  Rh249  1  0.39927432  -0.00300097  0.38823280  1
