# generated using pymatgen
data_ZrScNbPdRh
_symmetry_space_group_name_H-M   'P 1'
_cell_length_a   16.56004122
_cell_length_b   16.56204299
_cell_length_c   16.56404158
_cell_angle_alpha   89.95207673
_cell_angle_beta   90.00694166
_cell_angle_gamma   89.99251253
_symmetry_Int_Tables_number   1
_chemical_formula_structural   ZrScNbPdRh
_chemical_formula_sum   'Zr50 Sc50 Nb50 Pd50 Rh50'
_cell_volume   4542.98679370
_cell_formula_units_Z   50
loop_
 _symmetry_equiv_pos_site_id
 _symmetry_equiv_pos_as_xyz
  1  'x, y, z'
loop_
 _atom_site_type_symbol
 _atom_site_label
 _atom_site_symmetry_multiplicity
 _atom_site_fract_x
 _atom_site_fract_y
 _atom_site_fract_z
 _atom_site_occupancy
  Zr  Zr0  1  0.89638185  0.50577490  0.89866629  1
  Zr  Zr1  1  0.49285271  0.09888695  0.10370242  1
  Zr  Zr2  1  0.90311362  0.89986479  0.10648790  1
  Zr  Zr3  1  0.10270035  0.88825852  0.09529810  1
  Zr  Zr4  1  0.10381126  0.90334872  0.50759122  1
  Zr  Zr5  1  0.69724158  0.89022281  0.50349399  1
  Zr  Zr6  1  0.29929281  0.69648986  0.50169754  1
  Zr  Zr7  1  0.69439471  0.29419901  0.30248207  1
  Zr  Zr8  1  0.10809223  0.50801664  0.89527878  1
  Zr  Zr9  1  0.50466909  0.09567015  0.69417553  1
  Zr  Zr10  1  0.50279744  0.90774112  0.89639537  1
  Zr  Zr11  1  0.29910394  0.90211694  0.69505660  1
  Zr  Zr12  1  0.89916533  0.09967483  0.10877908  1
  Zr  Zr13  1  0.10494883  0.10554334  0.10004887  1
  Zr  Zr14  1  0.69015376  0.29515102  0.69625816  1
  Zr  Zr15  1  0.89645947  0.29837989  0.68548662  1
  Zr  Zr16  1  0.49570897  0.70346565  0.09605299  1
  Zr  Zr17  1  0.89720237  0.49086866  0.50265515  1
  Zr  Zr18  1  0.69827022  0.49788975  0.89693973  1
  Zr  Zr19  1  0.69899566  0.28990754  0.89448933  1
  Zr  Zr20  1  0.10367732  0.89674202  0.70027446  1
  Zr  Zr21  1  0.89722057  0.90080926  0.89679923  1
  Zr  Zr22  1  0.90594041  0.90559700  0.70840783  1
  Zr  Zr23  1  0.49508946  0.30078656  0.10156690  1
  Zr  Zr24  1  0.50533625  0.49777789  0.09686545  1
  Zr  Zr25  1  0.90274536  0.29590866  0.90310824  1
  Zr  Zr26  1  0.49325042  0.90706205  0.29844772  1
  Zr  Zr27  1  0.09869274  0.30486827  0.90206464  1
  Zr  Zr28  1  0.50120288  0.49092507  0.90162466  1
  Zr  Zr29  1  0.29029511  0.69398724  0.90103571  1
  Zr  Zr30  1  0.10009269  0.10054114  0.30087984  1
  Zr  Zr31  1  0.89528196  0.09941044  0.89584235  1
  Zr  Zr32  1  0.10044701  0.70370159  0.90497058  1
  Zr  Zr33  1  0.89235524  0.69686924  0.49915892  1
  Zr  Zr34  1  0.09472937  0.89685279  0.89042876  1
  Zr  Zr35  1  0.69675240  0.70031253  0.68750042  1
  Zr  Zr36  1  0.90865452  0.70144686  0.09949282  1
  Zr  Zr37  1  0.49705077  0.89585790  0.70437421  1
  Zr  Zr38  1  0.29639268  0.71032120  0.10007909  1
  Zr  Zr39  1  0.49397560  0.90376751  0.10240620  1
  Zr  Zr40  1  0.70379586  0.09468783  0.89539215  1
  Zr  Zr41  1  0.89982668  0.90276228  0.29965616  1
  Zr  Zr42  1  0.10235959  0.09707784  0.49806127  1
  Zr  Zr43  1  0.30188533  0.70209212  0.30026740  1
  Zr  Zr44  1  0.70700677  0.68796408  0.90261223  1
  Zr  Zr45  1  0.30081032  0.29756561  0.49411372  1
  Zr  Zr46  1  0.70458697  0.70260414  0.31345899  1
  Zr  Zr47  1  0.90391840  0.10716354  0.51815571  1
  Zr  Zr48  1  0.49630389  0.29665522  0.89541735  1
  Zr  Zr49  1  0.69928836  0.70088290  0.49922323  1
  Sc  Sc50  1  0.50062906  0.90573284  0.50662179  1
  Sc  Sc51  1  0.30328020  0.10524175  0.90475532  1
  Sc  Sc52  1  0.69825249  0.90212231  0.69920714  1
  Sc  Sc53  1  0.50611903  0.30339347  0.30253872  1
  Sc  Sc54  1  0.09577654  0.89977983  0.30907721  1
  Sc  Sc55  1  0.10563774  0.10276870  0.90097382  1
  Sc  Sc56  1  0.89177607  0.69821699  0.70017024  1
  Sc  Sc57  1  0.29508684  0.90626937  0.50129535  1
  Sc  Sc58  1  0.70266508  0.49440536  0.30850074  1
  Sc  Sc59  1  0.31173883  0.50322237  0.30340466  1
  Sc  Sc60  1  0.09923924  0.50030533  0.50596626  1
  Sc  Sc61  1  0.50863926  0.69649123  0.51072164  1
  Sc  Sc62  1  0.69807091  0.50232870  0.50148194  1
  Sc  Sc63  1  0.69696471  0.30340809  0.50124701  1
  Sc  Sc64  1  0.70147284  0.29532736  0.11087759  1
  Sc  Sc65  1  0.50059536  0.49482962  0.30005796  1
  Sc  Sc66  1  0.90463385  0.70334724  0.30715287  1
  Sc  Sc67  1  0.09728839  0.08734669  0.69483279  1
  Sc  Sc68  1  0.29801490  0.90242889  0.89500246  1
  Sc  Sc69  1  0.70059613  0.50576851  0.08512365  1
  Sc  Sc70  1  0.50719201  0.29563015  0.49812444  1
  Sc  Sc71  1  0.09569432  0.69833565  0.30692778  1
  Sc  Sc72  1  0.49805371  0.10069439  0.90389834  1
  Sc  Sc73  1  0.30827381  0.10094192  0.70563496  1
  Sc  Sc74  1  0.90232014  0.89751221  0.50161871  1
  Sc  Sc75  1  0.30080100  0.90284406  0.10522272  1
  Sc  Sc76  1  0.89644684  0.30470777  0.29498077  1
  Sc  Sc77  1  0.09095000  0.29370789  0.29454374  1
  Sc  Sc78  1  0.49974112  0.49444629  0.69508517  1
  Sc  Sc79  1  0.70384865  0.89631063  0.30403883  1
  Sc  Sc80  1  0.91034204  0.49617640  0.10445944  1
  Sc  Sc81  1  0.69873920  0.10440897  0.10900215  1
  Sc  Sc82  1  0.30443273  0.29883235  0.88751651  1
  Sc  Sc83  1  0.50011645  0.71006445  0.89533952  1
  Sc  Sc84  1  0.70713967  0.91134753  0.10735652  1
  Sc  Sc85  1  0.09050586  0.30483091  0.50175902  1
  Sc  Sc86  1  0.50276249  0.70091898  0.30837922  1
  Sc  Sc87  1  0.29793896  0.50623158  0.50352155  1
  Sc  Sc88  1  0.29838365  0.90799568  0.29932079  1
  Sc  Sc89  1  0.49482005  0.10280216  0.49875689  1
  Sc  Sc90  1  0.30048057  0.69746659  0.69013756  1
  Sc  Sc91  1  0.31486298  0.49651888  0.10746378  1
  Sc  Sc92  1  0.90498822  0.50097681  0.29908679  1
  Sc  Sc93  1  0.90411471  0.29732252  0.10139822  1
  Sc  Sc94  1  0.28786008  0.49633643  0.69788994  1
  Sc  Sc95  1  0.10490132  0.70024879  0.49699162  1
  Sc  Sc96  1  0.89917791  0.50669559  0.68922096  1
  Sc  Sc97  1  0.09071024  0.29536591  0.09831464  1
  Sc  Sc98  1  0.11430743  0.31165649  0.69579868  1
  Sc  Sc99  1  0.90393268  0.69954952  0.89489764  1
  Nb  Nb100  1  0.71028960  0.10212972  0.69135454  1
  Nb  Nb101  1  0.69564820  0.10032306  0.50572306  1
  Nb  Nb102  1  0.69998916  0.69831072  0.09601298  1
  Nb  Nb103  1  0.49854822  0.69411528  0.70043746  1
  Nb  Nb104  1  0.29780168  0.30049209  0.29702302  1
  Nb  Nb105  1  0.70001162  0.89928765  0.90271405  1
  Nb  Nb106  1  0.10304845  0.69456578  0.09588541  1
  Nb  Nb107  1  0.89857331  0.30129083  0.50118639  1
  Nb  Nb108  1  0.09696036  0.49789367  0.28945627  1
  Nb  Nb109  1  0.30139961  0.49768631  0.89428755  1
  Nb  Nb110  1  0.70169542  0.49832389  0.69829765  1
  Nb  Nb111  1  0.89782333  0.09938312  0.30228137  1
  Nb  Nb112  1  0.29579004  0.10031208  0.48622059  1
  Nb  Nb113  1  0.49977006  0.09959730  0.29918162  1
  Nb  Nb114  1  0.49122415  0.29483135  0.70099653  1
  Nb  Nb115  1  0.49580112  0.49844047  0.50216326  1
  Nb  Nb116  1  0.89636997  0.10070014  0.70347806  1
  Nb  Nb117  1  0.09858291  0.49716579  0.10190468  1
  Nb  Nb118  1  0.10172071  0.49933891  0.69816377  1
  Nb  Nb119  1  0.29543129  0.10837548  0.10648847  1
  Nb  Nb120  1  0.30431354  0.30070278  0.69835711  1
  Nb  Nb121  1  0.69791570  0.10677345  0.30280270  1
  Nb  Nb122  1  0.10182397  0.69498342  0.70293095  1
  Nb  Nb123  1  0.29771058  0.29685167  0.10609367  1
  Nb  Nb124  1  0.29858490  0.10398439  0.30725917  1
  Nb  Nb125  1  0.80153502  0.39787878  0.79704966  1
  Nb  Nb126  1  0.39864965  0.59725648  -0.00800019  1
  Nb  Nb127  1  0.20815142  0.19816650  0.59513668  1
  Nb  Nb128  1  0.79582791  0.60601515  0.19912135  1
  Nb  Nb129  1  0.60805311  0.80635722  0.00179831  1
  Nb  Nb130  1  0.60242828  0.79615869  0.19569459  1
  Nb  Nb131  1  0.59658613  0.59971400  0.79459775  1
  Nb  Nb132  1  0.00443512  0.79735107  0.60623607  1
  Nb  Nb133  1  0.19842659  0.40062442  0.38922747  1
  Nb  Nb134  1  0.80235514  0.39727708  -0.00701067  1
  Nb  Nb135  1  0.20423242  0.40345482  0.00610795  1
  Nb  Nb136  1  0.39300611  0.19740350  0.20607956  1
  Nb  Nb137  1  -0.00216412  0.20386240  0.79326991  1
  Nb  Nb138  1  0.40093770  0.59621544  0.80029287  1
  Nb  Nb139  1  0.60449611  0.00856902  0.39888814  1
  Nb  Nb140  1  0.79647297  0.01133061  0.40410967  1
  Nb  Nb141  1  0.39788469  0.39253607  0.60092784  1
  Nb  Nb142  1  -0.00182133  0.40186421  0.79537647  1
  Nb  Nb143  1  0.19401766  0.59613025  0.19677795  1
  Nb  Nb144  1  0.00047833  -0.00201441  0.00103072  1
  Nb  Nb145  1  0.80158565  0.19579484  0.40493781  1
  Nb  Nb146  1  0.60688464  0.60639675  0.19815174  1
  Nb  Nb147  1  0.20014008  0.40064723  0.19952092  1
  Nb  Nb148  1  0.79646266  0.80108516  0.00059576  1
  Nb  Nb149  1  0.39911412  0.80130870  0.40398366  1
  Pd  Pd150  1  0.60844750  0.79359538  0.80182806  1
  Pd  Pd151  1  0.20372509  0.00822613  0.80037724  1
  Pd  Pd152  1  0.00435011  0.60726227  0.59689698  1
  Pd  Pd153  1  0.00087910  0.59355885  0.40373035  1
  Pd  Pd154  1  0.38994806  0.00102265  -0.00050945  1
  Pd  Pd155  1  0.79814385  0.39347915  0.40167571  1
  Pd  Pd156  1  0.39632368  0.19919813  0.59639295  1
  Pd  Pd157  1  0.39030892  0.79323675  0.79944546  1
  Pd  Pd158  1  0.60348521  0.00070845  0.00526834  1
  Pd  Pd159  1  0.60177240  0.19763527  0.00498711  1
  Pd  Pd160  1  0.60868860  0.40950999  0.19821606  1
  Pd  Pd161  1  0.40846925  0.60652279  0.40701221  1
  Pd  Pd162  1  0.60502294  0.00489905  0.79394913  1
  Pd  Pd163  1  0.21074173  0.58867884  0.01288695  1
  Pd  Pd164  1  0.80372836  -0.00184746  0.00433016  1
  Pd  Pd165  1  0.79647020  0.41088356  0.19014551  1
  Pd  Pd166  1  0.79630048  0.79325163  0.19745381  1
  Pd  Pd167  1  0.20645845  0.79414865  0.79405288  1
  Pd  Pd168  1  0.20609197  0.80602557  0.39967293  1
  Pd  Pd169  1  0.00454953  0.40133852  0.39608133  1
  Pd  Pd170  1  0.39433184  0.00582224  0.59348956  1
  Pd  Pd171  1  0.59332891  0.40098781  0.59655078  1
  Pd  Pd172  1  -0.00669438  0.00124900  0.40774963  1
  Pd  Pd173  1  0.19626277  0.58935274  0.39185888  1
  Pd  Pd174  1  0.01631561  0.20417480  0.61043841  1
  Pd  Pd175  1  0.60033738  0.40109692  0.79314599  1
  Pd  Pd176  1  0.19904210  -0.00467624  -0.00195313  1
  Pd  Pd177  1  0.20570922  0.21186560  -0.00428729  1
  Pd  Pd178  1  0.40727721  0.20221803  0.39208897  1
  Pd  Pd179  1  -0.00870935  0.20322667  0.39854250  1
  Pd  Pd180  1  0.40309533  0.79934583  0.59266687  1
  Pd  Pd181  1  0.19696854  -0.00106272  0.20451716  1
  Pd  Pd182  1  0.18933107  0.21060527  0.40164989  1
  Pd  Pd183  1  0.19186493  0.79578421  0.20905364  1
  Pd  Pd184  1  0.61022439  0.38463270  0.00376216  1
  Pd  Pd185  1  0.59515396  0.59132683  0.39815374  1
  Pd  Pd186  1  0.19407212  0.19694748  0.78916843  1
  Pd  Pd187  1  0.59544215  0.18829657  0.79657271  1
  Pd  Pd188  1  0.79755273  0.20296961  0.00898951  1
  Pd  Pd189  1  -0.00041096  0.59586644  0.00031500  1
  Pd  Pd190  1  0.01134480  0.00000899  0.19642595  1
  Pd  Pd191  1  0.39075381  0.39656108  -0.00326259  1
  Pd  Pd192  1  0.79405549  0.79907614  0.80143127  1
  Pd  Pd193  1  0.80146294  -0.00778694  0.59839075  1
  Pd  Pd194  1  0.60711828  -0.00364236  0.20754957  1
  Pd  Pd195  1  0.00890828  0.79503792  0.20632894  1
  Pd  Pd196  1  0.39848094  0.80314874  -0.00932925  1
  Pd  Pd197  1  0.40467360  0.60464212  0.19649720  1
  Pd  Pd198  1  -0.00069306  0.59810649  0.79417007  1
  Pd  Pd199  1  0.39947793  0.39947937  0.40490003  1
  Rh  Rh200  1  0.40187876  0.58840391  0.60563895  1
  Rh  Rh201  1  0.39971994  0.39149963  0.20550035  1
  Rh  Rh202  1  0.20773553  0.39435532  0.58660653  1
  Rh  Rh203  1  0.40334641  -0.00198155  0.40292107  1
  Rh  Rh204  1  0.81010535  0.80447604  0.60338025  1
  Rh  Rh205  1  0.58773972  0.81509496  0.39466121  1
  Rh  Rh206  1  0.79140309  -0.00124607  0.79253728  1
  Rh  Rh207  1  0.20090074  0.20338025  0.20524432  1
  Rh  Rh208  1  0.20559845  0.60215499  0.79038889  1
  Rh  Rh209  1  0.19463222  0.60139916  0.60208740  1
  Rh  Rh210  1  0.79339087  0.39955314  0.60172489  1
  Rh  Rh211  1  0.59910611  0.59207906  0.60344890  1
  Rh  Rh212  1  -0.00514797  0.19810817  0.20288218  1
  Rh  Rh213  1  0.59712639  0.19736719  0.60062620  1
  Rh  Rh214  1  0.81499437  0.59826357  0.01194777  1
  Rh  Rh215  1  -0.00561082  0.80511539  -0.00397858  1
  Rh  Rh216  1  0.79210567  0.59532999  0.78840409  1
  Rh  Rh217  1  0.60122028  0.00081052  0.59834762  1
  Rh  Rh218  1  0.38660392  0.01214866  0.20164225  1
  Rh  Rh219  1  0.80805290  0.80883609  0.40364892  1
  Rh  Rh220  1  0.19384771  0.79283191  0.60185979  1
  Rh  Rh221  1  0.19723542  0.39941610  0.80560197  1
  Rh  Rh222  1  0.21183136  0.01355064  0.60072144  1
  Rh  Rh223  1  -0.00035392  0.80103935  0.41153438  1
  Rh  Rh224  1  -0.00082759  0.18413783  -0.00440235  1
  Rh  Rh225  1  0.00271802  0.40876850  -0.00745508  1
  Rh  Rh226  1  0.20349103  0.80736698  -0.00404568  1
  Rh  Rh227  1  0.80441830  0.19958169  0.20842665  1
  Rh  Rh228  1  0.60193462  0.19560699  0.40345746  1
  Rh  Rh229  1  0.80329797  0.20433625  0.78954927  1
  Rh  Rh230  1  0.59189367  0.80380330  0.60558518  1
  Rh  Rh231  1  0.79543465  0.00662642  0.21185642  1
  Rh  Rh232  1  0.79553755  0.59614101  0.59498937  1
  Rh  Rh233  1  0.00357802  0.01325627  0.80781755  1
  Rh  Rh234  1  0.00049393  0.40302447  0.60436485  1
  Rh  Rh235  1  0.80563947  0.59356643  0.39613186  1
  Rh  Rh236  1  0.00004288  0.78801876  0.79220167  1
  Rh  Rh237  1  0.58771846  0.19914066  0.20045002  1
  Rh  Rh238  1  0.58583762  0.61019047  -0.00575831  1
  Rh  Rh239  1  0.40470490  0.79845819  0.21257526  1
  Rh  Rh240  1  0.40498506  0.19445558  0.79969854  1
  Rh  Rh241  1  -0.00407741  -0.00687312  0.60142505  1
  Rh  Rh242  1  0.00091187  0.60642661  0.19974399  1
  Rh  Rh243  1  0.79223196  0.20525889  0.59355137  1
  Rh  Rh244  1  0.40059116  0.00313332  0.80457002  1
  Rh  Rh245  1  0.39470166  0.20284012  0.00638311  1
  Rh  Rh246  1  0.19929278  -0.00242313  0.39545506  1
  Rh  Rh247  1  0.39775548  0.40485387  0.78848817  1
  Rh  Rh248  1  0.00294342  0.39299701  0.19938422  1
  Rh  Rh249  1  0.59766257  0.40399726  0.40568886  1
