# generated using pymatgen
data_ZrScNbPdRh
_symmetry_space_group_name_H-M   'P 1'
_cell_length_a   16.55417329
_cell_length_b   16.55643565
_cell_length_c   16.55676531
_cell_angle_alpha   90.01307296
_cell_angle_beta   90.01572366
_cell_angle_gamma   89.96983126
_symmetry_Int_Tables_number   1
_chemical_formula_structural   ZrScNbPdRh
_chemical_formula_sum   'Zr50 Sc50 Nb50 Pd50 Rh50'
_cell_volume   4537.84594320
_cell_formula_units_Z   50
loop_
 _symmetry_equiv_pos_site_id
 _symmetry_equiv_pos_as_xyz
  1  'x, y, z'
loop_
 _atom_site_type_symbol
 _atom_site_label
 _atom_site_symmetry_multiplicity
 _atom_site_fract_x
 _atom_site_fract_y
 _atom_site_fract_z
 _atom_site_occupancy
  Zr  Zr0  1  0.30447596  0.09742730  0.30815310  1
  Zr  Zr1  1  0.10817653  0.50653312  0.70312706  1
  Zr  Zr2  1  0.10118963  0.11454494  0.09740808  1
  Zr  Zr3  1  0.89122594  0.10552594  0.29298896  1
  Zr  Zr4  1  0.90660110  0.28455215  0.10526712  1
  Zr  Zr5  1  0.09603649  0.31291398  0.29156505  1
  Zr  Zr6  1  0.89351735  0.49889850  0.50412453  1
  Zr  Zr7  1  0.90277887  0.69921408  0.29433628  1
  Zr  Zr8  1  0.49725709  0.50045140  0.50158144  1
  Zr  Zr9  1  0.09257611  0.89304650  0.49968421  1
  Zr  Zr10  1  0.49420208  0.50831139  0.90076194  1
  Zr  Zr11  1  0.10180212  0.89445204  0.89399822  1
  Zr  Zr12  1  0.09962109  0.29337418  0.70023527  1
  Zr  Zr13  1  0.50503467  0.30835853  0.69146084  1
  Zr  Zr14  1  0.69830585  0.50382386  0.89167138  1
  Zr  Zr15  1  0.70023052  0.09723359  0.49237613  1
  Zr  Zr16  1  0.89428376  0.89731903  0.90177920  1
  Zr  Zr17  1  0.69729494  0.70022974  0.89826321  1
  Zr  Zr18  1  0.50041223  0.69540117  0.50173988  1
  Zr  Zr19  1  0.50989040  0.70308124  0.89418360  1
  Zr  Zr20  1  0.89728142  0.50334803  0.70173901  1
  Zr  Zr21  1  0.90073799  0.30068876  0.50199540  1
  Zr  Zr22  1  0.70117899  0.90837270  0.30533148  1
  Zr  Zr23  1  0.49450974  0.90472728  0.89924647  1
  Zr  Zr24  1  0.50014616  0.10125182  0.09684805  1
  Zr  Zr25  1  0.30518521  0.50132316  0.89477115  1
  Zr  Zr26  1  0.10049479  0.10452401  0.70817838  1
  Zr  Zr27  1  0.09900740  0.90771819  0.11045127  1
  Zr  Zr28  1  0.89921357  0.89289592  0.69496465  1
  Zr  Zr29  1  0.89485545  0.69543564  0.89816738  1
  Zr  Zr30  1  0.68751526  0.30503477  0.50483277  1
  Zr  Zr31  1  0.70565823  0.49424518  0.29631700  1
  Zr  Zr32  1  0.10343370  0.49462513  0.10629252  1
  Zr  Zr33  1  0.69709973  0.30270975  0.10830438  1
  Zr  Zr34  1  0.89663788  0.89948126  0.10387574  1
  Zr  Zr35  1  0.29877097  0.70665973  0.10445177  1
  Zr  Zr36  1  0.29659702  0.70030285  0.90093157  1
  Zr  Zr37  1  0.29997945  0.30480349  0.90094193  1
  Zr  Zr38  1  0.70045964  0.10069108  0.69558818  1
  Zr  Zr39  1  0.30908561  0.09628240  0.90392278  1
  Zr  Zr40  1  0.30323606  0.89368055  0.70079440  1
  Zr  Zr41  1  0.30385116  0.10273588  0.70196687  1
  Zr  Zr42  1  0.09439491  0.69479263  0.11110901  1
  Zr  Zr43  1  0.29858480  0.70380790  0.29948290  1
  Zr  Zr44  1  0.30218541  0.49850888  0.09129363  1
  Zr  Zr45  1  0.50361859  0.09685536  0.90748325  1
  Zr  Zr46  1  0.49922548  0.49535082  0.10343269  1
  Zr  Zr47  1  0.30557863  0.49803872  0.50450482  1
  Zr  Zr48  1  0.69235189  0.70112323  0.50428657  1
  Zr  Zr49  1  0.30169825  0.50650142  0.31024121  1
  Sc  Sc50  1  0.49227006  0.11351350  0.48770850  1
  Sc  Sc51  1  0.08899418  0.09824094  0.50177743  1
  Sc  Sc52  1  0.49713441  0.10002564  0.69832343  1
  Sc  Sc53  1  0.89957923  0.69531461  0.69974214  1
  Sc  Sc54  1  0.50015201  0.90726858  0.30293300  1
  Sc  Sc55  1  0.30225615  0.30938859  0.70256189  1
  Sc  Sc56  1  0.50094901  0.30316769  0.29747046  1
  Sc  Sc57  1  0.10706782  0.50717247  0.90068567  1
  Sc  Sc58  1  0.69471872  0.69609607  0.70178760  1
  Sc  Sc59  1  0.29928882  0.69368662  0.50136350  1
  Sc  Sc60  1  0.69485664  0.89045747  0.90746570  1
  Sc  Sc61  1  0.50302410  0.90272062  0.09500667  1
  Sc  Sc62  1  0.69536317  0.50531414  0.49854049  1
  Sc  Sc63  1  0.09796908  0.89607684  0.30537463  1
  Sc  Sc64  1  0.69560690  0.68641193  0.30297639  1
  Sc  Sc65  1  0.49609772  0.88661721  0.70121789  1
  Sc  Sc66  1  0.49553688  0.29846088  0.11012184  1
  Sc  Sc67  1  0.10417101  0.70145537  0.50307212  1
  Sc  Sc68  1  0.30892833  0.29975886  0.29178814  1
  Sc  Sc69  1  0.70070829  0.49930001  0.10327187  1
  Sc  Sc70  1  0.50089490  0.69936350  0.09446204  1
  Sc  Sc71  1  0.89681843  0.69996074  0.10436829  1
  Sc  Sc72  1  0.89758853  0.50528213  0.90076232  1
  Sc  Sc73  1  0.10390515  0.69913064  0.69704026  1
  Sc  Sc74  1  0.11449944  0.49734253  0.49522534  1
  Sc  Sc75  1  0.70149846  0.89934181  0.49913425  1
  Sc  Sc76  1  0.10823728  0.28503375  0.90269975  1
  Sc  Sc77  1  0.10279389  0.69663198  0.89139009  1
  Sc  Sc78  1  0.90164578  0.89829142  0.49850123  1
  Sc  Sc79  1  0.09812538  0.88991782  0.69712510  1
  Sc  Sc80  1  0.10518400  0.09123421  0.29198925  1
  Sc  Sc81  1  0.90683500  0.90147860  0.29640372  1
  Sc  Sc82  1  0.70261036  0.69983580  0.10079586  1
  Sc  Sc83  1  0.89463576  0.29225888  0.90689853  1
  Sc  Sc84  1  0.89598244  0.29962877  0.70149523  1
  Sc  Sc85  1  0.29458109  0.89744581  0.49029802  1
  Sc  Sc86  1  0.70148977  0.88967560  0.69093886  1
  Sc  Sc87  1  0.50153720  0.49893809  0.30424854  1
  Sc  Sc88  1  0.70225112  0.89909678  0.09497735  1
  Sc  Sc89  1  0.90191914  0.50960766  0.10051423  1
  Sc  Sc90  1  0.90250316  0.70085395  0.50657440  1
  Sc  Sc91  1  0.29912593  0.70019783  0.69234393  1
  Sc  Sc92  1  0.89827019  0.09490071  0.50025269  1
  Sc  Sc93  1  0.90692389  0.10433922  0.69970735  1
  Sc  Sc94  1  0.69768919  0.09697409  0.09870253  1
  Sc  Sc95  1  0.69583000  0.10559376  0.29854771  1
  Sc  Sc96  1  0.29657390  0.10967705  0.10736074  1
  Sc  Sc97  1  0.50389343  0.30702645  0.90981850  1
  Sc  Sc98  1  0.70549541  0.30573440  0.90181164  1
  Sc  Sc99  1  0.49848988  0.10772533  0.29705354  1
  Nb  Nb100  1  0.30519684  0.30005634  0.49895109  1
  Nb  Nb101  1  0.09708004  0.50649835  0.30051364  1
  Nb  Nb102  1  0.90339978  0.09614522  0.09331148  1
  Nb  Nb103  1  0.30743781  0.50000222  0.70323801  1
  Nb  Nb104  1  0.10895879  0.30147800  0.09669373  1
  Nb  Nb105  1  0.49819573  0.50640048  0.70213520  1
  Nb  Nb106  1  0.48922976  0.30888782  0.49828116  1
  Nb  Nb107  1  0.10194786  0.29966854  0.50040700  1
  Nb  Nb108  1  0.30107384  0.90100420  0.90068002  1
  Nb  Nb109  1  0.10263277  0.09551517  0.89946162  1
  Nb  Nb110  1  0.29707148  0.89616973  0.10453893  1
  Nb  Nb111  1  0.30180963  0.90103920  0.29318146  1
  Nb  Nb112  1  0.09580675  0.69175732  0.30392577  1
  Nb  Nb113  1  0.69858292  0.30446550  0.69816610  1
  Nb  Nb114  1  0.28539137  0.30173401  0.10149190  1
  Nb  Nb115  1  0.30037383  0.10192360  0.49693341  1
  Nb  Nb116  1  0.71065005  0.29853958  0.29388030  1
  Nb  Nb117  1  0.70346586  0.09690109  0.89803538  1
  Nb  Nb118  1  0.89327611  0.30328846  0.30192327  1
  Nb  Nb119  1  0.89899247  0.09733280  0.90747155  1
  Nb  Nb120  1  0.49741888  0.89523901  0.49980045  1
  Nb  Nb121  1  0.50463511  0.69756703  0.69115966  1
  Nb  Nb122  1  0.49644803  0.70293563  0.29823313  1
  Nb  Nb123  1  0.69672154  0.48634360  0.69779488  1
  Nb  Nb124  1  0.90317950  0.49311668  0.30488121  1
  Nb  Nb125  1  0.40936838  0.20372014  0.80336405  1
  Nb  Nb126  1  0.00156931  0.80261591  0.00169374  1
  Nb  Nb127  1  0.59692475  0.79946641  0.20577644  1
  Nb  Nb128  1  0.20280962  -0.00141472  0.80189395  1
  Nb  Nb129  1  0.40240138  0.80098877  0.39421331  1
  Nb  Nb130  1  0.19701307  0.20559875  0.40481793  1
  Nb  Nb131  1  0.20412095  0.19993142  0.59206112  1
  Nb  Nb132  1  0.00095172  0.59357543  0.39568241  1
  Nb  Nb133  1  0.39428677  -0.00424720  0.19938585  1
  Nb  Nb134  1  0.79223471  0.20453358  0.59905700  1
  Nb  Nb135  1  0.79817527  0.00216573  0.80326625  1
  Nb  Nb136  1  0.39905541  -0.00166896  0.59034891  1
  Nb  Nb137  1  0.39457260  0.80494539  -0.00167375  1
  Nb  Nb138  1  0.00212983  0.00280880  -0.00231076  1
  Nb  Nb139  1  0.59060227  -0.00162295  0.59578024  1
  Nb  Nb140  1  0.20411206  0.00463589  0.60015100  1
  Nb  Nb141  1  0.79919395  0.79675341  0.39701902  1
  Nb  Nb142  1  0.00578247  0.40016968  0.60355504  1
  Nb  Nb143  1  0.60490510  0.00159751  0.79663182  1
  Nb  Nb144  1  0.00070649  0.20908298  0.39390434  1
  Nb  Nb145  1  0.00686277  0.39383283  0.00150572  1
  Nb  Nb146  1  0.39943330  0.60359835  0.20031112  1
  Nb  Nb147  1  0.60322692  0.19955387  0.79968322  1
  Nb  Nb148  1  0.00315405  0.39907352  0.80276356  1
  Nb  Nb149  1  0.20011942  -0.00245246  -0.00207723  1
  Pd  Pd150  1  0.39591312  0.20949732  0.00348839  1
  Pd  Pd151  1  0.39980510  0.79061010  0.80330755  1
  Pd  Pd152  1  0.79691425  0.00427492  0.19762151  1
  Pd  Pd153  1  0.19382650  0.00384379  0.40596109  1
  Pd  Pd154  1  0.79107349  0.39775643  0.40610376  1
  Pd  Pd155  1  0.59384753  -0.00350033  0.19842359  1
  Pd  Pd156  1  0.18894461  0.80063239  0.20942336  1
  Pd  Pd157  1  -0.00397822  0.00929827  0.39238377  1
  Pd  Pd158  1  0.60172971  0.39871470  0.39476045  1
  Pd  Pd159  1  0.59409784  0.60265106  0.19937021  1
  Pd  Pd160  1  0.60513278  0.59656247  0.00493972  1
  Pd  Pd161  1  0.39905386  0.61099173  0.79297740  1
  Pd  Pd162  1  0.79065684  0.60197523  0.60643917  1
  Pd  Pd163  1  -0.00670129  0.20543612  0.81040157  1
  Pd  Pd164  1  0.00541120  0.60225030  -0.00384967  1
  Pd  Pd165  1  0.39915018  0.20068391  0.60296340  1
  Pd  Pd166  1  0.19512633  0.80241918  0.00250648  1
  Pd  Pd167  1  0.20765722  0.39349478  0.39388661  1
  Pd  Pd168  1  0.59694735  0.19406330  0.59873770  1
  Pd  Pd169  1  0.20948933  0.40581346  0.20791363  1
  Pd  Pd170  1  -0.00880548  0.40302831  0.19112397  1
  Pd  Pd171  1  0.79883821  0.00215769  0.60268606  1
  Pd  Pd172  1  0.79092262  0.19741844  0.00703915  1
  Pd  Pd173  1  0.79761696  0.19688321  0.79571353  1
  Pd  Pd174  1  -0.00222151  0.78902112  0.80000412  1
  Pd  Pd175  1  0.80660043  0.60541373  0.39988358  1
  Pd  Pd176  1  0.58962338  0.00499353  0.40513010  1
  Pd  Pd177  1  0.20119736  0.39660229  0.60312446  1
  Pd  Pd178  1  0.19313649  0.40033906  0.80598775  1
  Pd  Pd179  1  0.80819811  0.39945601  0.80397806  1
  Pd  Pd180  1  0.20664099  0.59537661  0.20091593  1
  Pd  Pd181  1  0.00883455  0.59274103  0.59073559  1
  Pd  Pd182  1  0.59839146  0.20929512  0.39407901  1
  Pd  Pd183  1  0.00128854  0.40302272  0.40824531  1
  Pd  Pd184  1  0.79395297  0.80155936  0.79699860  1
  Pd  Pd185  1  0.81145839  0.40143596  0.00728103  1
  Pd  Pd186  1  0.59393775  0.39771456  0.80451196  1
  Pd  Pd187  1  0.00551213  -0.00218294  0.60614660  1
  Pd  Pd188  1  0.20212704  0.79661280  0.39852911  1
  Pd  Pd189  1  0.00518418  0.19774101  0.20900694  1
  Pd  Pd190  1  0.81116147  0.40360798  0.19025559  1
  Pd  Pd191  1  0.79352205  0.59990325  0.00362310  1
  Pd  Pd192  1  0.60843010  0.20474164  -0.00249576  1
  Pd  Pd193  1  -0.00336793  -0.00140274  0.79991669  1
  Pd  Pd194  1  0.80192999  0.20219705  0.40654926  1
  Pd  Pd195  1  0.78728475  0.79762008  0.20876891  1
  Pd  Pd196  1  0.60071731  0.79970616  0.39425913  1
  Pd  Pd197  1  0.60165164  0.40422341  0.00241513  1
  Pd  Pd198  1  0.40075280  0.39199313  0.00616739  1
  Pd  Pd199  1  0.19668810  0.60182164  0.00270444  1
  Rh  Rh200  1  0.39774809  0.79996119  0.58774490  1
  Rh  Rh201  1  0.60045922  0.59580202  0.79175363  1
  Rh  Rh202  1  0.60308304  0.59133216  0.60696570  1
  Rh  Rh203  1  0.40466713  0.60749385  0.39569825  1
  Rh  Rh204  1  -0.00592802  0.78807863  0.39974832  1
  Rh  Rh205  1  0.19353743  0.60409533  0.40335257  1
  Rh  Rh206  1  -0.00102615  0.79541437  0.60194672  1
  Rh  Rh207  1  0.40320596  0.00267379  0.79026988  1
  Rh  Rh208  1  0.20923907  0.60337917  0.79493136  1
  Rh  Rh209  1  0.39923426  0.59837490  0.60552833  1
  Rh  Rh210  1  0.20844547  0.19501139  -0.00340846  1
  Rh  Rh211  1  -0.00624085  0.59290409  0.20674181  1
  Rh  Rh212  1  0.39946479  0.40381966  0.60419662  1
  Rh  Rh213  1  0.60845159  -0.00249528  -0.00567357  1
  Rh  Rh214  1  0.59643774  0.80335882  0.60134834  1
  Rh  Rh215  1  0.39706768  0.21037216  0.39622412  1
  Rh  Rh216  1  0.80017515  0.00003750  -0.00285175  1
  Rh  Rh217  1  0.40101574  -0.00699667  0.39871282  1
  Rh  Rh218  1  0.40929407  0.39747463  0.79845416  1
  Rh  Rh219  1  0.80184471  0.59406480  0.20343500  1
  Rh  Rh220  1  0.80054117  0.39579743  0.59917165  1
  Rh  Rh221  1  0.39872220  0.19556434  0.19784112  1
  Rh  Rh222  1  0.21376046  0.19515581  0.80220243  1
  Rh  Rh223  1  0.00144551  0.20025602  -0.00596009  1
  Rh  Rh224  1  0.59382739  0.80042613  0.00826981  1
  Rh  Rh225  1  0.80896448  -0.00912967  0.39746981  1
  Rh  Rh226  1  0.38988909  -0.00649743  0.01610168  1
  Rh  Rh227  1  0.20751162  0.00248499  0.19540880  1
  Rh  Rh228  1  0.60287072  0.20303892  0.20252993  1
  Rh  Rh229  1  -0.00231104  0.00788153  0.19652667  1
  Rh  Rh230  1  0.20103758  0.80538934  0.59569001  1
  Rh  Rh231  1  0.41018145  0.80434147  0.19849018  1
  Rh  Rh232  1  -0.00003965  0.59542085  0.80025249  1
  Rh  Rh233  1  0.19452624  0.40099743  -0.00705495  1
  Rh  Rh234  1  0.39832687  0.61059984  0.00482767  1
  Rh  Rh235  1  0.80632376  0.79199198  0.00150181  1
  Rh  Rh236  1  0.60168209  0.39719686  0.20620198  1
  Rh  Rh237  1  0.79508880  0.19582502  0.19345901  1
  Rh  Rh238  1  0.79294311  0.59741977  0.79373216  1
  Rh  Rh239  1  0.60139520  0.80453059  0.79447315  1
  Rh  Rh240  1  0.59503814  0.59604845  0.39779895  1
  Rh  Rh241  1  0.19813521  0.20548993  0.21216896  1
  Rh  Rh242  1  0.59496787  0.40914550  0.59727509  1
  Rh  Rh243  1  0.80052082  0.79355297  0.59133272  1
  Rh  Rh244  1  0.00456067  0.80023546  0.19883412  1
  Rh  Rh245  1  0.20338367  0.80019276  0.79437368  1
  Rh  Rh246  1  0.39862725  0.39721684  0.39678261  1
  Rh  Rh247  1  0.39554996  0.40865196  0.19889132  1
  Rh  Rh248  1  0.20602416  0.59584648  0.60054953  1
  Rh  Rh249  1  -0.00164951  0.20483338  0.59171653  1
