# generated using pymatgen
data_ZrScNbPdRh
_symmetry_space_group_name_H-M   'P 1'
_cell_length_a   16.55834341
_cell_length_b   16.56218825
_cell_length_c   16.56274917
_cell_angle_alpha   90.00627533
_cell_angle_beta   89.97613524
_cell_angle_gamma   89.99177057
_symmetry_Int_Tables_number   1
_chemical_formula_structural   ZrScNbPdRh
_chemical_formula_sum   'Zr50 Sc50 Nb50 Pd50 Rh50'
_cell_volume   4542.20762202
_cell_formula_units_Z   50
loop_
 _symmetry_equiv_pos_site_id
 _symmetry_equiv_pos_as_xyz
  1  'x, y, z'
loop_
 _atom_site_type_symbol
 _atom_site_label
 _atom_site_symmetry_multiplicity
 _atom_site_fract_x
 _atom_site_fract_y
 _atom_site_fract_z
 _atom_site_occupancy
  Zr  Zr0  1  0.09311886  0.70424085  0.50259109  1
  Zr  Zr1  1  0.89718389  0.69429164  0.30273285  1
  Zr  Zr2  1  0.70608193  0.69373616  0.69625641  1
  Zr  Zr3  1  0.70359295  0.89665160  0.10112988  1
  Zr  Zr4  1  0.29068510  0.89318145  0.70494224  1
  Zr  Zr5  1  0.70906939  0.10461015  0.50157944  1
  Zr  Zr6  1  0.48947736  0.10836959  0.50298714  1
  Zr  Zr7  1  0.29812914  0.89145869  0.28651147  1
  Zr  Zr8  1  0.10463160  0.88718743  0.10209443  1
  Zr  Zr9  1  0.69270469  0.30487674  0.29403053  1
  Zr  Zr10  1  0.29571366  0.89838423  0.49442870  1
  Zr  Zr11  1  0.90856503  0.30838711  0.29429581  1
  Zr  Zr12  1  0.70015137  0.89881119  0.49992547  1
  Zr  Zr13  1  0.90613911  0.29740347  0.50463610  1
  Zr  Zr14  1  0.50049854  0.89364821  0.30143954  1
  Zr  Zr15  1  0.28690474  0.71005823  0.09846068  1
  Zr  Zr16  1  0.90319850  0.69302241  0.90018499  1
  Zr  Zr17  1  0.50380832  0.90441658  0.70019565  1
  Zr  Zr18  1  0.30621796  0.09570253  0.10573162  1
  Zr  Zr19  1  0.91225078  0.90467563  0.49821132  1
  Zr  Zr20  1  0.90165110  0.30736937  0.89945897  1
  Zr  Zr21  1  0.69684620  0.70244174  0.49815458  1
  Zr  Zr22  1  0.50494611  0.30066946  0.70049891  1
  Zr  Zr23  1  0.09589862  0.30143533  0.89767936  1
  Zr  Zr24  1  0.70519801  0.69825685  0.10156164  1
  Zr  Zr25  1  0.89461330  0.89289535  0.30010442  1
  Zr  Zr26  1  0.90523579  0.49202561  0.10725167  1
  Zr  Zr27  1  0.50478222  0.29814369  0.89867883  1
  Zr  Zr28  1  0.10888266  0.49482086  0.90037741  1
  Zr  Zr29  1  0.29607778  0.10030782  0.89401997  1
  Zr  Zr30  1  0.49982585  0.69621998  0.90866279  1
  Zr  Zr31  1  0.29150805  0.30669736  0.89743911  1
  Zr  Zr32  1  0.70335528  0.30530852  0.70450583  1
  Zr  Zr33  1  0.70600946  0.70125499  0.30363501  1
  Zr  Zr34  1  0.49493349  0.11169275  0.29130995  1
  Zr  Zr35  1  0.69475427  0.89446609  0.91122798  1
  Zr  Zr36  1  0.49201228  0.50205700  0.29501715  1
  Zr  Zr37  1  0.70443818  0.30386251  0.89487791  1
  Zr  Zr38  1  0.30585594  0.89576110  0.90751998  1
  Zr  Zr39  1  0.70387323  0.89911431  0.29887943  1
  Zr  Zr40  1  0.08835550  0.30520486  0.10470987  1
  Zr  Zr41  1  0.10262830  0.69418221  0.70484929  1
  Zr  Zr42  1  0.09960605  0.10262567  0.11293709  1
  Zr  Zr43  1  0.50244156  0.69471162  0.30455880  1
  Zr  Zr44  1  0.90140531  0.69351515  0.70155110  1
  Zr  Zr45  1  0.90538572  0.29863245  0.70329481  1
  Zr  Zr46  1  0.29794169  0.69477561  0.50040605  1
  Zr  Zr47  1  0.29684284  0.50613758  0.70677661  1
  Zr  Zr48  1  0.49701884  0.08869336  0.90013938  1
  Zr  Zr49  1  0.90628624  0.10428997  0.88820635  1
  Sc  Sc50  1  0.89947091  0.90421990  0.90510041  1
  Sc  Sc51  1  0.29373702  0.49466824  0.49077652  1
  Sc  Sc52  1  0.09473878  0.89994666  0.69516074  1
  Sc  Sc53  1  0.30171646  0.31499009  0.10179368  1
  Sc  Sc54  1  0.10132181  0.49615702  0.30272234  1
  Sc  Sc55  1  0.70551630  0.30239799  0.49835891  1
  Sc  Sc56  1  0.29425376  0.69198251  0.70104630  1
  Sc  Sc57  1  0.10571421  0.89490791  0.89132943  1
  Sc  Sc58  1  0.70089711  0.68972777  0.90989049  1
  Sc  Sc59  1  0.30613235  0.69192537  0.29645618  1
  Sc  Sc60  1  0.49118964  0.30933114  0.30017870  1
  Sc  Sc61  1  0.90504868  0.89699759  0.10276449  1
  Sc  Sc62  1  0.09658237  0.49741750  0.49714507  1
  Sc  Sc63  1  0.89920695  0.09537780  0.29716183  1
  Sc  Sc64  1  0.89801806  0.69686792  0.49622391  1
  Sc  Sc65  1  0.09474980  0.10009316  0.70811325  1
  Sc  Sc66  1  0.70741093  0.50045995  0.10273682  1
  Sc  Sc67  1  0.50867024  0.89576177  0.50197076  1
  Sc  Sc68  1  0.90387541  0.50586784  0.70631147  1
  Sc  Sc69  1  0.29248817  0.10941390  0.30025884  1
  Sc  Sc70  1  0.10536855  0.50370006  0.10299089  1
  Sc  Sc71  1  0.50078353  0.29713472  0.11035975  1
  Sc  Sc72  1  0.50035043  0.10255638  0.10132352  1
  Sc  Sc73  1  0.09238687  0.69390014  0.29602629  1
  Sc  Sc74  1  0.49605607  0.68984815  0.09960689  1
  Sc  Sc75  1  0.70081549  0.09691746  0.90241725  1
  Sc  Sc76  1  0.70763918  0.09857314  0.69786640  1
  Sc  Sc77  1  0.90193605  0.10526013  0.69492550  1
  Sc  Sc78  1  0.69603489  0.51076987  0.30047554  1
  Sc  Sc79  1  0.29927632  0.30578137  0.30313675  1
  Sc  Sc80  1  0.70183787  0.09922087  0.29356083  1
  Sc  Sc81  1  0.10191909  0.30965373  0.50425662  1
  Sc  Sc82  1  0.09136033  0.90639582  0.29879942  1
  Sc  Sc83  1  0.48939587  0.89763098  0.08762800  1
  Sc  Sc84  1  0.69810157  0.50716260  0.49959027  1
  Sc  Sc85  1  0.50168117  0.09854380  0.70319172  1
  Sc  Sc86  1  0.90026338  0.49740684  0.89817622  1
  Sc  Sc87  1  0.90776859  0.69556885  0.10168273  1
  Sc  Sc88  1  0.10188292  0.69651022  0.90970841  1
  Sc  Sc89  1  0.29651754  0.11360391  0.69943181  1
  Sc  Sc90  1  0.30074554  0.29239817  0.49965236  1
  Sc  Sc91  1  0.90358307  0.91316251  0.70128057  1
  Sc  Sc92  1  0.69232209  0.09892012  0.09958025  1
  Sc  Sc93  1  0.50145877  0.50044302  0.49513789  1
  Sc  Sc94  1  0.90809156  0.10283775  0.10130543  1
  Sc  Sc95  1  0.49523360  0.68002353  0.70206716  1
  Sc  Sc96  1  0.69950699  0.90317631  0.68909068  1
  Sc  Sc97  1  0.69468285  0.50035083  0.70306890  1
  Sc  Sc98  1  0.10456254  0.30576488  0.70040255  1
  Sc  Sc99  1  0.29642435  0.50236597  0.10073004  1
  Nb  Nb100  1  0.09811774  0.50030372  0.70406042  1
  Nb  Nb101  1  0.09711171  0.11004663  0.29812753  1
  Nb  Nb102  1  0.49993603  0.70424045  0.49606904  1
  Nb  Nb103  1  0.09843863  0.69929481  0.09618726  1
  Nb  Nb104  1  0.29895145  0.10014935  0.49778286  1
  Nb  Nb105  1  0.89756723  0.30691128  0.09790675  1
  Nb  Nb106  1  0.29639001  0.69526839  0.89637110  1
  Nb  Nb107  1  0.90520396  0.10832590  0.50010758  1
  Nb  Nb108  1  0.49842972  0.89381187  0.89612368  1
  Nb  Nb109  1  0.10266340  0.29692242  0.29729249  1
  Nb  Nb110  1  0.90623002  0.50689952  0.30744727  1
  Nb  Nb111  1  0.48775680  0.49317380  0.09273426  1
  Nb  Nb112  1  0.10172115  0.10253302  0.90286491  1
  Nb  Nb113  1  0.49398421  0.50348890  0.90370316  1
  Nb  Nb114  1  0.70009895  0.49384553  0.89903300  1
  Nb  Nb115  1  0.29835299  0.49300006  0.29748129  1
  Nb  Nb116  1  0.49475106  0.30031413  0.49914208  1
  Nb  Nb117  1  0.70200072  0.30489952  0.09662180  1
  Nb  Nb118  1  0.29553138  0.89886593  0.09732164  1
  Nb  Nb119  1  0.10241630  0.09152744  0.48987114  1
  Nb  Nb120  1  0.30145578  0.49762864  0.90738397  1
  Nb  Nb121  1  0.90719680  0.49232508  0.49307425  1
  Nb  Nb122  1  0.30201315  0.30400825  0.70051461  1
  Nb  Nb123  1  0.49629306  0.49369780  0.70590226  1
  Nb  Nb124  1  0.09887919  0.90207503  0.49534562  1
  Nb  Nb125  1  0.19460743  0.80030453  0.39971120  1
  Nb  Nb126  1  0.00524829  0.19688551  0.39953075  1
  Nb  Nb127  1  -0.00622546  0.79382816  0.80064183  1
  Nb  Nb128  1  0.40125159  0.39761962  0.60607052  1
  Nb  Nb129  1  0.59621244  0.20206620  0.40236996  1
  Nb  Nb130  1  0.19843154  0.00360773  0.58965448  1
  Nb  Nb131  1  0.59924558  0.20502470  0.59508150  1
  Nb  Nb132  1  0.80058217  0.21238334  0.19073840  1
  Nb  Nb133  1  0.80764287  0.40514019  0.39954407  1
  Nb  Nb134  1  0.01361918  0.00372678  -0.00100514  1
  Nb  Nb135  1  0.39060785  -0.00339970  0.59581130  1
  Nb  Nb136  1  0.40464676  0.79606948  0.80067387  1
  Nb  Nb137  1  0.60184879  0.79749021  0.19834720  1
  Nb  Nb138  1  0.80308261  0.20881470  0.00361405  1
  Nb  Nb139  1  0.40080505  0.79727838  0.60207127  1
  Nb  Nb140  1  0.59965072  0.79680544  0.80285964  1
  Nb  Nb141  1  0.59542242  0.00804043  0.40030833  1
  Nb  Nb142  1  0.39912351  0.40542519  0.80184428  1
  Nb  Nb143  1  0.80836344  0.40252124  0.59601222  1
  Nb  Nb144  1  0.19991967  0.00215736  0.00385255  1
  Nb  Nb145  1  0.19876843  0.19753509  0.00206749  1
  Nb  Nb146  1  0.59855776  0.40420959  -0.00016483  1
  Nb  Nb147  1  0.39872538  0.00212398  0.39999098  1
  Nb  Nb148  1  0.79740992  0.79787691  0.80022374  1
  Nb  Nb149  1  0.39408101  0.20090162  -0.00347399  1
  Pd  Pd150  1  0.80671126  0.58861908  0.59335993  1
  Pd  Pd151  1  0.19723710  0.00099705  0.79647956  1
  Pd  Pd152  1  -0.00107293  0.19792420  0.00068336  1
  Pd  Pd153  1  -0.00070977  0.79492140  0.20359830  1
  Pd  Pd154  1  0.60247089  0.58786850  0.00815634  1
  Pd  Pd155  1  0.60395206  0.39929796  0.40325009  1
  Pd  Pd156  1  0.80979737  0.00141967  0.59519086  1
  Pd  Pd157  1  0.19448540  0.58980377  0.59516427  1
  Pd  Pd158  1  -0.00552861  0.80165990  0.60759687  1
  Pd  Pd159  1  0.20632261  0.40536464  0.60058743  1
  Pd  Pd160  1  0.81087508  0.80572513  0.60312414  1
  Pd  Pd161  1  0.80491403  0.00807006  0.19033052  1
  Pd  Pd162  1  0.01590872  0.19500083  0.59570352  1
  Pd  Pd163  1  0.80703569  0.59005882  0.00284010  1
  Pd  Pd164  1  0.61153816  -0.00513656  0.80119119  1
  Pd  Pd165  1  0.19641101  -0.00169767  0.20329936  1
  Pd  Pd166  1  0.19411267  0.60429938  0.39478106  1
  Pd  Pd167  1  0.40159972  0.59372879  0.59125235  1
  Pd  Pd168  1  0.40785093  0.79309350  0.19050501  1
  Pd  Pd169  1  0.79831873  0.40643491  0.20987403  1
  Pd  Pd170  1  0.59563371  0.41119080  0.19166828  1
  Pd  Pd171  1  0.20449020  -0.00390327  0.38963135  1
  Pd  Pd172  1  0.60012053  0.20509418  0.00290107  1
  Pd  Pd173  1  0.79967266  0.00135391  0.40315528  1
  Pd  Pd174  1  0.60760703  0.18898816  0.79569741  1
  Pd  Pd175  1  0.39821241  0.59282001  0.40316438  1
  Pd  Pd176  1  0.19278231  0.19513864  0.59954457  1
  Pd  Pd177  1  0.80367038  0.20841031  0.38653335  1
  Pd  Pd178  1  0.60184272  0.39907906  0.59266893  1
  Pd  Pd179  1  0.81136062  0.01242279  0.00532362  1
  Pd  Pd180  1  0.79444878  -0.00750406  0.80138907  1
  Pd  Pd181  1  0.40014768  0.20479536  0.80198303  1
  Pd  Pd182  1  0.20770040  0.21225680  0.19321464  1
  Pd  Pd183  1  -0.00456333  0.00621568  0.39245612  1
  Pd  Pd184  1  0.59688506  0.59787113  0.19246757  1
  Pd  Pd185  1  0.59042904  0.78657757  0.61171363  1
  Pd  Pd186  1  0.38678000  0.60565848  0.00592898  1
  Pd  Pd187  1  0.81093341  0.79661344  -0.00070656  1
  Pd  Pd188  1  0.59281894  0.59819770  0.59713513  1
  Pd  Pd189  1  0.00250713  0.59007654  0.00099484  1
  Pd  Pd190  1  0.60323094  0.59975643  0.80328270  1
  Pd  Pd191  1  0.19958098  0.60156604  0.20357172  1
  Pd  Pd192  1  0.19470092  0.20855284  0.40522466  1
  Pd  Pd193  1  0.59394060  -0.00279091  0.00507471  1
  Pd  Pd194  1  0.19885991  0.80238160  0.59559373  1
  Pd  Pd195  1  0.39550355  0.80088651  0.40451109  1
  Pd  Pd196  1  0.59215826  -0.00769313  0.19893665  1
  Pd  Pd197  1  -0.00001740  0.59317052  0.59542598  1
  Pd  Pd198  1  0.40384110  -0.00297468  0.20422059  1
  Pd  Pd199  1  0.39255070  -0.00428341  0.79081255  1
  Rh  Rh200  1  0.00323645  0.79756800  0.39624578  1
  Rh  Rh201  1  0.39548970  0.00592796  -0.00021693  1
  Rh  Rh202  1  0.00354517  0.80720541  -0.00664960  1
  Rh  Rh203  1  0.40171490  0.20329204  0.60814371  1
  Rh  Rh204  1  0.20308641  0.40337552  0.79450468  1
  Rh  Rh205  1  0.19714023  0.40108593  0.20355896  1
  Rh  Rh206  1  0.60687835  0.20116647  0.20297194  1
  Rh  Rh207  1  0.19707160  0.80162821  -0.00683693  1
  Rh  Rh208  1  0.80442284  0.80290888  0.41005927  1
  Rh  Rh209  1  0.80769644  0.59718278  0.20162698  1
  Rh  Rh210  1  0.00481168  0.20389314  0.79728071  1
  Rh  Rh211  1  0.39228541  0.20802409  0.19408743  1
  Rh  Rh212  1  0.00328724  -0.00741068  0.80840328  1
  Rh  Rh213  1  0.80070198  0.79421110  0.19441637  1
  Rh  Rh214  1  0.80495213  0.40862048  0.79055462  1
  Rh  Rh215  1  0.40824210  0.39131274  -0.00707883  1
  Rh  Rh216  1  0.00715674  0.40867657  0.20524914  1
  Rh  Rh217  1  0.19832075  0.79060660  0.80337543  1
  Rh  Rh218  1  0.00212227  0.59617847  0.19793354  1
  Rh  Rh219  1  0.39562163  0.40179355  0.40570737  1
  Rh  Rh220  1  -0.00188307  0.40772736  0.61046778  1
  Rh  Rh221  1  0.01050951  0.59977195  0.80668174  1
  Rh  Rh222  1  0.59536572  0.01506418  0.58970613  1
  Rh  Rh223  1  0.60507305  0.80208959  0.39347617  1
  Rh  Rh224  1  0.19301766  0.39564779  0.00778360  1
  Rh  Rh225  1  0.00446258  0.39250556  0.39523600  1
  Rh  Rh226  1  0.39340134  0.59525792  0.19549654  1
  Rh  Rh227  1  0.39951393  0.20098954  0.39164353  1
  Rh  Rh228  1  0.79850197  0.19730407  0.80453313  1
  Rh  Rh229  1  0.19111490  0.79118900  0.21011025  1
  Rh  Rh230  1  0.00675546  0.00834345  0.59664887  1
  Rh  Rh231  1  -0.00067591  -0.00267381  0.19823624  1
  Rh  Rh232  1  0.59674297  0.60181873  0.40323489  1
  Rh  Rh233  1  0.00351702  0.60085930  0.40389938  1
  Rh  Rh234  1  0.59600855  0.79840312  0.00531513  1
  Rh  Rh235  1  0.19387867  0.20661853  0.79961297  1
  Rh  Rh236  1  0.79169117  0.59913969  0.80600888  1
  Rh  Rh237  1  0.39668453  0.40477945  0.20174391  1
  Rh  Rh238  1  0.39606768  0.59797490  0.80844843  1
  Rh  Rh239  1  0.59195243  0.41061133  0.81156048  1
  Rh  Rh240  1  0.20307758  0.60056885  0.00060576  1
  Rh  Rh241  1  0.19834520  0.39493810  0.39714333  1
  Rh  Rh242  1  0.00381465  0.40680054  0.00006083  1
  Rh  Rh243  1  0.79550124  0.40125741  -0.00329865  1
  Rh  Rh244  1  0.80019029  0.59344961  0.40367214  1
  Rh  Rh245  1  0.00103891  0.40402334  0.79755627  1
  Rh  Rh246  1  0.39679404  0.79174663  -0.00135676  1
  Rh  Rh247  1  0.19758579  0.59831442  0.80921854  1
  Rh  Rh248  1  -0.00958682  0.20020845  0.20702066  1
  Rh  Rh249  1  0.79511642  0.20787402  0.60723746  1
