# generated using pymatgen
data_ZrScNbPdRh
_symmetry_space_group_name_H-M   'P 1'
_cell_length_a   16.55448862
_cell_length_b   16.55712341
_cell_length_c   16.55275707
_cell_angle_alpha   89.98852277
_cell_angle_beta   90.02700195
_cell_angle_gamma   90.00957557
_symmetry_Int_Tables_number   1
_chemical_formula_structural   ZrScNbPdRh
_chemical_formula_sum   'Zr50 Sc50 Nb50 Pd50 Rh50'
_cell_volume   4537.02250835
_cell_formula_units_Z   50
loop_
 _symmetry_equiv_pos_site_id
 _symmetry_equiv_pos_as_xyz
  1  'x, y, z'
loop_
 _atom_site_type_symbol
 _atom_site_label
 _atom_site_symmetry_multiplicity
 _atom_site_fract_x
 _atom_site_fract_y
 _atom_site_fract_z
 _atom_site_occupancy
  Zr  Zr0  1  0.70233021  0.09880709  0.30162114  1
  Zr  Zr1  1  0.70270700  0.89791278  0.49757179  1
  Zr  Zr2  1  0.10082709  0.90217436  0.49509914  1
  Zr  Zr3  1  0.88792207  0.89530269  0.09964695  1
  Zr  Zr4  1  0.90931479  0.09836661  0.09838500  1
  Zr  Zr5  1  0.50550550  0.90150437  0.50225551  1
  Zr  Zr6  1  0.10336778  0.90464399  0.30406735  1
  Zr  Zr7  1  0.09612352  0.50311545  0.70034863  1
  Zr  Zr8  1  0.70485212  0.50625288  0.68874099  1
  Zr  Zr9  1  0.89615255  0.30111946  0.50378074  1
  Zr  Zr10  1  0.29867166  0.89738517  0.50371227  1
  Zr  Zr11  1  0.50099096  0.10149283  0.10556377  1
  Zr  Zr12  1  0.89586143  0.69394227  0.09685977  1
  Zr  Zr13  1  0.30110831  0.10019748  0.70379634  1
  Zr  Zr14  1  0.50024043  0.29670699  0.50324919  1
  Zr  Zr15  1  0.69084870  0.10058865  0.49396794  1
  Zr  Zr16  1  0.69974339  0.70469662  0.30269286  1
  Zr  Zr17  1  0.09859313  0.30644713  0.70435287  1
  Zr  Zr18  1  0.09234429  0.90283106  0.89961392  1
  Zr  Zr19  1  0.30184817  0.29592448  0.10117766  1
  Zr  Zr20  1  0.30363813  0.70720924  0.69200649  1
  Zr  Zr21  1  0.50949127  0.69765288  0.10863647  1
  Zr  Zr22  1  0.89506136  0.49528814  0.10187113  1
  Zr  Zr23  1  0.50504161  0.50300887  0.10418197  1
  Zr  Zr24  1  0.09840147  0.30205189  0.30625164  1
  Zr  Zr25  1  0.89637925  0.90147295  0.69992557  1
  Zr  Zr26  1  0.30410938  0.90375066  0.69737148  1
  Zr  Zr27  1  0.30298239  0.69761138  0.30415845  1
  Zr  Zr28  1  0.30390494  0.10129437  0.89649961  1
  Zr  Zr29  1  0.50079024  0.70057471  0.49700805  1
  Zr  Zr30  1  0.29121500  0.09544569  0.50381206  1
  Zr  Zr31  1  0.70453231  0.89914641  0.70357671  1
  Zr  Zr32  1  0.70506983  0.29752438  0.89788944  1
  Zr  Zr33  1  0.30157368  0.31024120  0.29891141  1
  Zr  Zr34  1  0.29868724  0.10324259  0.09513492  1
  Zr  Zr35  1  0.90502366  0.29597945  0.69645162  1
  Zr  Zr36  1  0.50017027  0.49342399  0.50955685  1
  Zr  Zr37  1  0.30449636  0.49540501  0.10991311  1
  Zr  Zr38  1  0.90442917  0.69790377  0.69927723  1
  Zr  Zr39  1  0.70455951  0.49224147  0.29563620  1
  Zr  Zr40  1  0.70028110  0.29314443  0.30138009  1
  Zr  Zr41  1  0.69827160  0.08983271  0.10010961  1
  Zr  Zr42  1  0.50213567  0.29725863  0.69610566  1
  Zr  Zr43  1  0.70334439  0.89811651  0.29511523  1
  Zr  Zr44  1  0.29429697  0.50185965  0.30603678  1
  Zr  Zr45  1  0.89439880  0.50014902  0.69851888  1
  Zr  Zr46  1  0.29987183  0.49654123  0.69451391  1
  Zr  Zr47  1  0.48865523  0.50132708  0.30007939  1
  Zr  Zr48  1  0.10110539  0.49976340  0.89404678  1
  Zr  Zr49  1  0.70537523  0.30736903  0.09563040  1
  Sc  Sc50  1  0.50526163  0.89059812  0.29480493  1
  Sc  Sc51  1  0.29830922  0.90918353  0.89876581  1
  Sc  Sc52  1  0.29514562  0.30748101  0.49942405  1
  Sc  Sc53  1  0.90357329  0.10199431  0.50018326  1
  Sc  Sc54  1  0.90108689  0.90134498  0.50695225  1
  Sc  Sc55  1  0.30705879  0.50995203  0.90761077  1
  Sc  Sc56  1  0.29993178  0.70070524  0.10440298  1
  Sc  Sc57  1  0.09321380  0.50481541  0.10182754  1
  Sc  Sc58  1  0.50092229  0.69085979  0.90456549  1
  Sc  Sc59  1  0.69585929  0.49920238  0.09199181  1
  Sc  Sc60  1  0.70785383  0.70203962  0.69703154  1
  Sc  Sc61  1  0.89479064  0.90319516  0.89383634  1
  Sc  Sc62  1  0.70588114  0.70116360  0.50437605  1
  Sc  Sc63  1  0.50753523  0.70190629  0.70053160  1
  Sc  Sc64  1  0.09749017  0.10298991  0.91575632  1
  Sc  Sc65  1  0.90282478  0.09748315  0.69866423  1
  Sc  Sc66  1  0.51189340  0.10508575  0.29196214  1
  Sc  Sc67  1  0.89211009  0.50772602  0.89300253  1
  Sc  Sc68  1  0.70340211  0.70311448  0.09745833  1
  Sc  Sc69  1  0.30152530  0.28947407  0.89879679  1
  Sc  Sc70  1  0.09872607  0.70119201  0.31723650  1
  Sc  Sc71  1  0.89546927  0.09883436  0.89684206  1
  Sc  Sc72  1  0.70633240  0.29431628  0.49876487  1
  Sc  Sc73  1  0.49606934  0.10505873  0.89126272  1
  Sc  Sc74  1  0.09925551  0.29598088  0.50211742  1
  Sc  Sc75  1  0.49950411  0.29564337  0.90291129  1
  Sc  Sc76  1  0.08436891  0.89549392  0.69062964  1
  Sc  Sc77  1  0.09670602  0.91306992  0.10104560  1
  Sc  Sc78  1  0.09255170  0.69088377  0.89913323  1
  Sc  Sc79  1  0.29509849  0.70346251  0.49648998  1
  Sc  Sc80  1  0.29568820  0.90396048  0.11178392  1
  Sc  Sc81  1  0.30179109  0.09727541  0.29273602  1
  Sc  Sc82  1  0.89133230  0.29560783  0.89315529  1
  Sc  Sc83  1  0.70689250  0.69752525  0.90296499  1
  Sc  Sc84  1  0.49895933  0.10507110  0.69805749  1
  Sc  Sc85  1  0.50321106  0.50087613  0.91597066  1
  Sc  Sc86  1  0.29624052  0.89675846  0.30327626  1
  Sc  Sc87  1  0.50020659  0.69888946  0.29693180  1
  Sc  Sc88  1  0.89659991  0.31191770  0.30863915  1
  Sc  Sc89  1  0.10777734  0.50485157  0.50183302  1
  Sc  Sc90  1  0.89305758  0.89771643  0.30439059  1
  Sc  Sc91  1  0.88977735  0.49985563  0.49715637  1
  Sc  Sc92  1  0.09282031  0.49827766  0.30443747  1
  Sc  Sc93  1  0.30210352  0.49628344  0.49199593  1
  Sc  Sc94  1  0.89655555  0.29750224  0.09435941  1
  Sc  Sc95  1  0.50093406  0.89905446  0.69890914  1
  Sc  Sc96  1  0.49772767  0.30023236  0.10291193  1
  Sc  Sc97  1  0.70037434  0.10437458  0.70361299  1
  Sc  Sc98  1  0.29308692  0.29753739  0.70019841  1
  Sc  Sc99  1  0.70800744  0.29492978  0.70065875  1
  Nb  Nb100  1  0.69371007  0.90579290  0.90971340  1
  Nb  Nb101  1  0.09706226  0.70615050  0.51098332  1
  Nb  Nb102  1  0.50314768  0.89953997  0.90226474  1
  Nb  Nb103  1  0.51597142  0.90190778  0.09234922  1
  Nb  Nb104  1  0.89623702  0.69835826  0.90151815  1
  Nb  Nb105  1  0.90272090  0.70472253  0.49347838  1
  Nb  Nb106  1  0.70019269  0.10314175  0.89818527  1
  Nb  Nb107  1  0.69639547  0.50092670  0.50160447  1
  Nb  Nb108  1  0.70124606  0.49552949  0.89666126  1
  Nb  Nb109  1  0.10086133  0.09581189  0.49106652  1
  Nb  Nb110  1  0.69500074  0.89803021  0.09363081  1
  Nb  Nb111  1  0.10199063  0.69795892  0.69308440  1
  Nb  Nb112  1  0.50040151  0.10260745  0.49758589  1
  Nb  Nb113  1  0.89799415  0.50255622  0.29996525  1
  Nb  Nb114  1  0.90325928  0.10582609  0.29627738  1
  Nb  Nb115  1  0.29859429  0.70427391  0.89954018  1
  Nb  Nb116  1  0.09592581  0.70023994  0.09935157  1
  Nb  Nb117  1  0.10292199  0.30405398  0.90009215  1
  Nb  Nb118  1  0.09024851  0.10162318  0.30329712  1
  Nb  Nb119  1  0.09752401  0.10566169  0.68732843  1
  Nb  Nb120  1  0.50382587  0.49833388  0.69689523  1
  Nb  Nb121  1  0.09485243  0.10756190  0.10578326  1
  Nb  Nb122  1  0.89739869  0.69829373  0.30354154  1
  Nb  Nb123  1  0.09835848  0.29291100  0.09243464  1
  Nb  Nb124  1  0.50146767  0.29498584  0.30038605  1
  Nb  Nb125  1  0.60314291  0.58985162  0.79785993  1
  Nb  Nb126  1  0.40842019  0.40589155  0.79644905  1
  Nb  Nb127  1  0.60279211  0.59127733  0.40308667  1
  Nb  Nb128  1  0.40870831  -0.00548551  0.00261938  1
  Nb  Nb129  1  0.19735509  0.79742406  -0.00310830  1
  Nb  Nb130  1  0.00441862  0.39554764  -0.00636610  1
  Nb  Nb131  1  0.80335545  0.19478441  0.20213754  1
  Nb  Nb132  1  0.59947951  0.40094546  0.40070686  1
  Nb  Nb133  1  -0.00182235  0.79335028  0.19882876  1
  Nb  Nb134  1  -0.00117258  0.79563124  0.00264014  1
  Nb  Nb135  1  0.18767098  0.19956212  0.19973226  1
  Nb  Nb136  1  0.60309098  -0.00372539  0.80821186  1
  Nb  Nb137  1  0.40543575  0.00501595  0.40379616  1
  Nb  Nb138  1  0.80493272  0.59932334  0.20702463  1
  Nb  Nb139  1  0.20468518  0.60845730  0.79437763  1
  Nb  Nb140  1  0.19480025  0.60385352  0.20258051  1
  Nb  Nb141  1  0.40241716  0.19572328  0.40094120  1
  Nb  Nb142  1  0.19515010  0.39587413  0.00084031  1
  Nb  Nb143  1  0.39804978  0.80014915  0.80832706  1
  Nb  Nb144  1  0.40417725  0.59823742  0.60107231  1
  Nb  Nb145  1  0.40071583  0.80588622  0.00014574  1
  Nb  Nb146  1  0.60629433  0.19558452  -0.00083739  1
  Nb  Nb147  1  0.19840164  0.79950379  0.80027282  1
  Nb  Nb148  1  0.60050076  0.40517187  0.79848847  1
  Nb  Nb149  1  0.19088939  0.00081483  0.79426151  1
  Pd  Pd150  1  0.79710432  0.00737594  0.59831122  1
  Pd  Pd151  1  0.20262631  -0.00221953  -0.00093157  1
  Pd  Pd152  1  0.21662745  0.40749866  0.81100685  1
  Pd  Pd153  1  0.20908081  0.59949676  0.59737174  1
  Pd  Pd154  1  0.18646227  0.40155209  0.19408385  1
  Pd  Pd155  1  0.40470249  0.60104337  0.79430592  1
  Pd  Pd156  1  0.40139814  0.80792454  0.39949463  1
  Pd  Pd157  1  -0.00485584  -0.01000333  0.20408661  1
  Pd  Pd158  1  0.00087070  0.60584581  0.20923584  1
  Pd  Pd159  1  0.80740588  0.00320347  0.40387040  1
  Pd  Pd160  1  -0.01175813  0.40032992  0.80608152  1
  Pd  Pd161  1  0.79454483  0.60003369  0.40014970  1
  Pd  Pd162  1  0.39081029  0.20224891  0.59561028  1
  Pd  Pd163  1  0.20769787  0.19621504  0.39075302  1
  Pd  Pd164  1  0.00123715  0.59680484  0.40826603  1
  Pd  Pd165  1  -0.00507481  0.59450418  -0.00482311  1
  Pd  Pd166  1  -0.00763211  0.20567873  -0.01055740  1
  Pd  Pd167  1  0.00570393  0.01127123  0.79686533  1
  Pd  Pd168  1  0.80352854  0.00312553  0.20054371  1
  Pd  Pd169  1  0.59855949  0.79516141  0.80717907  1
  Pd  Pd170  1  -0.00517659  0.21333027  0.20499772  1
  Pd  Pd171  1  0.19679543  0.20474809  0.59810676  1
  Pd  Pd172  1  0.39973509  0.60893642  0.01170486  1
  Pd  Pd173  1  0.00472336  0.19412234  0.80427277  1
  Pd  Pd174  1  -0.00199865  0.39269638  0.19379161  1
  Pd  Pd175  1  0.18832984  0.19048293  0.80212309  1
  Pd  Pd176  1  0.61236246  0.38872538  0.60062330  1
  Pd  Pd177  1  0.59926584  0.78851367  -0.00533505  1
  Pd  Pd178  1  -0.00688913  0.59593560  0.59028517  1
  Pd  Pd179  1  0.39462612  0.39509768  -0.00708360  1
  Pd  Pd180  1  0.40685675  0.00415219  0.59714695  1
  Pd  Pd181  1  0.80429401  0.00100507  -0.00520258  1
  Pd  Pd182  1  0.79961515  0.19098505  0.59998858  1
  Pd  Pd183  1  -0.00910495  -0.00153694  0.40024837  1
  Pd  Pd184  1  0.40306337  0.80447397  0.19226231  1
  Pd  Pd185  1  0.00217052  0.40634926  0.59312167  1
  Pd  Pd186  1  0.18959317  -0.00538657  0.60734778  1
  Pd  Pd187  1  0.19425871  0.01044673  0.20489565  1
  Pd  Pd188  1  0.79768656  0.79952490  0.80679902  1
  Pd  Pd189  1  0.19027535  0.79479548  0.19737531  1
  Pd  Pd190  1  0.60357728  0.79782982  0.60090322  1
  Pd  Pd191  1  -0.00585059  0.20305089  0.40466446  1
  Pd  Pd192  1  0.59508208  0.39619313  0.20393807  1
  Pd  Pd193  1  0.20156373  0.59938474  0.00425369  1
  Pd  Pd194  1  0.00167276  0.79151946  0.80504141  1
  Pd  Pd195  1  0.00127539  0.40706942  0.41144330  1
  Pd  Pd196  1  -0.00301004  0.80552368  0.39720791  1
  Pd  Pd197  1  0.59272288  -0.00437654  0.39074477  1
  Pd  Pd198  1  0.60133928  0.00518719  0.61129132  1
  Pd  Pd199  1  0.40850270  -0.00716476  0.20196347  1
  Rh  Rh200  1  -0.00599012  0.79763568  0.59734438  1
  Rh  Rh201  1  0.41010346  0.79375573  0.60191335  1
  Rh  Rh202  1  0.60700057  0.19756991  0.59944095  1
  Rh  Rh203  1  0.59680115  0.60828991  0.59895378  1
  Rh  Rh204  1  0.60662117  0.80222376  0.19626965  1
  Rh  Rh205  1  0.79589378  0.19082012  0.00909772  1
  Rh  Rh206  1  0.60777962  0.60128072  -0.00506936  1
  Rh  Rh207  1  0.00314412  0.00632719  0.59373826  1
  Rh  Rh208  1  0.19509614  0.39752658  0.59801620  1
  Rh  Rh209  1  0.80868572  0.40656113  -0.00889169  1
  Rh  Rh210  1  0.39153956  0.20544840  0.20951615  1
  Rh  Rh211  1  0.79852213  0.39703725  0.59985541  1
  Rh  Rh212  1  0.40857850  0.38955383  0.39979763  1
  Rh  Rh213  1  0.61265859  0.20631574  0.18834513  1
  Rh  Rh214  1  0.60052336  -0.00891707  0.20485950  1
  Rh  Rh215  1  0.40106237  0.21173420  0.79256267  1
  Rh  Rh216  1  0.39389859  0.39919704  0.60535303  1
  Rh  Rh217  1  0.60264883  0.79509982  0.40181323  1
  Rh  Rh218  1  0.59419225  0.01184151  -0.00794086  1
  Rh  Rh219  1  0.80781400  0.79772209  0.59717334  1
  Rh  Rh220  1  -0.00632349  -0.00459769  0.00216745  1
  Rh  Rh221  1  0.80317079  0.80344876  -0.00795917  1
  Rh  Rh222  1  0.80606395  0.39799487  0.20059055  1
  Rh  Rh223  1  0.40544039  -0.00760865  0.80394509  1
  Rh  Rh224  1  0.79408547  0.60411812  0.79861920  1
  Rh  Rh225  1  0.60096645  0.20147003  0.80508090  1
  Rh  Rh226  1  0.60090026  0.38993571  -0.00803529  1
  Rh  Rh227  1  0.79332946  0.40184555  0.40499173  1
  Rh  Rh228  1  0.79039480  0.00020124  0.80154475  1
  Rh  Rh229  1  0.19814193  0.79881078  0.40567172  1
  Rh  Rh230  1  0.00139618  0.60346598  0.79676094  1
  Rh  Rh231  1  0.19628109  0.60357041  0.39946948  1
  Rh  Rh232  1  0.79714606  0.39983938  0.79377408  1
  Rh  Rh233  1  0.80065807  0.79167979  0.20004120  1
  Rh  Rh234  1  0.40559503  0.60101456  0.40856389  1
  Rh  Rh235  1  0.80836194  0.60738345  0.59158880  1
  Rh  Rh236  1  0.00382228  0.19733012  0.59458013  1
  Rh  Rh237  1  0.80596668  0.19508614  0.79301108  1
  Rh  Rh238  1  0.59399574  0.20579898  0.40283188  1
  Rh  Rh239  1  0.20061947  0.20289912  0.00282029  1
  Rh  Rh240  1  0.19213240  0.40172942  0.40326077  1
  Rh  Rh241  1  0.40935206  0.19156028  0.00192818  1
  Rh  Rh242  1  0.61229288  0.60080962  0.20723548  1
  Rh  Rh243  1  0.79602150  0.59419755  0.00310416  1
  Rh  Rh244  1  0.39170142  0.60292381  0.19895025  1
  Rh  Rh245  1  0.19247846  0.80614101  0.60079222  1
  Rh  Rh246  1  0.20577118  0.00585160  0.39220811  1
  Rh  Rh247  1  0.80820367  0.19476341  0.39466540  1
  Rh  Rh248  1  0.40758453  0.39718731  0.20049170  1
  Rh  Rh249  1  0.80273868  0.80197874  0.40575538  1
