# generated using pymatgen
data_ZrScNbPdRh
_symmetry_space_group_name_H-M   'P 1'
_cell_length_a   16.55625105
_cell_length_b   16.55584461
_cell_length_c   16.55535370
_cell_angle_alpha   89.97909989
_cell_angle_beta   89.97826007
_cell_angle_gamma   89.95711756
_symmetry_Int_Tables_number   1
_chemical_formula_structural   ZrScNbPdRh
_chemical_formula_sum   'Zr50 Sc50 Nb50 Pd50 Rh50'
_cell_volume   4537.86557609
_cell_formula_units_Z   50
loop_
 _symmetry_equiv_pos_site_id
 _symmetry_equiv_pos_as_xyz
  1  'x, y, z'
loop_
 _atom_site_type_symbol
 _atom_site_label
 _atom_site_symmetry_multiplicity
 _atom_site_fract_x
 _atom_site_fract_y
 _atom_site_fract_z
 _atom_site_occupancy
  Zr  Zr0  1  0.09085377  0.69277155  0.10252753  1
  Zr  Zr1  1  0.50606322  0.48916380  0.90839971  1
  Zr  Zr2  1  0.90634501  0.69224156  0.89970765  1
  Zr  Zr3  1  0.90351547  0.69546671  0.50724190  1
  Zr  Zr4  1  0.69614048  0.29789697  0.69987271  1
  Zr  Zr5  1  0.89740514  0.90444377  0.30236226  1
  Zr  Zr6  1  0.70628607  0.09952829  0.29864329  1
  Zr  Zr7  1  0.29850273  0.29937127  0.09768731  1
  Zr  Zr8  1  0.69601707  0.69870601  0.70015862  1
  Zr  Zr9  1  0.10570242  0.50407223  0.28812803  1
  Zr  Zr10  1  0.49711492  0.31381194  0.09534885  1
  Zr  Zr11  1  0.70072240  0.50696557  0.10624614  1
  Zr  Zr12  1  0.29514310  0.09488407  0.70149359  1
  Zr  Zr13  1  0.29848090  0.09009531  0.30819901  1
  Zr  Zr14  1  0.10181514  0.30793026  0.70255894  1
  Zr  Zr15  1  0.10165534  0.29656045  0.11011221  1
  Zr  Zr16  1  0.69587076  0.50671364  0.90190568  1
  Zr  Zr17  1  0.10233838  0.89266003  0.10755847  1
  Zr  Zr18  1  0.50156877  0.90203722  0.09369062  1
  Zr  Zr19  1  0.90435141  0.29710587  0.10300275  1
  Zr  Zr20  1  0.10038313  0.10378238  0.10124904  1
  Zr  Zr21  1  0.90362701  0.10417920  0.49933421  1
  Zr  Zr22  1  0.50119048  0.90342814  0.89693457  1
  Zr  Zr23  1  0.68824019  0.90166828  0.09465681  1
  Zr  Zr24  1  0.50018723  0.50418713  0.29706722  1
  Zr  Zr25  1  0.29112468  0.49604013  0.70131283  1
  Zr  Zr26  1  0.30398502  0.70423218  0.49000242  1
  Zr  Zr27  1  0.70722254  0.29936103  0.29562080  1
  Zr  Zr28  1  0.70499946  0.29595842  0.09996835  1
  Zr  Zr29  1  0.69312150  0.50427834  0.70429198  1
  Zr  Zr30  1  0.69193061  0.30379610  0.90476389  1
  Zr  Zr31  1  0.50166064  0.50928845  0.10364485  1
  Zr  Zr32  1  0.30351686  0.50040343  0.50563968  1
  Zr  Zr33  1  0.69416678  0.69423898  0.50252682  1
  Zr  Zr34  1  0.70713594  0.49992541  0.30088426  1
  Zr  Zr35  1  0.10785238  0.50600905  0.50460621  1
  Zr  Zr36  1  0.90274580  0.30206982  0.89763453  1
  Zr  Zr37  1  0.10394399  0.69483992  0.89783116  1
  Zr  Zr38  1  0.89987154  0.89945325  0.89776636  1
  Zr  Zr39  1  0.89722414  0.69920439  0.70365539  1
  Zr  Zr40  1  0.70216063  0.69681735  0.89881567  1
  Zr  Zr41  1  0.89543162  0.09900871  0.30072615  1
  Zr  Zr42  1  0.69724079  0.70003886  0.10016616  1
  Zr  Zr43  1  0.71094365  0.30022678  0.49956397  1
  Zr  Zr44  1  0.91290481  0.50818469  0.10327994  1
  Zr  Zr45  1  0.68961874  0.90371722  0.69998688  1
  Zr  Zr46  1  0.89284873  0.49748973  0.49719799  1
  Zr  Zr47  1  0.49553819  0.89363315  0.51416242  1
  Zr  Zr48  1  0.11113609  0.70406425  0.29927823  1
  Zr  Zr49  1  0.49308175  0.69786450  0.30707798  1
  Sc  Sc50  1  0.09874042  0.09662147  0.49730325  1
  Sc  Sc51  1  0.30716373  0.89893539  0.10978800  1
  Sc  Sc52  1  0.70215863  0.09327227  0.70006954  1
  Sc  Sc53  1  0.90453012  0.50488778  0.69901351  1
  Sc  Sc54  1  0.69703337  0.90696578  0.89727791  1
  Sc  Sc55  1  0.09732165  0.69414131  0.69696263  1
  Sc  Sc56  1  0.10224733  0.10258475  0.29946706  1
  Sc  Sc57  1  0.30308384  0.70000560  0.71262549  1
  Sc  Sc58  1  0.29607778  0.30263282  0.70509423  1
  Sc  Sc59  1  0.10035836  0.70538604  0.50299224  1
  Sc  Sc60  1  0.09666733  0.09587537  0.69456825  1
  Sc  Sc61  1  0.70296285  0.90642535  0.29204527  1
  Sc  Sc62  1  0.90663347  0.90932920  0.50087218  1
  Sc  Sc63  1  0.89680614  0.29821080  0.69178027  1
  Sc  Sc64  1  0.10369696  0.89619289  0.30232183  1
  Sc  Sc65  1  0.49358215  0.09320755  0.89561910  1
  Sc  Sc66  1  0.70245857  0.09867206  0.50706647  1
  Sc  Sc67  1  0.29784120  0.51074285  0.90285964  1
  Sc  Sc68  1  0.90741375  0.89906016  0.10504826  1
  Sc  Sc69  1  0.90011769  0.09664781  0.69663327  1
  Sc  Sc70  1  0.50171878  0.09305832  0.70073770  1
  Sc  Sc71  1  0.69886148  0.69272847  0.29562763  1
  Sc  Sc72  1  0.30362448  0.90024046  0.88661933  1
  Sc  Sc73  1  0.90134949  0.70318038  0.28810058  1
  Sc  Sc74  1  0.09532791  0.90122850  0.89082103  1
  Sc  Sc75  1  0.10280397  0.30164928  0.90038690  1
  Sc  Sc76  1  0.90279950  0.10003625  0.09933706  1
  Sc  Sc77  1  0.10405536  0.89896152  0.50096057  1
  Sc  Sc78  1  0.10002481  0.09739788  0.89474497  1
  Sc  Sc79  1  0.48254053  0.10127481  0.29986638  1
  Sc  Sc80  1  0.30487913  0.28434571  0.29639101  1
  Sc  Sc81  1  0.09482414  0.49683023  0.89179373  1
  Sc  Sc82  1  0.48993664  0.89835733  0.29099471  1
  Sc  Sc83  1  0.89460358  0.09265597  0.89720250  1
  Sc  Sc84  1  0.29951054  0.09953934  0.89140659  1
  Sc  Sc85  1  0.49274564  0.70326447  0.90452749  1
  Sc  Sc86  1  0.29669773  0.90339890  0.50230984  1
  Sc  Sc87  1  0.30221340  0.89839115  0.69582842  1
  Sc  Sc88  1  0.89302463  0.29403181  0.29778430  1
  Sc  Sc89  1  0.49920762  0.69437062  0.50451135  1
  Sc  Sc90  1  0.70231175  0.50677093  0.49817917  1
  Sc  Sc91  1  0.70036524  0.91153836  0.50807251  1
  Sc  Sc92  1  0.30850082  0.50366273  0.10627966  1
  Sc  Sc93  1  0.49619228  0.29426015  0.50320963  1
  Sc  Sc94  1  0.29909131  0.10159330  0.10865506  1
  Sc  Sc95  1  0.90038041  0.90805281  0.70529198  1
  Sc  Sc96  1  0.29416132  0.88832872  0.30470520  1
  Sc  Sc97  1  0.49900815  0.70793241  0.69565772  1
  Sc  Sc98  1  0.49404996  0.50608059  0.69853590  1
  Sc  Sc99  1  0.10432875  0.90855104  0.69518924  1
  Nb  Nb100  1  0.90251938  0.70287192  0.09607215  1
  Nb  Nb101  1  0.69891327  0.10251899  0.90357411  1
  Nb  Nb102  1  0.50334647  0.30002704  0.29970836  1
  Nb  Nb103  1  0.49529210  0.09776655  0.49626004  1
  Nb  Nb104  1  0.90629734  0.30032012  0.49922843  1
  Nb  Nb105  1  0.29910663  0.30105639  0.49930445  1
  Nb  Nb106  1  0.89985679  0.49801975  0.30168683  1
  Nb  Nb107  1  0.30440616  0.70132196  0.09182572  1
  Nb  Nb108  1  0.30225132  0.51478857  0.30851689  1
  Nb  Nb109  1  0.49804366  0.30256048  0.90042647  1
  Nb  Nb110  1  0.49809971  0.29546772  0.70560248  1
  Nb  Nb111  1  0.10362392  0.30225534  0.30123114  1
  Nb  Nb112  1  0.30142177  0.69197712  0.30119055  1
  Nb  Nb113  1  0.50091392  0.89735262  0.70396908  1
  Nb  Nb114  1  0.30498644  0.10338638  0.49634439  1
  Nb  Nb115  1  0.89814416  0.49757593  0.89877576  1
  Nb  Nb116  1  0.30258168  0.29947134  0.89890980  1
  Nb  Nb117  1  0.10496099  0.49315629  0.69745170  1
  Nb  Nb118  1  0.29395684  0.70251532  0.90205823  1
  Nb  Nb119  1  0.50003010  0.09386718  0.09629445  1
  Nb  Nb120  1  0.50147392  0.49663462  0.49928244  1
  Nb  Nb121  1  0.09799200  0.29779648  0.49692078  1
  Nb  Nb122  1  0.10327102  0.49371115  0.10138848  1
  Nb  Nb123  1  0.69027713  0.09852113  0.09390761  1
  Nb  Nb124  1  0.50114956  0.70762767  0.10062615  1
  Nb  Nb125  1  0.79793057  0.40395518  0.80562236  1
  Nb  Nb126  1  0.20373520  0.20323868  0.59155727  1
  Nb  Nb127  1  0.20389501  0.79761507  -0.00082594  1
  Nb  Nb128  1  0.00417817  0.39884112  0.39883338  1
  Nb  Nb129  1  0.40295729  0.20383681  -0.00328507  1
  Nb  Nb130  1  0.39956846  0.39937455  0.39964573  1
  Nb  Nb131  1  0.79843547  0.80007339  0.59937536  1
  Nb  Nb132  1  0.20287726  0.39702500  0.39700305  1
  Nb  Nb133  1  0.59583886  0.39552165  0.40162404  1
  Nb  Nb134  1  0.19894924  0.40189701  0.00627321  1
  Nb  Nb135  1  0.59823759  0.20170099  0.80597935  1
  Nb  Nb136  1  -0.00175019  0.20386313  0.79667198  1
  Nb  Nb137  1  0.59476639  0.19588895  0.19631443  1
  Nb  Nb138  1  0.39417868  0.19728316  0.59903998  1
  Nb  Nb139  1  0.59552791  0.39838899  0.59671095  1
  Nb  Nb140  1  0.40237208  0.39602677  0.80438679  1
  Nb  Nb141  1  0.00372640  0.39920712  0.59208072  1
  Nb  Nb142  1  0.59214746  0.00248407  0.40221334  1
  Nb  Nb143  1  0.19962849  -0.00704863  0.00188065  1
  Nb  Nb144  1  0.79601612  0.80144232  0.40591411  1
  Nb  Nb145  1  0.80354599  0.79636403  0.00216970  1
  Nb  Nb146  1  0.80530563  0.40577985  -0.00072647  1
  Nb  Nb147  1  0.59607550  0.19879172  0.39650068  1
  Nb  Nb148  1  0.60270043  0.80695878  0.40242279  1
  Nb  Nb149  1  0.00123482  0.59362108  0.39510030  1
  Pd  Pd150  1  0.58764792  0.19390512  -0.00161732  1
  Pd  Pd151  1  0.80576968  0.20022397  0.00039256  1
  Pd  Pd152  1  0.00530228  0.59395324  0.79529146  1
  Pd  Pd153  1  0.19632868  0.80282863  0.79797673  1
  Pd  Pd154  1  -0.00523663  0.80977803  0.60702017  1
  Pd  Pd155  1  0.58345847  0.60677493  0.80155961  1
  Pd  Pd156  1  -0.00002160  0.19469271  -0.00987045  1
  Pd  Pd157  1  0.80217870  0.19412743  0.60095578  1
  Pd  Pd158  1  0.79755393  0.80521370  0.80037654  1
  Pd  Pd159  1  0.20018845  0.19993419  0.40092336  1
  Pd  Pd160  1  0.60358088  0.39686140  0.20153143  1
  Pd  Pd161  1  0.20888215  0.60589903  0.18932417  1
  Pd  Pd162  1  0.40013693  0.00350789  0.60491796  1
  Pd  Pd163  1  0.79896646  0.20220048  0.79823382  1
  Pd  Pd164  1  0.38803493  0.00663302  0.00053506  1
  Pd  Pd165  1  0.80825526  0.61221651  0.39308419  1
  Pd  Pd166  1  0.79757013  0.80272391  0.19729591  1
  Pd  Pd167  1  0.40532633  0.39237638  0.60490723  1
  Pd  Pd168  1  0.00556142  0.40187075  0.00009960  1
  Pd  Pd169  1  0.59241112  0.19784964  0.60088835  1
  Pd  Pd170  1  0.00858857  -0.00004797  0.39576060  1
  Pd  Pd171  1  0.40696558  0.19785201  0.18948398  1
  Pd  Pd172  1  0.80495579  0.60098868  0.00483296  1
  Pd  Pd173  1  0.19558751  0.59552671  0.00516859  1
  Pd  Pd174  1  -0.00505609  0.39450639  0.20876933  1
  Pd  Pd175  1  0.20570179  0.79521072  0.60362056  1
  Pd  Pd176  1  0.80070872  0.00149799  0.18537937  1
  Pd  Pd177  1  0.00456772  0.00197052  0.20605751  1
  Pd  Pd178  1  0.39653603  0.60618695  0.60234687  1
  Pd  Pd179  1  0.79892164  0.40733957  0.60806638  1
  Pd  Pd180  1  0.58947316  0.00754506  0.20967661  1
  Pd  Pd181  1  0.59950817  0.79759461  0.21032467  1
  Pd  Pd182  1  0.79952834  -0.00793170  0.00453702  1
  Pd  Pd183  1  0.00616997  0.80240172  0.79076897  1
  Pd  Pd184  1  0.39516293  0.79336442  0.20136995  1
  Pd  Pd185  1  0.19188244  0.19826540  0.79499023  1
  Pd  Pd186  1  0.40102758  -0.01347494  0.40052879  1
  Pd  Pd187  1  0.00276813  0.80171392  -0.00303194  1
  Pd  Pd188  1  0.59554963  0.79588107  0.80551800  1
  Pd  Pd189  1  -0.00661885  0.79345175  0.39742782  1
  Pd  Pd190  1  -0.00196561  0.20271812  0.39208967  1
  Pd  Pd191  1  0.20668515  0.19542779  -0.00470901  1
  Pd  Pd192  1  0.00783479  0.00025300  -0.00120135  1
  Pd  Pd193  1  0.20764176  0.61299847  0.60528276  1
  Pd  Pd194  1  0.40453756  0.60075362  -0.00184343  1
  Pd  Pd195  1  0.21456255  0.40017467  0.20463220  1
  Pd  Pd196  1  0.39085637  0.40286471  0.21199644  1
  Pd  Pd197  1  0.39374208  0.80743625  -0.00564936  1
  Pd  Pd198  1  0.20205337  -0.00176057  0.19963776  1
  Pd  Pd199  1  0.40292435  0.59550321  0.80578203  1
  Rh  Rh200  1  0.79475725  0.00093071  0.80080700  1
  Rh  Rh201  1  0.20754914  0.78984872  0.19296457  1
  Rh  Rh202  1  0.79759072  0.60354791  0.60738702  1
  Rh  Rh203  1  0.60540296  0.79674014  -0.00665178  1
  Rh  Rh204  1  0.19914038  0.19669322  0.20786598  1
  Rh  Rh205  1  0.40462775  0.80272267  0.40315316  1
  Rh  Rh206  1  0.80902445  0.59885992  0.19915092  1
  Rh  Rh207  1  0.59609767  0.39516253  0.78915982  1
  Rh  Rh208  1  0.80165275  0.39487299  0.39698024  1
  Rh  Rh209  1  0.19972758  -0.00237908  0.80250892  1
  Rh  Rh210  1  0.19842502  -0.00222948  0.40341528  1
  Rh  Rh211  1  0.00868721  0.20631162  0.60713082  1
  Rh  Rh212  1  0.60187467  0.00989517  0.80316301  1
  Rh  Rh213  1  -0.00120020  0.60326320  0.20655032  1
  Rh  Rh214  1  0.39946193  0.61106467  0.19508784  1
  Rh  Rh215  1  0.38776030  0.40029045  -0.00725072  1
  Rh  Rh216  1  0.59793071  0.00435775  -0.00957587  1
  Rh  Rh217  1  0.59190153  0.60699062  0.00166773  1
  Rh  Rh218  1  0.00184504  0.59180869  0.59637443  1
  Rh  Rh219  1  0.00015351  0.80094375  0.20561849  1
  Rh  Rh220  1  0.79591895  0.18810694  0.18850656  1
  Rh  Rh221  1  0.80340942  0.59259799  0.79699299  1
  Rh  Rh222  1  0.80924764  0.40785201  0.19104000  1
  Rh  Rh223  1  0.40434809  0.59552918  0.40731404  1
  Rh  Rh224  1  0.19505014  0.60103187  0.40255930  1
  Rh  Rh225  1  0.40473076  0.20406973  0.80047295  1
  Rh  Rh226  1  0.59510094  0.59233776  0.60086061  1
  Rh  Rh227  1  0.20165258  0.79822831  0.40427061  1
  Rh  Rh228  1  0.00675093  0.59293205  -0.00399955  1
  Rh  Rh229  1  0.79253781  -0.00327620  0.40391552  1
  Rh  Rh230  1  0.40420799  0.20652269  0.40574322  1
  Rh  Rh231  1  0.40084307  -0.00518093  0.79212826  1
  Rh  Rh232  1  0.59658907  0.59714559  0.39875516  1
  Rh  Rh233  1  0.61004582  0.40599794  0.01327811  1
  Rh  Rh234  1  0.59229838  0.00329189  0.59757215  1
  Rh  Rh235  1  0.39816908  -0.00090783  0.19888753  1
  Rh  Rh236  1  -0.00099539  0.00991096  0.79785631  1
  Rh  Rh237  1  0.00012090  0.19899999  0.20745478  1
  Rh  Rh238  1  0.19465310  0.39240494  0.59158584  1
  Rh  Rh239  1  0.20962542  0.40753084  0.81478684  1
  Rh  Rh240  1  0.59434142  0.60878230  0.20147115  1
  Rh  Rh241  1  0.79922899  0.19607023  0.40686213  1
  Rh  Rh242  1  0.20137545  0.00859622  0.59313599  1
  Rh  Rh243  1  0.19628512  0.59780352  0.79566076  1
  Rh  Rh244  1  0.40180142  0.79975883  0.80020537  1
  Rh  Rh245  1  0.60485008  0.80140775  0.59605520  1
  Rh  Rh246  1  -0.01099872  0.39616411  0.78668834  1
  Rh  Rh247  1  0.00157279  -0.00023006  0.59690304  1
  Rh  Rh248  1  0.39388099  0.79587369  0.60396521  1
  Rh  Rh249  1  0.80629358  -0.00485594  0.60145642  1
