# generated using pymatgen
data_ZrScNbPdRh
_symmetry_space_group_name_H-M   'P 1'
_cell_length_a   16.55619224
_cell_length_b   16.55493257
_cell_length_c   16.55791318
_cell_angle_alpha   90.02736567
_cell_angle_beta   89.99194435
_cell_angle_gamma   89.99274068
_symmetry_Int_Tables_number   1
_chemical_formula_structural   ZrScNbPdRh
_chemical_formula_sum   'Zr50 Sc50 Nb50 Pd50 Rh50'
_cell_volume   4538.30229224
_cell_formula_units_Z   50
loop_
 _symmetry_equiv_pos_site_id
 _symmetry_equiv_pos_as_xyz
  1  'x, y, z'
loop_
 _atom_site_type_symbol
 _atom_site_label
 _atom_site_symmetry_multiplicity
 _atom_site_fract_x
 _atom_site_fract_y
 _atom_site_fract_z
 _atom_site_occupancy
  Zr  Zr0  1  0.70328477  0.49964433  0.69635388  1
  Zr  Zr1  1  0.90429531  0.10378856  0.29910256  1
  Zr  Zr2  1  0.69756496  0.30593798  0.90339064  1
  Zr  Zr3  1  0.49905912  0.50105889  0.69523563  1
  Zr  Zr4  1  0.69796543  0.89790909  0.69878069  1
  Zr  Zr5  1  0.70273403  0.89962556  0.49519492  1
  Zr  Zr6  1  0.90261576  0.71142379  0.90874826  1
  Zr  Zr7  1  0.10198478  0.09993189  0.28544548  1
  Zr  Zr8  1  0.90400573  0.10666874  0.90063294  1
  Zr  Zr9  1  0.89972745  0.30404832  0.90335727  1
  Zr  Zr10  1  0.29740319  0.69330918  0.90663332  1
  Zr  Zr11  1  0.30114920  0.10566133  0.29758906  1
  Zr  Zr12  1  0.09136863  0.69512408  0.10005574  1
  Zr  Zr13  1  0.09424225  0.89664707  0.29894240  1
  Zr  Zr14  1  0.50183185  0.89722516  0.90123869  1
  Zr  Zr15  1  0.50352113  0.69932376  0.51004143  1
  Zr  Zr16  1  0.49104816  0.50391498  0.10086625  1
  Zr  Zr17  1  0.09832354  0.89262544  0.90087589  1
  Zr  Zr18  1  0.70166021  0.69882260  0.69156896  1
  Zr  Zr19  1  0.89799908  0.90213599  0.30075275  1
  Zr  Zr20  1  0.29576099  0.70973486  0.49533952  1
  Zr  Zr21  1  0.69739882  0.29781019  0.09786419  1
  Zr  Zr22  1  0.29223395  0.29569620  0.70258432  1
  Zr  Zr23  1  0.50414528  0.09971005  0.49499652  1
  Zr  Zr24  1  0.09095482  0.30175623  0.10220446  1
  Zr  Zr25  1  0.89948833  0.30199740  0.70184061  1
  Zr  Zr26  1  0.50068121  0.10387676  0.10536337  1
  Zr  Zr27  1  0.69080271  0.30568869  0.30450292  1
  Zr  Zr28  1  0.89867500  0.10641166  0.10166837  1
  Zr  Zr29  1  0.70536683  0.69211725  0.30515478  1
  Zr  Zr30  1  0.10150101  0.11091205  0.70954426  1
  Zr  Zr31  1  0.90463939  0.49401013  0.50115815  1
  Zr  Zr32  1  0.09443968  0.29818010  0.90010306  1
  Zr  Zr33  1  0.69420093  0.89741727  0.10462570  1
  Zr  Zr34  1  0.09837996  0.49287814  0.50086334  1
  Zr  Zr35  1  0.49990991  0.10583117  0.30050172  1
  Zr  Zr36  1  0.10302589  0.90154885  0.69839371  1
  Zr  Zr37  1  0.29583112  0.89580608  0.09215337  1
  Zr  Zr38  1  0.49643196  0.29740158  0.28664309  1
  Zr  Zr39  1  0.29994261  0.49757251  0.49498040  1
  Zr  Zr40  1  0.70960864  0.29461169  0.49401178  1
  Zr  Zr41  1  0.49313936  0.49298995  0.89811491  1
  Zr  Zr42  1  0.70079111  0.10485180  0.70191976  1
  Zr  Zr43  1  0.69701298  0.10256826  0.89587544  1
  Zr  Zr44  1  0.29883504  0.10117048  0.70217408  1
  Zr  Zr45  1  0.89675605  0.89570569  0.09425653  1
  Zr  Zr46  1  0.70255159  0.10152071  0.10259677  1
  Zr  Zr47  1  0.49627449  0.50150463  0.50528051  1
  Zr  Zr48  1  0.29618576  0.90001856  0.30112418  1
  Zr  Zr49  1  0.70314014  0.69499132  0.91351989  1
  Sc  Sc50  1  0.69886058  0.50326330  0.49158909  1
  Sc  Sc51  1  0.09168380  0.50360449  0.70209212  1
  Sc  Sc52  1  0.89919522  0.30113147  0.09754854  1
  Sc  Sc53  1  0.30071931  0.10008174  0.49429167  1
  Sc  Sc54  1  0.09458831  0.29948293  0.29938342  1
  Sc  Sc55  1  0.29758263  0.10571350  0.90704119  1
  Sc  Sc56  1  0.28829013  0.10035994  0.10110664  1
  Sc  Sc57  1  0.10327115  0.10429271  0.48841989  1
  Sc  Sc58  1  0.31248189  0.50584686  0.70372421  1
  Sc  Sc59  1  0.89858081  0.49852160  0.90104251  1
  Sc  Sc60  1  0.50318634  0.89661949  0.50133847  1
  Sc  Sc61  1  0.69939153  0.69852421  0.50099722  1
  Sc  Sc62  1  0.50033833  0.90278566  0.69694806  1
  Sc  Sc63  1  0.50164877  0.10011807  0.89635388  1
  Sc  Sc64  1  0.69686900  0.09846150  0.30076101  1
  Sc  Sc65  1  0.29693019  0.49972420  0.28869770  1
  Sc  Sc66  1  0.89751179  0.69172146  0.69543758  1
  Sc  Sc67  1  0.51568600  0.90335231  0.30077409  1
  Sc  Sc68  1  0.70076810  0.29773759  0.70728925  1
  Sc  Sc69  1  0.90564794  0.69486021  0.29978587  1
  Sc  Sc70  1  0.50139844  0.69559442  0.91499945  1
  Sc  Sc71  1  0.50156645  0.31067878  0.48606444  1
  Sc  Sc72  1  0.90132041  0.90310689  0.48781999  1
  Sc  Sc73  1  0.28843279  0.30392423  0.49829579  1
  Sc  Sc74  1  0.70901611  0.50458422  0.08883829  1
  Sc  Sc75  1  0.09887386  0.70282289  0.49577454  1
  Sc  Sc76  1  0.29965442  0.90082688  0.69407792  1
  Sc  Sc77  1  0.10277754  0.69794281  0.70127070  1
  Sc  Sc78  1  0.89951734  0.69127452  0.49973785  1
  Sc  Sc79  1  0.09993263  0.30527091  0.70058699  1
  Sc  Sc80  1  0.09786249  0.69830430  0.30409987  1
  Sc  Sc81  1  0.90556379  0.49895952  0.10212588  1
  Sc  Sc82  1  0.90496266  0.50322655  0.69966898  1
  Sc  Sc83  1  0.10379706  0.69293854  0.89633525  1
  Sc  Sc84  1  0.10005286  0.49412518  0.09987783  1
  Sc  Sc85  1  0.29888708  0.89916705  0.50199977  1
  Sc  Sc86  1  0.89832552  0.10984181  0.70734753  1
  Sc  Sc87  1  0.89143627  0.10818900  0.48797173  1
  Sc  Sc88  1  0.30496981  0.30164123  0.90910007  1
  Sc  Sc89  1  0.89584894  0.68985464  0.10135832  1
  Sc  Sc90  1  0.50603258  0.70444167  0.30851175  1
  Sc  Sc91  1  0.09713937  0.49534151  0.29291570  1
  Sc  Sc92  1  0.30604566  0.29705003  0.10122631  1
  Sc  Sc93  1  0.10258485  0.90354202  0.10117671  1
  Sc  Sc94  1  0.10829174  0.89883138  0.49603276  1
  Sc  Sc95  1  0.90176994  0.89339744  0.70877335  1
  Sc  Sc96  1  0.50002992  0.48587949  0.30349709  1
  Sc  Sc97  1  0.30174774  0.69553256  0.70165996  1
  Sc  Sc98  1  0.50846614  0.09096871  0.70893523  1
  Sc  Sc99  1  0.89961672  0.50506208  0.30179354  1
  Nb  Nb100  1  0.70299781  0.50001856  0.29558763  1
  Nb  Nb101  1  0.30998201  0.68972991  0.10281658  1
  Nb  Nb102  1  0.89799606  0.30193340  0.30853273  1
  Nb  Nb103  1  0.49867682  0.29839093  0.90301113  1
  Nb  Nb104  1  0.70328017  0.10446695  0.50438448  1
  Nb  Nb105  1  0.09933299  0.10136758  0.90208976  1
  Nb  Nb106  1  0.09878329  0.10009549  0.09407104  1
  Nb  Nb107  1  0.89820620  0.89872037  0.90395777  1
  Nb  Nb108  1  0.49904881  0.30573649  0.69997981  1
  Nb  Nb109  1  0.69814716  0.50174574  0.90091942  1
  Nb  Nb110  1  0.50307760  0.70336700  0.09746846  1
  Nb  Nb111  1  0.29697253  0.51326395  0.09174344  1
  Nb  Nb112  1  0.29251824  0.50777412  0.90340921  1
  Nb  Nb113  1  0.30744057  0.29925938  0.30072821  1
  Nb  Nb114  1  0.69420957  0.69463727  0.10068340  1
  Nb  Nb115  1  0.30095260  0.70113481  0.29900752  1
  Nb  Nb116  1  0.90263201  0.29977314  0.49110699  1
  Nb  Nb117  1  0.29806506  0.89694982  0.90300747  1
  Nb  Nb118  1  0.10680340  0.49840184  0.90090055  1
  Nb  Nb119  1  0.49842209  0.29739417  0.09275363  1
  Nb  Nb120  1  0.70705874  0.89390232  0.90440945  1
  Nb  Nb121  1  0.49983185  0.69269023  0.70533912  1
  Nb  Nb122  1  0.50057266  0.89484022  0.09974588  1
  Nb  Nb123  1  0.70476000  0.89445793  0.30217798  1
  Nb  Nb124  1  0.08794655  0.30737563  0.50004483  1
  Nb  Nb125  1  0.80384649  0.00331253  0.60265855  1
  Nb  Nb126  1  0.20272101  0.40762841  0.80826773  1
  Nb  Nb127  1  0.60197397  0.59870024  0.80336358  1
  Nb  Nb128  1  0.80121661  -0.00508462  0.80430927  1
  Nb  Nb129  1  0.79192774  0.79659666  0.20183671  1
  Nb  Nb130  1  -0.00227445  0.20329969  0.59203309  1
  Nb  Nb131  1  0.19730715  -0.00021201  0.80779935  1
  Nb  Nb132  1  0.59970038  0.79156476  0.80212493  1
  Nb  Nb133  1  0.60170749  0.60039028  0.19667777  1
  Nb  Nb134  1  0.40554725  0.20670915  0.79697859  1
  Nb  Nb135  1  0.20180844  0.59674467  0.59420950  1
  Nb  Nb136  1  0.40275872  0.79766118  0.80621816  1
  Nb  Nb137  1  0.40101344  -0.00714814  0.19569074  1
  Nb  Nb138  1  0.40230253  -0.00498788  0.00419727  1
  Nb  Nb139  1  0.40125426  0.79683852  0.19577166  1
  Nb  Nb140  1  0.00141704  0.80691286  0.59927226  1
  Nb  Nb141  1  0.79694073  0.40061587  0.20593610  1
  Nb  Nb142  1  0.59953093  -0.00515637  0.00292985  1
  Nb  Nb143  1  0.39554694  0.60357984  0.40028456  1
  Nb  Nb144  1  0.80468498  0.39401553  0.59363932  1
  Nb  Nb145  1  -0.00322834  0.00552039  0.60101053  1
  Nb  Nb146  1  0.40907700  0.20291455  0.60501902  1
  Nb  Nb147  1  0.00104526  0.00231503  -0.00511455  1
  Nb  Nb148  1  0.59580846  0.20263931  0.59890811  1
  Nb  Nb149  1  0.20830833  0.79079689  0.19837829  1
  Pd  Pd150  1  -0.00525138  0.79666608  0.19824687  1
  Pd  Pd151  1  0.40082420  0.00690699  0.59712826  1
  Pd  Pd152  1  0.39037362  0.00003600  0.80786927  1
  Pd  Pd153  1  0.60597144  0.00081103  0.39996336  1
  Pd  Pd154  1  0.19449142  0.00907648  0.60102747  1
  Pd  Pd155  1  0.39103225  0.39525784  0.80220260  1
  Pd  Pd156  1  0.39089629  0.40141555  0.19308632  1
  Pd  Pd157  1  0.59771631  0.40634664  0.00678341  1
  Pd  Pd158  1  0.40287855  -0.00847303  0.39544057  1
  Pd  Pd159  1  0.61064704  0.39226824  0.59293363  1
  Pd  Pd160  1  0.60051846  0.40312844  0.80037185  1
  Pd  Pd161  1  0.39306392  0.39113844  0.59651717  1
  Pd  Pd162  1  0.20156218  0.59783990  0.39984762  1
  Pd  Pd163  1  0.60496911  0.00414802  0.59640819  1
  Pd  Pd164  1  0.20272938  0.39675689  0.00143596  1
  Pd  Pd165  1  0.19530684  0.19885384  0.58889333  1
  Pd  Pd166  1  0.19524976  0.20878555  0.39720901  1
  Pd  Pd167  1  0.40175715  0.79782282  0.61024178  1
  Pd  Pd168  1  0.19765790  0.20721777  0.00183277  1
  Pd  Pd169  1  0.79939025  0.60103400  0.80500564  1
  Pd  Pd170  1  0.59619133  0.19388877  -0.00251444  1
  Pd  Pd171  1  0.81275363  0.80762432  0.59321006  1
  Pd  Pd172  1  0.79837767  0.21035951  0.20780141  1
  Pd  Pd173  1  0.20696757  0.39521793  0.19676089  1
  Pd  Pd174  1  0.00340044  0.00534507  0.40474072  1
  Pd  Pd175  1  0.79932381  0.00371520  -0.00513193  1
  Pd  Pd176  1  -0.00183286  -0.00009443  0.80081125  1
  Pd  Pd177  1  0.79722769  0.79695474  0.79959877  1
  Pd  Pd178  1  0.60048726  0.79122398  0.20665389  1
  Pd  Pd179  1  0.20987598  0.80205443  0.79504994  1
  Pd  Pd180  1  -0.00116087  -0.00064935  0.18975657  1
  Pd  Pd181  1  0.00013531  0.59251780  -0.00514659  1
  Pd  Pd182  1  0.00318952  0.59520529  0.39981301  1
  Pd  Pd183  1  0.80673841  0.79076342  0.39805205  1
  Pd  Pd184  1  0.60566236  0.40929030  0.18714946  1
  Pd  Pd185  1  0.19285006  0.60323687  0.19869267  1
  Pd  Pd186  1  0.19867649  0.00060001  0.39752506  1
  Pd  Pd187  1  0.39310661  0.40278820  0.00539988  1
  Pd  Pd188  1  0.19471070  0.78734624  0.00706622  1
  Pd  Pd189  1  0.59173913  0.59318105  0.39453712  1
  Pd  Pd190  1  -0.00285843  0.60293229  0.80590094  1
  Pd  Pd191  1  0.40735638  0.80251767  0.39548640  1
  Pd  Pd192  1  0.39792313  0.20936996  0.40905543  1
  Pd  Pd193  1  0.20101777  0.21034243  0.19853714  1
  Pd  Pd194  1  0.41321983  0.60523433  0.21334289  1
  Pd  Pd195  1  0.20028569  0.41071665  0.61344896  1
  Pd  Pd196  1  0.80113978  0.40429155  0.79704481  1
  Pd  Pd197  1  0.79806235  -0.00351363  0.20510782  1
  Pd  Pd198  1  0.19862437  0.39547074  0.38762601  1
  Pd  Pd199  1  -0.00124618  0.79074525  0.79399111  1
  Rh  Rh200  1  0.19458222  0.79087977  0.60114903  1
  Rh  Rh201  1  0.59790944  0.00258181  0.19860338  1
  Rh  Rh202  1  0.00998183  0.60987895  0.59812924  1
  Rh  Rh203  1  0.79519119  0.59834052  0.19887382  1
  Rh  Rh204  1  0.79784556  0.20495777  -0.00348856  1
  Rh  Rh205  1  0.80799830  0.59773998  -0.00133335  1
  Rh  Rh206  1  0.60607552  0.80367911  -0.00326274  1
  Rh  Rh207  1  0.19195942  0.60327592  0.00765497  1
  Rh  Rh208  1  0.60070255  0.19968876  0.40302602  1
  Rh  Rh209  1  0.60188323  0.40506585  0.40330890  1
  Rh  Rh210  1  0.79783373  0.79306991  0.01228113  1
  Rh  Rh211  1  0.00406172  0.80388623  0.00381417  1
  Rh  Rh212  1  0.59419697  0.58959173  0.00239196  1
  Rh  Rh213  1  0.19623719  0.00315030  -0.00856908  1
  Rh  Rh214  1  0.80281193  0.59690025  0.40299216  1
  Rh  Rh215  1  -0.00259028  0.20398953  0.19922755  1
  Rh  Rh216  1  0.40411468  0.59721702  -0.00462446  1
  Rh  Rh217  1  0.00598267  0.40330275  0.80376906  1
  Rh  Rh218  1  0.60363142  0.80070614  0.40582615  1
  Rh  Rh219  1  0.80141166  0.40120887  0.00440874  1
  Rh  Rh220  1  0.40702050  0.60627815  0.81134385  1
  Rh  Rh221  1  -0.00000727  0.40487107  -0.00105605  1
  Rh  Rh222  1  0.59178144  0.21288283  0.79642399  1
  Rh  Rh223  1  0.61129306  -0.01495821  0.81005950  1
  Rh  Rh224  1  0.39315350  0.40180771  0.39475457  1
  Rh  Rh225  1  0.00160667  0.19690161  0.00486159  1
  Rh  Rh226  1  -0.00708017  0.39323335  0.60416216  1
  Rh  Rh227  1  0.80215750  0.40545086  0.39765350  1
  Rh  Rh228  1  0.19520911  0.80305719  0.39123114  1
  Rh  Rh229  1  0.20688910  0.20479403  0.81362214  1
  Rh  Rh230  1  0.38988885  0.60891567  0.58913429  1
  Rh  Rh231  1  0.80253318  0.20277126  0.59816925  1
  Rh  Rh232  1  -0.00007731  0.20837719  0.79662504  1
  Rh  Rh233  1  0.79911011  0.58729434  0.59304039  1
  Rh  Rh234  1  0.20137851  -0.00516514  0.20007829  1
  Rh  Rh235  1  0.79540976  0.19584981  0.38863116  1
  Rh  Rh236  1  0.40621524  0.19232166  -0.00351752  1
  Rh  Rh237  1  0.00493890  0.20013604  0.39936670  1
  Rh  Rh238  1  0.60331820  0.59901343  0.60423632  1
  Rh  Rh239  1  0.79324029  0.00712395  0.40107968  1
  Rh  Rh240  1  0.00109350  0.40276318  0.39151753  1
  Rh  Rh241  1  -0.00217473  0.79910139  0.40709011  1
  Rh  Rh242  1  0.20086277  0.59059986  0.78971601  1
  Rh  Rh243  1  0.59579307  0.79924883  0.60514427  1
  Rh  Rh244  1  0.00370093  0.59539172  0.20148593  1
  Rh  Rh245  1  0.39643011  0.79867842  0.00020263  1
  Rh  Rh246  1  0.79984894  0.20091316  0.80973362  1
  Rh  Rh247  1  0.39503741  0.19546465  0.19390791  1
  Rh  Rh248  1  0.60150581  0.20228397  0.19984974  1
  Rh  Rh249  1  -0.01432776  0.39653678  0.20452218  1
