# generated using pymatgen
data_ZrScNbPdRh
_symmetry_space_group_name_H-M   'P 1'
_cell_length_a   16.55347504
_cell_length_b   16.55247147
_cell_length_c   16.55279107
_cell_angle_alpha   90.01540094
_cell_angle_beta   89.97837690
_cell_angle_gamma   89.97899686
_symmetry_Int_Tables_number   1
_chemical_formula_structural   ZrScNbPdRh
_chemical_formula_sum   'Zr50 Sc50 Nb50 Pd50 Rh50'
_cell_volume   4535.47924324
_cell_formula_units_Z   50
loop_
 _symmetry_equiv_pos_site_id
 _symmetry_equiv_pos_as_xyz
  1  'x, y, z'
loop_
 _atom_site_type_symbol
 _atom_site_label
 _atom_site_symmetry_multiplicity
 _atom_site_fract_x
 _atom_site_fract_y
 _atom_site_fract_z
 _atom_site_occupancy
  Zr  Zr0  1  0.50426328  0.50616440  0.69845339  1
  Zr  Zr1  1  0.70040484  0.49892648  0.89426108  1
  Zr  Zr2  1  0.91064314  0.49250334  0.89767041  1
  Zr  Zr3  1  0.90990702  0.89722119  0.09472760  1
  Zr  Zr4  1  0.08720730  0.90269695  0.50090601  1
  Zr  Zr5  1  0.28970987  0.89449791  0.50120743  1
  Zr  Zr6  1  0.71126479  0.30100181  0.10246355  1
  Zr  Zr7  1  0.69793011  0.09121358  0.69912937  1
  Zr  Zr8  1  0.10222433  0.10524226  0.89421233  1
  Zr  Zr9  1  0.69853438  0.69243508  0.10694979  1
  Zr  Zr10  1  0.50370227  0.90550835  0.10182082  1
  Zr  Zr11  1  0.30788926  0.89875858  0.31051712  1
  Zr  Zr12  1  0.30295447  0.10385727  0.29844067  1
  Zr  Zr13  1  0.70019994  0.70625319  0.30120804  1
  Zr  Zr14  1  0.89383294  0.89798302  0.69522069  1
  Zr  Zr15  1  0.48536478  0.89712309  0.49980691  1
  Zr  Zr16  1  0.09614334  0.30664786  0.29722438  1
  Zr  Zr17  1  0.70510005  0.09825073  0.09768284  1
  Zr  Zr18  1  0.89029519  0.69398546  0.70102108  1
  Zr  Zr19  1  0.69246149  0.69935911  0.69775356  1
  Zr  Zr20  1  0.90567627  0.30091776  0.71032361  1
  Zr  Zr21  1  0.90047412  0.50138900  0.50444691  1
  Zr  Zr22  1  0.30084825  0.70198496  0.49197949  1
  Zr  Zr23  1  0.29645908  0.30639557  0.50909330  1
  Zr  Zr24  1  0.29934300  0.29497115  0.90156479  1
  Zr  Zr25  1  0.11091505  0.69075074  0.89875590  1
  Zr  Zr26  1  0.50368892  0.30598776  0.08966542  1
  Zr  Zr27  1  0.49775305  0.69277129  0.50702538  1
  Zr  Zr28  1  0.69688825  0.49489867  0.09865857  1
  Zr  Zr29  1  0.29518151  0.10669055  0.09284447  1
  Zr  Zr30  1  0.89971621  0.49634193  0.09636967  1
  Zr  Zr31  1  0.50938964  0.49251256  0.90108570  1
  Zr  Zr32  1  0.50064348  0.09840892  0.69414780  1
  Zr  Zr33  1  0.29050577  0.10309681  0.70297930  1
  Zr  Zr34  1  0.30202050  0.50474820  0.49823086  1
  Zr  Zr35  1  0.49801626  0.49904881  0.49702168  1
  Zr  Zr36  1  0.50211592  0.10292780  0.89989905  1
  Zr  Zr37  1  0.09563320  0.49830907  0.50102293  1
  Zr  Zr38  1  0.90281083  0.10342564  0.90231941  1
  Zr  Zr39  1  0.69819083  0.49712624  0.29911208  1
  Zr  Zr40  1  0.50079213  0.10133807  0.50314407  1
  Zr  Zr41  1  0.10048600  0.89303165  0.91207040  1
  Zr  Zr42  1  0.30805128  0.87779281  0.90057807  1
  Zr  Zr43  1  0.10121688  0.30411510  0.50180695  1
  Zr  Zr44  1  0.69684864  0.70056291  0.49509509  1
  Zr  Zr45  1  0.29567158  0.51290025  0.90457288  1
  Zr  Zr46  1  0.10160444  0.90783614  0.69161329  1
  Zr  Zr47  1  0.70815712  0.10196776  0.29282617  1
  Zr  Zr48  1  0.90349385  0.29486913  0.90782489  1
  Zr  Zr49  1  0.09359735  0.50155970  0.09922170  1
  Sc  Sc50  1  0.29479407  0.89876031  0.69564947  1
  Sc  Sc51  1  0.49898165  0.50457000  0.10421919  1
  Sc  Sc52  1  0.70258194  0.30329584  0.49360990  1
  Sc  Sc53  1  0.29781320  0.29735912  0.69694040  1
  Sc  Sc54  1  0.70005895  0.09751301  0.50907520  1
  Sc  Sc55  1  0.89686983  0.08982380  0.49906709  1
  Sc  Sc56  1  0.10606006  0.29929396  0.69870254  1
  Sc  Sc57  1  0.50496792  0.69341265  0.30482996  1
  Sc  Sc58  1  0.48754213  0.70863284  0.90543544  1
  Sc  Sc59  1  0.50853782  0.89775129  0.89714868  1
  Sc  Sc60  1  0.89471903  0.10381299  0.09721330  1
  Sc  Sc61  1  0.49914182  0.29812138  0.29753473  1
  Sc  Sc62  1  0.31157607  0.69892393  0.08472574  1
  Sc  Sc63  1  0.49038357  0.09610208  0.29396903  1
  Sc  Sc64  1  0.09165275  0.69884324  0.09610524  1
  Sc  Sc65  1  0.10174553  0.09349789  0.09551931  1
  Sc  Sc66  1  0.09070695  0.29744175  0.89871488  1
  Sc  Sc67  1  0.70731450  0.69840398  0.89583216  1
  Sc  Sc68  1  0.89797150  0.09221325  0.71250984  1
  Sc  Sc69  1  0.70049730  0.49182890  0.49260067  1
  Sc  Sc70  1  0.29518798  0.10884806  0.89475335  1
  Sc  Sc71  1  0.50752908  0.10436446  0.10143748  1
  Sc  Sc72  1  0.09533971  0.70478473  0.49805289  1
  Sc  Sc73  1  0.70577015  0.09398308  0.90376172  1
  Sc  Sc74  1  0.70734553  0.30490568  0.30222897  1
  Sc  Sc75  1  0.49515302  0.29510399  0.69471272  1
  Sc  Sc76  1  0.69952250  0.88967868  0.50785542  1
  Sc  Sc77  1  0.70083883  0.30292169  0.70527197  1
  Sc  Sc78  1  0.89922564  0.90239665  0.89931137  1
  Sc  Sc79  1  0.90118433  0.70851833  0.50203515  1
  Sc  Sc80  1  0.29105539  0.70789841  0.70322575  1
  Sc  Sc81  1  0.90550936  0.50028546  0.30088600  1
  Sc  Sc82  1  0.09270988  0.70491104  0.70129169  1
  Sc  Sc83  1  0.30296716  0.30935822  0.10348010  1
  Sc  Sc84  1  0.89921716  0.09945329  0.29100016  1
  Sc  Sc85  1  0.09412798  0.69349977  0.30545492  1
  Sc  Sc86  1  0.90397170  0.70833625  0.90100476  1
  Sc  Sc87  1  0.50083517  0.29505362  0.50594204  1
  Sc  Sc88  1  0.90376162  0.69705040  0.10311070  1
  Sc  Sc89  1  0.69908865  0.30677593  0.90309746  1
  Sc  Sc90  1  0.89735171  0.31056466  0.49511519  1
  Sc  Sc91  1  0.70096710  0.90533933  0.90303779  1
  Sc  Sc92  1  0.09850347  0.49987712  0.30325546  1
  Sc  Sc93  1  0.90086095  0.69954046  0.29891817  1
  Sc  Sc94  1  0.70769621  0.90613869  0.10546729  1
  Sc  Sc95  1  0.90386294  0.89723853  0.29421730  1
  Sc  Sc96  1  0.29398537  0.89814115  0.09268213  1
  Sc  Sc97  1  0.30351587  0.49703574  0.68804329  1
  Sc  Sc98  1  0.30576280  0.09858848  0.50364482  1
  Sc  Sc99  1  0.50113379  0.50158817  0.29825935  1
  Nb  Nb100  1  0.89817446  0.29595399  0.29752984  1
  Nb  Nb101  1  0.69063696  0.90241370  0.70525174  1
  Nb  Nb102  1  0.10331194  0.10050901  0.69516638  1
  Nb  Nb103  1  0.50681523  0.89421426  0.70407007  1
  Nb  Nb104  1  0.30003103  0.69946143  0.89450529  1
  Nb  Nb105  1  0.09958909  0.30238309  0.10083868  1
  Nb  Nb106  1  0.30356842  0.49929605  0.10968032  1
  Nb  Nb107  1  0.49818280  0.90267060  0.30087190  1
  Nb  Nb108  1  0.49809207  0.29969607  0.89366463  1
  Nb  Nb109  1  0.29625631  0.30629575  0.29822713  1
  Nb  Nb110  1  0.70268384  0.50307104  0.70947916  1
  Nb  Nb111  1  0.09787480  0.09979877  0.49983330  1
  Nb  Nb112  1  0.10540181  0.89497829  0.10385326  1
  Nb  Nb113  1  0.90707468  0.30129013  0.09851264  1
  Nb  Nb114  1  0.49939372  0.70130058  0.69874864  1
  Nb  Nb115  1  0.30489834  0.49822977  0.29064954  1
  Nb  Nb116  1  0.69986974  0.89850089  0.30430613  1
  Nb  Nb117  1  0.10165027  0.10051722  0.29936216  1
  Nb  Nb118  1  0.30192484  0.69727683  0.30058846  1
  Nb  Nb119  1  0.89779314  0.50059972  0.70090887  1
  Nb  Nb120  1  0.09396060  0.50670743  0.70798594  1
  Nb  Nb121  1  0.10239286  0.91014702  0.29025356  1
  Nb  Nb122  1  0.50374048  0.70132867  0.10587935  1
  Nb  Nb123  1  0.10207548  0.50294134  0.89966276  1
  Nb  Nb124  1  0.89426625  0.89911972  0.49775115  1
  Nb  Nb125  1  0.40196556  -0.00370218  0.79990564  1
  Nb  Nb126  1  0.19693249  0.19978198  0.39655394  1
  Nb  Nb127  1  0.19069470  0.00495607  0.39759946  1
  Nb  Nb128  1  0.39263842  0.39980157  0.39616133  1
  Nb  Nb129  1  0.19946560  0.40926196  0.80569106  1
  Nb  Nb130  1  0.40072919  0.79823794  0.20392834  1
  Nb  Nb131  1  0.19661108  0.40599043  -0.00013534  1
  Nb  Nb132  1  0.60123561  -0.00352582  0.39593309  1
  Nb  Nb133  1  0.60277975  0.40539343  0.60575407  1
  Nb  Nb134  1  0.80730560  0.20104602  0.60390387  1
  Nb  Nb135  1  0.40056424  0.00101411  -0.00722329  1
  Nb  Nb136  1  0.80116360  0.59344725  -0.00128253  1
  Nb  Nb137  1  0.59714668  0.19876126  0.80005187  1
  Nb  Nb138  1  0.39865478  0.60256575  0.79891897  1
  Nb  Nb139  1  -0.00101975  0.19494147  0.59776208  1
  Nb  Nb140  1  0.39815371  0.40302142  0.80292506  1
  Nb  Nb141  1  0.79471675  -0.00914623  0.39871281  1
  Nb  Nb142  1  0.20290165  0.79633951  0.20317507  1
  Nb  Nb143  1  0.20939346  0.60205039  0.20074987  1
  Nb  Nb144  1  0.60166927  0.79613933  0.00969655  1
  Nb  Nb145  1  0.19550556  0.59921206  0.59862959  1
  Nb  Nb146  1  0.19676111  0.20528637  0.20431770  1
  Nb  Nb147  1  0.00281048  0.19721208  0.39993059  1
  Nb  Nb148  1  0.79801890  0.60234921  0.40016057  1
  Nb  Nb149  1  0.60189758  0.19030038  0.39881093  1
  Pd  Pd150  1  0.60205804  0.20356826  0.20609191  1
  Pd  Pd151  1  0.39441116  0.40655717  -0.00270788  1
  Pd  Pd152  1  0.19060736  0.80526345  0.79640980  1
  Pd  Pd153  1  -0.00605196  0.40273462  0.20289426  1
  Pd  Pd154  1  0.59617105  0.80330856  0.19999509  1
  Pd  Pd155  1  0.80386237  0.39894033  0.80365011  1
  Pd  Pd156  1  0.59839293  -0.01267109  0.59083405  1
  Pd  Pd157  1  0.59003406  0.61313070  0.81025054  1
  Pd  Pd158  1  0.79058331  0.19823031  0.79983982  1
  Pd  Pd159  1  0.59606632  0.39659402  0.20067503  1
  Pd  Pd160  1  0.00167305  0.39580967  0.60860433  1
  Pd  Pd161  1  0.79345180  0.80550256  0.79939082  1
  Pd  Pd162  1  0.61117452  0.59149876  0.59500969  1
  Pd  Pd163  1  0.00010552  0.80490183  0.39224215  1
  Pd  Pd164  1  0.80204060  0.19100201  0.40807635  1
  Pd  Pd165  1  -0.00299817  0.00546511  0.19158510  1
  Pd  Pd166  1  0.19921040  0.59666388  0.39801669  1
  Pd  Pd167  1  0.79522483  0.79432149  0.00630583  1
  Pd  Pd168  1  0.60266147  0.79254528  0.81066392  1
  Pd  Pd169  1  0.20751309  -0.00215038  -0.01148895  1
  Pd  Pd170  1  0.60318800  0.00238344  0.20608731  1
  Pd  Pd171  1  0.60114668  0.60794882  -0.00630824  1
  Pd  Pd172  1  0.18561235  0.80611734  0.39152091  1
  Pd  Pd173  1  0.00168772  0.00429337  0.00132907  1
  Pd  Pd174  1  0.59024664  0.80481671  0.40469777  1
  Pd  Pd175  1  0.79442846  0.79924446  0.60389048  1
  Pd  Pd176  1  0.00284649  0.80504534  0.79827835  1
  Pd  Pd177  1  0.60855946  0.20348637  -0.00688882  1
  Pd  Pd178  1  0.40021100  0.20868684  0.40258979  1
  Pd  Pd179  1  0.39340520  -0.00287783  0.60809698  1
  Pd  Pd180  1  -0.00940910  0.00655873  0.60380242  1
  Pd  Pd181  1  0.20694998  -0.01095147  0.80992402  1
  Pd  Pd182  1  -0.00604741  0.00313715  0.39340787  1
  Pd  Pd183  1  0.00398385  -0.00436364  0.80177860  1
  Pd  Pd184  1  0.79153108  0.59584624  0.59436683  1
  Pd  Pd185  1  0.20038236  0.60152595  0.01408424  1
  Pd  Pd186  1  0.80376435  0.59506504  0.20233305  1
  Pd  Pd187  1  0.79411388  0.39755888  0.60625693  1
  Pd  Pd188  1  0.20904914  -0.00051512  0.20116204  1
  Pd  Pd189  1  0.00901547  0.79555929  0.20400475  1
  Pd  Pd190  1  0.40256463  0.19789689  0.00447065  1
  Pd  Pd191  1  0.40863892  0.59634429  -0.00170064  1
  Pd  Pd192  1  0.20425383  0.40393258  0.39691425  1
  Pd  Pd193  1  0.39614610  0.79716452  0.60646514  1
  Pd  Pd194  1  0.39025606  -0.00542847  0.18856663  1
  Pd  Pd195  1  0.39672726  0.20785059  0.19133095  1
  Pd  Pd196  1  0.00345666  0.60643396  0.59997160  1
  Pd  Pd197  1  0.80410908  0.80331641  0.19653317  1
  Pd  Pd198  1  0.00335307  0.19594766  0.19702822  1
  Pd  Pd199  1  -0.00697114  0.60583505  0.80422809  1
  Rh  Rh200  1  0.80679456  0.80032573  0.39824794  1
  Rh  Rh201  1  0.60718297  0.59835022  0.39741564  1
  Rh  Rh202  1  0.59586285  0.00556154  0.80011902  1
  Rh  Rh203  1  0.18762480  0.41399673  0.61224146  1
  Rh  Rh204  1  0.00514023  0.19556487  0.00703141  1
  Rh  Rh205  1  0.19407517  0.21197099  0.00820000  1
  Rh  Rh206  1  0.40541437  0.19822240  0.79257980  1
  Rh  Rh207  1  0.59160612  0.38979504  0.79005043  1
  Rh  Rh208  1  0.80791166  0.40852014  0.39161809  1
  Rh  Rh209  1  0.19205454  0.79348939  0.59706754  1
  Rh  Rh210  1  0.20703818  0.59548190  0.78635871  1
  Rh  Rh211  1  0.79789478  -0.00654549  0.80283897  1
  Rh  Rh212  1  -0.00860882  0.60358133  -0.00663836  1
  Rh  Rh213  1  0.40113308  0.59463733  0.39288499  1
  Rh  Rh214  1  -0.00546628  0.80174328  0.60401995  1
  Rh  Rh215  1  0.00680491  0.59852434  0.20265038  1
  Rh  Rh216  1  0.80014106  -0.00210747  0.59876355  1
  Rh  Rh217  1  0.19586303  0.78842200  0.00764515  1
  Rh  Rh218  1  0.41108774  0.80727952  0.01147007  1
  Rh  Rh219  1  0.80808334  0.39666582  0.20317353  1
  Rh  Rh220  1  0.80807639  -0.00272319  0.00060451  1
  Rh  Rh221  1  0.59883443  0.59613849  0.20503664  1
  Rh  Rh222  1  -0.00636916  0.39507864  0.39652674  1
  Rh  Rh223  1  0.79950008  0.20279191  0.00027458  1
  Rh  Rh224  1  0.40891077  0.79011414  0.39522013  1
  Rh  Rh225  1  0.80707069  -0.00694393  0.20307072  1
  Rh  Rh226  1  0.38736500  0.61485320  0.61044758  1
  Rh  Rh227  1  0.80663279  0.20621281  0.19471461  1
  Rh  Rh228  1  0.19674692  0.19341012  0.59370373  1
  Rh  Rh229  1  0.59895019  -0.00569313  0.00129963  1
  Rh  Rh230  1  0.40444425  0.79895630  0.78969335  1
  Rh  Rh231  1  0.00698841  0.19423092  0.78985840  1
  Rh  Rh232  1  0.41046011  0.39714111  0.59769036  1
  Rh  Rh233  1  0.00266131  0.79669420  -0.00067294  1
  Rh  Rh234  1  0.38910039  0.19833518  0.60207137  1
  Rh  Rh235  1  0.60329492  0.39646157  0.00149300  1
  Rh  Rh236  1  0.80933523  0.59533824  0.80757925  1
  Rh  Rh237  1  0.39876822  0.60912555  0.20026822  1
  Rh  Rh238  1  0.80197355  0.40181109  -0.00238350  1
  Rh  Rh239  1  -0.01143707  0.60056454  0.40510702  1
  Rh  Rh240  1  0.19334470  0.21065693  0.79915908  1
  Rh  Rh241  1  0.40858391  0.39610586  0.20376432  1
  Rh  Rh242  1  0.58628192  0.38756647  0.40667883  1
  Rh  Rh243  1  0.19737926  0.40372609  0.19209673  1
  Rh  Rh244  1  0.61675050  0.21285581  0.60040515  1
  Rh  Rh245  1  0.40044376  0.00371717  0.40386043  1
  Rh  Rh246  1  0.20154226  0.00308647  0.58967880  1
  Rh  Rh247  1  0.00742135  0.40060472  0.79665854  1
  Rh  Rh248  1  0.59532103  0.80196591  0.59979262  1
  Rh  Rh249  1  0.00811873  0.39573525  -0.00014455  1
