# generated using pymatgen
data_ZrScNbPdRh
_symmetry_space_group_name_H-M   'P 1'
_cell_length_a   16.55563445
_cell_length_b   16.55616931
_cell_length_c   16.55448117
_cell_angle_alpha   89.96987405
_cell_angle_beta   89.97652391
_cell_angle_gamma   89.98354329
_symmetry_Int_Tables_number   1
_chemical_formula_structural   ZrScNbPdRh
_chemical_formula_sum   'Zr50 Sc50 Nb50 Pd50 Rh50'
_cell_volume   4537.54711705
_cell_formula_units_Z   50
loop_
 _symmetry_equiv_pos_site_id
 _symmetry_equiv_pos_as_xyz
  1  'x, y, z'
loop_
 _atom_site_type_symbol
 _atom_site_label
 _atom_site_symmetry_multiplicity
 _atom_site_fract_x
 _atom_site_fract_y
 _atom_site_fract_z
 _atom_site_occupancy
  Zr  Zr0  1  0.30244961  0.10011016  0.29950921  1
  Zr  Zr1  1  0.89725445  0.50657143  0.09270639  1
  Zr  Zr2  1  0.09623035  0.70654612  0.49994356  1
  Zr  Zr3  1  0.69060326  0.89587092  0.89647046  1
  Zr  Zr4  1  0.70008780  0.10759678  0.49945914  1
  Zr  Zr5  1  0.09604224  0.30126148  0.69826220  1
  Zr  Zr6  1  0.09949823  0.09722390  0.89876179  1
  Zr  Zr7  1  0.10270282  0.11257758  0.70036462  1
  Zr  Zr8  1  0.69383388  0.09381930  0.89979887  1
  Zr  Zr9  1  0.09242574  0.10395579  0.09379012  1
  Zr  Zr10  1  0.50174679  0.69854256  0.50215409  1
  Zr  Zr11  1  0.69591448  0.70124747  0.50427751  1
  Zr  Zr12  1  0.89647127  0.10009765  0.30240451  1
  Zr  Zr13  1  0.10006944  0.30352954  0.50736465  1
  Zr  Zr14  1  0.90607594  0.70283113  0.30439527  1
  Zr  Zr15  1  0.69826934  0.69440138  0.89964742  1
  Zr  Zr16  1  0.50579052  0.10065561  0.29455158  1
  Zr  Zr17  1  0.31515753  0.90375311  0.69736110  1
  Zr  Zr18  1  0.69372031  0.49066927  0.30746479  1
  Zr  Zr19  1  0.09813055  0.10101568  0.30207542  1
  Zr  Zr20  1  0.69656883  0.90354027  0.29192177  1
  Zr  Zr21  1  0.30533697  0.09285030  0.09685452  1
  Zr  Zr22  1  0.90227843  0.69852910  0.50506029  1
  Zr  Zr23  1  0.49954820  0.90579948  0.89684942  1
  Zr  Zr24  1  0.69114936  0.69575931  0.09889292  1
  Zr  Zr25  1  0.10130948  0.30349468  0.89923767  1
  Zr  Zr26  1  0.90346865  0.50872406  0.29567125  1
  Zr  Zr27  1  0.89966189  0.89919015  0.69792876  1
  Zr  Zr28  1  0.69651169  0.09896869  0.10563831  1
  Zr  Zr29  1  0.30054362  0.69329842  0.70219128  1
  Zr  Zr30  1  0.09525395  0.69857845  0.89327298  1
  Zr  Zr31  1  0.70734524  0.49350127  0.50514547  1
  Zr  Zr32  1  0.30718192  0.70040704  0.10491629  1
  Zr  Zr33  1  0.30635598  0.69127716  0.49830741  1
  Zr  Zr34  1  0.30566916  0.50358994  0.69498366  1
  Zr  Zr35  1  0.10875720  0.90445652  0.09314901  1
  Zr  Zr36  1  0.50391860  0.30479761  0.29683949  1
  Zr  Zr37  1  0.90278027  0.09923652  0.90409079  1
  Zr  Zr38  1  0.50133740  0.50229545  0.10170689  1
  Zr  Zr39  1  0.89923047  0.10264368  0.10013750  1
  Zr  Zr40  1  0.89831751  0.29498807  0.29939907  1
  Zr  Zr41  1  0.70628936  0.49924073  0.89800730  1
  Zr  Zr42  1  0.49726037  0.89293184  0.50826483  1
  Zr  Zr43  1  0.70115863  0.30087925  0.90073928  1
  Zr  Zr44  1  0.29814754  0.10664989  0.70288817  1
  Zr  Zr45  1  0.49958192  0.10227277  0.10113749  1
  Zr  Zr46  1  0.30554875  0.10587063  0.50493287  1
  Zr  Zr47  1  0.29780352  0.89662112  0.30173950  1
  Zr  Zr48  1  0.30131525  0.90621070  0.90979758  1
  Zr  Zr49  1  0.09804584  0.90179347  0.90036106  1
  Sc  Sc50  1  0.30299304  0.70032195  0.30192047  1
  Sc  Sc51  1  0.09441920  0.50509162  0.90327890  1
  Sc  Sc52  1  0.30495456  0.50195974  0.90016623  1
  Sc  Sc53  1  0.30019538  0.30966730  0.09846062  1
  Sc  Sc54  1  0.10884229  0.50277777  0.50241651  1
  Sc  Sc55  1  0.10555452  0.89679381  0.31652863  1
  Sc  Sc56  1  0.91318515  0.90269182  0.89339111  1
  Sc  Sc57  1  0.30412857  0.30686871  0.89841765  1
  Sc  Sc58  1  0.69548779  0.90407965  0.70290103  1
  Sc  Sc59  1  0.50148708  0.89435059  0.70073804  1
  Sc  Sc60  1  0.89494489  0.30089371  0.50646463  1
  Sc  Sc61  1  0.09683143  0.09834425  0.49278887  1
  Sc  Sc62  1  0.90291139  0.89095031  0.10952626  1
  Sc  Sc63  1  0.89322927  0.09692882  0.49527483  1
  Sc  Sc64  1  0.49649958  0.70308731  0.69804207  1
  Sc  Sc65  1  0.49608649  0.49937735  0.49768585  1
  Sc  Sc66  1  0.69240494  0.69959022  0.70399767  1
  Sc  Sc67  1  0.09797263  0.69286980  0.69913927  1
  Sc  Sc68  1  0.48516750  0.10073684  0.69604937  1
  Sc  Sc69  1  0.69634927  0.71000946  0.30692253  1
  Sc  Sc70  1  0.69673143  0.29698957  0.09283340  1
  Sc  Sc71  1  0.89239389  0.30336315  0.89982789  1
  Sc  Sc72  1  0.70113700  0.30044668  0.49431356  1
  Sc  Sc73  1  0.29762942  0.29666447  0.69622243  1
  Sc  Sc74  1  0.50228179  0.29421873  0.50154121  1
  Sc  Sc75  1  0.50072163  0.89861968  0.10606332  1
  Sc  Sc76  1  0.08504361  0.89725591  0.70067824  1
  Sc  Sc77  1  0.30941100  0.10214867  0.89855368  1
  Sc  Sc78  1  0.50315786  0.69712925  0.90389558  1
  Sc  Sc79  1  0.29683319  0.29793822  0.29453068  1
  Sc  Sc80  1  0.30793245  0.69569275  0.90118859  1
  Sc  Sc81  1  0.31022628  0.49472688  0.10094888  1
  Sc  Sc82  1  0.89110367  0.89878126  0.30854979  1
  Sc  Sc83  1  0.50340998  0.89717236  0.29580529  1
  Sc  Sc84  1  0.49932173  0.69678316  0.29988917  1
  Sc  Sc85  1  0.90658645  0.90313665  0.49751378  1
  Sc  Sc86  1  0.89752369  0.09687988  0.69249684  1
  Sc  Sc87  1  0.10371385  0.29290376  0.29573386  1
  Sc  Sc88  1  0.49935651  0.30919047  0.90344353  1
  Sc  Sc89  1  0.69941917  0.30670708  0.68814930  1
  Sc  Sc90  1  0.91112211  0.69076924  0.69652922  1
  Sc  Sc91  1  0.30633991  0.89396704  0.10299705  1
  Sc  Sc92  1  0.49742202  0.50022413  0.29675965  1
  Sc  Sc93  1  0.10086676  0.71348540  0.10532875  1
  Sc  Sc94  1  0.10159337  0.69999895  0.30561197  1
  Sc  Sc95  1  0.89934175  0.28990245  0.09322727  1
  Sc  Sc96  1  0.89950274  0.69533664  0.10709076  1
  Sc  Sc97  1  0.49987302  0.30716770  0.09949438  1
  Sc  Sc98  1  0.10364709  0.48686595  0.09166996  1
  Sc  Sc99  1  0.69960981  0.89529951  0.48815898  1
  Nb  Nb100  1  0.70115906  0.10108783  0.30033354  1
  Nb  Nb101  1  0.49949757  0.10103224  0.90131249  1
  Nb  Nb102  1  0.70027578  0.89471535  0.09950148  1
  Nb  Nb103  1  0.10062371  0.49904249  0.30007597  1
  Nb  Nb104  1  0.69996930  0.29948570  0.30184104  1
  Nb  Nb105  1  0.09735665  0.50350075  0.70472016  1
  Nb  Nb106  1  0.70291528  0.50150689  0.09975416  1
  Nb  Nb107  1  0.09988342  0.29951240  0.09531378  1
  Nb  Nb108  1  0.89537689  0.49623010  0.69033268  1
  Nb  Nb109  1  0.90013385  0.50187461  0.50776458  1
  Nb  Nb110  1  0.89876841  0.69220840  0.90191448  1
  Nb  Nb111  1  0.29807763  0.89995411  0.49708041  1
  Nb  Nb112  1  0.49890767  0.49296464  0.89813853  1
  Nb  Nb113  1  0.49921009  0.31054637  0.70696281  1
  Nb  Nb114  1  0.29407865  0.50266474  0.30714763  1
  Nb  Nb115  1  0.50274834  0.48880115  0.70425744  1
  Nb  Nb116  1  0.29613399  0.30621689  0.50022699  1
  Nb  Nb117  1  0.89638651  0.50792855  0.89334595  1
  Nb  Nb118  1  0.70096452  0.10300473  0.69774573  1
  Nb  Nb119  1  0.10743243  0.90100272  0.49965868  1
  Nb  Nb120  1  0.90000809  0.30314810  0.69910279  1
  Nb  Nb121  1  0.70470098  0.50038383  0.69919664  1
  Nb  Nb122  1  0.50017875  0.09783963  0.49680235  1
  Nb  Nb123  1  0.49387149  0.69198245  0.10769599  1
  Nb  Nb124  1  0.30157837  0.50141422  0.49476597  1
  Nb  Nb125  1  0.38893267  0.39926482  0.40279109  1
  Nb  Nb126  1  -0.00236844  0.39843341  0.20026179  1
  Nb  Nb127  1  0.40310414  0.00168402  0.40521390  1
  Nb  Nb128  1  0.59790537  0.00852395  0.59499547  1
  Nb  Nb129  1  0.20262793  0.60211033  0.00714949  1
  Nb  Nb130  1  0.79795146  0.79908508  -0.00515786  1
  Nb  Nb131  1  0.20115925  -0.00369510  0.79385534  1
  Nb  Nb132  1  0.20082223  0.59300725  0.20071623  1
  Nb  Nb133  1  0.19734752  0.20263649  0.00053248  1
  Nb  Nb134  1  0.60026184  0.58648335  0.60823292  1
  Nb  Nb135  1  0.79901468  0.40206097  0.19894713  1
  Nb  Nb136  1  0.80537411  0.79504018  0.80278422  1
  Nb  Nb137  1  0.20103054  -0.00465254  0.59959192  1
  Nb  Nb138  1  -0.00675518  0.40793314  0.79441508  1
  Nb  Nb139  1  0.20343852  0.80609406  0.60041005  1
  Nb  Nb140  1  0.80260716  0.59750601  0.40501460  1
  Nb  Nb141  1  0.20282083  0.80472778  0.79608331  1
  Nb  Nb142  1  0.79511846  -0.01065811  0.00331106  1
  Nb  Nb143  1  0.79264464  0.19826285  0.79332419  1
  Nb  Nb144  1  0.19336456  0.40764748  0.79456042  1
  Nb  Nb145  1  0.00522722  0.00178421  0.20438883  1
  Nb  Nb146  1  0.80163912  0.79913161  0.60533080  1
  Nb  Nb147  1  0.00089222  0.40556149  0.39755336  1
  Nb  Nb148  1  0.19681643  0.00121950  0.20079143  1
  Nb  Nb149  1  0.59760857  0.20015733  0.79508799  1
  Pd  Pd150  1  0.01664831  0.59438075  0.18813253  1
  Pd  Pd151  1  0.40486137  0.21080411  0.60114424  1
  Pd  Pd152  1  0.59458842  0.59133471  -0.00373031  1
  Pd  Pd153  1  0.81146749  0.40350550  0.39678287  1
  Pd  Pd154  1  0.40114539  0.39576952  0.59418946  1
  Pd  Pd155  1  -0.01229930  0.20485321  0.80275846  1
  Pd  Pd156  1  0.19674376  0.40348943  0.19998163  1
  Pd  Pd157  1  0.20033203  0.20174838  0.40564186  1
  Pd  Pd158  1  0.40024722  0.20462524  0.39836098  1
  Pd  Pd159  1  0.59694113  0.40180705  0.59337001  1
  Pd  Pd160  1  0.80628529  -0.00300514  0.19694209  1
  Pd  Pd161  1  -0.00917870  0.79806080  -0.00048092  1
  Pd  Pd162  1  0.79212453  0.20728976  0.19877948  1
  Pd  Pd163  1  0.40715482  0.20963852  0.80406352  1
  Pd  Pd164  1  0.59211919  0.19745063  0.60793963  1
  Pd  Pd165  1  0.80392787  0.60539680  0.78841417  1
  Pd  Pd166  1  0.59746010  -0.00401745  0.00867583  1
  Pd  Pd167  1  0.59370205  0.79784795  0.00520409  1
  Pd  Pd168  1  0.20263103  0.40578210  0.60703806  1
  Pd  Pd169  1  0.39962897  0.20799932  0.19298761  1
  Pd  Pd170  1  0.41088320  0.59613595  0.80163197  1
  Pd  Pd171  1  0.78794565  0.60138097  0.21102846  1
  Pd  Pd172  1  0.79608708  0.79223437  0.19695293  1
  Pd  Pd173  1  0.00701438  0.00575599  0.59803770  1
  Pd  Pd174  1  0.80305613  0.40152246  0.00487226  1
  Pd  Pd175  1  0.40527914  0.80328080  0.39674598  1
  Pd  Pd176  1  0.00138677  0.59460661  0.40875045  1
  Pd  Pd177  1  0.60490730  0.60159433  0.20869422  1
  Pd  Pd178  1  0.60806640  0.39575324  0.80183701  1
  Pd  Pd179  1  0.59407426  0.20379463  -0.00550565  1
  Pd  Pd180  1  0.60745190  0.39697602  0.19217978  1
  Pd  Pd181  1  0.20215742  0.19569082  0.18857999  1
  Pd  Pd182  1  0.59119208  0.59731109  0.79495523  1
  Pd  Pd183  1  -0.01154134  0.39707647  -0.00287110  1
  Pd  Pd184  1  0.58766184  0.00993278  0.78597941  1
  Pd  Pd185  1  0.60215733  0.20340306  0.39566068  1
  Pd  Pd186  1  0.80389787  -0.00110176  0.80565154  1
  Pd  Pd187  1  0.19632396  0.39493371  0.39679460  1
  Pd  Pd188  1  0.00929815  0.81162121  0.21235098  1
  Pd  Pd189  1  0.78847807  -0.00914152  0.59196603  1
  Pd  Pd190  1  0.39872662  0.79863908  0.80632671  1
  Pd  Pd191  1  0.00951796  0.60651772  0.00968794  1
  Pd  Pd192  1  0.41066302  0.79899779  0.00228387  1
  Pd  Pd193  1  0.39634900  0.20743383  0.00105901  1
  Pd  Pd194  1  0.60283283  0.59604487  0.40626121  1
  Pd  Pd195  1  0.20386701  0.78906120  -0.00883327  1
  Pd  Pd196  1  0.59715351  -0.00437769  0.40292300  1
  Pd  Pd197  1  -0.00258244  0.20873522  0.40784380  1
  Pd  Pd198  1  0.19633681  0.60460085  0.59756861  1
  Pd  Pd199  1  -0.00872396  0.19388849  0.59229553  1
  Rh  Rh200  1  0.20566976  0.01015688  -0.00251322  1
  Rh  Rh201  1  0.41006016  -0.00049392  0.00196567  1
  Rh  Rh202  1  0.80077024  0.39441983  0.60138260  1
  Rh  Rh203  1  0.60031470  0.79501118  0.79946290  1
  Rh  Rh204  1  0.79191633  0.60637307  0.60061514  1
  Rh  Rh205  1  0.40510134  0.40449379  -0.00044828  1
  Rh  Rh206  1  0.60872519  0.80551353  0.60438150  1
  Rh  Rh207  1  0.19941197  0.59973912  0.81046271  1
  Rh  Rh208  1  0.40198331  0.59553840  0.00027162  1
  Rh  Rh209  1  0.21065860  0.00670137  0.40238989  1
  Rh  Rh210  1  0.58857754  0.39500276  0.40467887  1
  Rh  Rh211  1  0.39717297  0.40161559  0.21129396  1
  Rh  Rh212  1  0.00021450  0.80251568  0.59797629  1
  Rh  Rh213  1  0.79354953  0.00260841  0.40020552  1
  Rh  Rh214  1  0.60183783  0.40839916  0.00023261  1
  Rh  Rh215  1  0.79638779  0.19938046  0.39986136  1
  Rh  Rh216  1  -0.00305993  -0.00395252  0.39523638  1
  Rh  Rh217  1  0.19852685  0.60425174  0.39612361  1
  Rh  Rh218  1  0.39276904  0.79180322  0.59860741  1
  Rh  Rh219  1  0.40202758  0.59188347  0.39587739  1
  Rh  Rh220  1  0.39256894  0.59704330  0.20558755  1
  Rh  Rh221  1  0.80467380  0.79220729  0.40920030  1
  Rh  Rh222  1  0.00148416  0.20170372  0.19883967  1
  Rh  Rh223  1  0.60044714  0.00047592  0.19714350  1
  Rh  Rh224  1  0.19856482  0.19656175  0.59095901  1
  Rh  Rh225  1  0.60449666  0.20560336  0.20178703  1
  Rh  Rh226  1  0.19874879  0.80211723  0.20648750  1
  Rh  Rh227  1  0.59603179  0.79416889  0.19727835  1
  Rh  Rh228  1  0.00535486  0.01159278  0.78871486  1
  Rh  Rh229  1  0.79464735  0.18810787  -0.00902525  1
  Rh  Rh230  1  -0.00736546  0.59382412  0.79580959  1
  Rh  Rh231  1  0.00406358  0.20913198  -0.00745018  1
  Rh  Rh232  1  0.40572306  0.79648864  0.20286899  1
  Rh  Rh233  1  0.20496013  0.78909805  0.40817780  1
  Rh  Rh234  1  0.00016496  0.40647166  0.59907060  1
  Rh  Rh235  1  0.40244354  0.00022968  0.59174764  1
  Rh  Rh236  1  0.41197370  0.59428998  0.60240901  1
  Rh  Rh237  1  0.59331531  0.80215259  0.39628971  1
  Rh  Rh238  1  0.39164979  0.40120837  0.79675945  1
  Rh  Rh239  1  -0.00150916  0.79053883  0.79821311  1
  Rh  Rh240  1  -0.01518672  -0.01102508  0.01372564  1
  Rh  Rh241  1  0.40057286  0.00192113  0.80331361  1
  Rh  Rh242  1  0.79824133  0.60565416  0.00059845  1
  Rh  Rh243  1  0.00723163  0.59063551  0.59721593  1
  Rh  Rh244  1  0.39566982  -0.00503230  0.20813989  1
  Rh  Rh245  1  0.80322634  0.20464479  0.60410173  1
  Rh  Rh246  1  -0.00184309  0.80582934  0.40091988  1
  Rh  Rh247  1  0.80375126  0.39645736  0.79322578  1
  Rh  Rh248  1  0.20603853  0.20354603  0.81230076  1
  Rh  Rh249  1  0.20492404  0.40109955  -0.00953852  1
