# generated using pymatgen
data_ZrScNbPdRh
_symmetry_space_group_name_H-M   'P 1'
_cell_length_a   16.55492028
_cell_length_b   16.56357136
_cell_length_c   16.56255477
_cell_angle_alpha   89.97181851
_cell_angle_beta   89.98700346
_cell_angle_gamma   89.97487644
_symmetry_Int_Tables_number   1
_chemical_formula_structural   ZrScNbPdRh
_chemical_formula_sum   'Zr50 Sc50 Nb50 Pd50 Rh50'
_cell_volume   4541.59390669
_cell_formula_units_Z   50
loop_
 _symmetry_equiv_pos_site_id
 _symmetry_equiv_pos_as_xyz
  1  'x, y, z'
loop_
 _atom_site_type_symbol
 _atom_site_label
 _atom_site_symmetry_multiplicity
 _atom_site_fract_x
 _atom_site_fract_y
 _atom_site_fract_z
 _atom_site_occupancy
  Zr  Zr0  1  0.49991537  0.10160900  0.50078022  1
  Zr  Zr1  1  0.30303906  0.70039126  0.28733194  1
  Zr  Zr2  1  0.70592996  0.89563734  0.08684130  1
  Zr  Zr3  1  0.30228631  0.31145489  0.70126933  1
  Zr  Zr4  1  0.50229120  0.89050460  0.90134168  1
  Zr  Zr5  1  0.69554355  0.30972052  0.90580744  1
  Zr  Zr6  1  0.09627040  0.90104160  0.49747643  1
  Zr  Zr7  1  0.50208656  0.89371870  0.29439473  1
  Zr  Zr8  1  0.69803245  0.89583573  0.69115952  1
  Zr  Zr9  1  0.29219178  0.69318171  0.69992580  1
  Zr  Zr10  1  0.30212302  0.89904896  0.89467464  1
  Zr  Zr11  1  0.49707208  0.30820161  0.90539933  1
  Zr  Zr12  1  0.69683341  0.49421049  0.50285733  1
  Zr  Zr13  1  0.89578341  0.89445511  0.49654828  1
  Zr  Zr14  1  0.90850763  0.90746530  0.30274363  1
  Zr  Zr15  1  0.89442375  0.50201711  0.90020363  1
  Zr  Zr16  1  0.69986573  0.50233804  0.10174808  1
  Zr  Zr17  1  0.90805513  0.69481439  0.89190915  1
  Zr  Zr18  1  0.49353426  0.29363935  0.29784918  1
  Zr  Zr19  1  0.70073167  0.90317716  0.90128195  1
  Zr  Zr20  1  0.50639574  0.09839064  0.69412057  1
  Zr  Zr21  1  0.50017316  0.50765517  0.69843244  1
  Zr  Zr22  1  0.90647977  0.70009160  0.29102080  1
  Zr  Zr23  1  0.08801743  0.09996587  0.69693614  1
  Zr  Zr24  1  0.70847756  0.90008494  0.30304536  1
  Zr  Zr25  1  0.30004031  0.31105147  0.29605230  1
  Zr  Zr26  1  0.10071066  0.30284946  0.69738766  1
  Zr  Zr27  1  0.69416927  0.30787964  0.30976934  1
  Zr  Zr28  1  0.90396155  0.29806477  0.69469758  1
  Zr  Zr29  1  0.09869513  0.49973992  0.49110294  1
  Zr  Zr30  1  0.50249720  0.69865673  0.69674682  1
  Zr  Zr31  1  0.11263679  0.90250305  0.89856720  1
  Zr  Zr32  1  0.49509655  0.49461648  0.30509488  1
  Zr  Zr33  1  0.28266189  0.89678244  0.49475556  1
  Zr  Zr34  1  0.29583063  0.69379049  0.50242415  1
  Zr  Zr35  1  0.10725699  0.30070056  0.09783570  1
  Zr  Zr36  1  0.69865188  0.50460334  0.69983759  1
  Zr  Zr37  1  0.89513974  0.29670109  0.29659827  1
  Zr  Zr38  1  0.70980921  0.10806716  0.30415243  1
  Zr  Zr39  1  0.49038307  0.09563163  0.90183506  1
  Zr  Zr40  1  0.10069984  0.09987768  0.90451249  1
  Zr  Zr41  1  0.89972372  0.50050898  0.49990846  1
  Zr  Zr42  1  0.29560827  0.08635702  0.90640741  1
  Zr  Zr43  1  0.49425809  0.69377677  0.89396820  1
  Zr  Zr44  1  0.70206659  0.09921163  0.70358662  1
  Zr  Zr45  1  0.29675737  0.89377429  0.70335012  1
  Zr  Zr46  1  0.69430475  0.09872522  0.50657902  1
  Zr  Zr47  1  0.91373896  0.29405038  0.10078417  1
  Zr  Zr48  1  0.30263695  0.50665494  0.89694163  1
  Zr  Zr49  1  0.90307541  0.50638034  0.10894515  1
  Sc  Sc50  1  0.10531517  0.70929352  0.49447279  1
  Sc  Sc51  1  0.49531593  0.69899007  0.29723868  1
  Sc  Sc52  1  0.90168911  0.30614122  0.50015008  1
  Sc  Sc53  1  0.29759184  0.09709999  0.49617880  1
  Sc  Sc54  1  0.90196431  0.09756722  0.50085076  1
  Sc  Sc55  1  0.69296040  0.70979703  0.90103069  1
  Sc  Sc56  1  0.89225420  0.70174296  0.49794516  1
  Sc  Sc57  1  0.30260574  0.89127603  0.09146383  1
  Sc  Sc58  1  0.89656804  0.30315526  0.90751978  1
  Sc  Sc59  1  0.10077171  0.69582870  0.89869643  1
  Sc  Sc60  1  0.89881529  0.89642530  0.10087029  1
  Sc  Sc61  1  0.70837154  0.70955546  0.30085194  1
  Sc  Sc62  1  0.30364301  0.30457684  0.90344434  1
  Sc  Sc63  1  0.70064349  0.09696222  0.90344161  1
  Sc  Sc64  1  0.89088270  0.89611383  0.90265251  1
  Sc  Sc65  1  0.69024552  0.30932041  0.10858942  1
  Sc  Sc66  1  0.10104201  0.50694495  0.90565303  1
  Sc  Sc67  1  0.69514423  0.08718927  0.10124866  1
  Sc  Sc68  1  0.30673114  0.49608579  0.49982675  1
  Sc  Sc69  1  0.10411247  0.89698323  0.31117601  1
  Sc  Sc70  1  0.89269450  0.90196712  0.70554368  1
  Sc  Sc71  1  0.69409742  0.29994070  0.70554294  1
  Sc  Sc72  1  0.10402838  0.90214972  0.70288870  1
  Sc  Sc73  1  0.11606130  0.50284072  0.70284496  1
  Sc  Sc74  1  0.88924209  0.09333396  0.89563209  1
  Sc  Sc75  1  0.90485320  0.70482311  0.10026112  1
  Sc  Sc76  1  0.30516110  0.50491320  0.69214364  1
  Sc  Sc77  1  0.08891494  0.49964070  0.29744834  1
  Sc  Sc78  1  0.09790721  0.09337013  0.50059413  1
  Sc  Sc79  1  0.29252983  0.49643700  0.10589893  1
  Sc  Sc80  1  0.49680360  0.49898029  0.50689635  1
  Sc  Sc81  1  0.29114070  0.69620305  0.09944570  1
  Sc  Sc82  1  0.10403302  0.89371833  0.09585012  1
  Sc  Sc83  1  0.30100697  0.30313859  0.48582875  1
  Sc  Sc84  1  0.29832876  0.70340281  0.89937339  1
  Sc  Sc85  1  0.49588543  0.89814661  0.70025075  1
  Sc  Sc86  1  0.50093570  0.30184085  0.70560909  1
  Sc  Sc87  1  0.09957409  0.69592846  0.09799600  1
  Sc  Sc88  1  0.10084347  0.50444883  0.09757055  1
  Sc  Sc89  1  0.09329932  0.30721180  0.50074183  1
  Sc  Sc90  1  0.30238942  0.11715501  0.30673901  1
  Sc  Sc91  1  0.30905179  0.08990202  0.70711441  1
  Sc  Sc92  1  0.09931071  0.09437344  0.30049915  1
  Sc  Sc93  1  0.89043951  0.50728385  0.70364162  1
  Sc  Sc94  1  0.51206744  0.89694543  0.50558171  1
  Sc  Sc95  1  0.10301101  0.11064356  0.09736471  1
  Sc  Sc96  1  0.50086150  0.49720639  0.09168775  1
  Sc  Sc97  1  0.70342486  0.69961908  0.68932914  1
  Sc  Sc98  1  0.90568943  0.10162596  0.11279990  1
  Sc  Sc99  1  0.48937358  0.70091094  0.09895497  1
  Nb  Nb100  1  0.70200051  0.88549541  0.49611654  1
  Nb  Nb101  1  0.09343318  0.29432299  0.90517803  1
  Nb  Nb102  1  0.30011852  0.50024051  0.30317647  1
  Nb  Nb103  1  0.90433841  0.69589047  0.70017891  1
  Nb  Nb104  1  0.48843521  0.29429725  0.10269624  1
  Nb  Nb105  1  0.69657965  0.29431532  0.49831719  1
  Nb  Nb106  1  0.50228575  0.09598953  0.29710414  1
  Nb  Nb107  1  0.50442195  0.29928105  0.49947615  1
  Nb  Nb108  1  0.10091262  0.29958277  0.30441919  1
  Nb  Nb109  1  0.09906364  0.69692254  0.70156306  1
  Nb  Nb110  1  0.69836204  0.70925914  0.49654310  1
  Nb  Nb111  1  0.69228467  0.49890457  0.90867109  1
  Nb  Nb112  1  0.69941485  0.49902058  0.29895875  1
  Nb  Nb113  1  0.49606795  0.09913340  0.10291143  1
  Nb  Nb114  1  0.89578786  0.50268661  0.30015634  1
  Nb  Nb115  1  0.50673621  0.90722896  0.09756512  1
  Nb  Nb116  1  0.30424377  0.09757950  0.09925579  1
  Nb  Nb117  1  0.90177775  0.10496759  0.30154475  1
  Nb  Nb118  1  0.71210006  0.70221161  0.10570022  1
  Nb  Nb119  1  0.30327946  0.90037453  0.29724352  1
  Nb  Nb120  1  0.89604500  0.10536933  0.69998223  1
  Nb  Nb121  1  0.50642262  0.70162480  0.49723150  1
  Nb  Nb122  1  0.10225185  0.69716290  0.29871576  1
  Nb  Nb123  1  0.30799053  0.29603850  0.10940734  1
  Nb  Nb124  1  0.50931766  0.50590032  0.90162210  1
  Nb  Nb125  1  0.39844887  0.20424595  0.59806760  1
  Nb  Nb126  1  0.20489946  0.20245527  0.60569381  1
  Nb  Nb127  1  0.20349520  0.59910691  0.38992049  1
  Nb  Nb128  1  0.21284771  0.00090821  0.19927755  1
  Nb  Nb129  1  0.39807989  0.80213115  0.40327722  1
  Nb  Nb130  1  -0.00418419  0.20037932  0.39357451  1
  Nb  Nb131  1  0.60594494  0.60208900  0.39788203  1
  Nb  Nb132  1  -0.00014560  0.20276316  0.80298852  1
  Nb  Nb133  1  0.00316596  0.39683261  0.80340461  1
  Nb  Nb134  1  0.00244079  0.60765436  0.60345121  1
  Nb  Nb135  1  0.60166587  -0.00119097  0.39679775  1
  Nb  Nb136  1  0.59175756  0.20040703  0.00724170  1
  Nb  Nb137  1  -0.00124770  0.79415567  0.60703895  1
  Nb  Nb138  1  0.79740473  0.20042351  0.59975467  1
  Nb  Nb139  1  0.79300201  0.20287278  0.00656222  1
  Nb  Nb140  1  0.19531443  0.20170891  0.79962442  1
  Nb  Nb141  1  0.00171091  0.00061121  -0.00160627  1
  Nb  Nb142  1  0.60701144  0.60318581  0.20392284  1
  Nb  Nb143  1  0.60505852  0.79886668  0.19262560  1
  Nb  Nb144  1  0.39574418  0.79548925  0.59238501  1
  Nb  Nb145  1  0.40097083  0.00222052  0.19827408  1
  Nb  Nb146  1  0.79510271  0.59943985  -0.00041470  1
  Nb  Nb147  1  0.40497747  -0.00505991  0.39330722  1
  Nb  Nb148  1  0.79596782  0.59439531  0.39367881  1
  Nb  Nb149  1  0.59993906  -0.00305513  0.80033069  1
  Pd  Pd150  1  0.79466248  0.39249461  0.60352077  1
  Pd  Pd151  1  0.00208290  0.40853530  -0.00284118  1
  Pd  Pd152  1  0.60433492  0.61137545  0.00947784  1
  Pd  Pd153  1  0.00155026  0.80531552  -0.00621354  1
  Pd  Pd154  1  0.80292807  -0.00213337  0.19667003  1
  Pd  Pd155  1  0.60378363  0.19901482  0.19642598  1
  Pd  Pd156  1  0.20421487  0.39897014  -0.00188932  1
  Pd  Pd157  1  0.59688052  0.39491150  0.60314329  1
  Pd  Pd158  1  0.80222186  0.00178542  0.59654143  1
  Pd  Pd159  1  0.39340815  0.20015466  0.79546129  1
  Pd  Pd160  1  0.80276231  0.39553218  0.19624792  1
  Pd  Pd161  1  0.40648247  0.41145174  0.80153590  1
  Pd  Pd162  1  0.39421371  0.40781197  0.00559677  1
  Pd  Pd163  1  0.80217092  0.39782232  0.79734080  1
  Pd  Pd164  1  -0.00895068  -0.01039160  0.60145772  1
  Pd  Pd165  1  0.80271018  0.39987682  0.01254310  1
  Pd  Pd166  1  0.00441431  0.80695663  0.79739293  1
  Pd  Pd167  1  0.19540819  0.80605773  0.20068321  1
  Pd  Pd168  1  0.80376966  0.20759136  0.80464173  1
  Pd  Pd169  1  0.00539014  0.39783323  0.20219932  1
  Pd  Pd170  1  0.39969044  0.79836058  0.00133535  1
  Pd  Pd171  1  0.58787115  0.40526436  0.19825475  1
  Pd  Pd172  1  0.59684699  0.19411602  0.81260203  1
  Pd  Pd173  1  0.01028313  0.80546326  0.20294440  1
  Pd  Pd174  1  0.59563131  0.19528160  0.39613595  1
  Pd  Pd175  1  0.40146537  0.60439296  0.40392320  1
  Pd  Pd176  1  0.39616211  0.19986276  -0.00142366  1
  Pd  Pd177  1  0.01449484  -0.00184128  0.19331241  1
  Pd  Pd178  1  -0.00039628  0.60921654  0.40415956  1
  Pd  Pd179  1  0.00227210  0.41964061  0.61246757  1
  Pd  Pd180  1  0.19384076  0.39763217  0.81357621  1
  Pd  Pd181  1  0.21298819  0.20509221  -0.00311505  1
  Pd  Pd182  1  0.20604392  0.39825404  0.58813463  1
  Pd  Pd183  1  0.78610662  0.60783647  0.80867779  1
  Pd  Pd184  1  0.20218823  0.00834893  0.60589350  1
  Pd  Pd185  1  0.60336258  -0.00517347  0.20367384  1
  Pd  Pd186  1  0.40476728  0.59018423  0.19160456  1
  Pd  Pd187  1  0.60840652  0.60430319  0.80089625  1
  Pd  Pd188  1  0.39322931  0.59640348  0.00471065  1
  Pd  Pd189  1  0.59520647  0.78934776  0.00805456  1
  Pd  Pd190  1  0.20084371  0.19637976  0.20228954  1
  Pd  Pd191  1  0.78974921  0.20445871  0.19066600  1
  Pd  Pd192  1  0.18743667  0.20100926  0.41030312  1
  Pd  Pd193  1  0.80313882  0.40153808  0.40142834  1
  Pd  Pd194  1  0.79527880  0.79413434  0.79741713  1
  Pd  Pd195  1  0.79750144  0.00414640  0.40764483  1
  Pd  Pd196  1  0.59614830  0.40664607  0.79935892  1
  Pd  Pd197  1  -0.00577608  -0.00034567  0.80628045  1
  Pd  Pd198  1  0.19216575  0.40475299  0.20420778  1
  Pd  Pd199  1  0.39604780  -0.00605036  0.58933103  1
  Rh  Rh200  1  -0.00236680  0.79495479  0.40312644  1
  Rh  Rh201  1  0.39695953  0.19385347  0.20170715  1
  Rh  Rh202  1  0.60010396  0.21055219  0.60276291  1
  Rh  Rh203  1  0.40530580  0.80608486  0.19370703  1
  Rh  Rh204  1  0.00639402  0.58641966  0.79160455  1
  Rh  Rh205  1  0.19927595  0.79360581  -0.00404205  1
  Rh  Rh206  1  -0.00189399  0.00743560  0.39996195  1
  Rh  Rh207  1  0.59392730  0.40268105  0.40438358  1
  Rh  Rh208  1  0.19644008  0.79361867  0.80091510  1
  Rh  Rh209  1  0.19421923  -0.00174298  0.01488933  1
  Rh  Rh210  1  0.40453743  0.60636874  0.59655220  1
  Rh  Rh211  1  0.19423895  0.59521136  0.20624128  1
  Rh  Rh212  1  0.59502396  0.79806140  0.39116001  1
  Rh  Rh213  1  0.60556758  0.60339875  0.58925673  1
  Rh  Rh214  1  0.40464983  0.39031644  0.59652838  1
  Rh  Rh215  1  0.79824877  0.60042828  0.20223613  1
  Rh  Rh216  1  -0.00288945  0.19593927  0.59333073  1
  Rh  Rh217  1  0.81113017  0.79431701  0.39149980  1
  Rh  Rh218  1  0.59272051  0.39472743  0.00597734  1
  Rh  Rh219  1  0.60417051  -0.00832446  0.59852175  1
  Rh  Rh220  1  0.59456860  0.79732598  0.60345860  1
  Rh  Rh221  1  0.40084150  0.40431628  0.19628248  1
  Rh  Rh222  1  0.00510419  0.60085045  0.19864047  1
  Rh  Rh223  1  0.39925514  0.59783452  0.79953172  1
  Rh  Rh224  1  0.20756729  0.00769955  0.38828131  1
  Rh  Rh225  1  0.40169940  -0.00844889  0.00558706  1
  Rh  Rh226  1  0.60190396  0.80341879  0.79261479  1
  Rh  Rh227  1  -0.01778442  0.18706429  -0.00888998  1
  Rh  Rh228  1  0.20222935  0.60105732  0.00062466  1
  Rh  Rh229  1  0.19811155  0.40838967  0.39508807  1
  Rh  Rh230  1  0.19489105  0.79981940  0.60883194  1
  Rh  Rh231  1  0.39820350  0.79339005  0.79119953  1
  Rh  Rh232  1  -0.00561438  0.39099645  0.38939048  1
  Rh  Rh233  1  -0.00855669  0.60078067  0.00224291  1
  Rh  Rh234  1  0.40765055  0.19859251  0.40503246  1
  Rh  Rh235  1  0.79253540  -0.00468052  0.79567316  1
  Rh  Rh236  1  0.20155240  0.60026373  0.80457413  1
  Rh  Rh237  1  0.20710894  0.78850501  0.38670651  1
  Rh  Rh238  1  0.80756361  0.79578111  0.60366414  1
  Rh  Rh239  1  0.80183416  0.60441990  0.58985379  1
  Rh  Rh240  1  0.19873842  0.00818900  0.79254258  1
  Rh  Rh241  1  0.18907629  0.59619702  0.58706712  1
  Rh  Rh242  1  0.40476403  0.39620833  0.40212980  1
  Rh  Rh243  1  0.40851891  -0.00850077  0.80242429  1
  Rh  Rh244  1  0.81268904  0.01064640  0.01130772  1
  Rh  Rh245  1  0.59336009  0.00689715  -0.00877418  1
  Rh  Rh246  1  0.80736705  0.20337814  0.41066419  1
  Rh  Rh247  1  0.80277168  0.80911043  0.20238810  1
  Rh  Rh248  1  0.01240884  0.20207274  0.21068899  1
  Rh  Rh249  1  0.80929895  0.78530148  -0.00693898  1
