# generated using pymatgen
data_ZrScNbPdRh
_symmetry_space_group_name_H-M   'P 1'
_cell_length_a   16.55924512
_cell_length_b   16.55151038
_cell_length_c   16.55361335
_cell_angle_alpha   90.05616479
_cell_angle_beta   89.99027374
_cell_angle_gamma   89.97861866
_symmetry_Int_Tables_number   1
_chemical_formula_structural   ZrScNbPdRh
_chemical_formula_sum   'Zr50 Sc50 Nb50 Pd50 Rh50'
_cell_volume   4537.02035128
_cell_formula_units_Z   50
loop_
 _symmetry_equiv_pos_site_id
 _symmetry_equiv_pos_as_xyz
  1  'x, y, z'
loop_
 _atom_site_type_symbol
 _atom_site_label
 _atom_site_symmetry_multiplicity
 _atom_site_fract_x
 _atom_site_fract_y
 _atom_site_fract_z
 _atom_site_occupancy
  Zr  Zr0  1  0.70283064  0.49969495  0.10392151  1
  Zr  Zr1  1  0.49197034  0.89730897  0.50257289  1
  Zr  Zr2  1  0.90412725  0.89745463  0.09838892  1
  Zr  Zr3  1  0.10532727  0.29353236  0.50250463  1
  Zr  Zr4  1  0.10382256  0.49631112  0.29801193  1
  Zr  Zr5  1  0.69836859  0.89535804  0.89707056  1
  Zr  Zr6  1  0.90549385  0.09736556  0.50400762  1
  Zr  Zr7  1  0.69141216  0.90252526  0.09836168  1
  Zr  Zr8  1  0.10822238  0.70174739  0.70234227  1
  Zr  Zr9  1  0.49747228  0.31281769  0.10379733  1
  Zr  Zr10  1  0.10040295  0.09737391  0.50027525  1
  Zr  Zr11  1  0.90232982  0.70631110  0.69771275  1
  Zr  Zr12  1  0.10729066  0.70021142  0.29825745  1
  Zr  Zr13  1  0.89764743  0.10006514  0.70217044  1
  Zr  Zr14  1  0.49363145  0.30011657  0.50292490  1
  Zr  Zr15  1  0.49596692  0.69991586  0.10170237  1
  Zr  Zr16  1  0.89992039  0.68690732  0.09390782  1
  Zr  Zr17  1  0.29806155  0.70571660  0.09750626  1
  Zr  Zr18  1  0.49771372  0.51134522  0.70452874  1
  Zr  Zr19  1  0.49151951  0.90266766  0.30034171  1
  Zr  Zr20  1  0.10616239  0.69644224  0.90312595  1
  Zr  Zr21  1  0.90622304  0.10320796  0.10137985  1
  Zr  Zr22  1  0.09895252  0.89748025  0.30816541  1
  Zr  Zr23  1  0.68653474  0.30579276  0.49602346  1
  Zr  Zr24  1  0.69880026  0.10437836  0.49548189  1
  Zr  Zr25  1  0.29459393  0.10486593  0.09985627  1
  Zr  Zr26  1  0.90630360  0.29595653  0.50055911  1
  Zr  Zr27  1  0.10952006  0.50241658  0.70575696  1
  Zr  Zr28  1  0.90408685  0.90057858  0.49615952  1
  Zr  Zr29  1  0.29780383  0.29900521  0.50321063  1
  Zr  Zr30  1  0.50374355  0.49228995  0.49088052  1
  Zr  Zr31  1  0.49558741  0.09718845  0.49442784  1
  Zr  Zr32  1  0.70051458  0.09459173  0.88851526  1
  Zr  Zr33  1  0.29021548  0.10270848  0.50852528  1
  Zr  Zr34  1  0.70420633  0.69355149  0.30396749  1
  Zr  Zr35  1  0.09882686  0.29905124  0.90133416  1
  Zr  Zr36  1  0.50064116  0.50011144  0.28300403  1
  Zr  Zr37  1  0.49571755  0.09938209  0.70815703  1
  Zr  Zr38  1  0.30581632  0.48786269  0.10101833  1
  Zr  Zr39  1  0.89979240  0.89910318  0.89821114  1
  Zr  Zr40  1  0.49437908  0.70222592  0.69840983  1
  Zr  Zr41  1  0.10409211  0.89882920  0.09838432  1
  Zr  Zr42  1  0.30202992  0.91167995  0.71006488  1
  Zr  Zr43  1  0.89583714  0.70747832  0.30303585  1
  Zr  Zr44  1  0.50053193  0.10666589  0.10173185  1
  Zr  Zr45  1  0.49584189  0.69861838  0.29998626  1
  Zr  Zr46  1  0.10227673  0.48958158  0.50114851  1
  Zr  Zr47  1  0.89747332  0.30155100  0.90202593  1
  Zr  Zr48  1  0.10670984  0.09902339  0.29945518  1
  Zr  Zr49  1  0.89420694  0.49971980  0.70000347  1
  Sc  Sc50  1  0.89546299  0.50052090  0.90959814  1
  Sc  Sc51  1  0.50124607  0.30227469  0.91006705  1
  Sc  Sc52  1  0.10039279  0.30172209  0.30170110  1
  Sc  Sc53  1  0.10794985  0.90125239  0.89847065  1
  Sc  Sc54  1  0.09397874  0.29888301  0.70263186  1
  Sc  Sc55  1  0.30059566  0.89507071  0.09945848  1
  Sc  Sc56  1  0.30038003  0.29840033  0.09883890  1
  Sc  Sc57  1  0.50601166  0.30451837  0.30364254  1
  Sc  Sc58  1  0.89198802  0.50461806  0.50384444  1
  Sc  Sc59  1  0.10631117  0.89399620  0.69772638  1
  Sc  Sc60  1  0.90019539  0.10292601  0.89844904  1
  Sc  Sc61  1  0.10554288  0.49817555  0.90223441  1
  Sc  Sc62  1  0.90258324  0.30162726  0.70853958  1
  Sc  Sc63  1  0.30487454  0.70289615  0.49753585  1
  Sc  Sc64  1  0.29682195  0.50083526  0.29990539  1
  Sc  Sc65  1  0.30021984  0.70202696  0.29833171  1
  Sc  Sc66  1  0.29704806  0.49442425  0.50089497  1
  Sc  Sc67  1  0.10767907  0.69681534  0.09993707  1
  Sc  Sc68  1  0.30020802  0.89382067  0.89840223  1
  Sc  Sc69  1  0.90566902  0.29966161  0.28891434  1
  Sc  Sc70  1  0.30114904  0.90828878  0.49624082  1
  Sc  Sc71  1  0.10520796  0.09663887  0.09929500  1
  Sc  Sc72  1  0.70048038  0.70020682  0.10121208  1
  Sc  Sc73  1  0.30030563  0.69457228  0.70232111  1
  Sc  Sc74  1  0.69562271  0.50595774  0.29903265  1
  Sc  Sc75  1  0.68897156  0.10294753  0.10236738  1
  Sc  Sc76  1  0.11138141  0.71214832  0.50160149  1
  Sc  Sc77  1  0.49321155  0.69918425  0.50249392  1
  Sc  Sc78  1  0.10409679  0.10244489  0.69691143  1
  Sc  Sc79  1  0.49590578  0.89463194  0.89571433  1
  Sc  Sc80  1  0.70385029  0.89961675  0.51545892  1
  Sc  Sc81  1  0.29388494  0.29412046  0.90662025  1
  Sc  Sc82  1  0.10879446  0.50182077  0.09983106  1
  Sc  Sc83  1  0.49861041  0.70101018  0.88417913  1
  Sc  Sc84  1  0.49922317  0.10013475  0.29236401  1
  Sc  Sc85  1  0.10546952  0.09872228  0.90232243  1
  Sc  Sc86  1  0.90390498  0.10993656  0.30336360  1
  Sc  Sc87  1  0.70785841  0.30112745  0.90115058  1
  Sc  Sc88  1  0.89555711  0.49647938  0.29695355  1
  Sc  Sc89  1  0.50018454  0.89775160  0.10014437  1
  Sc  Sc90  1  0.10782220  0.29805198  0.11199847  1
  Sc  Sc91  1  0.29377652  0.49212849  0.89902248  1
  Sc  Sc92  1  0.29945481  0.09359858  0.29661057  1
  Sc  Sc93  1  0.69770426  0.71074533  0.69783563  1
  Sc  Sc94  1  0.70316435  0.30189588  0.10197768  1
  Sc  Sc95  1  0.69093592  0.11094643  0.29501689  1
  Sc  Sc96  1  0.88586986  0.70393150  0.50087487  1
  Sc  Sc97  1  0.89005578  0.89937153  0.69144285  1
  Sc  Sc98  1  0.50591364  0.10464781  0.89872517  1
  Sc  Sc99  1  0.70250906  0.88832906  0.29436064  1
  Nb  Nb100  1  0.50078400  0.49979882  0.89620532  1
  Nb  Nb101  1  0.50462268  0.90056361  0.69918634  1
  Nb  Nb102  1  0.30059329  0.10450478  0.70903010  1
  Nb  Nb103  1  0.30018332  0.90067720  0.29689631  1
  Nb  Nb104  1  0.89942547  0.89793599  0.30130600  1
  Nb  Nb105  1  0.69874261  0.30431885  0.69822260  1
  Nb  Nb106  1  0.70190246  0.69620438  0.89789847  1
  Nb  Nb107  1  0.70410722  0.50483067  0.50136106  1
  Nb  Nb108  1  0.10266433  0.91310903  0.49756557  1
  Nb  Nb109  1  0.69841936  0.09538256  0.69961247  1
  Nb  Nb110  1  0.49702410  0.30020836  0.69756211  1
  Nb  Nb111  1  0.70342614  0.69210434  0.49554914  1
  Nb  Nb112  1  0.69509960  0.29855690  0.30498796  1
  Nb  Nb113  1  0.29365695  0.29765749  0.30028899  1
  Nb  Nb114  1  0.89919188  0.69882060  0.90004959  1
  Nb  Nb115  1  0.31474853  0.28898627  0.69434652  1
  Nb  Nb116  1  0.90097313  0.49458656  0.10400380  1
  Nb  Nb117  1  0.30586052  0.70454239  0.90102419  1
  Nb  Nb118  1  0.90276453  0.30389019  0.10093204  1
  Nb  Nb119  1  0.69740080  0.49965123  0.89133314  1
  Nb  Nb120  1  0.69680865  0.91655600  0.70155641  1
  Nb  Nb121  1  0.50087710  0.49809668  0.09276318  1
  Nb  Nb122  1  0.70399264  0.49892706  0.69686634  1
  Nb  Nb123  1  0.30107902  0.09297929  0.89015558  1
  Nb  Nb124  1  0.29966643  0.49949152  0.70626306  1
  Nb  Nb125  1  0.79061038  0.20235644  0.60405062  1
  Nb  Nb126  1  -0.00491994  0.60482127  0.80141665  1
  Nb  Nb127  1  -0.00084260  0.20768822  0.00380588  1
  Nb  Nb128  1  -0.00030197  0.59881362  0.20297720  1
  Nb  Nb129  1  0.59726442  0.59511642  -0.00907717  1
  Nb  Nb130  1  0.79278478  0.39585242  0.40179954  1
  Nb  Nb131  1  0.00231850  0.60174948  0.40215354  1
  Nb  Nb132  1  -0.00276649  -0.00558322  0.20568439  1
  Nb  Nb133  1  0.39725809  0.00697051  -0.00369246  1
  Nb  Nb134  1  0.60679275  0.59589413  0.59764903  1
  Nb  Nb135  1  0.00473327  0.60227945  0.60076233  1
  Nb  Nb136  1  0.79736252  -0.00057686  0.00382807  1
  Nb  Nb137  1  0.59817881  0.40174440  0.79375947  1
  Nb  Nb138  1  0.39400846  0.20187484  0.40156109  1
  Nb  Nb139  1  0.40583116  0.59470742  -0.00450026  1
  Nb  Nb140  1  0.60309504  -0.00762227  0.39929486  1
  Nb  Nb141  1  -0.00077923  -0.00227510  0.79938623  1
  Nb  Nb142  1  0.80396177  -0.00063701  0.20131683  1
  Nb  Nb143  1  0.40260756  0.39772698  0.79503390  1
  Nb  Nb144  1  -0.00314976  0.39729500  0.00952342  1
  Nb  Nb145  1  0.60067093  0.79915388  0.40505552  1
  Nb  Nb146  1  0.59938918  0.20154063  0.60971921  1
  Nb  Nb147  1  -0.00111432  0.79306182  -0.00461759  1
  Nb  Nb148  1  0.79808462  0.60399536  0.80159402  1
  Nb  Nb149  1  0.79859098  -0.00146960  0.39344898  1
  Pd  Pd150  1  -0.00193670  0.40469927  0.60401058  1
  Pd  Pd151  1  0.79378426  0.39486914  0.20927576  1
  Pd  Pd152  1  0.39957392  0.59338791  0.59279099  1
  Pd  Pd153  1  0.80167847  0.20385067  0.40059458  1
  Pd  Pd154  1  -0.00985080  0.40499191  0.39831491  1
  Pd  Pd155  1  0.38906612  0.80484206  0.60632159  1
  Pd  Pd156  1  0.00605445  0.80250991  0.80575369  1
  Pd  Pd157  1  0.79117584  0.59352609  -0.00387153  1
  Pd  Pd158  1  0.59358042  0.60288120  0.40371722  1
  Pd  Pd159  1  0.79531476  0.80031494  0.79400021  1
  Pd  Pd160  1  0.60613863  0.20602369  0.00125621  1
  Pd  Pd161  1  0.00579332  -0.00562523  0.61079637  1
  Pd  Pd162  1  0.39157440  0.59896896  0.19314250  1
  Pd  Pd163  1  0.39400209  0.39619555  0.39013487  1
  Pd  Pd164  1  0.39837014  -0.00230033  0.18772013  1
  Pd  Pd165  1  0.40093807  0.20808164  0.20929989  1
  Pd  Pd166  1  0.59611968  0.40510772  0.60563033  1
  Pd  Pd167  1  0.80319548  0.39052407  0.59300472  1
  Pd  Pd168  1  0.39627540  0.41055729  0.60539476  1
  Pd  Pd169  1  0.21172857  0.80938595  0.59849919  1
  Pd  Pd170  1  0.60302295  0.79431762  0.59502880  1
  Pd  Pd171  1  -0.00304047  0.41197874  0.81024335  1
  Pd  Pd172  1  0.39699112  0.19597708  -0.00573879  1
  Pd  Pd173  1  0.39638754  0.00462168  0.60579845  1
  Pd  Pd174  1  0.00641812  0.20122223  0.39583999  1
  Pd  Pd175  1  0.79987903  0.79886002  0.19107468  1
  Pd  Pd176  1  0.79770393  0.20343693  0.79404340  1
  Pd  Pd177  1  0.00196670  0.79218606  0.40988159  1
  Pd  Pd178  1  0.59707867  0.79632532  0.20683471  1
  Pd  Pd179  1  0.59432062  0.00077220  -0.00710761  1
  Pd  Pd180  1  0.59551435  0.00604080  0.59644773  1
  Pd  Pd181  1  0.21373990  0.59653416  -0.00116826  1
  Pd  Pd182  1  0.79962637  0.19310638  0.00510565  1
  Pd  Pd183  1  0.19852714  0.59919163  0.40725056  1
  Pd  Pd184  1  0.59238212  0.78844898  -0.00699723  1
  Pd  Pd185  1  0.40242786  0.20804239  0.81275940  1
  Pd  Pd186  1  0.20058923  0.60042242  0.59294998  1
  Pd  Pd187  1  0.00354928  0.79505662  0.19208486  1
  Pd  Pd188  1  0.00326703  0.79921763  0.59124536  1
  Pd  Pd189  1  0.60159098  0.21033727  0.79812459  1
  Pd  Pd190  1  0.39721018  0.59565857  0.39988123  1
  Pd  Pd191  1  0.21083784  0.38536416  0.79247784  1
  Pd  Pd192  1  0.60120226  0.80314928  0.79583430  1
  Pd  Pd193  1  0.80141999  0.80129733  0.00346495  1
  Pd  Pd194  1  0.20350803  0.39154878  0.61209374  1
  Pd  Pd195  1  0.20930661  0.80694213  0.40149727  1
  Pd  Pd196  1  0.21119410  -0.00313267  -0.00338175  1
  Pd  Pd197  1  0.79689256  0.19867763  0.19845754  1
  Pd  Pd198  1  0.60879722  0.40220393  -0.00591653  1
  Pd  Pd199  1  0.19811604  0.20297572  0.79659823  1
  Rh  Rh200  1  0.40356108  0.79830325  -0.00315564  1
  Rh  Rh201  1  0.38558576  0.59390236  0.81037962  1
  Rh  Rh202  1  0.40502534  0.18916000  0.59638743  1
  Rh  Rh203  1  0.78814966  0.81157493  0.40906505  1
  Rh  Rh204  1  0.79301571  0.80113381  0.60119041  1
  Rh  Rh205  1  0.39776633  0.00695888  0.39561393  1
  Rh  Rh206  1  0.20104863  0.59897260  0.19763860  1
  Rh  Rh207  1  0.19589838  0.80117136  -0.00339796  1
  Rh  Rh208  1  0.39755514  0.80269908  0.79254156  1
  Rh  Rh209  1  0.19528680  -0.00814012  0.20293109  1
  Rh  Rh210  1  0.19878426  0.20416218  0.61065234  1
  Rh  Rh211  1  0.20276284  0.60312548  0.80593828  1
  Rh  Rh212  1  0.80785923  0.58993847  0.39449674  1
  Rh  Rh213  1  0.79667141  0.60862555  0.60968563  1
  Rh  Rh214  1  0.19254490  0.39477091  0.00503035  1
  Rh  Rh215  1  0.19472727  0.19816354  0.00099470  1
  Rh  Rh216  1  0.39589605  0.40254620  -0.00976954  1
  Rh  Rh217  1  -0.00600599  0.00287755  0.39212607  1
  Rh  Rh218  1  0.39626843  0.39461518  0.20589772  1
  Rh  Rh219  1  -0.00497262  0.20253491  0.60613940  1
  Rh  Rh220  1  0.20214931  0.39666638  0.39825557  1
  Rh  Rh221  1  0.40721550  -0.00235886  0.80622910  1
  Rh  Rh222  1  0.79577325  0.40411141  0.80181392  1
  Rh  Rh223  1  0.20826130  0.79517613  0.80119299  1
  Rh  Rh224  1  0.58538454  0.19471280  0.39871177  1
  Rh  Rh225  1  0.20306865  0.80380174  0.20321321  1
  Rh  Rh226  1  0.39979138  0.79977985  0.39641993  1
  Rh  Rh227  1  0.60574982  0.39850418  0.20151347  1
  Rh  Rh228  1  0.60589917  -0.00321363  0.20891300  1
  Rh  Rh229  1  -0.00719848  0.00092627  -0.00368492  1
  Rh  Rh230  1  0.80091528  0.40432651  0.00170828  1
  Rh  Rh231  1  0.20067099  -0.00067876  0.60595187  1
  Rh  Rh232  1  0.00211863  0.59587659  0.00175725  1
  Rh  Rh233  1  0.60615226  0.41018441  0.39065171  1
  Rh  Rh234  1  0.00649575  0.40784986  0.19501885  1
  Rh  Rh235  1  0.59526714  0.21215600  0.19648504  1
  Rh  Rh236  1  0.20444042  0.19851410  0.39654814  1
  Rh  Rh237  1  0.00725654  0.19391625  0.19531230  1
  Rh  Rh238  1  0.60092880  0.60293017  0.18923084  1
  Rh  Rh239  1  0.80468369  -0.00381766  0.80300003  1
  Rh  Rh240  1  0.00457349  0.18952687  0.80714600  1
  Rh  Rh241  1  0.20183744  0.19928906  0.20333895  1
  Rh  Rh242  1  0.19133228  0.00276269  0.79723023  1
  Rh  Rh243  1  0.80564937  0.60019495  0.20320879  1
  Rh  Rh244  1  0.39668944  0.80344824  0.20148636  1
  Rh  Rh245  1  0.20494722  -0.00214115  0.39841007  1
  Rh  Rh246  1  0.20486772  0.39728235  0.20266989  1
  Rh  Rh247  1  0.79973633  0.00836179  0.59429741  1
  Rh  Rh248  1  0.59324117  -0.00569195  0.80234334  1
  Rh  Rh249  1  0.61099598  0.59813552  0.79496540  1
