# generated using pymatgen
data_ZrScNbPdRh
_symmetry_space_group_name_H-M   'P 1'
_cell_length_a   16.55713845
_cell_length_b   16.55999612
_cell_length_c   16.55832442
_cell_angle_alpha   90.03019728
_cell_angle_beta   89.97715319
_cell_angle_gamma   90.00327111
_symmetry_Int_Tables_number   1
_chemical_formula_structural   ZrScNbPdRh
_chemical_formula_sum   'Zr50 Sc50 Nb50 Pd50 Rh50'
_cell_volume   4540.06220168
_cell_formula_units_Z   50
loop_
 _symmetry_equiv_pos_site_id
 _symmetry_equiv_pos_as_xyz
  1  'x, y, z'
loop_
 _atom_site_type_symbol
 _atom_site_label
 _atom_site_symmetry_multiplicity
 _atom_site_fract_x
 _atom_site_fract_y
 _atom_site_fract_z
 _atom_site_occupancy
  Zr  Zr0  1  0.69957911  0.70667171  0.69606354  1
  Zr  Zr1  1  0.71403988  0.89711460  0.90348817  1
  Zr  Zr2  1  0.10408709  0.90496522  0.49416004  1
  Zr  Zr3  1  0.30311787  0.90090484  0.09478329  1
  Zr  Zr4  1  0.49437617  0.10323420  0.49459664  1
  Zr  Zr5  1  0.50225899  0.48830822  0.49580994  1
  Zr  Zr6  1  0.10357526  0.09457906  0.50947785  1
  Zr  Zr7  1  0.30322482  0.30019380  0.10023965  1
  Zr  Zr8  1  0.90139899  0.30398161  0.50458947  1
  Zr  Zr9  1  0.30590495  0.30456717  0.90011441  1
  Zr  Zr10  1  0.08704009  0.10252198  0.70119119  1
  Zr  Zr11  1  0.10332923  0.89345849  0.09923499  1
  Zr  Zr12  1  0.09808124  0.49976623  0.29539086  1
  Zr  Zr13  1  0.90122657  0.09519058  0.29717632  1
  Zr  Zr14  1  0.09019562  0.28593806  0.90118816  1
  Zr  Zr15  1  0.89745390  0.70946431  0.91175417  1
  Zr  Zr16  1  0.31063197  0.69227350  0.29574065  1
  Zr  Zr17  1  0.31318508  0.30963412  0.50910297  1
  Zr  Zr18  1  0.49879082  0.89228073  0.29914185  1
  Zr  Zr19  1  0.89893576  0.30006465  0.08732062  1
  Zr  Zr20  1  0.69222061  0.10910522  0.90065229  1
  Zr  Zr21  1  0.50520561  0.50381683  0.29481322  1
  Zr  Zr22  1  0.10035101  0.69444761  0.09954474  1
  Zr  Zr23  1  0.70122964  0.10004877  0.28601557  1
  Zr  Zr24  1  0.30703308  0.69777260  0.70008972  1
  Zr  Zr25  1  0.30603463  0.50354815  0.90258501  1
  Zr  Zr26  1  0.09954475  0.30192802  0.09903236  1
  Zr  Zr27  1  0.30252363  0.50336051  0.49742241  1
  Zr  Zr28  1  0.69821944  0.30055716  0.28786322  1
  Zr  Zr29  1  0.70347960  0.49806579  0.29963835  1
  Zr  Zr30  1  0.50109627  0.10605870  0.70612860  1
  Zr  Zr31  1  0.88954547  0.90517337  0.71365086  1
  Zr  Zr32  1  0.30621499  0.69466457  0.49958289  1
  Zr  Zr33  1  0.10715072  0.68897317  0.29342394  1
  Zr  Zr34  1  0.10243645  0.90586590  0.69337044  1
  Zr  Zr35  1  0.48465841  0.29619753  0.70000350  1
  Zr  Zr36  1  0.90183206  0.49882111  0.69563283  1
  Zr  Zr37  1  0.89907357  0.70086952  0.69363138  1
  Zr  Zr38  1  0.49467755  0.10215967  0.30130291  1
  Zr  Zr39  1  0.50797474  0.30117979  0.89814710  1
  Zr  Zr40  1  0.49802615  0.69970356  0.69416457  1
  Zr  Zr41  1  0.29671026  0.69834946  0.89811676  1
  Zr  Zr42  1  0.30123910  0.50115867  0.69118973  1
  Zr  Zr43  1  0.70331365  0.30309303  0.90978603  1
  Zr  Zr44  1  0.49867938  0.29710907  0.30609653  1
  Zr  Zr45  1  0.90387461  0.50373637  0.10238668  1
  Zr  Zr46  1  0.49810471  0.89216539  0.69468141  1
  Zr  Zr47  1  0.10258419  0.89640205  0.89970694  1
  Zr  Zr48  1  0.29757986  0.89410377  0.90267699  1
  Zr  Zr49  1  0.89212150  0.09814070  0.10787366  1
  Sc  Sc50  1  0.30499685  0.11421763  0.70167671  1
  Sc  Sc51  1  0.89092300  0.70411526  0.30081473  1
  Sc  Sc52  1  0.91457582  0.10199767  0.50044611  1
  Sc  Sc53  1  0.29279463  0.09701133  0.49366690  1
  Sc  Sc54  1  0.50251468  0.70315076  0.49566233  1
  Sc  Sc55  1  0.30009818  0.10112222  0.90797533  1
  Sc  Sc56  1  0.89576682  0.69366137  0.49650251  1
  Sc  Sc57  1  0.08904976  0.29891668  0.49728140  1
  Sc  Sc58  1  0.10371209  0.70174320  0.90837698  1
  Sc  Sc59  1  0.10211899  0.09368878  0.31845759  1
  Sc  Sc60  1  0.90462998  0.70375924  0.10456844  1
  Sc  Sc61  1  0.68633789  0.49649479  0.90294952  1
  Sc  Sc62  1  0.49980932  0.89231832  0.49150076  1
  Sc  Sc63  1  0.90441803  0.88597501  0.49309710  1
  Sc  Sc64  1  0.49919047  0.90746728  0.91661960  1
  Sc  Sc65  1  0.69447664  0.70949947  0.10032970  1
  Sc  Sc66  1  0.90399845  0.49853094  0.49778685  1
  Sc  Sc67  1  0.51126854  0.08925623  0.09586975  1
  Sc  Sc68  1  0.10067605  0.10136120  0.09260467  1
  Sc  Sc69  1  0.69527646  0.89209735  0.29976766  1
  Sc  Sc70  1  0.30757163  0.29597031  0.30522404  1
  Sc  Sc71  1  0.50468414  0.89576809  0.10335938  1
  Sc  Sc72  1  0.69827190  0.69866035  0.30195095  1
  Sc  Sc73  1  0.90536661  0.30860891  0.70404689  1
  Sc  Sc74  1  0.29774033  0.49747196  0.09234747  1
  Sc  Sc75  1  0.08951204  0.69305059  0.49934568  1
  Sc  Sc76  1  0.89928648  0.09957086  0.88635320  1
  Sc  Sc77  1  0.29650847  0.88621308  0.69873819  1
  Sc  Sc78  1  0.69604026  0.30299754  0.71386622  1
  Sc  Sc79  1  0.70308478  0.70401107  0.49458024  1
  Sc  Sc80  1  0.50048596  0.68767326  0.90965740  1
  Sc  Sc81  1  0.69416135  0.09843203  0.49086471  1
  Sc  Sc82  1  0.69712174  0.70200908  0.90656241  1
  Sc  Sc83  1  0.29620917  0.89717900  0.30034277  1
  Sc  Sc84  1  0.29631765  0.89939773  0.50373869  1
  Sc  Sc85  1  0.89848603  0.48738429  0.90532436  1
  Sc  Sc86  1  0.50428019  0.50508911  0.09278217  1
  Sc  Sc87  1  0.10201128  0.50594012  0.10466850  1
  Sc  Sc88  1  0.69494016  0.31203320  0.49538566  1
  Sc  Sc89  1  0.30212232  0.09936141  0.10223299  1
  Sc  Sc90  1  0.09574709  0.49938122  0.69042127  1
  Sc  Sc91  1  0.89370544  0.89815282  0.10275060  1
  Sc  Sc92  1  0.69920824  0.50389730  0.49567177  1
  Sc  Sc93  1  0.69616560  0.48711897  0.10255175  1
  Sc  Sc94  1  0.69547257  0.50168315  0.69908032  1
  Sc  Sc95  1  0.90355244  0.31203467  0.30261069  1
  Sc  Sc96  1  0.50594378  0.50390700  0.70399194  1
  Sc  Sc97  1  0.10419918  0.70077192  0.69836981  1
  Sc  Sc98  1  0.09580807  0.90167107  0.29695845  1
  Sc  Sc99  1  0.10480043  0.51048123  0.90760305  1
  Nb  Nb100  1  0.29797076  0.30528122  0.70085767  1
  Nb  Nb101  1  0.30328382  0.10381742  0.29972790  1
  Nb  Nb102  1  0.70360420  0.09851844  0.10230462  1
  Nb  Nb103  1  0.09439230  0.09834579  0.89570921  1
  Nb  Nb104  1  0.10281327  0.30248846  0.29997739  1
  Nb  Nb105  1  0.49861664  0.10243386  0.90034759  1
  Nb  Nb106  1  0.69904166  0.28592365  0.09823887  1
  Nb  Nb107  1  0.10160255  0.30077681  0.70259868  1
  Nb  Nb108  1  0.89657446  0.50500474  0.29707586  1
  Nb  Nb109  1  0.09991737  0.50051088  0.49244045  1
  Nb  Nb110  1  0.29972214  0.50011496  0.30428986  1
  Nb  Nb111  1  0.69493766  0.91578610  0.09892027  1
  Nb  Nb112  1  0.70166688  0.09793519  0.70199142  1
  Nb  Nb113  1  0.89781358  0.90521453  0.30172985  1
  Nb  Nb114  1  0.49909901  0.29869473  0.50012242  1
  Nb  Nb115  1  0.50107734  0.70721209  0.28610614  1
  Nb  Nb116  1  0.90149016  0.89867000  0.90267306  1
  Nb  Nb117  1  0.89986916  0.30223739  0.90497143  1
  Nb  Nb118  1  0.69659929  0.89789757  0.50030042  1
  Nb  Nb119  1  0.50192471  0.30173505  0.10422877  1
  Nb  Nb120  1  0.49474054  0.69950048  0.11226438  1
  Nb  Nb121  1  0.50151383  0.49543439  0.90877225  1
  Nb  Nb122  1  0.30572062  0.70048379  0.09903371  1
  Nb  Nb123  1  0.69815453  0.90080129  0.70049117  1
  Nb  Nb124  1  0.89253075  0.09746985  0.69363937  1
  Nb  Nb125  1  0.19644176  0.20082813  0.20889934  1
  Nb  Nb126  1  0.60170491  0.19856622  0.60026823  1
  Nb  Nb127  1  0.59993314  -0.00358992  0.79889874  1
  Nb  Nb128  1  0.79556976  0.19487104  0.60000872  1
  Nb  Nb129  1  -0.00802474  0.60544582  0.80256487  1
  Nb  Nb130  1  0.79390582  0.00073148  0.59599902  1
  Nb  Nb131  1  0.19816785  0.40353042  0.39922183  1
  Nb  Nb132  1  0.80108728  0.19834104  0.40044458  1
  Nb  Nb133  1  0.39981121  -0.00116390  0.80040356  1
  Nb  Nb134  1  0.40998545  0.20262891  0.00275121  1
  Nb  Nb135  1  -0.00178795  -0.00188249  -0.00606440  1
  Nb  Nb136  1  0.19738898  0.21030099  0.60613001  1
  Nb  Nb137  1  0.40329554  0.40024392  0.20095087  1
  Nb  Nb138  1  0.20048348  0.00463269  0.80006009  1
  Nb  Nb139  1  0.00686426  0.20382909  0.20328994  1
  Nb  Nb140  1  0.60169138  0.00063290  0.60191726  1
  Nb  Nb141  1  -0.00331315  0.80017648  0.80173511  1
  Nb  Nb142  1  0.79879879  0.59745739  0.00058927  1
  Nb  Nb143  1  0.60061574  0.80537544  0.80075383  1
  Nb  Nb144  1  0.19917488  0.78947369  0.39799282  1
  Nb  Nb145  1  0.19935777  0.39501992  0.79606693  1
  Nb  Nb146  1  0.80036567  -0.00176350  0.40093751  1
  Nb  Nb147  1  0.40398764  0.00129881  0.60498870  1
  Nb  Nb148  1  0.40003448  0.00141725  0.20443405  1
  Nb  Nb149  1  0.80389850  0.60180108  0.80515316  1
  Pd  Pd150  1  0.59792275  0.39121079  0.60777194  1
  Pd  Pd151  1  0.20535157  0.19712297  0.00460006  1
  Pd  Pd152  1  0.20136940  0.00865929  0.20556028  1
  Pd  Pd153  1  0.80363492  0.39451103  0.19217555  1
  Pd  Pd154  1  0.20448665  0.21120791  0.40692990  1
  Pd  Pd155  1  0.19121665  0.59295421  0.79350306  1
  Pd  Pd156  1  0.39130768  -0.00715722  0.40043538  1
  Pd  Pd157  1  0.80225132  0.80666767  0.59377541  1
  Pd  Pd158  1  0.41403936  0.60113266  0.39911198  1
  Pd  Pd159  1  0.79982950  0.39903848  0.40006867  1
  Pd  Pd160  1  0.19199833  0.39885495  -0.00904014  1
  Pd  Pd161  1  0.19033049  0.39645788  0.59438023  1
  Pd  Pd162  1  0.19539534  0.00518147  -0.00527320  1
  Pd  Pd163  1  -0.00245231  0.79811147  0.20680867  1
  Pd  Pd164  1  0.00825856  0.00471361  0.19192179  1
  Pd  Pd165  1  0.19707307  0.78935905  0.58949104  1
  Pd  Pd166  1  -0.01316959  0.20270202  0.79477784  1
  Pd  Pd167  1  0.39611207  0.58637860  0.19128768  1
  Pd  Pd168  1  0.00629270  0.79385785  0.38980466  1
  Pd  Pd169  1  0.40109320  0.41073238  0.79740717  1
  Pd  Pd170  1  -0.00819351  0.59991177  0.39305009  1
  Pd  Pd171  1  0.60932120  0.60156408  0.19294109  1
  Pd  Pd172  1  0.19420060  0.60400417  0.59751305  1
  Pd  Pd173  1  0.79185408  0.39498217  0.60369891  1
  Pd  Pd174  1  0.79391680  0.60406477  0.19222022  1
  Pd  Pd175  1  0.60848201  0.20641977  0.40288627  1
  Pd  Pd176  1  0.20698386  0.79577557  0.20285540  1
  Pd  Pd177  1  0.79549136  0.59491067  0.59939534  1
  Pd  Pd178  1  0.21101030  0.39658005  0.20711399  1
  Pd  Pd179  1  0.59649076  0.79979903  -0.00028834  1
  Pd  Pd180  1  0.59200282  0.19534791  0.19396505  1
  Pd  Pd181  1  0.60543635  0.60644212  0.80497189  1
  Pd  Pd182  1  0.79512423  0.40856655  0.80308758  1
  Pd  Pd183  1  0.01111147  0.40891321  0.80822935  1
  Pd  Pd184  1  -0.00327913  0.39794887  0.19773013  1
  Pd  Pd185  1  0.80645549  0.19070297  -0.00536490  1
  Pd  Pd186  1  0.80548669  0.00879980  -0.00652317  1
  Pd  Pd187  1  -0.00060552  0.80423943  0.60473910  1
  Pd  Pd188  1  0.80554779  0.20660282  0.79573759  1
  Pd  Pd189  1  0.60000276  0.60170464  0.59079231  1
  Pd  Pd190  1  0.01010676  0.40789464  -0.00356595  1
  Pd  Pd191  1  0.60426237  -0.00422741  0.39631146  1
  Pd  Pd192  1  -0.01366847  -0.01220775  0.59493609  1
  Pd  Pd193  1  0.79360548  0.80497888  0.19808522  1
  Pd  Pd194  1  0.40707315  0.79293780  -0.00058656  1
  Pd  Pd195  1  -0.00441726  0.20206175  0.39288211  1
  Pd  Pd196  1  0.41223235  0.80347800  0.81326829  1
  Pd  Pd197  1  0.20379210  0.19976218  0.79939514  1
  Pd  Pd198  1  0.40624760  0.59510753  0.80186035  1
  Pd  Pd199  1  0.59705939  0.60558267  0.39833306  1
  Rh  Rh200  1  0.59969931  0.39430259  0.00671895  1
  Rh  Rh201  1  0.00494512  0.40004492  0.59626724  1
  Rh  Rh202  1  0.21267232  0.01641657  0.61495271  1
  Rh  Rh203  1  -0.00631194  -0.00577570  0.40535722  1
  Rh  Rh204  1  0.39814069  0.80379974  0.58960386  1
  Rh  Rh205  1  0.00143247  0.80902720  0.00150646  1
  Rh  Rh206  1  0.60407910  0.60123034  0.00684728  1
  Rh  Rh207  1  0.79234767  -0.01267528  0.20710844  1
  Rh  Rh208  1  0.39487142  0.80848668  0.19706013  1
  Rh  Rh209  1  0.60435452  0.80270825  0.19641838  1
  Rh  Rh210  1  0.39990106  0.00758461  0.00544813  1
  Rh  Rh211  1  0.60117599  0.20284125  0.79703947  1
  Rh  Rh212  1  0.60833156  0.00242345  -0.00610019  1
  Rh  Rh213  1  0.19912920  0.59758841  0.40136424  1
  Rh  Rh214  1  0.59478033  0.39742045  0.19843743  1
  Rh  Rh215  1  0.60116143  0.80013189  0.59864400  1
  Rh  Rh216  1  0.79417570  0.40331260  0.00390663  1
  Rh  Rh217  1  0.20423082  -0.00985706  0.39340937  1
  Rh  Rh218  1  0.41033036  0.40848485  0.60673798  1
  Rh  Rh219  1  0.41089640  0.59592080  0.59480428  1
  Rh  Rh220  1  0.39407990  0.19726377  0.81389831  1
  Rh  Rh221  1  0.79794516  0.80547260  0.39870671  1
  Rh  Rh222  1  0.39998007  0.60261053  0.00422931  1
  Rh  Rh223  1  0.60142735  0.39860361  0.39357391  1
  Rh  Rh224  1  0.00020970  0.59706886  0.60120788  1
  Rh  Rh225  1  0.39599832  0.19447943  0.59164176  1
  Rh  Rh226  1  0.79259030  0.00483005  0.80419508  1
  Rh  Rh227  1  -0.01052929  0.18644189  0.00301419  1
  Rh  Rh228  1  0.59600285  -0.00247046  0.20456139  1
  Rh  Rh229  1  0.21089810  0.59705679  0.19255380  1
  Rh  Rh230  1  0.81291585  0.21230329  0.20562352  1
  Rh  Rh231  1  0.00335065  0.40821457  0.39734998  1
  Rh  Rh232  1  0.20280535  0.79173313  0.00700977  1
  Rh  Rh233  1  0.40977112  0.39664933  0.00728667  1
  Rh  Rh234  1  -0.00928513  0.59711773  -0.00403724  1
  Rh  Rh235  1  0.39912486  0.40220756  0.39175332  1
  Rh  Rh236  1  0.19110300  0.80313414  0.79511582  1
  Rh  Rh237  1  -0.00832077  0.60402443  0.20570495  1
  Rh  Rh238  1  0.39369645  0.79497309  0.39744656  1
  Rh  Rh239  1  0.79754152  0.79990365  0.01313224  1
  Rh  Rh240  1  0.39166943  0.20210357  0.40791739  1
  Rh  Rh241  1  0.80108903  0.59498295  0.39768249  1
  Rh  Rh242  1  0.00544138  -0.00692326  0.80437414  1
  Rh  Rh243  1  0.60023166  0.79393764  0.39633173  1
  Rh  Rh244  1  -0.00223322  0.20802730  0.60801420  1
  Rh  Rh245  1  0.59563956  0.19974648  0.00819212  1
  Rh  Rh246  1  0.20779943  0.60533845  0.00610083  1
  Rh  Rh247  1  0.79839613  0.79162377  0.80118074  1
  Rh  Rh248  1  0.39725056  0.19702025  0.19200100  1
  Rh  Rh249  1  0.59486893  0.40027573  0.79921761  1
