# generated using pymatgen
data_ZrScNbPdRh
_symmetry_space_group_name_H-M   'P 1'
_cell_length_a   16.56260450
_cell_length_b   16.56399367
_cell_length_c   16.55916123
_cell_angle_alpha   90.00411833
_cell_angle_beta   90.02200886
_cell_angle_gamma   89.99995130
_symmetry_Int_Tables_number   1
_chemical_formula_structural   ZrScNbPdRh
_chemical_formula_sum   'Zr50 Sc50 Nb50 Pd50 Rh50'
_cell_volume   4542.88757163
_cell_formula_units_Z   50
loop_
 _symmetry_equiv_pos_site_id
 _symmetry_equiv_pos_as_xyz
  1  'x, y, z'
loop_
 _atom_site_type_symbol
 _atom_site_label
 _atom_site_symmetry_multiplicity
 _atom_site_fract_x
 _atom_site_fract_y
 _atom_site_fract_z
 _atom_site_occupancy
  Zr  Zr0  1  0.69897136  0.30521990  0.29177657  1
  Zr  Zr1  1  0.10986255  0.49933291  0.30281859  1
  Zr  Zr2  1  0.89725810  0.90598908  0.69858637  1
  Zr  Zr3  1  0.10772730  0.89954706  0.29018540  1
  Zr  Zr4  1  0.31000963  0.69883918  0.89868119  1
  Zr  Zr5  1  0.90421410  0.30685961  0.50237935  1
  Zr  Zr6  1  0.70560460  0.49299728  0.09872809  1
  Zr  Zr7  1  0.70270555  0.90158974  0.09283138  1
  Zr  Zr8  1  0.70234416  0.09495597  0.70588305  1
  Zr  Zr9  1  0.10343125  0.69796099  0.70340616  1
  Zr  Zr10  1  0.10570689  0.09157374  0.10486048  1
  Zr  Zr11  1  0.90331539  0.50929414  0.90278382  1
  Zr  Zr12  1  0.10298933  0.90087193  0.70152594  1
  Zr  Zr13  1  0.49252417  0.89478216  0.89614161  1
  Zr  Zr14  1  0.70529889  0.30627451  0.49873803  1
  Zr  Zr15  1  0.90084070  0.50072103  0.30539045  1
  Zr  Zr16  1  0.29489451  0.09850905  0.49877601  1
  Zr  Zr17  1  0.89255521  0.29601605  0.89174942  1
  Zr  Zr18  1  0.29526288  0.51038990  0.49556611  1
  Zr  Zr19  1  0.50048848  0.09895580  0.70783319  1
  Zr  Zr20  1  0.70324012  0.50556865  0.50040774  1
  Zr  Zr21  1  0.29204308  0.29710920  0.49954711  1
  Zr  Zr22  1  0.90117713  0.28891645  0.69868366  1
  Zr  Zr23  1  0.50051311  0.50788914  0.90517957  1
  Zr  Zr24  1  0.49888579  0.69306315  0.50194860  1
  Zr  Zr25  1  0.10028209  0.30537310  0.09830343  1
  Zr  Zr26  1  0.69916253  0.08902214  0.90529744  1
  Zr  Zr27  1  0.69600184  0.89792790  0.30794822  1
  Zr  Zr28  1  0.90245909  0.10182016  0.29809504  1
  Zr  Zr29  1  0.70537345  0.70420691  0.69577091  1
  Zr  Zr30  1  0.29642700  0.30260606  0.69969881  1
  Zr  Zr31  1  0.30012526  0.69640665  0.69939455  1
  Zr  Zr32  1  0.49724621  0.29475226  0.28758228  1
  Zr  Zr33  1  0.90113933  0.09932577  0.88831309  1
  Zr  Zr34  1  0.69633219  0.89618347  0.50074553  1
  Zr  Zr35  1  0.89980221  0.49396902  0.49831389  1
  Zr  Zr36  1  0.08693066  0.50191938  0.49697464  1
  Zr  Zr37  1  0.29496636  0.90219644  0.10409642  1
  Zr  Zr38  1  0.70209178  0.50830171  0.70353670  1
  Zr  Zr39  1  0.69930785  0.09188309  0.49793620  1
  Zr  Zr40  1  0.50299861  0.30045571  0.70444581  1
  Zr  Zr41  1  0.29674951  0.89087239  0.69725264  1
  Zr  Zr42  1  0.50029258  0.70011841  0.29399388  1
  Zr  Zr43  1  0.69883255  0.89758620  0.69282091  1
  Zr  Zr44  1  0.29534917  0.10633244  0.70277004  1
  Zr  Zr45  1  0.29530505  0.49674853  0.10588797  1
  Zr  Zr46  1  0.49765739  0.90327681  0.29592728  1
  Zr  Zr47  1  0.70361776  0.30059240  0.71442684  1
  Zr  Zr48  1  0.69567617  0.70786220  0.49394990  1
  Zr  Zr49  1  0.10047498  0.30257371  0.89803353  1
  Sc  Sc50  1  0.10250851  0.69299901  0.90094456  1
  Sc  Sc51  1  0.70223675  0.49988581  0.29756272  1
  Sc  Sc52  1  0.68685467  0.09925086  0.29755041  1
  Sc  Sc53  1  0.90235150  0.10108479  0.50854454  1
  Sc  Sc54  1  0.70011408  0.89801014  0.89573977  1
  Sc  Sc55  1  0.90786883  0.30337605  0.29945902  1
  Sc  Sc56  1  0.50358774  0.50508320  0.30002640  1
  Sc  Sc57  1  0.90062623  0.69709387  0.90762870  1
  Sc  Sc58  1  0.30666929  0.70515624  0.09910246  1
  Sc  Sc59  1  0.10523055  0.09805836  0.49564544  1
  Sc  Sc60  1  0.70923969  0.68819881  0.09991250  1
  Sc  Sc61  1  0.70724428  0.69649276  0.89950985  1
  Sc  Sc62  1  0.09564490  0.49908972  0.09348608  1
  Sc  Sc63  1  0.10610719  0.89593976  0.09912696  1
  Sc  Sc64  1  0.30032712  0.09024453  0.30196766  1
  Sc  Sc65  1  0.09814833  0.30237906  0.49673155  1
  Sc  Sc66  1  0.29864647  0.90541383  0.90791832  1
  Sc  Sc67  1  0.48605171  0.90447253  0.10249715  1
  Sc  Sc68  1  0.89728136  0.30795927  0.11027467  1
  Sc  Sc69  1  0.49970932  0.09563110  0.29348463  1
  Sc  Sc70  1  0.89104015  0.89861462  0.90473553  1
  Sc  Sc71  1  0.50431107  0.89321458  0.70412780  1
  Sc  Sc72  1  0.09259212  0.09505840  0.70267068  1
  Sc  Sc73  1  0.50688798  0.50765849  0.09630511  1
  Sc  Sc74  1  0.10092762  0.70065893  0.29834120  1
  Sc  Sc75  1  0.90305366  0.88606081  0.09946091  1
  Sc  Sc76  1  0.10514276  0.09826638  0.88709609  1
  Sc  Sc77  1  0.90344490  0.51106762  0.69362605  1
  Sc  Sc78  1  0.50720246  0.89553642  0.49962357  1
  Sc  Sc79  1  0.29436863  0.68983864  0.29318799  1
  Sc  Sc80  1  0.29694895  0.50613876  0.90615091  1
  Sc  Sc81  1  0.88930070  0.89012889  0.29360186  1
  Sc  Sc82  1  0.10291175  0.30205089  0.69755494  1
  Sc  Sc83  1  0.88583217  0.90524454  0.50076241  1
  Sc  Sc84  1  0.10190882  0.50364104  0.90589227  1
  Sc  Sc85  1  0.10667240  0.69189688  0.49575480  1
  Sc  Sc86  1  0.29770521  0.30955437  0.90726265  1
  Sc  Sc87  1  0.90234941  0.10417332  0.10724756  1
  Sc  Sc88  1  0.31024187  0.09466173  0.09656371  1
  Sc  Sc89  1  0.11068803  0.90090493  0.50343828  1
  Sc  Sc90  1  0.10223184  0.50522258  0.70178365  1
  Sc  Sc91  1  0.29322140  0.90153070  0.49859142  1
  Sc  Sc92  1  0.10254559  0.10084351  0.30147810  1
  Sc  Sc93  1  0.31630208  0.30367612  0.10444821  1
  Sc  Sc94  1  0.49993617  0.09983219  0.49419410  1
  Sc  Sc95  1  0.70229159  0.49633020  0.90605700  1
  Sc  Sc96  1  0.49827875  0.09143362  0.90777893  1
  Sc  Sc97  1  0.90160652  0.68257269  0.49651406  1
  Sc  Sc98  1  0.50280086  0.29942995  0.49501523  1
  Sc  Sc99  1  0.09674129  0.70888105  0.09874944  1
  Nb  Nb100  1  0.69407443  0.29766280  0.09488694  1
  Nb  Nb101  1  0.69199874  0.09937295  0.10059234  1
  Nb  Nb102  1  0.69649024  0.30386795  0.90776797  1
  Nb  Nb103  1  0.49505534  0.69757769  0.90668411  1
  Nb  Nb104  1  0.49359814  0.69924765  0.70897745  1
  Nb  Nb105  1  0.50009175  0.69952930  0.09472236  1
  Nb  Nb106  1  0.30373409  0.89469668  0.29551371  1
  Nb  Nb107  1  0.09594450  0.90404658  0.90063468  1
  Nb  Nb108  1  0.29657523  0.48982559  0.29852982  1
  Nb  Nb109  1  0.29930975  0.10500490  0.90151576  1
  Nb  Nb110  1  0.29746080  0.30821457  0.29826683  1
  Nb  Nb111  1  0.50604602  0.28934138  0.09428605  1
  Nb  Nb112  1  0.49839680  0.50480142  0.69815743  1
  Nb  Nb113  1  0.70599693  0.71214589  0.29776774  1
  Nb  Nb114  1  0.50489148  0.30629193  0.90290829  1
  Nb  Nb115  1  0.89397718  0.70427335  0.29240337  1
  Nb  Nb116  1  0.30528470  0.49976810  0.70350857  1
  Nb  Nb117  1  0.50035744  0.50128302  0.50107724  1
  Nb  Nb118  1  0.30119598  0.70528538  0.49931903  1
  Nb  Nb119  1  0.89741479  0.50936998  0.10280718  1
  Nb  Nb120  1  0.90504235  0.69715875  0.70463671  1
  Nb  Nb121  1  0.11165494  0.30069423  0.30247441  1
  Nb  Nb122  1  0.89796918  0.69753038  0.10505176  1
  Nb  Nb123  1  0.50398253  0.10531660  0.10679053  1
  Nb  Nb124  1  0.89929779  0.10060292  0.70589779  1
  Nb  Nb125  1  -0.00285410  0.80266755  0.40200756  1
  Nb  Nb126  1  -0.00030861  0.80074633  0.79693146  1
  Nb  Nb127  1  0.60014948  0.79648386  0.19341366  1
  Nb  Nb128  1  0.19926966  0.19761668  0.00375165  1
  Nb  Nb129  1  0.59396675  0.79259528  0.00316879  1
  Nb  Nb130  1  0.79255111  0.00157219  0.19647437  1
  Nb  Nb131  1  -0.00326932  0.40129899  0.79997339  1
  Nb  Nb132  1  0.00330842  0.00276984  -0.00288023  1
  Nb  Nb133  1  0.20613080  0.20543688  0.20006531  1
  Nb  Nb134  1  0.59708852  0.40420047  0.60250708  1
  Nb  Nb135  1  0.39317268  0.20831558  0.39363677  1
  Nb  Nb136  1  0.79374719  0.20172041  0.00407496  1
  Nb  Nb137  1  -0.00094716  -0.00965279  0.39524427  1
  Nb  Nb138  1  0.79946441  0.20175218  0.39868778  1
  Nb  Nb139  1  0.39699948  0.00174659  0.60361555  1
  Nb  Nb140  1  0.39373109  0.79562182  0.39807987  1
  Nb  Nb141  1  0.40411265  0.40328221  0.79732478  1
  Nb  Nb142  1  0.00020477  0.19710668  -0.00161418  1
  Nb  Nb143  1  0.39660142  0.40219838  0.39954345  1
  Nb  Nb144  1  -0.00032709  0.79642317  0.60007173  1
  Nb  Nb145  1  0.59141232  0.60619688  0.79906261  1
  Nb  Nb146  1  0.60497543  0.20457834  0.60328354  1
  Nb  Nb147  1  0.40299180  0.40773629  0.59820535  1
  Nb  Nb148  1  0.40062820  0.20726316  0.80935156  1
  Nb  Nb149  1  -0.00797950  0.60218230  0.19889069  1
  Pd  Pd150  1  0.39633693  0.60003041  0.60052562  1
  Pd  Pd151  1  0.59411913  0.40432604  0.40178908  1
  Pd  Pd152  1  -0.01005069  -0.01219105  0.19875112  1
  Pd  Pd153  1  0.01128887  0.20431638  0.19824887  1
  Pd  Pd154  1  0.80825362  0.79783150  0.80316586  1
  Pd  Pd155  1  0.60060904  0.60385972  0.60497085  1
  Pd  Pd156  1  0.79462678  0.19458030  0.59508265  1
  Pd  Pd157  1  0.59908485  0.19910749  0.40056150  1
  Pd  Pd158  1  0.58785151  -0.01064273  0.00392619  1
  Pd  Pd159  1  0.00569954  0.40881698  0.20528321  1
  Pd  Pd160  1  0.80377190  0.00671445  0.39099916  1
  Pd  Pd161  1  0.79182563  0.19596496  0.20093860  1
  Pd  Pd162  1  0.40405995  0.80646592  0.59348425  1
  Pd  Pd163  1  0.19876164  0.40939079  0.59475696  1
  Pd  Pd164  1  0.19800466  0.79962662  0.81209150  1
  Pd  Pd165  1  0.20070306  0.79726134  0.39656120  1
  Pd  Pd166  1  0.39231633  0.00200085  0.79690225  1
  Pd  Pd167  1  0.40534708  0.40500688  -0.00018083  1
  Pd  Pd168  1  0.20216638  0.60720805  0.00758425  1
  Pd  Pd169  1  0.40901690  0.19980104  0.59530657  1
  Pd  Pd170  1  -0.01078035  0.39568402  -0.00584932  1
  Pd  Pd171  1  0.79944195  0.40405655  0.61129213  1
  Pd  Pd172  1  0.39455112  0.60030128  0.39202219  1
  Pd  Pd173  1  0.60071542  0.19621354  -0.00798804  1
  Pd  Pd174  1  0.79458673  0.60467341  0.39425907  1
  Pd  Pd175  1  0.81232473  0.78974515  0.59193413  1
  Pd  Pd176  1  -0.00210366  0.19590722  0.40141691  1
  Pd  Pd177  1  0.59054458  0.00485809  0.59983309  1
  Pd  Pd178  1  0.81001571  0.41139630  0.79589728  1
  Pd  Pd179  1  0.19846024  0.59767881  0.60028886  1
  Pd  Pd180  1  0.18660229  0.19510252  0.60240515  1
  Pd  Pd181  1  0.00001542  0.80196037  -0.00889113  1
  Pd  Pd182  1  0.40149571  -0.00564279  0.40743922  1
  Pd  Pd183  1  0.19805475  0.41001058  0.80360217  1
  Pd  Pd184  1  0.19006805  0.60403182  0.19094643  1
  Pd  Pd185  1  0.80900154  0.39538320  0.00319044  1
  Pd  Pd186  1  0.59755678  0.41251163  0.80212830  1
  Pd  Pd187  1  0.00055538  -0.00565928  0.59002582  1
  Pd  Pd188  1  0.59865628  0.19483440  0.80975429  1
  Pd  Pd189  1  0.60070940  0.79256109  0.80806015  1
  Pd  Pd190  1  0.60941124  0.60559305  0.20090009  1
  Pd  Pd191  1  0.81370682  0.00880564  0.00991050  1
  Pd  Pd192  1  0.20687951  -0.00264211  0.80094150  1
  Pd  Pd193  1  0.39888148  0.59467584  0.19688920  1
  Pd  Pd194  1  0.60686363  0.60143056  0.39289194  1
  Pd  Pd195  1  0.41192270  0.40904786  0.20030353  1
  Pd  Pd196  1  0.59335436  0.40160867  0.19172573  1
  Pd  Pd197  1  0.00767844  0.19709447  0.59889194  1
  Pd  Pd198  1  0.39804577  0.19982591  -0.00366755  1
  Pd  Pd199  1  0.20220447  0.79804275  -0.00430127  1
  Rh  Rh200  1  0.79276375  0.79232925  0.00283945  1
  Rh  Rh201  1  0.79973148  0.00661953  0.60496080  1
  Rh  Rh202  1  0.20618430  0.59654010  0.80233395  1
  Rh  Rh203  1  0.79001686  0.80538329  0.19130597  1
  Rh  Rh204  1  0.20827622  0.00416941  0.20236022  1
  Rh  Rh205  1  0.00335836  0.60429119  0.60099334  1
  Rh  Rh206  1  0.20599422  0.19777885  0.39018895  1
  Rh  Rh207  1  0.00202414  0.59968070  0.80286055  1
  Rh  Rh208  1  0.79809775  0.60100418  0.80162790  1
  Rh  Rh209  1  0.60250442  -0.00879443  0.80157523  1
  Rh  Rh210  1  0.40073408  0.59567939  0.80192123  1
  Rh  Rh211  1  0.00263422  0.79333528  0.20679264  1
  Rh  Rh212  1  0.20553246  0.20453335  0.80718434  1
  Rh  Rh213  1  -0.00652152  -0.01078161  0.80536960  1
  Rh  Rh214  1  0.00846088  0.20719336  0.79750511  1
  Rh  Rh215  1  0.39459829  0.19333485  0.20527630  1
  Rh  Rh216  1  0.59498875  0.39940482  0.00688988  1
  Rh  Rh217  1  0.00031409  0.60892934  0.38647462  1
  Rh  Rh218  1  0.19637454  0.39567844  0.19370854  1
  Rh  Rh219  1  0.19363777  -0.00495763  0.39250835  1
  Rh  Rh220  1  0.39442103  0.80061433  0.80113668  1
  Rh  Rh221  1  0.00030796  0.40187289  0.60978663  1
  Rh  Rh222  1  0.78724665  0.19372663  0.81111497  1
  Rh  Rh223  1  0.19380105  0.00707920  -0.00626741  1
  Rh  Rh224  1  0.60751046  0.60595426  -0.00734237  1
  Rh  Rh225  1  0.40188603  0.00215983  0.00230836  1
  Rh  Rh226  1  0.40125034  0.80452156  0.00117656  1
  Rh  Rh227  1  0.00711164  0.39522724  0.39420314  1
  Rh  Rh228  1  0.20325176  0.60137308  0.39688520  1
  Rh  Rh229  1  0.20523858  0.00551813  0.60656682  1
  Rh  Rh230  1  0.39263218  0.59648194  0.00976846  1
  Rh  Rh231  1  0.19984576  0.40324844  0.40895495  1
  Rh  Rh232  1  0.80233758  0.59609024  0.20707708  1
  Rh  Rh233  1  0.80073266  0.59845441  -0.00087090  1
  Rh  Rh234  1  0.79772123  -0.00566310  0.79620424  1
  Rh  Rh235  1  0.80073280  0.60474721  0.59794333  1
  Rh  Rh236  1  0.00126838  0.60604619  0.01047108  1
  Rh  Rh237  1  0.59372323  -0.00178875  0.40128075  1
  Rh  Rh238  1  0.80248817  0.39328138  0.39182450  1
  Rh  Rh239  1  0.81110556  0.79252951  0.40827393  1
  Rh  Rh240  1  0.60261639  0.20113462  0.19707458  1
  Rh  Rh241  1  0.40077864  0.79620889  0.20380584  1
  Rh  Rh242  1  0.80007205  0.40188507  0.19994563  1
  Rh  Rh243  1  0.59181817  0.79082554  0.60476506  1
  Rh  Rh244  1  0.39786401  0.00566633  0.19774996  1
  Rh  Rh245  1  0.60256486  -0.00793527  0.19357284  1
  Rh  Rh246  1  0.20542099  0.79523439  0.19748603  1
  Rh  Rh247  1  0.58811782  0.79695414  0.39227651  1
  Rh  Rh248  1  0.19460763  0.79174904  0.59570033  1
  Rh  Rh249  1  0.20554508  0.39663319  0.00634712  1
