# generated using pymatgen
data_ZrScNbPdRh
_symmetry_space_group_name_H-M   'P 1'
_cell_length_a   16.55559500
_cell_length_b   16.56104943
_cell_length_c   16.56185825
_cell_angle_alpha   89.98385993
_cell_angle_beta   89.98766037
_cell_angle_gamma   90.01560591
_symmetry_Int_Tables_number   1
_chemical_formula_structural   ZrScNbPdRh
_chemical_formula_sum   'Zr50 Sc50 Nb50 Pd50 Rh50'
_cell_volume   4540.89716596
_cell_formula_units_Z   50
loop_
 _symmetry_equiv_pos_site_id
 _symmetry_equiv_pos_as_xyz
  1  'x, y, z'
loop_
 _atom_site_type_symbol
 _atom_site_label
 _atom_site_symmetry_multiplicity
 _atom_site_fract_x
 _atom_site_fract_y
 _atom_site_fract_z
 _atom_site_occupancy
  Zr  Zr0  1  0.69842210  0.69328067  0.90517673  1
  Zr  Zr1  1  0.30471848  0.69601614  0.10304431  1
  Zr  Zr2  1  0.89290482  0.91115406  0.69239071  1
  Zr  Zr3  1  0.30368618  0.10697283  0.70047206  1
  Zr  Zr4  1  0.30101800  0.10445158  0.49587289  1
  Zr  Zr5  1  0.50241986  0.09900143  0.09903001  1
  Zr  Zr6  1  0.30024842  0.10700098  0.30494317  1
  Zr  Zr7  1  0.89416843  0.69935354  0.29834020  1
  Zr  Zr8  1  0.69165710  0.09696848  0.89269164  1
  Zr  Zr9  1  0.68939413  0.49505497  0.50225106  1
  Zr  Zr10  1  0.49672624  0.30201785  0.49823361  1
  Zr  Zr11  1  0.89766431  0.70011843  0.49863845  1
  Zr  Zr12  1  0.30904519  0.10178023  0.90520877  1
  Zr  Zr13  1  0.89542630  0.49680721  0.69662184  1
  Zr  Zr14  1  0.70105882  0.90140798  0.51220158  1
  Zr  Zr15  1  0.49676455  0.49493978  0.10223300  1
  Zr  Zr16  1  0.10450828  0.10217807  0.49704757  1
  Zr  Zr17  1  0.89435717  0.10753546  0.89146793  1
  Zr  Zr18  1  0.10135966  0.49321618  0.70521829  1
  Zr  Zr19  1  0.09976880  0.31194574  0.89816270  1
  Zr  Zr20  1  0.69851892  0.50212926  0.30682779  1
  Zr  Zr21  1  0.29676036  0.89465916  0.50311947  1
  Zr  Zr22  1  0.89977861  0.48906950  0.09894418  1
  Zr  Zr23  1  0.09427168  0.29133739  0.48874675  1
  Zr  Zr24  1  0.10098475  0.50416445  0.49421668  1
  Zr  Zr25  1  0.90384976  0.71127424  0.69279514  1
  Zr  Zr26  1  0.90254479  0.10199844  0.50138051  1
  Zr  Zr27  1  0.50438201  0.69574205  0.29999847  1
  Zr  Zr28  1  0.69910227  0.70391941  0.10679249  1
  Zr  Zr29  1  0.10208921  0.68896580  0.90664564  1
  Zr  Zr30  1  0.69476721  0.29945266  0.90221523  1
  Zr  Zr31  1  0.29323035  0.70247417  0.49837731  1
  Zr  Zr32  1  0.70259474  0.09782395  0.30178045  1
  Zr  Zr33  1  0.70073833  0.90259775  0.29520336  1
  Zr  Zr34  1  0.89933401  0.28512569  0.70131453  1
  Zr  Zr35  1  0.09518078  0.10846601  0.30714776  1
  Zr  Zr36  1  0.50772526  0.90161033  0.50391462  1
  Zr  Zr37  1  0.50208818  0.49494451  0.31390865  1
  Zr  Zr38  1  0.90516881  0.90042394  0.88866592  1
  Zr  Zr39  1  0.30128186  0.90829166  0.10043291  1
  Zr  Zr40  1  0.68805328  0.90822102  0.10219991  1
  Zr  Zr41  1  0.90126667  0.69554763  0.10155639  1
  Zr  Zr42  1  0.10281908  0.48076908  0.29892187  1
  Zr  Zr43  1  0.49775018  0.10422139  0.30513738  1
  Zr  Zr44  1  0.49854146  0.69723476  0.90772476  1
  Zr  Zr45  1  0.08853722  0.90027091  0.70215236  1
  Zr  Zr46  1  0.50173634  0.29528916  0.90368351  1
  Zr  Zr47  1  0.50816529  0.10221299  0.70295042  1
  Zr  Zr48  1  0.30267248  0.69666384  0.30652501  1
  Zr  Zr49  1  0.10389169  0.70293369  0.50014702  1
  Sc  Sc50  1  0.89869861  0.09936857  0.29474482  1
  Sc  Sc51  1  0.70038342  0.29591541  0.29322029  1
  Sc  Sc52  1  0.30435371  0.69490354  0.89865168  1
  Sc  Sc53  1  0.69877407  0.70287354  0.49420118  1
  Sc  Sc54  1  0.28692089  0.49844081  0.90061224  1
  Sc  Sc55  1  0.30342631  0.70898262  0.69238279  1
  Sc  Sc56  1  0.30118503  0.91442923  0.90099782  1
  Sc  Sc57  1  0.69697740  0.69434390  0.69929824  1
  Sc  Sc58  1  0.30130193  0.49813214  0.69100412  1
  Sc  Sc59  1  0.50233639  0.90930828  0.90175252  1
  Sc  Sc60  1  0.50163425  0.89746300  0.29625070  1
  Sc  Sc61  1  0.90004921  0.90831809  0.30035590  1
  Sc  Sc62  1  0.30244487  0.29107950  0.50169472  1
  Sc  Sc63  1  0.29755734  0.90241693  0.29978115  1
  Sc  Sc64  1  0.30635893  0.89560510  0.70461627  1
  Sc  Sc65  1  0.30498896  0.49604012  0.10091639  1
  Sc  Sc66  1  0.09748998  0.49542367  0.08284258  1
  Sc  Sc67  1  0.49811928  0.89342599  0.69870162  1
  Sc  Sc68  1  0.10339383  0.70093612  0.69105040  1
  Sc  Sc69  1  0.51798004  0.49897143  0.90106028  1
  Sc  Sc70  1  0.10782528  0.09291954  0.90200861  1
  Sc  Sc71  1  0.09059522  0.10593370  0.69878003  1
  Sc  Sc72  1  0.09665270  0.10198706  0.10355028  1
  Sc  Sc73  1  0.90256746  0.90368615  0.11637082  1
  Sc  Sc74  1  0.70637354  0.49074111  0.10459428  1
  Sc  Sc75  1  0.89955469  0.50311170  0.30032697  1
  Sc  Sc76  1  0.30637771  0.09873641  0.10056543  1
  Sc  Sc77  1  0.89742636  0.49876182  0.90790960  1
  Sc  Sc78  1  0.70168794  0.69587433  0.30132837  1
  Sc  Sc79  1  0.49543240  0.30106147  0.29818976  1
  Sc  Sc80  1  0.09344346  0.91341759  0.29796492  1
  Sc  Sc81  1  0.69780244  0.29058805  0.69685789  1
  Sc  Sc82  1  0.08057149  0.30541025  0.10118829  1
  Sc  Sc83  1  0.31961250  0.31157072  0.09709966  1
  Sc  Sc84  1  0.50125776  0.10550978  0.90083132  1
  Sc  Sc85  1  0.89584036  0.29455513  0.90697528  1
  Sc  Sc86  1  0.30364609  0.50296143  0.49399806  1
  Sc  Sc87  1  0.70075234  0.10487900  0.10668796  1
  Sc  Sc88  1  0.50048465  0.29912160  0.69737305  1
  Sc  Sc89  1  0.49642121  0.69916084  0.50329794  1
  Sc  Sc90  1  0.10476419  0.70739587  0.29926843  1
  Sc  Sc91  1  0.10118023  0.90368299  0.11308457  1
  Sc  Sc92  1  0.69958782  0.29044354  0.49875831  1
  Sc  Sc93  1  0.30777190  0.29718031  0.69092698  1
  Sc  Sc94  1  0.89795529  0.90116933  0.50818321  1
  Sc  Sc95  1  0.90278413  0.50426532  0.49134857  1
  Sc  Sc96  1  0.50298840  0.69391285  0.10273865  1
  Sc  Sc97  1  0.09648858  0.90725652  0.49874718  1
  Sc  Sc98  1  0.89722032  0.69175075  0.90266074  1
  Sc  Sc99  1  0.09558464  0.29421393  0.70290419  1
  Nb  Nb100  1  0.89751663  0.29987140  0.49988289  1
  Nb  Nb101  1  0.10003470  0.70040227  0.10226276  1
  Nb  Nb102  1  0.50495241  0.49925918  0.69241777  1
  Nb  Nb103  1  0.89505529  0.10104565  0.70146516  1
  Nb  Nb104  1  0.88807855  0.29194092  0.10021834  1
  Nb  Nb105  1  0.29207551  0.31367538  0.29027667  1
  Nb  Nb106  1  0.69839344  0.90658016  0.70324728  1
  Nb  Nb107  1  0.09542554  0.49880145  0.89568816  1
  Nb  Nb108  1  0.29634846  0.49403707  0.29444759  1
  Nb  Nb109  1  0.49111778  0.70257660  0.70737702  1
  Nb  Nb110  1  0.69367481  0.49707944  0.70369946  1
  Nb  Nb111  1  0.10237558  0.89979606  0.90581008  1
  Nb  Nb112  1  0.51193821  0.30018892  0.09458942  1
  Nb  Nb113  1  0.68792953  0.09370528  0.50050280  1
  Nb  Nb114  1  0.09816757  0.29898539  0.29666858  1
  Nb  Nb115  1  0.69990759  0.90219851  0.89953378  1
  Nb  Nb116  1  0.91385932  0.30137754  0.29552736  1
  Nb  Nb117  1  0.30689841  0.29779624  0.89833425  1
  Nb  Nb118  1  0.50115914  0.90174740  0.10094164  1
  Nb  Nb119  1  0.49841636  0.10166022  0.49555999  1
  Nb  Nb120  1  0.89746777  0.10881889  0.09393322  1
  Nb  Nb121  1  0.71143318  0.29663578  0.09638225  1
  Nb  Nb122  1  0.50151472  0.49190098  0.50741223  1
  Nb  Nb123  1  0.70442698  0.49790660  0.88713819  1
  Nb  Nb124  1  0.70461981  0.09134955  0.70123574  1
  Nb  Nb125  1  0.79305322  0.40160767  0.79681288  1
  Nb  Nb126  1  0.80459597  0.39242861  0.40116125  1
  Nb  Nb127  1  0.79249406  0.80410968  0.80131292  1
  Nb  Nb128  1  0.19484033  0.80330730  0.80970178  1
  Nb  Nb129  1  0.00872716  0.59886726  0.19558286  1
  Nb  Nb130  1  -0.00441634  0.79838907  0.40034332  1
  Nb  Nb131  1  0.79528581  0.59387935  0.60046241  1
  Nb  Nb132  1  0.60364159  0.80010049  0.80383599  1
  Nb  Nb133  1  -0.00628443  -0.00266005  0.00013239  1
  Nb  Nb134  1  0.40171637  0.00605016  0.59484699  1
  Nb  Nb135  1  0.00248784  0.80263449  0.00346578  1
  Nb  Nb136  1  0.40736064  0.59320488  0.79433748  1
  Nb  Nb137  1  0.39806022  0.80531635  0.00548110  1
  Nb  Nb138  1  0.19961100  0.80188779  0.00159763  1
  Nb  Nb139  1  0.40616942  0.40569048  0.79852496  1
  Nb  Nb140  1  0.20522685  0.20805850  0.00123581  1
  Nb  Nb141  1  0.80112785  0.80991940  -0.00176530  1
  Nb  Nb142  1  0.20661982  0.20337682  0.80842941  1
  Nb  Nb143  1  0.20009954  0.21345237  0.19828058  1
  Nb  Nb144  1  0.19759077  0.59400282  0.20090679  1
  Nb  Nb145  1  0.20475132  0.00454316  0.60243966  1
  Nb  Nb146  1  0.00349594  0.59447335  0.80021405  1
  Nb  Nb147  1  0.80295787  -0.00150279  -0.00159378  1
  Nb  Nb148  1  -0.00156186  0.39478939  0.59463051  1
  Nb  Nb149  1  0.19098696  0.39590297  0.59540304  1
  Pd  Pd150  1  0.20358936  0.59414718  0.60191403  1
  Pd  Pd151  1  0.40055246  -0.00905376  0.40281179  1
  Pd  Pd152  1  0.59872385  0.19655858  0.59669973  1
  Pd  Pd153  1  0.39803849  0.59087163  0.20679067  1
  Pd  Pd154  1  0.80013859  0.40068894  0.59763742  1
  Pd  Pd155  1  0.40344197  0.00058590  0.20703347  1
  Pd  Pd156  1  0.59911271  0.20600625  0.39643098  1
  Pd  Pd157  1  0.79391846  0.19053879  0.59708358  1
  Pd  Pd158  1  0.80378841  0.39671614  0.21135890  1
  Pd  Pd159  1  0.20504282  0.59806737  0.00803471  1
  Pd  Pd160  1  0.20222968  0.39299410  0.00623756  1
  Pd  Pd161  1  0.40830531  -0.00035361  0.79387984  1
  Pd  Pd162  1  0.60008535  0.60742743  0.59810730  1
  Pd  Pd163  1  0.00371084  0.01078675  0.80333041  1
  Pd  Pd164  1  0.59603896  0.80443226  -0.00177374  1
  Pd  Pd165  1  0.20445348  0.60785759  0.79016963  1
  Pd  Pd166  1  0.40417294  0.41090686  -0.01445383  1
  Pd  Pd167  1  0.20759825  0.39350766  0.41043714  1
  Pd  Pd168  1  0.60325071  0.59285548  0.19797601  1
  Pd  Pd169  1  0.80767845  0.60135779  0.79238051  1
  Pd  Pd170  1  0.19982559  0.01510043  0.20174696  1
  Pd  Pd171  1  0.00338534  0.78689076  0.80848129  1
  Pd  Pd172  1  0.01011540  0.19532244  -0.00585978  1
  Pd  Pd173  1  0.59968490  -0.00387801  0.39498355  1
  Pd  Pd174  1  -0.00417016  0.59392610  0.60438258  1
  Pd  Pd175  1  0.60038263  0.79187255  0.60929395  1
  Pd  Pd176  1  -0.01544597  0.40000759  0.80019954  1
  Pd  Pd177  1  0.80165475  -0.00263904  0.40713844  1
  Pd  Pd178  1  0.60265534  0.80053885  0.39649593  1
  Pd  Pd179  1  0.39102154  0.39620122  0.40202944  1
  Pd  Pd180  1  0.00910626  0.60660021  0.38619743  1
  Pd  Pd181  1  0.20192629  0.79790644  0.19985121  1
  Pd  Pd182  1  0.40332970  0.59653539  0.40403653  1
  Pd  Pd183  1  0.39727636  0.20718522  0.19631587  1
  Pd  Pd184  1  0.80472855  0.20391926  0.39322217  1
  Pd  Pd185  1  0.40448286  0.80322486  0.40257073  1
  Pd  Pd186  1  0.40449753  0.80130076  0.19693348  1
  Pd  Pd187  1  0.18996542  0.81244073  0.39265070  1
  Pd  Pd188  1  0.19813435  0.00126596  0.79188261  1
  Pd  Pd189  1  0.79297001  0.59588520  0.00778770  1
  Pd  Pd190  1  0.39921009  0.60083496  0.60069250  1
  Pd  Pd191  1  0.60072214  0.20220564  0.19850196  1
  Pd  Pd192  1  0.79815127  0.80510820  0.19682150  1
  Pd  Pd193  1  0.60232527  0.38911487  0.60331858  1
  Pd  Pd194  1  0.59359348  0.60491205  0.79587878  1
  Pd  Pd195  1  0.80310712  0.80964820  0.39939745  1
  Pd  Pd196  1  0.60933323  0.40420067  0.00360574  1
  Pd  Pd197  1  0.60965137  0.58798415  0.01011905  1
  Pd  Pd198  1  0.21357973  0.39155274  0.78978487  1
  Pd  Pd199  1  0.59973723  0.39548360  0.20196072  1
  Rh  Rh200  1  -0.00355958  0.40399088  0.19650335  1
  Rh  Rh201  1  0.00920196  0.19671743  0.81020951  1
  Rh  Rh202  1  -0.00154693  0.60022593  0.00057795  1
  Rh  Rh203  1  0.79048702  0.20487011  0.79942670  1
  Rh  Rh204  1  0.79803852  -0.00147637  0.80159342  1
  Rh  Rh205  1  -0.00625911  -0.00367206  0.40373673  1
  Rh  Rh206  1  -0.00989618  0.19824937  0.39684925  1
  Rh  Rh207  1  0.00626382  0.80400625  0.58732292  1
  Rh  Rh208  1  0.59395349  -0.00649116  0.79530282  1
  Rh  Rh209  1  0.40061638  0.79322804  0.81406760  1
  Rh  Rh210  1  0.19917446  0.59549072  0.38832918  1
  Rh  Rh211  1  0.59924976  0.39457025  0.79395303  1
  Rh  Rh212  1  -0.01040879  0.39500563  -0.00502256  1
  Rh  Rh213  1  0.59757260  0.79750890  0.20359809  1
  Rh  Rh214  1  0.78907021  0.79335397  0.60762511  1
  Rh  Rh215  1  0.59344140  0.00591995  0.20686507  1
  Rh  Rh216  1  0.20184491  -0.00060424  0.40341135  1
  Rh  Rh217  1  0.80011845  0.00612160  0.19269474  1
  Rh  Rh218  1  0.19138293  0.00244177  0.01171208  1
  Rh  Rh219  1  0.40082176  0.20842622  0.79836579  1
  Rh  Rh220  1  0.80443638  0.59507658  0.19810258  1
  Rh  Rh221  1  0.59497210  0.00403361  0.60490979  1
  Rh  Rh222  1  0.79528312  0.01140502  0.59420607  1
  Rh  Rh223  1  -0.00072023  0.19898411  0.19842411  1
  Rh  Rh224  1  -0.00246700  0.20011656  0.59698762  1
  Rh  Rh225  1  0.39579143  0.21146744  0.39367264  1
  Rh  Rh226  1  0.41238922  0.19379881  0.59806446  1
  Rh  Rh227  1  0.60224960  0.20088633  0.79641366  1
  Rh  Rh228  1  -0.00780775  0.39495162  0.40390984  1
  Rh  Rh229  1  0.80403323  0.20067007  0.20536409  1
  Rh  Rh230  1  0.39681372  0.40246839  0.60013285  1
  Rh  Rh231  1  0.59351917  0.60298665  0.40820400  1
  Rh  Rh232  1  0.19331495  0.19985442  0.60939703  1
  Rh  Rh233  1  0.78842977  0.19094122  -0.00424400  1
  Rh  Rh234  1  0.60431572  0.19732024  0.00707875  1
  Rh  Rh235  1  0.40080361  0.20032894  0.00811308  1
  Rh  Rh236  1  0.79745667  0.39680754  -0.00804422  1
  Rh  Rh237  1  0.60707019  0.39125965  0.39966341  1
  Rh  Rh238  1  0.20714015  0.21146962  0.38787039  1
  Rh  Rh239  1  0.19483676  0.81434104  0.61212815  1
  Rh  Rh240  1  0.00361064  0.00832470  0.59942387  1
  Rh  Rh241  1  0.41199159  0.40047824  0.20329736  1
  Rh  Rh242  1  0.19485218  0.39905116  0.18677314  1
  Rh  Rh243  1  0.79070659  0.58995600  0.40954850  1
  Rh  Rh244  1  0.60233365  0.00662412  0.00092067  1
  Rh  Rh245  1  0.40382386  0.80446878  0.59318126  1
  Rh  Rh246  1  -0.00408428  0.01287148  0.19519242  1
  Rh  Rh247  1  0.39861466  0.59584807  -0.00861278  1
  Rh  Rh248  1  -0.00137086  0.79255173  0.20670882  1
  Rh  Rh249  1  0.40969208  -0.00261657  0.00192139  1
