# generated using pymatgen
data_ZrScNbPdRh
_symmetry_space_group_name_H-M   'P 1'
_cell_length_a   16.55868012
_cell_length_b   16.55730499
_cell_length_c   16.56149189
_cell_angle_alpha   89.96824012
_cell_angle_beta   89.99728927
_cell_angle_gamma   89.98904409
_symmetry_Int_Tables_number   1
_chemical_formula_structural   ZrScNbPdRh
_chemical_formula_sum   'Zr50 Sc50 Nb50 Pd50 Rh50'
_cell_volume   4540.61569916
_cell_formula_units_Z   50
loop_
 _symmetry_equiv_pos_site_id
 _symmetry_equiv_pos_as_xyz
  1  'x, y, z'
loop_
 _atom_site_type_symbol
 _atom_site_label
 _atom_site_symmetry_multiplicity
 _atom_site_fract_x
 _atom_site_fract_y
 _atom_site_fract_z
 _atom_site_occupancy
  Zr  Zr0  1  0.10208260  0.50368699  0.90516061  1
  Zr  Zr1  1  0.49894971  0.09667967  0.70270860  1
  Zr  Zr2  1  0.90030686  0.09840326  0.50193740  1
  Zr  Zr3  1  0.08900307  0.49925991  0.08719983  1
  Zr  Zr4  1  0.89906762  0.30701640  0.70168332  1
  Zr  Zr5  1  0.90053168  0.69239486  0.29987753  1
  Zr  Zr6  1  0.30732478  0.50757892  0.28713272  1
  Zr  Zr7  1  0.70053416  0.69778961  0.69929690  1
  Zr  Zr8  1  0.29581916  0.29415763  0.69446140  1
  Zr  Zr9  1  0.09974139  0.69642733  0.89899350  1
  Zr  Zr10  1  0.29929364  0.29951688  0.50479896  1
  Zr  Zr11  1  0.29573661  0.09390077  0.88956664  1
  Zr  Zr12  1  0.70862216  0.89959583  0.91418877  1
  Zr  Zr13  1  0.90004969  0.30309719  0.30355670  1
  Zr  Zr14  1  0.49773526  0.29160471  0.69701512  1
  Zr  Zr15  1  0.09899499  0.09037497  0.49534518  1
  Zr  Zr16  1  0.09709624  0.30750374  0.49856700  1
  Zr  Zr17  1  0.10601573  0.89693299  0.90318021  1
  Zr  Zr18  1  0.50179477  0.50678421  0.30132279  1
  Zr  Zr19  1  0.29870845  0.89798190  0.69646891  1
  Zr  Zr20  1  0.70365550  0.30070982  0.30566333  1
  Zr  Zr21  1  0.70202029  0.29927628  0.50697717  1
  Zr  Zr22  1  0.70257421  0.69511407  0.89718382  1
  Zr  Zr23  1  0.90105972  0.30856266  0.50000471  1
  Zr  Zr24  1  0.30149916  0.09426866  0.69314641  1
  Zr  Zr25  1  0.90166557  0.69177256  0.70763496  1
  Zr  Zr26  1  0.49938260  0.90636478  0.90804006  1
  Zr  Zr27  1  0.70656001  0.30456413  0.70435019  1
  Zr  Zr28  1  0.89860031  0.10596055  0.10546401  1
  Zr  Zr29  1  0.89562829  0.09568723  0.89785963  1
  Zr  Zr30  1  0.69927378  0.09972131  0.50410752  1
  Zr  Zr31  1  0.90682782  0.50042590  0.50047385  1
  Zr  Zr32  1  0.69574126  0.29907319  0.91157048  1
  Zr  Zr33  1  0.91059427  0.49955641  0.90531544  1
  Zr  Zr34  1  0.50647746  0.30377064  0.09425598  1
  Zr  Zr35  1  0.09752110  0.50286904  0.49830109  1
  Zr  Zr36  1  0.69531505  0.89735492  0.29828511  1
  Zr  Zr37  1  0.50345432  0.89080296  0.09728451  1
  Zr  Zr38  1  0.69533426  0.09831877  0.31116087  1
  Zr  Zr39  1  0.89398967  0.30157875  0.89335278  1
  Zr  Zr40  1  0.09525334  0.09995331  0.89935387  1
  Zr  Zr41  1  0.10208226  0.10479846  0.70846107  1
  Zr  Zr42  1  0.29244584  0.90156438  0.50242492  1
  Zr  Zr43  1  0.70113862  0.70198640  0.29592943  1
  Zr  Zr44  1  0.30235472  0.88963731  0.89786247  1
  Zr  Zr45  1  0.70003384  0.89743454  0.69376965  1
  Zr  Zr46  1  0.90915831  0.90100837  0.50607033  1
  Zr  Zr47  1  0.10267544  0.90220101  0.30680788  1
  Zr  Zr48  1  0.90015051  0.70085790  0.90174738  1
  Zr  Zr49  1  0.09830092  0.50766531  0.69226315  1
  Sc  Sc50  1  0.09348951  0.09876928  0.29439998  1
  Sc  Sc51  1  0.51090537  0.69576692  0.70092144  1
  Sc  Sc52  1  0.69755868  0.09878100  0.90623068  1
  Sc  Sc53  1  0.70575613  0.10342532  0.70129976  1
  Sc  Sc54  1  0.10238607  0.09872571  0.11115505  1
  Sc  Sc55  1  0.30485217  0.89420497  0.30180967  1
  Sc  Sc56  1  0.90442940  0.90566746  0.70916018  1
  Sc  Sc57  1  0.69870936  0.89863398  0.49172112  1
  Sc  Sc58  1  0.30569423  0.69688642  0.90216961  1
  Sc  Sc59  1  0.50069011  0.09784217  0.49837216  1
  Sc  Sc60  1  0.29272191  0.70122905  0.70720466  1
  Sc  Sc61  1  0.09665251  0.70428408  0.50240850  1
  Sc  Sc62  1  0.29815561  0.50508949  0.69879712  1
  Sc  Sc63  1  0.49954002  0.29428672  0.50712815  1
  Sc  Sc64  1  0.08378382  0.50390307  0.28948850  1
  Sc  Sc65  1  0.50032540  0.70017957  0.09628826  1
  Sc  Sc66  1  0.49806593  0.51716294  0.90520446  1
  Sc  Sc67  1  0.88752523  0.30039095  0.10640603  1
  Sc  Sc68  1  0.30508263  0.08947229  0.50222996  1
  Sc  Sc69  1  0.11346430  0.90300110  0.10314259  1
  Sc  Sc70  1  0.10289481  0.89089592  0.69347316  1
  Sc  Sc71  1  0.69632177  0.70990168  0.10388347  1
  Sc  Sc72  1  0.90796542  0.69808275  0.49250275  1
  Sc  Sc73  1  0.30281805  0.70200565  0.48732916  1
  Sc  Sc74  1  0.49885729  0.90060029  0.49559280  1
  Sc  Sc75  1  0.88833845  0.69974937  0.11011991  1
  Sc  Sc76  1  0.69788889  0.50309857  0.49899813  1
  Sc  Sc77  1  0.50468300  0.69835529  0.49426395  1
  Sc  Sc78  1  0.30448681  0.50242796  0.09062360  1
  Sc  Sc79  1  0.90030765  0.09900436  0.70779534  1
  Sc  Sc80  1  0.89803505  0.89441892  0.30714265  1
  Sc  Sc81  1  0.70368280  0.51139465  0.70212237  1
  Sc  Sc82  1  0.11626750  0.69628433  0.09722639  1
  Sc  Sc83  1  0.08599298  0.29447290  0.29802491  1
  Sc  Sc84  1  0.30777817  0.29864382  0.28259536  1
  Sc  Sc85  1  0.69373053  0.90050825  0.10233919  1
  Sc  Sc86  1  0.50187943  0.90494099  0.29871863  1
  Sc  Sc87  1  0.69901902  0.49684587  0.89797876  1
  Sc  Sc88  1  0.31073672  0.30477294  0.09995804  1
  Sc  Sc89  1  0.30326457  0.89449945  0.09614316  1
  Sc  Sc90  1  0.49910371  0.30533996  0.28917806  1
  Sc  Sc91  1  0.88408595  0.89791255  0.10254091  1
  Sc  Sc92  1  0.08924788  0.30924627  0.89838293  1
  Sc  Sc93  1  0.49914290  0.08802214  0.09799353  1
  Sc  Sc94  1  0.30322500  0.09502131  0.29019809  1
  Sc  Sc95  1  0.49839226  0.90110261  0.70400132  1
  Sc  Sc96  1  0.29407803  0.49926135  0.50435084  1
  Sc  Sc97  1  0.69293298  0.70272013  0.50316021  1
  Sc  Sc98  1  0.69788224  0.50293457  0.29917226  1
  Sc  Sc99  1  0.30029900  0.10189349  0.10628471  1
  Nb  Nb100  1  0.90191052  0.90017329  0.90874530  1
  Nb  Nb101  1  0.50889231  0.49480826  0.10187108  1
  Nb  Nb102  1  0.49966510  0.50324590  0.70147562  1
  Nb  Nb103  1  0.10055144  0.30130266  0.69703425  1
  Nb  Nb104  1  0.49810312  0.09808875  0.89562176  1
  Nb  Nb105  1  0.10061860  0.89783138  0.49951530  1
  Nb  Nb106  1  0.70777710  0.10740517  0.10076778  1
  Nb  Nb107  1  0.90265200  0.11052519  0.29692855  1
  Nb  Nb108  1  0.69464827  0.48928987  0.09544073  1
  Nb  Nb109  1  0.49871740  0.10199203  0.29987004  1
  Nb  Nb110  1  0.49664080  0.50156164  0.50014225  1
  Nb  Nb111  1  0.48043088  0.69451163  0.29571244  1
  Nb  Nb112  1  0.30303935  0.30393344  0.90021319  1
  Nb  Nb113  1  0.09981655  0.69913875  0.70181060  1
  Nb  Nb114  1  0.89557774  0.49918077  0.69891744  1
  Nb  Nb115  1  0.30373174  0.49607590  0.89387462  1
  Nb  Nb116  1  0.30305772  0.69309089  0.29033498  1
  Nb  Nb117  1  0.09940803  0.30030016  0.09449068  1
  Nb  Nb118  1  0.89629288  0.50505673  0.10773249  1
  Nb  Nb119  1  0.50317989  0.70640149  0.89954606  1
  Nb  Nb120  1  0.10373881  0.70002997  0.29794911  1
  Nb  Nb121  1  0.89735066  0.50769103  0.29263011  1
  Nb  Nb122  1  0.50097879  0.29371423  0.89605968  1
  Nb  Nb123  1  0.30455489  0.69998059  0.11782555  1
  Nb  Nb124  1  0.69798252  0.29447361  0.09920738  1
  Nb  Nb125  1  0.39700705  0.20182148  0.39459880  1
  Nb  Nb126  1  0.00578699  0.79833228  0.20052714  1
  Nb  Nb127  1  0.39648045  0.39972644  0.40034208  1
  Nb  Nb128  1  0.58949624  0.39959149  0.79895662  1
  Nb  Nb129  1  0.40002600  0.79506052  0.59944972  1
  Nb  Nb130  1  0.79764789  0.01072953  0.20746838  1
  Nb  Nb131  1  0.40102224  0.19918923  -0.01143338  1
  Nb  Nb132  1  0.79870665  0.59188937  0.00891318  1
  Nb  Nb133  1  -0.00371871  -0.00317944  0.00184459  1
  Nb  Nb134  1  0.60588146  0.19798876  0.19603632  1
  Nb  Nb135  1  0.19857645  0.59949306  0.38690897  1
  Nb  Nb136  1  0.19280353  0.40205561  0.19425531  1
  Nb  Nb137  1  0.20215196  0.40102364  0.38546198  1
  Nb  Nb138  1  0.20428445  0.40012232  0.80139685  1
  Nb  Nb139  1  0.60242541  0.80157071  0.80803301  1
  Nb  Nb140  1  0.59510044  0.40550116  0.60680430  1
  Nb  Nb141  1  0.60233679  0.00053343  0.60028039  1
  Nb  Nb142  1  0.80506545  0.79908067  0.60162333  1
  Nb  Nb143  1  0.00085293  0.19887180  0.00183345  1
  Nb  Nb144  1  -0.00095032  0.80328500  0.00680064  1
  Nb  Nb145  1  0.20452572  0.20444568  0.39650637  1
  Nb  Nb146  1  0.40073904  0.39986267  0.80213742  1
  Nb  Nb147  1  0.00339113  0.20410198  0.60278113  1
  Nb  Nb148  1  0.40405643  0.60208360  0.59952951  1
  Nb  Nb149  1  0.20088130  0.20689146  -0.00265161  1
  Pd  Pd150  1  0.39981231  -0.00836757  0.19886862  1
  Pd  Pd151  1  -0.01027445  -0.01210383  0.19631373  1
  Pd  Pd152  1  0.20691884  0.00783512  0.39201299  1
  Pd  Pd153  1  0.60086357  0.60634718  0.39773799  1
  Pd  Pd154  1  0.59062531  0.79445609  0.39120125  1
  Pd  Pd155  1  0.60807787  0.20080529  0.79934936  1
  Pd  Pd156  1  0.19595524  0.20812410  0.20035197  1
  Pd  Pd157  1  0.79416760  0.40473090  0.20312746  1
  Pd  Pd158  1  0.59106443  0.18756899  0.00481358  1
  Pd  Pd159  1  -0.00440845  0.79424086  0.60544761  1
  Pd  Pd160  1  0.80202098  0.79571864  0.40767241  1
  Pd  Pd161  1  0.39471425  0.19979445  0.80066286  1
  Pd  Pd162  1  0.80243810  0.41202964  0.39885386  1
  Pd  Pd163  1  0.40274595  0.80204345  0.40097891  1
  Pd  Pd164  1  0.40821208  0.79308452  0.79301149  1
  Pd  Pd165  1  0.19323852  0.19120133  0.58965948  1
  Pd  Pd166  1  0.00729676  0.40853338  0.79262883  1
  Pd  Pd167  1  0.39122768  0.00508387  -0.00032135  1
  Pd  Pd168  1  0.58852234  0.20816661  0.39532301  1
  Pd  Pd169  1  0.20734393  0.61240582  0.59021012  1
  Pd  Pd170  1  0.19808571  0.79235090  0.39994076  1
  Pd  Pd171  1  0.60779332  -0.00592878  0.79868682  1
  Pd  Pd172  1  0.60754430  0.60227917  0.00510779  1
  Pd  Pd173  1  -0.00683214  0.00038488  0.39209417  1
  Pd  Pd174  1  0.80715237  -0.00056810  0.39757718  1
  Pd  Pd175  1  0.00603277  0.00526661  0.61106087  1
  Pd  Pd176  1  0.80381025  0.40369450  0.00316623  1
  Pd  Pd177  1  0.20193455  0.59677716  0.80255633  1
  Pd  Pd178  1  0.00632410  0.61244356  0.18896199  1
  Pd  Pd179  1  0.80496326  0.60643856  0.59068557  1
  Pd  Pd180  1  -0.00216618  0.39502119  0.19429435  1
  Pd  Pd181  1  0.79669044  0.59939016  0.40424532  1
  Pd  Pd182  1  0.80495511  0.19996505  0.40353533  1
  Pd  Pd183  1  0.60705200  0.39561139  0.20372244  1
  Pd  Pd184  1  0.60029368  0.60454231  0.19399776  1
  Pd  Pd185  1  0.00343001  0.80498714  0.80409488  1
  Pd  Pd186  1  0.40144561  0.40802041  0.60176043  1
  Pd  Pd187  1  0.20047156  0.80489258  0.20342479  1
  Pd  Pd188  1  0.19574888  -0.01048366  0.79272303  1
  Pd  Pd189  1  0.60543559  0.00719579  0.19583421  1
  Pd  Pd190  1  0.19572612  0.21239744  0.80925716  1
  Pd  Pd191  1  0.20289774  0.39608109  0.00009241  1
  Pd  Pd192  1  0.79850582  0.80562864  0.79698376  1
  Pd  Pd193  1  0.79352139  -0.00200937  0.80192040  1
  Pd  Pd194  1  0.81026800  0.19925803  0.60442794  1
  Pd  Pd195  1  0.41072130  0.40056411  -0.00698446  1
  Pd  Pd196  1  0.21356650  0.60360554  0.00043754  1
  Pd  Pd197  1  0.20035162  0.00919525  0.00687374  1
  Pd  Pd198  1  0.59098563  0.39467893  0.40938801  1
  Pd  Pd199  1  0.39867915  0.60578173  0.00409260  1
  Rh  Rh200  1  0.20567403  0.79124976  0.00100847  1
  Rh  Rh201  1  0.00061659  0.39866713  0.60667469  1
  Rh  Rh202  1  0.60116036  0.19543885  0.60407203  1
  Rh  Rh203  1  0.59705545  0.60163855  0.80506036  1
  Rh  Rh204  1  0.78368065  0.59133606  0.19269768  1
  Rh  Rh205  1  0.00017588  0.20692359  0.19267513  1
  Rh  Rh206  1  -0.01192376  0.61470297  0.01008470  1
  Rh  Rh207  1  0.40080278  0.00708619  0.39454112  1
  Rh  Rh208  1  0.80248137  0.00558860  0.00984870  1
  Rh  Rh209  1  -0.01446398  0.38814166  0.00993458  1
  Rh  Rh210  1  0.00175085  0.59437278  0.79723446  1
  Rh  Rh211  1  0.40215360  0.41011579  0.19583363  1
  Rh  Rh212  1  0.80332038  0.78953959  0.00359291  1
  Rh  Rh213  1  0.59259011  0.40576158  -0.01161866  1
  Rh  Rh214  1  0.80154877  0.80919208  0.20732424  1
  Rh  Rh215  1  -0.00217050  0.41042621  0.39054958  1
  Rh  Rh216  1  0.20385973  0.79440056  0.59601374  1
  Rh  Rh217  1  0.41232832  0.59435671  0.18438317  1
  Rh  Rh218  1  0.39162151  0.59181699  0.40845831  1
  Rh  Rh219  1  0.00614933  -0.00839716  0.80487591  1
  Rh  Rh220  1  -0.00430304  0.60534005  0.60281764  1
  Rh  Rh221  1  0.79421990  0.40702526  0.80022328  1
  Rh  Rh222  1  0.40309296  0.60089564  0.79576109  1
  Rh  Rh223  1  0.19378509  0.58962751  0.19861186  1
  Rh  Rh224  1  0.59396459  -0.00133221  0.40694268  1
  Rh  Rh225  1  0.59701033  0.80752158  0.60550216  1
  Rh  Rh226  1  0.79477139  -0.00952779  0.59700174  1
  Rh  Rh227  1  0.59426661  0.59223293  0.59475427  1
  Rh  Rh228  1  0.41047382  -0.00894390  0.60109351  1
  Rh  Rh229  1  -0.00304756  0.20502428  0.79741376  1
  Rh  Rh230  1  0.79166716  0.19839814  0.21112263  1
  Rh  Rh231  1  0.19549526  0.40352629  0.60556046  1
  Rh  Rh232  1  0.19598442  0.79533271  0.80187695  1
  Rh  Rh233  1  0.79112380  0.41068926  0.60197667  1
  Rh  Rh234  1  0.00353350  0.19512090  0.40944227  1
  Rh  Rh235  1  0.58816120  0.79026820  0.20924988  1
  Rh  Rh236  1  0.19179054  -0.00161201  0.60215513  1
  Rh  Rh237  1  0.00608680  0.59886221  0.39700832  1
  Rh  Rh238  1  0.40437095  0.80346285  0.19962230  1
  Rh  Rh239  1  0.20745129  -0.00647067  0.20435587  1
  Rh  Rh240  1  0.60168212  0.79796616  -0.00616571  1
  Rh  Rh241  1  0.60346022  0.00440700  0.00373342  1
  Rh  Rh242  1  0.39494837  0.79094802  0.00500256  1
  Rh  Rh243  1  0.80806133  0.58857085  0.81131467  1
  Rh  Rh244  1  0.79540078  0.19898867  0.80536594  1
  Rh  Rh245  1  0.39685138  -0.00415855  0.80129682  1
  Rh  Rh246  1  0.80633094  0.20108182  -0.00573980  1
  Rh  Rh247  1  0.00665217  0.79843364  0.39353565  1
  Rh  Rh248  1  0.41575997  0.19367607  0.19344712  1
  Rh  Rh249  1  0.40139253  0.18764152  0.59327044  1
