# generated using pymatgen
data_ZrScNbPdRh
_symmetry_space_group_name_H-M   'P 1'
_cell_length_a   16.55469118
_cell_length_b   16.55879265
_cell_length_c   16.56160834
_cell_angle_alpha   89.99042691
_cell_angle_beta   89.98722233
_cell_angle_gamma   89.99479490
_symmetry_Int_Tables_number   1
_chemical_formula_structural   ZrScNbPdRh
_chemical_formula_sum   'Zr50 Sc50 Nb50 Pd50 Rh50'
_cell_volume   4539.96226070
_cell_formula_units_Z   50
loop_
 _symmetry_equiv_pos_site_id
 _symmetry_equiv_pos_as_xyz
  1  'x, y, z'
loop_
 _atom_site_type_symbol
 _atom_site_label
 _atom_site_symmetry_multiplicity
 _atom_site_fract_x
 _atom_site_fract_y
 _atom_site_fract_z
 _atom_site_occupancy
  Zr  Zr0  1  0.90313613  0.30674452  0.90799900  1
  Zr  Zr1  1  0.30452857  0.29436299  0.10222772  1
  Zr  Zr2  1  0.29650097  0.10406134  0.48758027  1
  Zr  Zr3  1  0.09268490  0.69651083  0.70151110  1
  Zr  Zr4  1  0.29481363  0.89686387  0.09889810  1
  Zr  Zr5  1  0.90366537  0.50614817  0.70504865  1
  Zr  Zr6  1  0.50671238  0.30189964  0.29952212  1
  Zr  Zr7  1  0.29407677  0.89996037  0.30021422  1
  Zr  Zr8  1  0.69678774  0.30125534  0.30282389  1
  Zr  Zr9  1  0.29724455  0.29303997  0.29886519  1
  Zr  Zr10  1  0.70140654  0.89948734  0.91714464  1
  Zr  Zr11  1  0.29612121  0.30687494  0.69929030  1
  Zr  Zr12  1  0.50476005  0.30383536  0.90780032  1
  Zr  Zr13  1  0.89742518  0.89654951  0.70193190  1
  Zr  Zr14  1  0.69824088  0.70291597  0.10131296  1
  Zr  Zr15  1  0.50824866  0.29991397  0.49879217  1
  Zr  Zr16  1  0.29160353  0.89228481  0.49773133  1
  Zr  Zr17  1  0.89809434  0.30663998  0.29887567  1
  Zr  Zr18  1  0.51058855  0.70033562  0.70444323  1
  Zr  Zr19  1  0.70636638  0.09960478  0.09324701  1
  Zr  Zr20  1  0.89955301  0.50664721  0.30456796  1
  Zr  Zr21  1  0.09759408  0.88803719  0.10364139  1
  Zr  Zr22  1  0.70216721  0.49663210  0.49622442  1
  Zr  Zr23  1  0.09602252  0.09989640  0.50038439  1
  Zr  Zr24  1  0.90375856  0.11158583  0.09530912  1
  Zr  Zr25  1  0.50153001  0.30100846  0.69736774  1
  Zr  Zr26  1  0.09745727  0.70107166  0.89801786  1
  Zr  Zr27  1  0.29979471  0.10240140  0.70438853  1
  Zr  Zr28  1  0.10018648  0.30547907  0.89935829  1
  Zr  Zr29  1  0.30253170  0.50837947  0.09003183  1
  Zr  Zr30  1  0.69961670  0.10152457  0.70013621  1
  Zr  Zr31  1  0.90274228  0.89698642  0.29548374  1
  Zr  Zr32  1  0.70824064  0.69812680  0.69958442  1
  Zr  Zr33  1  0.10602458  0.50272552  0.70747100  1
  Zr  Zr34  1  0.69510377  0.69816637  0.90202725  1
  Zr  Zr35  1  0.70305746  0.49539571  0.70306633  1
  Zr  Zr36  1  0.69116277  0.30472499  0.70482282  1
  Zr  Zr37  1  0.89745155  0.89543700  0.09500871  1
  Zr  Zr38  1  0.70604256  0.29852093  0.49949434  1
  Zr  Zr39  1  0.50462047  0.50500099  0.09758518  1
  Zr  Zr40  1  0.69817504  0.10492240  0.49988124  1
  Zr  Zr41  1  0.49800146  0.68559576  0.29228161  1
  Zr  Zr42  1  0.89843001  0.49075451  0.49761912  1
  Zr  Zr43  1  0.10114216  0.10468409  0.10111561  1
  Zr  Zr44  1  0.10339588  0.30057450  0.70649023  1
  Zr  Zr45  1  0.90090206  0.68748324  0.49295558  1
  Zr  Zr46  1  0.70261192  0.50133840  0.10080198  1
  Zr  Zr47  1  0.50308438  0.49160898  0.69815967  1
  Zr  Zr48  1  0.70133646  0.89544685  0.69740506  1
  Zr  Zr49  1  0.90071762  0.08961727  0.69996690  1
  Sc  Sc50  1  0.09539255  0.90137919  0.70159524  1
  Sc  Sc51  1  0.10581068  0.90296340  0.49239407  1
  Sc  Sc52  1  0.69962465  0.89015252  0.10130348  1
  Sc  Sc53  1  0.09940265  0.69123869  0.29213154  1
  Sc  Sc54  1  0.89841511  0.10548433  0.90038251  1
  Sc  Sc55  1  0.90112966  0.30107052  0.09973266  1
  Sc  Sc56  1  0.50540133  0.90689933  0.28905169  1
  Sc  Sc57  1  0.90404946  0.70667425  0.88965771  1
  Sc  Sc58  1  0.90013251  0.48950444  0.10756464  1
  Sc  Sc59  1  0.69424105  0.90931581  0.49401007  1
  Sc  Sc60  1  0.09728185  0.49529766  0.30049887  1
  Sc  Sc61  1  0.69889867  0.50102566  0.29336486  1
  Sc  Sc62  1  0.90139223  0.89924956  0.89984590  1
  Sc  Sc63  1  0.28081236  0.69990071  0.69790461  1
  Sc  Sc64  1  0.29775321  0.09167891  0.89779636  1
  Sc  Sc65  1  0.50124866  0.69310988  0.09337258  1
  Sc  Sc66  1  0.90193459  0.10380982  0.29949328  1
  Sc  Sc67  1  0.70315556  0.69740596  0.50046012  1
  Sc  Sc68  1  0.89631811  0.91215123  0.49531070  1
  Sc  Sc69  1  0.70121203  0.89894159  0.29649189  1
  Sc  Sc70  1  0.89981954  0.70518938  0.10446513  1
  Sc  Sc71  1  0.69893738  0.49392976  0.89775415  1
  Sc  Sc72  1  0.09276517  0.30065219  0.10668760  1
  Sc  Sc73  1  0.89191429  0.69466895  0.29864005  1
  Sc  Sc74  1  0.09756144  0.89812459  0.89984220  1
  Sc  Sc75  1  0.29955598  0.49862597  0.30214154  1
  Sc  Sc76  1  0.29500912  0.49860713  0.49882688  1
  Sc  Sc77  1  0.50823932  0.89456174  0.10078684  1
  Sc  Sc78  1  0.50526171  0.68940500  0.49956519  1
  Sc  Sc79  1  0.09838804  0.10254778  0.70654913  1
  Sc  Sc80  1  0.70304434  0.30493016  0.10115608  1
  Sc  Sc81  1  0.30384752  0.90155315  0.70926515  1
  Sc  Sc82  1  0.30287992  0.30604856  0.49552162  1
  Sc  Sc83  1  0.49763948  0.89557338  0.70626749  1
  Sc  Sc84  1  0.10106825  0.10317941  0.30159256  1
  Sc  Sc85  1  0.10713557  0.31028407  0.50074711  1
  Sc  Sc86  1  0.70665497  0.10723889  0.90317511  1
  Sc  Sc87  1  0.50299541  0.10454413  0.29528908  1
  Sc  Sc88  1  0.50311021  0.10115257  0.90761113  1
  Sc  Sc89  1  0.50054250  0.10778678  0.10681701  1
  Sc  Sc90  1  0.09628505  0.50629972  0.49842760  1
  Sc  Sc91  1  0.10155110  0.49730790  0.10309244  1
  Sc  Sc92  1  0.29599652  0.68831550  0.29934485  1
  Sc  Sc93  1  0.50305201  0.09629393  0.70456276  1
  Sc  Sc94  1  0.69480846  0.10413759  0.30175636  1
  Sc  Sc95  1  0.30190033  0.89635759  0.89820848  1
  Sc  Sc96  1  0.29688442  0.70067283  0.91180603  1
  Sc  Sc97  1  0.09636583  0.10380123  0.89481421  1
  Sc  Sc98  1  0.89413492  0.31222801  0.70235564  1
  Sc  Sc99  1  0.49917356  0.49372928  0.49332953  1
  Nb  Nb100  1  0.49431753  0.89667148  0.89828242  1
  Nb  Nb101  1  0.49681612  0.89915390  0.49383398  1
  Nb  Nb102  1  0.49880803  0.69922373  0.90026629  1
  Nb  Nb103  1  0.49814867  0.49952699  0.29093934  1
  Nb  Nb104  1  0.89425949  0.29959928  0.49845892  1
  Nb  Nb105  1  0.49199348  0.50925233  0.90736994  1
  Nb  Nb106  1  0.30372692  0.09864520  0.10857844  1
  Nb  Nb107  1  0.70534768  0.30441335  0.89503195  1
  Nb  Nb108  1  0.90714456  0.49604643  0.90476508  1
  Nb  Nb109  1  0.30431317  0.09895082  0.28853139  1
  Nb  Nb110  1  0.50527548  0.09322223  0.49819883  1
  Nb  Nb111  1  0.70091790  0.70255902  0.29519838  1
  Nb  Nb112  1  0.30507858  0.50053946  0.70345263  1
  Nb  Nb113  1  0.10103768  0.30100396  0.29580886  1
  Nb  Nb114  1  0.89633556  0.11026924  0.50114060  1
  Nb  Nb115  1  0.90004516  0.70344025  0.69650811  1
  Nb  Nb116  1  0.10933114  0.70451250  0.50841797  1
  Nb  Nb117  1  0.50172035  0.30217680  0.10395278  1
  Nb  Nb118  1  0.29833725  0.30129495  0.90191240  1
  Nb  Nb119  1  0.29456818  0.70153900  0.50639372  1
  Nb  Nb120  1  0.09723363  0.49959850  0.90222823  1
  Nb  Nb121  1  0.28862027  0.70277369  0.10278261  1
  Nb  Nb122  1  0.10930722  0.69993555  0.09251236  1
  Nb  Nb123  1  0.29557334  0.49561441  0.90275740  1
  Nb  Nb124  1  0.09884054  0.90049549  0.29990049  1
  Nb  Nb125  1  0.39949652  -0.00085045  0.59071936  1
  Nb  Nb126  1  0.40600760  0.40066171  0.19642031  1
  Nb  Nb127  1  -0.00680961  0.20368761  0.59520060  1
  Nb  Nb128  1  0.00092118  0.00089715  0.00601510  1
  Nb  Nb129  1  0.39859071  0.59676204  0.80263944  1
  Nb  Nb130  1  0.39535116  0.60131192  0.60637489  1
  Nb  Nb131  1  0.60301633  -0.00703409  0.80819218  1
  Nb  Nb132  1  0.00494248  0.79713569  0.40156455  1
  Nb  Nb133  1  0.40267383  0.79713828  0.39889550  1
  Nb  Nb134  1  0.20619452  0.00354276  0.59850358  1
  Nb  Nb135  1  0.39682107  0.40327699  0.80962970  1
  Nb  Nb136  1  0.19903425  -0.00004945  0.20061027  1
  Nb  Nb137  1  0.20618732  0.20053697  0.00200642  1
  Nb  Nb138  1  -0.00220738  0.79491381  0.59286424  1
  Nb  Nb139  1  -0.00041197  0.59856214  -0.00154605  1
  Nb  Nb140  1  0.39783599  0.20839897  0.80148275  1
  Nb  Nb141  1  0.80518418  0.00084143  0.19350952  1
  Nb  Nb142  1  0.80855851  0.59656202  -0.00273942  1
  Nb  Nb143  1  0.39430760  0.79426933  0.20044529  1
  Nb  Nb144  1  0.39887175  0.79569704  0.59426774  1
  Nb  Nb145  1  0.40084778  -0.00152893  0.39846213  1
  Nb  Nb146  1  0.59373932  0.79742602  0.39512498  1
  Nb  Nb147  1  0.39913555  -0.00254373  0.00661543  1
  Nb  Nb148  1  0.40218461  0.19494359  0.59870589  1
  Nb  Nb149  1  -0.00412680  0.20792688  0.40706576  1
  Pd  Pd150  1  -0.00193277  0.00213685  0.39795635  1
  Pd  Pd151  1  0.61150034  0.00405072  0.19510665  1
  Pd  Pd152  1  0.39523446  0.60060657  0.40972199  1
  Pd  Pd153  1  0.59567634  0.19256996  0.80567644  1
  Pd  Pd154  1  0.59632781  0.80185273  0.58953415  1
  Pd  Pd155  1  0.79803565  0.00733395  0.38935171  1
  Pd  Pd156  1  0.19998522  0.80300646  0.80179070  1
  Pd  Pd157  1  0.00498729  0.39570448  0.39853777  1
  Pd  Pd158  1  0.20621636  0.59970373  0.80910303  1
  Pd  Pd159  1  0.00508877  -0.00203975  0.59817273  1
  Pd  Pd160  1  0.19554523  0.59937936  0.40154529  1
  Pd  Pd161  1  0.80632811  0.20610136  0.79678607  1
  Pd  Pd162  1  0.19465665  0.39369161  0.00797212  1
  Pd  Pd163  1  -0.00084214  0.60008153  0.19040698  1
  Pd  Pd164  1  0.39278143  0.78454208  0.79269465  1
  Pd  Pd165  1  0.40353249  0.80094733  0.00840631  1
  Pd  Pd166  1  0.59676693  0.59200207  0.80532802  1
  Pd  Pd167  1  0.19491904  0.78714286  0.38867087  1
  Pd  Pd168  1  0.60738480  0.20629186  0.00473355  1
  Pd  Pd169  1  0.39422644  0.18960634  -0.00500390  1
  Pd  Pd170  1  0.00276965  0.39633588  0.60355494  1
  Pd  Pd171  1  0.40860841  0.19499684  0.39990430  1
  Pd  Pd172  1  0.19925939  0.59079437  0.19966227  1
  Pd  Pd173  1  0.19352784  -0.00448544  0.79637852  1
  Pd  Pd174  1  0.80283888  0.20506138  0.61252728  1
  Pd  Pd175  1  0.79675639  0.80149692  0.80683933  1
  Pd  Pd176  1  0.59173720  -0.00092585  0.00180057  1
  Pd  Pd177  1  0.80146465  0.59437507  0.59947491  1
  Pd  Pd178  1  -0.01009832  0.20405228  0.79256601  1
  Pd  Pd179  1  0.19962145  0.40802143  0.59877845  1
  Pd  Pd180  1  0.60591880  0.40125221  -0.00085935  1
  Pd  Pd181  1  0.00126763  0.78811239  0.20683782  1
  Pd  Pd182  1  0.60600899  0.80702498  0.80731921  1
  Pd  Pd183  1  0.59343658  -0.00633855  0.60877368  1
  Pd  Pd184  1  0.19872948  0.00313814  0.00374630  1
  Pd  Pd185  1  0.79716635  -0.00152475  0.59604992  1
  Pd  Pd186  1  0.39933319  0.40127233  0.39265223  1
  Pd  Pd187  1  0.40173134  0.39945645  0.00379798  1
  Pd  Pd188  1  0.80549493  0.80377071  0.58502763  1
  Pd  Pd189  1  0.00107054  0.00421730  0.19590347  1
  Pd  Pd190  1  0.79692138  0.19770280  0.20251402  1
  Pd  Pd191  1  0.59811909  0.59289082  0.59903472  1
  Pd  Pd192  1  0.79372177  -0.00295247  0.80911476  1
  Pd  Pd193  1  0.20766008  0.40326708  0.19821654  1
  Pd  Pd194  1  0.80555627  0.59875016  0.80803884  1
  Pd  Pd195  1  0.79767436  0.80039114  0.40294897  1
  Pd  Pd196  1  0.60563795  0.59960309  0.39396383  1
  Pd  Pd197  1  0.19149765  0.20509241  0.39710609  1
  Pd  Pd198  1  0.19861404  0.19765946  0.59766006  1
  Pd  Pd199  1  0.00047735  0.59968263  0.59730646  1
  Rh  Rh200  1  0.59233815  0.79087961  0.20746634  1
  Rh  Rh201  1  0.41211528  0.00796263  0.81069102  1
  Rh  Rh202  1  -0.00122667  0.39995326  0.20394721  1
  Rh  Rh203  1  0.79963701  0.40027593  0.20399025  1
  Rh  Rh204  1  0.19664674  0.80168344  -0.00804490  1
  Rh  Rh205  1  0.79829218  0.40235149  -0.00177916  1
  Rh  Rh206  1  0.19953306  0.79953742  0.20577943  1
  Rh  Rh207  1  0.80278408  0.19852276  0.39362871  1
  Rh  Rh208  1  0.20218373  0.40504336  0.80374471  1
  Rh  Rh209  1  -0.00212732  -0.00033272  0.81024480  1
  Rh  Rh210  1  0.59718042  0.19813658  0.59663370  1
  Rh  Rh211  1  0.59710230  0.40112717  0.19768010  1
  Rh  Rh212  1  0.60691134  0.40163434  0.59252258  1
  Rh  Rh213  1  0.79773848  0.40136964  0.60320127  1
  Rh  Rh214  1  0.00904520  0.60796041  0.40099347  1
  Rh  Rh215  1  -0.00045437  0.80305948  0.79027908  1
  Rh  Rh216  1  0.00117877  0.40308230  0.79742776  1
  Rh  Rh217  1  0.60658769  0.60128760  0.19877433  1
  Rh  Rh218  1  0.60404260  0.20233464  0.19379363  1
  Rh  Rh219  1  -0.00406654  0.59819080  0.80670580  1
  Rh  Rh220  1  0.19223812  0.59825480  -0.00347577  1
  Rh  Rh221  1  0.79225676  0.59737657  0.39503123  1
  Rh  Rh222  1  0.79600505  0.40276313  0.39459091  1
  Rh  Rh223  1  0.20375426  0.59247944  0.59943596  1
  Rh  Rh224  1  0.19473700  0.81031592  0.61021275  1
  Rh  Rh225  1  0.80394473  0.40224551  0.80564466  1
  Rh  Rh226  1  0.79838382  0.60177110  0.19355174  1
  Rh  Rh227  1  0.00028642  0.20638611  0.21142318  1
  Rh  Rh228  1  0.39558213  0.60938099  -0.00223284  1
  Rh  Rh229  1  0.39311901  0.59877729  0.19161148  1
  Rh  Rh230  1  0.80399640  0.78679164  -0.00425661  1
  Rh  Rh231  1  0.39393842  -0.01033008  0.19815261  1
  Rh  Rh232  1  0.00507330  0.40600809  0.00588481  1
  Rh  Rh233  1  0.00988696  0.19802739  -0.00346206  1
  Rh  Rh234  1  0.00142019  0.79704609  -0.00048986  1
  Rh  Rh235  1  0.59183026  0.40521471  0.81015876  1
  Rh  Rh236  1  0.59634494  -0.00316950  0.39227088  1
  Rh  Rh237  1  0.59151850  0.79580866  -0.00315368  1
  Rh  Rh238  1  0.20168881  0.00803561  0.39195831  1
  Rh  Rh239  1  0.19700675  0.19560695  0.19760850  1
  Rh  Rh240  1  0.60184172  0.40693431  0.39679904  1
  Rh  Rh241  1  0.60707174  0.59886411  -0.00325246  1
  Rh  Rh242  1  0.20599555  0.20009781  0.81201486  1
  Rh  Rh243  1  0.40805749  0.20853462  0.20393878  1
  Rh  Rh244  1  0.79702904  0.21319864  -0.00398246  1
  Rh  Rh245  1  0.19799621  0.40018204  0.39694941  1
  Rh  Rh246  1  0.59815049  0.19648391  0.40204719  1
  Rh  Rh247  1  0.79939623  0.80464015  0.20240940  1
  Rh  Rh248  1  0.39676617  0.39967824  0.60030828  1
  Rh  Rh249  1  0.81126422  0.00462393  0.00456816  1
