# generated using pymatgen
data_ZrScNbPdRh
_symmetry_space_group_name_H-M   'P 1'
_cell_length_a   16.55381056
_cell_length_b   16.55536068
_cell_length_c   16.55288411
_cell_angle_alpha   89.99432452
_cell_angle_beta   89.99997083
_cell_angle_gamma   90.02176001
_symmetry_Int_Tables_number   1
_chemical_formula_structural   ZrScNbPdRh
_chemical_formula_sum   'Zr50 Sc50 Nb50 Pd50 Rh50'
_cell_volume   4536.38879352
_cell_formula_units_Z   50
loop_
 _symmetry_equiv_pos_site_id
 _symmetry_equiv_pos_as_xyz
  1  'x, y, z'
loop_
 _atom_site_type_symbol
 _atom_site_label
 _atom_site_symmetry_multiplicity
 _atom_site_fract_x
 _atom_site_fract_y
 _atom_site_fract_z
 _atom_site_occupancy
  Zr  Zr0  1  0.69643962  0.89669635  0.71025481  1
  Zr  Zr1  1  0.70048859  0.89646556  0.10019998  1
  Zr  Zr2  1  0.09350123  0.30534025  0.90199752  1
  Zr  Zr3  1  0.69786508  0.31236022  0.50220240  1
  Zr  Zr4  1  0.29910189  0.09382955  0.70784456  1
  Zr  Zr5  1  0.90296169  0.70245210  0.70526677  1
  Zr  Zr6  1  0.50147819  0.49168970  0.49761505  1
  Zr  Zr7  1  0.49458021  0.70530248  0.29192292  1
  Zr  Zr8  1  0.50403151  0.50611258  0.10527140  1
  Zr  Zr9  1  0.71281505  0.09784781  0.49302645  1
  Zr  Zr10  1  0.70129611  0.50221371  0.10015643  1
  Zr  Zr11  1  0.50457013  0.89913785  0.29330922  1
  Zr  Zr12  1  0.90189423  0.50208871  0.10297633  1
  Zr  Zr13  1  0.50300838  0.69495715  0.49240980  1
  Zr  Zr14  1  0.09968051  0.09799956  0.50024036  1
  Zr  Zr15  1  0.09998736  0.50049923  0.30381130  1
  Zr  Zr16  1  0.69490366  0.10812000  0.89381261  1
  Zr  Zr17  1  0.29384522  0.90157065  0.09405626  1
  Zr  Zr18  1  0.91424820  0.50537246  0.29676491  1
  Zr  Zr19  1  0.10052598  0.69319566  0.69849271  1
  Zr  Zr20  1  0.69623994  0.51156722  0.49986364  1
  Zr  Zr21  1  0.49803887  0.50070588  0.89776502  1
  Zr  Zr22  1  0.09181896  0.09472259  0.89923937  1
  Zr  Zr23  1  0.10156323  0.69896127  0.50244986  1
  Zr  Zr24  1  0.09313363  0.09605348  0.69374956  1
  Zr  Zr25  1  0.10269420  0.89419789  0.50051856  1
  Zr  Zr26  1  0.70634550  0.70300573  0.69177067  1
  Zr  Zr27  1  0.70009998  0.29436048  0.70465489  1
  Zr  Zr28  1  0.50220542  0.09989116  0.29440417  1
  Zr  Zr29  1  0.49494246  0.10316052  0.50170827  1
  Zr  Zr30  1  0.68910758  0.49603442  0.30459266  1
  Zr  Zr31  1  0.70028473  0.70722484  0.30902957  1
  Zr  Zr32  1  0.70312528  0.71470454  0.89788553  1
  Zr  Zr33  1  0.29370197  0.49699408  0.30445362  1
  Zr  Zr34  1  0.30564423  0.68856244  0.29981576  1
  Zr  Zr35  1  0.11426305  0.29410771  0.50887975  1
  Zr  Zr36  1  0.49969431  0.28633624  0.89403731  1
  Zr  Zr37  1  0.10187937  0.70070096  0.30893204  1
  Zr  Zr38  1  0.29514691  0.69960755  0.70480543  1
  Zr  Zr39  1  0.10577397  0.48997712  0.70045158  1
  Zr  Zr40  1  0.89832850  0.70479203  0.10488428  1
  Zr  Zr41  1  0.70109618  0.50390832  0.90652923  1
  Zr  Zr42  1  0.49992657  0.70504382  0.90037918  1
  Zr  Zr43  1  0.30096473  0.50250761  0.70104613  1
  Zr  Zr44  1  0.31011776  0.91003106  0.90165796  1
  Zr  Zr45  1  0.88912455  0.09805034  0.30289475  1
  Zr  Zr46  1  0.09741541  0.50070258  0.49941525  1
  Zr  Zr47  1  0.49581717  0.29625213  0.10062946  1
  Zr  Zr48  1  0.09718552  0.70370117  0.89839552  1
  Zr  Zr49  1  0.69825841  0.29473428  0.10683463  1
  Sc  Sc50  1  0.30378355  0.29293487  0.90964055  1
  Sc  Sc51  1  0.49905998  0.09985993  0.10740768  1
  Sc  Sc52  1  0.69434369  0.49302913  0.68987354  1
  Sc  Sc53  1  0.49875022  0.30181982  0.30428421  1
  Sc  Sc54  1  0.49435936  0.89382846  0.50768520  1
  Sc  Sc55  1  0.10939932  0.71048123  0.09264915  1
  Sc  Sc56  1  0.09613892  0.89746906  0.90503798  1
  Sc  Sc57  1  0.29531273  0.30325255  0.68721410  1
  Sc  Sc58  1  0.89923384  0.09277229  0.50698470  1
  Sc  Sc59  1  0.91714822  0.49735201  0.69788630  1
  Sc  Sc60  1  0.10104234  0.08857463  0.09733352  1
  Sc  Sc61  1  0.70283117  0.90276603  0.30022396  1
  Sc  Sc62  1  0.29656356  0.11182639  0.50744303  1
  Sc  Sc63  1  0.89160361  0.69945121  0.50007615  1
  Sc  Sc64  1  0.69881274  0.10577801  0.10743719  1
  Sc  Sc65  1  0.50198643  0.49821283  0.69777709  1
  Sc  Sc66  1  0.90785689  0.49679433  0.90175684  1
  Sc  Sc67  1  0.89968117  0.29784206  0.50399169  1
  Sc  Sc68  1  0.49569120  0.89792498  0.10477832  1
  Sc  Sc69  1  0.70691186  0.88889653  0.50005630  1
  Sc  Sc70  1  0.09867627  0.90249401  0.70054781  1
  Sc  Sc71  1  0.89925897  0.29474138  0.90891282  1
  Sc  Sc72  1  0.10159604  0.49678068  0.89992396  1
  Sc  Sc73  1  0.30223399  0.11250247  0.28742641  1
  Sc  Sc74  1  0.70318778  0.10330327  0.29466637  1
  Sc  Sc75  1  0.89856008  0.89265344  0.29067602  1
  Sc  Sc76  1  0.90846703  0.89622014  0.89650551  1
  Sc  Sc77  1  0.90085549  0.29915802  0.09455391  1
  Sc  Sc78  1  0.49417670  0.51260685  0.30499176  1
  Sc  Sc79  1  0.29264707  0.70662310  0.90238037  1
  Sc  Sc80  1  0.29717600  0.29392618  0.09549465  1
  Sc  Sc81  1  0.89748557  0.89885812  0.49655604  1
  Sc  Sc82  1  0.10137517  0.49473069  0.09989638  1
  Sc  Sc83  1  0.90243381  0.29947398  0.29804230  1
  Sc  Sc84  1  0.69560397  0.69719853  0.09366299  1
  Sc  Sc85  1  0.29220129  0.50301429  0.09461816  1
  Sc  Sc86  1  0.30510490  0.88756688  0.29156333  1
  Sc  Sc87  1  0.10674263  0.30517280  0.29617108  1
  Sc  Sc88  1  0.70074914  0.29330369  0.90259950  1
  Sc  Sc89  1  0.29792369  0.49312542  0.49716505  1
  Sc  Sc90  1  0.29330004  0.70424249  0.50052093  1
  Sc  Sc91  1  0.10875448  0.09829301  0.29025767  1
  Sc  Sc92  1  0.90372115  0.90141786  0.69745344  1
  Sc  Sc93  1  0.29552878  0.50208663  0.90092386  1
  Sc  Sc94  1  0.90533370  0.70673623  0.89551299  1
  Sc  Sc95  1  0.09569984  0.30182066  0.09389559  1
  Sc  Sc96  1  0.29817350  0.70438164  0.09872990  1
  Sc  Sc97  1  0.49755910  0.90067803  0.70618820  1
  Sc  Sc98  1  0.49536352  0.70442624  0.70428018  1
  Sc  Sc99  1  0.49499088  0.10385632  0.71267958  1
  Nb  Nb100  1  0.70395320  0.10118510  0.69861929  1
  Nb  Nb101  1  0.89864465  0.10158335  0.90296134  1
  Nb  Nb102  1  0.30178788  0.30521370  0.30279802  1
  Nb  Nb103  1  0.90186004  0.49680126  0.49093666  1
  Nb  Nb104  1  0.50889187  0.90707869  0.89555897  1
  Nb  Nb105  1  0.49273173  0.30104052  0.50597415  1
  Nb  Nb106  1  0.49821309  0.69573758  0.10179473  1
  Nb  Nb107  1  0.31065825  0.30609929  0.49133629  1
  Nb  Nb108  1  0.29899373  0.90452239  0.50470334  1
  Nb  Nb109  1  0.70507847  0.29661064  0.30497212  1
  Nb  Nb110  1  0.89592615  0.10129285  0.70390566  1
  Nb  Nb111  1  0.69793051  0.90381396  0.89842994  1
  Nb  Nb112  1  0.91026890  0.90621814  0.10045675  1
  Nb  Nb113  1  0.29862745  0.89747292  0.68998557  1
  Nb  Nb114  1  0.48657789  0.09187652  0.89538580  1
  Nb  Nb115  1  0.10015685  0.90420660  0.29660340  1
  Nb  Nb116  1  0.30840380  0.10059182  0.90190007  1
  Nb  Nb117  1  0.70279581  0.69913780  0.50172577  1
  Nb  Nb118  1  0.50029630  0.30303647  0.69854506  1
  Nb  Nb119  1  0.90244197  0.69619823  0.29959152  1
  Nb  Nb120  1  0.90007646  0.29792851  0.70522654  1
  Nb  Nb121  1  0.09736529  0.29868388  0.70424710  1
  Nb  Nb122  1  0.30316040  0.09910423  0.08762224  1
  Nb  Nb123  1  0.09182668  0.90343102  0.10799091  1
  Nb  Nb124  1  0.90201552  0.09918066  0.09620799  1
  Nb  Nb125  1  0.80250909  0.40664747  0.39809015  1
  Nb  Nb126  1  0.39442794  0.40057596  0.20195028  1
  Nb  Nb127  1  0.00371648  0.19272423  0.39702140  1
  Nb  Nb128  1  0.59940649  0.19920164  0.59987493  1
  Nb  Nb129  1  0.00750752  -0.00186958  0.39274450  1
  Nb  Nb130  1  0.79708764  0.40181287  0.20713994  1
  Nb  Nb131  1  0.60762584  0.60415109  0.80133422  1
  Nb  Nb132  1  -0.00216094  0.19872027  0.79644911  1
  Nb  Nb133  1  -0.00284582  0.19193586  0.19944140  1
  Nb  Nb134  1  0.60474723  0.00751694  0.60103821  1
  Nb  Nb135  1  0.39534486  -0.00127523  0.40123298  1
  Nb  Nb136  1  0.80256714  0.39944501  0.79799326  1
  Nb  Nb137  1  0.59694638  0.39888420  0.00210871  1
  Nb  Nb138  1  0.59577208  0.00387695  0.40569629  1
  Nb  Nb139  1  0.79797208  0.59464902  0.79810940  1
  Nb  Nb140  1  0.00145490  0.60546356  0.00244090  1
  Nb  Nb141  1  0.40284362  0.39432587  0.79784124  1
  Nb  Nb142  1  0.79987312  0.00114142  -0.00387607  1
  Nb  Nb143  1  0.19431268  0.19761057  0.80035952  1
  Nb  Nb144  1  0.39804377  0.59952890  0.59917584  1
  Nb  Nb145  1  0.60044114  -0.00087724  -0.00719283  1
  Nb  Nb146  1  0.40488435  0.60446025  0.00060615  1
  Nb  Nb147  1  0.20553226  -0.00517296  0.39726346  1
  Nb  Nb148  1  0.79943876  0.00583331  0.80362948  1
  Nb  Nb149  1  0.60102543  0.20172692  0.40712602  1
  Pd  Pd150  1  0.19953281  0.00020997  0.59686820  1
  Pd  Pd151  1  0.79621129  0.79771818  0.19993373  1
  Pd  Pd152  1  0.21093755  -0.00067220  0.20242213  1
  Pd  Pd153  1  0.19445684  0.20387721  0.18882671  1
  Pd  Pd154  1  0.80959918  0.80895483  -0.00126595  1
  Pd  Pd155  1  0.60302760  0.40289724  0.80666158  1
  Pd  Pd156  1  0.01562666  0.61134810  0.19078703  1
  Pd  Pd157  1  -0.00569342  0.20172288  0.59928780  1
  Pd  Pd158  1  0.81082565  0.59055776  0.60683841  1
  Pd  Pd159  1  0.80817053  0.40808113  0.60202548  1
  Pd  Pd160  1  0.00145149  0.39293238  0.59544215  1
  Pd  Pd161  1  0.39111369  0.00022747  0.20147407  1
  Pd  Pd162  1  0.20040536  -0.00222446  0.80471959  1
  Pd  Pd163  1  0.59212777  0.19330036  0.00122033  1
  Pd  Pd164  1  0.81251874  0.60795603  -0.00936082  1
  Pd  Pd165  1  0.39597196  0.80470589  0.40308888  1
  Pd  Pd166  1  0.60651397  0.60951199  0.20694274  1
  Pd  Pd167  1  0.79886985  -0.00043960  0.19293930  1
  Pd  Pd168  1  0.39885822  0.20143101  0.60962843  1
  Pd  Pd169  1  0.79872995  0.20293110  0.59636342  1
  Pd  Pd170  1  0.19504172  -0.00258926  -0.00492884  1
  Pd  Pd171  1  0.59187298  0.80700862  0.00542214  1
  Pd  Pd172  1  0.00179709  0.38582981  0.40289643  1
  Pd  Pd173  1  0.40146643  0.40648374  0.00094991  1
  Pd  Pd174  1  0.20467709  0.39461248  0.19215380  1
  Pd  Pd175  1  0.40389425  0.79925240  0.00171656  1
  Pd  Pd176  1  0.40126596  0.19664786  0.39515640  1
  Pd  Pd177  1  0.00599007  0.79410411  0.20107804  1
  Pd  Pd178  1  0.19871676  0.81215804  0.79953042  1
  Pd  Pd179  1  -0.00211286  0.80109294  0.60068807  1
  Pd  Pd180  1  0.79556939  0.39425670  0.00033263  1
  Pd  Pd181  1  0.59866100  0.80443824  0.60033075  1
  Pd  Pd182  1  0.39682714  0.79173886  0.59937639  1
  Pd  Pd183  1  0.59535535  0.39420274  0.20116373  1
  Pd  Pd184  1  0.19583683  0.60253683  0.19529937  1
  Pd  Pd185  1  0.21221101  0.38785720  0.80719401  1
  Pd  Pd186  1  0.59066616  0.60659054  0.60729920  1
  Pd  Pd187  1  0.19328119  0.19502788  -0.00341515  1
  Pd  Pd188  1  0.40549402  0.00168745  0.60276490  1
  Pd  Pd189  1  0.79246985  0.59932385  0.20941958  1
  Pd  Pd190  1  -0.00779477  0.80191703  0.39718514  1
  Pd  Pd191  1  0.19919627  0.79777582  0.20227620  1
  Pd  Pd192  1  0.19482959  0.59770953  0.80631050  1
  Pd  Pd193  1  -0.00636323  0.60123706  0.59371391  1
  Pd  Pd194  1  0.20016121  0.19647945  0.39543404  1
  Pd  Pd195  1  0.20828339  0.80480457  0.39599515  1
  Pd  Pd196  1  0.79652507  -0.00978828  0.60751851  1
  Pd  Pd197  1  0.39585586  0.80692266  0.80130321  1
  Pd  Pd198  1  0.59882893  0.80744951  0.40413608  1
  Pd  Pd199  1  0.80284465  0.59759924  0.39425471  1
  Rh  Rh200  1  0.40572419  0.18988724  0.00334000  1
  Rh  Rh201  1  -0.00063148  0.40980066  0.00330195  1
  Rh  Rh202  1  0.81032748  0.20795910  0.19559682  1
  Rh  Rh203  1  0.79815090  0.19292568  0.00751678  1
  Rh  Rh204  1  0.19825193  0.81153652  -0.00208909  1
  Rh  Rh205  1  0.20011647  0.59817293  0.40552895  1
  Rh  Rh206  1  0.59427574  0.39379406  0.59907361  1
  Rh  Rh207  1  0.40987286  0.00186126  0.00642460  1
  Rh  Rh208  1  0.40517911  0.59310966  0.79920699  1
  Rh  Rh209  1  0.59539597  0.19481738  0.79346261  1
  Rh  Rh210  1  0.39452951  0.59886548  0.41071308  1
  Rh  Rh211  1  0.20413677  0.19874614  0.60903063  1
  Rh  Rh212  1  -0.00357714  -0.00524645  0.59387629  1
  Rh  Rh213  1  0.80286141  0.21006967  0.40583813  1
  Rh  Rh214  1  -0.00942338  0.00349795  0.79953854  1
  Rh  Rh215  1  -0.00630005  0.38978852  0.19593321  1
  Rh  Rh216  1  -0.00669847  0.00594133  0.20618233  1
  Rh  Rh217  1  0.80535181  0.79658687  0.39737568  1
  Rh  Rh218  1  0.80551169  0.80557309  0.79876512  1
  Rh  Rh219  1  0.59205228  0.59906842  -0.00722422  1
  Rh  Rh220  1  0.80858167  0.20191591  0.80252183  1
  Rh  Rh221  1  -0.00079612  0.79937246  0.00917929  1
  Rh  Rh222  1  -0.00874479  0.39126723  0.80345401  1
  Rh  Rh223  1  0.39715492  0.79594058  0.19100007  1
  Rh  Rh224  1  0.00285861  0.19348255  0.00236530  1
  Rh  Rh225  1  -0.00295357  0.61005959  0.40658521  1
  Rh  Rh226  1  0.39845428  0.40571307  0.60427746  1
  Rh  Rh227  1  0.38568044  0.21006112  0.79525996  1
  Rh  Rh228  1  0.19900099  0.80022840  0.60548446  1
  Rh  Rh229  1  0.39432367  0.20846801  0.19574554  1
  Rh  Rh230  1  0.59679137  0.79415535  0.79813352  1
  Rh  Rh231  1  0.19558894  0.39542015  0.40504050  1
  Rh  Rh232  1  0.80338059  0.80263915  0.60045420  1
  Rh  Rh233  1  0.00027189  0.59863925  0.80776717  1
  Rh  Rh234  1  0.39115845  0.59426281  0.18997315  1
  Rh  Rh235  1  0.80146971  -0.00924393  0.39618356  1
  Rh  Rh236  1  0.20585264  0.59584017  0.59712854  1
  Rh  Rh237  1  0.60398852  0.79603077  0.19539347  1
  Rh  Rh238  1  0.59824254  0.20470369  0.21208877  1
  Rh  Rh239  1  0.59922763  0.60717676  0.39648259  1
  Rh  Rh240  1  0.20218683  0.40073014  0.59551844  1
  Rh  Rh241  1  0.19831057  0.60220515  -0.00349027  1
  Rh  Rh242  1  0.39601712  -0.00833465  0.79288706  1
  Rh  Rh243  1  0.60316644  0.00845806  0.79822986  1
  Rh  Rh244  1  -0.00413441  -0.00330115  -0.00052221  1
  Rh  Rh245  1  0.40437369  0.40193786  0.39224977  1
  Rh  Rh246  1  0.20020895  0.39740700  -0.00312600  1
  Rh  Rh247  1  0.60644181  -0.00233898  0.19769423  1
  Rh  Rh248  1  0.00676182  0.80227961  0.79210865  1
  Rh  Rh249  1  0.59771356  0.39347959  0.40042355  1
