# generated using pymatgen
data_ZrScNbPdRh
_symmetry_space_group_name_H-M   'P 1'
_cell_length_a   16.55919207
_cell_length_b   16.56517697
_cell_length_c   16.56289649
_cell_angle_alpha   90.03169896
_cell_angle_beta   90.01582107
_cell_angle_gamma   90.02485956
_symmetry_Int_Tables_number   1
_chemical_formula_structural   ZrScNbPdRh
_chemical_formula_sum   'Zr50 Sc50 Nb50 Pd50 Rh50'
_cell_volume   4543.29971218
_cell_formula_units_Z   50
loop_
 _symmetry_equiv_pos_site_id
 _symmetry_equiv_pos_as_xyz
  1  'x, y, z'
loop_
 _atom_site_type_symbol
 _atom_site_label
 _atom_site_symmetry_multiplicity
 _atom_site_fract_x
 _atom_site_fract_y
 _atom_site_fract_z
 _atom_site_occupancy
  Zr  Zr0  1  0.90194542  0.31417702  0.10111908  1
  Zr  Zr1  1  0.70246586  0.49307325  0.10075355  1
  Zr  Zr2  1  0.10039910  0.68910503  0.10300585  1
  Zr  Zr3  1  0.49444807  0.10249690  0.50454741  1
  Zr  Zr4  1  0.50102357  0.70689265  0.50884096  1
  Zr  Zr5  1  0.30687425  0.90961008  0.50086867  1
  Zr  Zr6  1  0.69544296  0.10022572  0.90241444  1
  Zr  Zr7  1  0.29641341  0.29035237  0.09250154  1
  Zr  Zr8  1  0.11045635  0.09866367  0.69772714  1
  Zr  Zr9  1  0.90099030  0.29317871  0.30086924  1
  Zr  Zr10  1  0.09484443  0.70326539  0.30153079  1
  Zr  Zr11  1  0.49507163  0.49616352  0.30012767  1
  Zr  Zr12  1  0.11737670  0.09719323  0.49439259  1
  Zr  Zr13  1  0.30437506  0.49812893  0.89925541  1
  Zr  Zr14  1  0.69343250  0.69203719  0.10110729  1
  Zr  Zr15  1  0.49876052  0.49987234  0.09650145  1
  Zr  Zr16  1  0.69417851  0.30336215  0.90922677  1
  Zr  Zr17  1  0.69186598  0.50172355  0.90155332  1
  Zr  Zr18  1  0.90727117  0.70043142  0.30016984  1
  Zr  Zr19  1  0.30011632  0.30214474  0.70426274  1
  Zr  Zr20  1  0.70353315  0.30371877  0.29979906  1
  Zr  Zr21  1  0.30393163  0.70251317  0.70658440  1
  Zr  Zr22  1  0.50165767  0.69955193  0.10209378  1
  Zr  Zr23  1  0.49274485  0.30480612  0.90275037  1
  Zr  Zr24  1  0.50617234  0.70553340  0.29922010  1
  Zr  Zr25  1  0.90072974  0.89945696  0.29819410  1
  Zr  Zr26  1  0.69891215  0.90084281  0.89307494  1
  Zr  Zr27  1  0.09461344  0.10481437  0.89250474  1
  Zr  Zr28  1  0.90540729  0.29753821  0.90006385  1
  Zr  Zr29  1  0.90594681  0.70293787  0.69949005  1
  Zr  Zr30  1  0.50605643  0.30342794  0.29435836  1
  Zr  Zr31  1  0.30003421  0.70036388  0.50519020  1
  Zr  Zr32  1  0.90173288  0.49990380  0.90419044  1
  Zr  Zr33  1  0.09305369  0.49665429  0.09465023  1
  Zr  Zr34  1  0.89295203  0.89465865  0.69825861  1
  Zr  Zr35  1  0.89843600  0.70119996  0.89723295  1
  Zr  Zr36  1  0.70608085  0.10260640  0.29015915  1
  Zr  Zr37  1  0.70183839  0.50174149  0.69617851  1
  Zr  Zr38  1  0.69751933  0.49754290  0.29773054  1
  Zr  Zr39  1  0.90208654  0.89112674  0.90058896  1
  Zr  Zr40  1  0.89808107  0.09692078  0.29827617  1
  Zr  Zr41  1  0.89734187  0.09827214  0.70291945  1
  Zr  Zr42  1  0.29634437  0.51140468  0.09854939  1
  Zr  Zr43  1  0.30846191  0.09659377  0.69385160  1
  Zr  Zr44  1  0.49711922  0.89781920  0.90196228  1
  Zr  Zr45  1  0.49469373  0.89771588  0.70004894  1
  Zr  Zr46  1  0.69361298  0.29569064  0.10663921  1
  Zr  Zr47  1  0.10711648  0.50463676  0.90458118  1
  Zr  Zr48  1  0.30071033  0.49848867  0.49464002  1
  Zr  Zr49  1  0.49464368  0.70294665  0.69740237  1
  Sc  Sc50  1  0.30530425  0.30210559  0.90056534  1
  Sc  Sc51  1  0.10106239  0.90244056  0.09180564  1
  Sc  Sc52  1  0.10471325  0.89861082  0.90346504  1
  Sc  Sc53  1  0.29779159  0.70011119  0.90131805  1
  Sc  Sc54  1  0.30151779  0.09680531  0.90334248  1
  Sc  Sc55  1  0.70043915  0.69712465  0.29629188  1
  Sc  Sc56  1  0.30589925  0.68921540  0.29705472  1
  Sc  Sc57  1  0.09783451  0.28036408  0.29598312  1
  Sc  Sc58  1  0.70547683  0.08838883  0.49367111  1
  Sc  Sc59  1  0.69977072  0.89326753  0.49989774  1
  Sc  Sc60  1  0.10152032  0.51503733  0.70032487  1
  Sc  Sc61  1  0.50064355  0.49876700  0.70324545  1
  Sc  Sc62  1  0.30690389  0.30170236  0.30250195  1
  Sc  Sc63  1  0.11109210  0.30394835  0.90531686  1
  Sc  Sc64  1  0.90628786  0.90420554  0.09294873  1
  Sc  Sc65  1  0.89255704  0.30103357  0.49646671  1
  Sc  Sc66  1  0.30347632  0.09656958  0.31757333  1
  Sc  Sc67  1  0.70236886  0.49355628  0.50677845  1
  Sc  Sc68  1  0.69920085  0.90239194  0.30607322  1
  Sc  Sc69  1  0.50379087  0.89338914  0.49561717  1
  Sc  Sc70  1  0.69604975  0.70036270  0.89786425  1
  Sc  Sc71  1  0.89528119  0.09708339  0.90795442  1
  Sc  Sc72  1  0.89555546  0.50962355  0.69383864  1
  Sc  Sc73  1  0.30138902  0.50474628  0.70670148  1
  Sc  Sc74  1  0.10649465  0.28205221  0.49309946  1
  Sc  Sc75  1  0.30977037  0.90913073  0.30789133  1
  Sc  Sc76  1  0.89788592  0.50542710  0.50346361  1
  Sc  Sc77  1  0.50143739  0.30427658  0.50668961  1
  Sc  Sc78  1  0.09724492  0.52023640  0.49921310  1
  Sc  Sc79  1  0.89080479  0.89471803  0.50037229  1
  Sc  Sc80  1  0.30362278  0.29146664  0.49903511  1
  Sc  Sc81  1  0.50007705  0.29447385  0.70193902  1
  Sc  Sc82  1  0.69060914  0.89868826  0.08785020  1
  Sc  Sc83  1  0.30711531  0.50015065  0.29698779  1
  Sc  Sc84  1  0.68727488  0.30194944  0.69194611  1
  Sc  Sc85  1  0.09763566  0.70099944  0.89809300  1
  Sc  Sc86  1  0.90371802  0.70320735  0.49715588  1
  Sc  Sc87  1  0.09571985  0.51488918  0.29460617  1
  Sc  Sc88  1  0.49919502  0.69710970  0.89349103  1
  Sc  Sc89  1  0.10241356  0.89485041  0.50294557  1
  Sc  Sc90  1  0.89558289  0.50061937  0.29753607  1
  Sc  Sc91  1  0.10294054  0.28714500  0.71066303  1
  Sc  Sc92  1  0.69339729  0.69659736  0.69531368  1
  Sc  Sc93  1  0.49789043  0.10783968  0.89376866  1
  Sc  Sc94  1  0.10759169  0.10372125  0.10460527  1
  Sc  Sc95  1  0.29886821  0.90032423  0.70878784  1
  Sc  Sc96  1  0.89779722  0.30187833  0.69639945  1
  Sc  Sc97  1  0.09492964  0.89969202  0.29752470  1
  Sc  Sc98  1  0.10230389  0.70858520  0.69441925  1
  Sc  Sc99  1  0.49718307  0.49717596  0.50477877  1
  Nb  Nb100  1  0.90259758  0.50098766  0.09608770  1
  Nb  Nb101  1  0.30886579  0.08835540  0.09908974  1
  Nb  Nb102  1  0.09089233  0.89838092  0.70183047  1
  Nb  Nb103  1  0.50745034  0.10484210  0.69944912  1
  Nb  Nb104  1  0.69856548  0.10365000  0.10160501  1
  Nb  Nb105  1  0.69560006  0.10191825  0.70298564  1
  Nb  Nb106  1  0.70191964  0.91168268  0.69709978  1
  Nb  Nb107  1  0.09795606  0.70473823  0.49467016  1
  Nb  Nb108  1  0.88975139  0.10156970  0.10356021  1
  Nb  Nb109  1  0.90291622  0.69991106  0.09605515  1
  Nb  Nb110  1  0.30411812  0.90689026  0.09027470  1
  Nb  Nb111  1  0.68540103  0.70005830  0.49882382  1
  Nb  Nb112  1  0.90177387  0.09755247  0.49997439  1
  Nb  Nb113  1  0.48928286  0.90754183  0.10044841  1
  Nb  Nb114  1  0.49714153  0.49657006  0.90365822  1
  Nb  Nb115  1  0.49678797  0.29453932  0.09973075  1
  Nb  Nb116  1  0.29896488  0.09689123  0.50197422  1
  Nb  Nb117  1  0.30023252  0.90268742  0.91562205  1
  Nb  Nb118  1  0.50164023  0.09701760  0.29945058  1
  Nb  Nb119  1  0.69779813  0.29739621  0.50343720  1
  Nb  Nb120  1  0.10191991  0.30107214  0.10172242  1
  Nb  Nb121  1  0.30001304  0.70376249  0.10470042  1
  Nb  Nb122  1  0.50090982  0.90463306  0.29719885  1
  Nb  Nb123  1  0.49670795  0.09875145  0.10103701  1
  Nb  Nb124  1  0.10273098  0.09643502  0.30615330  1
  Nb  Nb125  1  0.60280919  0.20030408  0.39812594  1
  Nb  Nb126  1  0.19501405  0.39638288  0.19910596  1
  Nb  Nb127  1  0.60056424  0.00359096  0.60769771  1
  Nb  Nb128  1  -0.00085762  0.40282657  0.79635789  1
  Nb  Nb129  1  0.20984667  -0.00146016  0.19894329  1
  Nb  Nb130  1  0.19226080  0.39977421  0.59459563  1
  Nb  Nb131  1  0.79931875  0.39890933  0.80107174  1
  Nb  Nb132  1  0.20225932  0.79620074  0.39684843  1
  Nb  Nb133  1  0.80323970  0.79682548  0.19292860  1
  Nb  Nb134  1  -0.00032527  0.00103829  0.60020471  1
  Nb  Nb135  1  0.00006000  0.20266455  0.00939742  1
  Nb  Nb136  1  0.00862800  0.39842608  0.40407646  1
  Nb  Nb137  1  -0.00299256  0.19362138  0.59653367  1
  Nb  Nb138  1  0.19210368  0.40112266  0.39777155  1
  Nb  Nb139  1  0.59236736  0.00449319  0.19491037  1
  Nb  Nb140  1  0.40424665  0.19017258  0.19671046  1
  Nb  Nb141  1  0.01057119  0.39444894  0.59785083  1
  Nb  Nb142  1  0.00053735  0.00532032  0.40413710  1
  Nb  Nb143  1  0.59992263  0.60045856  0.40379032  1
  Nb  Nb144  1  0.79206695  0.20311244  0.79812279  1
  Nb  Nb145  1  0.21054412  0.80455842  0.19817427  1
  Nb  Nb146  1  0.80315447  0.59914068  0.00446639  1
  Nb  Nb147  1  0.39890514  0.80999906  0.19411317  1
  Nb  Nb148  1  -0.00001600  -0.00393475  0.79451658  1
  Nb  Nb149  1  0.79669404  0.19345844  0.60077263  1
  Pd  Pd150  1  0.80454854  0.00396316  0.80713660  1
  Pd  Pd151  1  0.59441602  0.79688273  -0.00314742  1
  Pd  Pd152  1  0.40225104  0.79181369  0.00016296  1
  Pd  Pd153  1  0.79567059  0.79469401  0.00563546  1
  Pd  Pd154  1  0.80682055  0.60356520  0.19454058  1
  Pd  Pd155  1  0.59934451  0.39657837  0.79588053  1
  Pd  Pd156  1  0.79834582  0.61132229  0.59176730  1
  Pd  Pd157  1  0.59327076  0.00567251  0.00119961  1
  Pd  Pd158  1  0.00187761  0.80357617  0.18856112  1
  Pd  Pd159  1  0.39981738  0.00091968  0.80457373  1
  Pd  Pd160  1  0.79238142  0.60321015  0.40618334  1
  Pd  Pd161  1  0.79397599  0.79472283  0.39280091  1
  Pd  Pd162  1  0.00372124  0.01001130  -0.00211207  1
  Pd  Pd163  1  0.20199415  0.60152020  0.39345967  1
  Pd  Pd164  1  0.39361817  0.40055026  0.60420288  1
  Pd  Pd165  1  -0.00284669  0.19079743  0.19262713  1
  Pd  Pd166  1  0.21415062  0.19722378  0.80705682  1
  Pd  Pd167  1  0.19558556  0.79436693  0.00529562  1
  Pd  Pd168  1  0.59341091  -0.00033987  0.79771750  1
  Pd  Pd169  1  0.59726038  0.00286339  0.40168474  1
  Pd  Pd170  1  0.00622327  0.40234495  0.21340428  1
  Pd  Pd171  1  0.79769820  -0.00443284  0.00366702  1
  Pd  Pd172  1  0.20469932  0.80566445  0.59762976  1
  Pd  Pd173  1  0.59157001  0.19807759  -0.00010222  1
  Pd  Pd174  1  0.20214843  0.59987253  0.60253263  1
  Pd  Pd175  1  0.78938868  -0.01371014  0.18881829  1
  Pd  Pd176  1  0.60309992  0.81374008  0.20025349  1
  Pd  Pd177  1  0.19875484  -0.00571260  0.80541040  1
  Pd  Pd178  1  0.39027213  0.39240211  0.19015276  1
  Pd  Pd179  1  0.79458798  0.19705884  0.40650802  1
  Pd  Pd180  1  0.40098276  0.60682900  -0.00532095  1
  Pd  Pd181  1  0.80429683  0.20376953  0.00255211  1
  Pd  Pd182  1  0.59444304  0.59998995  0.79678429  1
  Pd  Pd183  1  0.00179321  0.59899455  0.79824573  1
  Pd  Pd184  1  0.19849338  -0.01148459  0.60383720  1
  Pd  Pd185  1  0.20112511  0.80372807  0.80558212  1
  Pd  Pd186  1  0.41038974  0.60339406  0.40338147  1
  Pd  Pd187  1  0.19714948  0.19186812  -0.00378653  1
  Pd  Pd188  1  0.59931524  0.40064111  0.40872020  1
  Pd  Pd189  1  0.39835271  0.20418026  0.60319495  1
  Pd  Pd190  1  0.79134830  0.79123669  0.60065843  1
  Pd  Pd191  1  0.40790006  0.20376031  0.39694605  1
  Pd  Pd192  1  0.80650025  0.40426270  0.40317617  1
  Pd  Pd193  1  0.39984562  0.59414861  0.60406100  1
  Pd  Pd194  1  0.21431733  0.19416426  0.20829346  1
  Pd  Pd195  1  0.00829787  0.00716535  0.20012651  1
  Pd  Pd196  1  0.78891651  0.79378735  0.79199314  1
  Pd  Pd197  1  0.60322321  0.79995824  0.79288147  1
  Pd  Pd198  1  0.19229224  0.40540959  0.79114948  1
  Pd  Pd199  1  0.39494103  0.79772504  0.39319774  1
  Rh  Rh200  1  -0.00774539  0.19852087  0.80181494  1
  Rh  Rh201  1  0.79518843  0.00240641  0.59675271  1
  Rh  Rh202  1  0.20559916  0.20554634  0.60203712  1
  Rh  Rh203  1  0.39187175  0.80542736  0.81082014  1
  Rh  Rh204  1  0.39931074  0.00105015  0.20618240  1
  Rh  Rh205  1  0.40632944  0.60618044  0.19835977  1
  Rh  Rh206  1  0.00788604  0.39357254  -0.00780331  1
  Rh  Rh207  1  0.40226526  0.19565130  0.00303156  1
  Rh  Rh208  1  0.20631341  0.40284959  0.00844538  1
  Rh  Rh209  1  0.20268729  0.60543005  -0.00193480  1
  Rh  Rh210  1  0.79531309  0.59485277  0.80881237  1
  Rh  Rh211  1  0.19247075  -0.01271303  0.39237227  1
  Rh  Rh212  1  0.59694377  0.40282490  0.60096460  1
  Rh  Rh213  1  0.60857548  0.18882451  0.58684662  1
  Rh  Rh214  1  -0.00002375  0.60673396  0.59875448  1
  Rh  Rh215  1  0.40505041  0.40234039  0.79932352  1
  Rh  Rh216  1  0.59377185  0.19346694  0.20409817  1
  Rh  Rh217  1  0.60289179  0.20672840  0.80613545  1
  Rh  Rh218  1  0.41061674  0.00040657  0.40798909  1
  Rh  Rh219  1  0.00561752  0.81018292  0.40583894  1
  Rh  Rh220  1  0.40303226  0.59745786  0.80392268  1
  Rh  Rh221  1  0.40838968  -0.00130615  0.60038772  1
  Rh  Rh222  1  0.80821958  -0.00616988  0.39929356  1
  Rh  Rh223  1  0.60016300  0.60024069  -0.00295861  1
  Rh  Rh224  1  -0.00447469  0.60471295  -0.00244931  1
  Rh  Rh225  1  0.20110415  0.59841371  0.20201342  1
  Rh  Rh226  1  0.59186257  0.39763034  0.00749313  1
  Rh  Rh227  1  -0.00258811  0.80263385  0.59419243  1
  Rh  Rh228  1  0.79787908  0.40560902  -0.00380293  1
  Rh  Rh229  1  0.20151001  0.60778658  0.80048450  1
  Rh  Rh230  1  0.39605346  0.40025772  0.00549966  1
  Rh  Rh231  1  0.60282700  0.79652563  0.39529617  1
  Rh  Rh232  1  0.40814294  0.00668031  -0.01218260  1
  Rh  Rh233  1  0.00471485  0.80379463  0.80288992  1
  Rh  Rh234  1  0.80226916  0.39188529  0.60433696  1
  Rh  Rh235  1  0.39782203  0.19885607  0.79558105  1
  Rh  Rh236  1  0.80336935  0.39867099  0.20195122  1
  Rh  Rh237  1  -0.00338619  0.19529158  0.40473217  1
  Rh  Rh238  1  0.39441853  0.39532343  0.40512398  1
  Rh  Rh239  1  0.19542243  0.00698321  0.00303349  1
  Rh  Rh240  1  -0.00827011  0.59621581  0.19834464  1
  Rh  Rh241  1  0.59315263  0.58957916  0.20855127  1
  Rh  Rh242  1  0.39295522  0.80638624  0.60144492  1
  Rh  Rh243  1  0.60580208  0.81238090  0.60824489  1
  Rh  Rh244  1  0.59618659  0.40355645  0.19298591  1
  Rh  Rh245  1  0.80537006  0.20762820  0.19306998  1
  Rh  Rh246  1  0.00646966  0.79486480  0.00023440  1
  Rh  Rh247  1  -0.00768896  0.59572825  0.40207237  1
  Rh  Rh248  1  0.59749748  0.59422901  0.59438028  1
  Rh  Rh249  1  0.21125057  0.20425083  0.39281624  1
