# generated using pymatgen
data_ZrScNbPdRh
_symmetry_space_group_name_H-M   'P 1'
_cell_length_a   16.56269842
_cell_length_b   16.55890617
_cell_length_c   16.55892169
_cell_angle_alpha   89.98667954
_cell_angle_beta   89.97886746
_cell_angle_gamma   90.00323459
_symmetry_Int_Tables_number   1
_chemical_formula_structural   ZrScNbPdRh
_chemical_formula_sum   'Zr50 Sc50 Nb50 Pd50 Rh50'
_cell_volume   4541.45222443
_cell_formula_units_Z   50
loop_
 _symmetry_equiv_pos_site_id
 _symmetry_equiv_pos_as_xyz
  1  'x, y, z'
loop_
 _atom_site_type_symbol
 _atom_site_label
 _atom_site_symmetry_multiplicity
 _atom_site_fract_x
 _atom_site_fract_y
 _atom_site_fract_z
 _atom_site_occupancy
  Zr  Zr0  1  0.70127050  0.50204012  0.69462956  1
  Zr  Zr1  1  0.50392675  0.29694185  0.89556942  1
  Zr  Zr2  1  0.30087224  0.10066889  0.10424238  1
  Zr  Zr3  1  0.70608510  0.89817135  0.88968722  1
  Zr  Zr4  1  0.50540336  0.10121828  0.09555101  1
  Zr  Zr5  1  0.11181039  0.70937772  0.71121955  1
  Zr  Zr6  1  0.30530412  0.30267528  0.50299331  1
  Zr  Zr7  1  0.49733622  0.30345028  0.69788695  1
  Zr  Zr8  1  0.89959361  0.88903047  0.09396016  1
  Zr  Zr9  1  0.10665714  0.29417107  0.90458033  1
  Zr  Zr10  1  0.30537138  0.49838811  0.29747178  1
  Zr  Zr11  1  0.89766800  0.91189402  0.71131862  1
  Zr  Zr12  1  0.10339119  0.49187398  0.09305909  1
  Zr  Zr13  1  0.69641190  0.69936458  0.90215068  1
  Zr  Zr14  1  0.49424009  0.49765330  0.70254886  1
  Zr  Zr15  1  0.49113413  0.69835002  0.69810491  1
  Zr  Zr16  1  0.49508007  0.90092037  0.89610079  1
  Zr  Zr17  1  0.30217279  0.69338436  0.30453120  1
  Zr  Zr18  1  0.68659547  0.29455390  0.10517681  1
  Zr  Zr19  1  0.50078541  0.50517754  0.90170033  1
  Zr  Zr20  1  0.29801392  0.30620811  0.29695168  1
  Zr  Zr21  1  0.90312915  0.49748852  0.30194116  1
  Zr  Zr22  1  0.10086049  0.29984442  0.49802116  1
  Zr  Zr23  1  0.30493255  0.90332512  0.49878082  1
  Zr  Zr24  1  0.50101880  0.90224013  0.69909302  1
  Zr  Zr25  1  0.49972159  0.49915173  0.50838533  1
  Zr  Zr26  1  0.08763952  0.89468118  0.89397842  1
  Zr  Zr27  1  0.30644406  0.29620384  0.70578405  1
  Zr  Zr28  1  0.29050679  0.89596347  0.69994334  1
  Zr  Zr29  1  0.69900424  0.70657792  0.10255399  1
  Zr  Zr30  1  0.30161932  0.90417373  0.09929552  1
  Zr  Zr31  1  0.90143647  0.10338913  0.69304808  1
  Zr  Zr32  1  0.30370171  0.09276486  0.69809372  1
  Zr  Zr33  1  0.30233495  0.70080387  0.08848540  1
  Zr  Zr34  1  0.89411027  0.49596535  0.49945700  1
  Zr  Zr35  1  0.90171092  0.29093592  0.50466324  1
  Zr  Zr36  1  0.91113955  0.50031849  0.09788837  1
  Zr  Zr37  1  0.89674257  0.49631810  0.70111891  1
  Zr  Zr38  1  0.69887543  0.70632441  0.69918450  1
  Zr  Zr39  1  0.29470014  0.69974878  0.89177540  1
  Zr  Zr40  1  0.89655571  0.70742923  0.49498855  1
  Zr  Zr41  1  0.29884036  0.50283179  0.49527430  1
  Zr  Zr42  1  0.10336907  0.09073865  0.70568629  1
  Zr  Zr43  1  0.70600813  0.49722765  0.50059117  1
  Zr  Zr44  1  0.70549876  0.29865950  0.49702374  1
  Zr  Zr45  1  0.69456548  0.90041178  0.11705564  1
  Zr  Zr46  1  0.89695179  0.90293994  0.50275039  1
  Zr  Zr47  1  0.69575838  0.29110646  0.29553958  1
  Zr  Zr48  1  0.90623789  0.29606878  0.29920123  1
  Zr  Zr49  1  0.10819173  0.50085654  0.29226014  1
  Sc  Sc50  1  0.48982581  0.70573394  0.50392320  1
  Sc  Sc51  1  0.70323116  0.71118032  0.50613169  1
  Sc  Sc52  1  0.09993091  0.30499190  0.29377180  1
  Sc  Sc53  1  0.09690603  0.90171086  0.30620479  1
  Sc  Sc54  1  0.09881927  0.50293950  0.49912584  1
  Sc  Sc55  1  0.50492334  0.90260396  0.49739404  1
  Sc  Sc56  1  0.49905002  0.08977156  0.69942786  1
  Sc  Sc57  1  0.70543502  0.09221553  0.70467665  1
  Sc  Sc58  1  0.30261131  0.90853390  0.30306949  1
  Sc  Sc59  1  0.70556466  0.29753129  0.70806442  1
  Sc  Sc60  1  0.90053545  0.69141232  0.69836387  1
  Sc  Sc61  1  0.69689969  0.89849975  0.69267685  1
  Sc  Sc62  1  0.49756522  0.90803396  0.09880628  1
  Sc  Sc63  1  0.09141884  0.68901073  0.09923201  1
  Sc  Sc64  1  0.50143103  0.09406628  0.89660664  1
  Sc  Sc65  1  0.69485537  0.50074847  0.09331972  1
  Sc  Sc66  1  0.70892100  0.49246256  0.30458447  1
  Sc  Sc67  1  0.10160024  0.69464768  0.51547302  1
  Sc  Sc68  1  0.49336609  0.29671931  0.50240750  1
  Sc  Sc69  1  0.10011905  0.10118710  0.29848646  1
  Sc  Sc70  1  0.10122564  0.90449103  0.50249950  1
  Sc  Sc71  1  0.48660225  0.70187125  0.90105887  1
  Sc  Sc72  1  0.10133351  0.90862568  0.08889743  1
  Sc  Sc73  1  0.70830679  0.49784054  0.89742431  1
  Sc  Sc74  1  0.90482755  0.10506484  0.09894863  1
  Sc  Sc75  1  0.49926572  0.09635675  0.30443581  1
  Sc  Sc76  1  0.08894724  0.51971647  0.70622164  1
  Sc  Sc77  1  0.30276995  0.29749366  0.90329672  1
  Sc  Sc78  1  0.49227031  0.29562089  0.10008043  1
  Sc  Sc79  1  0.09973698  0.10681677  0.09462315  1
  Sc  Sc80  1  0.69204854  0.10243077  0.89446435  1
  Sc  Sc81  1  0.09955159  0.09740813  0.90586044  1
  Sc  Sc82  1  0.89867375  0.88800157  0.30386567  1
  Sc  Sc83  1  0.50267030  0.69290999  0.09284547  1
  Sc  Sc84  1  0.49760027  0.49621274  0.10184144  1
  Sc  Sc85  1  0.49701283  0.70427194  0.30462236  1
  Sc  Sc86  1  0.90006144  0.09874511  0.89704920  1
  Sc  Sc87  1  0.10418454  0.29757484  0.09851680  1
  Sc  Sc88  1  0.70232533  0.71897286  0.30133048  1
  Sc  Sc89  1  0.30398581  0.09373933  0.29919709  1
  Sc  Sc90  1  0.89746528  0.30315865  0.89751250  1
  Sc  Sc91  1  0.30048991  0.50289152  0.90443195  1
  Sc  Sc92  1  0.49231672  0.09508444  0.50145422  1
  Sc  Sc93  1  0.91634824  0.30130229  0.09307380  1
  Sc  Sc94  1  0.29636023  0.10198768  0.89356295  1
  Sc  Sc95  1  0.90463378  0.49540398  0.89879272  1
  Sc  Sc96  1  0.10265122  0.50800177  0.90275014  1
  Sc  Sc97  1  0.29986983  0.49776942  0.09740557  1
  Sc  Sc98  1  0.50073140  0.30293392  0.28723889  1
  Sc  Sc99  1  0.08627882  0.09601138  0.50421118  1
  Nb  Nb100  1  0.70159076  0.09972526  0.10462646  1
  Nb  Nb101  1  0.10286248  0.29517703  0.69868940  1
  Nb  Nb102  1  0.89920003  0.72327317  0.91832264  1
  Nb  Nb103  1  0.30694970  0.88916574  0.90626712  1
  Nb  Nb104  1  0.89715463  0.70336216  0.10748963  1
  Nb  Nb105  1  0.70128036  0.90138419  0.49686252  1
  Nb  Nb106  1  0.69912696  0.29330697  0.90321717  1
  Nb  Nb107  1  0.29724695  0.70603389  0.50570850  1
  Nb  Nb108  1  0.50063132  0.89366217  0.29843549  1
  Nb  Nb109  1  0.09555703  0.90133277  0.69994341  1
  Nb  Nb110  1  0.50428820  0.50028774  0.29992306  1
  Nb  Nb111  1  0.90902752  0.70237924  0.29280205  1
  Nb  Nb112  1  0.69507567  0.10045446  0.49560673  1
  Nb  Nb113  1  0.10117326  0.70070646  0.89867437  1
  Nb  Nb114  1  0.89298417  0.09990390  0.49799685  1
  Nb  Nb115  1  0.90644812  0.29635689  0.70101010  1
  Nb  Nb116  1  0.09968395  0.70066861  0.29681083  1
  Nb  Nb117  1  0.89980293  0.90217467  0.90809905  1
  Nb  Nb118  1  0.70486432  0.09996909  0.29096229  1
  Nb  Nb119  1  0.30450013  0.10343882  0.49930769  1
  Nb  Nb120  1  0.69163228  0.90451247  0.30569234  1
  Nb  Nb121  1  0.29760251  0.30028637  0.09924411  1
  Nb  Nb122  1  0.89689985  0.09976170  0.29583829  1
  Nb  Nb123  1  0.30391559  0.50232036  0.70619486  1
  Nb  Nb124  1  0.29823277  0.69770563  0.69577332  1
  Nb  Nb125  1  0.79059358  0.19881243  0.00240263  1
  Nb  Nb126  1  0.00111102  0.80723460  0.60918858  1
  Nb  Nb127  1  0.60091942  0.80617521  -0.00120875  1
  Nb  Nb128  1  0.80293196  0.40007788  0.19519267  1
  Nb  Nb129  1  -0.00694278  0.00035610  0.20045757  1
  Nb  Nb130  1  0.19947338  0.40123725  0.79306035  1
  Nb  Nb131  1  0.59918478  0.60060091  0.79595125  1
  Nb  Nb132  1  0.39568327  0.80181681  0.20000512  1
  Nb  Nb133  1  0.80741271  0.60912659  0.00516580  1
  Nb  Nb134  1  0.20233145  0.79675093  0.20355758  1
  Nb  Nb135  1  0.79508223  0.00144408  0.00540928  1
  Nb  Nb136  1  0.60430000  0.19405672  0.59632242  1
  Nb  Nb137  1  -0.00063369  0.60715510  0.39304106  1
  Nb  Nb138  1  0.00316031  0.20269043  0.79359293  1
  Nb  Nb139  1  0.79213045  0.00591115  0.39559294  1
  Nb  Nb140  1  0.59926649  0.40301887  0.39942260  1
  Nb  Nb141  1  0.00172159  0.39530039  0.60724537  1
  Nb  Nb142  1  0.60181371  0.59675510  0.39942160  1
  Nb  Nb143  1  0.80318389  0.60250774  0.19868987  1
  Nb  Nb144  1  0.20214785  0.79163465  0.39999679  1
  Nb  Nb145  1  0.20329345  0.19886573  0.59858074  1
  Nb  Nb146  1  0.60130675  0.39250608  -0.00582551  1
  Nb  Nb147  1  0.20513978  0.19867548  0.40680269  1
  Nb  Nb148  1  0.19738214  0.40097104  0.61005763  1
  Nb  Nb149  1  0.60506839  0.59824337  0.21128890  1
  Pd  Pd150  1  0.59104756  0.79337168  0.80391939  1
  Pd  Pd151  1  0.19145907  0.60539156  0.40327736  1
  Pd  Pd152  1  0.40524402  0.39836185  -0.00065319  1
  Pd  Pd153  1  0.20220256  -0.01067278  0.81343320  1
  Pd  Pd154  1  0.19890660  0.20035569  0.20612009  1
  Pd  Pd155  1  0.39350675  0.00837733  -0.00625115  1
  Pd  Pd156  1  0.79818616  0.39566352  0.79887770  1
  Pd  Pd157  1  0.59238589  0.00555888  0.20617098  1
  Pd  Pd158  1  0.01352258  0.79353668  0.41187890  1
  Pd  Pd159  1  0.59111164  0.20359967  0.40207736  1
  Pd  Pd160  1  0.40807197  0.60342597  0.19524754  1
  Pd  Pd161  1  0.80110204  0.60543036  0.59690668  1
  Pd  Pd162  1  0.19069760  0.79676820  0.00350393  1
  Pd  Pd163  1  0.59703688  0.79290132  0.40805227  1
  Pd  Pd164  1  0.18856146  -0.00454633  0.20129582  1
  Pd  Pd165  1  0.40145252  0.19586790  0.20357006  1
  Pd  Pd166  1  0.59698282  0.19368811  0.78815100  1
  Pd  Pd167  1  0.01354076  0.80964279  0.19244445  1
  Pd  Pd168  1  0.20397897  0.59294062  0.60660714  1
  Pd  Pd169  1  0.79830652  0.61398016  0.39139134  1
  Pd  Pd170  1  0.00416313  0.40591765  0.40507097  1
  Pd  Pd171  1  -0.01047083  0.00389116  0.39368769  1
  Pd  Pd172  1  0.20257353  0.60310879  0.19017298  1
  Pd  Pd173  1  0.60905077  -0.00540509  -0.00545905  1
  Pd  Pd174  1  0.39868509  0.20218218  0.39099686  1
  Pd  Pd175  1  0.20521969  0.00290298  -0.00671099  1
  Pd  Pd176  1  0.60060424  0.60894918  0.59668456  1
  Pd  Pd177  1  0.80112220  0.19578532  0.39650085  1
  Pd  Pd178  1  0.60019902  0.00362699  0.39904664  1
  Pd  Pd179  1  0.00610204  0.19348103  0.39613979  1
  Pd  Pd180  1  0.40778783  0.60103035  0.40707525  1
  Pd  Pd181  1  0.80804636  0.79601799  0.79450022  1
  Pd  Pd182  1  0.80464251  0.60758909  0.81186537  1
  Pd  Pd183  1  -0.01099330  0.79366521  0.79495633  1
  Pd  Pd184  1  0.01110405  0.39608410  0.80060999  1
  Pd  Pd185  1  0.79347351  0.00156403  0.59442712  1
  Pd  Pd186  1  0.19886979  0.00513494  0.40379753  1
  Pd  Pd187  1  -0.01063228  0.61316759  0.81382603  1
  Pd  Pd188  1  0.79518596  0.39726804  0.00680049  1
  Pd  Pd189  1  0.39768588  0.19397487  -0.00475758  1
  Pd  Pd190  1  0.19976508  0.00523363  0.59196189  1
  Pd  Pd191  1  0.41000643  0.39750713  0.39598179  1
  Pd  Pd192  1  0.80989867  0.20956051  0.18812301  1
  Pd  Pd193  1  -0.00624760  0.60590242  -0.00814775  1
  Pd  Pd194  1  0.60638555  0.40581851  0.80409924  1
  Pd  Pd195  1  0.60369436  0.38792308  0.59602900  1
  Pd  Pd196  1  0.80874683  -0.00705069  0.20144947  1
  Pd  Pd197  1  0.40704637  0.19242192  0.80102226  1
  Pd  Pd198  1  0.39981520  0.80727477  0.60270489  1
  Pd  Pd199  1  0.79118067  0.19928771  0.60553914  1
  Rh  Rh200  1  0.00007213  0.00697475  0.80599637  1
  Rh  Rh201  1  0.39133983  0.40140871  0.80860757  1
  Rh  Rh202  1  0.19331574  0.80369208  0.59428651  1
  Rh  Rh203  1  0.39218283  0.40788285  0.60164171  1
  Rh  Rh204  1  0.39598372  0.59718403  -0.00010213  1
  Rh  Rh205  1  0.60093424  -0.00206393  0.79623747  1
  Rh  Rh206  1  0.19889818  0.60343506  -0.00226496  1
  Rh  Rh207  1  0.20965747  0.19716332  0.00525273  1
  Rh  Rh208  1  0.39307184  0.80533072  0.39520836  1
  Rh  Rh209  1  0.39154839  -0.00737256  0.80381717  1
  Rh  Rh210  1  0.41037872  0.80326526  0.00866659  1
  Rh  Rh211  1  -0.01077665  0.59781853  0.58790458  1
  Rh  Rh212  1  -0.00482484  -0.00436899  0.59965031  1
  Rh  Rh213  1  -0.00174824  0.59476242  0.20494300  1
  Rh  Rh214  1  0.80084987  0.00476660  0.80892125  1
  Rh  Rh215  1  0.60326444  0.00366769  0.59642388  1
  Rh  Rh216  1  0.40015249  0.60161151  0.79974143  1
  Rh  Rh217  1  0.79559245  0.80819868  0.39638039  1
  Rh  Rh218  1  0.78721389  0.80647106  0.00343422  1
  Rh  Rh219  1  0.58282251  0.79355112  0.19399239  1
  Rh  Rh220  1  0.20276797  0.59521343  0.80066563  1
  Rh  Rh221  1  0.20319938  0.39654555  -0.00631530  1
  Rh  Rh222  1  0.00867056  0.39736242  -0.00932610  1
  Rh  Rh223  1  0.80094623  0.80385313  0.20916684  1
  Rh  Rh224  1  0.80869109  0.19951356  0.80673216  1
  Rh  Rh225  1  0.59057823  0.18899924  0.20324598  1
  Rh  Rh226  1  -0.00724772  0.20106225  -0.01333978  1
  Rh  Rh227  1  0.19928558  0.39589138  0.40192534  1
  Rh  Rh228  1  0.39064893  0.59777740  0.59816320  1
  Rh  Rh229  1  0.40437974  -0.00342713  0.40070446  1
  Rh  Rh230  1  0.01240807  0.79622306  0.00724145  1
  Rh  Rh231  1  0.00507769  0.19810863  0.60323495  1
  Rh  Rh232  1  0.20414476  0.39865591  0.19184995  1
  Rh  Rh233  1  0.59727986  0.80391286  0.59492308  1
  Rh  Rh234  1  0.39978661  -0.00516212  0.59848595  1
  Rh  Rh235  1  0.39242634  0.80245280  0.79201878  1
  Rh  Rh236  1  0.80710672  0.80674890  0.60636568  1
  Rh  Rh237  1  0.39690597  0.40229430  0.19610650  1
  Rh  Rh238  1  0.79745326  0.38263935  0.38933314  1
  Rh  Rh239  1  0.60547889  0.59678403  -0.00663710  1
  Rh  Rh240  1  0.80725962  0.39092004  0.60820605  1
  Rh  Rh241  1  -0.01001408  0.00240079  0.00474258  1
  Rh  Rh242  1  0.40575728  0.19128145  0.60761501  1
  Rh  Rh243  1  0.00140462  0.39967248  0.19742009  1
  Rh  Rh244  1  0.60090362  0.19984209  -0.00004641  1
  Rh  Rh245  1  0.19563157  0.20184595  0.79666387  1
  Rh  Rh246  1  0.40769332  -0.00402727  0.20304220  1
  Rh  Rh247  1  0.60623684  0.40974931  0.19876338  1
  Rh  Rh248  1  0.20336360  0.80793480  0.80734627  1
  Rh  Rh249  1  0.00275279  0.19210549  0.20148061  1
