# generated using pymatgen
data_ZrScNbPdRh
_symmetry_space_group_name_H-M   'P 1'
_cell_length_a   16.55885335
_cell_length_b   16.56316887
_cell_length_c   16.56177901
_cell_angle_alpha   89.96815723
_cell_angle_beta   90.00853284
_cell_angle_gamma   89.99087555
_symmetry_Int_Tables_number   1
_chemical_formula_structural   ZrScNbPdRh
_chemical_formula_sum   'Zr50 Sc50 Nb50 Pd50 Rh50'
_cell_volume   4542.35003086
_cell_formula_units_Z   50
loop_
 _symmetry_equiv_pos_site_id
 _symmetry_equiv_pos_as_xyz
  1  'x, y, z'
loop_
 _atom_site_type_symbol
 _atom_site_label
 _atom_site_symmetry_multiplicity
 _atom_site_fract_x
 _atom_site_fract_y
 _atom_site_fract_z
 _atom_site_occupancy
  Zr  Zr0  1  0.89641270  0.30310550  0.29704664  1
  Zr  Zr1  1  0.50732398  0.70542465  0.09972296  1
  Zr  Zr2  1  0.49684079  0.11076944  0.49825196  1
  Zr  Zr3  1  0.50760604  0.30580059  0.69396479  1
  Zr  Zr4  1  0.09703155  0.31133912  0.70289718  1
  Zr  Zr5  1  0.50339606  0.09499999  0.30002307  1
  Zr  Zr6  1  0.50022984  0.29854976  0.09760079  1
  Zr  Zr7  1  0.50171457  0.89959560  0.10348394  1
  Zr  Zr8  1  0.29539549  0.89594039  0.90180966  1
  Zr  Zr9  1  0.69774636  0.88959567  0.10101490  1
  Zr  Zr10  1  0.30301438  0.30134113  0.08715211  1
  Zr  Zr11  1  0.89397947  0.49516163  0.29588780  1
  Zr  Zr12  1  0.90412725  0.50432636  0.10089014  1
  Zr  Zr13  1  0.49720588  0.50207464  0.09911951  1
  Zr  Zr14  1  0.31266095  0.50116196  0.28918395  1
  Zr  Zr15  1  0.69520194  0.50278484  0.89590617  1
  Zr  Zr16  1  0.09327463  0.50226923  0.28370479  1
  Zr  Zr17  1  0.90281336  0.09227325  0.49470666  1
  Zr  Zr18  1  0.09891158  0.10563086  0.89771865  1
  Zr  Zr19  1  0.69637160  0.68732605  0.70812124  1
  Zr  Zr20  1  0.69566430  0.49298831  0.70105373  1
  Zr  Zr21  1  0.90231056  0.89476730  0.49401626  1
  Zr  Zr22  1  0.49818407  0.10120439  0.90822526  1
  Zr  Zr23  1  0.10263321  0.70314102  0.29550526  1
  Zr  Zr24  1  0.30471345  0.30247935  0.29414849  1
  Zr  Zr25  1  0.89583068  0.69754626  0.29725492  1
  Zr  Zr26  1  0.69712923  0.30431891  0.50704758  1
  Zr  Zr27  1  0.29770658  0.10524310  0.90437423  1
  Zr  Zr28  1  0.49537768  0.70075427  0.30080007  1
  Zr  Zr29  1  0.10380527  0.30546514  0.50503774  1
  Zr  Zr30  1  0.30008700  0.49820754  0.90281619  1
  Zr  Zr31  1  0.69796412  0.30185337  0.70203031  1
  Zr  Zr32  1  0.90039969  0.90220079  0.70469996  1
  Zr  Zr33  1  0.90035102  0.10183329  0.29228313  1
  Zr  Zr34  1  0.10928743  0.89875604  0.69960009  1
  Zr  Zr35  1  0.10224913  0.29683486  0.29493330  1
  Zr  Zr36  1  0.50692017  0.09765617  0.10633092  1
  Zr  Zr37  1  0.50061736  0.90036728  0.48889135  1
  Zr  Zr38  1  0.30587288  0.89272277  0.70652689  1
  Zr  Zr39  1  0.48956260  0.89528997  0.90461830  1
  Zr  Zr40  1  0.09871164  0.10274284  0.70052355  1
  Zr  Zr41  1  0.29212691  0.70023866  0.09933019  1
  Zr  Zr42  1  0.49741812  0.70122557  0.49815672  1
  Zr  Zr43  1  0.30646906  0.69679808  0.50216644  1
  Zr  Zr44  1  0.70089793  0.90089763  0.70377098  1
  Zr  Zr45  1  0.49814255  0.29728582  0.29706042  1
  Zr  Zr46  1  0.89950221  0.30432872  0.90634537  1
  Zr  Zr47  1  0.89500686  0.49711655  0.50158483  1
  Zr  Zr48  1  0.50527273  0.51160316  0.71226723  1
  Zr  Zr49  1  0.89939193  0.69681860  0.49660305  1
  Sc  Sc50  1  0.69978237  0.50488506  0.09618755  1
  Sc  Sc51  1  0.88943988  0.30741193  0.09924559  1
  Sc  Sc52  1  0.69836194  0.89351929  0.29600560  1
  Sc  Sc53  1  0.31868891  0.30244625  0.50409067  1
  Sc  Sc54  1  0.69981125  0.89079726  0.48752126  1
  Sc  Sc55  1  0.70344337  0.10298271  0.90488438  1
  Sc  Sc56  1  0.09633487  0.70402405  0.90440205  1
  Sc  Sc57  1  0.50109846  0.11344797  0.69672653  1
  Sc  Sc58  1  0.49530530  0.69394183  0.90293768  1
  Sc  Sc59  1  0.29029527  0.90144391  0.50166314  1
  Sc  Sc60  1  0.90170880  0.50209982  0.90577652  1
  Sc  Sc61  1  0.88928675  0.09300011  0.90186869  1
  Sc  Sc62  1  0.69928477  0.50241137  0.29873315  1
  Sc  Sc63  1  0.30177297  0.49994649  0.51096314  1
  Sc  Sc64  1  0.29538681  0.89799616  0.29217533  1
  Sc  Sc65  1  0.70302815  0.10289410  0.71472568  1
  Sc  Sc66  1  0.10357227  0.49887571  0.51677437  1
  Sc  Sc67  1  0.70407683  0.29834791  0.29763869  1
  Sc  Sc68  1  0.10466196  0.08287366  0.50099813  1
  Sc  Sc69  1  0.29602325  0.09835624  0.10296401  1
  Sc  Sc70  1  0.29565771  0.50805243  0.70510686  1
  Sc  Sc71  1  0.29850836  0.70169496  0.90268540  1
  Sc  Sc72  1  0.69910632  0.69304205  0.49009246  1
  Sc  Sc73  1  0.10697385  0.29616016  0.09308208  1
  Sc  Sc74  1  0.89530411  0.89754296  0.30466535  1
  Sc  Sc75  1  0.70510567  0.09597829  0.09715748  1
  Sc  Sc76  1  0.70511464  0.49893929  0.50219775  1
  Sc  Sc77  1  0.49799117  0.50271744  0.50867858  1
  Sc  Sc78  1  0.10280935  0.70324887  0.49823875  1
  Sc  Sc79  1  0.70294864  0.69805672  0.91489046  1
  Sc  Sc80  1  0.69914045  0.30065633  0.09845131  1
  Sc  Sc81  1  0.69773471  0.70036303  0.29617231  1
  Sc  Sc82  1  0.89285868  0.30876665  0.50034164  1
  Sc  Sc83  1  0.69204432  0.11006254  0.49060853  1
  Sc  Sc84  1  0.09965796  0.89558016  0.49122600  1
  Sc  Sc85  1  0.10718821  0.30403017  0.89689815  1
  Sc  Sc86  1  0.70220176  0.30182143  0.90233676  1
  Sc  Sc87  1  0.29879791  0.89557423  0.10053499  1
  Sc  Sc88  1  0.10119503  0.50176562  0.70902862  1
  Sc  Sc89  1  0.70868901  0.90398841  0.90779018  1
  Sc  Sc90  1  0.29882862  0.31092275  0.69866616  1
  Sc  Sc91  1  0.09616351  0.89718693  0.09810949  1
  Sc  Sc92  1  0.89805374  0.90248179  0.09240279  1
  Sc  Sc93  1  0.10403227  0.09390585  0.28372751  1
  Sc  Sc94  1  0.90359626  0.30950355  0.70716649  1
  Sc  Sc95  1  0.90588455  0.50504890  0.70370922  1
  Sc  Sc96  1  0.30273177  0.09224524  0.29476688  1
  Sc  Sc97  1  0.29727686  0.09634153  0.70412084  1
  Sc  Sc98  1  0.70033674  0.10179770  0.29311359  1
  Sc  Sc99  1  0.50099837  0.50372459  0.28901472  1
  Nb  Nb100  1  0.90128396  0.09523522  0.69875102  1
  Nb  Nb101  1  0.09591200  0.69544436  0.10092491  1
  Nb  Nb102  1  0.29980724  0.69569003  0.29909622  1
  Nb  Nb103  1  0.90367896  0.70779704  0.89935240  1
  Nb  Nb104  1  0.10418804  0.50938111  0.09106719  1
  Nb  Nb105  1  0.49249018  0.70467665  0.70110320  1
  Nb  Nb106  1  0.90660107  0.69870277  0.70785437  1
  Nb  Nb107  1  0.30328396  0.30103974  0.90564107  1
  Nb  Nb108  1  0.48992163  0.30693620  0.90450539  1
  Nb  Nb109  1  0.30135876  0.10057234  0.50503324  1
  Nb  Nb110  1  0.50806823  0.29371111  0.50351848  1
  Nb  Nb111  1  0.49839929  0.89811146  0.70240646  1
  Nb  Nb112  1  0.10171225  0.50154143  0.90504211  1
  Nb  Nb113  1  0.90746429  0.89484234  0.90214982  1
  Nb  Nb114  1  0.09208468  0.89736775  0.90400165  1
  Nb  Nb115  1  0.70481683  0.70640614  0.10134545  1
  Nb  Nb116  1  0.30562259  0.70077402  0.70220465  1
  Nb  Nb117  1  0.09406399  0.69864478  0.70694778  1
  Nb  Nb118  1  0.90602703  0.09744853  0.09613975  1
  Nb  Nb119  1  0.29564043  0.50194185  0.09520724  1
  Nb  Nb120  1  0.09953022  0.89044349  0.29486931  1
  Nb  Nb121  1  0.09328039  0.09361273  0.09621590  1
  Nb  Nb122  1  0.89226753  0.70267011  0.09327792  1
  Nb  Nb123  1  0.49842334  0.49518955  0.89910937  1
  Nb  Nb124  1  0.50226137  0.90163026  0.29376223  1
  Nb  Nb125  1  0.80746976  0.19295505  0.60480783  1
  Nb  Nb126  1  0.20179553  0.20061483  0.40460064  1
  Nb  Nb127  1  0.59255750  -0.00596714  0.79974473  1
  Nb  Nb128  1  0.19862357  0.19928940  0.59603251  1
  Nb  Nb129  1  -0.00142260  0.79381060  0.19687479  1
  Nb  Nb130  1  -0.00360059  0.19422153  0.00258069  1
  Nb  Nb131  1  0.59302576  0.39407840  0.40393590  1
  Nb  Nb132  1  0.20339503  0.40666100  0.19258172  1
  Nb  Nb133  1  0.20123350  0.59470224  0.39309414  1
  Nb  Nb134  1  0.59905173  0.80073313  0.79928709  1
  Nb  Nb135  1  0.19025744  -0.00023581  -0.00260216  1
  Nb  Nb136  1  0.00427673  0.59287705  0.39688763  1
  Nb  Nb137  1  -0.00286652  0.79509378  0.60875910  1
  Nb  Nb138  1  0.20109772  0.40327609  0.39269975  1
  Nb  Nb139  1  0.39995909  0.21153833  0.80753119  1
  Nb  Nb140  1  0.00559710  0.20164928  0.40216268  1
  Nb  Nb141  1  0.79591957  0.00074736  0.59778401  1
  Nb  Nb142  1  0.00659606  0.40139588  0.39774395  1
  Nb  Nb143  1  0.59852561  0.79986432  0.60647252  1
  Nb  Nb144  1  0.80394523  0.79558507  0.80192810  1
  Nb  Nb145  1  -0.00116593  0.19777118  0.59731277  1
  Nb  Nb146  1  0.80089324  0.79645826  0.60649417  1
  Nb  Nb147  1  0.59876278  -0.00401399  0.60273909  1
  Nb  Nb148  1  0.00052632  -0.00360733  0.80333268  1
  Nb  Nb149  1  0.40559006  -0.00125332  0.59956554  1
  Pd  Pd150  1  0.39417531  0.19818171  0.39613300  1
  Pd  Pd151  1  0.20826286  0.79420183  0.39824668  1
  Pd  Pd152  1  0.00710730  0.39339231  0.00270606  1
  Pd  Pd153  1  0.80010951  -0.00596544  0.19635144  1
  Pd  Pd154  1  0.39844963  0.60197870  0.00183773  1
  Pd  Pd155  1  0.39879513  0.40128825  0.79456640  1
  Pd  Pd156  1  0.59968337  0.60085684  0.00082150  1
  Pd  Pd157  1  0.59667707  0.58987472  0.39870491  1
  Pd  Pd158  1  0.39748175  0.79840884  0.20104812  1
  Pd  Pd159  1  0.79815636  0.19919598  0.18981475  1
  Pd  Pd160  1  0.60407350  0.40028041  0.20504573  1
  Pd  Pd161  1  0.21003124  0.21079758  0.79228289  1
  Pd  Pd162  1  0.39169755  -0.00381644  0.40149711  1
  Pd  Pd163  1  0.59888407  0.60490242  0.59543176  1
  Pd  Pd164  1  -0.01133274  0.19705991  0.80382182  1
  Pd  Pd165  1  0.38995974  0.00038488  0.00997945  1
  Pd  Pd166  1  0.00038820  -0.00706001  0.60303026  1
  Pd  Pd167  1  0.19704491  0.79147541  0.80427082  1
  Pd  Pd168  1  -0.00316081  -0.01385318  0.20295257  1
  Pd  Pd169  1  0.19540832  -0.00381546  0.80719528  1
  Pd  Pd170  1  0.19854185  0.60818615  0.60094629  1
  Pd  Pd171  1  0.39800397  0.59078381  0.40252789  1
  Pd  Pd172  1  0.19749567  0.60618329  0.80711039  1
  Pd  Pd173  1  -0.00352208  0.20607988  0.19288577  1
  Pd  Pd174  1  0.60457733  0.20377375  -0.00088500  1
  Pd  Pd175  1  0.80362382  0.40485394  0.80210160  1
  Pd  Pd176  1  -0.00304252  0.60533696  -0.00493555  1
  Pd  Pd177  1  0.40227373  0.80698575  0.59407556  1
  Pd  Pd178  1  0.40603748  0.40908748  0.60974296  1
  Pd  Pd179  1  0.60349071  -0.00397460  -0.00447358  1
  Pd  Pd180  1  0.80496650  0.20264947  0.40524445  1
  Pd  Pd181  1  0.59256047  0.20056607  0.80898446  1
  Pd  Pd182  1  0.19902173  0.00349130  0.39120111  1
  Pd  Pd183  1  0.80662549  0.60174356  0.80911619  1
  Pd  Pd184  1  0.00621350  0.39182612  0.18796180  1
  Pd  Pd185  1  0.19599535  0.79194988  0.60198863  1
  Pd  Pd186  1  0.00454998  0.60328310  0.59712052  1
  Pd  Pd187  1  0.60185050  0.40017813  -0.00263472  1
  Pd  Pd188  1  0.39831339  0.19384970  0.19523834  1
  Pd  Pd189  1  0.79941515  0.60203457  0.60399406  1
  Pd  Pd190  1  0.39134348  0.80835236  0.39448797  1
  Pd  Pd191  1  0.40676597  0.01244191  0.79384508  1
  Pd  Pd192  1  0.78973231  0.00080819  0.40031079  1
  Pd  Pd193  1  0.60671962  0.00042316  0.39842733  1
  Pd  Pd194  1  0.79277515  0.59929198  0.19558716  1
  Pd  Pd195  1  0.40568074  0.40641837  0.40511836  1
  Pd  Pd196  1  0.80767717  0.20344385  0.79912531  1
  Pd  Pd197  1  0.20415506  0.20074294  0.19597342  1
  Pd  Pd198  1  0.20438730  0.59732833  0.20054338  1
  Pd  Pd199  1  0.00918349  0.00385298  0.38521636  1
  Rh  Rh200  1  0.19216739  0.19193506  0.00417634  1
  Rh  Rh201  1  0.59851420  0.79695264  0.20594278  1
  Rh  Rh202  1  0.79149486  0.40523520  0.19451984  1
  Rh  Rh203  1  0.19831826  0.60396133  -0.00544114  1
  Rh  Rh204  1  0.40085635  0.79073264  0.80626381  1
  Rh  Rh205  1  0.40137061  0.60937299  0.18842957  1
  Rh  Rh206  1  -0.00760319  0.39898005  0.59924624  1
  Rh  Rh207  1  0.39765215  0.79519538  0.00313453  1
  Rh  Rh208  1  0.61524578  0.19116543  0.60649582  1
  Rh  Rh209  1  0.40184800  0.19478598  0.00128515  1
  Rh  Rh210  1  0.00096470  0.00546255  -0.00907095  1
  Rh  Rh211  1  0.80290235  0.59749087  0.39560841  1
  Rh  Rh212  1  0.40216079  0.40844960  0.00279301  1
  Rh  Rh213  1  0.20152454  0.40345424  0.80857176  1
  Rh  Rh214  1  0.19450641  0.80010118  0.19397827  1
  Rh  Rh215  1  0.59470248  0.60843255  0.81126005  1
  Rh  Rh216  1  0.79142082  0.40141610  0.39641913  1
  Rh  Rh217  1  0.00357840  0.59718204  0.80985663  1
  Rh  Rh218  1  0.59594555  0.40819557  0.59494245  1
  Rh  Rh219  1  0.60527566  -0.00296651  0.20145077  1
  Rh  Rh220  1  0.20975289  0.00189724  0.60300335  1
  Rh  Rh221  1  0.79374322  0.40799272  -0.00018306  1
  Rh  Rh222  1  0.80114292  -0.00327144  0.00396828  1
  Rh  Rh223  1  0.80357021  0.60082197  -0.00020354  1
  Rh  Rh224  1  0.19727074  0.40511571  0.00034597  1
  Rh  Rh225  1  0.80692277  0.19907312  0.00289477  1
  Rh  Rh226  1  0.60368578  0.19796532  0.19850403  1
  Rh  Rh227  1  0.59949001  0.20834456  0.38947422  1
  Rh  Rh228  1  0.80757196  0.80232324  0.19737728  1
  Rh  Rh229  1  0.59651937  0.79598023  0.39556621  1
  Rh  Rh230  1  0.59929461  0.80055265  -0.00613142  1
  Rh  Rh231  1  0.80281941  0.80142084  -0.00498583  1
  Rh  Rh232  1  0.79514452  0.79427362  0.40029358  1
  Rh  Rh233  1  0.19375506  0.80345431  0.00276766  1
  Rh  Rh234  1  0.80118100  -0.00507390  0.80412148  1
  Rh  Rh235  1  0.19655285  -0.00776098  0.19124135  1
  Rh  Rh236  1  0.20768443  0.39784738  0.59798576  1
  Rh  Rh237  1  0.38898386  0.19519203  0.61162682  1
  Rh  Rh238  1  0.00383156  0.41075505  0.80915381  1
  Rh  Rh239  1  0.00113696  0.79256894  0.39475541  1
  Rh  Rh240  1  -0.00045655  0.79367456  0.01085885  1
  Rh  Rh241  1  0.00131966  0.80415938  0.79653975  1
  Rh  Rh242  1  0.40193775  -0.00411645  0.19888019  1
  Rh  Rh243  1  0.39962668  0.59975535  0.61067833  1
  Rh  Rh244  1  0.39820717  0.39896529  0.18566928  1
  Rh  Rh245  1  -0.00752226  0.60937992  0.19510195  1
  Rh  Rh246  1  0.59682107  0.39465641  0.80963965  1
  Rh  Rh247  1  0.60273716  0.60602732  0.19547097  1
  Rh  Rh248  1  0.39712736  0.60256444  0.80314239  1
  Rh  Rh249  1  0.80260572  0.39706953  0.61154407  1
