# generated using pymatgen
data_ZrScNbPdRh
_symmetry_space_group_name_H-M   'P 1'
_cell_length_a   16.55825280
_cell_length_b   16.55816114
_cell_length_c   16.56263386
_cell_angle_alpha   90.01458512
_cell_angle_beta   89.99381646
_cell_angle_gamma   90.03316965
_symmetry_Int_Tables_number   1
_chemical_formula_structural   ZrScNbPdRh
_chemical_formula_sum   'Zr50 Sc50 Nb50 Pd50 Rh50'
_cell_volume   4541.04625111
_cell_formula_units_Z   50
loop_
 _symmetry_equiv_pos_site_id
 _symmetry_equiv_pos_as_xyz
  1  'x, y, z'
loop_
 _atom_site_type_symbol
 _atom_site_label
 _atom_site_symmetry_multiplicity
 _atom_site_fract_x
 _atom_site_fract_y
 _atom_site_fract_z
 _atom_site_occupancy
  Zr  Zr0  1  0.29356039  0.10093702  0.51659536  1
  Zr  Zr1  1  0.50270829  0.29078616  0.10610594  1
  Zr  Zr2  1  0.89760910  0.69612375  0.29735406  1
  Zr  Zr3  1  0.49864639  0.50360101  0.30105720  1
  Zr  Zr4  1  0.89966093  0.90446020  0.70065691  1
  Zr  Zr5  1  0.30599914  0.09805602  0.09805148  1
  Zr  Zr6  1  0.10023118  0.70707024  0.50001025  1
  Zr  Zr7  1  0.89820814  0.09870332  0.50844849  1
  Zr  Zr8  1  0.49974869  0.30362107  0.50199295  1
  Zr  Zr9  1  0.90633979  0.31029034  0.49460600  1
  Zr  Zr10  1  0.29826257  0.89691334  0.49504293  1
  Zr  Zr11  1  0.71132275  0.50130129  0.90233967  1
  Zr  Zr12  1  0.89404992  0.09965751  0.90463043  1
  Zr  Zr13  1  0.50310340  0.70567989  0.71087836  1
  Zr  Zr14  1  0.09780401  0.70433091  0.29364876  1
  Zr  Zr15  1  0.49681867  0.70454206  0.29931870  1
  Zr  Zr16  1  0.90125433  0.89669335  0.89643264  1
  Zr  Zr17  1  0.70421672  0.30064966  0.29840022  1
  Zr  Zr18  1  0.09437269  0.90256809  0.70345197  1
  Zr  Zr19  1  0.50000737  0.30121775  0.89733196  1
  Zr  Zr20  1  0.09387189  0.29143105  0.30559376  1
  Zr  Zr21  1  0.50021819  0.70890698  0.09400363  1
  Zr  Zr22  1  0.49718843  0.09384254  0.89861208  1
  Zr  Zr23  1  0.69312739  0.68338229  0.70413935  1
  Zr  Zr24  1  0.69018970  0.29066785  0.50069588  1
  Zr  Zr25  1  0.90091841  0.69883232  0.48872811  1
  Zr  Zr26  1  0.89509010  0.49869685  0.31081029  1
  Zr  Zr27  1  0.10077519  0.30864707  0.69929685  1
  Zr  Zr28  1  0.90110014  0.30345746  0.30279127  1
  Zr  Zr29  1  0.11223557  0.09638778  0.10534526  1
  Zr  Zr30  1  0.90492066  0.89706230  0.50363125  1
  Zr  Zr31  1  0.89081061  0.49959868  0.09394425  1
  Zr  Zr32  1  0.70068730  0.10676162  0.68051893  1
  Zr  Zr33  1  0.70310809  0.30844767  0.69971965  1
  Zr  Zr34  1  0.70480572  0.50372073  0.30141553  1
  Zr  Zr35  1  0.29851993  0.50529740  0.09678239  1
  Zr  Zr36  1  0.50788886  0.29505728  0.30447177  1
  Zr  Zr37  1  0.30161669  0.70855105  0.90335676  1
  Zr  Zr38  1  0.70977258  0.09918312  0.09810542  1
  Zr  Zr39  1  0.89521849  0.29812970  0.10942161  1
  Zr  Zr40  1  0.89194449  0.89718639  0.10052425  1
  Zr  Zr41  1  0.50834078  0.09274358  0.10210779  1
  Zr  Zr42  1  0.10112848  0.49727028  0.89590678  1
  Zr  Zr43  1  0.90451610  0.10298911  0.29300937  1
  Zr  Zr44  1  0.10332343  0.90642100  0.49603356  1
  Zr  Zr45  1  0.90036545  0.29406397  0.69587396  1
  Zr  Zr46  1  0.30402422  0.50895396  0.50561669  1
  Zr  Zr47  1  0.10149125  0.49950077  0.69913210  1
  Zr  Zr48  1  0.88343359  0.70309751  0.70235222  1
  Zr  Zr49  1  0.69893915  0.49420092  0.50725706  1
  Sc  Sc50  1  0.30138035  0.09830582  0.90654233  1
  Sc  Sc51  1  0.09308533  0.70456007  0.89492073  1
  Sc  Sc52  1  0.69970184  0.70045102  0.90034924  1
  Sc  Sc53  1  0.49137614  0.30177350  0.70037224  1
  Sc  Sc54  1  0.89136362  0.70175681  0.90673191  1
  Sc  Sc55  1  0.48724605  0.69605919  0.50170306  1
  Sc  Sc56  1  0.29619473  0.09511645  0.29266764  1
  Sc  Sc57  1  0.50017214  0.10133700  0.28836535  1
  Sc  Sc58  1  0.10938681  0.10236176  0.90830050  1
  Sc  Sc59  1  0.90003972  0.70076689  0.10152960  1
  Sc  Sc60  1  0.30376502  0.70234711  0.10897538  1
  Sc  Sc61  1  0.90088926  0.89428036  0.29503195  1
  Sc  Sc62  1  0.50150705  0.89392624  0.49937679  1
  Sc  Sc63  1  0.10161356  0.29752233  0.49990677  1
  Sc  Sc64  1  0.69727842  0.70118008  0.50103945  1
  Sc  Sc65  1  0.69429532  0.89229078  0.29678083  1
  Sc  Sc66  1  0.30543760  0.70962669  0.29873234  1
  Sc  Sc67  1  0.70073936  0.09957327  0.90959882  1
  Sc  Sc68  1  0.70411606  0.89542480  0.91000082  1
  Sc  Sc69  1  0.69816506  0.87983022  0.69573453  1
  Sc  Sc70  1  0.10680917  0.70212648  0.70138929  1
  Sc  Sc71  1  0.70066400  0.69850195  0.09972525  1
  Sc  Sc72  1  0.30560031  0.90720880  0.10590916  1
  Sc  Sc73  1  0.29479794  0.29308456  0.09353041  1
  Sc  Sc74  1  0.30538845  0.90556484  0.69045896  1
  Sc  Sc75  1  0.09785761  0.10158640  0.68842451  1
  Sc  Sc76  1  0.09971778  0.49037522  0.50660057  1
  Sc  Sc77  1  0.09352680  0.69915318  0.10687666  1
  Sc  Sc78  1  0.09968392  0.09805992  0.49196445  1
  Sc  Sc79  1  0.10258834  0.30482719  0.89870839  1
  Sc  Sc80  1  0.90294737  0.10096037  0.69707932  1
  Sc  Sc81  1  0.69153008  0.09849451  0.29447762  1
  Sc  Sc82  1  0.30405517  0.28666159  0.29736609  1
  Sc  Sc83  1  0.70777913  0.29608255  0.90119430  1
  Sc  Sc84  1  0.30202576  0.51870546  0.29204180  1
  Sc  Sc85  1  0.09056035  0.50027181  0.09374610  1
  Sc  Sc86  1  0.30201935  0.31227762  0.89679344  1
  Sc  Sc87  1  0.49536714  0.88818474  0.90624906  1
  Sc  Sc88  1  0.50363961  0.89674818  0.29788542  1
  Sc  Sc89  1  0.90139309  0.29921121  0.89579631  1
  Sc  Sc90  1  0.09678776  0.50610647  0.29483136  1
  Sc  Sc91  1  0.49200728  0.49689723  0.90540107  1
  Sc  Sc92  1  0.29625526  0.69973616  0.69036016  1
  Sc  Sc93  1  0.69015091  0.89768139  0.49556837  1
  Sc  Sc94  1  0.88380732  0.49245801  0.69332035  1
  Sc  Sc95  1  0.49659863  0.51544148  0.09694745  1
  Sc  Sc96  1  0.28958498  0.49808463  0.69831664  1
  Sc  Sc97  1  0.51063398  0.50360491  0.70031519  1
  Sc  Sc98  1  0.70406930  0.70113030  0.29833909  1
  Sc  Sc99  1  0.30485996  0.90691857  0.90916182  1
  Nb  Nb100  1  0.30283137  0.10177010  0.70049436  1
  Nb  Nb101  1  0.69980148  0.50351529  0.70158122  1
  Nb  Nb102  1  0.89984218  0.49818466  0.49643694  1
  Nb  Nb103  1  0.51475667  0.10397953  0.50588680  1
  Nb  Nb104  1  0.89981849  0.09635069  0.09777482  1
  Nb  Nb105  1  0.29784405  0.69987095  0.49649053  1
  Nb  Nb106  1  0.30266728  0.30038591  0.50455382  1
  Nb  Nb107  1  0.10148038  0.09018427  0.30350741  1
  Nb  Nb108  1  0.90595371  0.50818941  0.90728013  1
  Nb  Nb109  1  0.30558099  0.90454495  0.30421612  1
  Nb  Nb110  1  0.69841415  0.10051409  0.49638452  1
  Nb  Nb111  1  0.09850630  0.90210388  0.89993508  1
  Nb  Nb112  1  0.70644761  0.30377501  0.10114929  1
  Nb  Nb113  1  0.49461281  0.09633219  0.69942302  1
  Nb  Nb114  1  0.11027728  0.91159673  0.29585999  1
  Nb  Nb115  1  0.29704592  0.50453003  0.90096583  1
  Nb  Nb116  1  0.09976257  0.90013303  0.10054737  1
  Nb  Nb117  1  0.50339984  0.90380366  0.70414071  1
  Nb  Nb118  1  0.50532250  0.89913015  0.10404290  1
  Nb  Nb119  1  0.70349616  0.49697702  0.10003977  1
  Nb  Nb120  1  0.10120269  0.29734838  0.10008803  1
  Nb  Nb121  1  0.50097373  0.50105337  0.49525946  1
  Nb  Nb122  1  0.30002628  0.29103743  0.68667009  1
  Nb  Nb123  1  0.69466984  0.89678061  0.10068170  1
  Nb  Nb124  1  0.49275573  0.70030718  0.90562433  1
  Nb  Nb125  1  0.40201647  0.00675848  0.40410144  1
  Nb  Nb126  1  0.21052407  0.40263701  0.39418861  1
  Nb  Nb127  1  -0.00699124  0.59995139  0.60140095  1
  Nb  Nb128  1  0.20207338  0.60395241  0.40444969  1
  Nb  Nb129  1  0.79756986  0.00427187  0.40247617  1
  Nb  Nb130  1  0.39976831  0.39893490  0.20285266  1
  Nb  Nb131  1  -0.00927704  0.59587308  0.79526604  1
  Nb  Nb132  1  0.60014110  -0.00030000  0.79290321  1
  Nb  Nb133  1  0.59705847  0.19164338  0.79475576  1
  Nb  Nb134  1  0.39546274  0.39863276  0.39997769  1
  Nb  Nb135  1  0.40585120  0.19845010  -0.00090703  1
  Nb  Nb136  1  0.20160345  0.00428498  0.79702376  1
  Nb  Nb137  1  0.60674631  0.40024154  0.00829955  1
  Nb  Nb138  1  0.39623892  0.60363254  0.80661036  1
  Nb  Nb139  1  0.79944352  0.19350767  0.40241415  1
  Nb  Nb140  1  0.00173459  0.19615441  0.01082716  1
  Nb  Nb141  1  0.20095050  0.39689113  0.20180691  1
  Nb  Nb142  1  0.00163219  -0.00114712  0.00526979  1
  Nb  Nb143  1  0.60128345  0.40361438  0.19428845  1
  Nb  Nb144  1  0.19418927  0.80444400  0.00294766  1
  Nb  Nb145  1  0.19994852  0.60518009  -0.00411407  1
  Nb  Nb146  1  0.20860677  0.19812921  0.79068769  1
  Nb  Nb147  1  0.59617870  0.59707212  0.40341130  1
  Nb  Nb148  1  0.79141801  -0.00091387  0.79458526  1
  Nb  Nb149  1  0.40241034  0.19461624  0.41113402  1
  Pd  Pd150  1  0.40663974  0.39470775  0.01077036  1
  Pd  Pd151  1  0.01225554  0.19375959  0.80864626  1
  Pd  Pd152  1  0.40065543  0.41044608  0.60340063  1
  Pd  Pd153  1  0.00354829  0.01382873  0.80713120  1
  Pd  Pd154  1  0.80699201  0.40306628  0.80526631  1
  Pd  Pd155  1  0.40293258  0.79980350  0.60150622  1
  Pd  Pd156  1  0.20379904  0.80708083  0.19577637  1
  Pd  Pd157  1  0.39765614  -0.00808630  0.80132385  1
  Pd  Pd158  1  0.60178844  -0.00706069  0.60315652  1
  Pd  Pd159  1  0.59103227  0.59354997  0.81559271  1
  Pd  Pd160  1  0.59638200  0.00150585  0.39329464  1
  Pd  Pd161  1  0.19996414  0.60589062  0.80532102  1
  Pd  Pd162  1  0.60353229  0.59662897  -0.00521605  1
  Pd  Pd163  1  -0.00757491  -0.00281961  0.39767180  1
  Pd  Pd164  1  0.19811416  0.40409388  0.00596089  1
  Pd  Pd165  1  0.79152421  0.19010256  0.79707962  1
  Pd  Pd166  1  0.40613152  0.59840744  0.61422207  1
  Pd  Pd167  1  0.20754884  0.19851063  0.40142161  1
  Pd  Pd168  1  0.01148523  0.59277852  0.40816979  1
  Pd  Pd169  1  0.59582313  0.39952316  0.60547389  1
  Pd  Pd170  1  0.20014798  0.80712536  0.60268434  1
  Pd  Pd171  1  0.39107654  0.80259156  0.79407675  1
  Pd  Pd172  1  0.19925718  0.20190225  0.20436429  1
  Pd  Pd173  1  0.59842706  -0.00980146  -0.00685942  1
  Pd  Pd174  1  0.19920099  0.79684192  0.39196355  1
  Pd  Pd175  1  0.79547104  0.80748152  0.39923962  1
  Pd  Pd176  1  0.59194981  0.79076302  0.59637725  1
  Pd  Pd177  1  -0.00813466  0.59292356  0.19608632  1
  Pd  Pd178  1  0.60346350  0.80538327  0.81156751  1
  Pd  Pd179  1  0.00516885  0.20189565  0.59336560  1
  Pd  Pd180  1  0.39703303  0.20135545  0.80503606  1
  Pd  Pd181  1  0.78962414  -0.01201435  0.59804272  1
  Pd  Pd182  1  0.00311097  0.80088292  0.00351640  1
  Pd  Pd183  1  -0.01112877  0.40808943  0.79644682  1
  Pd  Pd184  1  0.00602694  0.19576670  0.19640166  1
  Pd  Pd185  1  0.00011221  -0.00474871  0.19576884  1
  Pd  Pd186  1  0.60137009  0.60171018  0.20355859  1
  Pd  Pd187  1  0.60351942  0.39969954  0.80814481  1
  Pd  Pd188  1  0.39362154  0.41058091  0.78932738  1
  Pd  Pd189  1  0.20882327  0.81376664  0.80432204  1
  Pd  Pd190  1  0.40751679  -0.00089307  0.59161207  1
  Pd  Pd191  1  0.60089574  0.20606319  -0.00534709  1
  Pd  Pd192  1  -0.00041330  0.79215603  0.60914692  1
  Pd  Pd193  1  0.00402339  0.40523889  0.20139394  1
  Pd  Pd194  1  -0.00595938  0.78948757  0.79520977  1
  Pd  Pd195  1  -0.00502007  0.38869444  0.00046831  1
  Pd  Pd196  1  0.79332400  -0.00424303  0.20840597  1
  Pd  Pd197  1  0.00529816  0.80923657  0.38886589  1
  Pd  Pd198  1  0.80239508  0.60009350  0.59130819  1
  Pd  Pd199  1  0.79693654  0.79956711  0.59191191  1
  Rh  Rh200  1  0.19422632  -0.01020480  -0.00366615  1
  Rh  Rh201  1  0.59959981  0.19031766  0.39617736  1
  Rh  Rh202  1  0.00165671  0.80596453  0.20408386  1
  Rh  Rh203  1  0.79420711  0.80468000  0.80341515  1
  Rh  Rh204  1  0.21010920  0.39159518  0.79290025  1
  Rh  Rh205  1  0.79149430  0.39298316  0.40825147  1
  Rh  Rh206  1  0.20223660  0.21038542  -0.01126361  1
  Rh  Rh207  1  0.18933689  0.60326695  0.59089599  1
  Rh  Rh208  1  0.79885924  0.40625330  0.20267606  1
  Rh  Rh209  1  0.79703636  0.19531089  0.20430334  1
  Rh  Rh210  1  0.40843603  0.19328048  0.59519434  1
  Rh  Rh211  1  0.00655489  0.60584644  -0.00834272  1
  Rh  Rh212  1  0.40542454  -0.00471243  0.20771204  1
  Rh  Rh213  1  0.19451130  0.59559231  0.19454117  1
  Rh  Rh214  1  -0.00511276  0.40529215  0.60354089  1
  Rh  Rh215  1  0.39306254  0.80365805  0.01126558  1
  Rh  Rh216  1  0.20993941  0.00533580  0.39829918  1
  Rh  Rh217  1  0.60437012  -0.00635724  0.19836103  1
  Rh  Rh218  1  0.39636676  0.19951720  0.19413571  1
  Rh  Rh219  1  0.79782309  0.39468685  0.59445311  1
  Rh  Rh220  1  0.80413890  0.60015367  0.19621659  1
  Rh  Rh221  1  0.60195301  0.79719969  0.19607492  1
  Rh  Rh222  1  0.58968757  0.20752730  0.61247106  1
  Rh  Rh223  1  0.79741898  0.60624863  0.00353994  1
  Rh  Rh224  1  0.59921047  0.40960456  0.39393552  1
  Rh  Rh225  1  0.59586636  0.60166310  0.59398876  1
  Rh  Rh226  1  0.40292504  0.80820445  0.19931934  1
  Rh  Rh227  1  0.40053364  0.80770260  0.40006962  1
  Rh  Rh228  1  0.80857308  0.20672099  0.00342503  1
  Rh  Rh229  1  0.61353914  0.20237459  0.19401677  1
  Rh  Rh230  1  0.80218105  0.39510434  -0.00538285  1
  Rh  Rh231  1  -0.00549199  0.19185687  0.40217677  1
  Rh  Rh232  1  0.00508866  -0.00006140  0.59670242  1
  Rh  Rh233  1  0.80464012  -0.00822234  -0.00368826  1
  Rh  Rh234  1  0.80501141  0.59472776  0.80467205  1
  Rh  Rh235  1  0.40371081  0.60487722  0.19631375  1
  Rh  Rh236  1  0.19201610  0.20320997  0.60240997  1
  Rh  Rh237  1  0.39156798  0.60561560  -0.00495154  1
  Rh  Rh238  1  0.79658349  0.79708740  0.19644311  1
  Rh  Rh239  1  0.59596696  0.78713882  0.40050631  1
  Rh  Rh240  1  0.20579876  -0.00341110  0.19974531  1
  Rh  Rh241  1  0.79746314  0.79764565  0.00596218  1
  Rh  Rh242  1  0.39757030  0.60038248  0.39954194  1
  Rh  Rh243  1  0.19434486  -0.00426418  0.60626902  1
  Rh  Rh244  1  0.01340126  0.40668129  0.39569738  1
  Rh  Rh245  1  0.80520422  0.20945012  0.59028982  1
  Rh  Rh246  1  0.40974468  0.00039981  0.00684301  1
  Rh  Rh247  1  0.20407761  0.39473756  0.59402026  1
  Rh  Rh248  1  0.79016706  0.60080338  0.40728952  1
  Rh  Rh249  1  0.60157340  0.79959530  0.00008913  1
