# generated using pymatgen
data_ZrScNbPdRh
_symmetry_space_group_name_H-M   'P 1'
_cell_length_a   16.55715214
_cell_length_b   16.55545592
_cell_length_c   16.55249839
_cell_angle_alpha   90.00391830
_cell_angle_beta   89.97732836
_cell_angle_gamma   89.96038739
_symmetry_Int_Tables_number   1
_chemical_formula_structural   ZrScNbPdRh
_chemical_formula_sum   'Zr50 Sc50 Nb50 Pd50 Rh50'
_cell_volume   4537.22378409
_cell_formula_units_Z   50
loop_
 _symmetry_equiv_pos_site_id
 _symmetry_equiv_pos_as_xyz
  1  'x, y, z'
loop_
 _atom_site_type_symbol
 _atom_site_label
 _atom_site_symmetry_multiplicity
 _atom_site_fract_x
 _atom_site_fract_y
 _atom_site_fract_z
 _atom_site_occupancy
  Zr  Zr0  1  0.10059399  0.29148756  0.30073618  1
  Zr  Zr1  1  0.30080500  0.89097058  0.09857848  1
  Zr  Zr2  1  0.29389777  0.29864709  0.30472846  1
  Zr  Zr3  1  0.70577851  0.88920847  0.50227781  1
  Zr  Zr4  1  0.70078926  0.29974967  0.69539223  1
  Zr  Zr5  1  0.69197647  0.29056407  0.29869493  1
  Zr  Zr6  1  0.70572580  0.09679771  0.90648201  1
  Zr  Zr7  1  0.89986150  0.69493228  0.30060096  1
  Zr  Zr8  1  0.49946633  0.30205158  0.09783393  1
  Zr  Zr9  1  0.50987421  0.90241800  0.70080970  1
  Zr  Zr10  1  0.30289352  0.50172285  0.09976653  1
  Zr  Zr11  1  0.69630199  0.69785442  0.30048118  1
  Zr  Zr12  1  0.10768032  0.69901340  0.30485238  1
  Zr  Zr13  1  0.49309578  0.50791527  0.70862113  1
  Zr  Zr14  1  0.69227100  0.70360373  0.08892090  1
  Zr  Zr15  1  0.10084256  0.70053692  0.49848241  1
  Zr  Zr16  1  0.30507943  0.30415579  0.09831486  1
  Zr  Zr17  1  0.69613134  0.70269365  0.70563070  1
  Zr  Zr18  1  0.50377403  0.10021367  0.69360151  1
  Zr  Zr19  1  0.69955350  0.69196863  0.50581990  1
  Zr  Zr20  1  0.09368605  0.70054110  0.89508092  1
  Zr  Zr21  1  0.89790294  0.10101623  0.88524924  1
  Zr  Zr22  1  0.10295059  0.90568159  0.09998322  1
  Zr  Zr23  1  0.69285366  0.50462988  0.30024723  1
  Zr  Zr24  1  0.09414205  0.09803440  0.11269691  1
  Zr  Zr25  1  0.70258134  0.29848399  0.09514597  1
  Zr  Zr26  1  0.49916159  0.69697839  0.49679939  1
  Zr  Zr27  1  0.90693344  0.50233714  0.29473314  1
  Zr  Zr28  1  0.69885981  0.50052530  0.69144171  1
  Zr  Zr29  1  0.10295162  0.89832355  0.29734422  1
  Zr  Zr30  1  0.30985389  0.50436157  0.90270478  1
  Zr  Zr31  1  0.09685330  0.49576782  0.10047880  1
  Zr  Zr32  1  0.90452247  0.50154516  0.50043432  1
  Zr  Zr33  1  0.09558929  0.09637196  0.90855438  1
  Zr  Zr34  1  0.89665526  0.70354651  0.89678534  1
  Zr  Zr35  1  0.30320393  0.49881115  0.70054934  1
  Zr  Zr36  1  0.50337051  0.90836751  0.50677417  1
  Zr  Zr37  1  0.70831514  0.10088612  0.70816357  1
  Zr  Zr38  1  0.10148758  0.49444735  0.69698287  1
  Zr  Zr39  1  0.50745286  0.69430760  0.89942748  1
  Zr  Zr40  1  0.29388563  0.10598345  0.30520525  1
  Zr  Zr41  1  0.29584109  0.09579981  0.09091204  1
  Zr  Zr42  1  0.50466526  0.70064467  0.29005990  1
  Zr  Zr43  1  0.70102707  0.10471478  0.10375528  1
  Zr  Zr44  1  0.50002627  0.89819376  0.29807931  1
  Zr  Zr45  1  0.90306201  0.10292425  0.30101458  1
  Zr  Zr46  1  0.10466947  0.30776560  0.50235729  1
  Zr  Zr47  1  0.69235079  0.30910599  0.49858384  1
  Zr  Zr48  1  0.09407371  0.09511370  0.70802578  1
  Zr  Zr49  1  0.29441482  0.30326082  0.68951210  1
  Sc  Sc50  1  0.50526771  0.09539897  0.09941007  1
  Sc  Sc51  1  0.89369356  0.89740316  0.31183474  1
  Sc  Sc52  1  0.29540737  0.69607908  0.29327661  1
  Sc  Sc53  1  0.50264530  0.50251794  0.49897953  1
  Sc  Sc54  1  0.49309371  0.30027551  0.69733720  1
  Sc  Sc55  1  0.50292143  0.89068550  0.10145465  1
  Sc  Sc56  1  0.09785283  0.89198320  0.90242334  1
  Sc  Sc57  1  0.10954584  0.69913259  0.09802902  1
  Sc  Sc58  1  0.30856620  0.70540128  0.90724742  1
  Sc  Sc59  1  0.30316938  0.89252386  0.70142880  1
  Sc  Sc60  1  0.90266016  0.49444897  0.69939197  1
  Sc  Sc61  1  0.69227751  0.49728565  0.09119061  1
  Sc  Sc62  1  0.90159599  0.29976405  0.09658065  1
  Sc  Sc63  1  0.69779130  0.89327375  0.30163091  1
  Sc  Sc64  1  0.50217086  0.30361297  0.29929110  1
  Sc  Sc65  1  0.70970487  0.30932222  0.90136256  1
  Sc  Sc66  1  0.30423593  0.69757482  0.09999116  1
  Sc  Sc67  1  0.10116515  0.30760607  0.69981085  1
  Sc  Sc68  1  0.49515190  0.10572043  0.50314844  1
  Sc  Sc69  1  0.90108635  0.30186911  0.50056568  1
  Sc  Sc70  1  0.31042362  0.11115760  0.69628741  1
  Sc  Sc71  1  0.89545476  0.69408091  0.70509626  1
  Sc  Sc72  1  0.09675086  0.49844311  0.30642822  1
  Sc  Sc73  1  0.10402092  0.10940546  0.50562841  1
  Sc  Sc74  1  0.70312607  0.89549594  0.89628792  1
  Sc  Sc75  1  0.91063183  0.30154505  0.30033404  1
  Sc  Sc76  1  0.09634537  0.50070101  0.49895508  1
  Sc  Sc77  1  0.69554933  0.90381045  0.09016068  1
  Sc  Sc78  1  0.70382068  0.11561703  0.49662094  1
  Sc  Sc79  1  0.89245444  0.70052739  0.49958369  1
  Sc  Sc80  1  0.30259812  0.90494510  0.50106923  1
  Sc  Sc81  1  0.29233369  0.69847640  0.49761594  1
  Sc  Sc82  1  0.69204720  0.49597332  0.89650795  1
  Sc  Sc83  1  0.49891591  0.50340751  0.29497752  1
  Sc  Sc84  1  0.50380078  0.10868480  0.30410429  1
  Sc  Sc85  1  0.09349475  0.49198557  0.90126507  1
  Sc  Sc86  1  0.50309257  0.70049667  0.70620040  1
  Sc  Sc87  1  0.29988177  0.69669124  0.69418965  1
  Sc  Sc88  1  0.10113029  0.70485838  0.69994362  1
  Sc  Sc89  1  0.90271649  0.69380919  0.09791569  1
  Sc  Sc90  1  0.50334973  0.29688334  0.49697919  1
  Sc  Sc91  1  0.49950103  0.50066817  0.09637431  1
  Sc  Sc92  1  0.10158665  0.89363168  0.70804757  1
  Sc  Sc93  1  0.10588276  0.89123204  0.50155689  1
  Sc  Sc94  1  0.29580645  0.50654175  0.50293596  1
  Sc  Sc95  1  0.31460685  0.29912906  0.90261103  1
  Sc  Sc96  1  0.90029671  0.10291281  0.09486217  1
  Sc  Sc97  1  0.90218739  0.90178058  0.09587060  1
  Sc  Sc98  1  0.48257891  0.09642245  0.89589986  1
  Sc  Sc99  1  0.30582239  0.11156679  0.50332048  1
  Nb  Nb100  1  0.70024152  0.49773186  0.49848241  1
  Nb  Nb101  1  0.90189538  0.09667920  0.70263132  1
  Nb  Nb102  1  0.50140199  0.70152503  0.09707640  1
  Nb  Nb103  1  0.90160935  0.09475075  0.50215104  1
  Nb  Nb104  1  0.29614624  0.49735567  0.29667272  1
  Nb  Nb105  1  0.69669868  0.90310906  0.69587751  1
  Nb  Nb106  1  0.48562492  0.89300846  0.89178666  1
  Nb  Nb107  1  0.89992800  0.30395057  0.89781180  1
  Nb  Nb108  1  0.90382831  0.91259913  0.70440866  1
  Nb  Nb109  1  0.10195365  0.29849315  0.10222535  1
  Nb  Nb110  1  0.29824420  0.10203743  0.90143565  1
  Nb  Nb111  1  0.09915903  0.29807302  0.90520445  1
  Nb  Nb112  1  0.09711811  0.09860704  0.29836249  1
  Nb  Nb113  1  0.30084225  0.89562034  0.29966595  1
  Nb  Nb114  1  0.89873600  0.49887860  0.10241319  1
  Nb  Nb115  1  0.89898559  0.89566264  0.89349213  1
  Nb  Nb116  1  0.89668643  0.49571295  0.90749247  1
  Nb  Nb117  1  0.70101273  0.10145553  0.29792976  1
  Nb  Nb118  1  0.29475732  0.29871507  0.49626759  1
  Nb  Nb119  1  0.89352951  0.29012673  0.70801617  1
  Nb  Nb120  1  0.89770355  0.90183901  0.50274928  1
  Nb  Nb121  1  0.30707093  0.91029393  0.90472219  1
  Nb  Nb122  1  0.50257710  0.29857396  0.90082063  1
  Nb  Nb123  1  0.70368273  0.69856371  0.89945141  1
  Nb  Nb124  1  0.50142066  0.49860122  0.89898472  1
  Nb  Nb125  1  -0.00054513  0.80018525  0.20344621  1
  Nb  Nb126  1  0.19862781  0.39770239  0.19890135  1
  Nb  Nb127  1  0.20064550  0.00289748  0.60560048  1
  Nb  Nb128  1  0.59838666  0.20091598  -0.00825469  1
  Nb  Nb129  1  0.39183720  0.40096710  0.39917135  1
  Nb  Nb130  1  0.40082824  0.80078739  0.39835492  1
  Nb  Nb131  1  0.60662710  0.00309388  0.39999412  1
  Nb  Nb132  1  0.20765250  0.00364825  0.80578021  1
  Nb  Nb133  1  0.39587044  0.00022822  0.20449379  1
  Nb  Nb134  1  0.20064224  0.59644325  0.80330317  1
  Nb  Nb135  1  -0.00856677  0.19563644  0.60853085  1
  Nb  Nb136  1  0.19640834  0.00325243  0.39948641  1
  Nb  Nb137  1  0.80738055  -0.00003685  0.60124002  1
  Nb  Nb138  1  0.80114542  0.59710255  -0.00696004  1
  Nb  Nb139  1  0.20001130  0.19972543  0.80875482  1
  Nb  Nb140  1  0.19537989  0.20249227  -0.00160092  1
  Nb  Nb141  1  0.79480608  0.40476997  0.39535727  1
  Nb  Nb142  1  0.40669530  0.80002157  0.59403745  1
  Nb  Nb143  1  0.00304588  0.00209249  0.40515222  1
  Nb  Nb144  1  0.59851955  0.20138833  0.80605210  1
  Nb  Nb145  1  0.80082878  0.79913920  0.19663238  1
  Nb  Nb146  1  0.80020378  0.40428562  0.20221721  1
  Nb  Nb147  1  0.39570708  0.19648439  0.19843566  1
  Nb  Nb148  1  -0.01002551  0.80829997  0.60093455  1
  Nb  Nb149  1  0.79659835  0.00038454  0.20496594  1
  Pd  Pd150  1  0.80371609  0.21047035  0.39993148  1
  Pd  Pd151  1  0.59822072  0.00336194  0.81026528  1
  Pd  Pd152  1  0.40031465  0.39342158  0.80096939  1
  Pd  Pd153  1  -0.00912595  -0.00448851  -0.00609604  1
  Pd  Pd154  1  0.01093911  0.60703317  0.19773245  1
  Pd  Pd155  1  0.59337392  0.80854262  -0.01210313  1
  Pd  Pd156  1  -0.00134717  0.61044804  0.60277332  1
  Pd  Pd157  1  0.39688048  0.79302596  0.79385340  1
  Pd  Pd158  1  0.40213882  0.60152393  0.19622751  1
  Pd  Pd159  1  0.21001028  0.79813067  0.80737129  1
  Pd  Pd160  1  0.79993227  0.80664379  0.79117183  1
  Pd  Pd161  1  0.00303891  0.19671890  0.41031280  1
  Pd  Pd162  1  0.60106597  -0.00117691  0.20708901  1
  Pd  Pd163  1  0.80518861  0.19745775  0.59691939  1
  Pd  Pd164  1  0.00424206  0.59364821  0.79857512  1
  Pd  Pd165  1  0.58798766  0.40274304  0.60320078  1
  Pd  Pd166  1  0.58843225  -0.00020459  -0.01202326  1
  Pd  Pd167  1  0.20212471  0.79912391  -0.00507533  1
  Pd  Pd168  1  0.40013430  -0.00092867  0.39632306  1
  Pd  Pd169  1  -0.00395854  0.80228488  0.40350470  1
  Pd  Pd170  1  0.80663337  0.80374229  0.61216387  1
  Pd  Pd171  1  0.59422852  0.59960256  0.60333469  1
  Pd  Pd172  1  -0.00266008  0.59914869  -0.00091542  1
  Pd  Pd173  1  0.80019624  0.59541128  0.40289585  1
  Pd  Pd174  1  0.80899739  0.20396766  0.20211032  1
  Pd  Pd175  1  0.19635835  0.59924227  0.60567403  1
  Pd  Pd176  1  0.60441586  0.40173851  0.19817029  1
  Pd  Pd177  1  0.59622587  0.80325356  0.40402844  1
  Pd  Pd178  1  0.79627249  0.58905216  0.80381620  1
  Pd  Pd179  1  0.78937834  0.60008056  0.18581593  1
  Pd  Pd180  1  0.61676275  0.01268906  0.58865351  1
  Pd  Pd181  1  0.00655100  -0.00243923  0.59321888  1
  Pd  Pd182  1  0.59796504  0.39386926  0.79578291  1
  Pd  Pd183  1  -0.00476393  0.39525603  0.00315395  1
  Pd  Pd184  1  0.80183405  0.40526962  0.79699579  1
  Pd  Pd185  1  0.39462108  0.59902328  0.39519170  1
  Pd  Pd186  1  0.79635225  0.00336851  0.40093866  1
  Pd  Pd187  1  0.20365611  0.39620120  -0.00194948  1
  Pd  Pd188  1  0.80685534  0.39962277  0.59546707  1
  Pd  Pd189  1  0.20827878  -0.00129924  0.20502665  1
  Pd  Pd190  1  0.19758878  0.60037381  -0.00745352  1
  Pd  Pd191  1  -0.00459354  0.39631304  0.79880145  1
  Pd  Pd192  1  -0.00219709  0.79816284  0.00806012  1
  Pd  Pd193  1  0.39305711  0.00261381  0.78841424  1
  Pd  Pd194  1  0.40922945  -0.00598602  0.00915002  1
  Pd  Pd195  1  0.20575797  0.39831494  0.81201415  1
  Pd  Pd196  1  0.40128267  0.40067498  0.58668714  1
  Pd  Pd197  1  0.00628806  0.20922955  0.79820687  1
  Pd  Pd198  1  0.80629101  -0.00289610  0.00390182  1
  Pd  Pd199  1  -0.00209546  0.20169657  0.00231178  1
  Rh  Rh200  1  0.40426575  0.21191163  0.39607334  1
  Rh  Rh201  1  0.40320112  0.60755751  0.60116921  1
  Rh  Rh202  1  0.59798586  0.19472018  0.40174702  1
  Rh  Rh203  1  0.60869593  0.79985776  0.19394415  1
  Rh  Rh204  1  -0.01377757  -0.00923600  0.21301913  1
  Rh  Rh205  1  0.79825195  0.78961156  0.39537342  1
  Rh  Rh206  1  0.39151415  -0.00567551  0.60630840  1
  Rh  Rh207  1  0.59151153  0.19879567  0.19216776  1
  Rh  Rh208  1  0.59821256  0.59709421  0.40181903  1
  Rh  Rh209  1  0.79661834  -0.00943427  0.79707991  1
  Rh  Rh210  1  0.00207165  0.39596479  0.19580816  1
  Rh  Rh211  1  0.40598170  0.80046442  0.00047339  1
  Rh  Rh212  1  0.59611476  0.40626786  0.39896355  1
  Rh  Rh213  1  -0.00321450  0.20339301  0.19636860  1
  Rh  Rh214  1  0.59746171  0.60055350  0.18999769  1
  Rh  Rh215  1  0.60604462  0.59722578  0.80148966  1
  Rh  Rh216  1  0.40845977  0.40608282  -0.00502091  1
  Rh  Rh217  1  -0.00427058  0.40025372  0.40231483  1
  Rh  Rh218  1  0.40397265  0.19773073  0.00616034  1
  Rh  Rh219  1  0.20189867  0.40724844  0.59230314  1
  Rh  Rh220  1  0.19912200  0.59589489  0.39882826  1
  Rh  Rh221  1  0.60085518  0.19998289  0.60711649  1
  Rh  Rh222  1  -0.00879106  0.80224392  0.79144054  1
  Rh  Rh223  1  0.60317332  0.80423807  0.80396594  1
  Rh  Rh224  1  -0.00665451  0.38843594  0.60643228  1
  Rh  Rh225  1  0.80472326  0.40567625  0.00663217  1
  Rh  Rh226  1  0.39808886  0.79950522  0.20286318  1
  Rh  Rh227  1  0.20294389  0.40635270  0.39869689  1
  Rh  Rh228  1  0.19242099  0.19680650  0.61048714  1
  Rh  Rh229  1  0.80035401  0.59569899  0.60253985  1
  Rh  Rh230  1  0.80483389  0.79351814  0.00305352  1
  Rh  Rh231  1  0.39232934  0.39417282  0.21106091  1
  Rh  Rh232  1  0.19777682  -0.00129635  -0.00490446  1
  Rh  Rh233  1  0.40194658  0.21059540  0.59553184  1
  Rh  Rh234  1  0.79353567  0.20632108  0.80730198  1
  Rh  Rh235  1  0.20403051  0.20470262  0.18955635  1
  Rh  Rh236  1  0.60122107  0.59683988  -0.00486625  1
  Rh  Rh237  1  0.39420776  0.60597131  0.80332831  1
  Rh  Rh238  1  0.19711573  0.79724194  0.19700452  1
  Rh  Rh239  1  0.00145848  0.60215173  0.40388350  1
  Rh  Rh240  1  0.59549903  0.79265053  0.60371802  1
  Rh  Rh241  1  0.20215687  0.80594075  0.59932877  1
  Rh  Rh242  1  0.21254616  0.80444772  0.40267167  1
  Rh  Rh243  1  0.40090304  0.20369938  0.79647291  1
  Rh  Rh244  1  0.80096384  0.20276998  -0.00804942  1
  Rh  Rh245  1  0.00599784  -0.00981264  0.81241185  1
  Rh  Rh246  1  0.59495992  0.39504336  -0.00401923  1
  Rh  Rh247  1  0.19707223  0.58923246  0.19957676  1
  Rh  Rh248  1  0.19283466  0.19368436  0.40676128  1
  Rh  Rh249  1  0.40978539  0.60221618  0.00314087  1
