# generated using pymatgen
data_ZrScNbPdRh
_symmetry_space_group_name_H-M   'P 1'
_cell_length_a   16.55340523
_cell_length_b   16.55471976
_cell_length_c   16.55172410
_cell_angle_alpha   89.98337010
_cell_angle_beta   89.97935079
_cell_angle_gamma   90.01618091
_symmetry_Int_Tables_number   1
_chemical_formula_structural   ZrScNbPdRh
_chemical_formula_sum   'Zr50 Sc50 Nb50 Pd50 Rh50'
_cell_volume   4535.78389796
_cell_formula_units_Z   50
loop_
 _symmetry_equiv_pos_site_id
 _symmetry_equiv_pos_as_xyz
  1  'x, y, z'
loop_
 _atom_site_type_symbol
 _atom_site_label
 _atom_site_symmetry_multiplicity
 _atom_site_fract_x
 _atom_site_fract_y
 _atom_site_fract_z
 _atom_site_occupancy
  Zr  Zr0  1  0.29446353  0.50076331  0.70464711  1
  Zr  Zr1  1  0.90341626  0.50506232  0.70957832  1
  Zr  Zr2  1  0.69752549  0.89278324  0.70451759  1
  Zr  Zr3  1  0.31190206  0.89646927  0.50477415  1
  Zr  Zr4  1  0.10324176  0.70370323  0.10248923  1
  Zr  Zr5  1  0.90211580  0.50483187  0.90151301  1
  Zr  Zr6  1  0.49654049  0.90516733  0.90439708  1
  Zr  Zr7  1  0.70463957  0.49134516  0.30826422  1
  Zr  Zr8  1  0.09691114  0.70272626  0.91167975  1
  Zr  Zr9  1  0.70147521  0.90603317  0.29199013  1
  Zr  Zr10  1  0.49946414  0.48928605  0.09455786  1
  Zr  Zr11  1  0.09962456  0.49713844  0.30736822  1
  Zr  Zr12  1  0.90520134  0.28550819  0.10138584  1
  Zr  Zr13  1  0.89968243  0.89700285  0.90434293  1
  Zr  Zr14  1  0.30617806  0.49374259  0.09418036  1
  Zr  Zr15  1  0.10231441  0.89423162  0.50360478  1
  Zr  Zr16  1  0.69918363  0.30137255  0.69751105  1
  Zr  Zr17  1  0.49978979  0.70312532  0.29444511  1
  Zr  Zr18  1  0.70362006  0.70258192  0.71084704  1
  Zr  Zr19  1  0.10746730  0.50258344  0.49695716  1
  Zr  Zr20  1  0.69053310  0.09955383  0.28999620  1
  Zr  Zr21  1  0.90004268  0.70366428  0.30084802  1
  Zr  Zr22  1  0.69934350  0.30885848  0.49879672  1
  Zr  Zr23  1  0.50785031  0.50131653  0.50704703  1
  Zr  Zr24  1  0.90421100  0.09968925  0.68322779  1
  Zr  Zr25  1  0.49355770  0.09444044  0.50328923  1
  Zr  Zr26  1  0.30509029  0.29863125  0.69055399  1
  Zr  Zr27  1  0.09487617  0.10384023  0.09591926  1
  Zr  Zr28  1  0.49884503  0.90384774  0.69140624  1
  Zr  Zr29  1  0.10914288  0.30451758  0.49752763  1
  Zr  Zr30  1  0.30410497  0.70112631  0.09852051  1
  Zr  Zr31  1  0.89830043  0.90270080  0.49375417  1
  Zr  Zr32  1  0.89433974  0.29499729  0.50960894  1
  Zr  Zr33  1  0.49722152  0.70566760  0.50434088  1
  Zr  Zr34  1  0.71149032  0.09210521  0.49769745  1
  Zr  Zr35  1  0.09284568  0.30100576  0.29425360  1
  Zr  Zr36  1  0.09912620  0.10227659  0.50595774  1
  Zr  Zr37  1  0.90147376  0.30207524  0.70226306  1
  Zr  Zr38  1  0.30418598  0.90464408  0.90574748  1
  Zr  Zr39  1  0.50751660  0.70516733  0.10156387  1
  Zr  Zr40  1  0.69178740  0.09477017  0.70245787  1
  Zr  Zr41  1  0.89415726  0.30700513  0.29446759  1
  Zr  Zr42  1  0.31412981  0.10232054  0.70087870  1
  Zr  Zr43  1  0.50467015  0.10591273  0.88861135  1
  Zr  Zr44  1  0.09839406  0.50473075  0.70653084  1
  Zr  Zr45  1  0.10067367  0.29374348  0.09844221  1
  Zr  Zr46  1  0.69671493  0.70001029  0.28334550  1
  Zr  Zr47  1  0.10130916  0.89573356  0.29845244  1
  Zr  Zr48  1  0.10308727  0.70237405  0.69520756  1
  Zr  Zr49  1  0.10324273  0.50030869  0.89416377  1
  Sc  Sc50  1  0.69964193  0.09900484  0.09590738  1
  Sc  Sc51  1  0.69027464  0.50354151  0.70131649  1
  Sc  Sc52  1  0.69690055  0.89922950  0.09753103  1
  Sc  Sc53  1  0.30062265  0.10048409  0.09641241  1
  Sc  Sc54  1  0.69685777  0.69720725  0.51284169  1
  Sc  Sc55  1  0.09637232  0.69991170  0.29830914  1
  Sc  Sc56  1  0.30848217  0.30176301  0.09822547  1
  Sc  Sc57  1  0.29890886  0.69908950  0.70451647  1
  Sc  Sc58  1  0.90031959  0.90059139  0.29043642  1
  Sc  Sc59  1  0.10645471  0.30548582  0.70017093  1
  Sc  Sc60  1  0.29918118  0.11249660  0.49825818  1
  Sc  Sc61  1  0.49880938  0.29716849  0.70375922  1
  Sc  Sc62  1  0.30898255  0.09341883  0.90313394  1
  Sc  Sc63  1  0.11132394  0.10150766  0.29529344  1
  Sc  Sc64  1  0.89134515  0.69966514  0.90300457  1
  Sc  Sc65  1  0.09137662  0.90477218  0.70421566  1
  Sc  Sc66  1  0.29070920  0.49528214  0.29696853  1
  Sc  Sc67  1  0.49572700  0.30452741  0.50990062  1
  Sc  Sc68  1  0.30581224  0.69541263  0.90101809  1
  Sc  Sc69  1  0.89834379  0.50564179  0.09963547  1
  Sc  Sc70  1  0.10367864  0.50657414  0.09802621  1
  Sc  Sc71  1  0.30264365  0.09821896  0.29637263  1
  Sc  Sc72  1  0.30317518  0.29234687  0.90784328  1
  Sc  Sc73  1  0.10396898  0.29699265  0.90234067  1
  Sc  Sc74  1  0.89431387  0.69850000  0.70321736  1
  Sc  Sc75  1  0.90604669  0.29245308  0.90290712  1
  Sc  Sc76  1  0.90126626  0.70090483  0.50404933  1
  Sc  Sc77  1  0.69251904  0.50516557  0.90138498  1
  Sc  Sc78  1  0.49955129  0.70172461  0.90188055  1
  Sc  Sc79  1  0.49177796  0.29217508  0.28811554  1
  Sc  Sc80  1  0.89480689  0.50569810  0.49700597  1
  Sc  Sc81  1  0.09831787  0.69864852  0.50053210  1
  Sc  Sc82  1  0.50279615  0.69987925  0.70487119  1
  Sc  Sc83  1  0.70065107  0.89568590  0.50990362  1
  Sc  Sc84  1  0.30006535  0.29702434  0.29477858  1
  Sc  Sc85  1  0.50424757  0.50186566  0.90289946  1
  Sc  Sc86  1  0.50654072  0.49870989  0.30174461  1
  Sc  Sc87  1  0.89818590  0.89238035  0.70084808  1
  Sc  Sc88  1  0.69828180  0.50980654  0.09453774  1
  Sc  Sc89  1  0.49727947  0.90081678  0.10294059  1
  Sc  Sc90  1  0.29453764  0.70129556  0.29608666  1
  Sc  Sc91  1  0.89836548  0.50243987  0.30153862  1
  Sc  Sc92  1  0.30367231  0.89592167  0.69963000  1
  Sc  Sc93  1  0.69791510  0.89951769  0.90772380  1
  Sc  Sc94  1  0.90252784  0.09577181  0.91671919  1
  Sc  Sc95  1  0.89191767  0.09052568  0.29066990  1
  Sc  Sc96  1  0.69541787  0.49917709  0.50287019  1
  Sc  Sc97  1  0.30726281  0.90300659  0.10029752  1
  Sc  Sc98  1  0.89591970  0.69856525  0.09641803  1
  Sc  Sc99  1  0.49194296  0.09924117  0.29171157  1
  Nb  Nb100  1  0.10266622  0.09579809  0.69921237  1
  Nb  Nb101  1  0.70393685  0.70373910  0.91278827  1
  Nb  Nb102  1  0.30358410  0.50068822  0.89583630  1
  Nb  Nb103  1  0.29725742  0.49857519  0.49821680  1
  Nb  Nb104  1  0.50031740  0.10352976  0.10651788  1
  Nb  Nb105  1  0.50914350  0.30599362  0.90263351  1
  Nb  Nb106  1  0.69764320  0.10089365  0.89368998  1
  Nb  Nb107  1  0.69872198  0.70427482  0.08985965  1
  Nb  Nb108  1  0.69818081  0.29661595  0.09941997  1
  Nb  Nb109  1  0.49849188  0.89462488  0.49651619  1
  Nb  Nb110  1  0.29740470  0.31039254  0.50649990  1
  Nb  Nb111  1  0.49417192  0.89958254  0.29811883  1
  Nb  Nb112  1  0.49607733  0.49805131  0.70259510  1
  Nb  Nb113  1  0.30659153  0.90220768  0.29909542  1
  Nb  Nb114  1  0.90174691  0.09881875  0.49618686  1
  Nb  Nb115  1  0.29644994  0.69959994  0.50300107  1
  Nb  Nb116  1  0.69139736  0.29552937  0.89975264  1
  Nb  Nb117  1  0.09710642  0.89672347  0.09546631  1
  Nb  Nb118  1  0.10699027  0.09149031  0.89175670  1
  Nb  Nb119  1  0.89868680  0.91983229  0.09481827  1
  Nb  Nb120  1  0.90344300  0.09547276  0.09841327  1
  Nb  Nb121  1  0.10186185  0.90101638  0.90043118  1
  Nb  Nb122  1  0.50209204  0.30122814  0.09486182  1
  Nb  Nb123  1  0.70046325  0.29870985  0.29731265  1
  Nb  Nb124  1  0.50007190  0.10166524  0.70116268  1
  Nb  Nb125  1  0.19412578  0.80558939  0.80918006  1
  Nb  Nb126  1  0.59834783  0.80636869  0.39616383  1
  Nb  Nb127  1  0.19962232  0.18944522  0.79723153  1
  Nb  Nb128  1  0.79590072  0.39427936  0.80901369  1
  Nb  Nb129  1  0.79850098  0.20055209  0.39632365  1
  Nb  Nb130  1  0.00147365  0.40578363  0.60130209  1
  Nb  Nb131  1  0.60211782  0.19626468  0.40121399  1
  Nb  Nb132  1  0.79257571  0.79934030  0.39498919  1
  Nb  Nb133  1  0.20155355  0.00326562  0.60320182  1
  Nb  Nb134  1  0.79982686  0.19561479  0.80254487  1
  Nb  Nb135  1  -0.00235113  0.39955684  -0.00047791  1
  Nb  Nb136  1  0.39402796  0.59779571  0.40311168  1
  Nb  Nb137  1  0.39609660  0.59584613  0.59621374  1
  Nb  Nb138  1  0.39437432  0.40437847  0.40634149  1
  Nb  Nb139  1  0.60606591  0.39096460  0.19502025  1
  Nb  Nb140  1  0.79757834  0.00593494  0.80362201  1
  Nb  Nb141  1  0.40111794  0.40224473  0.80451445  1
  Nb  Nb142  1  0.60064004  0.19365109  0.59690891  1
  Nb  Nb143  1  0.00511758  0.18919059  0.79847059  1
  Nb  Nb144  1  0.20719872  0.80343564  0.40210206  1
  Nb  Nb145  1  0.40147832  0.59741980  0.20057511  1
  Nb  Nb146  1  -0.00724375  0.19612767  0.39933780  1
  Nb  Nb147  1  0.79754726  0.39051442  -0.00189378  1
  Nb  Nb148  1  0.59234988  -0.00572390  0.39904975  1
  Nb  Nb149  1  0.00192042  0.00385365  0.40150451  1
  Pd  Pd150  1  0.20176051  -0.00549404  0.40680014  1
  Pd  Pd151  1  0.40378628  0.21079856  0.40438803  1
  Pd  Pd152  1  0.80112369  0.19296643  0.19990101  1
  Pd  Pd153  1  -0.00777155  0.80351536  0.18929624  1
  Pd  Pd154  1  0.59891227  0.60354922  0.80473402  1
  Pd  Pd155  1  0.79468822  0.40667679  0.18716477  1
  Pd  Pd156  1  -0.00561488  0.79921844  0.60184927  1
  Pd  Pd157  1  0.00086090  0.40970882  0.18831188  1
  Pd  Pd158  1  0.20732623  0.80452700  -0.00103459  1
  Pd  Pd159  1  0.00093038  0.61561877  0.80401697  1
  Pd  Pd160  1  0.40809168  0.19759908  -0.00061701  1
  Pd  Pd161  1  0.20349420  0.59773865  -0.00365163  1
  Pd  Pd162  1  0.00233554  0.79452764  0.80080021  1
  Pd  Pd163  1  0.20972022  -0.00371181  0.79251501  1
  Pd  Pd164  1  0.80539148  0.80461896  0.19205402  1
  Pd  Pd165  1  0.01029455  0.21044791  0.60139518  1
  Pd  Pd166  1  0.20390516  0.59683892  0.20133056  1
  Pd  Pd167  1  0.39600540  0.80107619  0.79965746  1
  Pd  Pd168  1  0.39601069  0.79236182  0.39375213  1
  Pd  Pd169  1  0.19952057  0.20532098  0.39527151  1
  Pd  Pd170  1  0.79765571  0.59737925  0.60462929  1
  Pd  Pd171  1  0.59578561  0.19378816  0.00357742  1
  Pd  Pd172  1  0.19776551  0.00058399  0.00669753  1
  Pd  Pd173  1  0.80315979  0.41525878  0.60777388  1
  Pd  Pd174  1  -0.00039948  0.60490686  0.40239694  1
  Pd  Pd175  1  -0.00970949  0.39603796  0.40965415  1
  Pd  Pd176  1  0.00912612  -0.00066384  -0.00298862  1
  Pd  Pd177  1  0.60298186  0.61027373  0.40191107  1
  Pd  Pd178  1  0.59901046  0.00019899  0.59374287  1
  Pd  Pd179  1  0.79141587  0.60960037  0.40208850  1
  Pd  Pd180  1  0.20699322  0.80742427  0.20152848  1
  Pd  Pd181  1  0.39994763  0.00434449  0.39766714  1
  Pd  Pd182  1  -0.00817557  0.80097250  0.00835419  1
  Pd  Pd183  1  0.79612590  0.19877514  -0.00406480  1
  Pd  Pd184  1  0.00808593  0.00326263  0.20591103  1
  Pd  Pd185  1  0.20085387  -0.00453823  0.19057477  1
  Pd  Pd186  1  0.59818809  0.80267527  0.80982308  1
  Pd  Pd187  1  0.58577510  0.38532554  0.39087656  1
  Pd  Pd188  1  0.19763580  0.39902876  -0.00136060  1
  Pd  Pd189  1  0.40706605  0.59992687  0.00293416  1
  Pd  Pd190  1  0.79934613  0.59640091  0.19835018  1
  Pd  Pd191  1  0.59679446  0.00549526  0.00263766  1
  Pd  Pd192  1  0.20737200  0.20088503  0.19500333  1
  Pd  Pd193  1  0.80179441  -0.00907589  0.60887785  1
  Pd  Pd194  1  0.20294700  0.59955974  0.60065123  1
  Pd  Pd195  1  0.21028813  0.38596980  0.80551408  1
  Pd  Pd196  1  -0.01322540  0.00442201  0.80132965  1
  Pd  Pd197  1  0.19739476  0.39795933  0.19579340  1
  Pd  Pd198  1  0.59702842  0.58822204  0.19606411  1
  Pd  Pd199  1  -0.00047297  0.59788262  0.19977266  1
  Rh  Rh200  1  0.80438490  0.39703289  0.40310120  1
  Rh  Rh201  1  0.78945443  0.19581677  0.59935965  1
  Rh  Rh202  1  0.59446320  0.60302125  0.60902516  1
  Rh  Rh203  1  0.79349728  0.00153905  -0.00227268  1
  Rh  Rh204  1  0.39879177  0.00157765  0.19755357  1
  Rh  Rh205  1  0.39587214  0.00170746  0.59989015  1
  Rh  Rh206  1  0.60870685  0.39819851  0.00478628  1
  Rh  Rh207  1  0.59903392  0.79793846  0.60000751  1
  Rh  Rh208  1  -0.00342126  0.39005024  0.80343018  1
  Rh  Rh209  1  0.79725044  0.80496826  0.80897011  1
  Rh  Rh210  1  0.79178108  0.59606707  0.80538469  1
  Rh  Rh211  1  0.41077494  0.00872546  0.00539779  1
  Rh  Rh212  1  0.40081813  0.39640897  -0.01277797  1
  Rh  Rh213  1  0.80111673  -0.00386760  0.39475719  1
  Rh  Rh214  1  0.00398794  -0.00778423  0.59381043  1
  Rh  Rh215  1  0.00163028  0.59701803  0.00154711  1
  Rh  Rh216  1  0.80417666  0.79815658  0.59469055  1
  Rh  Rh217  1  0.39551756  0.19781252  0.18882140  1
  Rh  Rh218  1  0.40220569  0.80013941  0.00193421  1
  Rh  Rh219  1  0.60082520  0.80863316  0.19804951  1
  Rh  Rh220  1  -0.00321738  0.18911977  0.21033842  1
  Rh  Rh221  1  0.40673064  0.20063976  0.59397725  1
  Rh  Rh222  1  0.59673407  0.20486801  0.19769686  1
  Rh  Rh223  1  0.00944865  0.19775533  -0.00882859  1
  Rh  Rh224  1  0.79655677  0.59702540  -0.00166538  1
  Rh  Rh225  1  0.39927653  0.20933303  0.80620848  1
  Rh  Rh226  1  0.19776683  0.61403919  0.80836157  1
  Rh  Rh227  1  0.59939003  -0.00884213  0.80241339  1
  Rh  Rh228  1  0.40866396  0.40621881  0.20803822  1
  Rh  Rh229  1  0.40198803  0.59228841  0.79665084  1
  Rh  Rh230  1  0.20806378  0.39134858  0.39260443  1
  Rh  Rh231  1  -0.00083883  0.59434282  0.59839782  1
  Rh  Rh232  1  0.60096042  0.20542226  0.79228131  1
  Rh  Rh233  1  -0.00079610  0.80452934  0.39832110  1
  Rh  Rh234  1  0.59188143  -0.00263749  0.19814680  1
  Rh  Rh235  1  0.59658532  0.40002799  0.79897431  1
  Rh  Rh236  1  0.20177327  0.61087499  0.39744837  1
  Rh  Rh237  1  0.40112110  0.78970103  0.60958906  1
  Rh  Rh238  1  0.79647818  0.00312828  0.18746524  1
  Rh  Rh239  1  0.39609794  0.79781112  0.19925192  1
  Rh  Rh240  1  0.59743037  0.60689092  -0.00113211  1
  Rh  Rh241  1  0.59655490  0.39530600  0.60825078  1
  Rh  Rh242  1  0.40083249  0.40826002  0.60358338  1
  Rh  Rh243  1  0.40677483  -0.00378334  0.79770680  1
  Rh  Rh244  1  0.19766234  0.18998714  -0.00852917  1
  Rh  Rh245  1  0.59738906  0.80080327  -0.00111970  1
  Rh  Rh246  1  0.19221741  0.40844803  0.60415140  1
  Rh  Rh247  1  0.20205879  0.80700348  0.60429422  1
  Rh  Rh248  1  0.80343020  0.80633656  0.00684708  1
  Rh  Rh249  1  0.20326709  0.19393123  0.60677565  1
