# generated using pymatgen
data_ZrScNbPdRh
_symmetry_space_group_name_H-M   'P 1'
_cell_length_a   16.55934466
_cell_length_b   16.55967875
_cell_length_c   16.55785579
_cell_angle_alpha   89.97673160
_cell_angle_beta   90.02929435
_cell_angle_gamma   90.01109909
_symmetry_Int_Tables_number   1
_chemical_formula_structural   ZrScNbPdRh
_chemical_formula_sum   'Zr50 Sc50 Nb50 Pd50 Rh50'
_cell_volume   4540.45157078
_cell_formula_units_Z   50
loop_
 _symmetry_equiv_pos_site_id
 _symmetry_equiv_pos_as_xyz
  1  'x, y, z'
loop_
 _atom_site_type_symbol
 _atom_site_label
 _atom_site_symmetry_multiplicity
 _atom_site_fract_x
 _atom_site_fract_y
 _atom_site_fract_z
 _atom_site_occupancy
  Zr  Zr0  1  0.50010380  0.88910924  0.09256227  1
  Zr  Zr1  1  0.90076955  0.29180749  0.90062529  1
  Zr  Zr2  1  0.70816321  0.70938650  0.70598646  1
  Zr  Zr3  1  0.70377513  0.10141854  0.70176652  1
  Zr  Zr4  1  0.69449999  0.89702047  0.89909531  1
  Zr  Zr5  1  0.49660119  0.70596929  0.70018940  1
  Zr  Zr6  1  0.10179486  0.29890683  0.10034298  1
  Zr  Zr7  1  0.29922796  0.30117402  0.29769216  1
  Zr  Zr8  1  0.29743180  0.49360905  0.09038253  1
  Zr  Zr9  1  0.49606748  0.28651394  0.50128583  1
  Zr  Zr10  1  0.29257525  0.08819436  0.29064404  1
  Zr  Zr11  1  0.10313098  0.28318514  0.29588230  1
  Zr  Zr12  1  0.29887697  0.49850934  0.69703645  1
  Zr  Zr13  1  0.91280196  0.30058935  0.10158797  1
  Zr  Zr14  1  0.49785710  0.29722419  0.30285310  1
  Zr  Zr15  1  0.49319460  0.09511190  0.69638259  1
  Zr  Zr16  1  0.69856413  0.89941209  0.10081557  1
  Zr  Zr17  1  0.29821476  0.29857653  0.49692680  1
  Zr  Zr18  1  0.49879029  0.70433487  0.50619894  1
  Zr  Zr19  1  0.69536488  0.10257124  0.10019202  1
  Zr  Zr20  1  0.49906483  0.29296552  0.09804746  1
  Zr  Zr21  1  0.69842208  0.70994972  0.09263697  1
  Zr  Zr22  1  0.29693169  0.70317281  0.30333867  1
  Zr  Zr23  1  0.29471965  0.90699350  0.90043405  1
  Zr  Zr24  1  0.30205845  0.70061708  0.69038729  1
  Zr  Zr25  1  0.70272186  0.09968609  0.89668788  1
  Zr  Zr26  1  0.29765847  0.09424839  0.90344848  1
  Zr  Zr27  1  0.10570478  0.49701364  0.70481625  1
  Zr  Zr28  1  0.90267725  0.50390731  0.69727744  1
  Zr  Zr29  1  0.90026317  0.90529346  0.10160826  1
  Zr  Zr30  1  0.90205765  0.09574871  0.89516887  1
  Zr  Zr31  1  0.10823933  0.51078666  0.89391805  1
  Zr  Zr32  1  0.68894397  0.30543729  0.29583896  1
  Zr  Zr33  1  0.10144955  0.49861730  0.09199223  1
  Zr  Zr34  1  0.90348288  0.89983377  0.29750012  1
  Zr  Zr35  1  0.70642319  0.49796489  0.10067976  1
  Zr  Zr36  1  0.09403722  0.29035355  0.49451552  1
  Zr  Zr37  1  0.69144037  0.69664281  0.30413242  1
  Zr  Zr38  1  0.09910294  0.91047645  0.49945980  1
  Zr  Zr39  1  0.49890556  0.09699788  0.49914769  1
  Zr  Zr40  1  0.90296140  0.90290381  0.50247078  1
  Zr  Zr41  1  0.29823239  0.50175241  0.49927458  1
  Zr  Zr42  1  0.69513261  0.29104884  0.50826456  1
  Zr  Zr43  1  0.69745739  0.90235818  0.50548595  1
  Zr  Zr44  1  0.30376033  0.49920995  0.30550197  1
  Zr  Zr45  1  0.48901318  0.50110105  0.70898205  1
  Zr  Zr46  1  0.50724415  0.49911043  0.30818962  1
  Zr  Zr47  1  0.10583397  0.10633528  0.10703351  1
  Zr  Zr48  1  0.90215137  0.49627670  0.09434344  1
  Zr  Zr49  1  0.49381398  0.90618766  0.29951345  1
  Sc  Sc50  1  0.49733072  0.90832609  0.51017018  1
  Sc  Sc51  1  0.69624807  0.90066579  0.70306020  1
  Sc  Sc52  1  0.10400082  0.10385880  0.69877657  1
  Sc  Sc53  1  0.89940823  0.28833175  0.70080057  1
  Sc  Sc54  1  0.10076950  0.10007243  0.49625168  1
  Sc  Sc55  1  0.50283869  0.29798406  0.89019740  1
  Sc  Sc56  1  0.70558503  0.90969807  0.29745748  1
  Sc  Sc57  1  0.09725068  0.09047675  0.89896270  1
  Sc  Sc58  1  0.70096655  0.29576652  0.88987097  1
  Sc  Sc59  1  0.29107134  0.29974931  0.69516244  1
  Sc  Sc60  1  0.10524169  0.50069947  0.49774472  1
  Sc  Sc61  1  0.10689766  0.71330781  0.29376281  1
  Sc  Sc62  1  0.29805406  0.90385569  0.50180964  1
  Sc  Sc63  1  0.30665984  0.49947678  0.89972573  1
  Sc  Sc64  1  0.91809037  0.30302197  0.29905500  1
  Sc  Sc65  1  0.50298665  0.29815223  0.69687798  1
  Sc  Sc66  1  0.90355938  0.10320169  0.08979621  1
  Sc  Sc67  1  0.09932171  0.29888859  0.89137961  1
  Sc  Sc68  1  0.10681419  0.70120599  0.50689284  1
  Sc  Sc69  1  0.29092629  0.70282936  0.91117075  1
  Sc  Sc70  1  0.69152560  0.09729863  0.50298958  1
  Sc  Sc71  1  0.90529457  0.10163718  0.51152598  1
  Sc  Sc72  1  0.89872607  0.71516830  0.09944579  1
  Sc  Sc73  1  0.69426299  0.09776950  0.30443643  1
  Sc  Sc74  1  0.90891513  0.49014888  0.29439394  1
  Sc  Sc75  1  0.48970143  0.70631735  0.91303418  1
  Sc  Sc76  1  0.69857625  0.29309687  0.70238352  1
  Sc  Sc77  1  0.10715855  0.71422208  0.09223934  1
  Sc  Sc78  1  0.49768037  0.09934497  0.30521981  1
  Sc  Sc79  1  0.10237632  0.89528901  0.70581622  1
  Sc  Sc80  1  0.48897924  0.49914981  0.09124208  1
  Sc  Sc81  1  0.68750389  0.50496900  0.49633639  1
  Sc  Sc82  1  0.89714497  0.90411205  0.69944962  1
  Sc  Sc83  1  0.49618862  0.70746070  0.30155356  1
  Sc  Sc84  1  0.10543401  0.49388876  0.30148278  1
  Sc  Sc85  1  0.69387827  0.29994985  0.10170572  1
  Sc  Sc86  1  0.49397378  0.49514879  0.50464965  1
  Sc  Sc87  1  0.89709570  0.09117978  0.29825520  1
  Sc  Sc88  1  0.29948746  0.90427009  0.10256978  1
  Sc  Sc89  1  0.89838456  0.49560056  0.89482163  1
  Sc  Sc90  1  0.69845495  0.70030137  0.50987983  1
  Sc  Sc91  1  0.71820220  0.50021840  0.89808666  1
  Sc  Sc92  1  0.90168785  0.70324235  0.70396882  1
  Sc  Sc93  1  0.29509812  0.90073849  0.30058563  1
  Sc  Sc94  1  0.89960915  0.69807446  0.51740643  1
  Sc  Sc95  1  0.49880121  0.09442500  0.90325314  1
  Sc  Sc96  1  0.30082024  0.09735492  0.50696621  1
  Sc  Sc97  1  0.70653608  0.49493027  0.70669355  1
  Sc  Sc98  1  0.30123147  0.69908605  0.49871305  1
  Sc  Sc99  1  0.29553405  0.90996947  0.69633741  1
  Nb  Nb100  1  0.50291730  0.50494877  0.89743277  1
  Nb  Nb101  1  0.09603556  0.70986917  0.89675454  1
  Nb  Nb102  1  0.09869351  0.89040517  0.91006993  1
  Nb  Nb103  1  0.30665418  0.69808682  0.09805227  1
  Nb  Nb104  1  0.71001669  0.69538977  0.90043557  1
  Nb  Nb105  1  0.49705798  0.09774311  0.10049683  1
  Nb  Nb106  1  0.30544380  0.28644939  0.90893108  1
  Nb  Nb107  1  0.89375844  0.69730560  0.90165247  1
  Nb  Nb108  1  0.30627467  0.10298781  0.09283426  1
  Nb  Nb109  1  0.90220139  0.70119085  0.29907621  1
  Nb  Nb110  1  0.09357657  0.89630241  0.10045342  1
  Nb  Nb111  1  0.49692901  0.89799090  0.70280148  1
  Nb  Nb112  1  0.49341275  0.90113319  0.89580954  1
  Nb  Nb113  1  0.10433091  0.90637763  0.29814713  1
  Nb  Nb114  1  0.10456237  0.09275036  0.30014628  1
  Nb  Nb115  1  0.91613952  0.90838051  0.90498888  1
  Nb  Nb116  1  0.69847606  0.50264533  0.30072946  1
  Nb  Nb117  1  0.10056454  0.30579014  0.69087556  1
  Nb  Nb118  1  0.10121401  0.69646613  0.71303555  1
  Nb  Nb119  1  0.90230418  0.29984010  0.49768853  1
  Nb  Nb120  1  0.90454332  0.49785022  0.49631329  1
  Nb  Nb121  1  0.30075848  0.29307477  0.09250508  1
  Nb  Nb122  1  0.89546949  0.10059003  0.70482026  1
  Nb  Nb123  1  0.50046281  0.70217138  0.10141922  1
  Nb  Nb124  1  0.29784450  0.09534698  0.70699353  1
  Nb  Nb125  1  0.80044132  0.60064105  0.20494198  1
  Nb  Nb126  1  0.39573684  0.19709134  0.19121511  1
  Nb  Nb127  1  -0.00283121  0.80001937  0.40032646  1
  Nb  Nb128  1  0.60136831  0.60391918  0.80761727  1
  Nb  Nb129  1  0.59377385  -0.00069887  0.19305893  1
  Nb  Nb130  1  0.59878807  0.40850422  -0.00776892  1
  Nb  Nb131  1  0.00869998  -0.00184248  0.19934510  1
  Nb  Nb132  1  0.80014987  0.39993205  0.40264265  1
  Nb  Nb133  1  0.80290594  0.79474953  0.40171097  1
  Nb  Nb134  1  0.80652886  0.39748563  0.58995725  1
  Nb  Nb135  1  0.59492087  0.60173980  0.61556761  1
  Nb  Nb136  1  0.80075688  0.20374026  0.20492279  1
  Nb  Nb137  1  0.39815859  0.80846897  0.79989439  1
  Nb  Nb138  1  0.00253698  0.60578742  0.19648221  1
  Nb  Nb139  1  -0.00087398  0.39579119  0.59776115  1
  Nb  Nb140  1  0.39069776  0.19397363  0.79948571  1
  Nb  Nb141  1  0.20482420  0.60215719  0.19330751  1
  Nb  Nb142  1  0.80618576  0.59662506  0.39683057  1
  Nb  Nb143  1  0.59746864  0.60095732  0.19204576  1
  Nb  Nb144  1  -0.00009100  0.60982158  -0.00457387  1
  Nb  Nb145  1  0.60330650  0.60036487  -0.00284649  1
  Nb  Nb146  1  0.39928710  0.60242804  0.19611736  1
  Nb  Nb147  1  -0.00347327  0.60713666  0.39512209  1
  Nb  Nb148  1  0.60281556  0.80610649  0.40317092  1
  Nb  Nb149  1  0.80128209  0.20891387  0.39959974  1
  Pd  Pd150  1  0.59572877  -0.00167173  0.00158248  1
  Pd  Pd151  1  0.79799088  0.00250082  0.60147617  1
  Pd  Pd152  1  0.19951835  0.39237293  -0.01302668  1
  Pd  Pd153  1  0.00670808  -0.00343366  0.79263199  1
  Pd  Pd154  1  0.39544011  0.61428650  0.81021151  1
  Pd  Pd155  1  0.80770239  0.81245556  -0.00974066  1
  Pd  Pd156  1  -0.00480478  0.39552392  0.79468764  1
  Pd  Pd157  1  -0.00832893  0.18526539  0.39451657  1
  Pd  Pd158  1  0.59230677  0.79222538  0.80980991  1
  Pd  Pd159  1  0.58850974  0.41058212  0.18844823  1
  Pd  Pd160  1  0.00589311  0.19754664  0.79447799  1
  Pd  Pd161  1  0.79423632  0.38656779  -0.00462448  1
  Pd  Pd162  1  0.00483507  0.00563128  0.61162932  1
  Pd  Pd163  1  0.39441858  0.79897632  0.19929772  1
  Pd  Pd164  1  0.19481015  0.59986795  0.60259197  1
  Pd  Pd165  1  0.19799834  0.80337688  0.60127643  1
  Pd  Pd166  1  0.01139549  0.59684371  0.59726347  1
  Pd  Pd167  1  0.20099883  0.20057124  0.80126693  1
  Pd  Pd168  1  0.21240161  0.60868748  0.80221115  1
  Pd  Pd169  1  0.00646740  0.40467860  -0.01479576  1
  Pd  Pd170  1  0.19244644  -0.00286262  0.00602902  1
  Pd  Pd171  1  0.19373707  0.39470343  0.40199501  1
  Pd  Pd172  1  0.40674578  0.39328970  -0.01133854  1
  Pd  Pd173  1  0.00638468  0.79816396  0.60191559  1
  Pd  Pd174  1  0.39128138  0.38656891  0.80288745  1
  Pd  Pd175  1  0.40600459  0.60249103  0.39840954  1
  Pd  Pd176  1  0.20113551  0.19533736  0.59757202  1
  Pd  Pd177  1  0.20831598  0.80028472  0.79748242  1
  Pd  Pd178  1  0.80528693  0.39479312  0.20837228  1
  Pd  Pd179  1  0.59849290  0.20548139  -0.00946952  1
  Pd  Pd180  1  0.19965702  0.40138510  0.19807418  1
  Pd  Pd181  1  0.38868377  0.18885538  0.39116185  1
  Pd  Pd182  1  -0.00605872  0.60333185  0.80573929  1
  Pd  Pd183  1  0.19011367  0.19914016  -0.00722635  1
  Pd  Pd184  1  0.79934517  -0.00275834  -0.00364291  1
  Pd  Pd185  1  0.59970984  0.39472353  0.41043425  1
  Pd  Pd186  1  -0.00786938  0.80373555  0.80117450  1
  Pd  Pd187  1  0.21057257  0.39180560  0.80725745  1
  Pd  Pd188  1  0.81170897  0.81227834  0.80848831  1
  Pd  Pd189  1  0.79006721  0.59126380  0.59685730  1
  Pd  Pd190  1  0.79663357  0.20634406  0.00762246  1
  Pd  Pd191  1  0.79246912  0.79677209  0.20832447  1
  Pd  Pd192  1  0.60522280  0.40761969  0.60631477  1
  Pd  Pd193  1  0.59812662  0.00314847  0.79753248  1
  Pd  Pd194  1  0.39807278  0.39326125  0.60003456  1
  Pd  Pd195  1  0.19350143  0.80394511  0.40643398  1
  Pd  Pd196  1  0.60606001  0.40721183  0.80328134  1
  Pd  Pd197  1  0.40403901  0.81005950  0.40903507  1
  Pd  Pd198  1  0.80202877  0.00697568  0.40895360  1
  Pd  Pd199  1  0.40341452  0.39968228  0.19785787  1
  Rh  Rh200  1  0.39344891  0.80981047  0.60417569  1
  Rh  Rh201  1  0.59487846  0.60847997  0.40754095  1
  Rh  Rh202  1  0.20374103  0.00251078  0.40468218  1
  Rh  Rh203  1  -0.00882010  0.18625623  0.20543756  1
  Rh  Rh204  1  0.80247475  0.19876126  0.59685956  1
  Rh  Rh205  1  0.19228221  0.60683369  0.00210642  1
  Rh  Rh206  1  0.59920859  -0.00007235  0.60918192  1
  Rh  Rh207  1  0.39173281  0.80767988  -0.00405783  1
  Rh  Rh208  1  0.59645860  0.18863971  0.20658741  1
  Rh  Rh209  1  0.40161616  0.60085206  0.00199590  1
  Rh  Rh210  1  0.60467322  0.20047065  0.39902353  1
  Rh  Rh211  1  0.60107265  0.80055051  0.59777932  1
  Rh  Rh212  1  0.00047196  0.20078489  0.60622248  1
  Rh  Rh213  1  0.80106590  0.19818454  0.79952517  1
  Rh  Rh214  1  0.00547257  0.40614170  0.40505241  1
  Rh  Rh215  1  0.80713707  0.39163261  0.79071177  1
  Rh  Rh216  1  0.39625055  -0.00128275  0.60191292  1
  Rh  Rh217  1  0.19108617  -0.00399419  0.80136334  1
  Rh  Rh218  1  0.59694559  0.19099993  0.60697101  1
  Rh  Rh219  1  0.21101838  0.20061608  0.19773749  1
  Rh  Rh220  1  0.59783567  -0.00747899  0.39302489  1
  Rh  Rh221  1  0.01330795  0.40445343  0.19912017  1
  Rh  Rh222  1  0.80683352  0.60493637  0.01012699  1
  Rh  Rh223  1  0.40319209  -0.00506981  0.00302199  1
  Rh  Rh224  1  0.39848653  -0.00038112  0.79915650  1
  Rh  Rh225  1  0.80095196  0.80648593  0.59932932  1
  Rh  Rh226  1  0.40174235  0.59668077  0.59435169  1
  Rh  Rh227  1  0.00679058  0.80457070  0.20549406  1
  Rh  Rh228  1  0.40423378  0.39728161  0.40638696  1
  Rh  Rh229  1  0.59857071  0.80630353  0.21117409  1
  Rh  Rh230  1  0.00628476  0.19787650  -0.00612235  1
  Rh  Rh231  1  0.00197087  -0.00158853  0.39365582  1
  Rh  Rh232  1  -0.00715650  0.79613962  -0.00667143  1
  Rh  Rh233  1  0.79857934  0.01291647  0.19074485  1
  Rh  Rh234  1  0.80146921  0.60079097  0.79286654  1
  Rh  Rh235  1  0.19131950  0.60592593  0.38924853  1
  Rh  Rh236  1  0.40506204  0.00421819  0.19433937  1
  Rh  Rh237  1  0.20542493  0.19264674  0.39904969  1
  Rh  Rh238  1  0.59957790  0.79539314  -0.01099209  1
  Rh  Rh239  1  0.00752899  0.00265977  0.00774754  1
  Rh  Rh240  1  0.59053549  0.19096957  0.79784816  1
  Rh  Rh241  1  0.20572838  0.80155801  0.19424641  1
  Rh  Rh242  1  0.20517198  0.80609036  0.00447623  1
  Rh  Rh243  1  0.19285053  0.39802705  0.59069430  1
  Rh  Rh244  1  0.19568822  0.00403149  0.60166752  1
  Rh  Rh245  1  0.40827341  0.19653071  -0.00391677  1
  Rh  Rh246  1  0.39406636  0.00049720  0.40374241  1
  Rh  Rh247  1  0.39361370  0.20029045  0.60991813  1
  Rh  Rh248  1  0.80253853  -0.00482392  0.80541154  1
  Rh  Rh249  1  0.19475277  -0.00612229  0.18998475  1
