# generated using pymatgen
data_ZrScNbPdRh
_symmetry_space_group_name_H-M   'P 1'
_cell_length_a   16.55192630
_cell_length_b   16.55280539
_cell_length_c   16.55567621
_cell_angle_alpha   89.96023550
_cell_angle_beta   89.97726095
_cell_angle_gamma   89.99601354
_symmetry_Int_Tables_number   1
_chemical_formula_structural   ZrScNbPdRh
_chemical_formula_sum   'Zr50 Sc50 Nb50 Pd50 Rh50'
_cell_volume   4535.93619915
_cell_formula_units_Z   50
loop_
 _symmetry_equiv_pos_site_id
 _symmetry_equiv_pos_as_xyz
  1  'x, y, z'
loop_
 _atom_site_type_symbol
 _atom_site_label
 _atom_site_symmetry_multiplicity
 _atom_site_fract_x
 _atom_site_fract_y
 _atom_site_fract_z
 _atom_site_occupancy
  Zr  Zr0  1  0.49502580  0.90841414  0.10255711  1
  Zr  Zr1  1  0.09482077  0.69891368  0.09869855  1
  Zr  Zr2  1  0.50276602  0.10827270  0.49530753  1
  Zr  Zr3  1  0.50267040  0.49334573  0.89587805  1
  Zr  Zr4  1  0.10605704  0.30547425  0.50481478  1
  Zr  Zr5  1  0.50777835  0.49574833  0.29859335  1
  Zr  Zr6  1  0.10511344  0.49450391  0.69571833  1
  Zr  Zr7  1  0.09971158  0.29552501  0.29728567  1
  Zr  Zr8  1  0.51089536  0.70115571  0.29805886  1
  Zr  Zr9  1  0.09579006  0.29140154  0.10180910  1
  Zr  Zr10  1  0.10502190  0.70605319  0.30455625  1
  Zr  Zr11  1  0.10707974  0.30232258  0.70384581  1
  Zr  Zr12  1  0.90303068  0.90541154  0.50072186  1
  Zr  Zr13  1  0.70388049  0.09588122  0.89602343  1
  Zr  Zr14  1  0.50356859  0.49997492  0.09944754  1
  Zr  Zr15  1  0.89533821  0.09785813  0.49823474  1
  Zr  Zr16  1  0.70145937  0.90331833  0.71610111  1
  Zr  Zr17  1  0.10536298  0.90094255  0.10455216  1
  Zr  Zr18  1  0.69406300  0.30506614  0.90569001  1
  Zr  Zr19  1  0.30271436  0.49980278  0.09704352  1
  Zr  Zr20  1  0.89960544  0.08984521  0.69886355  1
  Zr  Zr21  1  0.89364506  0.89539369  0.69850473  1
  Zr  Zr22  1  0.30435155  0.49753651  0.50160480  1
  Zr  Zr23  1  0.70477217  0.89754929  0.50144904  1
  Zr  Zr24  1  0.49867674  0.10218011  0.69847782  1
  Zr  Zr25  1  0.09598863  0.89579777  0.90428189  1
  Zr  Zr26  1  0.90082359  0.10454628  0.09421844  1
  Zr  Zr27  1  0.49717631  0.89706049  0.50143830  1
  Zr  Zr28  1  0.90024537  0.30920264  0.70468910  1
  Zr  Zr29  1  0.69666607  0.10081877  0.30304858  1
  Zr  Zr30  1  0.30638722  0.09271791  0.09332009  1
  Zr  Zr31  1  0.70002892  0.30039307  0.69743562  1
  Zr  Zr32  1  0.69973663  0.70102223  0.10072470  1
  Zr  Zr33  1  0.30424001  0.70074877  0.09984401  1
  Zr  Zr34  1  0.30857208  0.30011959  0.49893281  1
  Zr  Zr35  1  0.89527668  0.09680713  0.29575686  1
  Zr  Zr36  1  0.89909969  0.49762002  0.70127742  1
  Zr  Zr37  1  0.30353509  0.48554394  0.90606504  1
  Zr  Zr38  1  0.29726973  0.90666483  0.90189125  1
  Zr  Zr39  1  0.10079667  0.89687225  0.49831679  1
  Zr  Zr40  1  0.89749719  0.30574906  0.29787401  1
  Zr  Zr41  1  0.30119028  0.90076233  0.09648683  1
  Zr  Zr42  1  0.69701041  0.09851903  0.69927421  1
  Zr  Zr43  1  0.89714730  0.69865994  0.29617528  1
  Zr  Zr44  1  0.50882628  0.69415526  0.10105587  1
  Zr  Zr45  1  0.50240994  0.50005569  0.50012288  1
  Zr  Zr46  1  0.69874369  0.11334815  0.50083071  1
  Zr  Zr47  1  0.69406365  0.50436040  0.70248294  1
  Zr  Zr48  1  0.49913364  0.10085132  0.29457071  1
  Zr  Zr49  1  0.89636274  0.29560627  0.10141369  1
  Sc  Sc50  1  0.09463352  0.89649296  0.29933514  1
  Sc  Sc51  1  0.89692470  0.49507449  0.29746565  1
  Sc  Sc52  1  0.30135712  0.10522880  0.51014462  1
  Sc  Sc53  1  0.09662410  0.50320566  0.09613201  1
  Sc  Sc54  1  0.70044983  0.30226381  0.29799593  1
  Sc  Sc55  1  0.69811800  0.68787003  0.50102156  1
  Sc  Sc56  1  0.50405885  0.69919691  0.50247453  1
  Sc  Sc57  1  0.29283433  0.09935603  0.70570740  1
  Sc  Sc58  1  0.08908077  0.49734982  0.29623862  1
  Sc  Sc59  1  0.90454896  0.50112136  0.10749281  1
  Sc  Sc60  1  0.88947551  0.49681889  0.49409073  1
  Sc  Sc61  1  0.10359669  0.10459934  0.29048002  1
  Sc  Sc62  1  0.49433948  0.29751132  0.49577337  1
  Sc  Sc63  1  0.88603113  0.30346866  0.49747659  1
  Sc  Sc64  1  0.89470437  0.49066971  0.89583280  1
  Sc  Sc65  1  0.49823610  0.69411704  0.70859931  1
  Sc  Sc66  1  0.90094518  0.69913790  0.10179681  1
  Sc  Sc67  1  0.09060294  0.09781149  0.10192427  1
  Sc  Sc68  1  0.88711482  0.70301291  0.50462945  1
  Sc  Sc69  1  0.49551004  0.29859672  0.70296140  1
  Sc  Sc70  1  0.69112561  0.71210742  0.90257419  1
  Sc  Sc71  1  0.50116323  0.89257604  0.88650761  1
  Sc  Sc72  1  0.69153038  0.49718696  0.89819480  1
  Sc  Sc73  1  0.30462300  0.69419295  0.90127054  1
  Sc  Sc74  1  0.50265509  0.69371096  0.89766410  1
  Sc  Sc75  1  0.29754284  0.69856748  0.49637368  1
  Sc  Sc76  1  0.30597787  0.50100094  0.69878513  1
  Sc  Sc77  1  0.29838760  0.29561381  0.08051185  1
  Sc  Sc78  1  0.50909578  0.29727620  0.09630465  1
  Sc  Sc79  1  0.89482270  0.29919114  0.90820608  1
  Sc  Sc80  1  0.90219450  0.91090126  0.10032418  1
  Sc  Sc81  1  0.29728100  0.70217431  0.30453115  1
  Sc  Sc82  1  0.29346080  0.89216395  0.29408287  1
  Sc  Sc83  1  0.90839189  0.71432034  0.90420755  1
  Sc  Sc84  1  0.30280957  0.89607950  0.50953211  1
  Sc  Sc85  1  0.10226189  0.09278086  0.51020433  1
  Sc  Sc86  1  0.69948630  0.49825675  0.30076112  1
  Sc  Sc87  1  0.49843365  0.11293976  0.89286858  1
  Sc  Sc88  1  0.69161699  0.49421884  0.10169895  1
  Sc  Sc89  1  0.51473209  0.90077125  0.30050570  1
  Sc  Sc90  1  0.30124645  0.50331964  0.30341457  1
  Sc  Sc91  1  0.30714993  0.90597965  0.70302376  1
  Sc  Sc92  1  0.70646986  0.89342813  0.09500509  1
  Sc  Sc93  1  0.49725090  0.50234267  0.70471571  1
  Sc  Sc94  1  0.10384889  0.09605315  0.89680951  1
  Sc  Sc95  1  0.10016886  0.91729928  0.70356494  1
  Sc  Sc96  1  0.70345363  0.10949875  0.10230725  1
  Sc  Sc97  1  0.49912633  0.10112775  0.10399721  1
  Sc  Sc98  1  0.89209384  0.90785282  0.90680009  1
  Sc  Sc99  1  0.30215818  0.11121312  0.29118045  1
  Nb  Nb100  1  0.30207683  0.29043933  0.89452463  1
  Nb  Nb101  1  0.29741092  0.29923554  0.30028129  1
  Nb  Nb102  1  0.09692677  0.10310717  0.70214022  1
  Nb  Nb103  1  0.89933107  0.69897229  0.70026730  1
  Nb  Nb104  1  0.48849462  0.30471496  0.89913209  1
  Nb  Nb105  1  0.48651896  0.29725104  0.30263094  1
  Nb  Nb106  1  0.69627250  0.29836425  0.49904789  1
  Nb  Nb107  1  0.09797086  0.69466750  0.89846009  1
  Nb  Nb108  1  0.89411307  0.90446412  0.30461844  1
  Nb  Nb109  1  0.70576561  0.89183914  0.29779848  1
  Nb  Nb110  1  0.10424865  0.69898398  0.49914195  1
  Nb  Nb111  1  0.29446906  0.69709633  0.70496219  1
  Nb  Nb112  1  0.90072195  0.10632808  0.90833897  1
  Nb  Nb113  1  0.69003320  0.49896175  0.49783736  1
  Nb  Nb114  1  0.10303701  0.49903156  0.90085461  1
  Nb  Nb115  1  0.69794127  0.90509787  0.90213622  1
  Nb  Nb116  1  0.69864905  0.70884435  0.29169080  1
  Nb  Nb117  1  0.50307067  0.90088569  0.69752662  1
  Nb  Nb118  1  0.30127306  0.10989711  0.89939960  1
  Nb  Nb119  1  0.11251788  0.30253184  0.90170164  1
  Nb  Nb120  1  0.10032767  0.69300989  0.70350191  1
  Nb  Nb121  1  0.70514472  0.70293528  0.69764414  1
  Nb  Nb122  1  0.70368122  0.30370276  0.10105759  1
  Nb  Nb123  1  0.30206478  0.30132263  0.69756897  1
  Nb  Nb124  1  0.10704995  0.50500159  0.49678175  1
  Nb  Nb125  1  0.20439861  0.39798284  0.20003175  1
  Nb  Nb126  1  0.00362941  0.60222138  0.59826006  1
  Nb  Nb127  1  0.00352359  0.60398194  0.40894750  1
  Nb  Nb128  1  -0.00096813  0.20140755  0.60375294  1
  Nb  Nb129  1  0.80301244  0.60907762  0.80061157  1
  Nb  Nb130  1  0.40787343  0.59769169  0.39882099  1
  Nb  Nb131  1  0.00551558  0.79110424  0.60505025  1
  Nb  Nb132  1  0.59826208  -0.00387051  0.60145576  1
  Nb  Nb133  1  0.39694772  0.39446383  0.20132002  1
  Nb  Nb134  1  0.20672778  0.00074853  0.40071257  1
  Nb  Nb135  1  0.60252241  0.80282072  0.60969249  1
  Nb  Nb136  1  -0.00089200  0.20051388  0.40586065  1
  Nb  Nb137  1  0.00753215  0.39634850  -0.00455179  1
  Nb  Nb138  1  0.00167352  0.60094325  0.79872808  1
  Nb  Nb139  1  0.79773021  0.60225668  -0.00572843  1
  Nb  Nb140  1  0.60136455  0.39950354  0.59448706  1
  Nb  Nb141  1  0.20055759  0.39904199  0.39614383  1
  Nb  Nb142  1  0.00099017  0.20093319  0.80023436  1
  Nb  Nb143  1  0.60266438  -0.00077417  -0.00706576  1
  Nb  Nb144  1  0.19836017  0.59835696  0.19945310  1
  Nb  Nb145  1  0.19480440  0.79225412  0.61045248  1
  Nb  Nb146  1  0.39731863  0.00077457  0.39721993  1
  Nb  Nb147  1  0.80503552  0.19805082  0.80152256  1
  Nb  Nb148  1  0.19500540  0.79315985  0.79848438  1
  Nb  Nb149  1  0.40673373  0.79822709  0.19687526  1
  Pd  Pd150  1  0.59975803  -0.00074338  0.40505792  1
  Pd  Pd151  1  0.39551592  0.60165885  0.20902335  1
  Pd  Pd152  1  -0.00361999  0.40238746  0.58893746  1
  Pd  Pd153  1  0.79072280  0.40610241  0.59527243  1
  Pd  Pd154  1  0.19447859  0.00691645  -0.00108511  1
  Pd  Pd155  1  0.80909539  0.80595312  0.19454866  1
  Pd  Pd156  1  0.20006175  0.79283775  -0.00665305  1
  Pd  Pd157  1  0.20228281  0.59529478  0.80669689  1
  Pd  Pd158  1  0.61343586  -0.00450629  0.18945685  1
  Pd  Pd159  1  -0.00698620  0.80604019  0.19842647  1
  Pd  Pd160  1  0.19411308  0.18795186  0.00154000  1
  Pd  Pd161  1  0.79877496  0.59889833  0.39476501  1
  Pd  Pd162  1  0.80814549  0.20187397  0.60659176  1
  Pd  Pd163  1  -0.00406790  0.80757591  0.00959675  1
  Pd  Pd164  1  0.40303682  0.00612604  0.59551016  1
  Pd  Pd165  1  0.40212971  0.00525923  0.80498526  1
  Pd  Pd166  1  0.39595005  0.20974340  0.18678621  1
  Pd  Pd167  1  0.60828072  0.79371741  0.40860270  1
  Pd  Pd168  1  0.20302600  0.60126747  0.59992262  1
  Pd  Pd169  1  0.40197459  0.60778097  0.59721901  1
  Pd  Pd170  1  0.19922017  0.19919020  0.60474004  1
  Pd  Pd171  1  0.39952612  0.78918656  0.60969613  1
  Pd  Pd172  1  0.80340205  0.41054563  0.00791788  1
  Pd  Pd173  1  0.01157225  0.01016653  0.39233992  1
  Pd  Pd174  1  0.79286964  -0.00212802  0.19430402  1
  Pd  Pd175  1  0.59236121  0.80893812  0.00077630  1
  Pd  Pd176  1  0.41389151  0.00559894  -0.01536837  1
  Pd  Pd177  1  -0.01087280  0.79270859  0.40537767  1
  Pd  Pd178  1  0.39345401  0.79716987  0.79692052  1
  Pd  Pd179  1  0.00498320  0.39808469  0.81096629  1
  Pd  Pd180  1  0.40615758  0.59857822  -0.00708889  1
  Pd  Pd181  1  0.20053553  0.60234963  0.00232769  1
  Pd  Pd182  1  0.20371926  0.00375971  0.20577802  1
  Pd  Pd183  1  -0.01178579  0.59070487  -0.01174309  1
  Pd  Pd184  1  0.40893632  0.79765271  -0.00026560  1
  Pd  Pd185  1  0.60037173  0.38980381  0.40048670  1
  Pd  Pd186  1  0.21036903  0.40238582  0.79798296  1
  Pd  Pd187  1  0.00275211  0.40139832  0.40658014  1
  Pd  Pd188  1  0.19685212  0.19524503  0.40495326  1
  Pd  Pd189  1  0.39785818  0.80086054  0.39135684  1
  Pd  Pd190  1  0.79453372  0.59369929  0.19375307  1
  Pd  Pd191  1  0.00557976  0.80144570  0.79331990  1
  Pd  Pd192  1  -0.00527669  0.00324184  0.80860765  1
  Pd  Pd193  1  0.79903701  0.79546861  0.40150722  1
  Pd  Pd194  1  0.59985479  0.19486178  -0.00085644  1
  Pd  Pd195  1  0.60285189  0.20801212  0.80242059  1
  Pd  Pd196  1  0.80163479  0.59402120  0.60188103  1
  Pd  Pd197  1  0.79970811  0.79578348  0.81033613  1
  Pd  Pd198  1  0.79153934  0.00059193  0.40028686  1
  Pd  Pd199  1  0.60154258  0.20751114  0.20400891  1
  Rh  Rh200  1  0.40762877  0.39625382  0.60609414  1
  Rh  Rh201  1  0.59369212  0.39156648  0.20183794  1
  Rh  Rh202  1  0.59338292  0.20558182  0.59897038  1
  Rh  Rh203  1  0.60076825  0.79571986  0.79419802  1
  Rh  Rh204  1  0.00361609  -0.00022926  -0.00037406  1
  Rh  Rh205  1  0.79811310  0.20272222  0.20327117  1
  Rh  Rh206  1  0.80893166  0.00427868  0.80681961  1
  Rh  Rh207  1  0.59894817  0.80729556  0.19431112  1
  Rh  Rh208  1  0.20020241  0.19926286  0.79934047  1
  Rh  Rh209  1  0.80309624  0.20425587  0.39424253  1
  Rh  Rh210  1  0.00342306  0.39804873  0.18768187  1
  Rh  Rh211  1  -0.00233667  -0.00356457  0.20531769  1
  Rh  Rh212  1  0.20282620  -0.00112616  0.80371873  1
  Rh  Rh213  1  0.59815859  0.20764917  0.39144718  1
  Rh  Rh214  1  0.40729732  0.39335848  0.00651571  1
  Rh  Rh215  1  0.78894000  0.39751405  0.80385428  1
  Rh  Rh216  1  0.39502200  0.40459042  0.39185971  1
  Rh  Rh217  1  0.20045587  -0.00775152  0.59856150  1
  Rh  Rh218  1  0.19712486  0.59207351  0.39022629  1
  Rh  Rh219  1  0.39586010  0.39708040  0.79694087  1
  Rh  Rh220  1  0.59001155  0.00093386  0.80236101  1
  Rh  Rh221  1  0.59525177  0.39429609  0.79287974  1
  Rh  Rh222  1  0.59815036  0.60078230  0.60639947  1
  Rh  Rh223  1  0.79070467  -0.00112297  0.59727210  1
  Rh  Rh224  1  0.20429523  0.79172760  0.19348141  1
  Rh  Rh225  1  0.39684251  0.19068446  0.39819285  1
  Rh  Rh226  1  0.39204774  0.20121282  0.79429321  1
  Rh  Rh227  1  0.19157008  0.40024014  0.00637206  1
  Rh  Rh228  1  0.79367948  0.00578603  0.00444858  1
  Rh  Rh229  1  0.60781486  0.59620771  -0.00370657  1
  Rh  Rh230  1  0.20738990  0.81029685  0.41077475  1
  Rh  Rh231  1  0.80281242  0.79627792  -0.00024029  1
  Rh  Rh232  1  0.39852985  0.20175194  0.60656102  1
  Rh  Rh233  1  0.78952410  0.40094108  0.40000972  1
  Rh  Rh234  1  0.20942035  0.20091171  0.18526588  1
  Rh  Rh235  1  0.00622714  0.60526859  0.21247122  1
  Rh  Rh236  1  0.79689534  0.40167396  0.19591191  1
  Rh  Rh237  1  0.00903617  0.20634825  -0.01369184  1
  Rh  Rh238  1  0.61142140  0.59805632  0.20378334  1
  Rh  Rh239  1  0.40597003  0.19901300  -0.00061078  1
  Rh  Rh240  1  0.79720050  0.80270048  0.60036786  1
  Rh  Rh241  1  0.39437551  0.59382013  0.80474696  1
  Rh  Rh242  1  0.39670917  -0.01039803  0.21410965  1
  Rh  Rh243  1  0.79047390  0.20139774  -0.00394956  1
  Rh  Rh244  1  0.60740307  0.60648771  0.80020434  1
  Rh  Rh245  1  0.00016025  -0.00126133  0.60124619  1
  Rh  Rh246  1  0.60331184  0.60549347  0.39267800  1
  Rh  Rh247  1  0.20936169  0.40116415  0.59558486  1
  Rh  Rh248  1  -0.00999471  0.19726370  0.20989964  1
  Rh  Rh249  1  0.59435792  0.39764117  0.00085956  1
