# generated using pymatgen
data_ZrScNbPdRh
_symmetry_space_group_name_H-M   'P 1'
_cell_length_a   16.55483812
_cell_length_b   16.55911470
_cell_length_c   16.56077914
_cell_angle_alpha   89.97890847
_cell_angle_beta   90.05686307
_cell_angle_gamma   90.02440589
_symmetry_Int_Tables_number   1
_chemical_formula_structural   ZrScNbPdRh
_chemical_formula_sum   'Zr50 Sc50 Nb50 Pd50 Rh50'
_cell_volume   4539.86078528
_cell_formula_units_Z   50
loop_
 _symmetry_equiv_pos_site_id
 _symmetry_equiv_pos_as_xyz
  1  'x, y, z'
loop_
 _atom_site_type_symbol
 _atom_site_label
 _atom_site_symmetry_multiplicity
 _atom_site_fract_x
 _atom_site_fract_y
 _atom_site_fract_z
 _atom_site_occupancy
  Zr  Zr0  1  0.90315287  0.70404699  0.10523489  1
  Zr  Zr1  1  0.09989702  0.30632453  0.09804435  1
  Zr  Zr2  1  0.69861445  0.50626119  0.90987574  1
  Zr  Zr3  1  0.49965826  0.90032075  0.30789414  1
  Zr  Zr4  1  0.90028013  0.10033842  0.49673729  1
  Zr  Zr5  1  0.49641216  0.49245237  0.90924739  1
  Zr  Zr6  1  0.10753622  0.49746205  0.09352123  1
  Zr  Zr7  1  0.10321382  0.29959766  0.29993421  1
  Zr  Zr8  1  0.09725895  0.90675714  0.50059501  1
  Zr  Zr9  1  0.09797108  0.09727611  0.49013642  1
  Zr  Zr10  1  0.70255946  0.10242489  0.08350314  1
  Zr  Zr11  1  0.49094459  0.70004807  0.70382174  1
  Zr  Zr12  1  0.68953907  0.90081542  0.49880274  1
  Zr  Zr13  1  0.69321081  0.70213336  0.09335417  1
  Zr  Zr14  1  0.89466703  0.90530623  0.09725022  1
  Zr  Zr15  1  0.89642689  0.30765656  0.29718852  1
  Zr  Zr16  1  0.49839851  0.10683632  0.09976945  1
  Zr  Zr17  1  0.29550621  0.69869326  0.31002517  1
  Zr  Zr18  1  0.70827061  0.90195401  0.69915165  1
  Zr  Zr19  1  0.29739153  0.89027298  0.29312297  1
  Zr  Zr20  1  0.30003003  0.29725831  0.30099488  1
  Zr  Zr21  1  0.30528400  0.50761556  0.70141753  1
  Zr  Zr22  1  0.28950263  0.29344291  0.50166259  1
  Zr  Zr23  1  0.49179546  0.30195239  0.09598754  1
  Zr  Zr24  1  0.70764582  0.70692476  0.30523080  1
  Zr  Zr25  1  0.71135941  0.30385156  0.10592650  1
  Zr  Zr26  1  0.70222917  0.50083890  0.69369128  1
  Zr  Zr27  1  0.30717460  0.69756999  0.11347097  1
  Zr  Zr28  1  0.10074792  0.69750292  0.69449686  1
  Zr  Zr29  1  0.30545967  0.50277468  0.09922694  1
  Zr  Zr30  1  0.11027546  0.90213329  0.30466864  1
  Zr  Zr31  1  0.10150437  0.90389995  0.89127698  1
  Zr  Zr32  1  0.29653236  0.69529216  0.50486032  1
  Zr  Zr33  1  0.70106175  0.10535933  0.50698913  1
  Zr  Zr34  1  0.10006426  0.09718381  0.89210710  1
  Zr  Zr35  1  0.30089098  0.89890033  0.88947753  1
  Zr  Zr36  1  0.69074388  0.89691797  0.30191997  1
  Zr  Zr37  1  0.50653593  0.10160899  0.90484026  1
  Zr  Zr38  1  0.10492818  0.68830122  0.49980975  1
  Zr  Zr39  1  0.70333008  0.29272674  0.69520492  1
  Zr  Zr40  1  0.09742851  0.69682996  0.10296372  1
  Zr  Zr41  1  0.69968606  0.50323503  0.49731538  1
  Zr  Zr42  1  0.29792431  0.70675277  0.69880614  1
  Zr  Zr43  1  0.70155784  0.70509992  0.90230714  1
  Zr  Zr44  1  0.69875248  0.29947968  0.90201539  1
  Zr  Zr45  1  0.10547694  0.30652730  0.89279460  1
  Zr  Zr46  1  0.09099993  0.49454217  0.30048957  1
  Zr  Zr47  1  0.09657365  0.69763834  0.30079495  1
  Zr  Zr48  1  0.30378088  0.28623816  0.70490756  1
  Zr  Zr49  1  0.90109081  0.90582814  0.70071065  1
  Sc  Sc50  1  0.29018235  0.10648816  0.29873441  1
  Sc  Sc51  1  0.10613678  0.08776717  0.69467358  1
  Sc  Sc52  1  0.29958276  0.50278128  0.29787372  1
  Sc  Sc53  1  0.49764883  0.90401035  0.69346132  1
  Sc  Sc54  1  0.09217123  0.48947834  0.68873738  1
  Sc  Sc55  1  0.51357095  0.89433994  0.11104013  1
  Sc  Sc56  1  0.70724790  0.09989746  0.30100163  1
  Sc  Sc57  1  0.91190528  0.30027252  0.90328891  1
  Sc  Sc58  1  0.50431092  0.70334838  0.90840521  1
  Sc  Sc59  1  0.10777414  0.30160394  0.69644983  1
  Sc  Sc60  1  0.50303353  0.30098800  0.30347785  1
  Sc  Sc61  1  0.70150395  0.29858596  0.49077482  1
  Sc  Sc62  1  0.09737279  0.70633308  0.90231026  1
  Sc  Sc63  1  0.89079549  0.91032024  0.50638023  1
  Sc  Sc64  1  0.90215038  0.70337818  0.90612597  1
  Sc  Sc65  1  0.90024101  0.30613308  0.69436828  1
  Sc  Sc66  1  0.49571071  0.49409279  0.71273808  1
  Sc  Sc67  1  0.89646993  0.10358450  0.09188541  1
  Sc  Sc68  1  0.29654615  0.49468857  0.90590014  1
  Sc  Sc69  1  0.90248696  0.90334124  0.89511385  1
  Sc  Sc70  1  0.50612088  0.89850605  0.89115829  1
  Sc  Sc71  1  0.90863181  0.50091118  0.10072821  1
  Sc  Sc72  1  0.69900653  0.90404005  0.11193482  1
  Sc  Sc73  1  0.89389832  0.68124370  0.49511068  1
  Sc  Sc74  1  0.10468169  0.89923967  0.70497793  1
  Sc  Sc75  1  0.30195124  0.10239085  0.50402950  1
  Sc  Sc76  1  0.29121840  0.50790982  0.49996580  1
  Sc  Sc77  1  0.69790581  0.48574786  0.30189497  1
  Sc  Sc78  1  0.50519494  0.50589487  0.49340105  1
  Sc  Sc79  1  0.88120689  0.89188848  0.29512457  1
  Sc  Sc80  1  0.89511864  0.70065201  0.69542243  1
  Sc  Sc81  1  0.49077239  0.70362755  0.30112189  1
  Sc  Sc82  1  0.50466121  0.27854089  0.49315223  1
  Sc  Sc83  1  0.70032885  0.90671895  0.89344318  1
  Sc  Sc84  1  0.30323048  0.89964503  0.49940935  1
  Sc  Sc85  1  0.70209248  0.70580369  0.69410232  1
  Sc  Sc86  1  0.70018145  0.50119233  0.09964525  1
  Sc  Sc87  1  0.89313682  0.09431346  0.90157167  1
  Sc  Sc88  1  0.30562634  0.09993297  0.88588170  1
  Sc  Sc89  1  0.09903508  0.10261236  0.10495873  1
  Sc  Sc90  1  0.90222679  0.49463317  0.50248345  1
  Sc  Sc91  1  0.30135898  0.30042376  0.10683641  1
  Sc  Sc92  1  0.49890096  0.70077000  0.49846602  1
  Sc  Sc93  1  0.30449436  0.69978153  0.89568921  1
  Sc  Sc94  1  0.49483044  0.10954922  0.30906715  1
  Sc  Sc95  1  0.10168012  0.90028962  0.11111189  1
  Sc  Sc96  1  0.49568323  0.09139011  0.50407968  1
  Sc  Sc97  1  0.90395560  0.29712285  0.10134140  1
  Sc  Sc98  1  0.50065434  0.49870966  0.30411615  1
  Sc  Sc99  1  0.69627543  0.69575523  0.50215139  1
  Nb  Nb100  1  0.49897478  0.69887146  0.10127533  1
  Nb  Nb101  1  0.69667130  0.30367030  0.29376799  1
  Nb  Nb102  1  0.49135993  0.10367513  0.69675659  1
  Nb  Nb103  1  0.50473958  0.90463798  0.49530768  1
  Nb  Nb104  1  0.09499798  0.09609916  0.30230328  1
  Nb  Nb105  1  0.49534297  0.30505903  0.89313551  1
  Nb  Nb106  1  0.29697196  0.90283287  0.10579529  1
  Nb  Nb107  1  0.49371902  0.50929247  0.09994724  1
  Nb  Nb108  1  0.09646725  0.30962707  0.50077241  1
  Nb  Nb109  1  0.31208701  0.09075263  0.69740896  1
  Nb  Nb110  1  0.90949183  0.10414265  0.30383917  1
  Nb  Nb111  1  0.70097984  0.10424727  0.89415181  1
  Nb  Nb112  1  0.90182262  0.69298444  0.30101091  1
  Nb  Nb113  1  0.90020592  0.50662937  0.30186428  1
  Nb  Nb114  1  0.29640952  0.29488223  0.89667151  1
  Nb  Nb115  1  0.09563341  0.49275454  0.89905946  1
  Nb  Nb116  1  0.30506095  0.90110681  0.70674309  1
  Nb  Nb117  1  0.49887784  0.30086907  0.70195544  1
  Nb  Nb118  1  0.30505199  0.10324139  0.09764352  1
  Nb  Nb119  1  0.90328883  0.49700765  0.89873588  1
  Nb  Nb120  1  0.89940058  0.50089289  0.69943035  1
  Nb  Nb121  1  0.70915871  0.10335496  0.70788016  1
  Nb  Nb122  1  0.90401575  0.29628124  0.49949766  1
  Nb  Nb123  1  0.09494248  0.49410371  0.49930063  1
  Nb  Nb124  1  0.89445175  0.10121284  0.69422397  1
  Nb  Nb125  1  0.80273608  0.40669439  0.80329938  1
  Nb  Nb126  1  -0.00405195  0.79634604  0.40305738  1
  Nb  Nb127  1  0.60425951  0.59887664  0.80326745  1
  Nb  Nb128  1  0.59847571  0.60266968  0.19656295  1
  Nb  Nb129  1  0.00011272  0.19945451  0.59620562  1
  Nb  Nb130  1  0.59237940  0.39350881  0.60046010  1
  Nb  Nb131  1  0.60619308  0.20597828  0.19687440  1
  Nb  Nb132  1  0.59775470  0.19902484  0.79688111  1
  Nb  Nb133  1  0.79772229  0.80340057  0.00314043  1
  Nb  Nb134  1  -0.00005134  0.79933318  0.59191239  1
  Nb  Nb135  1  0.80237950  0.59538471  0.80336790  1
  Nb  Nb136  1  0.40436340  0.39208410  0.59740585  1
  Nb  Nb137  1  0.20715321  0.80551579  0.00510582  1
  Nb  Nb138  1  -0.00092260  0.19543233  0.78905632  1
  Nb  Nb139  1  0.39800761  -0.00493227  0.00552874  1
  Nb  Nb140  1  -0.00343844  0.00529581  0.20996719  1
  Nb  Nb141  1  0.39773166  0.80677388  0.00902183  1
  Nb  Nb142  1  0.39543113  0.00161644  0.19609762  1
  Nb  Nb143  1  0.20871659  0.00144859  0.00337188  1
  Nb  Nb144  1  0.39711525  0.39561438  0.41044215  1
  Nb  Nb145  1  0.20579673  0.19717029  -0.00452583  1
  Nb  Nb146  1  -0.00160127  0.59051811  0.80060122  1
  Nb  Nb147  1  0.80421181  0.40415425  -0.00401418  1
  Nb  Nb148  1  0.18865499  0.59494182  0.80083347  1
  Nb  Nb149  1  0.79970675  0.60094794  0.20483383  1
  Pd  Pd150  1  0.19696385  0.59572708  0.20543300  1
  Pd  Pd151  1  0.79876184  -0.00031366  0.39787322  1
  Pd  Pd152  1  0.79788505  0.20390636  0.39511449  1
  Pd  Pd153  1  0.60278245  0.00611472  0.60835763  1
  Pd  Pd154  1  0.00041442  0.59799145  -0.00514057  1
  Pd  Pd155  1  0.20489042  0.40554908  0.39852271  1
  Pd  Pd156  1  0.80599799  0.79906982  0.41318401  1
  Pd  Pd157  1  0.59330269  0.79983594  0.60058686  1
  Pd  Pd158  1  0.80324466  0.40035237  0.40228557  1
  Pd  Pd159  1  0.80675337  0.79575715  0.58972659  1
  Pd  Pd160  1  0.39963563  0.79929926  0.40902995  1
  Pd  Pd161  1  0.80518797  0.01238649  0.20052873  1
  Pd  Pd162  1  -0.00123979  0.19842657  0.19983683  1
  Pd  Pd163  1  0.00802724  0.19715064  -0.00888617  1
  Pd  Pd164  1  0.40879873  0.59161122  0.59433818  1
  Pd  Pd165  1  0.40353756  0.59903574  0.81284713  1
  Pd  Pd166  1  0.19788137  0.19803106  0.19406625  1
  Pd  Pd167  1  0.58962201  0.59482134  0.60975502  1
  Pd  Pd168  1  0.60869406  0.40043944  0.79441574  1
  Pd  Pd169  1  0.40798723  0.19677565  0.80469494  1
  Pd  Pd170  1  0.40435700  0.80760724  0.59361367  1
  Pd  Pd171  1  0.59085157  0.40296124  0.19272514  1
  Pd  Pd172  1  0.80871356  0.20869877  0.80614669  1
  Pd  Pd173  1  0.20250551  0.60856087  -0.00886584  1
  Pd  Pd174  1  0.60215155  0.39754032  0.01000032  1
  Pd  Pd175  1  0.59748376  0.00835642  0.78896360  1
  Pd  Pd176  1  0.38938177  0.39192272  -0.00246501  1
  Pd  Pd177  1  0.59568450  0.19768215  0.60616868  1
  Pd  Pd178  1  0.59982745  0.79590296  0.79256480  1
  Pd  Pd179  1  0.80025046  0.19309388  0.20186747  1
  Pd  Pd180  1  0.20869748  -0.00498042  0.60181748  1
  Pd  Pd181  1  -0.00506422  0.79181446  0.79117495  1
  Pd  Pd182  1  0.19186604  0.19191352  0.60227191  1
  Pd  Pd183  1  0.00451782  0.81231601  0.00099343  1
  Pd  Pd184  1  0.19667412  0.80984705  0.59678513  1
  Pd  Pd185  1  0.59953340  0.21086648  0.00039506  1
  Pd  Pd186  1  0.39103644  0.00455983  0.39274921  1
  Pd  Pd187  1  0.20585355  0.40722687  0.79215882  1
  Pd  Pd188  1  0.01010167  -0.00148672  0.00926772  1
  Pd  Pd189  1  0.60153352  0.60539552  0.38750606  1
  Pd  Pd190  1  0.59915981  -0.00930539  0.00047430  1
  Pd  Pd191  1  0.79612872  0.39677642  0.59641097  1
  Pd  Pd192  1  -0.00097282  0.81154283  0.21101829  1
  Pd  Pd193  1  0.21273532  0.00361432  0.40041165  1
  Pd  Pd194  1  0.00427406  0.21016371  0.40140172  1
  Pd  Pd195  1  -0.01374326  -0.01588926  0.39083747  1
  Pd  Pd196  1  0.40287617  0.40283236  0.21010532  1
  Pd  Pd197  1  0.20994010  0.40384127  0.60466965  1
  Pd  Pd198  1  0.59286197  0.01619011  0.20764058  1
  Pd  Pd199  1  0.60139601  0.01279496  0.39800433  1
  Rh  Rh200  1  0.20029994  0.79053392  0.80459877  1
  Rh  Rh201  1  0.79511920  0.79167997  0.19217036  1
  Rh  Rh202  1  -0.00199655  0.59392949  0.19997131  1
  Rh  Rh203  1  0.40675358  0.19744223  0.20572632  1
  Rh  Rh204  1  0.61127271  0.19809848  0.38741693  1
  Rh  Rh205  1  0.80315976  0.00057939  0.80124445  1
  Rh  Rh206  1  0.80087884  0.60036666  0.60306112  1
  Rh  Rh207  1  0.39929864  0.60951769  -0.00299887  1
  Rh  Rh208  1  0.38949129  0.39646322  0.79874723  1
  Rh  Rh209  1  0.79159405  0.00479164  0.60046046  1
  Rh  Rh210  1  -0.00247593  0.39981683  0.00459432  1
  Rh  Rh211  1  0.40693329  0.80755402  0.19782410  1
  Rh  Rh212  1  0.39918902  -0.00561363  0.59900272  1
  Rh  Rh213  1  0.39307957  0.20210352  -0.01040107  1
  Rh  Rh214  1  0.20176813  0.40398689  0.19824079  1
  Rh  Rh215  1  0.40168329  0.20165388  0.59801129  1
  Rh  Rh216  1  0.59271957  0.39268381  0.41078979  1
  Rh  Rh217  1  0.79361308  0.59020281  0.39311020  1
  Rh  Rh218  1  -0.00465029  0.39346105  0.59679893  1
  Rh  Rh219  1  0.19217653  0.19858284  0.40188928  1
  Rh  Rh220  1  0.59538247  0.79493780  0.40402992  1
  Rh  Rh221  1  0.00250891  0.59764655  0.40480987  1
  Rh  Rh222  1  0.39631546  0.59493941  0.40103294  1
  Rh  Rh223  1  -0.00739456  0.01053409  0.79189700  1
  Rh  Rh224  1  0.19496707  0.79766445  0.40847514  1
  Rh  Rh225  1  0.81360754  0.60277290  0.00543216  1
  Rh  Rh226  1  0.40902707  -0.00051178  0.80126568  1
  Rh  Rh227  1  0.19578178  0.79016922  0.19547744  1
  Rh  Rh228  1  -0.00202207  0.60055816  0.60132706  1
  Rh  Rh229  1  0.80447774  0.79653390  0.80880330  1
  Rh  Rh230  1  0.40601144  0.80209213  0.80284310  1
  Rh  Rh231  1  0.20886949  0.00368148  0.79502985  1
  Rh  Rh232  1  -0.00608181  0.39857703  0.39994189  1
  Rh  Rh233  1  0.80742128  0.20093988  0.59385434  1
  Rh  Rh234  1  0.40740160  0.59723241  0.20835374  1
  Rh  Rh235  1  0.19321338  0.59109175  0.39633452  1
  Rh  Rh236  1  0.79214649  -0.00634639  -0.00476544  1
  Rh  Rh237  1  0.80870987  0.41091950  0.19545078  1
  Rh  Rh238  1  0.19756152  0.01057476  0.19896954  1
  Rh  Rh239  1  -0.00069218  0.00062193  0.60481786  1
  Rh  Rh240  1  -0.00370891  0.39563985  0.79300408  1
  Rh  Rh241  1  0.20639342  0.39034042  0.00095027  1
  Rh  Rh242  1  0.59826904  0.79028036  0.20875998  1
  Rh  Rh243  1  0.80468634  0.20819807  -0.00644264  1
  Rh  Rh244  1  0.19397393  0.58853442  0.60855776  1
  Rh  Rh245  1  0.60065048  0.80872635  0.00142440  1
  Rh  Rh246  1  -0.00170493  0.40159561  0.19956638  1
  Rh  Rh247  1  0.19495908  0.19153654  0.79728213  1
  Rh  Rh248  1  0.39133859  0.20257079  0.40254429  1
  Rh  Rh249  1  0.58714101  0.59842763  0.00140309  1
