# generated using pymatgen
data_ZrScNbPdRh
_symmetry_space_group_name_H-M   'P 1'
_cell_length_a   16.55792870
_cell_length_b   16.55121565
_cell_length_c   16.55972678
_cell_angle_alpha   89.96553137
_cell_angle_beta   90.03290921
_cell_angle_gamma   89.99475602
_symmetry_Int_Tables_number   1
_chemical_formula_structural   ZrScNbPdRh
_chemical_formula_sum   'Zr50 Sc50 Nb50 Pd50 Rh50'
_cell_volume   4538.25526649
_cell_formula_units_Z   50
loop_
 _symmetry_equiv_pos_site_id
 _symmetry_equiv_pos_as_xyz
  1  'x, y, z'
loop_
 _atom_site_type_symbol
 _atom_site_label
 _atom_site_symmetry_multiplicity
 _atom_site_fract_x
 _atom_site_fract_y
 _atom_site_fract_z
 _atom_site_occupancy
  Zr  Zr0  1  0.10300289  0.69495345  0.50226538  1
  Zr  Zr1  1  0.10418610  0.90196143  0.70177205  1
  Zr  Zr2  1  0.09437533  0.09744425  0.50461016  1
  Zr  Zr3  1  0.69077222  0.90734890  0.09518398  1
  Zr  Zr4  1  0.50326146  0.30647810  0.10530381  1
  Zr  Zr5  1  0.89886492  0.48912298  0.10068683  1
  Zr  Zr6  1  0.50742625  0.30049448  0.70571295  1
  Zr  Zr7  1  0.09691556  0.10131494  0.10103483  1
  Zr  Zr8  1  0.89816565  0.49985305  0.50573596  1
  Zr  Zr9  1  0.50387619  0.08951117  0.50385440  1
  Zr  Zr10  1  0.90571151  0.10323725  0.69690913  1
  Zr  Zr11  1  0.49819436  0.89521138  0.69775101  1
  Zr  Zr12  1  0.69464490  0.10203480  0.69744988  1
  Zr  Zr13  1  0.69660390  0.10000170  0.91277136  1
  Zr  Zr14  1  0.30270620  0.09688413  0.50800677  1
  Zr  Zr15  1  0.10223016  0.30883073  0.89246218  1
  Zr  Zr16  1  0.69674212  0.69583496  0.30428945  1
  Zr  Zr17  1  0.89740373  0.10504030  0.91337731  1
  Zr  Zr18  1  0.90736160  0.49765157  0.89386087  1
  Zr  Zr19  1  0.30168289  0.30206893  0.89677137  1
  Zr  Zr20  1  0.10270666  0.10306137  0.29778022  1
  Zr  Zr21  1  0.89819634  0.90318429  0.49406540  1
  Zr  Zr22  1  0.89609216  0.29911475  0.50285082  1
  Zr  Zr23  1  0.89184933  0.10672655  0.50167163  1
  Zr  Zr24  1  0.10690081  0.09763888  0.69921226  1
  Zr  Zr25  1  0.29876493  0.89351422  0.69687059  1
  Zr  Zr26  1  0.70710104  0.69759984  0.70259021  1
  Zr  Zr27  1  0.50419505  0.50055920  0.68624191  1
  Zr  Zr28  1  0.10723417  0.50472086  0.29781838  1
  Zr  Zr29  1  0.30451598  0.88865836  0.30877159  1
  Zr  Zr30  1  0.10139661  0.70042672  0.10419287  1
  Zr  Zr31  1  0.50506589  0.49463720  0.30835687  1
  Zr  Zr32  1  0.30506670  0.50104565  0.50439451  1
  Zr  Zr33  1  0.30062574  0.50492401  0.10447198  1
  Zr  Zr34  1  0.50651543  0.50250664  0.90133626  1
  Zr  Zr35  1  0.70380629  0.90478571  0.29405224  1
  Zr  Zr36  1  0.49952806  0.10260680  0.29462036  1
  Zr  Zr37  1  0.90026776  0.69243569  0.89053621  1
  Zr  Zr38  1  0.49394179  0.10308559  0.69856120  1
  Zr  Zr39  1  0.11257892  0.89983594  0.50012268  1
  Zr  Zr40  1  0.48966194  0.89906516  0.50016726  1
  Zr  Zr41  1  0.88876982  0.69699369  0.49998114  1
  Zr  Zr42  1  0.10205231  0.30608413  0.50559460  1
  Zr  Zr43  1  0.89626653  0.89720836  0.10731683  1
  Zr  Zr44  1  0.50661889  0.31247590  0.49863290  1
  Zr  Zr45  1  0.29682721  0.70288579  0.89434123  1
  Zr  Zr46  1  0.69616093  0.10059582  0.30289597  1
  Zr  Zr47  1  0.09251614  0.09391570  0.90075268  1
  Zr  Zr48  1  0.50300888  0.29230725  0.90063145  1
  Zr  Zr49  1  0.50272377  0.50628294  0.50095445  1
  Sc  Sc50  1  0.30697041  0.50251560  0.30389928  1
  Sc  Sc51  1  0.70374750  0.49887772  0.29892404  1
  Sc  Sc52  1  0.08787229  0.29486868  0.10809865  1
  Sc  Sc53  1  0.10340221  0.30491377  0.69541401  1
  Sc  Sc54  1  0.90015680  0.68788114  0.69979711  1
  Sc  Sc55  1  0.10512923  0.89266476  0.89590411  1
  Sc  Sc56  1  0.90528384  0.90696794  0.89826310  1
  Sc  Sc57  1  0.29144655  0.50428741  0.90216000  1
  Sc  Sc58  1  0.30186042  0.69283959  0.30301397  1
  Sc  Sc59  1  0.49833968  0.89664963  0.10164653  1
  Sc  Sc60  1  0.30087832  0.89986185  0.09569371  1
  Sc  Sc61  1  0.30683375  0.10365152  0.89977634  1
  Sc  Sc62  1  0.10805112  0.49856214  0.50763258  1
  Sc  Sc63  1  0.10464488  0.89967192  0.09828406  1
  Sc  Sc64  1  0.30170285  0.89012312  0.90075956  1
  Sc  Sc65  1  0.69617366  0.30405744  0.29460523  1
  Sc  Sc66  1  0.30676151  0.70097293  0.70172317  1
  Sc  Sc67  1  0.10330724  0.69032692  0.89376443  1
  Sc  Sc68  1  0.49865765  0.70729323  0.89959700  1
  Sc  Sc69  1  0.89037663  0.30819560  0.29032397  1
  Sc  Sc70  1  0.30323492  0.70607256  0.49874917  1
  Sc  Sc71  1  0.70124062  0.31097943  0.70102942  1
  Sc  Sc72  1  0.88579552  0.70616467  0.29434474  1
  Sc  Sc73  1  0.70476390  0.49368435  0.89780880  1
  Sc  Sc74  1  0.88752017  0.09435983  0.30893383  1
  Sc  Sc75  1  0.30954554  0.30675539  0.09747525  1
  Sc  Sc76  1  0.49857583  0.30124435  0.29537875  1
  Sc  Sc77  1  0.09608426  0.50066022  0.69598755  1
  Sc  Sc78  1  0.69129527  0.70360466  0.89934353  1
  Sc  Sc79  1  0.90216182  0.89269711  0.70602442  1
  Sc  Sc80  1  0.49735738  0.89940542  0.29333714  1
  Sc  Sc81  1  0.29261097  0.30113852  0.50026861  1
  Sc  Sc82  1  0.70294123  0.30096218  0.10418589  1
  Sc  Sc83  1  0.49486672  0.70311984  0.30041518  1
  Sc  Sc84  1  0.49648583  0.09857888  0.09850899  1
  Sc  Sc85  1  0.69695818  0.89265937  0.70506953  1
  Sc  Sc86  1  0.30048619  0.10210198  0.29594966  1
  Sc  Sc87  1  0.69069798  0.50120032  0.10055887  1
  Sc  Sc88  1  0.68908518  0.69969747  0.10354813  1
  Sc  Sc89  1  0.90157270  0.30800745  0.69162008  1
  Sc  Sc90  1  0.10743737  0.29930159  0.30230168  1
  Sc  Sc91  1  0.89752262  0.30867478  0.90691744  1
  Sc  Sc92  1  0.29579103  0.28928877  0.69802321  1
  Sc  Sc93  1  0.10059580  0.50141772  0.09159353  1
  Sc  Sc94  1  0.49889498  0.50069542  0.09965321  1
  Sc  Sc95  1  0.30364130  0.69947627  0.09778860  1
  Sc  Sc96  1  0.50239846  0.70169884  0.09968447  1
  Sc  Sc97  1  0.30289984  0.29821192  0.30420843  1
  Sc  Sc98  1  0.70125174  0.10190082  0.10224406  1
  Sc  Sc99  1  0.10176660  0.90286777  0.30359684  1
  Nb  Nb100  1  0.30001081  0.89368483  0.50163388  1
  Nb  Nb101  1  0.90090198  0.70118068  0.10042364  1
  Nb  Nb102  1  0.69919584  0.69850792  0.49827100  1
  Nb  Nb103  1  0.69067278  0.50182789  0.49816719  1
  Nb  Nb104  1  0.30283181  0.09811097  0.70141408  1
  Nb  Nb105  1  0.70696155  0.29521961  0.49740725  1
  Nb  Nb106  1  0.50560182  0.69398052  0.50340327  1
  Nb  Nb107  1  0.69880354  0.49865931  0.70440514  1
  Nb  Nb108  1  0.90396080  0.11126998  0.09216611  1
  Nb  Nb109  1  0.09836728  0.70150233  0.30024120  1
  Nb  Nb110  1  0.89452370  0.50025686  0.70652250  1
  Nb  Nb111  1  0.69412897  0.90392851  0.50245695  1
  Nb  Nb112  1  0.31067602  0.50063671  0.69804437  1
  Nb  Nb113  1  0.50869602  0.90048853  0.90075072  1
  Nb  Nb114  1  0.69559398  0.90156836  0.90580035  1
  Nb  Nb115  1  0.70286062  0.09833359  0.49695311  1
  Nb  Nb116  1  0.09899996  0.70201667  0.69539107  1
  Nb  Nb117  1  0.89763003  0.28877488  0.09672718  1
  Nb  Nb118  1  0.50208089  0.10279552  0.89530340  1
  Nb  Nb119  1  0.09529232  0.49654974  0.89363603  1
  Nb  Nb120  1  0.89957177  0.50401107  0.30043030  1
  Nb  Nb121  1  0.50310293  0.69987135  0.69666212  1
  Nb  Nb122  1  0.29025934  0.09798419  0.09552421  1
  Nb  Nb123  1  0.90291398  0.89784577  0.29526987  1
  Nb  Nb124  1  0.69671732  0.29699684  0.89195523  1
  Nb  Nb125  1  0.59773543  0.00018707  0.80739250  1
  Nb  Nb126  1  -0.00430114  0.60115608  0.39457728  1
  Nb  Nb127  1  -0.00566627  0.79183399  0.00190668  1
  Nb  Nb128  1  0.60211796  0.79331156  0.59434287  1
  Nb  Nb129  1  0.80241243  0.79785412  0.00036910  1
  Nb  Nb130  1  0.60297705  0.79992987  0.40777688  1
  Nb  Nb131  1  0.20273477  0.40417013  0.19910838  1
  Nb  Nb132  1  0.80524410  0.60498179  0.00146938  1
  Nb  Nb133  1  -0.00411359  0.20600638  0.40244642  1
  Nb  Nb134  1  0.60359200  0.19880820  0.40549088  1
  Nb  Nb135  1  0.59913095  0.59895730  0.79182637  1
  Nb  Nb136  1  0.19916454  0.79589181  0.20526766  1
  Nb  Nb137  1  0.19940505  0.19878962  0.00196053  1
  Nb  Nb138  1  0.40106855  0.40399230  0.79759004  1
  Nb  Nb139  1  0.79467630  -0.00036504  0.60033767  1
  Nb  Nb140  1  0.00287516  0.79590583  0.59489280  1
  Nb  Nb141  1  -0.00543325  0.00270107  0.19950598  1
  Nb  Nb142  1  -0.00222790  0.40450336  0.39815124  1
  Nb  Nb143  1  0.80032687  0.20067895  0.80329713  1
  Nb  Nb144  1  -0.00150497  0.79632131  0.39815025  1
  Nb  Nb145  1  0.60549452  0.20218623  0.59123465  1
  Nb  Nb146  1  -0.00258963  0.20193169  0.80121866  1
  Nb  Nb147  1  0.79427961  0.00526972  0.80185130  1
  Nb  Nb148  1  -0.00459050  0.60300772  0.20311723  1
  Nb  Nb149  1  0.40662565  -0.00027983  0.80189808  1
  Pd  Pd150  1  0.39564142  0.39803751  0.40012990  1
  Pd  Pd151  1  0.40222119  -0.00082873  -0.00583517  1
  Pd  Pd152  1  -0.00658380  -0.01076827  0.60419873  1
  Pd  Pd153  1  0.39473660  0.00284478  0.39499933  1
  Pd  Pd154  1  0.59661132  -0.00397573  0.39369189  1
  Pd  Pd155  1  0.39368961  0.38896281  0.60578491  1
  Pd  Pd156  1  0.40164309  0.60407135  -0.00277438  1
  Pd  Pd157  1  0.19709036  0.59583029  0.79031465  1
  Pd  Pd158  1  0.20985221  0.60272980  0.60779654  1
  Pd  Pd159  1  0.00472653  0.39461243  0.00336413  1
  Pd  Pd160  1  0.79253375  0.40688521  0.60009701  1
  Pd  Pd161  1  0.19465234  0.39274968  0.00858470  1
  Pd  Pd162  1  0.21049579  0.21198242  0.19062519  1
  Pd  Pd163  1  0.40791387  0.20029446  0.40655154  1
  Pd  Pd164  1  0.19814487  0.60221763  -0.00226803  1
  Pd  Pd165  1  0.80572971  0.01065332  0.19202202  1
  Pd  Pd166  1  0.60088525  0.20262941  0.01072601  1
  Pd  Pd167  1  0.40287728  0.79869797  0.00072730  1
  Pd  Pd168  1  0.20027429  -0.01031865  0.20321965  1
  Pd  Pd169  1  0.40833443  0.59682344  0.79990917  1
  Pd  Pd170  1  0.79948854  0.80784074  0.81002998  1
  Pd  Pd171  1  0.39439930  0.19929235  0.19202469  1
  Pd  Pd172  1  0.39636340  0.19724035  0.00632396  1
  Pd  Pd173  1  0.40806764  0.60080337  0.20252811  1
  Pd  Pd174  1  0.60668423  0.39566573  -0.00068081  1
  Pd  Pd175  1  -0.00173433  0.60156203  0.00332598  1
  Pd  Pd176  1  0.80188279  0.19564146  0.20269502  1
  Pd  Pd177  1  0.79680835  0.80663725  0.39725556  1
  Pd  Pd178  1  0.19575433  0.19484023  0.80583857  1
  Pd  Pd179  1  0.40604112  0.20825334  0.59353723  1
  Pd  Pd180  1  0.79883311  0.40308822  0.39822337  1
  Pd  Pd181  1  0.20316320  0.00135311  -0.00942266  1
  Pd  Pd182  1  -0.01341002  0.19364753  0.21478443  1
  Pd  Pd183  1  0.20825011  0.40999700  0.79019254  1
  Pd  Pd184  1  0.19692459  0.19655095  0.40669859  1
  Pd  Pd185  1  0.00586235  0.40401675  0.20572009  1
  Pd  Pd186  1  0.20926528  0.00538597  0.39861356  1
  Pd  Pd187  1  0.79304814  0.40005466  0.00224179  1
  Pd  Pd188  1  0.39286922  -0.00204832  0.19763189  1
  Pd  Pd189  1  0.40073155  0.40710667  -0.00806395  1
  Pd  Pd190  1  0.20173290  0.59901908  0.40281874  1
  Pd  Pd191  1  0.80084450  0.80686802  0.60295666  1
  Pd  Pd192  1  0.59229567  0.59722365  0.20481099  1
  Pd  Pd193  1  0.21329184  -0.00059911  0.80805906  1
  Pd  Pd194  1  0.00488032  0.79455452  0.80015248  1
  Pd  Pd195  1  -0.00098484  0.00154643  0.39266659  1
  Pd  Pd196  1  -0.00114534  -0.01259096  0.00768351  1
  Pd  Pd197  1  0.80077967  0.59603748  0.19144653  1
  Pd  Pd198  1  0.79290870  0.59048903  0.60020173  1
  Pd  Pd199  1  0.78717092  0.79771329  0.19245330  1
  Rh  Rh200  1  -0.00123704  0.40718868  0.59782880  1
  Rh  Rh201  1  0.19737939  0.79669054  0.39544541  1
  Rh  Rh202  1  0.00942300  0.20581439  0.60093151  1
  Rh  Rh203  1  0.39571772  0.40409899  0.20594599  1
  Rh  Rh204  1  0.79738195  0.20799982  0.39029422  1
  Rh  Rh205  1  0.59755012  0.79780862  0.79502847  1
  Rh  Rh206  1  0.19985106  0.40472926  0.39364312  1
  Rh  Rh207  1  0.39578960  0.60863129  0.59595358  1
  Rh  Rh208  1  0.58936334  0.00432233  0.00134551  1
  Rh  Rh209  1  0.19834713  0.19405006  0.59824902  1
  Rh  Rh210  1  -0.00311014  0.39784392  0.79237333  1
  Rh  Rh211  1  0.40416613  0.80428891  0.80193004  1
  Rh  Rh212  1  0.61052938  0.60442144  0.60559069  1
  Rh  Rh213  1  0.79193896  0.19775735  0.60945879  1
  Rh  Rh214  1  0.59841526  0.40461049  0.20047054  1
  Rh  Rh215  1  0.79632986  -0.00869648  0.40325331  1
  Rh  Rh216  1  0.80476074  0.39483170  0.79941747  1
  Rh  Rh217  1  0.20872593  0.40439265  0.60711565  1
  Rh  Rh218  1  0.40368313  0.60339828  0.40607481  1
  Rh  Rh219  1  0.00703990  0.59417722  0.79169504  1
  Rh  Rh220  1  0.20736195  -0.00057751  0.60054492  1
  Rh  Rh221  1  0.79825627  0.59339752  0.40154047  1
  Rh  Rh222  1  0.01032354  0.21172385  -0.00994673  1
  Rh  Rh223  1  0.79821393  0.40220015  0.19433377  1
  Rh  Rh224  1  0.39015434  0.79852710  0.19705003  1
  Rh  Rh225  1  0.19735526  0.79412463  0.79587159  1
  Rh  Rh226  1  0.39010490  -0.00495197  0.60691197  1
  Rh  Rh227  1  0.39574233  0.20166680  0.79941341  1
  Rh  Rh228  1  0.60884727  0.39524413  0.39901896  1
  Rh  Rh229  1  0.60005532  0.60239664  0.39624801  1
  Rh  Rh230  1  0.60610022  -0.00435183  0.60649111  1
  Rh  Rh231  1  0.60698082  0.19710545  0.79645194  1
  Rh  Rh232  1  0.79176111  0.21145052  -0.00275294  1
  Rh  Rh233  1  0.59835278  0.19988607  0.20333507  1
  Rh  Rh234  1  0.40796880  0.79390394  0.40399443  1
  Rh  Rh235  1  -0.00643217  0.00711427  0.79777430  1
  Rh  Rh236  1  0.79167275  0.59306909  0.80712245  1
  Rh  Rh237  1  0.19425633  0.79525355  0.00430101  1
  Rh  Rh238  1  -0.00311617  0.60172789  0.60018033  1
  Rh  Rh239  1  0.80479344  -0.00679247  0.00187580  1
  Rh  Rh240  1  0.19852510  0.60050632  0.19790914  1
  Rh  Rh241  1  0.59405698  0.00186558  0.19593662  1
  Rh  Rh242  1  0.61072938  0.39684732  0.59465297  1
  Rh  Rh243  1  0.40476444  0.79263516  0.59614313  1
  Rh  Rh244  1  0.59410789  0.40774971  0.80190150  1
  Rh  Rh245  1  0.60593391  0.60105045  -0.01001798  1
  Rh  Rh246  1  0.60209314  0.79891111  0.00399353  1
  Rh  Rh247  1  0.00742716  0.80234958  0.20340910  1
  Rh  Rh248  1  0.59907186  0.80113495  0.20884991  1
  Rh  Rh249  1  0.19800421  0.79544441  0.60323795  1
