# generated using pymatgen
data_ZrScNbPdRh
_symmetry_space_group_name_H-M   'P 1'
_cell_length_a   16.56337017
_cell_length_b   16.55500130
_cell_length_c   16.55959999
_cell_angle_alpha   90.02975270
_cell_angle_beta   89.96501906
_cell_angle_gamma   89.99882315
_symmetry_Int_Tables_number   1
_chemical_formula_structural   ZrScNbPdRh
_chemical_formula_sum   'Zr50 Sc50 Nb50 Pd50 Rh50'
_cell_volume   4540.75039299
_cell_formula_units_Z   50
loop_
 _symmetry_equiv_pos_site_id
 _symmetry_equiv_pos_as_xyz
  1  'x, y, z'
loop_
 _atom_site_type_symbol
 _atom_site_label
 _atom_site_symmetry_multiplicity
 _atom_site_fract_x
 _atom_site_fract_y
 _atom_site_fract_z
 _atom_site_occupancy
  Zr  Zr0  1  0.90019762  0.29945410  0.30427053  1
  Zr  Zr1  1  0.29711435  0.90104090  0.68720216  1
  Zr  Zr2  1  0.69849298  0.11066769  0.10234616  1
  Zr  Zr3  1  0.70026117  0.70530551  0.69678143  1
  Zr  Zr4  1  0.09749880  0.30772904  0.10767332  1
  Zr  Zr5  1  0.28501668  0.29974724  0.29416472  1
  Zr  Zr6  1  0.09706964  0.69775690  0.89894472  1
  Zr  Zr7  1  0.71043471  0.09807133  0.49667324  1
  Zr  Zr8  1  0.30263224  0.49075727  0.69241209  1
  Zr  Zr9  1  0.28754605  0.49942125  0.30434589  1
  Zr  Zr10  1  0.29915862  0.70280849  0.69396438  1
  Zr  Zr11  1  0.89364621  0.29515614  0.49972798  1
  Zr  Zr12  1  0.89922067  0.70014890  0.49940346  1
  Zr  Zr13  1  0.09891870  0.89661762  0.10085716  1
  Zr  Zr14  1  0.09023840  0.89787385  0.89819609  1
  Zr  Zr15  1  0.69645554  0.90248647  0.09921123  1
  Zr  Zr16  1  0.89595590  0.10065541  0.10203486  1
  Zr  Zr17  1  0.09642861  0.90850841  0.69678544  1
  Zr  Zr18  1  0.49969708  0.29555903  0.50278630  1
  Zr  Zr19  1  0.71174586  0.49711126  0.10401194  1
  Zr  Zr20  1  0.89231219  0.49644236  0.50143560  1
  Zr  Zr21  1  0.69216774  0.09745674  0.29888447  1
  Zr  Zr22  1  0.30273121  0.29858615  0.69822997  1
  Zr  Zr23  1  0.49445987  0.50444946  0.49651737  1
  Zr  Zr24  1  0.50370674  0.49520709  0.90602950  1
  Zr  Zr25  1  0.49834915  0.70686797  0.48870973  1
  Zr  Zr26  1  0.50781531  0.30453390  0.90198217  1
  Zr  Zr27  1  0.09962918  0.09455338  0.89297019  1
  Zr  Zr28  1  0.29539010  0.30185501  0.51426595  1
  Zr  Zr29  1  0.50668962  0.10825093  0.50111887  1
  Zr  Zr30  1  0.50519861  0.90455614  0.69905004  1
  Zr  Zr31  1  0.70069043  0.90397921  0.30731252  1
  Zr  Zr32  1  0.70589906  0.69597892  0.09628158  1
  Zr  Zr33  1  0.29132572  0.10663644  0.90263719  1
  Zr  Zr34  1  0.10516592  0.50363682  0.48572493  1
  Zr  Zr35  1  0.89650213  0.08686996  0.30860806  1
  Zr  Zr36  1  0.89907918  0.09664183  0.68880815  1
  Zr  Zr37  1  0.28330247  0.10148425  0.69960718  1
  Zr  Zr38  1  0.50906359  0.50088780  0.70533598  1
  Zr  Zr39  1  0.90120246  0.90588707  0.09531247  1
  Zr  Zr40  1  0.09151229  0.70463365  0.49763438  1
  Zr  Zr41  1  0.49092963  0.69134519  0.10710234  1
  Zr  Zr42  1  0.28784280  0.29983637  0.09553427  1
  Zr  Zr43  1  0.09112036  0.09551154  0.50580942  1
  Zr  Zr44  1  0.69921322  0.49570163  0.30638317  1
  Zr  Zr45  1  0.49816552  0.90321735  0.90548862  1
  Zr  Zr46  1  0.09561081  0.50039079  0.29173824  1
  Zr  Zr47  1  0.09993705  0.09273551  0.29915285  1
  Zr  Zr48  1  0.90041903  0.69932593  0.89990777  1
  Zr  Zr49  1  0.69660069  0.90256417  0.89763649  1
  Sc  Sc50  1  0.70476257  0.90334765  0.69178831  1
  Sc  Sc51  1  0.69792907  0.10648483  0.89380598  1
  Sc  Sc52  1  0.49567125  0.89641491  0.49997294  1
  Sc  Sc53  1  0.69941591  0.69254884  0.31158373  1
  Sc  Sc54  1  0.49554095  0.90128133  0.09897726  1
  Sc  Sc55  1  0.09360311  0.30335332  0.49780488  1
  Sc  Sc56  1  0.50219747  0.51052853  0.29681906  1
  Sc  Sc57  1  0.10043089  0.09794546  0.09902096  1
  Sc  Sc58  1  0.50480179  0.09418423  0.29907764  1
  Sc  Sc59  1  0.70437473  0.50213285  0.70724735  1
  Sc  Sc60  1  0.10752824  0.30222237  0.68972364  1
  Sc  Sc61  1  0.50312661  0.09498724  0.10585478  1
  Sc  Sc62  1  0.10766293  0.50388182  0.89768980  1
  Sc  Sc63  1  0.70467176  0.69624037  0.89730174  1
  Sc  Sc64  1  0.89342700  0.31009309  0.89655597  1
  Sc  Sc65  1  0.10933066  0.70028973  0.10142610  1
  Sc  Sc66  1  0.90209543  0.30705736  0.69829236  1
  Sc  Sc67  1  0.30347756  0.89455771  0.10676232  1
  Sc  Sc68  1  0.11518310  0.30128459  0.91046657  1
  Sc  Sc69  1  0.90466862  0.49754390  0.70842394  1
  Sc  Sc70  1  0.50851828  0.10511323  0.69643258  1
  Sc  Sc71  1  0.69980991  0.09688094  0.70108192  1
  Sc  Sc72  1  0.29658616  0.09542017  0.10686025  1
  Sc  Sc73  1  0.90217508  0.69894024  0.69981389  1
  Sc  Sc74  1  0.09918437  0.50184036  0.70281395  1
  Sc  Sc75  1  0.10116208  0.69403851  0.30022239  1
  Sc  Sc76  1  0.69777615  0.30175562  0.29421375  1
  Sc  Sc77  1  0.50990810  0.10145110  0.90146353  1
  Sc  Sc78  1  0.09202023  0.70086652  0.69810213  1
  Sc  Sc79  1  0.90147287  0.89347285  0.49325543  1
  Sc  Sc80  1  0.30561132  0.70571609  0.29343519  1
  Sc  Sc81  1  0.50303883  0.29686902  0.69561913  1
  Sc  Sc82  1  0.29200047  0.68607583  0.91408925  1
  Sc  Sc83  1  0.10030706  0.31060114  0.29802711  1
  Sc  Sc84  1  0.70186416  0.49379124  0.89535867  1
  Sc  Sc85  1  0.51497699  0.30403003  0.09897091  1
  Sc  Sc86  1  0.51276439  0.29647933  0.30006046  1
  Sc  Sc87  1  0.50262842  0.69917490  0.69643391  1
  Sc  Sc88  1  0.50001799  0.49629871  0.10304644  1
  Sc  Sc89  1  0.09840335  0.90201238  0.30134308  1
  Sc  Sc90  1  0.90188970  0.89740885  0.89810326  1
  Sc  Sc91  1  0.50227730  0.69649632  0.90382055  1
  Sc  Sc92  1  0.30009596  0.08935382  0.50526311  1
  Sc  Sc93  1  0.49763545  0.90235581  0.30477377  1
  Sc  Sc94  1  0.89895919  0.09053203  0.90024573  1
  Sc  Sc95  1  0.69754603  0.30044597  0.90447950  1
  Sc  Sc96  1  0.70382306  0.29887523  0.71160730  1
  Sc  Sc97  1  0.90161582  0.50913127  0.29134803  1
  Sc  Sc98  1  0.30505048  0.50980867  0.08997195  1
  Sc  Sc99  1  0.30116895  0.70123678  0.10437410  1
  Nb  Nb100  1  0.90580097  0.70414168  0.30037290  1
  Nb  Nb101  1  0.10768698  0.89521656  0.50274818  1
  Nb  Nb102  1  0.30230859  0.50115397  0.49998613  1
  Nb  Nb103  1  0.29763941  0.09691826  0.30200456  1
  Nb  Nb104  1  0.30055668  0.90260748  0.89725829  1
  Nb  Nb105  1  0.30876667  0.49272729  0.89705073  1
  Nb  Nb106  1  0.89187477  0.68616176  0.10584156  1
  Nb  Nb107  1  0.90145143  0.49876506  0.09677682  1
  Nb  Nb108  1  0.69772486  0.88057959  0.50257687  1
  Nb  Nb109  1  0.29775430  0.91175115  0.30995914  1
  Nb  Nb110  1  0.30725493  0.30716376  0.90445237  1
  Nb  Nb111  1  0.70581087  0.30129521  0.09982663  1
  Nb  Nb112  1  0.90247996  0.89400189  0.70126707  1
  Nb  Nb113  1  0.89982064  0.89537932  0.29578351  1
  Nb  Nb114  1  0.50180256  0.70248907  0.29809890  1
  Nb  Nb115  1  0.69982420  0.70134630  0.50364755  1
  Nb  Nb116  1  0.89744549  0.10657265  0.49409488  1
  Nb  Nb117  1  0.08701311  0.49904104  0.10470992  1
  Nb  Nb118  1  0.89588713  0.30372967  0.09803183  1
  Nb  Nb119  1  0.29908320  0.89364496  0.50091704  1
  Nb  Nb120  1  0.30569414  0.70897954  0.50390830  1
  Nb  Nb121  1  0.90160935  0.50043399  0.90288509  1
  Nb  Nb122  1  0.70196028  0.31077341  0.48988040  1
  Nb  Nb123  1  0.70073085  0.50224829  0.49540246  1
  Nb  Nb124  1  0.09564032  0.09809401  0.70342328  1
  Nb  Nb125  1  0.39487190  0.00280841  0.80131448  1
  Nb  Nb126  1  0.20169446  0.19327142  0.40024005  1
  Nb  Nb127  1  0.39841007  0.20542554  0.00167010  1
  Nb  Nb128  1  -0.00636799  0.20107171  0.19731587  1
  Nb  Nb129  1  -0.00416297  0.20487308  0.00092928  1
  Nb  Nb130  1  0.39610793  0.80051622  0.80299380  1
  Nb  Nb131  1  0.39569190  0.39446048  0.20487429  1
  Nb  Nb132  1  0.39582197  0.19973685  0.80653493  1
  Nb  Nb133  1  0.60455259  0.59616445  0.00357028  1
  Nb  Nb134  1  0.20595929  0.60193838  0.59030720  1
  Nb  Nb135  1  0.39131526  0.20156538  0.39460141  1
  Nb  Nb136  1  0.60203108  0.79493488  0.20314289  1
  Nb  Nb137  1  0.59659531  0.80459796  0.80157686  1
  Nb  Nb138  1  0.80205937  0.79691643  0.20222211  1
  Nb  Nb139  1  0.20024500  -0.00689729  -0.00654072  1
  Nb  Nb140  1  0.60709659  0.59878582  0.59004128  1
  Nb  Nb141  1  0.20576724  0.80571851  0.40547289  1
  Nb  Nb142  1  -0.00533267  0.59481721  0.00557084  1
  Nb  Nb143  1  0.39430583  0.39518174  0.39716030  1
  Nb  Nb144  1  0.39668013  0.20361895  0.20271004  1
  Nb  Nb145  1  0.00461538  0.19815693  0.80017263  1
  Nb  Nb146  1  0.20378944  0.80292996  0.80082180  1
  Nb  Nb147  1  -0.00905198  0.79685203  0.20053265  1
  Nb  Nb148  1  0.39558171  0.59668101  0.80260999  1
  Nb  Nb149  1  0.60903774  0.40447488  0.59162236  1
  Pd  Pd150  1  0.80503072  -0.00886048  0.59063554  1
  Pd  Pd151  1  0.00038260  0.20452939  0.60636699  1
  Pd  Pd152  1  0.59712986  0.78999349  0.00274536  1
  Pd  Pd153  1  0.79355963  0.39957909  0.60638183  1
  Pd  Pd154  1  0.39472521  0.79253723  -0.00351277  1
  Pd  Pd155  1  0.59053557  0.40163195  0.40032723  1
  Pd  Pd156  1  0.40492197  0.00621837  0.40464044  1
  Pd  Pd157  1  0.60658929  -0.00221174  0.59025752  1
  Pd  Pd158  1  0.61872939  0.20907794  0.59917370  1
  Pd  Pd159  1  0.80197108  -0.00064937  0.79748644  1
  Pd  Pd160  1  0.40424174  0.80899322  0.20704162  1
  Pd  Pd161  1  0.19947476  0.41522325  0.00363484  1
  Pd  Pd162  1  0.60672455  0.60167101  0.19746739  1
  Pd  Pd163  1  -0.00045425  -0.00943078  0.40601878  1
  Pd  Pd164  1  0.80557234  0.40044637  0.20608081  1
  Pd  Pd165  1  0.01070675  0.39203632  0.80760679  1
  Pd  Pd166  1  0.39290642  0.60093360  0.39140380  1
  Pd  Pd167  1  0.79185821  0.00436591  -0.00517519  1
  Pd  Pd168  1  0.39328458  0.01119270  -0.00054265  1
  Pd  Pd169  1  0.19699564  0.21337923  0.79978374  1
  Pd  Pd170  1  0.40381999  0.00689258  0.60445731  1
  Pd  Pd171  1  0.00257726  0.40609823  0.59691778  1
  Pd  Pd172  1  0.00884141  0.20041133  0.39246520  1
  Pd  Pd173  1  0.20334250  0.59868492  0.19361886  1
  Pd  Pd174  1  0.00480619  0.59193148  0.59812239  1
  Pd  Pd175  1  0.40356795  0.60205868  0.60437952  1
  Pd  Pd176  1  0.80294523  0.19957203  0.20890597  1
  Pd  Pd177  1  0.40782363  0.39691195  0.79526802  1
  Pd  Pd178  1  0.60337274  0.00892952  0.00274451  1
  Pd  Pd179  1  0.79638068  -0.00329797  0.19999120  1
  Pd  Pd180  1  -0.00706516  0.40738924  0.39778934  1
  Pd  Pd181  1  -0.01034012  -0.00759306  0.59154573  1
  Pd  Pd182  1  0.19760439  0.39676929  0.79860132  1
  Pd  Pd183  1  0.20599428  0.80364602  -0.00495990  1
  Pd  Pd184  1  0.79872258  0.79765060  0.39599954  1
  Pd  Pd185  1  0.00203385  0.39973417  -0.00866326  1
  Pd  Pd186  1  0.80383769  0.80201149  0.00204363  1
  Pd  Pd187  1  0.81135126  0.19828915  0.80025689  1
  Pd  Pd188  1  0.79022363  0.20238491  0.39107627  1
  Pd  Pd189  1  0.79531885  0.80417495  0.79674566  1
  Pd  Pd190  1  0.79386004  0.20661427  0.60299717  1
  Pd  Pd191  1  0.80643892  0.60085897  0.39671862  1
  Pd  Pd192  1  0.20150017  -0.00730127  0.19363992  1
  Pd  Pd193  1  0.20687069  0.60315551  0.79140549  1
  Pd  Pd194  1  0.59929318  -0.00538896  0.41146832  1
  Pd  Pd195  1  -0.00667091  0.78642330  0.01180546  1
  Pd  Pd196  1  0.80496230  0.20337936  -0.00982055  1
  Pd  Pd197  1  0.20981447  0.61633497  0.40414362  1
  Pd  Pd198  1  0.80396290  0.59865035  0.79849561  1
  Pd  Pd199  1  0.79836368  0.59838527  0.60593504  1
  Rh  Rh200  1  0.41078866  0.80214197  0.60341002  1
  Rh  Rh201  1  0.61326847  0.40717181  0.00750210  1
  Rh  Rh202  1  0.39969829  0.39314265  0.01259443  1
  Rh  Rh203  1  -0.00477470  0.80497600  0.60215309  1
  Rh  Rh204  1  0.00981311  0.80307817  0.39178283  1
  Rh  Rh205  1  0.19563498  0.19274223  0.00644670  1
  Rh  Rh206  1  0.59679047  -0.01014236  0.19733057  1
  Rh  Rh207  1  0.18911033  0.41374703  0.59528542  1
  Rh  Rh208  1  -0.01118958  0.39461546  0.20175423  1
  Rh  Rh209  1  0.60413076  0.19903516  0.40002710  1
  Rh  Rh210  1  0.19477059  0.00277920  0.59366635  1
  Rh  Rh211  1  0.59968850  0.40214700  0.19860772  1
  Rh  Rh212  1  0.19107859  0.19298139  0.59155198  1
  Rh  Rh213  1  0.39491354  0.19067559  0.60596736  1
  Rh  Rh214  1  0.19152965  0.79206381  0.59900518  1
  Rh  Rh215  1  0.59582928  0.79556939  0.60306344  1
  Rh  Rh216  1  0.79606591  0.60311195  0.21168312  1
  Rh  Rh217  1  -0.00233924  -0.00066817  0.19781755  1
  Rh  Rh218  1  0.39459317  0.59176221  0.20608324  1
  Rh  Rh219  1  0.00376361  0.60892950  0.19340511  1
  Rh  Rh220  1  -0.01299318  0.00331666  0.79377931  1
  Rh  Rh221  1  0.80558055  0.40226719  0.39370331  1
  Rh  Rh222  1  0.39339512  0.80362555  0.39233277  1
  Rh  Rh223  1  0.39957002  0.00230368  0.20545348  1
  Rh  Rh224  1  0.59490187  0.20054902  0.79936641  1
  Rh  Rh225  1  0.59602983  0.61013215  0.80225149  1
  Rh  Rh226  1  0.80788199  0.80084999  0.59979734  1
  Rh  Rh227  1  0.60241440  0.39462797  0.79247580  1
  Rh  Rh228  1  0.59902457  0.20008305  0.00458479  1
  Rh  Rh229  1  -0.00313922  0.59775471  0.80798455  1
  Rh  Rh230  1  0.40861870  0.59946808  -0.00586090  1
  Rh  Rh231  1  0.18869160  0.59429774  0.00657382  1
  Rh  Rh232  1  0.20601950  0.41797161  0.18586412  1
  Rh  Rh233  1  0.19269603  0.19054140  0.20584017  1
  Rh  Rh234  1  0.60068643  0.79932241  0.39413476  1
  Rh  Rh235  1  0.41177606  0.40062082  0.59495375  1
  Rh  Rh236  1  0.80154651  0.40287308  0.80179303  1
  Rh  Rh237  1  0.20164824  -0.00997806  0.80161876  1
  Rh  Rh238  1  0.20423862  0.39001019  0.41042122  1
  Rh  Rh239  1  0.00335875  0.79968769  0.79255487  1
  Rh  Rh240  1  0.59915572  0.60396750  0.40517778  1
  Rh  Rh241  1  0.80055977  0.59034532  -0.00841523  1
  Rh  Rh242  1  0.00684218  0.00684768  0.00178956  1
  Rh  Rh243  1  0.19783077  -0.00087355  0.40894000  1
  Rh  Rh244  1  0.80003206  -0.00892438  0.40908051  1
  Rh  Rh245  1  -0.00786828  0.59683834  0.40026622  1
  Rh  Rh246  1  0.59683135  0.20092053  0.19662686  1
  Rh  Rh247  1  0.79824000  0.40070030  -0.00117665  1
  Rh  Rh248  1  0.59816319  -0.00339598  0.80012663  1
  Rh  Rh249  1  0.19577627  0.80540100  0.21430583  1
