# generated using pymatgen
data_ZrScNbPdRh
_symmetry_space_group_name_H-M   'P 1'
_cell_length_a   16.55593267
_cell_length_b   16.55386082
_cell_length_c   16.55419722
_cell_angle_alpha   89.98524954
_cell_angle_beta   89.98989119
_cell_angle_gamma   89.98357445
_symmetry_Int_Tables_number   1
_chemical_formula_structural   ZrScNbPdRh
_chemical_formula_sum   'Zr50 Sc50 Nb50 Pd50 Rh50'
_cell_volume   4536.91911896
_cell_formula_units_Z   50
loop_
 _symmetry_equiv_pos_site_id
 _symmetry_equiv_pos_as_xyz
  1  'x, y, z'
loop_
 _atom_site_type_symbol
 _atom_site_label
 _atom_site_symmetry_multiplicity
 _atom_site_fract_x
 _atom_site_fract_y
 _atom_site_fract_z
 _atom_site_occupancy
  Zr  Zr0  1  0.49835673  0.90424191  0.50683402  1
  Zr  Zr1  1  0.90186203  0.30412579  0.29435678  1
  Zr  Zr2  1  0.10176802  0.89836392  0.90220142  1
  Zr  Zr3  1  0.89601110  0.89642192  0.09955400  1
  Zr  Zr4  1  0.49783638  0.90624762  0.29704152  1
  Zr  Zr5  1  0.69594808  0.30856238  0.29356081  1
  Zr  Zr6  1  0.10412050  0.29206103  0.29643816  1
  Zr  Zr7  1  0.49927686  0.49904245  0.89361451  1
  Zr  Zr8  1  0.90478982  0.30204516  0.49990346  1
  Zr  Zr9  1  0.09966610  0.10276316  0.10631890  1
  Zr  Zr10  1  0.89985947  0.90496020  0.90971471  1
  Zr  Zr11  1  0.51066476  0.69759699  0.89559931  1
  Zr  Zr12  1  0.49821253  0.70376714  0.29777793  1
  Zr  Zr13  1  0.50327618  0.09991960  0.49374205  1
  Zr  Zr14  1  0.29826647  0.29426436  0.49545323  1
  Zr  Zr15  1  0.48985479  0.09974320  0.10810938  1
  Zr  Zr16  1  0.89425118  0.89748913  0.30135929  1
  Zr  Zr17  1  0.68892609  0.09532299  0.30547168  1
  Zr  Zr18  1  0.70461764  0.69093618  0.69887718  1
  Zr  Zr19  1  0.09810731  0.50422956  0.29029457  1
  Zr  Zr20  1  0.29694487  0.50008386  0.29703453  1
  Zr  Zr21  1  0.70090610  0.29847920  0.70456944  1
  Zr  Zr22  1  0.30431214  0.51310224  0.49690607  1
  Zr  Zr23  1  0.49691259  0.49427490  0.09901067  1
  Zr  Zr24  1  0.49162836  0.10026869  0.90103259  1
  Zr  Zr25  1  0.70023243  0.09601727  0.70372694  1
  Zr  Zr26  1  0.11037376  0.69715345  0.90221934  1
  Zr  Zr27  1  0.09767401  0.29690004  0.70043748  1
  Zr  Zr28  1  0.69448988  0.10486083  0.09786600  1
  Zr  Zr29  1  0.30551845  0.69753076  0.89757029  1
  Zr  Zr30  1  0.89505802  0.30638412  0.09696027  1
  Zr  Zr31  1  0.49862612  0.90496580  0.10667981  1
  Zr  Zr32  1  0.70045921  0.71597177  0.09284502  1
  Zr  Zr33  1  0.10584389  0.30869701  0.89992069  1
  Zr  Zr34  1  0.89856549  0.70817999  0.10787064  1
  Zr  Zr35  1  0.69717463  0.09556415  0.49710454  1
  Zr  Zr36  1  0.29514016  0.69188083  0.31027987  1
  Zr  Zr37  1  0.10155353  0.49829020  0.71315920  1
  Zr  Zr38  1  0.10286027  0.29592313  0.50085961  1
  Zr  Zr39  1  0.09184825  0.70581133  0.71384789  1
  Zr  Zr40  1  0.49593148  0.69564090  0.50387800  1
  Zr  Zr41  1  0.70271904  0.29222455  0.90188637  1
  Zr  Zr42  1  0.10052640  0.90023076  0.50079459  1
  Zr  Zr43  1  0.10204329  0.09806281  0.70584031  1
  Zr  Zr44  1  0.09759359  0.49856867  0.09594606  1
  Zr  Zr45  1  0.49365849  0.30096802  0.10121020  1
  Zr  Zr46  1  0.09807617  0.70198342  0.10189251  1
  Zr  Zr47  1  0.09437481  0.09773181  0.90411476  1
  Zr  Zr48  1  0.10467972  0.70714640  0.49334380  1
  Zr  Zr49  1  0.89883014  0.49980265  0.29754767  1
  Sc  Sc50  1  0.90547599  0.09578042  0.28694156  1
  Sc  Sc51  1  0.89882879  0.70445802  0.30840906  1
  Sc  Sc52  1  0.30647482  0.09691884  0.70736586  1
  Sc  Sc53  1  0.89655920  0.50736896  0.69759037  1
  Sc  Sc54  1  0.30437851  0.48449837  0.09932316  1
  Sc  Sc55  1  0.29581753  0.70298561  0.50071895  1
  Sc  Sc56  1  0.49731266  0.29406996  0.30059251  1
  Sc  Sc57  1  0.89742912  0.29354240  0.90022957  1
  Sc  Sc58  1  0.29862706  0.90149554  0.90334698  1
  Sc  Sc59  1  0.10146937  0.29862639  0.09668059  1
  Sc  Sc60  1  0.49754654  0.89963028  0.89419415  1
  Sc  Sc61  1  0.29364214  0.90083750  0.50283785  1
  Sc  Sc62  1  0.30504184  0.29825292  0.90598251  1
  Sc  Sc63  1  0.29457486  0.29687784  0.29905405  1
  Sc  Sc64  1  0.90650650  0.49945409  0.90399561  1
  Sc  Sc65  1  0.49621896  0.08834572  0.70293689  1
  Sc  Sc66  1  0.70080366  0.89176515  0.90674834  1
  Sc  Sc67  1  0.29982800  0.09451719  0.90584419  1
  Sc  Sc68  1  0.49029786  0.50067777  0.28934667  1
  Sc  Sc69  1  0.30139406  0.90553520  0.09651693  1
  Sc  Sc70  1  0.29686115  0.71003879  0.09574894  1
  Sc  Sc71  1  0.90548736  0.49663002  0.10268117  1
  Sc  Sc72  1  0.49492557  0.29349862  0.50266207  1
  Sc  Sc73  1  0.30723057  0.10109787  0.49940335  1
  Sc  Sc74  1  0.69730364  0.89477532  0.30444709  1
  Sc  Sc75  1  0.70630810  0.10538169  0.90109133  1
  Sc  Sc76  1  0.30752697  0.50076046  0.70744383  1
  Sc  Sc77  1  0.09301475  0.49815379  0.49113915  1
  Sc  Sc78  1  0.30853430  0.29747644  0.70327973  1
  Sc  Sc79  1  0.90139332  0.08634704  0.49670967  1
  Sc  Sc80  1  0.49255762  0.09983865  0.30123091  1
  Sc  Sc81  1  0.89311894  0.50281605  0.49596547  1
  Sc  Sc82  1  0.29280417  0.49523898  0.89768981  1
  Sc  Sc83  1  0.49954607  0.70245799  0.70172029  1
  Sc  Sc84  1  0.10258601  0.90490832  0.70030982  1
  Sc  Sc85  1  0.70082476  0.48601994  0.10338816  1
  Sc  Sc86  1  0.10846961  0.09937969  0.50859737  1
  Sc  Sc87  1  0.70549236  0.69892961  0.50290813  1
  Sc  Sc88  1  0.10148615  0.70149298  0.29405423  1
  Sc  Sc89  1  0.91108629  0.69991510  0.89180804  1
  Sc  Sc90  1  0.50535682  0.89952054  0.70028225  1
  Sc  Sc91  1  0.70065726  0.30432165  0.49975758  1
  Sc  Sc92  1  0.90407972  0.29891125  0.70334846  1
  Sc  Sc93  1  0.29994228  0.70093872  0.70692541  1
  Sc  Sc94  1  0.69923378  0.90184983  0.49409685  1
  Sc  Sc95  1  0.10088031  0.50290211  0.90275161  1
  Sc  Sc96  1  0.90638074  0.09757845  0.08948797  1
  Sc  Sc97  1  0.91324309  0.10200202  0.70561793  1
  Sc  Sc98  1  0.29237416  0.90653563  0.29921673  1
  Sc  Sc99  1  0.49891155  0.70674951  0.10006834  1
  Nb  Nb100  1  0.90384172  0.89130675  0.69297049  1
  Nb  Nb101  1  0.90173868  0.89282284  0.49930295  1
  Nb  Nb102  1  0.70620788  0.90363043  0.09594371  1
  Nb  Nb103  1  0.90132344  0.70608242  0.69367037  1
  Nb  Nb104  1  0.50116170  0.30136876  0.70824873  1
  Nb  Nb105  1  0.50144550  0.29958707  0.89451172  1
  Nb  Nb106  1  0.29103167  0.10678591  0.29513214  1
  Nb  Nb107  1  0.69947334  0.69882448  0.30152062  1
  Nb  Nb108  1  0.30604944  0.90694969  0.70130627  1
  Nb  Nb109  1  0.69907221  0.90058259  0.70301881  1
  Nb  Nb110  1  0.30317252  0.11095698  0.09552064  1
  Nb  Nb111  1  0.90424062  0.71190365  0.50846704  1
  Nb  Nb112  1  0.50368974  0.49273508  0.69025514  1
  Nb  Nb113  1  0.89925337  0.09720927  0.89924954  1
  Nb  Nb114  1  0.69894567  0.29973608  0.09716106  1
  Nb  Nb115  1  0.69971080  0.49992381  0.69036665  1
  Nb  Nb116  1  0.69780245  0.69471860  0.89601837  1
  Nb  Nb117  1  0.70023608  0.50248153  0.30388380  1
  Nb  Nb118  1  0.09520265  0.89676530  0.10596904  1
  Nb  Nb119  1  0.69631893  0.50967493  0.89501737  1
  Nb  Nb120  1  0.09984824  0.90838586  0.29225326  1
  Nb  Nb121  1  0.69459227  0.50355392  0.50889399  1
  Nb  Nb122  1  0.09955304  0.09857551  0.29321916  1
  Nb  Nb123  1  0.30318032  0.29185422  0.09457437  1
  Nb  Nb124  1  0.49927272  0.50251291  0.50604189  1
  Nb  Nb125  1  0.00149969  0.19262144  0.39534953  1
  Nb  Nb126  1  0.80416231  0.19832637  0.39595468  1
  Nb  Nb127  1  0.40190965  0.40588490  0.40427207  1
  Nb  Nb128  1  0.20107982  0.40393727  0.59979292  1
  Nb  Nb129  1  0.78930506  0.41061937  0.80070860  1
  Nb  Nb130  1  0.59509587  0.41205796  0.40398613  1
  Nb  Nb131  1  0.40409863  0.59928419  -0.00489515  1
  Nb  Nb132  1  0.80531917  -0.00697374  0.79661630  1
  Nb  Nb133  1  0.80400431  -0.00650097  0.60709905  1
  Nb  Nb134  1  0.60091372  0.19956563  0.60660225  1
  Nb  Nb135  1  0.79375005  0.00062257  0.19444878  1
  Nb  Nb136  1  0.79512130  0.19964482  0.19816470  1
  Nb  Nb137  1  0.19141959  0.59738724  0.60447992  1
  Nb  Nb138  1  0.60119431  0.59404745  0.39920691  1
  Nb  Nb139  1  0.40079403  0.80102423  0.40027118  1
  Nb  Nb140  1  0.80127965  0.80006177  0.79355791  1
  Nb  Nb141  1  0.60147335  0.39407550  -0.00828372  1
  Nb  Nb142  1  0.59914236  0.00110401  0.00603068  1
  Nb  Nb143  1  0.79290925  0.60311384  -0.00052761  1
  Nb  Nb144  1  0.00072439  0.61025922  0.59957133  1
  Nb  Nb145  1  0.79162814  0.60311421  0.20038722  1
  Nb  Nb146  1  0.00729961  -0.00202572  0.39311586  1
  Nb  Nb147  1  0.79895494  0.19312295  0.59703653  1
  Nb  Nb148  1  0.60848076  0.60171790  0.20301730  1
  Nb  Nb149  1  0.19677798  0.19733326  0.80395431  1
  Pd  Pd150  1  0.78966909  0.80611297  0.59882718  1
  Pd  Pd151  1  0.59121221  0.80999131  -0.00276936  1
  Pd  Pd152  1  0.38689888  0.80140110  0.20767621  1
  Pd  Pd153  1  0.00202805  0.41285783  0.60196727  1
  Pd  Pd154  1  0.39520328  0.60348899  0.61198569  1
  Pd  Pd155  1  0.59520931  0.79537245  0.40651517  1
  Pd  Pd156  1  0.58977550  0.19927444  0.00039161  1
  Pd  Pd157  1  0.00179377  0.79604316  -0.00247578  1
  Pd  Pd158  1  0.20942232  0.00351043  0.60475050  1
  Pd  Pd159  1  0.59215256  0.19180951  0.79595473  1
  Pd  Pd160  1  0.60253494  0.59212292  0.01201714  1
  Pd  Pd161  1  0.60749951  -0.00237416  0.81509374  1
  Pd  Pd162  1  -0.00112977  0.60602183  0.40234114  1
  Pd  Pd163  1  0.79447703  0.40908942  -0.00988308  1
  Pd  Pd164  1  0.19650836  0.00024532  0.00759835  1
  Pd  Pd165  1  0.59569539  0.38955770  0.59550042  1
  Pd  Pd166  1  -0.00697458  0.18985631  0.59085511  1
  Pd  Pd167  1  0.40602556  0.79856314  -0.00483272  1
  Pd  Pd168  1  0.60523140  0.80252950  0.20043494  1
  Pd  Pd169  1  0.39662139  0.60613432  0.18693366  1
  Pd  Pd170  1  0.19749060  0.00695868  0.40149198  1
  Pd  Pd171  1  -0.01170454  0.40016763  0.80344455  1
  Pd  Pd172  1  0.00600305  0.80562283  0.39140917  1
  Pd  Pd173  1  0.39277704  0.80164329  0.59888645  1
  Pd  Pd174  1  -0.00801658  0.60421577  0.00304977  1
  Pd  Pd175  1  0.39614711  0.39819608  0.80273686  1
  Pd  Pd176  1  0.20412051  0.80146406  0.20174699  1
  Pd  Pd177  1  0.39225271  -0.00318258  0.39826595  1
  Pd  Pd178  1  0.39437527  0.39728741  0.59560453  1
  Pd  Pd179  1  0.79906775  0.60589449  0.40409340  1
  Pd  Pd180  1  0.20043118  0.79589956  0.61120000  1
  Pd  Pd181  1  0.20934526  0.20236557  0.61141944  1
  Pd  Pd182  1  0.79395269  0.39877560  0.40276622  1
  Pd  Pd183  1  0.21222934  0.59449147  0.00675677  1
  Pd  Pd184  1  0.80525574  0.39610526  0.60609996  1
  Pd  Pd185  1  0.20677940  0.00346500  0.18966838  1
  Pd  Pd186  1  0.59381569  0.59559336  0.78446388  1
  Pd  Pd187  1  0.80869298  0.60070178  0.80403252  1
  Pd  Pd188  1  0.00460563  0.39500451  0.39489155  1
  Pd  Pd189  1  -0.00101993  0.20588874  -0.00138313  1
  Pd  Pd190  1  0.20891409  0.59992180  0.18739025  1
  Pd  Pd191  1  0.60559626  0.79763521  0.60012179  1
  Pd  Pd192  1  -0.00408254  -0.00839819  0.79868515  1
  Pd  Pd193  1  0.20345574  0.40662153  0.40411241  1
  Pd  Pd194  1  0.60547129  0.40396483  0.80195212  1
  Pd  Pd195  1  0.59870440  0.20208967  0.20255537  1
  Pd  Pd196  1  0.20029081  0.39284247  0.19262798  1
  Pd  Pd197  1  0.20709537  0.80850995  0.79805594  1
  Pd  Pd198  1  0.40842069  0.19474181  0.60780245  1
  Pd  Pd199  1  0.40067707  0.80478008  0.79838237  1
  Rh  Rh200  1  0.00239224  0.39716359  -0.00110624  1
  Rh  Rh201  1  0.39764286  0.19907259  0.80338570  1
  Rh  Rh202  1  0.38716289  0.00703460  0.20296961  1
  Rh  Rh203  1  0.59677777  0.60334832  0.60080295  1
  Rh  Rh204  1  0.20722143  0.38772613  0.79290441  1
  Rh  Rh205  1  -0.00635418  0.20487301  0.19883382  1
  Rh  Rh206  1  0.40589992  0.40074348  -0.00832671  1
  Rh  Rh207  1  0.39194224  0.20060014  0.20517416  1
  Rh  Rh208  1  0.20432496  0.80459260  0.39090512  1
  Rh  Rh209  1  0.40259602  0.20271114  -0.00403720  1
  Rh  Rh210  1  0.00730555  -0.00302227  0.00715047  1
  Rh  Rh211  1  0.20062460  0.19935759  -0.00419813  1
  Rh  Rh212  1  0.59205971  -0.00725767  0.39959165  1
  Rh  Rh213  1  0.59605897  0.40280945  0.19954264  1
  Rh  Rh214  1  0.00517324  0.20361167  0.80949336  1
  Rh  Rh215  1  0.79719624  0.79649835  0.40538314  1
  Rh  Rh216  1  0.81167973  0.19609323  0.79370144  1
  Rh  Rh217  1  0.40613664  0.59601385  0.80043148  1
  Rh  Rh218  1  0.39364304  0.20329568  0.39263437  1
  Rh  Rh219  1  0.01196955  0.80035177  0.60060810  1
  Rh  Rh220  1  0.60710224  -0.00554071  0.19688880  1
  Rh  Rh221  1  0.39682757  -0.00719181  0.80284354  1
  Rh  Rh222  1  0.40502577  -0.00168993  0.00235883  1
  Rh  Rh223  1  0.19564050  0.80483777  0.00347311  1
  Rh  Rh224  1  0.20441400  0.00344667  0.80062153  1
  Rh  Rh225  1  0.00757199  0.39760434  0.19685295  1
  Rh  Rh226  1  -0.00418252  0.80926736  0.80414700  1
  Rh  Rh227  1  0.60843902  0.79873035  0.79735503  1
  Rh  Rh228  1  0.80841909  -0.00025725  0.39553616  1
  Rh  Rh229  1  0.39484375  0.38846734  0.21016228  1
  Rh  Rh230  1  0.20182704  0.60115918  0.79806824  1
  Rh  Rh231  1  -0.00458684  -0.00646418  0.59254070  1
  Rh  Rh232  1  0.79285632  0.00938756  -0.00158029  1
  Rh  Rh233  1  -0.01110922  0.60421324  0.20199765  1
  Rh  Rh234  1  0.39937015  -0.00033817  0.60090444  1
  Rh  Rh235  1  0.60564007  0.21283068  0.40778930  1
  Rh  Rh236  1  0.18862890  0.59644816  0.40404527  1
  Rh  Rh237  1  -0.00728637  -0.00879832  0.19741701  1
  Rh  Rh238  1  0.60335235  0.00195045  0.59811550  1
  Rh  Rh239  1  0.00268580  0.80188780  0.20607693  1
  Rh  Rh240  1  0.79355334  0.80207045  0.20848343  1
  Rh  Rh241  1  0.79912146  0.40187157  0.19939998  1
  Rh  Rh242  1  0.80730049  0.19584031  0.00740163  1
  Rh  Rh243  1  0.20452354  0.20063018  0.19217680  1
  Rh  Rh244  1  0.80921972  0.60115796  0.59321846  1
  Rh  Rh245  1  -0.00402223  0.59773908  0.79586356  1
  Rh  Rh246  1  0.40996205  0.60080079  0.39715964  1
  Rh  Rh247  1  0.80540324  0.78626980  -0.01721632  1
  Rh  Rh248  1  0.20177547  0.39831431  0.00388339  1
  Rh  Rh249  1  0.19445651  0.18959781  0.39945800  1
