# generated using pymatgen
data_ZrScNbPdRh
_symmetry_space_group_name_H-M   'P 1'
_cell_length_a   16.55837908
_cell_length_b   16.55952402
_cell_length_c   16.56353631
_cell_angle_alpha   89.99605895
_cell_angle_beta   89.96716778
_cell_angle_gamma   89.99350868
_symmetry_Int_Tables_number   1
_chemical_formula_structural   ZrScNbPdRh
_chemical_formula_sum   'Zr50 Sc50 Nb50 Pd50 Rh50'
_cell_volume   4541.70225663
_cell_formula_units_Z   50
loop_
 _symmetry_equiv_pos_site_id
 _symmetry_equiv_pos_as_xyz
  1  'x, y, z'
loop_
 _atom_site_type_symbol
 _atom_site_label
 _atom_site_symmetry_multiplicity
 _atom_site_fract_x
 _atom_site_fract_y
 _atom_site_fract_z
 _atom_site_occupancy
  Zr  Zr0  1  0.90922217  0.69569328  0.70074456  1
  Zr  Zr1  1  0.49760784  0.89514394  0.49547578  1
  Zr  Zr2  1  0.90712875  0.10755955  0.70160084  1
  Zr  Zr3  1  0.69991068  0.90161346  0.90263866  1
  Zr  Zr4  1  0.90181204  0.10209780  0.89833037  1
  Zr  Zr5  1  0.70383990  0.31556826  0.10323549  1
  Zr  Zr6  1  0.89140377  0.49110539  0.10515453  1
  Zr  Zr7  1  0.90303603  0.09618676  0.30117238  1
  Zr  Zr8  1  0.09021553  0.50072754  0.10144509  1
  Zr  Zr9  1  0.09433124  0.49986249  0.69270261  1
  Zr  Zr10  1  0.29902920  0.50042141  0.69618968  1
  Zr  Zr11  1  0.30512524  0.10215175  0.28959029  1
  Zr  Zr12  1  0.09553300  0.69868810  0.30188699  1
  Zr  Zr13  1  0.89900413  0.69596161  0.09310724  1
  Zr  Zr14  1  0.49051825  0.89349182  0.69358228  1
  Zr  Zr15  1  0.09268136  0.29776410  0.50002649  1
  Zr  Zr16  1  0.90447095  0.70009218  0.89503833  1
  Zr  Zr17  1  0.90067414  0.30476154  0.30745012  1
  Zr  Zr18  1  0.89517039  0.30465984  0.49915294  1
  Zr  Zr19  1  0.50791375  0.51141129  0.10249176  1
  Zr  Zr20  1  0.90105290  0.88979656  0.50377049  1
  Zr  Zr21  1  0.29743897  0.30044395  0.90864282  1
  Zr  Zr22  1  0.10642352  0.30708571  0.09931161  1
  Zr  Zr23  1  0.29690188  0.29886424  0.29351672  1
  Zr  Zr24  1  0.71059529  0.69933021  0.90055225  1
  Zr  Zr25  1  0.70462190  0.89833908  0.50009282  1
  Zr  Zr26  1  0.30522208  0.50608557  0.89748166  1
  Zr  Zr27  1  0.90360790  0.49974848  0.30237472  1
  Zr  Zr28  1  0.69341788  0.68304586  0.10498684  1
  Zr  Zr29  1  0.90386557  0.30532840  0.69884775  1
  Zr  Zr30  1  0.10289837  0.08724808  0.10534796  1
  Zr  Zr31  1  0.09662375  0.71238259  0.89407978  1
  Zr  Zr32  1  0.11234384  0.09166560  0.30147193  1
  Zr  Zr33  1  0.49735191  0.89952006  0.30363340  1
  Zr  Zr34  1  0.49744696  0.49977130  0.48986288  1
  Zr  Zr35  1  0.90377865  0.90254068  0.69902283  1
  Zr  Zr36  1  0.10426182  0.69552707  0.69424006  1
  Zr  Zr37  1  0.69511965  0.89615815  0.30468023  1
  Zr  Zr38  1  0.29372072  0.70028379  0.89585816  1
  Zr  Zr39  1  0.31617904  0.29467155  0.69800771  1
  Zr  Zr40  1  0.70198360  0.10503074  0.49772766  1
  Zr  Zr41  1  0.69876869  0.50328320  0.70369873  1
  Zr  Zr42  1  0.50313253  0.69510718  0.29759788  1
  Zr  Zr43  1  0.29650183  0.69868743  0.29566740  1
  Zr  Zr44  1  0.30400287  0.10570503  0.90115221  1
  Zr  Zr45  1  0.49547057  0.89892959  0.90223438  1
  Zr  Zr46  1  0.69602607  0.10213205  0.90402888  1
  Zr  Zr47  1  0.30069707  0.70529383  0.70469236  1
  Zr  Zr48  1  0.49817467  0.90318192  0.10021914  1
  Zr  Zr49  1  0.70364808  0.90026218  0.09880588  1
  Sc  Sc50  1  0.29500825  0.88597813  0.90426578  1
  Sc  Sc51  1  0.29827012  0.70184469  0.09493056  1
  Sc  Sc52  1  0.69483410  0.30201669  0.30531365  1
  Sc  Sc53  1  0.50195439  0.10532239  0.90990902  1
  Sc  Sc54  1  0.69378898  0.09283801  0.09946515  1
  Sc  Sc55  1  0.90154877  0.49964522  0.89655957  1
  Sc  Sc56  1  0.30118567  0.10296062  0.10144391  1
  Sc  Sc57  1  0.70075573  0.50259488  0.29819520  1
  Sc  Sc58  1  0.50020469  0.49998377  0.89632056  1
  Sc  Sc59  1  0.09018312  0.29902476  0.69558229  1
  Sc  Sc60  1  0.50228122  0.29428051  0.89660393  1
  Sc  Sc61  1  0.48783333  0.11520721  0.70021954  1
  Sc  Sc62  1  0.29782409  0.90560475  0.30321925  1
  Sc  Sc63  1  0.51677338  0.30487024  0.10158422  1
  Sc  Sc64  1  0.49533261  0.10244460  0.49046090  1
  Sc  Sc65  1  0.89760483  0.50133479  0.50089475  1
  Sc  Sc66  1  0.70573111  0.50818993  0.49822346  1
  Sc  Sc67  1  0.70312060  0.49526986  0.90125198  1
  Sc  Sc68  1  0.09588154  0.70611073  0.10431809  1
  Sc  Sc69  1  0.09552339  0.30595837  0.90620353  1
  Sc  Sc70  1  0.09218874  0.49385927  0.90063485  1
  Sc  Sc71  1  0.90081171  0.88647982  0.90568509  1
  Sc  Sc72  1  0.10371048  0.89455317  0.68600809  1
  Sc  Sc73  1  0.29005423  0.50445428  0.10262726  1
  Sc  Sc74  1  0.10242318  0.30065571  0.30194180  1
  Sc  Sc75  1  0.89817378  0.50123317  0.69919530  1
  Sc  Sc76  1  0.10276866  0.09667777  0.91158811  1
  Sc  Sc77  1  0.49454861  0.30072005  0.48807721  1
  Sc  Sc78  1  0.90313874  0.10914638  0.50579619  1
  Sc  Sc79  1  0.89658830  0.07673704  0.10890670  1
  Sc  Sc80  1  0.29827463  0.29977229  0.49549495  1
  Sc  Sc81  1  0.29806238  0.10132924  0.68591323  1
  Sc  Sc82  1  0.71418058  0.10104455  0.70338874  1
  Sc  Sc83  1  0.50094378  0.69443389  0.69957144  1
  Sc  Sc84  1  0.90217624  0.69620168  0.30846510  1
  Sc  Sc85  1  0.49929167  0.70137052  0.49410360  1
  Sc  Sc86  1  0.48506996  0.69106232  0.90130623  1
  Sc  Sc87  1  0.29725484  0.70144691  0.50056952  1
  Sc  Sc88  1  0.30533246  0.90090141  0.50497863  1
  Sc  Sc89  1  0.49871469  0.09874831  0.10184458  1
  Sc  Sc90  1  0.70506845  0.68747075  0.69756290  1
  Sc  Sc91  1  0.29414605  0.10060415  0.49607808  1
  Sc  Sc92  1  0.90108132  0.30977720  0.89678048  1
  Sc  Sc93  1  0.70483952  0.30385232  0.70951563  1
  Sc  Sc94  1  0.69520857  0.30462697  0.90692217  1
  Sc  Sc95  1  0.71197707  0.90628054  0.69847835  1
  Sc  Sc96  1  0.90409604  0.89813691  0.29417512  1
  Sc  Sc97  1  0.50349771  0.29911593  0.30050232  1
  Sc  Sc98  1  0.10569369  0.50732043  0.50331885  1
  Sc  Sc99  1  0.29355823  0.49670388  0.49198324  1
  Nb  Nb100  1  0.50462086  0.10020266  0.29605365  1
  Nb  Nb101  1  0.70165363  0.09720228  0.30019326  1
  Nb  Nb102  1  0.10190772  0.89735596  0.29622489  1
  Nb  Nb103  1  0.49848520  0.69622387  0.10283650  1
  Nb  Nb104  1  0.89898702  0.89242699  0.10379125  1
  Nb  Nb105  1  0.30304531  0.89914906  0.70273696  1
  Nb  Nb106  1  0.69490583  0.30113595  0.49939753  1
  Nb  Nb107  1  0.48738710  0.50138698  0.29942561  1
  Nb  Nb108  1  0.70169244  0.70504939  0.30583766  1
  Nb  Nb109  1  0.29703758  0.30744789  0.10071622  1
  Nb  Nb110  1  0.10078046  0.89961096  0.90308357  1
  Nb  Nb111  1  0.89987973  0.30274782  0.10757138  1
  Nb  Nb112  1  0.49966692  0.49575999  0.69476507  1
  Nb  Nb113  1  0.50124003  0.30390329  0.69317020  1
  Nb  Nb114  1  0.10655217  0.09108606  0.50955071  1
  Nb  Nb115  1  0.71256000  0.70629911  0.49019686  1
  Nb  Nb116  1  0.30031176  0.50652341  0.29931473  1
  Nb  Nb117  1  0.10279608  0.09733149  0.69844140  1
  Nb  Nb118  1  0.69638976  0.49194014  0.10236204  1
  Nb  Nb119  1  0.09874570  0.89871518  0.49616668  1
  Nb  Nb120  1  0.89706734  0.69960900  0.49960359  1
  Nb  Nb121  1  0.10790239  0.51160660  0.30101109  1
  Nb  Nb122  1  0.29688952  0.89564711  0.10527332  1
  Nb  Nb123  1  0.09991601  0.89761139  0.10349307  1
  Nb  Nb124  1  0.09230897  0.70474512  0.50050204  1
  Nb  Nb125  1  0.20388596  0.39426769  0.79587937  1
  Nb  Nb126  1  0.40088205  0.59312544  0.60094151  1
  Nb  Nb127  1  0.60072744  0.20670835  0.59812955  1
  Nb  Nb128  1  0.20047901  -0.00025028  0.79666979  1
  Nb  Nb129  1  0.60112377  0.80204821  0.79986980  1
  Nb  Nb130  1  0.40270375  0.79948542  0.19750636  1
  Nb  Nb131  1  0.19352790  0.60335757  -0.00504781  1
  Nb  Nb132  1  0.01042619  -0.00226435  0.80021567  1
  Nb  Nb133  1  0.80286413  0.19927892  0.19951062  1
  Nb  Nb134  1  0.79607360  0.79478998  0.19847492  1
  Nb  Nb135  1  0.18974167  0.80262643  0.40003208  1
  Nb  Nb136  1  0.39734907  0.40587454  0.19913104  1
  Nb  Nb137  1  0.59779167  0.79253895  0.00032757  1
  Nb  Nb138  1  0.60581291  0.80135679  0.59983247  1
  Nb  Nb139  1  0.59788993  0.00293657  0.60320484  1
  Nb  Nb140  1  -0.00853949  0.19964456  0.01406273  1
  Nb  Nb141  1  0.80723104  0.20217888  0.01198183  1
  Nb  Nb142  1  0.39877116  0.40114170  0.00971576  1
  Nb  Nb143  1  0.00629828  -0.00414196  0.40427972  1
  Nb  Nb144  1  0.19859634  0.19857013  0.79735363  1
  Nb  Nb145  1  0.59142926  -0.00243666  0.79350997  1
  Nb  Nb146  1  0.59748627  0.39840802  0.59900923  1
  Nb  Nb147  1  -0.00270994  0.19829981  0.19652240  1
  Nb  Nb148  1  0.39472502  -0.00159110  0.79927398  1
  Nb  Nb149  1  0.80437616  -0.00007953  0.40037319  1
  Pd  Pd150  1  0.80637674  0.00132134  -0.00407953  1
  Pd  Pd151  1  0.79623488  0.79804103  0.79135386  1
  Pd  Pd152  1  0.19233501  0.19894799  0.00284861  1
  Pd  Pd153  1  0.60318028  0.40534979  0.39989237  1
  Pd  Pd154  1  0.18960676  0.58977072  0.80489376  1
  Pd  Pd155  1  0.39151957  0.60480858  0.40699400  1
  Pd  Pd156  1  0.60132340  0.19374774  0.79100074  1
  Pd  Pd157  1  0.40365929  0.00780505  0.60032194  1
  Pd  Pd158  1  0.19986127  0.40807686  0.20685907  1
  Pd  Pd159  1  0.40258552  0.79463975  0.00588183  1
  Pd  Pd160  1  0.19571700  0.40158189  0.39631713  1
  Pd  Pd161  1  0.80070358  0.58900035  -0.00242249  1
  Pd  Pd162  1  0.59683742  0.60127662  0.59017764  1
  Pd  Pd163  1  0.40254927  0.40236779  0.58803902  1
  Pd  Pd164  1  -0.00695219  -0.00559282  -0.00235973  1
  Pd  Pd165  1  0.79093435  0.40306634  0.60006637  1
  Pd  Pd166  1  0.59953794  0.79750715  0.19342756  1
  Pd  Pd167  1  0.19872681  0.19923715  0.40135129  1
  Pd  Pd168  1  0.80822890  -0.00275361  0.80656354  1
  Pd  Pd169  1  0.39758005  0.19940711  0.39541833  1
  Pd  Pd170  1  0.59792640  0.39925369  0.79799706  1
  Pd  Pd171  1  0.80206778  0.60292119  0.20761470  1
  Pd  Pd172  1  0.60097465  0.60025949  -0.01191599  1
  Pd  Pd173  1  0.59608887  0.60566728  0.80626137  1
  Pd  Pd174  1  0.79664463  0.79071713  0.61002874  1
  Pd  Pd175  1  0.59850517  0.00116800  0.20098526  1
  Pd  Pd176  1  0.19961219  0.38982775  0.60388975  1
  Pd  Pd177  1  0.00658453  0.39818864  0.20797123  1
  Pd  Pd178  1  0.00073665  0.59552848  0.40820433  1
  Pd  Pd179  1  0.40693363  0.21127906  0.19225000  1
  Pd  Pd180  1  0.79727330  0.19974441  0.39366772  1
  Pd  Pd181  1  0.60189509  0.00579327  0.40469437  1
  Pd  Pd182  1  0.01215711  0.19684788  0.81211482  1
  Pd  Pd183  1  0.20442964  0.80150109  0.59282619  1
  Pd  Pd184  1  0.60596245  0.60179502  0.39820496  1
  Pd  Pd185  1  0.00346869  0.60049526  -0.00406173  1
  Pd  Pd186  1  0.01024421  0.18914671  0.39783751  1
  Pd  Pd187  1  0.20991078  -0.00824759  -0.00095177  1
  Pd  Pd188  1  -0.00801111  0.79506761  0.19991668  1
  Pd  Pd189  1  0.19782778  0.20699308  0.60273772  1
  Pd  Pd190  1  -0.00131017  0.00195064  0.59918599  1
  Pd  Pd191  1  0.39486176  0.00499415  0.39688763  1
  Pd  Pd192  1  0.79866953  0.21081356  0.81211108  1
  Pd  Pd193  1  0.01002684  0.41234969  0.40427536  1
  Pd  Pd194  1  0.40889663  0.21128959  0.01292307  1
  Pd  Pd195  1  0.19517365  0.60573862  0.19041677  1
  Pd  Pd196  1  0.79518270  0.20721801  0.60359898  1
  Pd  Pd197  1  0.60804237  0.19768513  0.19994151  1
  Pd  Pd198  1  0.39123437  -0.00135551  -0.00189853  1
  Pd  Pd199  1  0.40110514  0.39651774  0.80797766  1
  Rh  Rh200  1  0.00482858  0.40310574  0.79349777  1
  Rh  Rh201  1  0.79692928  0.39700046  0.21298854  1
  Rh  Rh202  1  0.19420421  0.19829361  0.19319568  1
  Rh  Rh203  1  0.19775571  -0.00707919  0.40639143  1
  Rh  Rh204  1  0.19156207  0.79702056  0.00712071  1
  Rh  Rh205  1  -0.00391697  0.40349594  0.59293030  1
  Rh  Rh206  1  0.59171349  0.41050519  0.21095806  1
  Rh  Rh207  1  0.40352214  0.79993224  0.80187893  1
  Rh  Rh208  1  0.39048331  0.39843896  0.38720544  1
  Rh  Rh209  1  0.39701939  0.60176893  0.19590406  1
  Rh  Rh210  1  0.00292239  0.59639399  0.79896383  1
  Rh  Rh211  1  0.20631649  0.60541414  0.59508010  1
  Rh  Rh212  1  -0.00454273  0.60174949  0.59364091  1
  Rh  Rh213  1  0.00160662  0.80358020  0.40066598  1
  Rh  Rh214  1  0.19371341  0.81115720  0.79410171  1
  Rh  Rh215  1  0.80091822  0.00889380  0.59166609  1
  Rh  Rh216  1  0.00393010  0.80559123  0.00568092  1
  Rh  Rh217  1  0.79394240  0.79384153  0.01065670  1
  Rh  Rh218  1  0.60296591  0.59509111  0.21058991  1
  Rh  Rh219  1  0.59232926  0.40498916  -0.00461671  1
  Rh  Rh220  1  0.59724839  0.19626485  0.39954736  1
  Rh  Rh221  1  0.20470278  -0.00675470  0.60003020  1
  Rh  Rh222  1  0.20478322  0.80431793  0.20405265  1
  Rh  Rh223  1  0.40477842  0.59863679  0.78720637  1
  Rh  Rh224  1  0.39651971  0.19736139  0.80277739  1
  Rh  Rh225  1  0.38986794  0.59387945  0.00880405  1
  Rh  Rh226  1  0.80074852  0.40167561  0.80077172  1
  Rh  Rh227  1  -0.00913380  0.39610380  0.00398760  1
  Rh  Rh228  1  0.80491629  0.59601436  0.80124855  1
  Rh  Rh229  1  0.60889819  0.20152452  0.00710912  1
  Rh  Rh230  1  0.59619652  -0.00268378  -0.00474635  1
  Rh  Rh231  1  0.20774488  -0.00625118  0.19717843  1
  Rh  Rh232  1  0.40315282  0.78634189  0.59901730  1
  Rh  Rh233  1  -0.00033890  0.79418219  0.60060202  1
  Rh  Rh234  1  0.80412752  0.60297142  0.59706198  1
  Rh  Rh235  1  0.79282091  -0.00702907  0.20856907  1
  Rh  Rh236  1  0.79515450  0.40272670  0.40071658  1
  Rh  Rh237  1  0.80332942  0.39925486  -0.00234736  1
  Rh  Rh238  1  0.40663491  0.20187536  0.58562023  1
  Rh  Rh239  1  0.00540164  -0.00340301  0.20469999  1
  Rh  Rh240  1  0.00281808  0.19923313  0.59663737  1
  Rh  Rh241  1  0.39974017  -0.00453379  0.20130213  1
  Rh  Rh242  1  0.19792130  0.60853297  0.40244779  1
  Rh  Rh243  1  0.80993942  0.80458308  0.38920975  1
  Rh  Rh244  1  -0.00403446  0.59875864  0.20202633  1
  Rh  Rh245  1  0.59897858  0.79273240  0.40810156  1
  Rh  Rh246  1  0.39011180  0.79747333  0.38903181  1
  Rh  Rh247  1  0.20748449  0.41429609  -0.00857946  1
  Rh  Rh248  1  0.00672611  0.81011864  0.79091828  1
  Rh  Rh249  1  0.80080235  0.60065501  0.39877726  1
