# generated using pymatgen
data_ZrScNbPdRh
_symmetry_space_group_name_H-M   'P 1'
_cell_length_a   16.56707254
_cell_length_b   16.56833145
_cell_length_c   16.56267723
_cell_angle_alpha   90.01043801
_cell_angle_beta   90.00887009
_cell_angle_gamma   90.00450506
_symmetry_Int_Tables_number   1
_chemical_formula_structural   ZrScNbPdRh
_chemical_formula_sum   'Zr50 Sc50 Nb50 Pd50 Rh50'
_cell_volume   4546.26841062
_cell_formula_units_Z   50
loop_
 _symmetry_equiv_pos_site_id
 _symmetry_equiv_pos_as_xyz
  1  'x, y, z'
loop_
 _atom_site_type_symbol
 _atom_site_label
 _atom_site_symmetry_multiplicity
 _atom_site_fract_x
 _atom_site_fract_y
 _atom_site_fract_z
 _atom_site_occupancy
  Zr  Zr0  1  0.49166907  0.70148347  0.29514307  1
  Zr  Zr1  1  0.90126406  0.69124124  0.49730416  1
  Zr  Zr2  1  0.69962414  0.90095307  0.50091482  1
  Zr  Zr3  1  0.89687494  0.29564351  0.09905505  1
  Zr  Zr4  1  0.49897255  0.90184413  0.90059216  1
  Zr  Zr5  1  0.89795303  0.31404078  0.30171716  1
  Zr  Zr6  1  0.88704321  0.30247115  0.89247582  1
  Zr  Zr7  1  0.69025572  0.49585757  0.69389165  1
  Zr  Zr8  1  0.50154968  0.30153259  0.69453385  1
  Zr  Zr9  1  0.88901092  0.50046562  0.11044530  1
  Zr  Zr10  1  0.70114488  0.48424834  0.89645117  1
  Zr  Zr11  1  0.10061329  0.89533868  0.69982979  1
  Zr  Zr12  1  0.70702953  0.31280271  0.51360971  1
  Zr  Zr13  1  0.50072792  0.29809473  0.50055560  1
  Zr  Zr14  1  0.70572150  0.69877668  0.70098825  1
  Zr  Zr15  1  0.69898559  0.09804783  0.09939279  1
  Zr  Zr16  1  0.30596446  0.49389593  0.69748570  1
  Zr  Zr17  1  0.09676656  0.91060393  0.29891418  1
  Zr  Zr18  1  0.29940766  0.30457505  0.70111167  1
  Zr  Zr19  1  0.50301766  0.29273586  0.29753448  1
  Zr  Zr20  1  0.10885437  0.49281988  0.10111550  1
  Zr  Zr21  1  0.50078786  0.70102360  0.49899712  1
  Zr  Zr22  1  0.09518188  0.29867119  0.69870101  1
  Zr  Zr23  1  0.90429558  0.10889687  0.70579690  1
  Zr  Zr24  1  0.30119338  0.09525272  0.10677982  1
  Zr  Zr25  1  0.10328274  0.10950161  0.09179284  1
  Zr  Zr26  1  0.89682264  0.90572857  0.49733818  1
  Zr  Zr27  1  0.10396519  0.70170070  0.89412953  1
  Zr  Zr28  1  0.50068454  0.90422135  0.49825227  1
  Zr  Zr29  1  0.69148998  0.09891698  0.29823172  1
  Zr  Zr30  1  0.90743093  0.49714885  0.71494514  1
  Zr  Zr31  1  0.09430656  0.89427608  0.90087663  1
  Zr  Zr32  1  0.69999003  0.10130118  0.89507999  1
  Zr  Zr33  1  0.30374041  0.68879788  0.49584932  1
  Zr  Zr34  1  0.89167834  0.69409200  0.10085504  1
  Zr  Zr35  1  0.68968506  0.69826180  0.10221603  1
  Zr  Zr36  1  0.09378192  0.69322366  0.69841533  1
  Zr  Zr37  1  0.90118079  0.09602000  0.30408052  1
  Zr  Zr38  1  0.50382635  0.10418872  0.70296674  1
  Zr  Zr39  1  0.09283265  0.50022242  0.29864651  1
  Zr  Zr40  1  0.30234301  0.69244563  0.89936827  1
  Zr  Zr41  1  0.09314631  0.09782338  0.89702919  1
  Zr  Zr42  1  0.49349606  0.70426600  0.90017142  1
  Zr  Zr43  1  0.10296244  0.30221715  0.29692186  1
  Zr  Zr44  1  0.30739634  0.90492617  0.29601471  1
  Zr  Zr45  1  0.89243531  0.50255177  0.30644714  1
  Zr  Zr46  1  0.89851717  0.69498870  0.88981784  1
  Zr  Zr47  1  0.89762902  0.29852610  0.68926653  1
  Zr  Zr48  1  0.90164436  0.10087686  0.09867375  1
  Zr  Zr49  1  0.29898536  0.49841027  0.09176075  1
  Sc  Sc50  1  0.10223855  0.09855205  0.49258107  1
  Sc  Sc51  1  0.50064176  0.89727395  0.30389332  1
  Sc  Sc52  1  0.50304359  0.49566851  0.88983974  1
  Sc  Sc53  1  0.69355459  0.50299429  0.10458375  1
  Sc  Sc54  1  0.51338421  0.10004300  0.90540482  1
  Sc  Sc55  1  0.09167402  0.70431579  0.09892278  1
  Sc  Sc56  1  0.68582783  0.69886407  0.30283488  1
  Sc  Sc57  1  0.90418870  0.68318600  0.29600694  1
  Sc  Sc58  1  0.09574124  0.68939576  0.29845512  1
  Sc  Sc59  1  0.29212160  0.30702679  0.09713221  1
  Sc  Sc60  1  0.29967405  0.52251681  0.29719898  1
  Sc  Sc61  1  0.30719777  0.89933746  0.69134554  1
  Sc  Sc62  1  0.89603207  0.10516034  0.89755881  1
  Sc  Sc63  1  0.51203055  0.30759063  0.90122345  1
  Sc  Sc64  1  0.09857494  0.90737615  0.09872768  1
  Sc  Sc65  1  0.68818147  0.30749896  0.29940979  1
  Sc  Sc66  1  0.10161755  0.90717525  0.49850106  1
  Sc  Sc67  1  0.49543293  0.69342351  0.70520811  1
  Sc  Sc68  1  0.30567630  0.28505634  0.30449556  1
  Sc  Sc69  1  0.09887348  0.30490166  0.50517033  1
  Sc  Sc70  1  0.49706944  0.10097710  0.50183094  1
  Sc  Sc71  1  0.89681644  0.10214025  0.50571140  1
  Sc  Sc72  1  0.90845611  0.89824955  0.10181968  1
  Sc  Sc73  1  0.49707257  0.89170571  0.09907448  1
  Sc  Sc74  1  0.09538899  0.10436885  0.70382688  1
  Sc  Sc75  1  0.69501917  0.30519411  0.09548408  1
  Sc  Sc76  1  0.30298076  0.09788921  0.69089447  1
  Sc  Sc77  1  0.09666178  0.69044860  0.50422024  1
  Sc  Sc78  1  0.11158847  0.50100856  0.89593827  1
  Sc  Sc79  1  0.10763720  0.49426013  0.69850289  1
  Sc  Sc80  1  0.28654769  0.10703911  0.91314209  1
  Sc  Sc81  1  0.30490547  0.09957147  0.30091529  1
  Sc  Sc82  1  0.88861093  0.88803175  0.70185059  1
  Sc  Sc83  1  0.69881410  0.09658863  0.70668374  1
  Sc  Sc84  1  0.69873190  0.08859157  0.49890120  1
  Sc  Sc85  1  0.70342062  0.69979938  0.90647584  1
  Sc  Sc86  1  0.30727063  0.29836742  0.50202630  1
  Sc  Sc87  1  0.10726381  0.50269104  0.50876562  1
  Sc  Sc88  1  0.10761000  0.10209555  0.29681400  1
  Sc  Sc89  1  0.30379539  0.88729674  0.91267945  1
  Sc  Sc90  1  0.69084351  0.90509709  0.30211131  1
  Sc  Sc91  1  0.30606677  0.70051481  0.70491342  1
  Sc  Sc92  1  0.50302713  0.10363858  0.10701033  1
  Sc  Sc93  1  0.69418053  0.50265564  0.49641038  1
  Sc  Sc94  1  0.49074109  0.90049280  0.69662865  1
  Sc  Sc95  1  0.69669333  0.69391709  0.49619383  1
  Sc  Sc96  1  0.11380984  0.29165102  0.89825236  1
  Sc  Sc97  1  0.31012041  0.91326110  0.50170844  1
  Sc  Sc98  1  0.90394671  0.91104993  0.29435331  1
  Sc  Sc99  1  0.30734787  0.70241032  0.10322415  1
  Nb  Nb100  1  0.30679622  0.30655781  0.89810349  1
  Nb  Nb101  1  0.70052130  0.49969249  0.29710453  1
  Nb  Nb102  1  0.29964387  0.70812568  0.30113536  1
  Nb  Nb103  1  0.70193705  0.89404118  0.10070841  1
  Nb  Nb104  1  0.50364377  0.49993623  0.10150321  1
  Nb  Nb105  1  0.50073824  0.10889160  0.30050808  1
  Nb  Nb106  1  0.70023236  0.89883875  0.70531032  1
  Nb  Nb107  1  0.89098977  0.89841696  0.89795305  1
  Nb  Nb108  1  0.89678470  0.30104946  0.49999069  1
  Nb  Nb109  1  0.50141441  0.49953071  0.69511126  1
  Nb  Nb110  1  0.09651045  0.30386460  0.09975631  1
  Nb  Nb111  1  0.70473096  0.90403297  0.89125843  1
  Nb  Nb112  1  0.50636699  0.49638162  0.29704496  1
  Nb  Nb113  1  0.88750219  0.49075089  0.49308190  1
  Nb  Nb114  1  0.90311587  0.49636827  0.90334278  1
  Nb  Nb115  1  0.30011564  0.10855469  0.49601949  1
  Nb  Nb116  1  0.49808449  0.30502958  0.10562245  1
  Nb  Nb117  1  0.49417293  0.50553260  0.50457364  1
  Nb  Nb118  1  0.69930824  0.30200040  0.70558804  1
  Nb  Nb119  1  0.90086089  0.69215453  0.69675468  1
  Nb  Nb120  1  0.30295492  0.49886868  0.50036290  1
  Nb  Nb121  1  0.70026555  0.29544363  0.89544992  1
  Nb  Nb122  1  0.50471329  0.69482335  0.09838351  1
  Nb  Nb123  1  0.30367351  0.48949090  0.89915826  1
  Nb  Nb124  1  0.30226987  0.90117877  0.10670499  1
  Nb  Nb125  1  0.40055887  0.20882043  -0.00059704  1
  Nb  Nb126  1  0.60282974  0.80034555  0.60576212  1
  Nb  Nb127  1  0.20285906  -0.00448609  0.80263235  1
  Nb  Nb128  1  -0.00683728  0.20837625  0.40128277  1
  Nb  Nb129  1  0.60510699  0.80482308  0.79774209  1
  Nb  Nb130  1  0.19966343  0.79855518  0.39812035  1
  Nb  Nb131  1  0.21078471  0.40525207  0.40090775  1
  Nb  Nb132  1  -0.00276556  -0.00153216  0.60495912  1
  Nb  Nb133  1  0.39920719  0.20098032  0.80885876  1
  Nb  Nb134  1  0.80512862  0.79947226  0.39360366  1
  Nb  Nb135  1  0.20233218  0.79637492  0.59300160  1
  Nb  Nb136  1  0.79815625  0.20057379  0.20606185  1
  Nb  Nb137  1  -0.00029706  0.80033665  0.39932585  1
  Nb  Nb138  1  0.80683619  0.59553416  0.60290480  1
  Nb  Nb139  1  0.40544387  0.40476592  0.20304437  1
  Nb  Nb140  1  -0.00423356  0.59158724  -0.00449524  1
  Nb  Nb141  1  0.20429137  0.80394422  0.20679739  1
  Nb  Nb142  1  0.39410442  0.00748652  0.80767080  1
  Nb  Nb143  1  -0.00070781  0.40081495  -0.00030104  1
  Nb  Nb144  1  0.79589602  0.79943549  0.20308856  1
  Nb  Nb145  1  0.79612110  -0.00837776  -0.00298548  1
  Nb  Nb146  1  0.20180481  0.19930641  0.59732380  1
  Nb  Nb147  1  0.40498033  0.59339931  0.00165821  1
  Nb  Nb148  1  0.80098560  0.20710531  0.39936135  1
  Nb  Nb149  1  0.40232018  0.41014320  0.39649473  1
  Pd  Pd150  1  0.20114347  -0.00771491  -0.00425152  1
  Pd  Pd151  1  0.59027775  -0.00721384  0.19778069  1
  Pd  Pd152  1  0.59561834  0.59080834  -0.01024727  1
  Pd  Pd153  1  0.21252038  0.80623312  0.79209100  1
  Pd  Pd154  1  0.20600210  0.59370539  0.79227252  1
  Pd  Pd155  1  -0.00712899  0.58429492  0.59746589  1
  Pd  Pd156  1  0.19427371  0.59937736  0.40052242  1
  Pd  Pd157  1  -0.00812247  0.79219911  -0.00292394  1
  Pd  Pd158  1  0.20922014  0.19144935  0.79203258  1
  Pd  Pd159  1  -0.00837951  0.80041585  0.79729570  1
  Pd  Pd160  1  0.59671095  -0.00509452  0.60745565  1
  Pd  Pd161  1  0.60221992  0.60612628  0.80477561  1
  Pd  Pd162  1  0.78943079  0.19154082  0.59805820  1
  Pd  Pd163  1  0.59654948  0.20704208  0.00513629  1
  Pd  Pd164  1  0.00475853  0.80428937  0.59220705  1
  Pd  Pd165  1  0.59348806  0.59608039  0.39630507  1
  Pd  Pd166  1  0.21731549  0.39928019  0.21586156  1
  Pd  Pd167  1  0.60538983  -0.00841926  0.00542893  1
  Pd  Pd168  1  0.60946441  0.19817135  0.41162766  1
  Pd  Pd169  1  -0.00509662  0.40884980  0.59430617  1
  Pd  Pd170  1  -0.00149398  0.21118178  -0.01063791  1
  Pd  Pd171  1  0.20531515  0.20363762  0.19542114  1
  Pd  Pd172  1  -0.00178947  0.79741854  0.20959559  1
  Pd  Pd173  1  0.59662374  0.40409936  0.40689879  1
  Pd  Pd174  1  0.01115253  0.39350789  0.81143727  1
  Pd  Pd175  1  0.40307967  0.59728511  0.19375797  1
  Pd  Pd176  1  -0.01005667  -0.00130390  -0.00362080  1
  Pd  Pd177  1  0.80506133  0.00504970  0.61235850  1
  Pd  Pd178  1  0.79363157  0.59108646  0.79838286  1
  Pd  Pd179  1  0.19685376  0.61225358  0.19116342  1
  Pd  Pd180  1  0.79790887  0.39996291  0.00560572  1
  Pd  Pd181  1  0.00924668  0.40349100  0.40996337  1
  Pd  Pd182  1  0.20834524  -0.00195323  0.39807821  1
  Pd  Pd183  1  0.79750906  0.59346125  -0.00344261  1
  Pd  Pd184  1  0.79877283  -0.00368278  0.19493543  1
  Pd  Pd185  1  -0.00378527  -0.00873163  0.79481324  1
  Pd  Pd186  1  0.79524477  0.79093010  0.59050534  1
  Pd  Pd187  1  -0.00364353  0.40392018  0.19363880  1
  Pd  Pd188  1  0.40912296  0.40052620  0.00270598  1
  Pd  Pd189  1  0.39943733  0.01121797  -0.00298084  1
  Pd  Pd190  1  0.39447266  0.80386308  0.40595026  1
  Pd  Pd191  1  0.61088746  0.19604727  0.59600028  1
  Pd  Pd192  1  0.20040959  0.60655023  0.00394803  1
  Pd  Pd193  1  0.60063324  0.80480135  -0.00642371  1
  Pd  Pd194  1  0.80267405  0.80341783  0.00481091  1
  Pd  Pd195  1  -0.00271231  0.19833855  0.20830248  1
  Pd  Pd196  1  0.19481019  0.00373323  0.60473775  1
  Pd  Pd197  1  0.39932449  0.60282780  0.60578346  1
  Pd  Pd198  1  0.20159107  0.79791757  0.01351991  1
  Pd  Pd199  1  0.41345406  0.00144211  0.20358031  1
  Rh  Rh200  1  0.39480402  0.19839753  0.60443741  1
  Rh  Rh201  1  0.60035144  0.80142105  0.19880049  1
  Rh  Rh202  1  0.40301498  0.81035890  0.80056681  1
  Rh  Rh203  1  0.79389304  0.60165945  0.40037045  1
  Rh  Rh204  1  0.59845133  0.20719914  0.79933496  1
  Rh  Rh205  1  0.80531423  0.41089930  0.60880011  1
  Rh  Rh206  1  0.59842577  0.40264534  0.19635711  1
  Rh  Rh207  1  0.19814445  -0.00236064  0.19695693  1
  Rh  Rh208  1  0.19135308  0.39424827  -0.00829894  1
  Rh  Rh209  1  0.40044373  0.79978821  0.19522361  1
  Rh  Rh210  1  0.40404357  0.01061538  0.60072731  1
  Rh  Rh211  1  0.59234701  0.40321885  0.59615691  1
  Rh  Rh212  1  0.79692725  0.39962809  0.79205258  1
  Rh  Rh213  1  -0.00277461  0.00533001  0.40871556  1
  Rh  Rh214  1  0.58973552  -0.00850435  0.79468521  1
  Rh  Rh215  1  0.00479513  0.59247659  0.18631222  1
  Rh  Rh216  1  0.40480141  0.01189236  0.39666174  1
  Rh  Rh217  1  -0.00232924  0.21122468  0.80684708  1
  Rh  Rh218  1  0.58980246  0.00568047  0.39548186  1
  Rh  Rh219  1  0.79523193  0.20224026  0.79294406  1
  Rh  Rh220  1  0.78732103  0.39737449  0.39641174  1
  Rh  Rh221  1  0.00974453  0.19147233  0.58880732  1
  Rh  Rh222  1  0.00296163  0.59250401  0.40783033  1
  Rh  Rh223  1  0.60486121  0.80356408  0.40853071  1
  Rh  Rh224  1  0.60512488  0.20178874  0.19488645  1
  Rh  Rh225  1  0.00789409  0.59774186  0.80591727  1
  Rh  Rh226  1  0.59784648  0.59931540  0.20658213  1
  Rh  Rh227  1  0.78456437  0.60863540  0.20971144  1
  Rh  Rh228  1  0.80651838  0.00309116  0.80208646  1
  Rh  Rh229  1  0.40791468  0.39702599  0.79600104  1
  Rh  Rh230  1  0.40586661  0.19933314  0.40207033  1
  Rh  Rh231  1  0.20018059  0.40161119  0.80152991  1
  Rh  Rh232  1  0.20644818  0.20893908  0.00745440  1
  Rh  Rh233  1  0.79719896  -0.00051171  0.39555280  1
  Rh  Rh234  1  0.60083559  0.60388772  0.59974631  1
  Rh  Rh235  1  0.79264953  0.19400836  0.00472245  1
  Rh  Rh236  1  0.39708345  0.58676503  0.80575537  1
  Rh  Rh237  1  0.60129209  0.40156227  0.00089821  1
  Rh  Rh238  1  0.40088022  0.79116339  0.00824060  1
  Rh  Rh239  1  0.78945114  0.39580780  0.20132931  1
  Rh  Rh240  1  0.59814279  0.39404804  0.79396808  1
  Rh  Rh241  1  0.20814517  0.60562411  0.60740263  1
  Rh  Rh242  1  0.00973558  0.01208661  0.19083858  1
  Rh  Rh243  1  0.40707059  0.59665402  0.39494346  1
  Rh  Rh244  1  0.40147395  0.79290152  0.59431149  1
  Rh  Rh245  1  0.20646686  0.39224872  0.59297715  1
  Rh  Rh246  1  0.39743997  0.20623630  0.19097482  1
  Rh  Rh247  1  0.19098148  0.21058604  0.40956931  1
  Rh  Rh248  1  0.40493831  0.40152159  0.59407261  1
  Rh  Rh249  1  0.79722837  0.79433110  0.80165873  1
