# generated using pymatgen
data_ZrScNbPdRh
_symmetry_space_group_name_H-M   'P 1'
_cell_length_a   16.56237397
_cell_length_b   16.56000371
_cell_length_c   16.55919847
_cell_angle_alpha   89.99779047
_cell_angle_beta   89.96074178
_cell_angle_gamma   89.99733699
_symmetry_Int_Tables_number   1
_chemical_formula_structural   ZrScNbPdRh
_chemical_formula_sum   'Zr50 Sc50 Nb50 Pd50 Rh50'
_cell_volume   4541.73954303
_cell_formula_units_Z   50
loop_
 _symmetry_equiv_pos_site_id
 _symmetry_equiv_pos_as_xyz
  1  'x, y, z'
loop_
 _atom_site_type_symbol
 _atom_site_label
 _atom_site_symmetry_multiplicity
 _atom_site_fract_x
 _atom_site_fract_y
 _atom_site_fract_z
 _atom_site_occupancy
  Zr  Zr0  1  0.31444575  0.09788129  0.30693566  1
  Zr  Zr1  1  0.89852711  0.10037348  0.70016109  1
  Zr  Zr2  1  0.89894936  0.10935805  0.89486160  1
  Zr  Zr3  1  0.70373792  0.90097614  0.28861133  1
  Zr  Zr4  1  0.89429113  0.70225656  0.50181061  1
  Zr  Zr5  1  0.10634717  0.09748947  0.50138278  1
  Zr  Zr6  1  0.70352491  0.90447512  0.89432495  1
  Zr  Zr7  1  0.08612555  0.69687596  0.70367386  1
  Zr  Zr8  1  0.49906979  0.50390475  0.29332721  1
  Zr  Zr9  1  0.10485592  0.29964616  0.10602709  1
  Zr  Zr10  1  0.09362418  0.30407238  0.50494513  1
  Zr  Zr11  1  0.09446435  0.10136114  0.29979878  1
  Zr  Zr12  1  0.90202434  0.90029791  0.89616356  1
  Zr  Zr13  1  0.29036571  0.11332670  0.70186779  1
  Zr  Zr14  1  0.10396184  0.50016988  0.49860432  1
  Zr  Zr15  1  0.09702743  0.49452430  0.68930122  1
  Zr  Zr16  1  0.70585254  0.10244847  0.50518977  1
  Zr  Zr17  1  0.50067950  0.69760836  0.90740138  1
  Zr  Zr18  1  0.51108892  0.30277811  0.50616504  1
  Zr  Zr19  1  0.09826151  0.89328373  0.69009818  1
  Zr  Zr20  1  0.30841380  0.70116568  0.30064080  1
  Zr  Zr21  1  0.10642636  0.69694327  0.09649356  1
  Zr  Zr22  1  0.69703161  0.08500984  0.69808799  1
  Zr  Zr23  1  0.49561450  0.10731443  0.90105646  1
  Zr  Zr24  1  0.90355801  0.29466406  0.89977400  1
  Zr  Zr25  1  0.69410230  0.30602812  0.29193080  1
  Zr  Zr26  1  0.30060059  0.90279340  0.30520613  1
  Zr  Zr27  1  0.88657552  0.50067419  0.29738436  1
  Zr  Zr28  1  0.49476099  0.70201936  0.70117366  1
  Zr  Zr29  1  0.90123029  0.90425468  0.10079336  1
  Zr  Zr30  1  0.30181957  0.49460986  0.90363445  1
  Zr  Zr31  1  0.70295923  0.50678499  0.70641834  1
  Zr  Zr32  1  0.69280037  0.89952760  0.51252301  1
  Zr  Zr33  1  0.90042114  0.50571051  0.69942018  1
  Zr  Zr34  1  0.30835257  0.30625779  0.09863114  1
  Zr  Zr35  1  0.50183823  0.70081053  0.49652275  1
  Zr  Zr36  1  0.51402289  0.89983565  0.10087407  1
  Zr  Zr37  1  0.69923088  0.49837149  0.90243641  1
  Zr  Zr38  1  0.30169441  0.69639195  0.89894595  1
  Zr  Zr39  1  0.09556204  0.90313267  0.31124044  1
  Zr  Zr40  1  0.89095925  0.49867041  0.89715044  1
  Zr  Zr41  1  0.10437478  0.49672524  0.10227587  1
  Zr  Zr42  1  0.29663340  0.29793767  0.29011292  1
  Zr  Zr43  1  0.50001362  0.50238476  0.09966905  1
  Zr  Zr44  1  0.09479825  0.69807326  0.90263885  1
  Zr  Zr45  1  0.28894417  0.50297403  0.50092818  1
  Zr  Zr46  1  0.30071317  0.69718677  0.10331825  1
  Zr  Zr47  1  0.70229434  0.70332591  0.49965245  1
  Zr  Zr48  1  0.70341293  0.49178836  0.10644938  1
  Zr  Zr49  1  0.50826837  0.90347561  0.69280030  1
  Sc  Sc50  1  0.69142219  0.69922857  0.10113533  1
  Sc  Sc51  1  0.30313480  0.30075901  0.89748155  1
  Sc  Sc52  1  0.90159308  0.29093502  0.29810177  1
  Sc  Sc53  1  0.29949653  0.49750939  0.10208148  1
  Sc  Sc54  1  0.30525412  0.89009841  0.69020297  1
  Sc  Sc55  1  0.89517255  0.49499944  0.09744469  1
  Sc  Sc56  1  0.30108944  0.10757618  0.90446045  1
  Sc  Sc57  1  0.49601216  0.89729304  0.29582038  1
  Sc  Sc58  1  0.11432269  0.70421737  0.30598069  1
  Sc  Sc59  1  0.88939231  0.70956708  0.30932570  1
  Sc  Sc60  1  0.29533818  0.50243484  0.70602130  1
  Sc  Sc61  1  0.49773462  0.89772515  0.90497274  1
  Sc  Sc62  1  0.90241595  0.69562346  0.08932618  1
  Sc  Sc63  1  0.49876017  0.89222366  0.50278839  1
  Sc  Sc64  1  0.90177438  0.09734282  0.30914103  1
  Sc  Sc65  1  0.71533644  0.29037177  0.90375873  1
  Sc  Sc66  1  0.89908272  0.90206207  0.30200102  1
  Sc  Sc67  1  0.30387951  0.90122320  0.90800057  1
  Sc  Sc68  1  0.70113591  0.69901269  0.30357921  1
  Sc  Sc69  1  0.09999371  0.89766763  0.91187397  1
  Sc  Sc70  1  0.50260259  0.50888700  0.89796526  1
  Sc  Sc71  1  0.69426653  0.50674589  0.50083096  1
  Sc  Sc72  1  0.50523403  0.10203556  0.10064753  1
  Sc  Sc73  1  0.90039000  0.30318521  0.09215500  1
  Sc  Sc74  1  0.10125215  0.30261809  0.90522131  1
  Sc  Sc75  1  0.69795564  0.69028419  0.89822102  1
  Sc  Sc76  1  0.30322296  0.09857543  0.11033123  1
  Sc  Sc77  1  0.29698567  0.90600513  0.10275498  1
  Sc  Sc78  1  0.09802607  0.29971187  0.29391925  1
  Sc  Sc79  1  0.09933869  0.09324850  0.10572939  1
  Sc  Sc80  1  0.70671752  0.10011950  0.90051354  1
  Sc  Sc81  1  0.29540880  0.49455015  0.30586788  1
  Sc  Sc82  1  0.50184088  0.50610838  0.70070579  1
  Sc  Sc83  1  0.90597156  0.09867638  0.09235559  1
  Sc  Sc84  1  0.89557541  0.88828860  0.70536711  1
  Sc  Sc85  1  0.48751584  0.29653556  0.90421869  1
  Sc  Sc86  1  0.50330037  0.50182856  0.49968513  1
  Sc  Sc87  1  0.69769646  0.50366499  0.29490001  1
  Sc  Sc88  1  0.90280801  0.29239447  0.69977569  1
  Sc  Sc89  1  0.10190847  0.70762363  0.50112550  1
  Sc  Sc90  1  0.49285553  0.30330262  0.29655536  1
  Sc  Sc91  1  0.30019418  0.70070919  0.49932635  1
  Sc  Sc92  1  0.89800638  0.50377573  0.50942138  1
  Sc  Sc93  1  0.10673080  0.50389978  0.90055152  1
  Sc  Sc94  1  0.70021168  0.09374956  0.29550912  1
  Sc  Sc95  1  0.09935539  0.11105678  0.90151843  1
  Sc  Sc96  1  0.90683860  0.89562179  0.48955794  1
  Sc  Sc97  1  0.49907816  0.29986749  0.69825389  1
  Sc  Sc98  1  0.29899806  0.30640979  0.48638926  1
  Sc  Sc99  1  0.30440173  0.69473230  0.69605760  1
  Nb  Nb100  1  0.49533019  0.69725061  0.29017096  1
  Nb  Nb101  1  0.49766415  0.10182276  0.69612776  1
  Nb  Nb102  1  0.90431932  0.70352073  0.88816436  1
  Nb  Nb103  1  0.10326798  0.89980161  0.49727732  1
  Nb  Nb104  1  0.90324000  0.10638205  0.49805218  1
  Nb  Nb105  1  0.69523794  0.10103296  0.09775870  1
  Nb  Nb106  1  0.68872138  0.29593815  0.68906699  1
  Nb  Nb107  1  0.89550468  0.29229050  0.49655578  1
  Nb  Nb108  1  0.70883407  0.70609549  0.69815671  1
  Nb  Nb109  1  0.09610742  0.49840528  0.30352827  1
  Nb  Nb110  1  0.10518057  0.29142456  0.70332928  1
  Nb  Nb111  1  0.49287161  0.10377599  0.49305627  1
  Nb  Nb112  1  0.10168594  0.10564165  0.70163347  1
  Nb  Nb113  1  0.09485164  0.89941501  0.10785985  1
  Nb  Nb114  1  0.69668750  0.29883861  0.50246114  1
  Nb  Nb115  1  0.30387057  0.09895666  0.49416354  1
  Nb  Nb116  1  0.50545260  0.30040617  0.09617542  1
  Nb  Nb117  1  0.70212687  0.90753548  0.09838819  1
  Nb  Nb118  1  0.29007884  0.90906135  0.49752772  1
  Nb  Nb119  1  0.30229146  0.29906318  0.70511456  1
  Nb  Nb120  1  0.89875372  0.69926160  0.70693033  1
  Nb  Nb121  1  0.49720866  0.09398584  0.30756176  1
  Nb  Nb122  1  0.49804489  0.69447109  0.11003935  1
  Nb  Nb123  1  0.69267921  0.29229594  0.09911575  1
  Nb  Nb124  1  0.69738780  0.89765215  0.70331285  1
  Nb  Nb125  1  0.79423683  0.39127583  0.59673840  1
  Nb  Nb126  1  0.39625195  0.20116121  0.59504501  1
  Nb  Nb127  1  0.00513426  0.79641181  0.19821488  1
  Nb  Nb128  1  -0.00782029  0.40264631  0.40295458  1
  Nb  Nb129  1  0.60045328  0.20060228  0.79464507  1
  Nb  Nb130  1  0.19876135  0.80109778  0.80099201  1
  Nb  Nb131  1  0.79721348  0.80536732  -0.00179153  1
  Nb  Nb132  1  0.00342773  0.00286850  0.59814086  1
  Nb  Nb133  1  0.59786242  0.19585466  0.40063744  1
  Nb  Nb134  1  0.79180704  0.19779777  0.19143052  1
  Nb  Nb135  1  0.19898189  -0.00280626  0.79600595  1
  Nb  Nb136  1  0.60458269  0.80017803  0.79454680  1
  Nb  Nb137  1  0.00870485  0.00310082  0.79260899  1
  Nb  Nb138  1  0.20193451  0.19577103  0.39801465  1
  Nb  Nb139  1  0.60133058  0.39321890  -0.00078713  1
  Nb  Nb140  1  0.39668478  0.00426145  0.79088697  1
  Nb  Nb141  1  0.39585596  0.00859924  0.59585606  1
  Nb  Nb142  1  0.00250193  0.60288802  0.20693494  1
  Nb  Nb143  1  0.00180569  0.39868862  0.79433529  1
  Nb  Nb144  1  0.79943974  0.39248238  0.40866574  1
  Nb  Nb145  1  0.60541495  0.39077355  0.80316264  1
  Nb  Nb146  1  0.00025158  0.59637695  0.39433335  1
  Nb  Nb147  1  0.20207650  0.20475899  0.01065594  1
  Nb  Nb148  1  0.39549097  0.39585834  0.60271029  1
  Nb  Nb149  1  0.59560846  0.00358253  0.40144368  1
  Pd  Pd150  1  0.39797588  0.59093483  0.59675699  1
  Pd  Pd151  1  0.41040947  0.40456219  0.79532966  1
  Pd  Pd152  1  0.39922572  0.59507325  0.40048469  1
  Pd  Pd153  1  0.39743810  0.59754613  0.00324000  1
  Pd  Pd154  1  0.41009972  0.19824756  0.19605514  1
  Pd  Pd155  1  0.20043762  0.59462934  0.20864280  1
  Pd  Pd156  1  0.80522111  0.61231544  0.19552779  1
  Pd  Pd157  1  0.20429352  0.79179720  0.60205888  1
  Pd  Pd158  1  0.40224571  0.00367835  0.00253187  1
  Pd  Pd159  1  0.78968713  0.20290361  0.38807692  1
  Pd  Pd160  1  0.59914281  0.60352170  0.39248006  1
  Pd  Pd161  1  0.79955612  0.20210078  0.60627261  1
  Pd  Pd162  1  0.39757289  0.80313241  0.40573782  1
  Pd  Pd163  1  0.40000951  0.80852857  0.19154631  1
  Pd  Pd164  1  0.59580961  0.19263361  0.20869176  1
  Pd  Pd165  1  0.79934602  0.38698210  0.78885225  1
  Pd  Pd166  1  0.00027625  0.19645400  0.59860636  1
  Pd  Pd167  1  0.80609830  0.79332603  0.18913805  1
  Pd  Pd168  1  0.81462789  -0.01183179  0.59720239  1
  Pd  Pd169  1  0.00650226  0.00593187  -0.00851352  1
  Pd  Pd170  1  0.40549425  0.40405343  0.40591120  1
  Pd  Pd171  1  0.20237288  0.00017972  0.60645587  1
  Pd  Pd172  1  0.79448961  -0.00472086  0.40575821  1
  Pd  Pd173  1  -0.00310567  0.59019778  0.00114250  1
  Pd  Pd174  1  0.60107994  0.80635270  0.38926475  1
  Pd  Pd175  1  0.00073861  0.60843841  0.59063376  1
  Pd  Pd176  1  0.39966902  0.80028943  0.01129921  1
  Pd  Pd177  1  0.20473529  0.80242053  -0.00159321  1
  Pd  Pd178  1  0.20025195  0.00114820  0.20775595  1
  Pd  Pd179  1  0.60240456  0.60452018  0.60410372  1
  Pd  Pd180  1  -0.00523513  0.80020929  0.00541129  1
  Pd  Pd181  1  0.60221463  0.79515392  0.20471767  1
  Pd  Pd182  1  0.80746145  0.01248951  0.19670851  1
  Pd  Pd183  1  0.20957291  0.39191121  0.60481470  1
  Pd  Pd184  1  0.19651290  0.00983561  -0.00408242  1
  Pd  Pd185  1  0.80108912  0.00200043  -0.00078486  1
  Pd  Pd186  1  0.20786906  0.21179131  0.58858565  1
  Pd  Pd187  1  0.80614840  0.80676782  0.59897133  1
  Pd  Pd188  1  0.19783285  0.60546502  0.79486687  1
  Pd  Pd189  1  0.59036865  0.00133984  0.80840897  1
  Pd  Pd190  1  0.79738870  0.60717415  0.00038606  1
  Pd  Pd191  1  0.60878277  0.79737193  -0.00622397  1
  Pd  Pd192  1  -0.00785704  0.40500035  0.20559717  1
  Pd  Pd193  1  0.19295311  0.39580076  0.80024659  1
  Pd  Pd194  1  -0.01059051  0.19645051  0.19351582  1
  Pd  Pd195  1  0.19691125  0.80663651  0.20277251  1
  Pd  Pd196  1  0.59953249  0.00531708  -0.00659750  1
  Pd  Pd197  1  0.40036864  0.80832498  0.80061075  1
  Pd  Pd198  1  0.00278729  0.40620295  -0.00875908  1
  Pd  Pd199  1  0.60337866  0.40030149  0.39690896  1
  Rh  Rh200  1  0.40907001  0.40419963  -0.00011267  1
  Rh  Rh201  1  0.79160379  0.79264568  0.80809680  1
  Rh  Rh202  1  0.59512485  0.18847835  0.59866295  1
  Rh  Rh203  1  0.40924842  -0.00412123  0.19436223  1
  Rh  Rh204  1  0.39209657  0.19777765  0.01051327  1
  Rh  Rh205  1  0.40728621  -0.01552500  0.40850469  1
  Rh  Rh206  1  -0.00179823  0.00485825  0.41007872  1
  Rh  Rh207  1  0.00845771  0.20424500  0.40222932  1
  Rh  Rh208  1  0.79712460  0.59930729  0.60133122  1
  Rh  Rh209  1  0.60204565  0.60443584  0.20205197  1
  Rh  Rh210  1  0.59278114  0.40099280  0.19271771  1
  Rh  Rh211  1  0.01083353  0.20069811  0.00763809  1
  Rh  Rh212  1  0.59973366  0.78805707  0.60761616  1
  Rh  Rh213  1  0.78771503  0.81037496  0.40309021  1
  Rh  Rh214  1  0.59647406  0.00287426  0.20430419  1
  Rh  Rh215  1  0.19751044  0.60435980  0.39965197  1
  Rh  Rh216  1  -0.01088804  0.39037678  0.60333622  1
  Rh  Rh217  1  0.20255668  0.39474853  0.00150793  1
  Rh  Rh218  1  0.79275164  0.39382194  0.00551548  1
  Rh  Rh219  1  -0.00208521  0.58816105  0.80552036  1
  Rh  Rh220  1  0.78752192  0.19804121  0.78759129  1
  Rh  Rh221  1  0.60128699  0.41282155  0.60886649  1
  Rh  Rh222  1  0.80319236  0.60809494  0.80299483  1
  Rh  Rh223  1  0.19822200  0.00718508  0.39308843  1
  Rh  Rh224  1  0.80181646  0.59201900  0.40685277  1
  Rh  Rh225  1  0.00877481  0.80774933  0.80262481  1
  Rh  Rh226  1  0.59027363  0.00759751  0.58804435  1
  Rh  Rh227  1  0.20707104  0.80095883  0.40421010  1
  Rh  Rh228  1  0.60068031  0.20363040  -0.01055285  1
  Rh  Rh229  1  0.20121469  0.19238219  0.20237495  1
  Rh  Rh230  1  0.40074690  0.21136086  0.40071917  1
  Rh  Rh231  1  0.39926450  0.59674071  0.80319497  1
  Rh  Rh232  1  0.80185148  0.19433590  0.01018916  1
  Rh  Rh233  1  0.20660675  0.59661332  -0.00021910  1
  Rh  Rh234  1  0.00696750  0.20373651  0.80072063  1
  Rh  Rh235  1  0.60325707  0.59307415  0.00998246  1
  Rh  Rh236  1  0.00415847  0.79084837  0.39491412  1
  Rh  Rh237  1  0.59917692  0.60926291  0.79395675  1
  Rh  Rh238  1  0.40292617  0.40306834  0.19849125  1
  Rh  Rh239  1  0.80968278  0.00025008  0.79572009  1
  Rh  Rh240  1  0.18744056  0.38942751  0.39185128  1
  Rh  Rh241  1  0.19841028  0.20401095  0.81381219  1
  Rh  Rh242  1  0.20243053  0.40600129  0.20314669  1
  Rh  Rh243  1  0.80456061  0.38506489  0.20088243  1
  Rh  Rh244  1  -0.00794853  0.80195953  0.59523241  1
  Rh  Rh245  1  0.39208565  0.59417585  0.20260189  1
  Rh  Rh246  1  0.39573081  0.80371240  0.59015078  1
  Rh  Rh247  1  0.40498535  0.19742415  0.79302532  1
  Rh  Rh248  1  -0.00440371  -0.00600717  0.20510200  1
  Rh  Rh249  1  0.19570260  0.60562684  0.60261307  1
