# generated using pymatgen
data_ZrScNbPdRh
_symmetry_space_group_name_H-M   'P 1'
_cell_length_a   16.56110160
_cell_length_b   16.55589645
_cell_length_c   16.55922852
_cell_angle_alpha   89.99940523
_cell_angle_beta   90.01198096
_cell_angle_gamma   89.97529908
_symmetry_Int_Tables_number   1
_chemical_formula_structural   ZrScNbPdRh
_chemical_formula_sum   'Zr50 Sc50 Nb50 Pd50 Rh50'
_cell_volume   4540.27305305
_cell_formula_units_Z   50
loop_
 _symmetry_equiv_pos_site_id
 _symmetry_equiv_pos_as_xyz
  1  'x, y, z'
loop_
 _atom_site_type_symbol
 _atom_site_label
 _atom_site_symmetry_multiplicity
 _atom_site_fract_x
 _atom_site_fract_y
 _atom_site_fract_z
 _atom_site_occupancy
  Zr  Zr0  1  0.70171221  0.89142367  0.70156324  1
  Zr  Zr1  1  0.90157843  0.49022874  0.30622662  1
  Zr  Zr2  1  0.29768086  0.89458429  0.69718690  1
  Zr  Zr3  1  0.50837213  0.10584941  0.69827507  1
  Zr  Zr4  1  0.69277879  0.09071704  0.29443022  1
  Zr  Zr5  1  0.89688791  0.89753874  0.10205474  1
  Zr  Zr6  1  0.48380879  0.50204148  0.29968177  1
  Zr  Zr7  1  0.29847364  0.29272023  0.50122762  1
  Zr  Zr8  1  0.09863324  0.50450726  0.69712885  1
  Zr  Zr9  1  0.49278835  0.69965610  0.90201944  1
  Zr  Zr10  1  0.91164580  0.89515798  0.69934997  1
  Zr  Zr11  1  0.89192778  0.70023048  0.89515344  1
  Zr  Zr12  1  0.69988177  0.50642402  0.09852172  1
  Zr  Zr13  1  0.30249171  0.50510397  0.10246123  1
  Zr  Zr14  1  0.49409368  0.29000651  0.29590732  1
  Zr  Zr15  1  0.70155844  0.09802607  0.68866968  1
  Zr  Zr16  1  0.89995276  0.29874057  0.90862772  1
  Zr  Zr17  1  0.30347336  0.10511696  0.30808684  1
  Zr  Zr18  1  0.09645157  0.50929634  0.09921890  1
  Zr  Zr19  1  0.10534833  0.49453831  0.89435754  1
  Zr  Zr20  1  0.49621693  0.50647996  0.90132711  1
  Zr  Zr21  1  0.70262841  0.50878202  0.30169297  1
  Zr  Zr22  1  0.10091794  0.69374537  0.90172930  1
  Zr  Zr23  1  0.31045795  0.30345609  0.30793789  1
  Zr  Zr24  1  0.70792542  0.69938362  0.70002232  1
  Zr  Zr25  1  0.90223682  0.09265747  0.10348686  1
  Zr  Zr26  1  0.30272460  0.70263958  0.70572273  1
  Zr  Zr27  1  0.50236191  0.70202793  0.50339077  1
  Zr  Zr28  1  0.90172025  0.50765429  0.69921999  1
  Zr  Zr29  1  0.28640824  0.70622535  0.09462642  1
  Zr  Zr30  1  0.10215790  0.70212125  0.69890658  1
  Zr  Zr31  1  0.68982769  0.70510305  0.30068821  1
  Zr  Zr32  1  0.69937437  0.50218070  0.50125592  1
  Zr  Zr33  1  0.09841998  0.88213968  0.11729507  1
  Zr  Zr34  1  0.91275534  0.70446215  0.09314313  1
  Zr  Zr35  1  0.70599057  0.70076468  0.10594464  1
  Zr  Zr36  1  0.90402246  0.09238496  0.29971509  1
  Zr  Zr37  1  0.10254632  0.30971726  0.09475513  1
  Zr  Zr38  1  0.91241516  0.89679255  0.48970820  1
  Zr  Zr39  1  0.70293255  0.30088625  0.90427268  1
  Zr  Zr40  1  0.10299890  0.69805827  0.49648553  1
  Zr  Zr41  1  0.69063092  0.29762717  0.69952020  1
  Zr  Zr42  1  0.70286380  0.89358134  0.28626213  1
  Zr  Zr43  1  0.09833365  0.09004148  0.70360694  1
  Zr  Zr44  1  0.11282511  0.09951812  0.49889761  1
  Zr  Zr45  1  0.50553297  0.30050307  0.89526667  1
  Zr  Zr46  1  0.08934202  0.91015740  0.87703305  1
  Zr  Zr47  1  0.89952947  0.49641036  0.50250884  1
  Zr  Zr48  1  0.29545813  0.30994386  0.89753163  1
  Zr  Zr49  1  0.29495601  0.90869202  0.49724312  1
  Sc  Sc50  1  0.50169107  0.09991548  0.29587356  1
  Sc  Sc51  1  0.89934902  0.50395661  0.09547102  1
  Sc  Sc52  1  0.11063429  0.30596863  0.50685891  1
  Sc  Sc53  1  0.50666976  0.09580115  0.91206508  1
  Sc  Sc54  1  0.49308669  0.30181540  0.50435661  1
  Sc  Sc55  1  0.89074688  0.70360542  0.30435038  1
  Sc  Sc56  1  0.10934061  0.30774493  0.70150015  1
  Sc  Sc57  1  0.28890243  0.09635637  0.10284379  1
  Sc  Sc58  1  0.70095691  0.28926977  0.09584077  1
  Sc  Sc59  1  0.29665039  0.69869442  0.50429773  1
  Sc  Sc60  1  0.09900524  0.09530139  0.29602011  1
  Sc  Sc61  1  0.50073274  0.50439667  0.51121554  1
  Sc  Sc62  1  0.89151606  0.09729814  0.50141003  1
  Sc  Sc63  1  0.29266091  0.10187377  0.68763310  1
  Sc  Sc64  1  0.49587876  0.09470883  0.50337860  1
  Sc  Sc65  1  0.10264011  0.30267902  0.89989747  1
  Sc  Sc66  1  0.89642557  0.08939231  0.68956212  1
  Sc  Sc67  1  0.49629096  0.89701599  0.09336521  1
  Sc  Sc68  1  0.09197583  0.51025376  0.30238537  1
  Sc  Sc69  1  0.29141171  0.09387430  0.90720081  1
  Sc  Sc70  1  0.70986937  0.50859001  0.90715532  1
  Sc  Sc71  1  0.08817375  0.30956149  0.29155741  1
  Sc  Sc72  1  0.70682026  0.30396662  0.50729737  1
  Sc  Sc73  1  0.10222180  0.70407514  0.29742270  1
  Sc  Sc74  1  0.49729353  0.89211875  0.69315341  1
  Sc  Sc75  1  0.89622599  0.69702014  0.50289114  1
  Sc  Sc76  1  0.69786025  0.10115517  0.91539409  1
  Sc  Sc77  1  0.30396761  0.50172658  0.70346676  1
  Sc  Sc78  1  0.89952049  0.31085493  0.68819100  1
  Sc  Sc79  1  0.09971420  0.10109544  0.90172782  1
  Sc  Sc80  1  0.50268115  0.30946052  0.70034167  1
  Sc  Sc81  1  0.49501605  0.70401459  0.69469377  1
  Sc  Sc82  1  0.69891459  0.49821612  0.69106793  1
  Sc  Sc83  1  0.90210577  0.50706162  0.90037980  1
  Sc  Sc84  1  0.91034972  0.09263655  0.91206574  1
  Sc  Sc85  1  0.49344546  0.89527889  0.90304068  1
  Sc  Sc86  1  0.90911479  0.30031972  0.09802836  1
  Sc  Sc87  1  0.49664459  0.89654347  0.50318620  1
  Sc  Sc88  1  0.30481295  0.50380403  0.50243441  1
  Sc  Sc89  1  0.69215498  0.89228924  0.49855733  1
  Sc  Sc90  1  0.29755339  0.29563155  0.10753372  1
  Sc  Sc91  1  0.69903949  0.69496179  0.49846812  1
  Sc  Sc92  1  0.70520719  0.29840247  0.30913252  1
  Sc  Sc93  1  0.30398740  0.50709627  0.89374271  1
  Sc  Sc94  1  0.51377047  0.89938577  0.30138952  1
  Sc  Sc95  1  0.29242295  0.89720127  0.09459051  1
  Sc  Sc96  1  0.30316362  0.89398561  0.90380961  1
  Sc  Sc97  1  0.29898891  0.30508078  0.69726990  1
  Sc  Sc98  1  0.09779500  0.10318406  0.09947984  1
  Sc  Sc99  1  0.50401137  0.69337226  0.09674305  1
  Nb  Nb100  1  0.50170844  0.49879969  0.09637634  1
  Nb  Nb101  1  0.70198981  0.89879647  0.10059616  1
  Nb  Nb102  1  0.89735279  0.30251158  0.49063950  1
  Nb  Nb103  1  0.29588974  0.89676090  0.29588163  1
  Nb  Nb104  1  0.69817656  0.10197320  0.49959524  1
  Nb  Nb105  1  0.10484094  0.50687841  0.49938309  1
  Nb  Nb106  1  0.10256693  0.89957727  0.68685068  1
  Nb  Nb107  1  0.89302602  0.89862523  0.90084435  1
  Nb  Nb108  1  0.50009457  0.29479744  0.10459740  1
  Nb  Nb109  1  0.70694281  0.89115249  0.90000700  1
  Nb  Nb110  1  0.29751487  0.10568783  0.49487720  1
  Nb  Nb111  1  0.90855311  0.90341566  0.29732384  1
  Nb  Nb112  1  0.89679503  0.30166834  0.30440867  1
  Nb  Nb113  1  0.50804164  0.10645125  0.10750997  1
  Nb  Nb114  1  0.70226044  0.70323500  0.89582415  1
  Nb  Nb115  1  0.69216548  0.09191337  0.10928460  1
  Nb  Nb116  1  0.50238722  0.50369404  0.70502571  1
  Nb  Nb117  1  0.49713365  0.70569269  0.30089189  1
  Nb  Nb118  1  0.08839139  0.89783470  0.31218199  1
  Nb  Nb119  1  0.10147558  0.89678199  0.49630876  1
  Nb  Nb120  1  0.29974684  0.50392961  0.30279468  1
  Nb  Nb121  1  0.30360256  0.69266329  0.30080799  1
  Nb  Nb122  1  0.90042230  0.69177676  0.69999225  1
  Nb  Nb123  1  0.09846117  0.69976131  0.09906507  1
  Nb  Nb124  1  0.30525811  0.70142604  0.89804787  1
  Nb  Nb125  1  0.60094284  0.60451562  0.80127357  1
  Nb  Nb126  1  0.40351999  0.20332821  0.00230210  1
  Nb  Nb127  1  0.61204842  0.79827399  -0.00402642  1
  Nb  Nb128  1  0.20346837  0.40885550  0.39572910  1
  Nb  Nb129  1  -0.00736204  0.20031318  0.79216450  1
  Nb  Nb130  1  0.59529145  0.40157040  0.00695489  1
  Nb  Nb131  1  0.79990112  0.39484588  0.80066411  1
  Nb  Nb132  1  0.39534030  0.79833791  0.20633610  1
  Nb  Nb133  1  -0.00489305  0.20544454  0.40553380  1
  Nb  Nb134  1  0.79712426  -0.00349097  0.80569194  1
  Nb  Nb135  1  0.40493488  0.00665607  0.79679192  1
  Nb  Nb136  1  0.39531359  0.79880821  0.39107986  1
  Nb  Nb137  1  0.39983691  0.19513918  0.80553649  1
  Nb  Nb138  1  0.60330964  0.19937948  0.40474410  1
  Nb  Nb139  1  0.20377520  0.40966847  0.20681590  1
  Nb  Nb140  1  0.80275510  0.19717064  0.20340675  1
  Nb  Nb141  1  0.79687735  -0.00460997  0.39594900  1
  Nb  Nb142  1  0.00103862  0.20188055  0.59680516  1
  Nb  Nb143  1  0.59848756  0.39977745  0.19965037  1
  Nb  Nb144  1  0.79827708  0.39510154  0.20087722  1
  Nb  Nb145  1  0.60452725  -0.00644701  0.80230108  1
  Nb  Nb146  1  0.40617422  0.39669478  0.00503077  1
  Nb  Nb147  1  0.39628572  -0.00555388  0.20206776  1
  Nb  Nb148  1  0.59459548  0.39880677  0.39484146  1
  Nb  Nb149  1  0.80484742  0.19680615  0.79911538  1
  Pd  Pd150  1  0.39888597  0.00952169  0.00644618  1
  Pd  Pd151  1  -0.00683281  0.39240281  0.80043761  1
  Pd  Pd152  1  0.20219623  0.20272301  -0.00030722  1
  Pd  Pd153  1  0.79863204  0.18979764  0.39602684  1
  Pd  Pd154  1  0.40097664  0.61039650  0.19163961  1
  Pd  Pd155  1  0.19974710  0.80164811  0.80552276  1
  Pd  Pd156  1  0.01267039  0.39611919  0.40948036  1
  Pd  Pd157  1  0.60082978  -0.01158882  0.00095745  1
  Pd  Pd158  1  0.00682309  0.80825665  -0.01102228  1
  Pd  Pd159  1  0.79736508  0.80543716  0.40026326  1
  Pd  Pd160  1  0.00530283  0.39745482  0.59389488  1
  Pd  Pd161  1  0.59112762  0.59762190  0.20465538  1
  Pd  Pd162  1  0.60147928  0.00121942  0.40620042  1
  Pd  Pd163  1  0.00217774  0.79137933  0.59501076  1
  Pd  Pd164  1  -0.00737112  0.60546865  0.20662953  1
  Pd  Pd165  1  0.59016137  0.79867306  0.80377893  1
  Pd  Pd166  1  0.40104790  0.60498679  0.41014242  1
  Pd  Pd167  1  0.60496703  0.18774590  0.80668068  1
  Pd  Pd168  1  0.81133467  0.59864039  0.20077872  1
  Pd  Pd169  1  0.59053588  0.59534046  0.39903442  1
  Pd  Pd170  1  0.80629991  0.20600617  0.60288012  1
  Pd  Pd171  1  0.80423038  0.80149059  0.59488531  1
  Pd  Pd172  1  0.19752188  0.20921225  0.20871592  1
  Pd  Pd173  1  0.19639422  -0.00217370  0.39112775  1
  Pd  Pd174  1  0.19768736  -0.00375386  0.20527767  1
  Pd  Pd175  1  0.79617748  0.00093561  -0.00081110  1
  Pd  Pd176  1  0.20689205  0.59845558  0.60447508  1
  Pd  Pd177  1  0.20434697  0.59598045  -0.00725003  1
  Pd  Pd178  1  0.79742226  -0.01619286  0.59098978  1
  Pd  Pd179  1  0.00523907  0.00450789  0.58911091  1
  Pd  Pd180  1  -0.00189926  0.40828193  -0.00194479  1
  Pd  Pd181  1  0.39859716  0.39972345  0.19392200  1
  Pd  Pd182  1  0.59834246  -0.00708018  0.60158346  1
  Pd  Pd183  1  0.01093075  -0.01261117  0.00787839  1
  Pd  Pd184  1  0.18678112  0.80937854  -0.01416562  1
  Pd  Pd185  1  0.39823095  0.40482438  0.60186155  1
  Pd  Pd186  1  0.40118006  0.19969107  0.60654295  1
  Pd  Pd187  1  0.20014391  0.19810010  0.79697778  1
  Pd  Pd188  1  0.61058072  0.41644410  0.80786277  1
  Pd  Pd189  1  0.80285172  0.19044631  0.00716920  1
  Pd  Pd190  1  0.39754839  0.00288126  0.60503753  1
  Pd  Pd191  1  0.19598122  0.60070805  0.20485716  1
  Pd  Pd192  1  0.40568572  -0.00545126  0.39289174  1
  Pd  Pd193  1  0.18694835  -0.01150253  0.00153136  1
  Pd  Pd194  1  0.21175865  -0.00060437  0.79752568  1
  Pd  Pd195  1  0.18573627  0.21422616  0.38854567  1
  Pd  Pd196  1  0.20466190  0.79614016  0.39743632  1
  Pd  Pd197  1  -0.00228880  0.79225054  0.80059688  1
  Pd  Pd198  1  -0.00625268  0.60674829  0.39990752  1
  Pd  Pd199  1  -0.00407712  0.20210101  0.20374844  1
  Rh  Rh200  1  0.59718672  0.20566773  0.58759278  1
  Rh  Rh201  1  0.00119356  0.59907935  -0.00606099  1
  Rh  Rh202  1  0.59140209  0.80194814  0.18727250  1
  Rh  Rh203  1  0.19863103  0.80248377  0.59483140  1
  Rh  Rh204  1  0.79822822  0.79565247  0.00535077  1
  Rh  Rh205  1  0.20132822  0.60192100  0.79962093  1
  Rh  Rh206  1  0.61297172  0.20791965  0.20713880  1
  Rh  Rh207  1  0.00309782  0.60458916  0.80110649  1
  Rh  Rh208  1  0.39942982  0.39535441  0.80146463  1
  Rh  Rh209  1  0.80041606  0.00017172  0.20201287  1
  Rh  Rh210  1  0.20321351  0.41065940  0.59401436  1
  Rh  Rh211  1  0.59902266  0.60414143  0.61123146  1
  Rh  Rh212  1  0.40604876  0.60499076  0.79291085  1
  Rh  Rh213  1  0.39170425  0.60140384  0.00431549  1
  Rh  Rh214  1  0.40015970  0.60093658  0.60572242  1
  Rh  Rh215  1  -0.00056308  0.00993620  0.40735265  1
  Rh  Rh216  1  0.41006421  0.19294741  0.41045385  1
  Rh  Rh217  1  0.40213091  0.79003243  0.00962752  1
  Rh  Rh218  1  -0.00329781  0.40489044  0.19439019  1
  Rh  Rh219  1  0.39925281  0.40424766  0.40902431  1
  Rh  Rh220  1  0.79594005  0.40168850  0.00393626  1
  Rh  Rh221  1  0.58794919  -0.01152849  0.18815235  1
  Rh  Rh222  1  0.80851056  0.79844367  0.19858072  1
  Rh  Rh223  1  0.00930235  0.20234519  -0.00635856  1
  Rh  Rh224  1  0.00983608  -0.00464743  0.19499356  1
  Rh  Rh225  1  0.00205899  0.60384549  0.59607182  1
  Rh  Rh226  1  0.59530526  0.79754423  0.40305096  1
  Rh  Rh227  1  0.20089003  0.59676904  0.39935740  1
  Rh  Rh228  1  0.81087535  0.80384878  0.79350741  1
  Rh  Rh229  1  -0.00526095  0.79296114  0.21013953  1
  Rh  Rh230  1  0.39983091  0.80762850  0.79965039  1
  Rh  Rh231  1  0.00053248  0.79095690  0.39876321  1
  Rh  Rh232  1  -0.01426821  0.00899033  0.79747909  1
  Rh  Rh233  1  0.20356167  0.40693662  0.79437413  1
  Rh  Rh234  1  0.80365400  0.60956764  0.00278933  1
  Rh  Rh235  1  0.79371731  0.59203434  0.79485284  1
  Rh  Rh236  1  0.59685821  0.20280435  0.00655144  1
  Rh  Rh237  1  0.60321274  0.79420440  0.59841201  1
  Rh  Rh238  1  0.79060291  0.40591445  0.39781645  1
  Rh  Rh239  1  0.20910098  0.40710246  0.00859021  1
  Rh  Rh240  1  0.39016639  0.18354539  0.18967037  1
  Rh  Rh241  1  0.60494776  0.60376337  -0.00813829  1
  Rh  Rh242  1  0.20051080  -0.00235511  0.59740481  1
  Rh  Rh243  1  0.80262125  0.59950380  0.40263663  1
  Rh  Rh244  1  0.39113155  0.79977047  0.58802063  1
  Rh  Rh245  1  0.59666307  0.40080592  0.59349421  1
  Rh  Rh246  1  0.80139979  0.59917893  0.59777393  1
  Rh  Rh247  1  0.79944905  0.40075752  0.60342935  1
  Rh  Rh248  1  0.19399986  0.20010247  0.60528870  1
  Rh  Rh249  1  0.20288948  0.79499905  0.20908040  1
