# generated using pymatgen
data_ZrScNbPdRh
_symmetry_space_group_name_H-M   'P 1'
_cell_length_a   16.55760630
_cell_length_b   16.55934972
_cell_length_c   16.56085649
_cell_angle_alpha   89.99110374
_cell_angle_beta   89.99528156
_cell_angle_gamma   89.99741892
_symmetry_Int_Tables_number   1
_chemical_formula_structural   ZrScNbPdRh
_chemical_formula_sum   'Zr50 Sc50 Nb50 Pd50 Rh50'
_cell_volume   4540.70844210
_cell_formula_units_Z   50
loop_
 _symmetry_equiv_pos_site_id
 _symmetry_equiv_pos_as_xyz
  1  'x, y, z'
loop_
 _atom_site_type_symbol
 _atom_site_label
 _atom_site_symmetry_multiplicity
 _atom_site_fract_x
 _atom_site_fract_y
 _atom_site_fract_z
 _atom_site_occupancy
  Zr  Zr0  1  0.50415659  0.70253096  0.70472666  1
  Zr  Zr1  1  0.90343642  0.09324283  0.29981553  1
  Zr  Zr2  1  0.90352721  0.50371681  0.30061261  1
  Zr  Zr3  1  0.49135061  0.09825407  0.29697489  1
  Zr  Zr4  1  0.10131787  0.30575585  0.10392249  1
  Zr  Zr5  1  0.90847593  0.09135778  0.69724146  1
  Zr  Zr6  1  0.49879100  0.69716342  0.90848136  1
  Zr  Zr7  1  0.70420480  0.30055210  0.70320391  1
  Zr  Zr8  1  0.69997445  0.50033754  0.90174517  1
  Zr  Zr9  1  0.09575431  0.50739163  0.50762888  1
  Zr  Zr10  1  0.90056564  0.29876387  0.09513962  1
  Zr  Zr11  1  0.50066824  0.48455136  0.30459754  1
  Zr  Zr12  1  0.89893974  0.70428667  0.69432387  1
  Zr  Zr13  1  0.29659798  0.10865135  0.30079952  1
  Zr  Zr14  1  0.90546510  0.10134494  0.90062704  1
  Zr  Zr15  1  0.70169285  0.70277544  0.69940352  1
  Zr  Zr16  1  0.49060554  0.70394985  0.50385703  1
  Zr  Zr17  1  0.49216889  0.09663778  0.89192644  1
  Zr  Zr18  1  0.49845277  0.49858965  0.90894801  1
  Zr  Zr19  1  0.49663536  0.89852312  0.48579450  1
  Zr  Zr20  1  0.70218073  0.10487926  0.69107501  1
  Zr  Zr21  1  0.91275696  0.90337952  0.29600079  1
  Zr  Zr22  1  0.09174207  0.90074579  0.69461107  1
  Zr  Zr23  1  0.50135927  0.30214142  0.09793570  1
  Zr  Zr24  1  0.68459395  0.30715073  0.30467644  1
  Zr  Zr25  1  0.90737161  0.30201701  0.70321898  1
  Zr  Zr26  1  0.09887365  0.89076451  0.90030278  1
  Zr  Zr27  1  0.49350314  0.29401518  0.69094059  1
  Zr  Zr28  1  0.49647519  0.70676997  0.30091125  1
  Zr  Zr29  1  0.70853634  0.09661349  0.49735015  1
  Zr  Zr30  1  0.29543801  0.08838034  0.50479716  1
  Zr  Zr31  1  0.09718111  0.49311639  0.70457769  1
  Zr  Zr32  1  0.49182002  0.50525013  0.69342084  1
  Zr  Zr33  1  0.70737033  0.70272166  0.49644655  1
  Zr  Zr34  1  0.10103790  0.90044840  0.10642686  1
  Zr  Zr35  1  0.89746734  0.89729970  0.89178526  1
  Zr  Zr36  1  0.71646271  0.89404956  0.70870046  1
  Zr  Zr37  1  0.29526256  0.70013710  0.69164455  1
  Zr  Zr38  1  0.29243312  0.89363240  0.50252001  1
  Zr  Zr39  1  0.49735193  0.89985496  0.29037632  1
  Zr  Zr40  1  0.09522044  0.70246475  0.30933277  1
  Zr  Zr41  1  0.10739742  0.49955736  0.09679936  1
  Zr  Zr42  1  0.48882504  0.29747616  0.29856863  1
  Zr  Zr43  1  0.90495199  0.10237041  0.49817466  1
  Zr  Zr44  1  0.70261653  0.50709428  0.69809602  1
  Zr  Zr45  1  0.49696830  0.30192542  0.89986605  1
  Zr  Zr46  1  0.70385788  0.09989570  0.29159230  1
  Zr  Zr47  1  0.90634452  0.49607587  0.89043170  1
  Zr  Zr48  1  0.69941659  0.30071046  0.90380440  1
  Zr  Zr49  1  0.29730747  0.49368364  0.90224870  1
  Sc  Sc50  1  0.90238923  0.49637211  0.09493142  1
  Sc  Sc51  1  0.70030082  0.50742425  0.09888946  1
  Sc  Sc52  1  0.70054039  0.51044504  0.49875025  1
  Sc  Sc53  1  0.89954356  0.70392601  0.30328869  1
  Sc  Sc54  1  0.49701768  0.10806015  0.50715564  1
  Sc  Sc55  1  0.90231934  0.89303344  0.09797816  1
  Sc  Sc56  1  0.31029276  0.09823081  0.70178844  1
  Sc  Sc57  1  0.50005978  0.90576183  0.71133966  1
  Sc  Sc58  1  0.49682910  0.70514132  0.09989727  1
  Sc  Sc59  1  0.49840656  0.30677940  0.48979196  1
  Sc  Sc60  1  0.29052114  0.88818445  0.90196096  1
  Sc  Sc61  1  0.10458946  0.69642004  0.08858728  1
  Sc  Sc62  1  0.90853943  0.31010830  0.29654668  1
  Sc  Sc63  1  0.69224361  0.29196588  0.50489121  1
  Sc  Sc64  1  0.69733893  0.50269631  0.29302066  1
  Sc  Sc65  1  0.70626322  0.89220635  0.30106837  1
  Sc  Sc66  1  0.10535822  0.69905303  0.89955538  1
  Sc  Sc67  1  0.09388754  0.09625900  0.49861364  1
  Sc  Sc68  1  0.89665778  0.30153626  0.90065123  1
  Sc  Sc69  1  0.10650161  0.10554627  0.10769178  1
  Sc  Sc70  1  0.10124942  0.09510462  0.30267424  1
  Sc  Sc71  1  0.30716883  0.29926046  0.50607778  1
  Sc  Sc72  1  0.89813090  0.69931974  0.09394842  1
  Sc  Sc73  1  0.30045675  0.89545504  0.10852500  1
  Sc  Sc74  1  0.10855977  0.29203787  0.90119550  1
  Sc  Sc75  1  0.09859211  0.69940641  0.70010213  1
  Sc  Sc76  1  0.51283931  0.89704058  0.90515243  1
  Sc  Sc77  1  0.89542743  0.10059227  0.10498803  1
  Sc  Sc78  1  0.30227244  0.69436051  0.09748803  1
  Sc  Sc79  1  0.30264349  0.49978373  0.28610873  1
  Sc  Sc80  1  0.29150622  0.90130734  0.69375655  1
  Sc  Sc81  1  0.30012769  0.30784927  0.70538792  1
  Sc  Sc82  1  0.49601485  0.50571846  0.09733821  1
  Sc  Sc83  1  0.69555036  0.70776391  0.90087020  1
  Sc  Sc84  1  0.08879799  0.29660454  0.49962398  1
  Sc  Sc85  1  0.49933428  0.10135587  0.70193005  1
  Sc  Sc86  1  0.71312977  0.90046880  0.49213287  1
  Sc  Sc87  1  0.10295998  0.30058153  0.30409198  1
  Sc  Sc88  1  0.29640526  0.10396858  0.11425042  1
  Sc  Sc89  1  0.30390479  0.91021523  0.30462520  1
  Sc  Sc90  1  0.70211351  0.29410275  0.09653923  1
  Sc  Sc91  1  0.09874326  0.50469972  0.90086414  1
  Sc  Sc92  1  0.69154522  0.89522338  0.09615451  1
  Sc  Sc93  1  0.28983492  0.30052079  0.10462584  1
  Sc  Sc94  1  0.69216792  0.10383206  0.89846266  1
  Sc  Sc95  1  0.50601405  0.09604117  0.10783942  1
  Sc  Sc96  1  0.90454860  0.91049246  0.50343765  1
  Sc  Sc97  1  0.70053254  0.70304212  0.29511171  1
  Sc  Sc98  1  0.10616695  0.49550502  0.28989980  1
  Sc  Sc99  1  0.90917830  0.70048795  0.90610048  1
  Nb  Nb100  1  0.10132470  0.70270325  0.49968593  1
  Nb  Nb101  1  0.70836784  0.09975992  0.09747979  1
  Nb  Nb102  1  0.91197541  0.67852138  0.49598768  1
  Nb  Nb103  1  0.29690032  0.69937392  0.89709338  1
  Nb  Nb104  1  0.29594520  0.10364561  0.90271748  1
  Nb  Nb105  1  0.90108648  0.50465424  0.50190925  1
  Nb  Nb106  1  0.70390531  0.89565210  0.90297553  1
  Nb  Nb107  1  0.28741431  0.50430137  0.09881610  1
  Nb  Nb108  1  0.29191671  0.69980229  0.50085658  1
  Nb  Nb109  1  0.49260421  0.90143143  0.10143801  1
  Nb  Nb110  1  0.09733743  0.10184559  0.70263999  1
  Nb  Nb111  1  0.30293279  0.29255959  0.90405058  1
  Nb  Nb112  1  0.30203990  0.30175474  0.30483306  1
  Nb  Nb113  1  0.09975576  0.29329696  0.69848575  1
  Nb  Nb114  1  0.10683776  0.89455495  0.49606656  1
  Nb  Nb115  1  0.29549839  0.69566605  0.29872528  1
  Nb  Nb116  1  0.90213648  0.30229608  0.49417668  1
  Nb  Nb117  1  0.90378380  0.49995724  0.70158570  1
  Nb  Nb118  1  0.10397365  0.09895733  0.90001087  1
  Nb  Nb119  1  0.90123542  0.90357095  0.70299109  1
  Nb  Nb120  1  0.49389507  0.50045388  0.49823623  1
  Nb  Nb121  1  0.30110913  0.50315607  0.51268315  1
  Nb  Nb122  1  0.09894942  0.89702597  0.30030815  1
  Nb  Nb123  1  0.70011066  0.70022947  0.09399624  1
  Nb  Nb124  1  0.29481029  0.50086292  0.69176245  1
  Nb  Nb125  1  0.39613737  0.79198413  0.80397402  1
  Nb  Nb126  1  0.59944173  0.00070594  0.39846896  1
  Nb  Nb127  1  0.80386890  0.20737862  0.39632376  1
  Nb  Nb128  1  0.20070446  0.00419137  -0.00243767  1
  Nb  Nb129  1  0.80209914  0.39932529  0.40740197  1
  Nb  Nb130  1  0.20792683  0.40747711  0.40610705  1
  Nb  Nb131  1  0.59672459  0.40165132  0.79493156  1
  Nb  Nb132  1  0.80563739  0.40344453  0.59567470  1
  Nb  Nb133  1  0.39539339  0.19558713  -0.00119855  1
  Nb  Nb134  1  -0.00076538  0.20231560  0.20140803  1
  Nb  Nb135  1  0.39103792  0.60053342  0.80042964  1
  Nb  Nb136  1  0.58810508  0.60281237  0.39975039  1
  Nb  Nb137  1  0.20478736  0.59978694  0.40496125  1
  Nb  Nb138  1  0.79719261  -0.00137066  -0.00260967  1
  Nb  Nb139  1  0.19825806  0.79636347  0.21093488  1
  Nb  Nb140  1  0.60569314  -0.00713673  0.59564648  1
  Nb  Nb141  1  0.00291167  0.59946900  0.19870245  1
  Nb  Nb142  1  0.19366789  0.19728098  0.60711997  1
  Nb  Nb143  1  0.60035418  0.40520173  0.60128564  1
  Nb  Nb144  1  0.80482768  0.59973727  0.79768088  1
  Nb  Nb145  1  0.00334588  0.00185679  -0.00347040  1
  Nb  Nb146  1  0.39292036  0.59788469  0.40386609  1
  Nb  Nb147  1  0.19423231  0.00580615  0.80376759  1
  Nb  Nb148  1  0.39498173  0.00201315  0.00049059  1
  Nb  Nb149  1  0.60325685  0.80775702  0.59830578  1
  Pd  Pd150  1  0.59603567  0.20531035  0.79644439  1
  Pd  Pd151  1  -0.00363463  0.79862501  0.59033674  1
  Pd  Pd152  1  0.00636208  0.78669044  0.19191531  1
  Pd  Pd153  1  0.00016873  0.79233893  0.79935654  1
  Pd  Pd154  1  0.79713307  -0.01395341  0.19015353  1
  Pd  Pd155  1  0.39305371  0.39907322  0.18950584  1
  Pd  Pd156  1  0.38551295  -0.01609570  0.81068691  1
  Pd  Pd157  1  0.60045090  0.19081220  0.40055275  1
  Pd  Pd158  1  0.00654470  0.40800277  0.39900857  1
  Pd  Pd159  1  0.59245818  0.19177989  0.00238073  1
  Pd  Pd160  1  0.79752602  0.40314087  0.00446714  1
  Pd  Pd161  1  0.39611661  0.19520010  0.40840743  1
  Pd  Pd162  1  0.59810506  0.59619936  0.80750287  1
  Pd  Pd163  1  0.19573697  -0.00213382  0.39680326  1
  Pd  Pd164  1  0.61097264  -0.00282807  0.79317444  1
  Pd  Pd165  1  0.38623100  0.79763982  0.39354723  1
  Pd  Pd166  1  0.80801023  0.60577579  0.19880402  1
  Pd  Pd167  1  0.79603938  0.39757941  0.20221511  1
  Pd  Pd168  1  0.20154089  0.59644166  0.79851935  1
  Pd  Pd169  1  0.60120006  0.79827676  0.19326716  1
  Pd  Pd170  1  0.20719932  0.19653677  0.79161681  1
  Pd  Pd171  1  0.00489006  0.19478252  0.00867169  1
  Pd  Pd172  1  0.81679028  0.79972127  0.40468884  1
  Pd  Pd173  1  0.59985115  0.00316317  0.00274774  1
  Pd  Pd174  1  0.80461333  0.19434548  0.80299236  1
  Pd  Pd175  1  0.40617772  0.81075348  0.60991336  1
  Pd  Pd176  1  0.19979561  0.20816249  0.41203654  1
  Pd  Pd177  1  0.38875685  0.39547273  0.01169418  1
  Pd  Pd178  1  0.19665575  0.39582891  0.80466447  1
  Pd  Pd179  1  0.80534032  0.21258782  0.20841990  1
  Pd  Pd180  1  0.81079066  0.20785308  0.59508141  1
  Pd  Pd181  1  -0.00273523  0.39905810  0.59883456  1
  Pd  Pd182  1  0.60366215  0.40343681  0.18708293  1
  Pd  Pd183  1  0.00676288  0.39829189  -0.00902032  1
  Pd  Pd184  1  0.80894520  0.80180967  0.58886882  1
  Pd  Pd185  1  0.60722824  -0.00563946  0.20229781  1
  Pd  Pd186  1  0.59796390  0.60431062  0.58984462  1
  Pd  Pd187  1  0.39700625  0.80679514  -0.00248573  1
  Pd  Pd188  1  0.00032157  0.20446255  0.80510007  1
  Pd  Pd189  1  0.79201857  0.59626791  0.39067051  1
  Pd  Pd190  1  0.80129096  0.79946199  0.19377247  1
  Pd  Pd191  1  0.59924698  0.20067015  0.19666206  1
  Pd  Pd192  1  0.40504384  0.59925915  0.20158178  1
  Pd  Pd193  1  0.19614637  0.38826469  0.59380644  1
  Pd  Pd194  1  -0.00728634  0.80501278  0.41191024  1
  Pd  Pd195  1  0.40093577  0.40501782  0.79639239  1
  Pd  Pd196  1  0.80295867  0.60215777  -0.00922211  1
  Pd  Pd197  1  0.59317221  0.60274448  0.20183494  1
  Pd  Pd198  1  0.40993386  -0.00677967  0.59963212  1
  Pd  Pd199  1  0.79427998  0.01050270  0.80597082  1
  Rh  Rh200  1  0.79765256  0.00394323  0.39051789  1
  Rh  Rh201  1  0.39112768  0.59703346  -0.00262714  1
  Rh  Rh202  1  0.79673831  0.80205908  0.00044589  1
  Rh  Rh203  1  0.59737599  0.80534255  0.79784071  1
  Rh  Rh204  1  0.80946253  0.59695740  0.60463487  1
  Rh  Rh205  1  0.00364219  0.60200829  0.60855395  1
  Rh  Rh206  1  0.00429856  0.00882652  0.19225190  1
  Rh  Rh207  1  0.38654178  0.40746360  0.40243270  1
  Rh  Rh208  1  0.79479982  0.40801796  0.79489750  1
  Rh  Rh209  1  0.20676867  0.39504744  0.20913266  1
  Rh  Rh210  1  0.59544044  0.20046847  0.59865007  1
  Rh  Rh211  1  0.20296564  0.79814085  0.39564412  1
  Rh  Rh212  1  0.00943867  0.59190902  0.39280913  1
  Rh  Rh213  1  0.18988355  0.60884962  0.20423007  1
  Rh  Rh214  1  0.39606974  0.20331778  0.80244855  1
  Rh  Rh215  1  0.20260665  0.80502890  0.79106083  1
  Rh  Rh216  1  0.20435770  0.60058534  -0.00679994  1
  Rh  Rh217  1  0.80678246  0.78761367  0.80828340  1
  Rh  Rh218  1  0.39114279  0.79886377  0.20266000  1
  Rh  Rh219  1  0.60673281  0.79971700  0.40447250  1
  Rh  Rh220  1  0.19314004  0.20668198  0.21036822  1
  Rh  Rh221  1  -0.00626728  0.19778241  0.39030816  1
  Rh  Rh222  1  0.00148700  0.19969404  0.60087469  1
  Rh  Rh223  1  0.00100764  0.40106795  0.19477100  1
  Rh  Rh224  1  0.00866666  -0.00727065  0.40314115  1
  Rh  Rh225  1  0.20028764  -0.00849347  0.20283579  1
  Rh  Rh226  1  0.60151106  0.60523302  0.00636891  1
  Rh  Rh227  1  0.61118660  0.41149135  0.41204549  1
  Rh  Rh228  1  0.79984632  -0.00382177  0.60644507  1
  Rh  Rh229  1  0.19061366  0.60373421  0.60041744  1
  Rh  Rh230  1  0.19990492  0.39670764  -0.00485350  1
  Rh  Rh231  1  0.20466320  0.19724523  0.00565700  1
  Rh  Rh232  1  0.39867717  0.20687256  0.19295724  1
  Rh  Rh233  1  0.79736942  0.19193789  -0.00544252  1
  Rh  Rh234  1  0.00053352  0.59647118  0.00481697  1
  Rh  Rh235  1  0.00617480  -0.00238280  0.59573406  1
  Rh  Rh236  1  0.19134673  0.00704263  0.60658653  1
  Rh  Rh237  1  0.40446459  0.39769514  0.59844719  1
  Rh  Rh238  1  0.01076755  0.39093734  0.80472561  1
  Rh  Rh239  1  0.59893084  0.79836505  0.00672275  1
  Rh  Rh240  1  0.60564147  0.40342888  0.00080043  1
  Rh  Rh241  1  -0.00429324  0.60390597  0.79585420  1
  Rh  Rh242  1  0.39625223  0.60407202  0.60103956  1
  Rh  Rh243  1  0.20352268  0.80028493  0.01187807  1
  Rh  Rh244  1  0.00678874  -0.00209579  0.80439275  1
  Rh  Rh245  1  0.00236177  0.80283792  0.00113984  1
  Rh  Rh246  1  0.19066474  0.79723215  0.60162718  1
  Rh  Rh247  1  0.38991467  0.19910603  0.60100090  1
  Rh  Rh248  1  0.40308777  0.00730108  0.40242859  1
  Rh  Rh249  1  0.39558746  0.00117255  0.19312925  1
