# generated using pymatgen
data_ZrScNbPdRh
_symmetry_space_group_name_H-M   'P 1'
_cell_length_a   16.55763050
_cell_length_b   16.55859378
_cell_length_c   16.55847801
_cell_angle_alpha   89.98423529
_cell_angle_beta   90.00932068
_cell_angle_gamma   90.04076746
_symmetry_Int_Tables_number   1
_chemical_formula_structural   ZrScNbPdRh
_chemical_formula_sum   'Zr50 Sc50 Nb50 Pd50 Rh50'
_cell_volume   4539.85437383
_cell_formula_units_Z   50
loop_
 _symmetry_equiv_pos_site_id
 _symmetry_equiv_pos_as_xyz
  1  'x, y, z'
loop_
 _atom_site_type_symbol
 _atom_site_label
 _atom_site_symmetry_multiplicity
 _atom_site_fract_x
 _atom_site_fract_y
 _atom_site_fract_z
 _atom_site_occupancy
  Zr  Zr0  1  0.09820892  0.70823272  0.30008585  1
  Zr  Zr1  1  0.10789051  0.29969797  0.70235685  1
  Zr  Zr2  1  0.90230078  0.29575022  0.30378885  1
  Zr  Zr3  1  0.90173773  0.10219208  0.29904842  1
  Zr  Zr4  1  0.10118240  0.69659101  0.49959674  1
  Zr  Zr5  1  0.69387132  0.69830430  0.89453895  1
  Zr  Zr6  1  0.09965117  0.90036064  0.29521970  1
  Zr  Zr7  1  0.70144757  0.70012881  0.51467350  1
  Zr  Zr8  1  0.30008709  0.70354651  0.50784152  1
  Zr  Zr9  1  0.29756156  0.10189777  0.70148064  1
  Zr  Zr10  1  0.09363899  0.70125499  0.89454520  1
  Zr  Zr11  1  0.48793071  0.29788478  0.10124134  1
  Zr  Zr12  1  0.89057697  0.50075930  0.10198300  1
  Zr  Zr13  1  0.70117073  0.30398460  0.89889843  1
  Zr  Zr14  1  0.89713648  0.29381053  0.50223769  1
  Zr  Zr15  1  0.89575494  0.70849580  0.90414651  1
  Zr  Zr16  1  0.30068927  0.69636459  0.90270462  1
  Zr  Zr17  1  0.29397974  0.50415826  0.50255749  1
  Zr  Zr18  1  0.50594892  0.10324880  0.70936638  1
  Zr  Zr19  1  0.30175575  0.50115764  0.69860539  1
  Zr  Zr20  1  0.30487433  0.70334766  0.29287823  1
  Zr  Zr21  1  0.69485776  0.10392416  0.89192445  1
  Zr  Zr22  1  0.30059190  0.09079024  0.49828738  1
  Zr  Zr23  1  0.30048893  0.30556179  0.70695940  1
  Zr  Zr24  1  0.49957973  0.50491019  0.89361189  1
  Zr  Zr25  1  0.50351282  0.51640418  0.30066651  1
  Zr  Zr26  1  0.29914110  0.29765291  0.29178198  1
  Zr  Zr27  1  0.31862393  0.89953857  0.50272729  1
  Zr  Zr28  1  0.50037207  0.88926917  0.30314799  1
  Zr  Zr29  1  0.10582858  0.31222838  0.90054469  1
  Zr  Zr30  1  0.11958563  0.90189050  0.48976641  1
  Zr  Zr31  1  0.90153545  0.49715646  0.69517261  1
  Zr  Zr32  1  0.29645400  0.49202826  0.30378215  1
  Zr  Zr33  1  0.89307115  0.29971993  0.89757685  1
  Zr  Zr34  1  0.68706229  0.09922318  0.10412011  1
  Zr  Zr35  1  0.29814509  0.10349122  0.08833503  1
  Zr  Zr36  1  0.11174884  0.09715717  0.89583659  1
  Zr  Zr37  1  0.91064343  0.69349505  0.29799779  1
  Zr  Zr38  1  0.70482323  0.49665866  0.50641289  1
  Zr  Zr39  1  0.10181952  0.69491074  0.70001590  1
  Zr  Zr40  1  0.49774429  0.71042465  0.49842951  1
  Zr  Zr41  1  0.09334339  0.50349145  0.29426793  1
  Zr  Zr42  1  0.49595695  0.70047984  0.11407328  1
  Zr  Zr43  1  0.09282371  0.10700005  0.29438269  1
  Zr  Zr44  1  0.69878087  0.29370420  0.70669270  1
  Zr  Zr45  1  0.70265971  0.50080394  0.29553493  1
  Zr  Zr46  1  0.89338141  0.89581998  0.08908745  1
  Zr  Zr47  1  0.49757145  0.30704211  0.89322001  1
  Zr  Zr48  1  0.09530384  0.49075420  0.08829565  1
  Zr  Zr49  1  0.49179443  0.50557550  0.50265967  1
  Sc  Sc50  1  0.70105528  0.89232444  0.51075950  1
  Sc  Sc51  1  0.09941749  0.30201418  0.49965286  1
  Sc  Sc52  1  0.09209101  0.70242268  0.10493155  1
  Sc  Sc53  1  0.09951461  0.90237476  0.89394407  1
  Sc  Sc54  1  0.49380936  0.10175413  0.10290436  1
  Sc  Sc55  1  0.10683040  0.90488926  0.70790419  1
  Sc  Sc56  1  0.70395689  0.89939974  0.69908426  1
  Sc  Sc57  1  0.51344378  0.69136003  0.70843366  1
  Sc  Sc58  1  0.89448640  0.30726938  0.09462018  1
  Sc  Sc59  1  0.29159331  0.90134798  0.31173931  1
  Sc  Sc60  1  0.90749515  0.69742265  0.70478232  1
  Sc  Sc61  1  0.49670519  0.49930378  0.09276481  1
  Sc  Sc62  1  0.90127253  0.49165321  0.29423053  1
  Sc  Sc63  1  0.29590346  0.91217544  0.89794562  1
  Sc  Sc64  1  0.09610163  0.49689056  0.69934713  1
  Sc  Sc65  1  0.71162928  0.89917598  0.89189706  1
  Sc  Sc66  1  0.69948215  0.09788178  0.69889331  1
  Sc  Sc67  1  0.90580477  0.09270252  0.68725280  1
  Sc  Sc68  1  0.09901312  0.30463521  0.29419779  1
  Sc  Sc69  1  0.49352955  0.29009410  0.29943985  1
  Sc  Sc70  1  0.50206478  0.90809548  0.69411150  1
  Sc  Sc71  1  0.69476886  0.88840123  0.29258378  1
  Sc  Sc72  1  0.89924718  0.88709871  0.29473650  1
  Sc  Sc73  1  0.29905195  0.31159703  0.49164985  1
  Sc  Sc74  1  0.70602244  0.29576859  0.50596460  1
  Sc  Sc75  1  0.69796224  0.50041945  0.69935252  1
  Sc  Sc76  1  0.70535149  0.10492030  0.50867352  1
  Sc  Sc77  1  0.09741796  0.49715631  0.50723029  1
  Sc  Sc78  1  0.09988383  0.10173987  0.50794561  1
  Sc  Sc79  1  0.70513786  0.30589627  0.09296183  1
  Sc  Sc80  1  0.49550058  0.09926536  0.49550691  1
  Sc  Sc81  1  0.10600224  0.09928127  0.10237430  1
  Sc  Sc82  1  0.29783989  0.29768627  0.90320090  1
  Sc  Sc83  1  0.10065900  0.90839690  0.10691293  1
  Sc  Sc84  1  0.29923988  0.70572525  0.69826176  1
  Sc  Sc85  1  0.30713178  0.10082872  0.30528139  1
  Sc  Sc86  1  0.50218213  0.90108457  0.10751327  1
  Sc  Sc87  1  0.90886369  0.09230185  0.09746942  1
  Sc  Sc88  1  0.89872745  0.70186217  0.09664529  1
  Sc  Sc89  1  0.88948404  0.89893111  0.50950794  1
  Sc  Sc90  1  0.50375729  0.10581216  0.29463407  1
  Sc  Sc91  1  0.89970487  0.08874227  0.89897448  1
  Sc  Sc92  1  0.69104030  0.69640809  0.29794354  1
  Sc  Sc93  1  0.90201710  0.70004820  0.50295842  1
  Sc  Sc94  1  0.70546397  0.69285367  0.09339612  1
  Sc  Sc95  1  0.91102656  0.49882269  0.90253144  1
  Sc  Sc96  1  0.10445860  0.09657511  0.69757883  1
  Sc  Sc97  1  0.69510477  0.29233200  0.30039374  1
  Sc  Sc98  1  0.30282993  0.90061235  0.69397709  1
  Sc  Sc99  1  0.89760442  0.90316887  0.70300083  1
  Nb  Nb100  1  0.89258827  0.49397846  0.50340895  1
  Nb  Nb101  1  0.10599612  0.50051081  0.90011208  1
  Nb  Nb102  1  0.49855262  0.30726663  0.70329999  1
  Nb  Nb103  1  0.49969628  0.29844102  0.49917828  1
  Nb  Nb104  1  0.29931320  0.50032801  0.09168170  1
  Nb  Nb105  1  0.70224813  0.49762084  0.10008101  1
  Nb  Nb106  1  0.49154402  0.09524763  0.90364272  1
  Nb  Nb107  1  0.49703705  0.90286866  0.49826755  1
  Nb  Nb108  1  0.50347006  0.70133280  0.29925807  1
  Nb  Nb109  1  0.70665277  0.70057519  0.70671027  1
  Nb  Nb110  1  0.69384209  0.09528628  0.29465725  1
  Nb  Nb111  1  0.90031319  0.89869052  0.89952119  1
  Nb  Nb112  1  0.69442393  0.89945006  0.09778033  1
  Nb  Nb113  1  0.11150323  0.29253545  0.09361816  1
  Nb  Nb114  1  0.30706953  0.09964289  0.90223346  1
  Nb  Nb115  1  0.69542165  0.50360404  0.91316580  1
  Nb  Nb116  1  0.50153536  0.70474120  0.90009152  1
  Nb  Nb117  1  0.29747522  0.50169204  0.90770128  1
  Nb  Nb118  1  0.29617104  0.90183635  0.09989424  1
  Nb  Nb119  1  0.90065004  0.09918651  0.49529516  1
  Nb  Nb120  1  0.49795029  0.90574663  0.90133941  1
  Nb  Nb121  1  0.49777040  0.48696952  0.70609264  1
  Nb  Nb122  1  0.29779580  0.70125650  0.09859964  1
  Nb  Nb123  1  0.89716675  0.30166064  0.70365132  1
  Nb  Nb124  1  0.29664142  0.29980866  0.09982051  1
  Nb  Nb125  1  0.19935914  0.59616418  0.80668682  1
  Nb  Nb126  1  0.00104907  0.20280609  0.80192718  1
  Nb  Nb127  1  0.59023034  0.39511757  0.60045987  1
  Nb  Nb128  1  0.79602508  0.60055722  0.80516430  1
  Nb  Nb129  1  0.00865791  0.80200589  0.59936223  1
  Nb  Nb130  1  0.39576905  -0.00427039  0.19890308  1
  Nb  Nb131  1  0.59314865  0.19761775  -0.00616297  1
  Nb  Nb132  1  0.20554571  0.80043611  0.00394699  1
  Nb  Nb133  1  0.60010674  0.40477594  0.20167364  1
  Nb  Nb134  1  0.19907488  0.20125416  0.39676204  1
  Nb  Nb135  1  0.40745996  0.80145948  0.80941498  1
  Nb  Nb136  1  0.79330874  -0.00015162  0.20015160  1
  Nb  Nb137  1  0.60558400  -0.00304734  0.39919687  1
  Nb  Nb138  1  0.20296469  0.59768074  0.19419651  1
  Nb  Nb139  1  0.79845356  0.19197117  0.19983912  1
  Nb  Nb140  1  0.80273118  0.59582805  0.40392640  1
  Nb  Nb141  1  0.40429945  0.20804394  0.60212006  1
  Nb  Nb142  1  0.19828283  0.60101335  0.39366822  1
  Nb  Nb143  1  0.39967506  0.80280373  0.00025595  1
  Nb  Nb144  1  0.79649893  0.00151011  0.39411081  1
  Nb  Nb145  1  0.00602047  0.20385903  -0.00719142  1
  Nb  Nb146  1  0.59474266  0.80345183  -0.00485342  1
  Nb  Nb147  1  0.59644433  -0.00157493  -0.00532588  1
  Nb  Nb148  1  0.59535001  0.40039453  0.40328801  1
  Nb  Nb149  1  -0.00712136  0.00159721  0.40238379  1
  Pd  Pd150  1  -0.00635079  0.21009104  0.18287829  1
  Pd  Pd151  1  0.39892945  0.20120228  0.79987853  1
  Pd  Pd152  1  -0.00694340  0.81241660  0.41157105  1
  Pd  Pd153  1  0.59334272  0.20237557  0.59985137  1
  Pd  Pd154  1  -0.00013303  0.39143734  0.18996533  1
  Pd  Pd155  1  0.19009221  0.60829282  0.00310327  1
  Pd  Pd156  1  0.79478958  0.39889379  0.39512924  1
  Pd  Pd157  1  0.20979716  0.00802570  0.20601117  1
  Pd  Pd158  1  0.21143839  0.20748228  0.58915976  1
  Pd  Pd159  1  0.60803531  0.80175602  0.40571965  1
  Pd  Pd160  1  0.00937742  0.00191849  -0.00424392  1
  Pd  Pd161  1  0.59528414  0.80083563  0.61034565  1
  Pd  Pd162  1  0.60301518  0.19671964  0.40598848  1
  Pd  Pd163  1  0.00100372  0.40203193  0.40537925  1
  Pd  Pd164  1  0.40865429  0.39715084  0.39267860  1
  Pd  Pd165  1  0.60824683  0.60107987  0.40940013  1
  Pd  Pd166  1  0.01196847  0.80932063  0.00331509  1
  Pd  Pd167  1  0.60021188  0.00285729  0.59149871  1
  Pd  Pd168  1  0.79670596  0.79448114  0.40006069  1
  Pd  Pd169  1  0.80114574  0.60701690  0.20544587  1
  Pd  Pd170  1  0.40807914  0.60455399  0.00159137  1
  Pd  Pd171  1  0.19849489  0.40430603  0.19103434  1
  Pd  Pd172  1  -0.00120708  0.20490787  0.60700530  1
  Pd  Pd173  1  0.80230850  0.00391666  0.79424085  1
  Pd  Pd174  1  0.79056667  0.19368830  0.39539237  1
  Pd  Pd175  1  0.59478266  0.59331378  0.60548819  1
  Pd  Pd176  1  0.40842801  0.60881923  0.61185112  1
  Pd  Pd177  1  0.39292559  0.81048663  0.19953176  1
  Pd  Pd178  1  -0.00334757  0.80764992  0.79202813  1
  Pd  Pd179  1  0.39186343  0.60943911  0.40014956  1
  Pd  Pd180  1  -0.00413094  0.58833972  0.40829622  1
  Pd  Pd181  1  0.79391825  0.41419604  0.80349757  1
  Pd  Pd182  1  0.81292502  0.18605867  0.79125332  1
  Pd  Pd183  1  0.79557498  0.79476997  0.19630653  1
  Pd  Pd184  1  0.59319519  0.60628463  0.00688451  1
  Pd  Pd185  1  0.19649028  0.80661893  0.60501393  1
  Pd  Pd186  1  0.80813207  0.60534616  0.60547566  1
  Pd  Pd187  1  0.59511519  0.39429090  0.00674509  1
  Pd  Pd188  1  -0.00377137  0.60095945  0.00243258  1
  Pd  Pd189  1  0.39902135  0.39587000  0.59684564  1
  Pd  Pd190  1  0.39247191  0.59043862  0.19675274  1
  Pd  Pd191  1  0.00067922  0.39880411  0.79957188  1
  Pd  Pd192  1  0.80235786  0.18983887  0.00766624  1
  Pd  Pd193  1  0.79107518  0.00300549  0.00247612  1
  Pd  Pd194  1  0.39688343  -0.00534734  0.79324073  1
  Pd  Pd195  1  0.40680344  0.40878240  0.20204492  1
  Pd  Pd196  1  0.39510930  0.60487762  0.79479216  1
  Pd  Pd197  1  0.00637722  -0.01257698  0.59228664  1
  Pd  Pd198  1  0.59724992  0.81228157  0.79817840  1
  Pd  Pd199  1  -0.00077585  0.39242383  0.59838504  1
  Rh  Rh200  1  0.60853464  0.40574745  0.79712681  1
  Rh  Rh201  1  0.59241527  0.20214706  0.80754743  1
  Rh  Rh202  1  0.39739847  0.79602462  0.39725157  1
  Rh  Rh203  1  0.80848935  0.19859339  0.60788779  1
  Rh  Rh204  1  0.39049984  0.40576400  0.81028697  1
  Rh  Rh205  1  0.20002776  0.19871462  0.80428693  1
  Rh  Rh206  1  0.20449511  0.19693011  0.20418227  1
  Rh  Rh207  1  0.60243425  -0.00339142  0.80473799  1
  Rh  Rh208  1  0.78966330  0.80233709  -0.00305211  1
  Rh  Rh209  1  -0.00324581  0.60192195  0.59714716  1
  Rh  Rh210  1  0.79142907  0.38730813  0.20644542  1
  Rh  Rh211  1  0.00063382  0.59234466  0.80223025  1
  Rh  Rh212  1  0.59377148  -0.00827291  0.20443774  1
  Rh  Rh213  1  -0.00224995  0.00451504  0.80038808  1
  Rh  Rh214  1  0.19774777  0.79665850  0.19376706  1
  Rh  Rh215  1  0.60279152  0.59685836  0.19045417  1
  Rh  Rh216  1  0.20671576  0.41166433  0.80184500  1
  Rh  Rh217  1  0.41372966  0.79603535  0.61380752  1
  Rh  Rh218  1  0.39316160  0.39949105  -0.00416082  1
  Rh  Rh219  1  0.20994972  0.79509546  0.80821969  1
  Rh  Rh220  1  0.19989802  0.39956466  0.60146591  1
  Rh  Rh221  1  0.60710985  0.79115275  0.19122667  1
  Rh  Rh222  1  0.80625549  0.79586645  0.79754984  1
  Rh  Rh223  1  0.79530371  0.38962357  0.60762076  1
  Rh  Rh224  1  0.41613241  -0.00053440  0.38876827  1
  Rh  Rh225  1  0.20783367  0.00281327  0.79734671  1
  Rh  Rh226  1  0.19040514  0.40024599  0.39766584  1
  Rh  Rh227  1  0.01128622  0.19608374  0.40832586  1
  Rh  Rh228  1  -0.01331116  -0.01104930  0.20509947  1
  Rh  Rh229  1  0.19797983  -0.00493196  -0.00253168  1
  Rh  Rh230  1  0.39026292  0.18915178  0.19543844  1
  Rh  Rh231  1  0.20920375  0.39774399  0.00259913  1
  Rh  Rh232  1  0.60648003  0.58951624  0.79880740  1
  Rh  Rh233  1  0.40223939  -0.00482257  0.00976607  1
  Rh  Rh234  1  0.18665725  0.01679679  0.39173452  1
  Rh  Rh235  1  0.81024829  0.79453582  0.61221296  1
  Rh  Rh236  1  -0.00225987  0.39165389  0.00158030  1
  Rh  Rh237  1  0.21069909  0.78965997  0.40042445  1
  Rh  Rh238  1  0.80318501  0.41002671  -0.00819983  1
  Rh  Rh239  1  -0.00299536  0.80468188  0.19045494  1
  Rh  Rh240  1  0.40206447  0.20568248  -0.00434247  1
  Rh  Rh241  1  0.19921466  0.19959532  -0.00673337  1
  Rh  Rh242  1  0.38977816  0.20252817  0.40954086  1
  Rh  Rh243  1  0.80427374  0.59513724  -0.00680117  1
  Rh  Rh244  1  0.60482207  0.21683378  0.18664561  1
  Rh  Rh245  1  0.00128094  0.59603828  0.19142285  1
  Rh  Rh246  1  0.79575865  0.00218157  0.59472345  1
  Rh  Rh247  1  0.40613784  0.01170362  0.60451161  1
  Rh  Rh248  1  0.20332609  -0.00440516  0.60149329  1
  Rh  Rh249  1  0.19631661  0.59592799  0.60363915  1
