# generated using pymatgen
data_ZrScNbPdRh
_symmetry_space_group_name_H-M   'P 1'
_cell_length_a   16.56425678
_cell_length_b   16.56244308
_cell_length_c   16.56239682
_cell_angle_alpha   90.02002167
_cell_angle_beta   89.98431142
_cell_angle_gamma   90.01924705
_symmetry_Int_Tables_number   1
_chemical_formula_structural   ZrScNbPdRh
_chemical_formula_sum   'Zr50 Sc50 Nb50 Pd50 Rh50'
_cell_volume   4543.80276343
_cell_formula_units_Z   50
loop_
 _symmetry_equiv_pos_site_id
 _symmetry_equiv_pos_as_xyz
  1  'x, y, z'
loop_
 _atom_site_type_symbol
 _atom_site_label
 _atom_site_symmetry_multiplicity
 _atom_site_fract_x
 _atom_site_fract_y
 _atom_site_fract_z
 _atom_site_occupancy
  Zr  Zr0  1  0.09854461  0.70364478  0.10366426  1
  Zr  Zr1  1  0.90466023  0.69873333  0.29358873  1
  Zr  Zr2  1  0.50389634  0.09864133  0.49867359  1
  Zr  Zr3  1  0.30707510  0.70150570  0.90521561  1
  Zr  Zr4  1  0.30630824  0.49140325  0.09289400  1
  Zr  Zr5  1  0.09555199  0.29617139  0.49964969  1
  Zr  Zr6  1  0.89689620  0.68561522  0.89440703  1
  Zr  Zr7  1  0.69345474  0.50343265  0.49505647  1
  Zr  Zr8  1  0.89972230  0.30013534  0.90179413  1
  Zr  Zr9  1  0.30044454  0.09941746  0.49307291  1
  Zr  Zr10  1  0.90282846  0.10387903  0.29913378  1
  Zr  Zr11  1  0.09399850  0.09896332  0.49034730  1
  Zr  Zr12  1  0.30490686  0.90268309  0.49352060  1
  Zr  Zr13  1  0.50244150  0.49797418  0.10636934  1
  Zr  Zr14  1  0.90149865  0.69904343  0.70022667  1
  Zr  Zr15  1  0.29814253  0.90234641  0.70300926  1
  Zr  Zr16  1  0.70309871  0.89995679  0.69249742  1
  Zr  Zr17  1  0.49983913  0.70313885  0.70430765  1
  Zr  Zr18  1  0.29672279  0.70613029  0.10174481  1
  Zr  Zr19  1  0.09755975  0.90499837  0.70710651  1
  Zr  Zr20  1  0.70600552  0.69320348  0.29340390  1
  Zr  Zr21  1  0.69894959  0.49153730  0.69356091  1
  Zr  Zr22  1  0.90425457  0.51013107  0.70385904  1
  Zr  Zr23  1  0.69642792  0.50132311  0.29622606  1
  Zr  Zr24  1  0.89815198  0.29773044  0.10646854  1
  Zr  Zr25  1  0.90641098  0.09896771  0.70505719  1
  Zr  Zr26  1  0.29524176  0.09871660  0.89430016  1
  Zr  Zr27  1  0.89640896  0.89956909  0.69397032  1
  Zr  Zr28  1  0.70655445  0.30451821  0.29665119  1
  Zr  Zr29  1  0.69746243  0.29888233  0.49625450  1
  Zr  Zr30  1  0.29542310  0.49913333  0.51417216  1
  Zr  Zr31  1  0.69724401  0.09690813  0.09537422  1
  Zr  Zr32  1  0.49646903  0.69785026  0.90611651  1
  Zr  Zr33  1  0.49607417  0.50309383  0.69561557  1
  Zr  Zr34  1  0.90241174  0.89536125  0.29844674  1
  Zr  Zr35  1  0.29715857  0.29140670  0.30070025  1
  Zr  Zr36  1  0.70123942  0.89155075  0.29251255  1
  Zr  Zr37  1  0.09505529  0.90011903  0.29929523  1
  Zr  Zr38  1  0.09875274  0.30494114  0.10506045  1
  Zr  Zr39  1  0.90745103  0.49853232  0.09114198  1
  Zr  Zr40  1  0.49888554  0.89976041  0.30256658  1
  Zr  Zr41  1  0.51144825  0.90296244  0.10705084  1
  Zr  Zr42  1  0.88993981  0.50297102  0.29775491  1
  Zr  Zr43  1  0.49970868  0.90162465  0.69065226  1
  Zr  Zr44  1  0.49147578  0.10169772  0.29954185  1
  Zr  Zr45  1  0.70850836  0.49515793  0.90104990  1
  Zr  Zr46  1  0.49734289  0.09693150  0.10109924  1
  Zr  Zr47  1  0.50020097  0.09637429  0.69743522  1
  Zr  Zr48  1  0.90428867  0.30203082  0.30069666  1
  Zr  Zr49  1  0.70653319  0.70507155  0.90633605  1
  Sc  Sc50  1  0.69815366  0.10651803  0.31181567  1
  Sc  Sc51  1  0.90570872  0.90041153  0.49662723  1
  Sc  Sc52  1  0.30313418  0.09558828  0.12082976  1
  Sc  Sc53  1  0.49993930  0.49857409  0.50068008  1
  Sc  Sc54  1  0.09128013  0.48881605  0.89931629  1
  Sc  Sc55  1  0.29178807  0.89163381  0.89860441  1
  Sc  Sc56  1  0.50447620  0.29879260  0.89803846  1
  Sc  Sc57  1  0.90409586  0.70191591  0.49936632  1
  Sc  Sc58  1  0.29833021  0.30879692  0.10456498  1
  Sc  Sc59  1  0.88984418  0.28784670  0.69560357  1
  Sc  Sc60  1  0.50169779  0.31022253  0.09444632  1
  Sc  Sc61  1  0.49928535  0.30239505  0.70104429  1
  Sc  Sc62  1  0.91016418  0.09971035  0.09959399  1
  Sc  Sc63  1  0.90042594  0.49723415  0.89903043  1
  Sc  Sc64  1  0.30454450  0.09758126  0.70503020  1
  Sc  Sc65  1  0.29013896  0.30392004  0.90245042  1
  Sc  Sc66  1  0.11224777  0.70573105  0.89821758  1
  Sc  Sc67  1  0.49298399  0.50188226  0.91161867  1
  Sc  Sc68  1  0.08720993  0.10053617  0.88615618  1
  Sc  Sc69  1  0.89603853  0.50468631  0.49702562  1
  Sc  Sc70  1  0.08629525  0.49788711  0.29815902  1
  Sc  Sc71  1  0.31179557  0.49500570  0.29376703  1
  Sc  Sc72  1  0.49418321  0.89814054  0.91547197  1
  Sc  Sc73  1  0.70780305  0.90216705  0.50307554  1
  Sc  Sc74  1  0.70550244  0.09732248  0.49858893  1
  Sc  Sc75  1  0.09869246  0.29590777  0.70644723  1
  Sc  Sc76  1  0.49924638  0.70452402  0.10380666  1
  Sc  Sc77  1  0.09672531  0.89922925  0.10604671  1
  Sc  Sc78  1  0.09788605  0.29589070  0.89811954  1
  Sc  Sc79  1  0.49630821  0.69420087  0.49998397  1
  Sc  Sc80  1  0.30164148  0.30302487  0.50512755  1
  Sc  Sc81  1  0.70256557  0.10030716  0.89738846  1
  Sc  Sc82  1  0.89272415  0.91381164  0.90085538  1
  Sc  Sc83  1  0.71399525  0.10108406  0.69713033  1
  Sc  Sc84  1  0.69815442  0.30387731  0.89452823  1
  Sc  Sc85  1  0.49805683  0.30490870  0.49975760  1
  Sc  Sc86  1  0.50142095  0.30500737  0.30730680  1
  Sc  Sc87  1  0.49772971  0.69316147  0.29762977  1
  Sc  Sc88  1  0.49849250  0.10247237  0.89597699  1
  Sc  Sc89  1  0.50665333  0.50137369  0.30008555  1
  Sc  Sc90  1  0.10239144  0.50784818  0.51150060  1
  Sc  Sc91  1  0.71026266  0.70129660  0.69427451  1
  Sc  Sc92  1  0.30412050  0.89808741  0.10172089  1
  Sc  Sc93  1  0.09682332  0.68991700  0.69589228  1
  Sc  Sc94  1  0.30554054  0.70316096  0.70343610  1
  Sc  Sc95  1  0.50414728  0.90506990  0.50452750  1
  Sc  Sc96  1  0.90436434  0.90876995  0.09917132  1
  Sc  Sc97  1  0.89925895  0.29267559  0.49630538  1
  Sc  Sc98  1  0.29392817  0.30158027  0.69813447  1
  Sc  Sc99  1  0.10166377  0.49894923  0.69860638  1
  Nb  Nb100  1  0.10365598  0.70066535  0.49656491  1
  Nb  Nb101  1  0.09955833  0.09971210  0.69864748  1
  Nb  Nb102  1  0.69847588  0.30621796  0.09867248  1
  Nb  Nb103  1  0.69894584  0.69682864  0.49177752  1
  Nb  Nb104  1  0.89392196  0.10737236  0.90096205  1
  Nb  Nb105  1  0.09954909  0.29449907  0.30633801  1
  Nb  Nb106  1  0.69947011  0.70843834  0.10018427  1
  Nb  Nb107  1  0.69808330  0.89784421  0.09327217  1
  Nb  Nb108  1  0.09964928  0.89586317  0.49779639  1
  Nb  Nb109  1  0.30380530  0.50275648  0.90481989  1
  Nb  Nb110  1  0.29858651  0.90238276  0.30267495  1
  Nb  Nb111  1  0.29139031  0.09111336  0.30847864  1
  Nb  Nb112  1  0.11018809  0.10437829  0.29861573  1
  Nb  Nb113  1  0.29677682  0.70518052  0.30144476  1
  Nb  Nb114  1  0.29685482  0.49869995  0.69988953  1
  Nb  Nb115  1  0.29101782  0.69782598  0.49452988  1
  Nb  Nb116  1  0.69462650  0.48936012  0.10142150  1
  Nb  Nb117  1  0.10631064  0.49875081  0.09608480  1
  Nb  Nb118  1  0.90161693  0.69867237  0.09270771  1
  Nb  Nb119  1  0.10311488  0.89773454  0.89825441  1
  Nb  Nb120  1  0.69795085  0.89977884  0.90983209  1
  Nb  Nb121  1  0.09836990  0.09757149  0.10472950  1
  Nb  Nb122  1  0.69587962  0.29948903  0.69498081  1
  Nb  Nb123  1  0.90018958  0.10767062  0.50596844  1
  Nb  Nb124  1  0.10116472  0.70422304  0.29804265  1
  Nb  Nb125  1  0.19701292  0.18931976  0.00755353  1
  Nb  Nb126  1  0.20166425  0.59233282  0.00221575  1
  Nb  Nb127  1  0.60493768  0.79482907  0.39943110  1
  Nb  Nb128  1  0.60226821  0.60351856  0.80512884  1
  Nb  Nb129  1  0.19322618  -0.00059409  0.59639061  1
  Nb  Nb130  1  -0.00165654  0.80302497  0.80567905  1
  Nb  Nb131  1  0.19836890  0.59970328  0.20139865  1
  Nb  Nb132  1  0.60439008  0.80338823  0.80520821  1
  Nb  Nb133  1  0.20075826  0.60266069  0.39254040  1
  Nb  Nb134  1  -0.00324820  0.39789115  0.60105233  1
  Nb  Nb135  1  0.79982178  0.20188062  0.00222515  1
  Nb  Nb136  1  0.60402857  -0.01098236  0.79938578  1
  Nb  Nb137  1  0.79486122  -0.00168696  0.19860695  1
  Nb  Nb138  1  0.60307072  0.20119522  0.60089201  1
  Nb  Nb139  1  0.19715871  0.80254254  0.59226480  1
  Nb  Nb140  1  0.19643586  0.40234712  0.39936288  1
  Nb  Nb141  1  -0.00288250  0.79898054  -0.00658932  1
  Nb  Nb142  1  0.60878690  0.60104054  0.00485881  1
  Nb  Nb143  1  0.39152726  0.40969188  0.80025791  1
  Nb  Nb144  1  0.21072289  0.59234730  0.80550746  1
  Nb  Nb145  1  0.19850263  0.79793642  0.39854565  1
  Nb  Nb146  1  0.60217507  0.20400662  0.19685545  1
  Nb  Nb147  1  0.19255753  0.00615395  0.00071284  1
  Nb  Nb148  1  0.39158055  0.19739285  0.00257215  1
  Nb  Nb149  1  0.19400419  0.18953014  0.59957007  1
  Pd  Pd150  1  0.40748249  0.81024075  0.80477285  1
  Pd  Pd151  1  0.39500611  0.60614365  0.59969275  1
  Pd  Pd152  1  0.39407998  0.59332661  0.40078179  1
  Pd  Pd153  1  0.60458081  0.79330740  0.59377405  1
  Pd  Pd154  1  0.38825802  0.00457459  0.00048301  1
  Pd  Pd155  1  0.19976884  -0.00783821  0.19650289  1
  Pd  Pd156  1  0.59715745  0.00459852  -0.01088202  1
  Pd  Pd157  1  0.80789057  0.80496382  0.18653630  1
  Pd  Pd158  1  0.79851286  0.59497687  0.18507127  1
  Pd  Pd159  1  0.79512989  -0.00065776  0.80102537  1
  Pd  Pd160  1  0.40537971  0.79755100  0.40298270  1
  Pd  Pd161  1  0.60166749  0.60561425  0.60490830  1
  Pd  Pd162  1  0.79996926  0.79551479  0.40484387  1
  Pd  Pd163  1  -0.00842926  0.39187844  0.79032949  1
  Pd  Pd164  1  0.39422265  0.40479496  0.40238165  1
  Pd  Pd165  1  0.39922472  0.20176522  0.60251986  1
  Pd  Pd166  1  0.58826820  0.40950657  0.80378408  1
  Pd  Pd167  1  0.00313109  0.60052212  0.40193604  1
  Pd  Pd168  1  0.40279867  0.80423134  0.20116551  1
  Pd  Pd169  1  0.39314715  0.21364123  0.80568490  1
  Pd  Pd170  1  0.79992577  0.40002192  0.40439766  1
  Pd  Pd171  1  0.79310908  0.19152678  0.19478134  1
  Pd  Pd172  1  0.40005325  0.20234031  0.40137808  1
  Pd  Pd173  1  -0.00318995  0.00373311  0.39591518  1
  Pd  Pd174  1  -0.00145051  0.40226063  0.20048901  1
  Pd  Pd175  1  0.19730782  0.40767784  0.21216709  1
  Pd  Pd176  1  0.60825056  0.00913233  0.20942788  1
  Pd  Pd177  1  0.39473266  0.60124401  0.19723580  1
  Pd  Pd178  1  0.60700802  0.19123970  0.79107215  1
  Pd  Pd179  1  0.79320369  0.59387298  0.00988453  1
  Pd  Pd180  1  0.80038469  0.60308103  0.59419899  1
  Pd  Pd181  1  0.80624492  0.39600605  0.79186007  1
  Pd  Pd182  1  0.59953215  0.20324201  0.00321445  1
  Pd  Pd183  1  0.01258248  0.60501197  -0.00929080  1
  Pd  Pd184  1  0.00611285  -0.00221470  -0.00763741  1
  Pd  Pd185  1  0.40855109  -0.00903675  0.80761440  1
  Pd  Pd186  1  0.00309019  0.59808408  0.19670026  1
  Pd  Pd187  1  0.40785585  0.21073759  0.19453994  1
  Pd  Pd188  1  0.80783132  0.39754078  0.59642263  1
  Pd  Pd189  1  0.60519523  -0.00856905  0.40041359  1
  Pd  Pd190  1  0.00226892  0.20070111  0.00032409  1
  Pd  Pd191  1  0.19885356  0.20063997  0.19615602  1
  Pd  Pd192  1  0.00511023  0.79728505  0.60513404  1
  Pd  Pd193  1  -0.00011302  0.00107234  0.59619823  1
  Pd  Pd194  1  0.00342361  0.40696055  0.40938873  1
  Pd  Pd195  1  0.20091110  0.40442586  0.80314700  1
  Pd  Pd196  1  0.80243447  0.80515941  0.80413054  1
  Pd  Pd197  1  0.80390295  0.00085379  0.39642611  1
  Pd  Pd198  1  0.81242633  0.80575058  0.00295568  1
  Pd  Pd199  1  0.39316166  0.79631477  0.59218321  1
  Rh  Rh200  1  0.80211979  0.39346489  0.00402196  1
  Rh  Rh201  1  0.01490297  0.60572922  0.80808331  1
  Rh  Rh202  1  0.59725015  0.79405713  0.00044444  1
  Rh  Rh203  1  -0.00489871  0.20284621  0.79602401  1
  Rh  Rh204  1  0.79311983  0.19877987  0.59404201  1
  Rh  Rh205  1  0.59689753  0.20203679  0.40218317  1
  Rh  Rh206  1  0.59710947  0.60502179  0.39841116  1
  Rh  Rh207  1  0.40043275  0.59313410  0.79560274  1
  Rh  Rh208  1  0.19156217  0.78929007  0.78541821  1
  Rh  Rh209  1  0.40054003  0.60438492  0.01372667  1
  Rh  Rh210  1  0.60083363  0.40407557  0.39927587  1
  Rh  Rh211  1  0.80488995  0.19934453  0.40222506  1
  Rh  Rh212  1  0.80423730  0.40763108  0.19387118  1
  Rh  Rh213  1  0.60806800  0.01157184  0.60551143  1
  Rh  Rh214  1  0.39115410  0.00317601  0.59741525  1
  Rh  Rh215  1  0.40139961  0.80396791  0.00854668  1
  Rh  Rh216  1  0.18965028  0.38790718  0.59640764  1
  Rh  Rh217  1  0.79602120  0.20546226  0.80814973  1
  Rh  Rh218  1  0.20642594  0.61073109  0.60760344  1
  Rh  Rh219  1  0.59816289  0.79315496  0.20603705  1
  Rh  Rh220  1  0.00376363  0.20346716  0.60444349  1
  Rh  Rh221  1  0.60595102  0.60415346  0.19074284  1
  Rh  Rh222  1  0.00260003  0.79460494  0.39792764  1
  Rh  Rh223  1  0.80041394  0.00763551  0.00703088  1
  Rh  Rh224  1  0.40387721  0.00080540  0.39784492  1
  Rh  Rh225  1  0.59679674  0.39220276  0.59672388  1
  Rh  Rh226  1  0.00181899  0.39405904  0.00231033  1
  Rh  Rh227  1  0.40712468  0.39548180  0.20507915  1
  Rh  Rh228  1  0.19777007  0.00413200  0.80151775  1
  Rh  Rh229  1  -0.00242642  0.19596325  0.39281423  1
  Rh  Rh230  1  0.60016238  0.40669610  -0.00660794  1
  Rh  Rh231  1  0.40181795  0.39799587  0.60866806  1
  Rh  Rh232  1  0.78955962  0.59276473  0.79323137  1
  Rh  Rh233  1  0.81103008  0.00267830  0.59354901  1
  Rh  Rh234  1  0.40087417  0.38547356  -0.01113073  1
  Rh  Rh235  1  0.20285559  0.80363922  0.20676013  1
  Rh  Rh236  1  0.39633606  -0.00620492  0.20860317  1
  Rh  Rh237  1  -0.00142655  0.00540039  0.20800901  1
  Rh  Rh238  1  -0.00388857  0.59507679  0.59441932  1
  Rh  Rh239  1  0.80201081  0.79723038  0.59016323  1
  Rh  Rh240  1  0.80266129  0.60424478  0.40097511  1
  Rh  Rh241  1  0.19341929  0.80809392  0.00743295  1
  Rh  Rh242  1  0.00959595  0.19817320  0.20653725  1
  Rh  Rh243  1  0.59798646  0.39160997  0.20623097  1
  Rh  Rh244  1  0.19455629  -0.00882806  0.40045494  1
  Rh  Rh245  1  -0.00671068  -0.00303752  0.80397950  1
  Rh  Rh246  1  0.20344065  0.20779873  0.40605696  1
  Rh  Rh247  1  0.19897158  0.19586740  0.79786745  1
  Rh  Rh248  1  -0.00863800  0.79780713  0.19051705  1
  Rh  Rh249  1  0.19370189  0.39768993  -0.00412766  1
