# generated using pymatgen
data_ZrScNbPdRh
_symmetry_space_group_name_H-M   'P 1'
_cell_length_a   16.55172920
_cell_length_b   16.55433656
_cell_length_c   16.55470404
_cell_angle_alpha   89.98710038
_cell_angle_beta   90.02153076
_cell_angle_gamma   90.00898799
_symmetry_Int_Tables_number   1
_chemical_formula_structural   ZrScNbPdRh
_chemical_formula_sum   'Zr50 Sc50 Nb50 Pd50 Rh50'
_cell_volume   4536.03635660
_cell_formula_units_Z   50
loop_
 _symmetry_equiv_pos_site_id
 _symmetry_equiv_pos_as_xyz
  1  'x, y, z'
loop_
 _atom_site_type_symbol
 _atom_site_label
 _atom_site_symmetry_multiplicity
 _atom_site_fract_x
 _atom_site_fract_y
 _atom_site_fract_z
 _atom_site_occupancy
  Zr  Zr0  1  0.50264426  0.70804819  0.10335738  1
  Zr  Zr1  1  0.29282007  0.89440048  0.49169785  1
  Zr  Zr2  1  0.70382606  0.30234281  0.09491163  1
  Zr  Zr3  1  0.89912824  0.70581444  0.08868517  1
  Zr  Zr4  1  0.90082082  0.50039521  0.69412710  1
  Zr  Zr5  1  0.30555858  0.90565003  0.10326242  1
  Zr  Zr6  1  0.29559797  0.10358677  0.30561984  1
  Zr  Zr7  1  0.70873448  0.69767897  0.29271911  1
  Zr  Zr8  1  0.10601284  0.10385700  0.89826451  1
  Zr  Zr9  1  0.70471731  0.90016162  0.09916285  1
  Zr  Zr10  1  0.89462511  0.50017266  0.30641083  1
  Zr  Zr11  1  0.29861444  0.69512188  0.89637279  1
  Zr  Zr12  1  0.70212980  0.49804584  0.30427037  1
  Zr  Zr13  1  0.30015676  0.90487036  0.88643749  1
  Zr  Zr14  1  0.09592300  0.09986233  0.30628060  1
  Zr  Zr15  1  0.29539601  0.50716384  0.09398856  1
  Zr  Zr16  1  0.49954655  0.29820755  0.10349475  1
  Zr  Zr17  1  0.29784568  0.69647663  0.50218900  1
  Zr  Zr18  1  0.30009107  0.49482757  0.30224200  1
  Zr  Zr19  1  0.50016725  0.90493868  0.10074482  1
  Zr  Zr20  1  0.29784089  0.10573488  0.49753057  1
  Zr  Zr21  1  0.89739929  0.29677686  0.49401712  1
  Zr  Zr22  1  0.49629621  0.69699897  0.50133935  1
  Zr  Zr23  1  0.89941523  0.09332065  0.89624042  1
  Zr  Zr24  1  0.10329969  0.90455273  0.89965167  1
  Zr  Zr25  1  0.10478657  0.50005841  0.70284374  1
  Zr  Zr26  1  0.09248142  0.10390660  0.69707646  1
  Zr  Zr27  1  0.09705958  0.89039853  0.50087330  1
  Zr  Zr28  1  0.89212270  0.90024591  0.49971117  1
  Zr  Zr29  1  0.10477193  0.49670202  0.50172908  1
  Zr  Zr30  1  0.10146626  0.89132757  0.30328123  1
  Zr  Zr31  1  0.09224280  0.30306180  0.70820973  1
  Zr  Zr32  1  0.30613585  0.30028703  0.30052104  1
  Zr  Zr33  1  0.50828706  0.90085816  0.50376748  1
  Zr  Zr34  1  0.10472693  0.69966955  0.69513850  1
  Zr  Zr35  1  0.70113656  0.09766551  0.89827099  1
  Zr  Zr36  1  0.89891165  0.29048058  0.29958880  1
  Zr  Zr37  1  0.70525678  0.49014949  0.69317042  1
  Zr  Zr38  1  0.49728147  0.49287747  0.69745460  1
  Zr  Zr39  1  0.70171071  0.30230057  0.90194467  1
  Zr  Zr40  1  0.49956884  0.90043170  0.70484884  1
  Zr  Zr41  1  0.49227450  0.50114216  0.90633489  1
  Zr  Zr42  1  0.50405872  0.70006761  0.29626037  1
  Zr  Zr43  1  0.09397702  0.51010312  0.29797141  1
  Zr  Zr44  1  0.10421637  0.10190217  0.09684239  1
  Zr  Zr45  1  0.09509197  0.90378362  0.10013071  1
  Zr  Zr46  1  0.71180506  0.90873859  0.30800487  1
  Zr  Zr47  1  0.09442758  0.50013870  0.08938068  1
  Zr  Zr48  1  0.49645064  0.89050276  0.29699139  1
  Zr  Zr49  1  0.29702162  0.30287170  0.50165498  1
  Sc  Sc50  1  0.30263461  0.10320648  0.70990825  1
  Sc  Sc51  1  0.90957978  0.70046403  0.70181300  1
  Sc  Sc52  1  0.69702913  0.09231590  0.49491097  1
  Sc  Sc53  1  0.49729530  0.49235362  0.30002735  1
  Sc  Sc54  1  0.89283354  0.10155098  0.30092544  1
  Sc  Sc55  1  0.09861848  0.29521849  0.50949725  1
  Sc  Sc56  1  0.29395407  0.09461534  0.90135292  1
  Sc  Sc57  1  0.50179299  0.29536783  0.50687891  1
  Sc  Sc58  1  0.10273247  0.89061174  0.70073900  1
  Sc  Sc59  1  0.49367490  0.49440842  0.09717467  1
  Sc  Sc60  1  0.30596525  0.30425209  0.70033190  1
  Sc  Sc61  1  0.90498320  0.30458368  0.89137933  1
  Sc  Sc62  1  0.49893794  0.70971608  0.89498306  1
  Sc  Sc63  1  0.70671892  0.71498952  0.90322816  1
  Sc  Sc64  1  0.30227085  0.89785042  0.30300261  1
  Sc  Sc65  1  0.70885086  0.09812105  0.69661700  1
  Sc  Sc66  1  0.49363623  0.10874274  0.69816399  1
  Sc  Sc67  1  0.70283951  0.70991815  0.69990964  1
  Sc  Sc68  1  0.49519333  0.10319099  0.31648795  1
  Sc  Sc69  1  0.70720497  0.90625464  0.89242060  1
  Sc  Sc70  1  0.88872697  0.49978219  0.50292154  1
  Sc  Sc71  1  0.70394920  0.09287168  0.09275913  1
  Sc  Sc72  1  0.09224265  0.29269936  0.30634763  1
  Sc  Sc73  1  0.90491843  0.69795459  0.50007700  1
  Sc  Sc74  1  0.89873271  0.89521183  0.69742419  1
  Sc  Sc75  1  0.71243652  0.70181472  0.50575528  1
  Sc  Sc76  1  0.50296195  0.70620091  0.70080781  1
  Sc  Sc77  1  0.89832840  0.10313849  0.50766940  1
  Sc  Sc78  1  0.69495461  0.30620541  0.50285987  1
  Sc  Sc79  1  0.09007803  0.69688789  0.88734703  1
  Sc  Sc80  1  0.70057735  0.70596503  0.10331688  1
  Sc  Sc81  1  0.89911514  0.90225022  0.29463915  1
  Sc  Sc82  1  0.09898650  0.69634423  0.11448677  1
  Sc  Sc83  1  0.70761005  0.29528163  0.30934449  1
  Sc  Sc84  1  0.29896387  0.70562916  0.30238822  1
  Sc  Sc85  1  0.50204553  0.09262159  0.89887136  1
  Sc  Sc86  1  0.49765556  0.49174950  0.49780477  1
  Sc  Sc87  1  0.70575164  0.49097614  0.90733482  1
  Sc  Sc88  1  0.49632613  0.30256339  0.30945476  1
  Sc  Sc89  1  0.50218646  0.90696685  0.89731463  1
  Sc  Sc90  1  0.89900051  0.10716970  0.69689670  1
  Sc  Sc91  1  0.89649969  0.49777089  0.09029591  1
  Sc  Sc92  1  0.90915755  0.50851564  0.90661672  1
  Sc  Sc93  1  0.09902362  0.49486300  0.89733397  1
  Sc  Sc94  1  0.30200756  0.49903111  0.50304839  1
  Sc  Sc95  1  0.29272492  0.29479318  0.89768483  1
  Sc  Sc96  1  0.70571801  0.50060734  0.09950925  1
  Sc  Sc97  1  0.29686860  0.29413242  0.10797530  1
  Sc  Sc98  1  0.29193948  0.49657950  0.89949557  1
  Sc  Sc99  1  0.50155685  0.30747801  0.90570123  1
  Nb  Nb100  1  0.70052906  0.09672847  0.29791885  1
  Nb  Nb101  1  0.29978913  0.70117225  0.70120749  1
  Nb  Nb102  1  0.08383321  0.70114581  0.30972933  1
  Nb  Nb103  1  0.50807370  0.30093783  0.69960344  1
  Nb  Nb104  1  0.89301783  0.29850907  0.69470319  1
  Nb  Nb105  1  0.29914087  0.69765581  0.09367621  1
  Nb  Nb106  1  0.69739684  0.89883393  0.68231071  1
  Nb  Nb107  1  0.70108284  0.50324323  0.49918519  1
  Nb  Nb108  1  0.90485002  0.89120175  0.90218085  1
  Nb  Nb109  1  0.09933281  0.09599955  0.50323136  1
  Nb  Nb110  1  0.30219284  0.09808777  0.09995996  1
  Nb  Nb111  1  0.70121955  0.89959561  0.50797263  1
  Nb  Nb112  1  0.90564361  0.09716794  0.09905691  1
  Nb  Nb113  1  0.09888750  0.29882550  0.90446087  1
  Nb  Nb114  1  0.90337407  0.29558501  0.10184845  1
  Nb  Nb115  1  0.49237451  0.10097626  0.50561242  1
  Nb  Nb116  1  0.89773159  0.70806962  0.89209851  1
  Nb  Nb117  1  0.90891391  0.69604285  0.30032306  1
  Nb  Nb118  1  0.09556302  0.29969504  0.09829239  1
  Nb  Nb119  1  0.29934133  0.50687945  0.69948960  1
  Nb  Nb120  1  0.49951101  0.09292299  0.09663068  1
  Nb  Nb121  1  0.29714753  0.89726038  0.69971780  1
  Nb  Nb122  1  0.09968707  0.70555533  0.49358691  1
  Nb  Nb123  1  0.90359126  0.91191487  0.08806101  1
  Nb  Nb124  1  0.69926044  0.30486949  0.70247166  1
  Nb  Nb125  1  0.60358868  0.39091312  0.19981335  1
  Nb  Nb126  1  0.60364609  0.20900408  0.79433448  1
  Nb  Nb127  1  0.79889205  0.60215599  0.80147494  1
  Nb  Nb128  1  0.18924324  0.40101371  0.19852603  1
  Nb  Nb129  1  0.00212874  -0.00104741  0.40703134  1
  Nb  Nb130  1  0.60353979  0.59624556  0.80107079  1
  Nb  Nb131  1  -0.00063674  0.39586639  0.19640136  1
  Nb  Nb132  1  0.20342307  0.79923704  0.00064833  1
  Nb  Nb133  1  0.20214946  -0.00049031  0.59768765  1
  Nb  Nb134  1  0.40056632  0.59836182  0.79476105  1
  Nb  Nb135  1  0.40041483  0.19132437  0.00714816  1
  Nb  Nb136  1  0.20068149  0.00419478  0.20108996  1
  Nb  Nb137  1  -0.00030519  -0.00261402  0.80183846  1
  Nb  Nb138  1  0.81084513  0.19928560  0.00120808  1
  Nb  Nb139  1  0.59946819  0.00598359  0.20457068  1
  Nb  Nb140  1  0.60338170  0.59591711  0.60004816  1
  Nb  Nb141  1  0.39470330  -0.00277213  0.59836467  1
  Nb  Nb142  1  0.60053028  0.19353093  0.20040941  1
  Nb  Nb143  1  0.00075187  0.20153529  0.00067719  1
  Nb  Nb144  1  0.59848637  0.60330541  -0.00465472  1
  Nb  Nb145  1  0.39434429  0.80420088  0.60323846  1
  Nb  Nb146  1  0.60571556  0.60176289  0.40400189  1
  Nb  Nb147  1  0.60906721  0.79858155  0.40251961  1
  Nb  Nb148  1  0.39325387  0.80273418  -0.00023095  1
  Nb  Nb149  1  0.39619420  0.60309078  0.19422254  1
  Pd  Pd150  1  0.00353604  0.59995059  0.59442627  1
  Pd  Pd151  1  0.20007551  0.20429175  0.79433974  1
  Pd  Pd152  1  0.79306749  0.19221521  0.19272544  1
  Pd  Pd153  1  0.00146236  0.00279127  0.20841020  1
  Pd  Pd154  1  0.60834390  0.80263207  0.80128523  1
  Pd  Pd155  1  0.20439788  0.39165277  0.00396299  1
  Pd  Pd156  1  0.19413287  0.20882786  0.40338500  1
  Pd  Pd157  1  0.40140924  -0.00387132  0.40384412  1
  Pd  Pd158  1  0.80996818  0.40827985  0.80523769  1
  Pd  Pd159  1  -0.00401696  0.59398400  0.41333774  1
  Pd  Pd160  1  0.40954401  0.20323281  0.81246533  1
  Pd  Pd161  1  0.81057093  0.80479534  0.19659411  1
  Pd  Pd162  1  0.79015978  0.20296050  0.59375179  1
  Pd  Pd163  1  0.59687258  0.80408118  -0.00651971  1
  Pd  Pd164  1  0.80283626  0.39858407  0.20201682  1
  Pd  Pd165  1  -0.00921144  0.80147763  0.19697906  1
  Pd  Pd166  1  -0.00479406  0.40583076  0.80118291  1
  Pd  Pd167  1  0.60192800  0.20044584  0.39976269  1
  Pd  Pd168  1  0.79821697  0.20411157  0.80314100  1
  Pd  Pd169  1  0.80942669  0.59955509  0.19353117  1
  Pd  Pd170  1  0.80957026  0.79314115  0.60449367  1
  Pd  Pd171  1  0.59731263  -0.00390938  0.39676135  1
  Pd  Pd172  1  0.39956103  0.39576050  0.59848030  1
  Pd  Pd173  1  0.40463524  0.59620047  0.39132607  1
  Pd  Pd174  1  0.40958223  0.19056833  0.20081801  1
  Pd  Pd175  1  0.19150337  0.39493025  0.39472396  1
  Pd  Pd176  1  0.59880794  0.40238150  0.80475487  1
  Pd  Pd177  1  0.00211158  -0.00672153  0.60304229  1
  Pd  Pd178  1  0.01188816  0.79243872  -0.00053654  1
  Pd  Pd179  1  0.38645269  0.38583689  0.00175732  1
  Pd  Pd180  1  0.80676388  -0.00914502  0.78945287  1
  Pd  Pd181  1  0.19884336  0.59925030  0.59680931  1
  Pd  Pd182  1  0.60656577  0.19462736  0.60400732  1
  Pd  Pd183  1  0.60112491  0.00914382  0.78795210  1
  Pd  Pd184  1  0.40171292  0.00972638  0.21186824  1
  Pd  Pd185  1  0.18483545  0.60896389  -0.00950899  1
  Pd  Pd186  1  -0.01189342  0.59330104  0.19154087  1
  Pd  Pd187  1  0.59299842  0.58562642  0.19527186  1
  Pd  Pd188  1  0.39407990  0.40167226  0.80313997  1
  Pd  Pd189  1  0.20393053  0.19737756  0.60964354  1
  Pd  Pd190  1  0.00063182  0.40098291  0.39851632  1
  Pd  Pd191  1  0.79258343  0.60664112  -0.00779521  1
  Pd  Pd192  1  0.19495807  0.20115623  0.20284730  1
  Pd  Pd193  1  -0.00364798  0.39680058  0.59622524  1
  Pd  Pd194  1  0.20282777  0.80134819  0.19830432  1
  Pd  Pd195  1  0.80286569  0.79353669  0.39830616  1
  Pd  Pd196  1  0.20367510  0.60008854  0.20739358  1
  Pd  Pd197  1  0.59743040  0.19406171  -0.00278242  1
  Pd  Pd198  1  0.19883051  0.60425669  0.39650258  1
  Pd  Pd199  1  0.59514386  0.01191359  0.60663701  1
  Rh  Rh200  1  0.80830708  0.00772365  0.40795085  1
  Rh  Rh201  1  -0.00322650  0.39206306  0.00138584  1
  Rh  Rh202  1  0.61624817  0.81581084  0.21248303  1
  Rh  Rh203  1  0.19783602  0.78976991  0.39415043  1
  Rh  Rh204  1  0.79361764  0.19477363  0.40615031  1
  Rh  Rh205  1  0.81057528  0.39202738  -0.00444090  1
  Rh  Rh206  1  0.79849006  0.39668463  0.40390106  1
  Rh  Rh207  1  0.79895471  0.00003746  0.60069280  1
  Rh  Rh208  1  0.80203640  0.39165834  0.59378929  1
  Rh  Rh209  1  0.19040767  0.00420542  0.78374374  1
  Rh  Rh210  1  0.60149603  0.40502592  0.39605206  1
  Rh  Rh211  1  0.80223951  0.80733394  0.00029605  1
  Rh  Rh212  1  -0.00258473  0.19828831  0.80206879  1
  Rh  Rh213  1  0.40633938  0.80032788  0.40842014  1
  Rh  Rh214  1  0.79469802  0.60485704  0.61108784  1
  Rh  Rh215  1  0.40566524  0.60601137  0.61084861  1
  Rh  Rh216  1  -0.01112186  0.80445187  0.39872942  1
  Rh  Rh217  1  0.19773819  0.79534569  0.80452026  1
  Rh  Rh218  1  0.39723700  0.00098099  -0.00990428  1
  Rh  Rh219  1  0.80026620  0.80229608  0.79416341  1
  Rh  Rh220  1  0.39603054  0.79636897  0.79903411  1
  Rh  Rh221  1  -0.00392957  0.20782610  0.60054872  1
  Rh  Rh222  1  0.60338815  -0.00580145  0.00329539  1
  Rh  Rh223  1  0.19062298  -0.00239854  0.39924292  1
  Rh  Rh224  1  0.20152182  0.39814747  0.79586999  1
  Rh  Rh225  1  0.20423347  0.79924136  0.59951846  1
  Rh  Rh226  1  0.38968426  0.79085198  0.19222402  1
  Rh  Rh227  1  -0.00700300  0.59588291  0.79788054  1
  Rh  Rh228  1  0.60158747  0.41168753  0.00953992  1
  Rh  Rh229  1  0.00072446  0.80698001  0.79710378  1
  Rh  Rh230  1  0.20368237  0.59692220  0.79991080  1
  Rh  Rh231  1  0.39272219  0.40988422  0.19542634  1
  Rh  Rh232  1  0.20460819  -0.00700245  0.00847850  1
  Rh  Rh233  1  0.40135837  0.20752152  0.40908735  1
  Rh  Rh234  1  0.80308347  -0.00001530  -0.00267873  1
  Rh  Rh235  1  -0.00020369  0.00574367  -0.00935647  1
  Rh  Rh236  1  0.59958065  0.40391732  0.59603474  1
  Rh  Rh237  1  0.00123528  0.61005119  -0.00154916  1
  Rh  Rh238  1  0.79990757  0.00286872  0.19281754  1
  Rh  Rh239  1  0.40161791  0.00384458  0.79456005  1
  Rh  Rh240  1  0.40015990  0.39540296  0.40978034  1
  Rh  Rh241  1  0.20273690  0.20438884  0.00186856  1
  Rh  Rh242  1  0.39755455  0.20048648  0.60013346  1
  Rh  Rh243  1  0.59668723  0.79217170  0.59387107  1
  Rh  Rh244  1  -0.00015214  0.20031838  0.19569918  1
  Rh  Rh245  1  0.41214440  0.61427493  -0.00103756  1
  Rh  Rh246  1  0.79935362  0.60565487  0.39919600  1
  Rh  Rh247  1  -0.00081164  0.79621409  0.59852518  1
  Rh  Rh248  1  -0.00224726  0.18855068  0.40903394  1
  Rh  Rh249  1  0.20206195  0.40189265  0.60825451  1
