# generated using pymatgen
data_ZrScNbPdRh
_symmetry_space_group_name_H-M   'P 1'
_cell_length_a   16.55804181
_cell_length_b   16.56016974
_cell_length_c   16.56146368
_cell_angle_alpha   89.96924783
_cell_angle_beta   90.04445229
_cell_angle_gamma   89.97806061
_symmetry_Int_Tables_number   1
_chemical_formula_structural   ZrScNbPdRh
_chemical_formula_sum   'Zr50 Sc50 Nb50 Pd50 Rh50'
_cell_volume   4541.21695046
_cell_formula_units_Z   50
loop_
 _symmetry_equiv_pos_site_id
 _symmetry_equiv_pos_as_xyz
  1  'x, y, z'
loop_
 _atom_site_type_symbol
 _atom_site_label
 _atom_site_symmetry_multiplicity
 _atom_site_fract_x
 _atom_site_fract_y
 _atom_site_fract_z
 _atom_site_occupancy
  Zr  Zr0  1  0.49661428  0.49155991  0.91127014  1
  Zr  Zr1  1  0.69056574  0.49048618  0.10624741  1
  Zr  Zr2  1  0.49324818  0.90506376  0.30087748  1
  Zr  Zr3  1  0.69548054  0.09466520  0.09310345  1
  Zr  Zr4  1  0.70428437  0.69861339  0.89847930  1
  Zr  Zr5  1  0.69998680  0.91669450  0.70337532  1
  Zr  Zr6  1  0.50156330  0.70565493  0.50711155  1
  Zr  Zr7  1  0.50445538  0.69673619  0.90898316  1
  Zr  Zr8  1  0.30613718  0.10166537  0.29458141  1
  Zr  Zr9  1  0.90197375  0.89952133  0.89573808  1
  Zr  Zr10  1  0.89877884  0.29948426  0.10152065  1
  Zr  Zr11  1  0.70570373  0.49025209  0.70303865  1
  Zr  Zr12  1  0.70175576  0.29506060  0.09978252  1
  Zr  Zr13  1  0.10501388  0.71300251  0.29844405  1
  Zr  Zr14  1  0.89806666  0.69271764  0.89943566  1
  Zr  Zr15  1  0.28282338  0.10974755  0.69189587  1
  Zr  Zr16  1  0.89882775  0.50123444  0.70190058  1
  Zr  Zr17  1  0.50036591  0.09344930  0.29503315  1
  Zr  Zr18  1  0.49529097  0.68839934  0.10265926  1
  Zr  Zr19  1  0.89900612  0.30308561  0.70300658  1
  Zr  Zr20  1  0.90752837  0.10128824  0.90232537  1
  Zr  Zr21  1  0.69625846  0.69747616  0.30638774  1
  Zr  Zr22  1  0.89927259  0.49614034  0.89598970  1
  Zr  Zr23  1  0.90318383  0.29171178  0.29775216  1
  Zr  Zr24  1  0.69513450  0.70906222  0.08601859  1
  Zr  Zr25  1  0.89966498  0.10231780  0.30123842  1
  Zr  Zr26  1  0.29311256  0.70578619  0.49706686  1
  Zr  Zr27  1  0.29982059  0.28796272  0.10061814  1
  Zr  Zr28  1  0.50310147  0.90144700  0.49401494  1
  Zr  Zr29  1  0.50056051  0.49235272  0.69392405  1
  Zr  Zr30  1  0.49961487  0.70073830  0.69733180  1
  Zr  Zr31  1  0.90145127  0.10397343  0.50054931  1
  Zr  Zr32  1  0.69827889  0.29416704  0.70234346  1
  Zr  Zr33  1  0.50777146  0.10045417  0.70405871  1
  Zr  Zr34  1  0.10514619  0.90198157  0.90269103  1
  Zr  Zr35  1  0.51100787  0.50421155  0.29542215  1
  Zr  Zr36  1  0.70108040  0.89917762  0.91283735  1
  Zr  Zr37  1  0.69346286  0.09870375  0.89291934  1
  Zr  Zr38  1  0.10865088  0.10320596  0.11071284  1
  Zr  Zr39  1  0.69539365  0.50234377  0.30878831  1
  Zr  Zr40  1  0.30540194  0.89480143  0.49856287  1
  Zr  Zr41  1  0.10254858  0.10621872  0.89164860  1
  Zr  Zr42  1  0.70866027  0.09601902  0.49992834  1
  Zr  Zr43  1  0.90041722  0.70229663  0.30623584  1
  Zr  Zr44  1  0.90076195  0.10553409  0.10340044  1
  Zr  Zr45  1  0.90016520  0.90038541  0.70071619  1
  Zr  Zr46  1  0.69404619  0.30194625  0.90382433  1
  Zr  Zr47  1  0.90079467  0.90342002  0.09229991  1
  Zr  Zr48  1  0.68930368  0.90888920  0.30797738  1
  Zr  Zr49  1  0.90348545  0.49898851  0.09650827  1
  Sc  Sc50  1  0.70479653  0.69438784  0.69327573  1
  Sc  Sc51  1  0.10410080  0.30171209  0.10069840  1
  Sc  Sc52  1  0.50318309  0.30720282  0.30350658  1
  Sc  Sc53  1  0.28891832  0.49559504  0.89781350  1
  Sc  Sc54  1  0.29239482  0.89984157  0.09808232  1
  Sc  Sc55  1  0.29330799  0.50105987  0.29923193  1
  Sc  Sc56  1  0.89676215  0.70020432  0.50514881  1
  Sc  Sc57  1  0.49428300  0.10047161  0.90526267  1
  Sc  Sc58  1  0.70141918  0.90437843  0.49984750  1
  Sc  Sc59  1  0.29444219  0.50173047  0.10174366  1
  Sc  Sc60  1  0.70437311  0.30403848  0.29722502  1
  Sc  Sc61  1  0.10412636  0.88652899  0.50519449  1
  Sc  Sc62  1  0.69992875  0.29647585  0.50958129  1
  Sc  Sc63  1  0.11028949  0.49614735  0.30051720  1
  Sc  Sc64  1  0.29012849  0.30398288  0.90672769  1
  Sc  Sc65  1  0.10364433  0.50228428  0.09899360  1
  Sc  Sc66  1  0.10276237  0.29544241  0.70239270  1
  Sc  Sc67  1  0.29086659  0.48600209  0.49066253  1
  Sc  Sc68  1  0.10366684  0.68736291  0.90537657  1
  Sc  Sc69  1  0.09945138  0.49405782  0.90205726  1
  Sc  Sc70  1  0.09839011  0.49365526  0.70415198  1
  Sc  Sc71  1  0.69879589  0.50741027  0.49932479  1
  Sc  Sc72  1  0.49736041  0.91434290  0.89938755  1
  Sc  Sc73  1  0.50585223  0.30291464  0.69175451  1
  Sc  Sc74  1  0.29301991  0.69806273  0.10829652  1
  Sc  Sc75  1  0.09528162  0.69891965  0.69486917  1
  Sc  Sc76  1  0.29969602  0.29869274  0.30029028  1
  Sc  Sc77  1  0.09997385  0.49219261  0.49659593  1
  Sc  Sc78  1  0.70185950  0.70069405  0.49648265  1
  Sc  Sc79  1  0.30048998  0.29482159  0.50403348  1
  Sc  Sc80  1  0.90066777  0.69526784  0.69885207  1
  Sc  Sc81  1  0.70810321  0.09866818  0.30519464  1
  Sc  Sc82  1  0.49824113  0.69762714  0.29358046  1
  Sc  Sc83  1  0.48899692  0.10127318  0.09592602  1
  Sc  Sc84  1  0.29533053  0.90361982  0.70049054  1
  Sc  Sc85  1  0.89725168  0.90019845  0.50098996  1
  Sc  Sc86  1  0.91314940  0.89379608  0.30329795  1
  Sc  Sc87  1  0.09679210  0.90132380  0.70031164  1
  Sc  Sc88  1  0.50042623  0.29814800  0.08696226  1
  Sc  Sc89  1  0.49924572  0.90393557  0.69471884  1
  Sc  Sc90  1  0.50276456  0.30661619  0.50113231  1
  Sc  Sc91  1  0.10397783  0.89674206  0.11184687  1
  Sc  Sc92  1  0.29713109  0.91216678  0.90198565  1
  Sc  Sc93  1  0.90068597  0.69961968  0.09217822  1
  Sc  Sc94  1  0.29633127  0.10024911  0.90247756  1
  Sc  Sc95  1  0.49445392  0.10780606  0.49658192  1
  Sc  Sc96  1  0.29977215  0.70431882  0.69334111  1
  Sc  Sc97  1  0.89961108  0.49949916  0.30071735  1
  Sc  Sc98  1  0.90519939  0.50417345  0.50946039  1
  Sc  Sc99  1  0.50016868  0.91044680  0.09770381  1
  Nb  Nb100  1  0.89947157  0.09917335  0.70099085  1
  Nb  Nb101  1  0.49242600  0.29733228  0.90189661  1
  Nb  Nb102  1  0.29812031  0.49442216  0.69935327  1
  Nb  Nb103  1  0.70271001  0.10541120  0.69708521  1
  Nb  Nb104  1  0.29911993  0.89204431  0.30493792  1
  Nb  Nb105  1  0.09391859  0.29741603  0.49255299  1
  Nb  Nb106  1  0.29597508  0.10132954  0.49820345  1
  Nb  Nb107  1  0.30106191  0.30828489  0.70103620  1
  Nb  Nb108  1  0.30065615  0.10995495  0.10047389  1
  Nb  Nb109  1  0.10527798  0.10195667  0.51084303  1
  Nb  Nb110  1  0.09270932  0.30018511  0.89702112  1
  Nb  Nb111  1  0.49773372  0.50061209  0.10748732  1
  Nb  Nb112  1  0.09820776  0.29503390  0.30345431  1
  Nb  Nb113  1  0.10189107  0.09805153  0.29924634  1
  Nb  Nb114  1  0.90574330  0.30145478  0.49390049  1
  Nb  Nb115  1  0.10340869  0.90187670  0.30376284  1
  Nb  Nb116  1  0.29990211  0.70086603  0.89976939  1
  Nb  Nb117  1  0.70091135  0.90137270  0.09817768  1
  Nb  Nb118  1  0.29857876  0.69647509  0.30162629  1
  Nb  Nb119  1  0.09634219  0.10184242  0.69223272  1
  Nb  Nb120  1  0.10216520  0.69346643  0.49810723  1
  Nb  Nb121  1  0.10033722  0.70559576  0.10209617  1
  Nb  Nb122  1  0.50347153  0.49885648  0.49076953  1
  Nb  Nb123  1  0.70191636  0.49781614  0.89361386  1
  Nb  Nb124  1  0.91116577  0.29868803  0.90013941  1
  Nb  Nb125  1  0.39936858  0.59838832  0.40492484  1
  Nb  Nb126  1  0.39902223  0.59784984  0.79659724  1
  Nb  Nb127  1  0.00549208  0.79884821  -0.00185837  1
  Nb  Nb128  1  0.20438054  0.59411974  0.59800604  1
  Nb  Nb129  1  0.59939335  0.19650496  0.20141455  1
  Nb  Nb130  1  0.00679550  0.60591445  0.39715695  1
  Nb  Nb131  1  0.39551060  0.20936210  0.79625818  1
  Nb  Nb132  1  0.60360055  0.19913805  0.39668195  1
  Nb  Nb133  1  0.39465500  0.58865707  0.59540995  1
  Nb  Nb134  1  0.19994804  0.00217029  0.39947735  1
  Nb  Nb135  1  0.39977397  0.79610694  0.80639257  1
  Nb  Nb136  1  0.40465887  0.40369600  0.19560232  1
  Nb  Nb137  1  0.39284332  0.00822587  0.59553462  1
  Nb  Nb138  1  0.79885334  -0.00775751  0.19805925  1
  Nb  Nb139  1  0.39560170  0.79697059  -0.00469925  1
  Nb  Nb140  1  0.19163926  0.19239316  0.40235001  1
  Nb  Nb141  1  0.00115735  0.60650153  0.20220012  1
  Nb  Nb142  1  0.80806439  0.39506054  0.40629471  1
  Nb  Nb143  1  0.60307661  0.80601687  0.19585622  1
  Nb  Nb144  1  0.79470138  0.80284802  0.19825597  1
  Nb  Nb145  1  0.01496939  0.00464910  0.40256977  1
  Nb  Nb146  1  0.59708376  0.59645698  0.80226440  1
  Nb  Nb147  1  0.79866033  0.60462305  0.19851067  1
  Nb  Nb148  1  0.59871636  0.79849409  0.80251860  1
  Nb  Nb149  1  0.20418003  0.79637353  0.80644862  1
  Pd  Pd150  1  0.00548900  0.00460136  0.79455598  1
  Pd  Pd151  1  0.80186224  0.40639697  0.20800064  1
  Pd  Pd152  1  0.39168175  0.00897502  0.78993934  1
  Pd  Pd153  1  0.00680940  0.40407370  0.20387806  1
  Pd  Pd154  1  -0.00236170  -0.00359040  0.59436692  1
  Pd  Pd155  1  0.59475156  0.39959080  0.80267529  1
  Pd  Pd156  1  0.58971505  0.20477959  0.80422898  1
  Pd  Pd157  1  0.38714315  0.59801009  -0.00116023  1
  Pd  Pd158  1  0.79844478  0.80804135  0.39808660  1
  Pd  Pd159  1  -0.00248277  0.79656841  0.59731879  1
  Pd  Pd160  1  0.01225086  -0.00112860  0.00546681  1
  Pd  Pd161  1  0.20171424  -0.00938363  0.59602652  1
  Pd  Pd162  1  0.00546346  0.39819412  0.00219625  1
  Pd  Pd163  1  0.80300943  0.00575593  0.80353204  1
  Pd  Pd164  1  0.40690218  0.78942225  0.39511203  1
  Pd  Pd165  1  0.20546586  0.39408241  0.19930096  1
  Pd  Pd166  1  0.00602945  0.19164891  0.40068843  1
  Pd  Pd167  1  0.59342805  0.00794276  0.59201183  1
  Pd  Pd168  1  0.60073200  0.59400370  0.60186155  1
  Pd  Pd169  1  0.39849415  0.40153628  0.59166145  1
  Pd  Pd170  1  0.00551181  0.59807135  0.79845911  1
  Pd  Pd171  1  0.79355049  0.58964503  0.00568976  1
  Pd  Pd172  1  0.20973615  -0.00378270  0.20552577  1
  Pd  Pd173  1  0.60733669  0.58751672  -0.00179687  1
  Pd  Pd174  1  0.40311397  0.19894907  0.60634238  1
  Pd  Pd175  1  0.01088319  0.79071697  0.80781171  1
  Pd  Pd176  1  0.79295049  0.79901435  0.79248988  1
  Pd  Pd177  1  0.00955521  0.20142364  0.00752655  1
  Pd  Pd178  1  0.40273449  0.20491575  0.39575175  1
  Pd  Pd179  1  0.79956228  0.40025176  -0.00537890  1
  Pd  Pd180  1  0.61196153  0.80775429  0.60651154  1
  Pd  Pd181  1  0.20437782  0.20825145  0.80270219  1
  Pd  Pd182  1  0.38894550  -0.00530314  0.19207939  1
  Pd  Pd183  1  -0.00421259  -0.00155116  0.20502869  1
  Pd  Pd184  1  0.00633980  0.39517808  0.60336877  1
  Pd  Pd185  1  0.79914403  0.40116437  0.59215988  1
  Pd  Pd186  1  0.19887575  0.00829255  0.00590031  1
  Pd  Pd187  1  0.79494506  0.80345280  0.60358499  1
  Pd  Pd188  1  0.39715295  0.39837028  0.80389427  1
  Pd  Pd189  1  0.40083627  0.80301775  0.19085568  1
  Pd  Pd190  1  -0.00284277  0.40955499  0.39442434  1
  Pd  Pd191  1  -0.00142236  0.20534441  0.60593871  1
  Pd  Pd192  1  0.80637488  0.20184753  0.60022556  1
  Pd  Pd193  1  0.20350218  0.60435404  0.78905583  1
  Pd  Pd194  1  0.20237405  0.59945232  0.00436303  1
  Pd  Pd195  1  0.80069117  0.19758636  -0.00859874  1
  Pd  Pd196  1  0.39732044  0.40468955  0.39135922  1
  Pd  Pd197  1  0.80499951  0.20282553  0.80706613  1
  Pd  Pd198  1  0.19338654  0.39722194  0.59886413  1
  Pd  Pd199  1  0.38971795  0.40148975  0.00780353  1
  Rh  Rh200  1  0.60109052  0.19328857  0.59331650  1
  Rh  Rh201  1  0.39384358  0.19859824  -0.01006483  1
  Rh  Rh202  1  0.39821719  0.81194664  0.60829738  1
  Rh  Rh203  1  0.19438987  0.39671887  0.00040938  1
  Rh  Rh204  1  0.60524864  0.40413994  0.59309783  1
  Rh  Rh205  1  0.00967677  0.59809864  0.59408177  1
  Rh  Rh206  1  0.81651917  -0.00861684  0.39187206  1
  Rh  Rh207  1  0.61183331  0.61085179  0.19191429  1
  Rh  Rh208  1  0.81281627  0.80210027  -0.00136464  1
  Rh  Rh209  1  0.19877692  0.38277104  0.39896337  1
  Rh  Rh210  1  0.00673060  0.79947094  0.41122154  1
  Rh  Rh211  1  0.19404010  0.19881281  -0.00416760  1
  Rh  Rh212  1  0.19348542  -0.00087092  0.79403065  1
  Rh  Rh213  1  0.61502984  0.39090409  0.40773143  1
  Rh  Rh214  1  0.79637982  0.59796478  0.79539978  1
  Rh  Rh215  1  0.60006070  -0.00203534  0.80291611  1
  Rh  Rh216  1  0.80653952  0.00321239  0.60480897  1
  Rh  Rh217  1  0.00600336  0.60442432  0.00734884  1
  Rh  Rh218  1  0.00706639  0.20420243  0.19618646  1
  Rh  Rh219  1  0.39125560  0.59034887  0.21081373  1
  Rh  Rh220  1  0.80055171  0.59865105  0.59999646  1
  Rh  Rh221  1  0.81176405  0.58884837  0.40138695  1
  Rh  Rh222  1  0.59942582  0.40057336  0.00010445  1
  Rh  Rh223  1  0.79369221  0.21234960  0.40491849  1
  Rh  Rh224  1  0.00085456  0.39812256  0.80044775  1
  Rh  Rh225  1  -0.00268102  0.19814932  0.79260539  1
  Rh  Rh226  1  0.59426179  0.79683323  0.39390586  1
  Rh  Rh227  1  0.41139558  0.21100519  0.20010456  1
  Rh  Rh228  1  0.80195046  0.00838770  -0.00122573  1
  Rh  Rh229  1  0.59543438  0.01247949  0.40814949  1
  Rh  Rh230  1  0.19476111  0.21370285  0.59384478  1
  Rh  Rh231  1  0.59538600  0.19603017  0.00137287  1
  Rh  Rh232  1  0.80311436  0.38919321  0.80800517  1
  Rh  Rh233  1  0.19780699  0.20511286  0.20934460  1
  Rh  Rh234  1  0.19831084  0.79677025  -0.00466683  1
  Rh  Rh235  1  0.19537542  0.79387902  0.60949931  1
  Rh  Rh236  1  0.19799404  0.80412292  0.39740599  1
  Rh  Rh237  1  0.39280023  0.00161926  0.40532894  1
  Rh  Rh238  1  0.59014994  0.38536282  0.19212673  1
  Rh  Rh239  1  0.20106672  0.60127834  0.40353783  1
  Rh  Rh240  1  0.59516614  0.00270227  -0.00257615  1
  Rh  Rh241  1  0.20838664  0.80124629  0.20520935  1
  Rh  Rh242  1  0.58809338  0.61046350  0.40736897  1
  Rh  Rh243  1  -0.00647684  0.79732604  0.18757568  1
  Rh  Rh244  1  0.19645486  0.39451551  0.80097926  1
  Rh  Rh245  1  0.79005087  0.18922134  0.19701227  1
  Rh  Rh246  1  0.38999192  -0.00090713  0.00635258  1
  Rh  Rh247  1  0.19195076  0.60488848  0.20098900  1
  Rh  Rh248  1  0.60555487  0.00265619  0.19690135  1
  Rh  Rh249  1  0.58420578  0.81251203  0.00056682  1
