# generated using pymatgen
data_ZrScNbPdRh
_symmetry_space_group_name_H-M   'P 1'
_cell_length_a   16.55666985
_cell_length_b   16.55888440
_cell_length_c   16.56295952
_cell_angle_alpha   89.97859350
_cell_angle_beta   89.98091349
_cell_angle_gamma   90.00625074
_symmetry_Int_Tables_number   1
_chemical_formula_structural   ZrScNbPdRh
_chemical_formula_sum   'Zr50 Sc50 Nb50 Pd50 Rh50'
_cell_volume   4540.90009001
_cell_formula_units_Z   50
loop_
 _symmetry_equiv_pos_site_id
 _symmetry_equiv_pos_as_xyz
  1  'x, y, z'
loop_
 _atom_site_type_symbol
 _atom_site_label
 _atom_site_symmetry_multiplicity
 _atom_site_fract_x
 _atom_site_fract_y
 _atom_site_fract_z
 _atom_site_occupancy
  Zr  Zr0  1  0.30607507  0.70324731  0.69532496  1
  Zr  Zr1  1  0.89758698  0.70601659  0.30045927  1
  Zr  Zr2  1  0.10340339  0.30379141  0.30884321  1
  Zr  Zr3  1  0.50016651  0.90141553  0.50492047  1
  Zr  Zr4  1  0.50794977  0.29799633  0.10895346  1
  Zr  Zr5  1  0.10077646  0.29800354  0.69316604  1
  Zr  Zr6  1  0.69073140  0.30787657  0.29853073  1
  Zr  Zr7  1  0.49634315  0.50508777  0.90041846  1
  Zr  Zr8  1  0.90222369  0.69429505  0.69541350  1
  Zr  Zr9  1  0.09621872  0.89744323  0.50982054  1
  Zr  Zr10  1  0.70056166  0.71460224  0.89910763  1
  Zr  Zr11  1  0.09453853  0.69749124  0.29805364  1
  Zr  Zr12  1  0.89467578  0.10233683  0.10100437  1
  Zr  Zr13  1  0.50373745  0.10527358  0.69963387  1
  Zr  Zr14  1  0.49495825  0.09408324  0.29674161  1
  Zr  Zr15  1  0.89626523  0.50153611  0.70209191  1
  Zr  Zr16  1  0.70406366  0.69725958  0.70010625  1
  Zr  Zr17  1  0.50648758  0.29478191  0.89769809  1
  Zr  Zr18  1  0.10170271  0.30250953  0.90282360  1
  Zr  Zr19  1  0.29388405  0.28959413  0.90038763  1
  Zr  Zr20  1  0.71159958  0.90082941  0.50293042  1
  Zr  Zr21  1  0.48955186  0.69323578  0.50084481  1
  Zr  Zr22  1  0.10109966  0.08844315  0.69809895  1
  Zr  Zr23  1  0.09181753  0.09698034  0.10494511  1
  Zr  Zr24  1  0.69908357  0.71245742  0.10879157  1
  Zr  Zr25  1  0.10269324  0.89378485  0.09252429  1
  Zr  Zr26  1  0.69391079  0.49596632  0.49139878  1
  Zr  Zr27  1  0.70003335  0.90094796  0.09287319  1
  Zr  Zr28  1  0.29093998  0.89642135  0.70334433  1
  Zr  Zr29  1  0.09584048  0.69650961  0.91003689  1
  Zr  Zr30  1  0.70572122  0.10946297  0.90136917  1
  Zr  Zr31  1  0.70356632  0.29676117  0.09673981  1
  Zr  Zr32  1  0.88139748  0.09921218  0.48638766  1
  Zr  Zr33  1  0.70267500  0.89035614  0.29101553  1
  Zr  Zr34  1  0.50542795  0.89714767  0.90059131  1
  Zr  Zr35  1  0.10116516  0.10546812  0.89223795  1
  Zr  Zr36  1  0.30606798  0.90462297  0.89679403  1
  Zr  Zr37  1  0.71982412  0.10606276  0.30320667  1
  Zr  Zr38  1  0.70081042  0.90227185  0.69495703  1
  Zr  Zr39  1  0.50358705  0.29629194  0.70258945  1
  Zr  Zr40  1  0.09756657  0.30582774  0.49977933  1
  Zr  Zr41  1  0.30202196  0.09934081  0.70346297  1
  Zr  Zr42  1  0.29719690  0.30484767  0.10435426  1
  Zr  Zr43  1  0.70532467  0.90029161  0.90601318  1
  Zr  Zr44  1  0.70196708  0.10069612  0.09663906  1
  Zr  Zr45  1  0.30119946  0.48964411  0.29858084  1
  Zr  Zr46  1  0.09971902  0.30375607  0.09989295  1
  Zr  Zr47  1  0.29901807  0.30763871  0.70298887  1
  Zr  Zr48  1  0.09998613  0.69631612  0.09926141  1
  Zr  Zr49  1  0.30278586  0.69570753  0.90304245  1
  Sc  Sc50  1  0.70492185  0.69398407  0.29834573  1
  Sc  Sc51  1  0.90442267  0.30120073  0.50324602  1
  Sc  Sc52  1  0.49200342  0.10582066  0.89955092  1
  Sc  Sc53  1  0.48715769  0.89749402  0.70403057  1
  Sc  Sc54  1  0.50191749  0.49388322  0.30536735  1
  Sc  Sc55  1  0.51141957  0.90671184  0.10394177  1
  Sc  Sc56  1  0.09090431  0.50336942  0.68867889  1
  Sc  Sc57  1  0.29707305  0.68733944  0.09920498  1
  Sc  Sc58  1  0.90122146  0.50715235  0.30177733  1
  Sc  Sc59  1  0.90867321  0.69884255  0.10487993  1
  Sc  Sc60  1  0.50649418  0.68757370  0.29581659  1
  Sc  Sc61  1  0.90136948  0.50239963  0.10101140  1
  Sc  Sc62  1  0.50014411  0.90528489  0.29186646  1
  Sc  Sc63  1  0.49289667  0.50481112  0.11128049  1
  Sc  Sc64  1  0.29225972  0.08292994  0.30489732  1
  Sc  Sc65  1  0.11325792  0.09980822  0.49924542  1
  Sc  Sc66  1  0.29001934  0.30537827  0.49944273  1
  Sc  Sc67  1  0.09503868  0.50062045  0.10010325  1
  Sc  Sc68  1  0.90737227  0.90257277  0.68354242  1
  Sc  Sc69  1  0.09751855  0.69983322  0.50554203  1
  Sc  Sc70  1  0.49651143  0.49259185  0.70734592  1
  Sc  Sc71  1  0.49783275  0.10114949  0.51426525  1
  Sc  Sc72  1  0.09639895  0.49771618  0.49721598  1
  Sc  Sc73  1  0.11002992  0.89905076  0.89623801  1
  Sc  Sc74  1  0.09385774  0.91544765  0.30472230  1
  Sc  Sc75  1  0.90036646  0.70609773  0.49670755  1
  Sc  Sc76  1  0.70738131  0.69497000  0.49432784  1
  Sc  Sc77  1  0.90456159  0.28982140  0.31337376  1
  Sc  Sc78  1  0.70652534  0.49958775  0.10612214  1
  Sc  Sc79  1  0.30036017  0.49811006  0.89764818  1
  Sc  Sc80  1  0.89669869  0.50083006  0.90076337  1
  Sc  Sc81  1  0.29691414  0.90884143  0.50224987  1
  Sc  Sc82  1  0.90382765  0.50202029  0.50038213  1
  Sc  Sc83  1  0.30199990  0.09572053  0.09215764  1
  Sc  Sc84  1  0.90312847  0.10622489  0.69920193  1
  Sc  Sc85  1  0.69815820  0.29834417  0.49919524  1
  Sc  Sc86  1  0.29870080  0.90702836  0.09558085  1
  Sc  Sc87  1  0.90228996  0.30492435  0.08875866  1
  Sc  Sc88  1  0.90083221  0.29567601  0.69687400  1
  Sc  Sc89  1  0.69892470  0.50441234  0.30502260  1
  Sc  Sc90  1  0.30729191  0.50474401  0.49976750  1
  Sc  Sc91  1  0.49988840  0.69865813  0.88908541  1
  Sc  Sc92  1  0.50038250  0.30753389  0.50583148  1
  Sc  Sc93  1  0.09990236  0.49861370  0.29909970  1
  Sc  Sc94  1  0.29830336  0.50166842  0.10795378  1
  Sc  Sc95  1  0.29945110  0.68177815  0.29973929  1
  Sc  Sc96  1  0.70769938  0.29993485  0.89885620  1
  Sc  Sc97  1  0.70486749  0.49027073  0.89109331  1
  Sc  Sc98  1  0.89388300  0.89612541  0.10010132  1
  Sc  Sc99  1  0.30051247  0.69410195  0.50611076  1
  Nb  Nb100  1  0.90078431  0.89480706  0.48846370  1
  Nb  Nb101  1  0.30030662  0.30225461  0.29878594  1
  Nb  Nb102  1  0.09325096  0.10453817  0.29438100  1
  Nb  Nb103  1  0.91252660  0.09071658  0.29851552  1
  Nb  Nb104  1  0.30221064  0.09883156  0.49886090  1
  Nb  Nb105  1  0.89713948  0.70340208  0.89936573  1
  Nb  Nb106  1  0.49602841  0.29853213  0.29967963  1
  Nb  Nb107  1  0.69996542  0.49412914  0.70159206  1
  Nb  Nb108  1  0.90008292  0.90079654  0.31733367  1
  Nb  Nb109  1  0.30167886  0.89801834  0.29950346  1
  Nb  Nb110  1  0.89493113  0.89918999  0.89853870  1
  Nb  Nb111  1  0.29862700  0.50523727  0.70351250  1
  Nb  Nb112  1  0.89968571  0.10152252  0.89628427  1
  Nb  Nb113  1  0.89490703  0.29841918  0.89496254  1
  Nb  Nb114  1  0.10175325  0.70962977  0.69670765  1
  Nb  Nb115  1  0.50015503  0.10339766  0.10315399  1
  Nb  Nb116  1  0.29899087  0.09793976  0.89305385  1
  Nb  Nb117  1  0.69695024  0.30080478  0.70888651  1
  Nb  Nb118  1  0.50351591  0.50607286  0.49997392  1
  Nb  Nb119  1  0.09627406  0.50218285  0.89650220  1
  Nb  Nb120  1  0.69195344  0.09779410  0.50421362  1
  Nb  Nb121  1  0.69684650  0.10459219  0.69328433  1
  Nb  Nb122  1  0.49840939  0.69895209  0.09808984  1
  Nb  Nb123  1  0.49702138  0.69840831  0.69577132  1
  Nb  Nb124  1  0.10126641  0.89219558  0.69642044  1
  Nb  Nb125  1  0.39644683  0.79721946  0.19904658  1
  Nb  Nb126  1  0.39769885  0.20024136  0.39678060  1
  Nb  Nb127  1  0.00190108  0.39802693  0.80349415  1
  Nb  Nb128  1  0.39731302  0.80067264  0.39226141  1
  Nb  Nb129  1  0.20439809  0.80149139  0.20605632  1
  Nb  Nb130  1  0.59430199  0.19468394  0.39920723  1
  Nb  Nb131  1  0.79495323  0.60892821  -0.00229221  1
  Nb  Nb132  1  0.19835866  0.19874510  0.20673746  1
  Nb  Nb133  1  0.40391706  0.79637369  0.00607300  1
  Nb  Nb134  1  0.60676508  0.00221592  0.40341591  1
  Nb  Nb135  1  0.00092610  0.79859735  0.79803057  1
  Nb  Nb136  1  0.80136674  0.39583064  0.20492311  1
  Nb  Nb137  1  0.80090998  0.00335259  0.80003785  1
  Nb  Nb138  1  0.79183026  0.40233235  0.60646512  1
  Nb  Nb139  1  -0.00662878  0.00101962  -0.00958703  1
  Nb  Nb140  1  0.59674538  0.40506463  0.00195611  1
  Nb  Nb141  1  0.19366120  0.60114157  0.79456483  1
  Nb  Nb142  1  0.20416642  0.80219160  0.39370414  1
  Nb  Nb143  1  0.59682273  0.79153082  0.59872881  1
  Nb  Nb144  1  0.59802072  0.59699264  0.60448075  1
  Nb  Nb145  1  0.60457806  0.60132886  0.00010183  1
  Nb  Nb146  1  0.60701671  0.00493712  0.79735429  1
  Nb  Nb147  1  0.39416970  0.19927278  0.20608045  1
  Nb  Nb148  1  0.40407201  0.39603704  0.00167286  1
  Nb  Nb149  1  0.59561905  0.80267518  0.40355123  1
  Pd  Pd150  1  0.81323282  0.21104476  0.20316529  1
  Pd  Pd151  1  -0.00415531  -0.01155912  0.80179637  1
  Pd  Pd152  1  -0.00558001  0.80720647  -0.00728735  1
  Pd  Pd153  1  -0.00203835  0.21108695  0.20075827  1
  Pd  Pd154  1  0.20076116  0.58818925  -0.00293650  1
  Pd  Pd155  1  0.39875331  0.39548076  0.80799019  1
  Pd  Pd156  1  0.80861153  0.00601039  0.60428251  1
  Pd  Pd157  1  0.19883209  0.60072746  0.40341731  1
  Pd  Pd158  1  0.81251601  0.80892050  0.78631929  1
  Pd  Pd159  1  0.39754304  0.40450267  0.59920708  1
  Pd  Pd160  1  0.79477167  0.59158315  0.59097885  1
  Pd  Pd161  1  -0.00124308  0.60219309  0.40327173  1
  Pd  Pd162  1  -0.00463410  0.40656733  -0.00788027  1
  Pd  Pd163  1  0.79435380  0.20770931  0.59982457  1
  Pd  Pd164  1  0.40060951  0.20312916  0.00707892  1
  Pd  Pd165  1  0.60009378  0.19077625  0.20711003  1
  Pd  Pd166  1  0.20605684  0.40956492  0.00104154  1
  Pd  Pd167  1  -0.00364452  0.19657388  -0.00281061  1
  Pd  Pd168  1  0.19759248  0.79052392  0.80643580  1
  Pd  Pd169  1  0.00422763  0.19105285  0.40955530  1
  Pd  Pd170  1  0.61148353  0.00843321  0.20562888  1
  Pd  Pd171  1  0.00478777  0.81101556  0.20768796  1
  Pd  Pd172  1  0.00495307  0.60165676  0.79948568  1
  Pd  Pd173  1  0.40242398  0.39600464  0.40712642  1
  Pd  Pd174  1  0.20136828  0.41147480  0.59687839  1
  Pd  Pd175  1  -0.00887609  0.39708039  0.20750835  1
  Pd  Pd176  1  0.19286371  0.00692241  -0.00660599  1
  Pd  Pd177  1  0.60305684  0.59660408  0.79963649  1
  Pd  Pd178  1  0.20712713  0.19514576  0.39383559  1
  Pd  Pd179  1  0.19004057  0.40998271  0.79470711  1
  Pd  Pd180  1  0.19842708  0.19157146  0.00913074  1
  Pd  Pd181  1  0.20565510  0.19788228  0.60262703  1
  Pd  Pd182  1  0.19616064  0.59735795  0.60220289  1
  Pd  Pd183  1  0.00660725  0.00842968  0.41157969  1
  Pd  Pd184  1  0.00040025  0.18938815  0.58921262  1
  Pd  Pd185  1  0.60228281  0.40165548  0.60245070  1
  Pd  Pd186  1  0.80676030  -0.00662331  0.20351206  1
  Pd  Pd187  1  0.39189280  0.20808681  0.59353761  1
  Pd  Pd188  1  0.40515071  -0.00055536  0.40459408  1
  Pd  Pd189  1  0.39564987  -0.00238027  0.60783518  1
  Pd  Pd190  1  0.00150977  0.20817368  0.79795520  1
  Pd  Pd191  1  -0.00810774  -0.01172783  0.19308332  1
  Pd  Pd192  1  0.40901687  -0.00424213  0.00197997  1
  Pd  Pd193  1  0.59368212  0.01252744  -0.00780364  1
  Pd  Pd194  1  -0.00746851  0.00974181  0.58745166  1
  Pd  Pd195  1  0.59698245  0.80699589  0.78915509  1
  Pd  Pd196  1  0.79566198  0.60067487  0.80887080  1
  Pd  Pd197  1  0.19950428  -0.00057612  0.19897730  1
  Pd  Pd198  1  0.80688872  0.39855831  0.40069220  1
  Pd  Pd199  1  0.60394478  0.59470034  0.19564588  1
  Rh  Rh200  1  0.58925438  0.79687487  0.20799589  1
  Rh  Rh201  1  0.19953939  0.19760738  0.79153953  1
  Rh  Rh202  1  0.40707947  0.00484034  0.79985574  1
  Rh  Rh203  1  0.80918404  0.79137706  0.00920468  1
  Rh  Rh204  1  -0.01031472  0.59626827  -0.00093176  1
  Rh  Rh205  1  0.21411888  0.79791370  0.00840374  1
  Rh  Rh206  1  0.80401763  0.59520472  0.19617409  1
  Rh  Rh207  1  0.20432865  -0.00084553  0.60215485  1
  Rh  Rh208  1  0.59804500  0.60583607  0.40688011  1
  Rh  Rh209  1  0.39819801  0.79558348  0.80663396  1
  Rh  Rh210  1  0.79290468  0.79687067  0.39752249  1
  Rh  Rh211  1  0.19317616  0.59917228  0.20010911  1
  Rh  Rh212  1  0.19834644  -0.00104535  0.79933284  1
  Rh  Rh213  1  0.80930637  0.39238394  0.79137950  1
  Rh  Rh214  1  0.40296056  0.39594570  0.19648689  1
  Rh  Rh215  1  0.80899034  0.80289496  0.20184246  1
  Rh  Rh216  1  0.40739548  0.58712128  0.60908734  1
  Rh  Rh217  1  0.60618223  0.19587841  0.80052594  1
  Rh  Rh218  1  0.59092750  0.39409385  0.40031021  1
  Rh  Rh219  1  0.19465670  -0.00390690  0.40265094  1
  Rh  Rh220  1  0.60523659  0.40784434  0.19758556  1
  Rh  Rh221  1  0.39630821  0.00061949  0.18954523  1
  Rh  Rh222  1  0.40615326  0.59805095  0.00230627  1
  Rh  Rh223  1  0.59714729  -0.00713168  0.60462644  1
  Rh  Rh224  1  0.79942653  0.19714281  0.79285009  1
  Rh  Rh225  1  -0.01095072  0.40189258  0.60599492  1
  Rh  Rh226  1  0.39733362  0.80442504  0.59365733  1
  Rh  Rh227  1  0.40055306  0.59883972  0.39399444  1
  Rh  Rh228  1  0.39421573  0.20194382  0.79794317  1
  Rh  Rh229  1  0.59907593  0.39767969  0.80605742  1
  Rh  Rh230  1  0.19236189  0.39819583  0.20151420  1
  Rh  Rh231  1  0.79549879  0.40600773  0.00621638  1
  Rh  Rh232  1  0.39254363  0.60220272  0.79295432  1
  Rh  Rh233  1  0.80206181  0.79784445  0.59856903  1
  Rh  Rh234  1  0.79253505  0.20875893  0.40452018  1
  Rh  Rh235  1  0.80781827  0.00399932  -0.00612366  1
  Rh  Rh236  1  0.60040775  0.20111447  -0.00002847  1
  Rh  Rh237  1  0.79425532  -0.00441738  0.39533514  1
  Rh  Rh238  1  0.00147756  0.59756269  0.20001324  1
  Rh  Rh239  1  -0.00144394  0.40246419  0.39994578  1
  Rh  Rh240  1  0.00032231  0.60405567  0.59549865  1
  Rh  Rh241  1  0.20177079  0.40764719  0.40386704  1
  Rh  Rh242  1  0.40019418  0.60095310  0.20550089  1
  Rh  Rh243  1  0.20575427  0.80111385  0.58936611  1
  Rh  Rh244  1  0.59053795  0.79221580  0.00227489  1
  Rh  Rh245  1  0.80690347  0.20333866  -0.00137996  1
  Rh  Rh246  1  0.01067041  0.80098749  0.39962097  1
  Rh  Rh247  1  0.80547520  0.60071502  0.39845423  1
  Rh  Rh248  1  0.60341564  0.20879347  0.59660892  1
  Rh  Rh249  1  -0.00595596  0.79561168  0.60021737  1
