# generated using pymatgen
data_ZrScNbPdRh
_symmetry_space_group_name_H-M   'P 1'
_cell_length_a   16.55241447
_cell_length_b   16.55459816
_cell_length_c   16.55116392
_cell_angle_alpha   90.03511674
_cell_angle_beta   90.01796695
_cell_angle_gamma   90.00148167
_symmetry_Int_Tables_number   1
_chemical_formula_structural   ZrScNbPdRh
_chemical_formula_sum   'Zr50 Sc50 Nb50 Pd50 Rh50'
_cell_volume   4535.32519474
_cell_formula_units_Z   50
loop_
 _symmetry_equiv_pos_site_id
 _symmetry_equiv_pos_as_xyz
  1  'x, y, z'
loop_
 _atom_site_type_symbol
 _atom_site_label
 _atom_site_symmetry_multiplicity
 _atom_site_fract_x
 _atom_site_fract_y
 _atom_site_fract_z
 _atom_site_occupancy
  Zr  Zr0  1  0.70465020  0.30425851  0.49500601  1
  Zr  Zr1  1  0.10487497  0.89449623  0.89842754  1
  Zr  Zr2  1  0.09399970  0.30879710  0.50155040  1
  Zr  Zr3  1  0.10432944  0.29613878  0.90104736  1
  Zr  Zr4  1  0.11156582  0.70186669  0.29700200  1
  Zr  Zr5  1  0.49489717  0.29323327  0.29390429  1
  Zr  Zr6  1  0.49869918  0.70207259  0.89992123  1
  Zr  Zr7  1  0.30300125  0.09881852  0.09008704  1
  Zr  Zr8  1  0.49454196  0.69891371  0.30025246  1
  Zr  Zr9  1  0.10110479  0.29716300  0.70535611  1
  Zr  Zr10  1  0.48756666  0.89636326  0.29335339  1
  Zr  Zr11  1  0.90602236  0.90275265  0.30414265  1
  Zr  Zr12  1  0.69878731  0.69842962  0.48872966  1
  Zr  Zr13  1  0.31256789  0.49581980  0.09842575  1
  Zr  Zr14  1  0.29709030  0.51522029  0.30137349  1
  Zr  Zr15  1  0.50346452  0.69597570  0.10264349  1
  Zr  Zr16  1  0.10493039  0.09856477  0.89739488  1
  Zr  Zr17  1  0.89998201  0.89931517  0.90808407  1
  Zr  Zr18  1  0.30279283  0.29648079  0.29975901  1
  Zr  Zr19  1  0.10126121  0.10102923  0.10110334  1
  Zr  Zr20  1  0.09818926  0.49772738  0.30632762  1
  Zr  Zr21  1  0.29816182  0.90760865  0.70538746  1
  Zr  Zr22  1  0.90081670  0.49531544  0.09871790  1
  Zr  Zr23  1  0.70084180  0.49528695  0.70505689  1
  Zr  Zr24  1  0.30512842  0.90053130  0.89886049  1
  Zr  Zr25  1  0.69931793  0.69133705  0.71078129  1
  Zr  Zr26  1  0.29990576  0.09508951  0.29999272  1
  Zr  Zr27  1  0.89986980  0.29749201  0.90224721  1
  Zr  Zr28  1  0.89753349  0.50066655  0.90213617  1
  Zr  Zr29  1  0.90010976  0.49335812  0.29204550  1
  Zr  Zr30  1  0.69780186  0.70565836  0.09416549  1
  Zr  Zr31  1  0.11225667  0.90320689  0.30128698  1
  Zr  Zr32  1  0.69554211  0.30383006  0.71103637  1
  Zr  Zr33  1  0.29995253  0.69911938  0.49938138  1
  Zr  Zr34  1  0.69028492  0.69494183  0.29529634  1
  Zr  Zr35  1  0.50496654  0.49450567  0.70087834  1
  Zr  Zr36  1  0.31358860  0.29722449  0.09424176  1
  Zr  Zr37  1  0.90019891  0.49955385  0.70481511  1
  Zr  Zr38  1  0.49682727  0.10195288  0.50610024  1
  Zr  Zr39  1  0.10408232  0.69932795  0.69643549  1
  Zr  Zr40  1  0.08912813  0.70155773  0.50821913  1
  Zr  Zr41  1  0.90584172  0.29702401  0.69755487  1
  Zr  Zr42  1  0.49940088  0.50700505  0.29389699  1
  Zr  Zr43  1  0.70930132  0.90399480  0.29052669  1
  Zr  Zr44  1  0.50665412  0.90133097  0.50712538  1
  Zr  Zr45  1  0.89586884  0.70341085  0.31316233  1
  Zr  Zr46  1  0.90435411  0.89698133  0.49734599  1
  Zr  Zr47  1  0.69834055  0.90054737  0.90048341  1
  Zr  Zr48  1  0.69837171  0.90310231  0.09490404  1
  Zr  Zr49  1  0.69732622  0.49671216  0.30892209  1
  Sc  Sc50  1  0.29969683  0.69207658  0.09529106  1
  Sc  Sc51  1  0.30019432  0.51206527  0.69919623  1
  Sc  Sc52  1  0.69643569  0.50022703  0.89017955  1
  Sc  Sc53  1  0.10100625  0.89666876  0.09599634  1
  Sc  Sc54  1  0.50050945  0.69974240  0.70420031  1
  Sc  Sc55  1  0.90248022  0.69710113  0.09341626  1
  Sc  Sc56  1  0.50419325  0.29459039  0.90314585  1
  Sc  Sc57  1  0.89346511  0.30486577  0.29484601  1
  Sc  Sc58  1  0.70665164  0.09664599  0.50336598  1
  Sc  Sc59  1  0.49272120  0.30192173  0.50393005  1
  Sc  Sc60  1  0.68932573  0.90340153  0.70053395  1
  Sc  Sc61  1  0.30660153  0.90730773  0.10945092  1
  Sc  Sc62  1  0.88993538  0.10479277  0.50473757  1
  Sc  Sc63  1  0.91674066  0.49865806  0.49195955  1
  Sc  Sc64  1  0.69599022  0.28827956  0.09931163  1
  Sc  Sc65  1  0.70192643  0.09723077  0.70613713  1
  Sc  Sc66  1  0.10067846  0.89430690  0.49802219  1
  Sc  Sc67  1  0.69188302  0.49646443  0.09701701  1
  Sc  Sc68  1  0.10253558  0.50067974  0.89787139  1
  Sc  Sc69  1  0.49688907  0.90416705  0.89605756  1
  Sc  Sc70  1  0.09760026  0.69963071  0.08982995  1
  Sc  Sc71  1  0.49962904  0.09711416  0.70363747  1
  Sc  Sc72  1  0.08228965  0.29803549  0.09772327  1
  Sc  Sc73  1  0.89476070  0.10564483  0.09706911  1
  Sc  Sc74  1  0.50201950  0.90449204  0.70353943  1
  Sc  Sc75  1  0.49450262  0.50249992  0.09322085  1
  Sc  Sc76  1  0.09622429  0.29955656  0.30108681  1
  Sc  Sc77  1  0.50202975  0.10019532  0.10196922  1
  Sc  Sc78  1  0.70744696  0.30183973  0.29798518  1
  Sc  Sc79  1  0.10943934  0.89981350  0.69970271  1
  Sc  Sc80  1  0.69948003  0.09730115  0.10359863  1
  Sc  Sc81  1  0.89532064  0.09396122  0.89829765  1
  Sc  Sc82  1  0.49947699  0.49536687  0.90760189  1
  Sc  Sc83  1  0.69900166  0.10532667  0.90191164  1
  Sc  Sc84  1  0.89660823  0.69431298  0.91011206  1
  Sc  Sc85  1  0.29956368  0.28763911  0.90035609  1
  Sc  Sc86  1  0.10635235  0.09877715  0.30667189  1
  Sc  Sc87  1  0.30205017  0.89454230  0.50572776  1
  Sc  Sc88  1  0.88997293  0.90085140  0.09840714  1
  Sc  Sc89  1  0.50358170  0.49400313  0.50228004  1
  Sc  Sc90  1  0.30079920  0.50841923  0.90239877  1
  Sc  Sc91  1  0.08765198  0.50118767  0.10241112  1
  Sc  Sc92  1  0.50206046  0.29922420  0.69917923  1
  Sc  Sc93  1  0.30772190  0.10190449  0.89276164  1
  Sc  Sc94  1  0.90082941  0.90521533  0.70189001  1
  Sc  Sc95  1  0.29772554  0.28781337  0.50355882  1
  Sc  Sc96  1  0.50040108  0.70889238  0.49576315  1
  Sc  Sc97  1  0.88835473  0.09946748  0.30415313  1
  Sc  Sc98  1  0.30079869  0.70141735  0.70147240  1
  Sc  Sc99  1  0.11702360  0.10801948  0.50016801  1
  Nb  Nb100  1  0.90535984  0.70010201  0.69283275  1
  Nb  Nb101  1  0.29835052  0.89570986  0.30193423  1
  Nb  Nb102  1  0.09876097  0.50013057  0.69625040  1
  Nb  Nb103  1  0.30589468  0.10722659  0.50037919  1
  Nb  Nb104  1  0.10355718  0.70338761  0.89930397  1
  Nb  Nb105  1  0.29253066  0.10818599  0.68823031  1
  Nb  Nb106  1  0.49795589  0.30887975  0.09766455  1
  Nb  Nb107  1  0.10409327  0.49756423  0.50321341  1
  Nb  Nb108  1  0.49772927  0.09756998  0.89451056  1
  Nb  Nb109  1  0.28869120  0.70008268  0.89681596  1
  Nb  Nb110  1  0.50133368  0.09855742  0.30377923  1
  Nb  Nb111  1  0.10342696  0.09895365  0.70201436  1
  Nb  Nb112  1  0.69184827  0.10160449  0.29738320  1
  Nb  Nb113  1  0.49521836  0.90278182  0.09422944  1
  Nb  Nb114  1  0.69488061  0.90096433  0.50446394  1
  Nb  Nb115  1  0.29770985  0.30005417  0.70165286  1
  Nb  Nb116  1  0.30269570  0.71155115  0.30521591  1
  Nb  Nb117  1  0.90745708  0.10042638  0.69858878  1
  Nb  Nb118  1  0.69911499  0.70149406  0.89549496  1
  Nb  Nb119  1  0.89899790  0.29935642  0.49920415  1
  Nb  Nb120  1  0.69764810  0.30198582  0.90110162  1
  Nb  Nb121  1  0.90253098  0.70476682  0.50763016  1
  Nb  Nb122  1  0.89535075  0.30707819  0.10070598  1
  Nb  Nb123  1  0.29756552  0.49670858  0.49842800  1
  Nb  Nb124  1  0.69966429  0.49751028  0.50096690  1
  Nb  Nb125  1  0.60025321  0.19440333  0.39887172  1
  Nb  Nb126  1  0.00036043  0.80380958  0.20491641  1
  Nb  Nb127  1  0.60922474  0.59661934  0.59824230  1
  Nb  Nb128  1  0.19904265  0.40457104  0.60236593  1
  Nb  Nb129  1  0.20064297  0.39569041  0.00608056  1
  Nb  Nb130  1  -0.00643503  0.20384105  0.40585495  1
  Nb  Nb131  1  0.59282765  0.39526438  0.19717136  1
  Nb  Nb132  1  0.39408511  0.39651137  0.79663451  1
  Nb  Nb133  1  0.39259600  0.40416798  0.39809881  1
  Nb  Nb134  1  0.79838688  0.79533260  0.60027923  1
  Nb  Nb135  1  0.60419990  0.20156711  0.59718141  1
  Nb  Nb136  1  0.80374626  0.40294003  0.59684027  1
  Nb  Nb137  1  0.40029049  0.00157471  0.40047061  1
  Nb  Nb138  1  0.00349639  0.00986211  0.60396692  1
  Nb  Nb139  1  0.00385092  0.60634905  0.79672048  1
  Nb  Nb140  1  0.79709777  0.39205171  -0.00180917  1
  Nb  Nb141  1  0.20342867  0.39761369  0.19514456  1
  Nb  Nb142  1  0.80315925  0.59955943  0.59456799  1
  Nb  Nb143  1  0.00038524  -0.00299642  0.20362734  1
  Nb  Nb144  1  0.80302814  0.79499676  0.79804241  1
  Nb  Nb145  1  -0.00161111  0.79374105  0.80135894  1
  Nb  Nb146  1  0.59888415  0.00061635  0.39645729  1
  Nb  Nb147  1  0.79638069  0.59922447  0.20184079  1
  Nb  Nb148  1  0.20310668  0.20469221  0.19525260  1
  Nb  Nb149  1  0.20222385  0.00027516  -0.00444871  1
  Pd  Pd150  1  0.00684211  0.19297671  0.59237487  1
  Pd  Pd151  1  0.19763631  -0.00175828  0.59294661  1
  Pd  Pd152  1  0.00463620  -0.00692578  0.79507579  1
  Pd  Pd153  1  0.79269978  0.20675206  0.60841069  1
  Pd  Pd154  1  0.00291132  0.40480869  0.80526156  1
  Pd  Pd155  1  -0.00626219  0.19404680  -0.00381907  1
  Pd  Pd156  1  0.19382057  0.60777759  0.40854244  1
  Pd  Pd157  1  0.00203243  0.01538018  0.40740037  1
  Pd  Pd158  1  0.39605335  0.79713075  0.00387007  1
  Pd  Pd159  1  0.39650281  0.00068948  0.60076936  1
  Pd  Pd160  1  0.41166788  0.60076202  0.59373000  1
  Pd  Pd161  1  0.59545318  0.00679143  -0.00476846  1
  Pd  Pd162  1  0.40064081  0.79960958  0.60808193  1
  Pd  Pd163  1  0.80814838  0.79092526  0.19557172  1
  Pd  Pd164  1  0.79870789  0.19771772  0.20011622  1
  Pd  Pd165  1  0.20093090  0.79894531  0.18835569  1
  Pd  Pd166  1  0.80072418  0.19898634  0.79972320  1
  Pd  Pd167  1  0.20140762  0.59833201  0.59674051  1
  Pd  Pd168  1  -0.00019619  0.19257422  0.21204960  1
  Pd  Pd169  1  0.80343514  -0.00699575  0.60483160  1
  Pd  Pd170  1  0.59633688  0.19543711  0.00178816  1
  Pd  Pd171  1  0.40197869  0.59500977  0.80461235  1
  Pd  Pd172  1  0.60508363  0.78998154  0.60830634  1
  Pd  Pd173  1  0.79800789  -0.00490422  0.79798007  1
  Pd  Pd174  1  0.00447615  0.60450503  0.39862035  1
  Pd  Pd175  1  -0.00678788  0.61155694  0.20347353  1
  Pd  Pd176  1  0.60346766  0.59761287  -0.00679566  1
  Pd  Pd177  1  0.79322064  -0.00033476  0.40213679  1
  Pd  Pd178  1  0.38878724  0.39851428  0.60060633  1
  Pd  Pd179  1  0.59631733  0.80803240  0.19989656  1
  Pd  Pd180  1  0.40628134  0.59626964  0.41027626  1
  Pd  Pd181  1  0.00273520  -0.00051005  0.00790880  1
  Pd  Pd182  1  0.59343566  -0.00477503  0.19986973  1
  Pd  Pd183  1  0.19841658  0.59444042  0.18933587  1
  Pd  Pd184  1  0.19423102  0.58965952  0.00449366  1
  Pd  Pd185  1  0.60223573  0.81051800  0.38928273  1
  Pd  Pd186  1  0.59333066  0.80386839  -0.00498085  1
  Pd  Pd187  1  0.40189259  0.20280090  0.79303575  1
  Pd  Pd188  1  0.79268586  0.80689931  0.40470671  1
  Pd  Pd189  1  0.78839876  0.59206726  0.00442046  1
  Pd  Pd190  1  0.39308673  0.79312859  0.18983483  1
  Pd  Pd191  1  0.20599987  0.39394356  0.40057915  1
  Pd  Pd192  1  0.21181222  -0.00393866  0.41271732  1
  Pd  Pd193  1  0.39973495  0.18964985  0.19479938  1
  Pd  Pd194  1  0.80624280  0.59045148  0.40210703  1
  Pd  Pd195  1  0.20905924  0.40662090  0.80188227  1
  Pd  Pd196  1  0.39935128  0.79945022  0.79653107  1
  Pd  Pd197  1  0.58889605  0.39094351  0.39382163  1
  Pd  Pd198  1  0.21181526  0.80704741  0.00740035  1
  Pd  Pd199  1  -0.00169989  0.19346326  0.80640999  1
  Rh  Rh200  1  0.40487350  0.20104861  0.60918661  1
  Rh  Rh201  1  0.79830250  0.20115041  0.39408556  1
  Rh  Rh202  1  0.20035707  0.79672504  0.79620757  1
  Rh  Rh203  1  0.39636895  0.80784973  0.40324112  1
  Rh  Rh204  1  0.40193771  0.40695539  0.20842072  1
  Rh  Rh205  1  0.40198056  0.00346275  0.20377507  1
  Rh  Rh206  1  0.20700040  0.00821460  0.80347469  1
  Rh  Rh207  1  0.79919565  0.20408503  -0.00080423  1
  Rh  Rh208  1  0.60473286  0.59173103  0.19504268  1
  Rh  Rh209  1  0.58712614  0.39802868  0.80926451  1
  Rh  Rh210  1  -0.00448115  0.39279450  0.39325347  1
  Rh  Rh211  1  0.40201154  0.00154647  -0.00294631  1
  Rh  Rh212  1  0.58872241  0.59798675  0.80262666  1
  Rh  Rh213  1  -0.00280578  0.58980628  0.60167918  1
  Rh  Rh214  1  0.58996696  0.59935800  0.40954600  1
  Rh  Rh215  1  0.20338829  0.19447954  0.79547396  1
  Rh  Rh216  1  0.81237020  0.60874526  0.79982890  1
  Rh  Rh217  1  -0.00029588  0.39984189  -0.00454186  1
  Rh  Rh218  1  0.80496117  0.00625621  0.19700680  1
  Rh  Rh219  1  0.19520987  0.60285136  0.80026572  1
  Rh  Rh220  1  0.59934010  0.19699646  0.79862743  1
  Rh  Rh221  1  0.19464683  0.20573862  0.39458364  1
  Rh  Rh222  1  0.19559140  0.20052652  0.00694395  1
  Rh  Rh223  1  0.19579199  0.20830624  0.60349330  1
  Rh  Rh224  1  0.80956865  0.40405160  0.40717021  1
  Rh  Rh225  1  0.60418257  0.00977931  0.59832486  1
  Rh  Rh226  1  0.19636505  0.00544177  0.19286773  1
  Rh  Rh227  1  0.39300174  0.39348322  -0.01695313  1
  Rh  Rh228  1  0.80353433  0.38934509  0.80480873  1
  Rh  Rh229  1  -0.00341620  0.79919524  0.00052611  1
  Rh  Rh230  1  0.40536443  0.19966505  0.40396326  1
  Rh  Rh231  1  0.39537090  0.60929044  0.19917545  1
  Rh  Rh232  1  0.79467791  0.00571553  0.00087878  1
  Rh  Rh233  1  0.20445793  0.79919393  0.60044005  1
  Rh  Rh234  1  0.01120418  0.79324940  0.39294421  1
  Rh  Rh235  1  0.00664833  0.39623084  0.20334845  1
  Rh  Rh236  1  0.39732913  0.00688614  0.79337552  1
  Rh  Rh237  1  0.78696657  0.40430626  0.18706685  1
  Rh  Rh238  1  0.60275685  0.80329345  0.80360799  1
  Rh  Rh239  1  0.60643316  0.39458278  0.00336344  1
  Rh  Rh240  1  0.00007362  0.40328834  0.60279116  1
  Rh  Rh241  1  0.40074129  0.60948805  -0.00725385  1
  Rh  Rh242  1  0.59861055  0.00386262  0.80517119  1
  Rh  Rh243  1  0.60996841  0.39607687  0.59876675  1
  Rh  Rh244  1  0.00767182  0.59915255  -0.01038783  1
  Rh  Rh245  1  0.79739022  0.79828078  -0.00659256  1
  Rh  Rh246  1  0.20088292  0.79717479  0.40688874  1
  Rh  Rh247  1  0.59862271  0.20564348  0.20280696  1
  Rh  Rh248  1  0.41365417  0.19524746  -0.00349901  1
  Rh  Rh249  1  -0.00266660  0.81797307  0.60857139  1
