# generated using pymatgen
data_ZrScNbPdRh
_symmetry_space_group_name_H-M   'P 1'
_cell_length_a   16.56014052
_cell_length_b   16.55763607
_cell_length_c   16.55639706
_cell_angle_alpha   90.02283523
_cell_angle_beta   89.99406720
_cell_angle_gamma   90.02800937
_symmetry_Int_Tables_number   1
_chemical_formula_structural   ZrScNbPdRh
_chemical_formula_sum   'Zr50 Sc50 Nb50 Pd50 Rh50'
_cell_volume   4539.70983499
_cell_formula_units_Z   50
loop_
 _symmetry_equiv_pos_site_id
 _symmetry_equiv_pos_as_xyz
  1  'x, y, z'
loop_
 _atom_site_type_symbol
 _atom_site_label
 _atom_site_symmetry_multiplicity
 _atom_site_fract_x
 _atom_site_fract_y
 _atom_site_fract_z
 _atom_site_occupancy
  Zr  Zr0  1  0.29641524  0.30191697  0.69614464  1
  Zr  Zr1  1  0.29542454  0.29243339  0.49599652  1
  Zr  Zr2  1  0.30322211  0.29533155  0.29383067  1
  Zr  Zr3  1  0.51076335  0.70340248  0.50817208  1
  Zr  Zr4  1  0.49666821  0.90392792  0.89480801  1
  Zr  Zr5  1  0.29349283  0.50603993  0.50396974  1
  Zr  Zr6  1  0.70462960  0.29902236  0.89503952  1
  Zr  Zr7  1  0.69425548  0.49773409  0.10221210  1
  Zr  Zr8  1  0.89351169  0.89874062  0.89916484  1
  Zr  Zr9  1  0.09172652  0.10490032  0.69912910  1
  Zr  Zr10  1  0.69380743  0.88485435  0.49338019  1
  Zr  Zr11  1  0.09877183  0.49739945  0.49560321  1
  Zr  Zr12  1  0.51210793  0.90192229  0.29647656  1
  Zr  Zr13  1  0.90600507  0.50277880  0.29899579  1
  Zr  Zr14  1  0.90675508  0.50036547  0.49652679  1
  Zr  Zr15  1  0.89874069  0.50164940  0.89669750  1
  Zr  Zr16  1  0.29775976  0.10314406  0.91311820  1
  Zr  Zr17  1  0.70135192  0.09711619  0.88709803  1
  Zr  Zr18  1  0.10232967  0.30129390  0.89735796  1
  Zr  Zr19  1  0.70882381  0.09932925  0.50819469  1
  Zr  Zr20  1  0.90862176  0.89585372  0.70224177  1
  Zr  Zr21  1  0.69723530  0.30644517  0.29404428  1
  Zr  Zr22  1  0.30355392  0.50454259  0.30332326  1
  Zr  Zr23  1  0.70237079  0.09752676  0.10167410  1
  Zr  Zr24  1  0.69021466  0.50068245  0.70518062  1
  Zr  Zr25  1  0.49461639  0.50572510  0.51177386  1
  Zr  Zr26  1  0.88771212  0.68999851  0.49769808  1
  Zr  Zr27  1  0.29283995  0.10766721  0.30190325  1
  Zr  Zr28  1  0.10006950  0.09587890  0.49658536  1
  Zr  Zr29  1  0.68900503  0.69904187  0.10095387  1
  Zr  Zr30  1  0.09907138  0.29594157  0.70468218  1
  Zr  Zr31  1  0.89479653  0.30569994  0.50858308  1
  Zr  Zr32  1  0.10258033  0.89173786  0.70065839  1
  Zr  Zr33  1  0.89493769  0.70131201  0.89886134  1
  Zr  Zr34  1  0.49804545  0.50524865  0.69863332  1
  Zr  Zr35  1  0.71783674  0.49692368  0.49893702  1
  Zr  Zr36  1  0.49872592  0.31606426  0.70342506  1
  Zr  Zr37  1  0.30227684  0.90139356  0.89682188  1
  Zr  Zr38  1  0.29790778  0.10576847  0.10205314  1
  Zr  Zr39  1  0.50208240  0.49297235  0.89306855  1
  Zr  Zr40  1  0.49605252  0.30252456  0.30173572  1
  Zr  Zr41  1  0.30800126  0.69473866  0.49294246  1
  Zr  Zr42  1  0.50670989  0.89386717  0.09624102  1
  Zr  Zr43  1  0.49874974  0.69588936  0.29884309  1
  Zr  Zr44  1  0.70142309  0.50358990  0.90228679  1
  Zr  Zr45  1  0.90029461  0.70224220  0.69991434  1
  Zr  Zr46  1  0.10215486  0.30092617  0.29928461  1
  Zr  Zr47  1  0.70754256  0.29400862  0.69866457  1
  Zr  Zr48  1  0.89626435  0.50206189  0.69445571  1
  Zr  Zr49  1  0.09525038  0.29998349  0.50151705  1
  Sc  Sc50  1  0.89562699  0.10039076  0.70277427  1
  Sc  Sc51  1  0.49536831  0.09670629  0.30324623  1
  Sc  Sc52  1  0.30081729  0.90039542  0.70324509  1
  Sc  Sc53  1  0.09243669  0.50067156  0.30015491  1
  Sc  Sc54  1  0.50716314  0.49328737  0.29504789  1
  Sc  Sc55  1  0.69828582  0.89053891  0.10258142  1
  Sc  Sc56  1  0.90221930  0.30193627  0.28309559  1
  Sc  Sc57  1  0.49635818  0.09841876  0.89668731  1
  Sc  Sc58  1  0.09794691  0.70075559  0.09543299  1
  Sc  Sc59  1  0.09061330  0.30046362  0.09856858  1
  Sc  Sc60  1  0.29705128  0.10123187  0.49692496  1
  Sc  Sc61  1  0.49816206  0.90305916  0.49626363  1
  Sc  Sc62  1  0.28850451  0.70060148  0.70750115  1
  Sc  Sc63  1  0.30023953  0.49870194  0.69834949  1
  Sc  Sc64  1  0.30159090  0.29795507  0.09613359  1
  Sc  Sc65  1  0.09586108  0.09725449  0.29773295  1
  Sc  Sc66  1  0.10103594  0.90272247  0.30266530  1
  Sc  Sc67  1  0.70684846  0.89358223  0.90044656  1
  Sc  Sc68  1  0.89976936  0.89030425  0.09636829  1
  Sc  Sc69  1  0.69083558  0.09449515  0.29786623  1
  Sc  Sc70  1  0.29950266  0.90631662  0.50408960  1
  Sc  Sc71  1  0.90092035  0.69462554  0.29423492  1
  Sc  Sc72  1  0.90433626  0.50102105  0.10177123  1
  Sc  Sc73  1  0.90618525  0.29740761  0.70308388  1
  Sc  Sc74  1  0.70056817  0.49738591  0.29562192  1
  Sc  Sc75  1  0.10287108  0.50738958  0.70263749  1
  Sc  Sc76  1  0.11135465  0.68994645  0.50621695  1
  Sc  Sc77  1  0.29616901  0.89606530  0.08385954  1
  Sc  Sc78  1  0.09710329  0.89585282  0.90293412  1
  Sc  Sc79  1  0.70134890  0.69918137  0.90117379  1
  Sc  Sc80  1  0.50545623  0.69940376  0.90818771  1
  Sc  Sc81  1  0.48434637  0.10037146  0.50417310  1
  Sc  Sc82  1  0.49553275  0.09929476  0.70475788  1
  Sc  Sc83  1  0.09480576  0.50262151  0.09373259  1
  Sc  Sc84  1  0.10309166  0.49836587  0.90296395  1
  Sc  Sc85  1  0.10067816  0.90677582  0.50367011  1
  Sc  Sc86  1  0.49302127  0.09817034  0.09883361  1
  Sc  Sc87  1  0.91330719  0.89777314  0.29657474  1
  Sc  Sc88  1  0.09356200  0.89229863  0.10232290  1
  Sc  Sc89  1  0.70709268  0.89915608  0.70387142  1
  Sc  Sc90  1  0.48884784  0.29965593  0.10387177  1
  Sc  Sc91  1  0.29452205  0.69899728  0.90540023  1
  Sc  Sc92  1  0.90525473  0.89651897  0.50546019  1
  Sc  Sc93  1  0.90274183  0.69906008  0.10387795  1
  Sc  Sc94  1  0.90644422  0.09197908  0.51126601  1
  Sc  Sc95  1  0.49222759  0.30555577  0.50352293  1
  Sc  Sc96  1  0.29146220  0.89183641  0.30935634  1
  Sc  Sc97  1  0.50265796  0.51424867  0.10207672  1
  Sc  Sc98  1  0.29995775  0.10653303  0.68757664  1
  Sc  Sc99  1  0.90606021  0.30305715  0.89560284  1
  Nb  Nb100  1  0.10451398  0.70111545  0.71073784  1
  Nb  Nb101  1  0.09698903  0.10616126  0.09721483  1
  Nb  Nb102  1  0.90047707  0.09879489  0.29815008  1
  Nb  Nb103  1  0.29551187  0.69922631  0.30078583  1
  Nb  Nb104  1  0.09676654  0.10712236  0.90286873  1
  Nb  Nb105  1  0.30337157  0.69355204  0.10150605  1
  Nb  Nb106  1  0.29111134  0.50772963  0.08942043  1
  Nb  Nb107  1  0.49529379  0.30341076  0.90190818  1
  Nb  Nb108  1  0.10813477  0.70597938  0.29744359  1
  Nb  Nb109  1  0.70503103  0.29654612  0.49754934  1
  Nb  Nb110  1  0.69607636  0.10114934  0.69976125  1
  Nb  Nb111  1  0.10684532  0.69249644  0.88482594  1
  Nb  Nb112  1  0.89734802  0.28866769  0.10078040  1
  Nb  Nb113  1  0.70257379  0.70900510  0.30803508  1
  Nb  Nb114  1  0.68836007  0.70017609  0.68587979  1
  Nb  Nb115  1  0.30450325  0.31062212  0.90327445  1
  Nb  Nb116  1  0.49738799  0.90070279  0.70251559  1
  Nb  Nb117  1  0.69893405  0.90259241  0.29902022  1
  Nb  Nb118  1  0.50351507  0.70323380  0.10295978  1
  Nb  Nb119  1  0.90044371  0.10042390  0.90400849  1
  Nb  Nb120  1  0.90483554  0.11056336  0.10746165  1
  Nb  Nb121  1  0.70350108  0.29775570  0.10028066  1
  Nb  Nb122  1  0.29902779  0.49877328  0.90906270  1
  Nb  Nb123  1  0.50561009  0.69247079  0.69688115  1
  Nb  Nb124  1  0.70168120  0.69869647  0.49563494  1
  Nb  Nb125  1  0.19445762  0.00844379  0.80624696  1
  Nb  Nb126  1  0.60774623  0.60341118  0.40450218  1
  Nb  Nb127  1  0.60066722  0.20381851  0.19880497  1
  Nb  Nb128  1  0.60300699  0.20270430  0.00013843  1
  Nb  Nb129  1  0.40723207  0.79604320  0.60731113  1
  Nb  Nb130  1  0.60095715  0.39188447  0.00037645  1
  Nb  Nb131  1  0.59510617  0.79700692  0.79038634  1
  Nb  Nb132  1  0.20178792  0.00211525  0.19235976  1
  Nb  Nb133  1  0.60246663  0.19917087  0.59971902  1
  Nb  Nb134  1  -0.00404544  0.01253900  0.00174429  1
  Nb  Nb135  1  0.80206746  0.19557244  0.39489013  1
  Nb  Nb136  1  0.39532445  0.79444488  0.19797871  1
  Nb  Nb137  1  0.20444886  0.40818366  0.19490356  1
  Nb  Nb138  1  0.39428745  0.21241079  0.80680215  1
  Nb  Nb139  1  -0.00978528  0.19878602  0.39863109  1
  Nb  Nb140  1  0.39169297  -0.01032518  0.19881133  1
  Nb  Nb141  1  0.60393415  0.00306018  -0.00408243  1
  Nb  Nb142  1  0.80311145  0.19756164  0.00181409  1
  Nb  Nb143  1  0.40136112  0.59794946  0.80286479  1
  Nb  Nb144  1  0.80089136  -0.00163973  0.39350739  1
  Nb  Nb145  1  0.60508641  0.20414796  0.40566067  1
  Nb  Nb146  1  0.20567009  0.60387822  0.19973777  1
  Nb  Nb147  1  0.00606472  0.79100006  0.40129290  1
  Nb  Nb148  1  0.60220861  0.00211767  0.60648819  1
  Nb  Nb149  1  0.80392852  0.00082401  0.20369855  1
  Pd  Pd150  1  0.19483905  0.40070522  0.60104051  1
  Pd  Pd151  1  0.40642814  0.40771253  0.01056629  1
  Pd  Pd152  1  0.38607833  0.01400193  0.79442097  1
  Pd  Pd153  1  0.00646651  0.78767940  0.58946796  1
  Pd  Pd154  1  0.20979570  0.79616310  0.59527401  1
  Pd  Pd155  1  0.81504988  0.80791701  0.39294301  1
  Pd  Pd156  1  0.79421141  0.60033067  0.19951161  1
  Pd  Pd157  1  0.00748840  0.60982776  0.39694118  1
  Pd  Pd158  1  0.00566360  0.40355343  0.60965099  1
  Pd  Pd159  1  0.40601453  0.60091234  -0.00619870  1
  Pd  Pd160  1  0.19678501  0.21275426  0.00430947  1
  Pd  Pd161  1  0.20227414  0.40200511  0.39281662  1
  Pd  Pd162  1  0.39730415  0.40392874  0.40548925  1
  Pd  Pd163  1  0.00206594  0.79805344  0.80914123  1
  Pd  Pd164  1  0.58803614  0.20555322  0.79752460  1
  Pd  Pd165  1  0.40456393  0.80422942  0.40013929  1
  Pd  Pd166  1  0.00544683  0.60625849  0.60240597  1
  Pd  Pd167  1  0.00151752  -0.00191576  0.19075641  1
  Pd  Pd168  1  0.80703827  0.40571856  0.19488862  1
  Pd  Pd169  1  0.00030610  0.59661975  0.80062279  1
  Pd  Pd170  1  0.79738805  -0.01164710  0.59899627  1
  Pd  Pd171  1  0.79890308  0.80133107  0.60256845  1
  Pd  Pd172  1  0.39472106  0.41168804  0.18905433  1
  Pd  Pd173  1  0.00170357  0.60495227  -0.00567437  1
  Pd  Pd174  1  0.80960362  0.39292067  0.38959240  1
  Pd  Pd175  1  0.59816124  0.40473353  0.41079546  1
  Pd  Pd176  1  0.40087910  0.79369980  0.00149514  1
  Pd  Pd177  1  0.19521878  0.79293998  -0.00348539  1
  Pd  Pd178  1  0.19318363  0.80146929  0.41273332  1
  Pd  Pd179  1  0.40363833  0.78583398  0.79559245  1
  Pd  Pd180  1  0.39219793  -0.00416268  0.39229234  1
  Pd  Pd181  1  0.00124283  0.79494715  -0.00744929  1
  Pd  Pd182  1  0.80258273  0.00119805  0.00960791  1
  Pd  Pd183  1  0.80138218  0.60353383  0.00977359  1
  Pd  Pd184  1  0.80136057  0.80469577  0.20360789  1
  Pd  Pd185  1  0.80359550  0.39994802  0.79484030  1
  Pd  Pd186  1  0.18625854  -0.00307928  0.00160409  1
  Pd  Pd187  1  0.20140911  0.40758984  0.80175146  1
  Pd  Pd188  1  0.20533766  0.80281375  0.19306477  1
  Pd  Pd189  1  0.80328975  0.39551040  0.00460052  1
  Pd  Pd190  1  -0.00501798  0.39763122  0.00054017  1
  Pd  Pd191  1  0.60381548  0.00991289  0.41279567  1
  Pd  Pd192  1  0.60821576  0.39617269  0.59142331  1
  Pd  Pd193  1  0.00413433  0.00198536  0.80679277  1
  Pd  Pd194  1  0.39768273  0.59949561  0.19948558  1
  Pd  Pd195  1  0.79158572  0.60772861  0.79141511  1
  Pd  Pd196  1  0.80342063  -0.00123287  0.79502122  1
  Pd  Pd197  1  0.20819013  0.19466087  0.80233582  1
  Pd  Pd198  1  0.19993716  0.00184978  0.60936772  1
  Pd  Pd199  1  0.41158701  0.59553527  0.39880059  1
  Rh  Rh200  1  0.60425997  -0.01077805  0.79950930  1
  Rh  Rh201  1  0.59563758  0.81358809  0.60700551  1
  Rh  Rh202  1  -0.00346016  0.19863435  0.59503376  1
  Rh  Rh203  1  -0.00403366  0.19957268  0.80465481  1
  Rh  Rh204  1  0.19869244  0.80933156  0.80747435  1
  Rh  Rh205  1  0.60718458  0.39518947  0.80572004  1
  Rh  Rh206  1  0.19871860  0.39693081  0.00574913  1
  Rh  Rh207  1  0.20068441  0.00169599  0.39222918  1
  Rh  Rh208  1  0.40726657  0.19020132  0.20535064  1
  Rh  Rh209  1  0.00265286  -0.00304392  0.60821516  1
  Rh  Rh210  1  -0.00663553  -0.00296380  0.40450700  1
  Rh  Rh211  1  0.38740021  0.61149635  0.61223358  1
  Rh  Rh212  1  -0.00528923  0.20084220  -0.00557034  1
  Rh  Rh213  1  0.60188915  0.80687048  -0.01250225  1
  Rh  Rh214  1  0.41051295  0.20889317  0.61138781  1
  Rh  Rh215  1  0.00753063  0.20152564  0.20790061  1
  Rh  Rh216  1  0.00213942  0.79401785  0.20782382  1
  Rh  Rh217  1  0.40863419  -0.00363054  0.00609581  1
  Rh  Rh218  1  0.79157552  0.19338309  0.20274417  1
  Rh  Rh219  1  0.79860663  0.79145355  0.00582777  1
  Rh  Rh220  1  0.00389768  0.40105376  0.19331982  1
  Rh  Rh221  1  0.19270789  0.60563009  0.00042575  1
  Rh  Rh222  1  0.19223967  0.20313515  0.19445532  1
  Rh  Rh223  1  0.40526404  0.20185692  0.39985297  1
  Rh  Rh224  1  0.59269750  0.39308235  0.18697684  1
  Rh  Rh225  1  0.19413799  0.59695056  0.39104079  1
  Rh  Rh226  1  0.59820112  0.59410215  -0.00278538  1
  Rh  Rh227  1  0.38822023  0.39893048  0.59317834  1
  Rh  Rh228  1  0.79465676  0.60078513  0.60593457  1
  Rh  Rh229  1  0.38873318  0.40478486  0.80112818  1
  Rh  Rh230  1  0.20952723  0.59207374  0.80507888  1
  Rh  Rh231  1  0.79808320  0.40000246  0.60924584  1
  Rh  Rh232  1  0.61267841  0.58899134  0.58874857  1
  Rh  Rh233  1  0.40452315  0.20168704  -0.00735399  1
  Rh  Rh234  1  0.80320632  0.20021753  0.60183283  1
  Rh  Rh235  1  0.00248562  0.40691227  0.79815646  1
  Rh  Rh236  1  0.59434671  0.79411840  0.39345808  1
  Rh  Rh237  1  0.40473769  -0.00860178  0.60119698  1
  Rh  Rh238  1  0.18800808  0.19815994  0.40191093  1
  Rh  Rh239  1  0.19351796  0.19839967  0.59401723  1
  Rh  Rh240  1  0.79142850  0.79051135  0.79151271  1
  Rh  Rh241  1  0.80913442  0.19739380  0.80232184  1
  Rh  Rh242  1  0.60819166  0.60819872  0.21233034  1
  Rh  Rh243  1  0.59875633  0.79326989  0.20677893  1
  Rh  Rh244  1  0.20076187  0.60192119  0.60663297  1
  Rh  Rh245  1  0.79457097  0.59716186  0.38814892  1
  Rh  Rh246  1  0.01175717  0.60442258  0.20027336  1
  Rh  Rh247  1  -0.00755337  0.38980178  0.39487836  1
  Rh  Rh248  1  0.59668969  0.00396347  0.18914328  1
  Rh  Rh249  1  0.59825301  0.60923342  0.80644997  1
