# generated using pymatgen
data_ZrScNbPdRh
_symmetry_space_group_name_H-M   'P 1'
_cell_length_a   16.56255605
_cell_length_b   16.55871955
_cell_length_c   16.56354745
_cell_angle_alpha   90.05330907
_cell_angle_beta   90.02189152
_cell_angle_gamma   89.95658949
_symmetry_Int_Tables_number   1
_chemical_formula_structural   ZrScNbPdRh
_chemical_formula_sum   'Zr50 Sc50 Nb50 Pd50 Rh50'
_cell_volume   4542.62747735
_cell_formula_units_Z   50
loop_
 _symmetry_equiv_pos_site_id
 _symmetry_equiv_pos_as_xyz
  1  'x, y, z'
loop_
 _atom_site_type_symbol
 _atom_site_label
 _atom_site_symmetry_multiplicity
 _atom_site_fract_x
 _atom_site_fract_y
 _atom_site_fract_z
 _atom_site_occupancy
  Zr  Zr0  1  0.90172656  0.69815795  0.29869548  1
  Zr  Zr1  1  0.90430531  0.29986336  0.29458912  1
  Zr  Zr2  1  0.29556383  0.30411490  0.10055603  1
  Zr  Zr3  1  0.10335359  0.89755199  0.90258071  1
  Zr  Zr4  1  0.89610549  0.69391102  0.49448551  1
  Zr  Zr5  1  0.69721686  0.70210213  0.09690576  1
  Zr  Zr6  1  0.48936060  0.69306190  0.69756497  1
  Zr  Zr7  1  0.10026554  0.50253578  0.30634850  1
  Zr  Zr8  1  0.29700549  0.89466028  0.09648707  1
  Zr  Zr9  1  0.50155887  0.49465365  0.30500106  1
  Zr  Zr10  1  0.10539094  0.69808426  0.70241486  1
  Zr  Zr11  1  0.09908067  0.29962845  0.90114623  1
  Zr  Zr12  1  0.49222800  0.10471634  0.29901242  1
  Zr  Zr13  1  0.90389838  0.51317502  0.90583982  1
  Zr  Zr14  1  0.90397549  0.30051194  0.69898431  1
  Zr  Zr15  1  0.90683768  0.50282579  0.69671695  1
  Zr  Zr16  1  0.69905365  0.09614932  0.69739579  1
  Zr  Zr17  1  0.31197232  0.09623088  0.10718940  1
  Zr  Zr18  1  0.30627618  0.49713048  0.09961916  1
  Zr  Zr19  1  0.90291452  0.90686312  0.89543076  1
  Zr  Zr20  1  0.70366499  0.49895270  0.49357994  1
  Zr  Zr21  1  0.29525000  0.70583863  0.30093750  1
  Zr  Zr22  1  0.90349659  0.09972470  0.90488561  1
  Zr  Zr23  1  0.49146442  0.49811940  0.69938032  1
  Zr  Zr24  1  0.69615538  0.69179644  0.49578924  1
  Zr  Zr25  1  0.69772903  0.30011696  0.32266084  1
  Zr  Zr26  1  0.30481944  0.70547490  0.10392885  1
  Zr  Zr27  1  0.90374050  0.29275861  0.10311047  1
  Zr  Zr28  1  0.10667873  0.48873304  0.10530860  1
  Zr  Zr29  1  0.69674050  0.89873674  0.29521147  1
  Zr  Zr30  1  0.29950885  0.49191039  0.50366843  1
  Zr  Zr31  1  0.70010014  0.10578904  0.50360183  1
  Zr  Zr32  1  0.70744102  0.09725488  0.09773691  1
  Zr  Zr33  1  0.89911352  0.89934641  0.29847446  1
  Zr  Zr34  1  0.90013876  0.09638824  0.70410391  1
  Zr  Zr35  1  0.10596781  0.50147985  0.89459695  1
  Zr  Zr36  1  0.89024861  0.70631195  0.89646372  1
  Zr  Zr37  1  0.49910535  0.69914533  0.09982161  1
  Zr  Zr38  1  0.89899419  0.29524972  0.90855598  1
  Zr  Zr39  1  0.49618311  0.89293292  0.50111141  1
  Zr  Zr40  1  0.10671039  0.10122267  0.69527028  1
  Zr  Zr41  1  0.69949275  0.10259998  0.30145243  1
  Zr  Zr42  1  0.89739048  0.10576914  0.29063869  1
  Zr  Zr43  1  0.89631648  0.69882725  0.09146253  1
  Zr  Zr44  1  0.69796509  0.50119408  0.90979390  1
  Zr  Zr45  1  0.30044179  0.90271658  0.70784712  1
  Zr  Zr46  1  0.30335994  0.90498161  0.50818286  1
  Zr  Zr47  1  0.29820935  0.10915379  0.30470050  1
  Zr  Zr48  1  0.88914447  0.90426068  0.09438066  1
  Zr  Zr49  1  0.30359957  0.29400146  0.50193638  1
  Sc  Sc50  1  0.09916967  0.91407978  0.49593689  1
  Sc  Sc51  1  0.09711740  0.09876561  0.10034864  1
  Sc  Sc52  1  0.70139631  0.69938810  0.71522842  1
  Sc  Sc53  1  0.30591000  0.30528799  0.69493787  1
  Sc  Sc54  1  0.50616519  0.50730732  0.50552140  1
  Sc  Sc55  1  0.10142552  0.89920559  0.10059638  1
  Sc  Sc56  1  0.90737648  0.08910821  0.49992054  1
  Sc  Sc57  1  0.50439456  0.70519305  0.29879022  1
  Sc  Sc58  1  0.70589433  0.30305001  0.08089706  1
  Sc  Sc59  1  0.10616600  0.30094301  0.28862306  1
  Sc  Sc60  1  0.89462004  0.49991336  0.29814948  1
  Sc  Sc61  1  0.49601495  0.09853692  0.90594736  1
  Sc  Sc62  1  0.10679987  0.49644230  0.70436575  1
  Sc  Sc63  1  0.09784587  0.89729104  0.70090125  1
  Sc  Sc64  1  0.50092028  0.69671727  0.88986132  1
  Sc  Sc65  1  0.50208004  0.50543273  0.09514586  1
  Sc  Sc66  1  0.68760894  0.10378866  0.89977420  1
  Sc  Sc67  1  0.70515944  0.50906709  0.69615068  1
  Sc  Sc68  1  0.49806452  0.50312125  0.89860751  1
  Sc  Sc69  1  0.08657064  0.09793390  0.89788411  1
  Sc  Sc70  1  0.69803254  0.49948022  0.30238859  1
  Sc  Sc71  1  0.11276049  0.30844834  0.50961243  1
  Sc  Sc72  1  0.09438089  0.69883060  0.89895634  1
  Sc  Sc73  1  0.10010735  0.30866616  0.70530419  1
  Sc  Sc74  1  0.10468149  0.50070325  0.50319249  1
  Sc  Sc75  1  0.10709652  0.69849860  0.49485696  1
  Sc  Sc76  1  0.10187715  0.71515282  0.09955991  1
  Sc  Sc77  1  0.70334153  0.90108396  0.88684367  1
  Sc  Sc78  1  0.68982815  0.90478834  0.49332321  1
  Sc  Sc79  1  0.49117206  0.09309881  0.49854365  1
  Sc  Sc80  1  0.49697565  0.89908308  0.70683766  1
  Sc  Sc81  1  0.70078152  0.50031900  0.09925016  1
  Sc  Sc82  1  0.50015596  0.10090389  0.70511091  1
  Sc  Sc83  1  0.30163047  0.70784496  0.51046251  1
  Sc  Sc84  1  0.29992140  0.49218020  0.89590719  1
  Sc  Sc85  1  0.49638890  0.29677199  0.49675528  1
  Sc  Sc86  1  0.89087520  0.30657744  0.50841551  1
  Sc  Sc87  1  0.49513226  0.29274019  0.69618850  1
  Sc  Sc88  1  0.48661260  0.90217317  0.09300873  1
  Sc  Sc89  1  0.90544160  0.90003430  0.50080264  1
  Sc  Sc90  1  0.50074312  0.90111103  0.31105068  1
  Sc  Sc91  1  0.10157532  0.29965282  0.10345842  1
  Sc  Sc92  1  0.69823126  0.69985381  0.30195725  1
  Sc  Sc93  1  0.50315244  0.28579052  0.89903348  1
  Sc  Sc94  1  0.29493905  0.90327143  0.29297160  1
  Sc  Sc95  1  0.10459541  0.09113102  0.30293956  1
  Sc  Sc96  1  0.30084054  0.50126570  0.70476240  1
  Sc  Sc97  1  0.89788722  0.90144034  0.70511908  1
  Sc  Sc98  1  0.48898346  0.29324878  0.09044964  1
  Sc  Sc99  1  0.29726029  0.70382219  0.89493740  1
  Nb  Nb100  1  0.89899087  0.70075469  0.69644719  1
  Nb  Nb101  1  0.70018277  0.89950340  0.69591615  1
  Nb  Nb102  1  0.31614878  0.30325404  0.30003942  1
  Nb  Nb103  1  0.30296491  0.49720664  0.30101008  1
  Nb  Nb104  1  0.69672750  0.90012976  0.09659854  1
  Nb  Nb105  1  0.28420907  0.10277245  0.51365723  1
  Nb  Nb106  1  0.09570819  0.89548314  0.29317435  1
  Nb  Nb107  1  0.70099566  0.30145784  0.89563281  1
  Nb  Nb108  1  0.90092621  0.10111292  0.09814834  1
  Nb  Nb109  1  0.49774070  0.29687782  0.30196449  1
  Nb  Nb110  1  0.29825496  0.09970077  0.69441943  1
  Nb  Nb111  1  0.90537935  0.50479321  0.50026070  1
  Nb  Nb112  1  0.69991445  0.29845169  0.50939731  1
  Nb  Nb113  1  0.30295683  0.09564887  0.89397574  1
  Nb  Nb114  1  0.49737036  0.69905439  0.50198508  1
  Nb  Nb115  1  0.70022908  0.70149773  0.90608204  1
  Nb  Nb116  1  0.09877323  0.70215647  0.29718824  1
  Nb  Nb117  1  0.90109966  0.49574955  0.10323449  1
  Nb  Nb118  1  0.10792959  0.10674932  0.49945815  1
  Nb  Nb119  1  0.30892764  0.90687422  0.90130871  1
  Nb  Nb120  1  0.30090205  0.70050671  0.70068013  1
  Nb  Nb121  1  0.30039588  0.29401781  0.90493335  1
  Nb  Nb122  1  0.50596179  0.10213218  0.09979137  1
  Nb  Nb123  1  0.48768898  0.90068421  0.89666501  1
  Nb  Nb124  1  0.70408674  0.29132004  0.69525305  1
  Nb  Nb125  1  0.20002527  0.59999153  0.20151237  1
  Nb  Nb126  1  0.79836821  0.00201424  0.39480389  1
  Nb  Nb127  1  0.00504586  0.79886416  0.39283170  1
  Nb  Nb128  1  0.79303288  0.79850925  0.60306184  1
  Nb  Nb129  1  0.39759899  0.60156812  0.40160245  1
  Nb  Nb130  1  0.60771315  0.39395433  0.60248336  1
  Nb  Nb131  1  0.20684325  0.19350443  -0.00635190  1
  Nb  Nb132  1  0.20835797  0.00311034  -0.00593200  1
  Nb  Nb133  1  0.79722272  0.20413195  0.79951751  1
  Nb  Nb134  1  0.20229128  0.59909726  0.00776344  1
  Nb  Nb135  1  0.59659010  0.38630080  0.20289755  1
  Nb  Nb136  1  0.59762341  0.20357717  0.19824038  1
  Nb  Nb137  1  -0.00053736  0.39775032  0.40211360  1
  Nb  Nb138  1  0.60860216  0.39273258  0.79389482  1
  Nb  Nb139  1  0.60002755  0.80417514  -0.00686250  1
  Nb  Nb140  1  0.60154843  0.79560381  0.60383760  1
  Nb  Nb141  1  0.00496887  0.60185445  0.19793080  1
  Nb  Nb142  1  0.59864647  0.00452954  0.19310424  1
  Nb  Nb143  1  0.20810908  0.19653251  0.80327973  1
  Nb  Nb144  1  -0.00132797  0.60310898  0.60053890  1
  Nb  Nb145  1  0.00652168  0.20351844  0.40645613  1
  Nb  Nb146  1  0.79637244  0.39726495  0.80232890  1
  Nb  Nb147  1  0.00559105  0.19906648  0.59426700  1
  Nb  Nb148  1  -0.00725506  -0.00157625  0.19738864  1
  Nb  Nb149  1  -0.00262678  0.40397720  0.00394328  1
  Pd  Pd150  1  0.39753745  0.79591359  0.39705657  1
  Pd  Pd151  1  0.59113278  -0.00659257  0.60085361  1
  Pd  Pd152  1  0.00580674  0.00262481  0.60443459  1
  Pd  Pd153  1  0.20991028  0.60136197  0.39986476  1
  Pd  Pd154  1  0.59129004  0.19522478  0.40633445  1
  Pd  Pd155  1  0.19785345  0.39115774  0.39417779  1
  Pd  Pd156  1  0.81442384  0.19553290  0.41432233  1
  Pd  Pd157  1  0.58891958  0.20059663  0.59674013  1
  Pd  Pd158  1  0.39893093  0.60136145  0.21042200  1
  Pd  Pd159  1  0.79620326  0.40758373  0.60538934  1
  Pd  Pd160  1  0.79851541  0.79522046  0.19645951  1
  Pd  Pd161  1  0.40736797  0.40504059  0.40995383  1
  Pd  Pd162  1  0.01343941  0.59736038  0.01161573  1
  Pd  Pd163  1  0.39382803  0.60447867  -0.01084005  1
  Pd  Pd164  1  -0.00361186  0.80488320  -0.00054196  1
  Pd  Pd165  1  0.19465837  0.81066733  0.40454092  1
  Pd  Pd166  1  -0.00792209  0.40364833  0.81038167  1
  Pd  Pd167  1  -0.00232523  0.79800472  0.79890489  1
  Pd  Pd168  1  0.40754201  0.39888148  -0.00833975  1
  Pd  Pd169  1  0.78561879  0.21433772  0.19591847  1
  Pd  Pd170  1  0.40907045  0.39782728  0.19508315  1
  Pd  Pd171  1  0.58936427  0.39464031  -0.00102317  1
  Pd  Pd172  1  0.80121328  0.60126837  0.19888117  1
  Pd  Pd173  1  0.78736480  0.39251334  0.19895620  1
  Pd  Pd174  1  0.40711950  -0.00747203  0.20475525  1
  Pd  Pd175  1  0.79924244  0.59558914  0.80211090  1
  Pd  Pd176  1  0.19955234  0.19559647  0.19517461  1
  Pd  Pd177  1  0.80850034  0.40272368  0.40188288  1
  Pd  Pd178  1  0.60116725  0.59200524  0.80144435  1
  Pd  Pd179  1  0.60076189  0.59089879  0.20185776  1
  Pd  Pd180  1  0.19553783  0.80775755  0.59785741  1
  Pd  Pd181  1  0.79344674  0.00180705  -0.01224458  1
  Pd  Pd182  1  -0.00212042  0.79368975  0.59097026  1
  Pd  Pd183  1  0.60316120  0.60109865  0.60605848  1
  Pd  Pd184  1  0.79918967  -0.00894603  0.59130294  1
  Pd  Pd185  1  0.19945155  0.59810913  0.60297545  1
  Pd  Pd186  1  0.59699897  0.80155690  0.80011393  1
  Pd  Pd187  1  0.59000353  0.81215768  0.19005889  1
  Pd  Pd188  1  0.80034146  0.80793308  0.40839230  1
  Pd  Pd189  1  0.19715451  0.21097898  0.39572242  1
  Pd  Pd190  1  0.40849022  0.39014900  0.80597896  1
  Pd  Pd191  1  0.38795677  0.00361979  0.40091410  1
  Pd  Pd192  1  0.20516985  -0.00494889  0.39786863  1
  Pd  Pd193  1  0.59592206  -0.00931883  -0.00103649  1
  Pd  Pd194  1  0.39569014  0.19779390  0.79618838  1
  Pd  Pd195  1  0.40443837  0.00263851  0.60711996  1
  Pd  Pd196  1  0.20270638  0.80004144  0.80303878  1
  Pd  Pd197  1  0.59476251  -0.00150346  0.80215146  1
  Pd  Pd198  1  0.19403903  0.00413189  0.80388442  1
  Pd  Pd199  1  0.40491293  0.79006275  -0.00981907  1
  Rh  Rh200  1  0.79484050  0.00914808  0.80228270  1
  Rh  Rh201  1  0.20408924  0.60299246  0.80597723  1
  Rh  Rh202  1  0.38951248  0.59842526  0.59335402  1
  Rh  Rh203  1  0.79761178  0.59311348  0.39268533  1
  Rh  Rh204  1  0.80547723  0.60568407  0.60042544  1
  Rh  Rh205  1  0.00061681  0.59891673  0.40062482  1
  Rh  Rh206  1  0.39309627  0.19344254  0.40885212  1
  Rh  Rh207  1  0.20412490  0.80188622  -0.00756599  1
  Rh  Rh208  1  0.39777809  0.19163520  0.59716320  1
  Rh  Rh209  1  0.20534224  0.40185138  0.60858630  1
  Rh  Rh210  1  0.59861686  0.79373856  0.40902871  1
  Rh  Rh211  1  0.39853969  0.00587464  -0.00044893  1
  Rh  Rh212  1  0.00152498  0.60804701  0.78974189  1
  Rh  Rh213  1  0.40324947  0.20650906  0.19784874  1
  Rh  Rh214  1  0.59599543  0.39748547  0.40711173  1
  Rh  Rh215  1  0.21195687  0.40151386  0.21062183  1
  Rh  Rh216  1  0.39354446  0.19259447  0.00142321  1
  Rh  Rh217  1  0.00548884  -0.00306296  0.79637169  1
  Rh  Rh218  1  0.80043384  0.80193585  0.79518042  1
  Rh  Rh219  1  0.00965409  0.20479635  0.00920616  1
  Rh  Rh220  1  0.19539365  0.39874061  -0.00691847  1
  Rh  Rh221  1  0.60346062  0.00668084  0.39442613  1
  Rh  Rh222  1  0.81027103  0.40850595  -0.00416523  1
  Rh  Rh223  1  0.79792103  -0.00349391  0.20158273  1
  Rh  Rh224  1  0.39159083  0.60094141  0.80102813  1
  Rh  Rh225  1  0.79613196  0.18998620  -0.00831671  1
  Rh  Rh226  1  0.20062817  0.79933226  0.20068931  1
  Rh  Rh227  1  0.40448911  0.80637069  0.20677242  1
  Rh  Rh228  1  0.59727821  0.60872876  -0.00216314  1
  Rh  Rh229  1  0.39651190  0.79785655  0.79864250  1
  Rh  Rh230  1  0.19705212  0.21085704  0.61286164  1
  Rh  Rh231  1  -0.00405548  0.00170392  0.38810150  1
  Rh  Rh232  1  0.40421554  0.00548555  0.79642131  1
  Rh  Rh233  1  0.60422388  0.20232462  0.79648303  1
  Rh  Rh234  1  0.60240632  0.20180750  0.00479588  1
  Rh  Rh235  1  0.00982002  0.18891023  0.20495996  1
  Rh  Rh236  1  0.00578444  -0.00412865  0.00919507  1
  Rh  Rh237  1  0.59192377  0.60394450  0.39406908  1
  Rh  Rh238  1  0.20942156  0.38991471  0.80102350  1
  Rh  Rh239  1  0.19165231  -0.00214613  0.19236355  1
  Rh  Rh240  1  0.40912291  0.40198710  0.59587789  1
  Rh  Rh241  1  0.79069402  0.80826967  -0.00650659  1
  Rh  Rh242  1  0.19746749  -0.00814722  0.60179856  1
  Rh  Rh243  1  0.79592851  0.59717580  0.00580199  1
  Rh  Rh244  1  0.00209536  0.19653314  0.78641085  1
  Rh  Rh245  1  -0.00560724  0.80094541  0.20076666  1
  Rh  Rh246  1  -0.00344272  0.40803353  0.20362114  1
  Rh  Rh247  1  0.40384918  0.80196305  0.60881585  1
  Rh  Rh248  1  0.81093251  0.19188364  0.60128018  1
  Rh  Rh249  1  0.00443394  0.40450974  0.59052361  1
