# generated using pymatgen
data_ZrScNbPdRh
_symmetry_space_group_name_H-M   'P 1'
_cell_length_a   16.56159168
_cell_length_b   16.56122451
_cell_length_c   16.55952546
_cell_angle_alpha   89.96639517
_cell_angle_beta   89.97016633
_cell_angle_gamma   90.00146301
_symmetry_Int_Tables_number   1
_chemical_formula_structural   ZrScNbPdRh
_chemical_formula_sum   'Zr50 Sc50 Nb50 Pd50 Rh50'
_cell_volume   4541.94918454
_cell_formula_units_Z   50
loop_
 _symmetry_equiv_pos_site_id
 _symmetry_equiv_pos_as_xyz
  1  'x, y, z'
loop_
 _atom_site_type_symbol
 _atom_site_label
 _atom_site_symmetry_multiplicity
 _atom_site_fract_x
 _atom_site_fract_y
 _atom_site_fract_z
 _atom_site_occupancy
  Zr  Zr0  1  0.90521880  0.09454876  0.30134925  1
  Zr  Zr1  1  0.70217781  0.91273778  0.30218206  1
  Zr  Zr2  1  0.90222241  0.10363515  0.89748956  1
  Zr  Zr3  1  0.69807379  0.30262529  0.09350098  1
  Zr  Zr4  1  0.90382439  0.50824791  0.29949989  1
  Zr  Zr5  1  0.30428870  0.09471006  0.89621781  1
  Zr  Zr6  1  0.10048006  0.50192461  0.10442854  1
  Zr  Zr7  1  0.70234613  0.09920719  0.50837187  1
  Zr  Zr8  1  0.90407493  0.09702744  0.09210841  1
  Zr  Zr9  1  0.29630176  0.08919245  0.49848273  1
  Zr  Zr10  1  0.49917544  0.50051539  0.50971079  1
  Zr  Zr11  1  0.50191831  0.69872393  0.29692662  1
  Zr  Zr12  1  0.29511557  0.69780389  0.90368411  1
  Zr  Zr13  1  0.10476311  0.90057785  0.50514645  1
  Zr  Zr14  1  0.10156743  0.08670303  0.10243270  1
  Zr  Zr15  1  0.50551644  0.09173366  0.51116027  1
  Zr  Zr16  1  0.29930263  0.70474578  0.50295742  1
  Zr  Zr17  1  0.30044360  0.90239129  0.49957403  1
  Zr  Zr18  1  0.30240415  0.30111143  0.70167352  1
  Zr  Zr19  1  0.89742476  0.89128222  0.29573152  1
  Zr  Zr20  1  0.90052955  0.50145106  0.70303650  1
  Zr  Zr21  1  0.89023634  0.90636854  0.90393159  1
  Zr  Zr22  1  0.10579387  0.50159352  0.90684329  1
  Zr  Zr23  1  0.09253096  0.70502496  0.50131616  1
  Zr  Zr24  1  0.90072705  0.50710499  0.50369421  1
  Zr  Zr25  1  0.69463371  0.09804361  0.69505614  1
  Zr  Zr26  1  0.90578347  0.10989274  0.50744740  1
  Zr  Zr27  1  0.71113096  0.69780996  0.30043803  1
  Zr  Zr28  1  0.09446124  0.29455864  0.29381230  1
  Zr  Zr29  1  0.49927387  0.70063901  0.50514852  1
  Zr  Zr30  1  0.49941232  0.89684862  0.89535780  1
  Zr  Zr31  1  0.31072663  0.09116260  0.09958816  1
  Zr  Zr32  1  0.70314527  0.30376505  0.90632544  1
  Zr  Zr33  1  0.70147866  0.50461589  0.29276422  1
  Zr  Zr34  1  0.50494755  0.50388496  0.09692497  1
  Zr  Zr35  1  0.70378146  0.89707275  0.70955463  1
  Zr  Zr36  1  0.29209725  0.50617884  0.29810411  1
  Zr  Zr37  1  0.29547907  0.90093739  0.09539110  1
  Zr  Zr38  1  0.69668703  0.90637755  0.50772902  1
  Zr  Zr39  1  0.70397868  0.69125275  0.10428361  1
  Zr  Zr40  1  0.29831427  0.50432842  0.08941007  1
  Zr  Zr41  1  0.90014146  0.70851513  0.10750217  1
  Zr  Zr42  1  0.30510060  0.10057344  0.29797809  1
  Zr  Zr43  1  0.10829196  0.30906907  0.69936623  1
  Zr  Zr44  1  0.89721858  0.29698946  0.89929726  1
  Zr  Zr45  1  0.91093505  0.89899703  0.10178421  1
  Zr  Zr46  1  0.49061692  0.89997824  0.09868721  1
  Zr  Zr47  1  0.89394752  0.69996442  0.48890976  1
  Zr  Zr48  1  0.29704592  0.48625297  0.70641693  1
  Zr  Zr49  1  0.69675181  0.29832797  0.50416174  1
  Sc  Sc50  1  0.09461733  0.28426984  0.50507425  1
  Sc  Sc51  1  0.70673939  0.49485531  0.09643381  1
  Sc  Sc52  1  0.50211174  0.09004786  0.28595109  1
  Sc  Sc53  1  0.89384401  0.70237904  0.69826753  1
  Sc  Sc54  1  0.69678927  0.30251951  0.28691493  1
  Sc  Sc55  1  0.09833622  0.71745061  0.70638705  1
  Sc  Sc56  1  0.70066472  0.29056410  0.69893234  1
  Sc  Sc57  1  0.28477485  0.90438632  0.69414178  1
  Sc  Sc58  1  0.50735269  0.29073290  0.09674503  1
  Sc  Sc59  1  0.50304901  0.30180979  0.70380553  1
  Sc  Sc60  1  0.31737726  0.90281251  0.30165162  1
  Sc  Sc61  1  0.91008449  0.29410059  0.70148885  1
  Sc  Sc62  1  0.69183705  0.50456454  0.49611291  1
  Sc  Sc63  1  0.29946052  0.70306863  0.09285022  1
  Sc  Sc64  1  0.30494325  0.30838703  0.89405680  1
  Sc  Sc65  1  0.29551945  0.30342810  0.50714263  1
  Sc  Sc66  1  0.29656066  0.69981454  0.29775667  1
  Sc  Sc67  1  0.49980225  0.69642961  0.70158967  1
  Sc  Sc68  1  0.50264552  0.29602187  0.89978590  1
  Sc  Sc69  1  0.50437881  0.89658718  0.70211082  1
  Sc  Sc70  1  0.50349841  0.31376827  0.50295111  1
  Sc  Sc71  1  0.09839230  0.68468640  0.29782264  1
  Sc  Sc72  1  0.30073134  0.70072615  0.70460891  1
  Sc  Sc73  1  0.09637824  0.10092242  0.30783012  1
  Sc  Sc74  1  0.30075176  0.50257417  0.89838352  1
  Sc  Sc75  1  0.90484717  0.89351695  0.49001550  1
  Sc  Sc76  1  0.30426088  0.29532465  0.30353426  1
  Sc  Sc77  1  0.89815668  0.29569409  0.09488599  1
  Sc  Sc78  1  0.71411062  0.90645218  0.09782973  1
  Sc  Sc79  1  0.08599470  0.30039684  0.09582253  1
  Sc  Sc80  1  0.10374139  0.10686154  0.70785075  1
  Sc  Sc81  1  0.48784749  0.70169594  0.89243313  1
  Sc  Sc82  1  0.29975015  0.49336468  0.50940543  1
  Sc  Sc83  1  0.69529327  0.10543876  0.10388070  1
  Sc  Sc84  1  0.89307350  0.10388202  0.70535206  1
  Sc  Sc85  1  0.29536766  0.09848091  0.70810399  1
  Sc  Sc86  1  0.31343068  0.29363221  0.09557162  1
  Sc  Sc87  1  0.90246063  0.89789832  0.71411325  1
  Sc  Sc88  1  0.29787427  0.89703406  0.90230254  1
  Sc  Sc89  1  0.08360822  0.90610030  0.30131388  1
  Sc  Sc90  1  0.09491506  0.70087514  0.08957580  1
  Sc  Sc91  1  0.48992073  0.90027235  0.49946754  1
  Sc  Sc92  1  0.90103124  0.50100244  0.09468249  1
  Sc  Sc93  1  0.51077381  0.49262899  0.31089630  1
  Sc  Sc94  1  0.09243052  0.29809876  0.89896253  1
  Sc  Sc95  1  0.89764509  0.70489938  0.90639240  1
  Sc  Sc96  1  0.70014311  0.70315493  0.70308661  1
  Sc  Sc97  1  0.09210140  0.50792653  0.50143552  1
  Sc  Sc98  1  0.48944293  0.50631283  0.89525238  1
  Sc  Sc99  1  0.90537216  0.29250344  0.28721362  1
  Nb  Nb100  1  0.50157195  0.50149136  0.70029322  1
  Nb  Nb101  1  0.49737815  0.09940848  0.08610590  1
  Nb  Nb102  1  0.70086354  0.10136647  0.30777184  1
  Nb  Nb103  1  0.49924721  0.10666800  0.70738059  1
  Nb  Nb104  1  0.09703746  0.09494662  0.49900051  1
  Nb  Nb105  1  0.09829990  0.70436058  0.89922089  1
  Nb  Nb106  1  0.70179814  0.70814624  0.49666635  1
  Nb  Nb107  1  0.50146438  0.09823769  0.89468733  1
  Nb  Nb108  1  0.10010824  0.49579111  0.29715100  1
  Nb  Nb109  1  0.09435654  0.89160356  0.89254876  1
  Nb  Nb110  1  0.10182480  0.10019466  0.90058923  1
  Nb  Nb111  1  0.49588416  0.29627864  0.30394264  1
  Nb  Nb112  1  0.09928785  0.89378992  0.10102518  1
  Nb  Nb113  1  0.69807385  0.89816433  0.89874322  1
  Nb  Nb114  1  0.70622557  0.50633683  0.71105032  1
  Nb  Nb115  1  0.89836212  0.30073671  0.50161898  1
  Nb  Nb116  1  0.50343575  0.89248070  0.29969498  1
  Nb  Nb117  1  0.70142996  0.70134060  0.89969181  1
  Nb  Nb118  1  0.10066223  0.50012599  0.70271276  1
  Nb  Nb119  1  0.50347410  0.70030305  0.09673083  1
  Nb  Nb120  1  0.09750867  0.90398971  0.70157717  1
  Nb  Nb121  1  0.70128379  0.09697696  0.89379160  1
  Nb  Nb122  1  0.71370133  0.50786870  0.89553400  1
  Nb  Nb123  1  0.89658172  0.70482950  0.30228937  1
  Nb  Nb124  1  0.88903002  0.50072183  0.89387119  1
  Nb  Nb125  1  0.40031313  0.40293448  0.20230075  1
  Nb  Nb126  1  0.59919391  0.00034479  -0.00780257  1
  Nb  Nb127  1  0.19973417  0.19219813  0.00116095  1
  Nb  Nb128  1  0.19468322  0.80539656  0.20093258  1
  Nb  Nb129  1  0.40239001  0.19571358  0.60084565  1
  Nb  Nb130  1  0.79624932  0.20163954  0.39852321  1
  Nb  Nb131  1  0.60171976  0.80183395  0.39724788  1
  Nb  Nb132  1  0.00316806  0.59884428  0.80476540  1
  Nb  Nb133  1  0.20186271  0.19918485  0.19282954  1
  Nb  Nb134  1  0.40381379  0.59601752  0.20040754  1
  Nb  Nb135  1  0.19785297  0.80226591  0.39580486  1
  Nb  Nb136  1  0.59900886  0.19652457  0.39613277  1
  Nb  Nb137  1  0.60859603  0.41347033  0.80027146  1
  Nb  Nb138  1  0.40007599  0.59858654  0.40088575  1
  Nb  Nb139  1  0.20306017  0.39499908  0.19918592  1
  Nb  Nb140  1  -0.00185300  0.39795383  0.39851244  1
  Nb  Nb141  1  0.40917412  0.19641092  0.40659177  1
  Nb  Nb142  1  0.80165205  0.40310957  0.60011029  1
  Nb  Nb143  1  0.00652927  0.00007439  0.60321073  1
  Nb  Nb144  1  0.60115577  0.80277132  0.19859541  1
  Nb  Nb145  1  0.80574899  0.39519824  0.40239124  1
  Nb  Nb146  1  0.60329669  0.79891183  -0.00017435  1
  Nb  Nb147  1  0.19374886  0.59874548  0.60904598  1
  Nb  Nb148  1  0.18908177  0.40050185  0.39502773  1
  Nb  Nb149  1  0.60502164  0.60544833  -0.00837373  1
  Pd  Pd150  1  0.80624608  0.80795816  0.59907796  1
  Pd  Pd151  1  0.59852847  0.80187950  0.59816230  1
  Pd  Pd152  1  0.79728998  0.38776437  0.79020005  1
  Pd  Pd153  1  0.39481333  0.79320132  0.19705802  1
  Pd  Pd154  1  0.20066905  0.38503353  0.00470830  1
  Pd  Pd155  1  0.39773142  0.80530072  0.61026023  1
  Pd  Pd156  1  -0.00233846  0.60441938  0.19680092  1
  Pd  Pd157  1  0.40023791  0.00255413  0.61499327  1
  Pd  Pd158  1  0.20199349  0.59902322  0.41301403  1
  Pd  Pd159  1  -0.00716836  0.40377283  -0.00458475  1
  Pd  Pd160  1  0.81652614  -0.00918433  0.60479540  1
  Pd  Pd161  1  0.59802845  -0.00422426  0.18727106  1
  Pd  Pd162  1  0.19778576  -0.00880951  0.38864131  1
  Pd  Pd163  1  0.79914750  0.19464297  0.20164510  1
  Pd  Pd164  1  0.59986225  -0.00013631  0.79849830  1
  Pd  Pd165  1  0.60967978  0.40552127  0.61345909  1
  Pd  Pd166  1  0.79451776  0.19334645  0.00041947  1
  Pd  Pd167  1  0.19940191  -0.00476629  0.21185304  1
  Pd  Pd168  1  0.78964393  0.59958487  0.59687557  1
  Pd  Pd169  1  0.59207203  0.39813650  0.20013719  1
  Pd  Pd170  1  0.59770538  0.60721375  0.40357652  1
  Pd  Pd171  1  0.39685870  0.20093399  -0.01165366  1
  Pd  Pd172  1  0.38904736  0.59627854  0.60482223  1
  Pd  Pd173  1  0.00090947  0.39746315  0.59475668  1
  Pd  Pd174  1  0.00739832  -0.00665690  -0.00782218  1
  Pd  Pd175  1  0.19465919  -0.00379186  -0.01024368  1
  Pd  Pd176  1  0.20634463  0.19229877  0.59929036  1
  Pd  Pd177  1  0.20506616  0.80481172  0.80067607  1
  Pd  Pd178  1  0.80911754  0.39891123  0.20074031  1
  Pd  Pd179  1  0.80895850  0.00456376  0.40828651  1
  Pd  Pd180  1  0.20562193  0.20401017  0.39881284  1
  Pd  Pd181  1  0.39068263  0.80600000  0.79343671  1
  Pd  Pd182  1  0.59445697  0.19720962  0.20191865  1
  Pd  Pd183  1  0.59149838  -0.00076407  0.40058509  1
  Pd  Pd184  1  0.19456394  0.60278860  0.79613604  1
  Pd  Pd185  1  0.79649745  0.79948457  0.00288945  1
  Pd  Pd186  1  0.40871738  0.39582904  0.00270842  1
  Pd  Pd187  1  0.00266618  0.00596369  0.79654185  1
  Pd  Pd188  1  0.59553190  0.60208450  0.80463570  1
  Pd  Pd189  1  0.59742313  0.41348477  -0.01354859  1
  Pd  Pd190  1  0.00178256  0.40538689  0.80704068  1
  Pd  Pd191  1  0.60981801  0.60316237  0.60441638  1
  Pd  Pd192  1  0.60476682  0.20847699  0.80481609  1
  Pd  Pd193  1  -0.00999169  0.80675310  0.60419025  1
  Pd  Pd194  1  0.80387302  0.00810876  0.19587288  1
  Pd  Pd195  1  0.00578549  0.61128724  0.61471396  1
  Pd  Pd196  1  0.20171476  0.20685539  0.81074239  1
  Pd  Pd197  1  0.39594648  -0.00817531  0.79352425  1
  Pd  Pd198  1  0.39026054  0.40123237  0.39923752  1
  Pd  Pd199  1  -0.00727325  0.60010434  -0.00700334  1
  Rh  Rh200  1  0.19650163  0.60660845  0.00041425  1
  Rh  Rh201  1  -0.00257304  0.00052179  0.19997142  1
  Rh  Rh202  1  -0.00714225  0.79552919  0.80724053  1
  Rh  Rh203  1  0.80421187  0.20744156  0.60134258  1
  Rh  Rh204  1  0.40574503  -0.00287491  0.19867817  1
  Rh  Rh205  1  0.40521275  0.60576461  0.00202969  1
  Rh  Rh206  1  -0.00783363  0.20400710  0.40063360  1
  Rh  Rh207  1  0.20358824  0.60380710  0.18644954  1
  Rh  Rh208  1  0.40532679  0.39330241  0.60780017  1
  Rh  Rh209  1  0.01014268  0.79186597  0.20613037  1
  Rh  Rh210  1  0.59718224  0.60021317  0.19319930  1
  Rh  Rh211  1  0.18460190  0.40813570  0.58773591  1
  Rh  Rh212  1  0.81027584  0.59638473  0.19542238  1
  Rh  Rh213  1  0.61320928  0.39060670  0.39156307  1
  Rh  Rh214  1  0.58740529  0.20304984  0.59713039  1
  Rh  Rh215  1  0.80061583  0.79670194  0.80487888  1
  Rh  Rh216  1  -0.00207953  0.60045395  0.39611201  1
  Rh  Rh217  1  0.79750374  0.59481567  0.40225251  1
  Rh  Rh218  1  0.40135213  0.79779781  -0.00360722  1
  Rh  Rh219  1  0.00309308  0.20004679  0.79942503  1
  Rh  Rh220  1  0.18969543  0.00917853  0.60626812  1
  Rh  Rh221  1  0.19318363  -0.00521870  0.80509585  1
  Rh  Rh222  1  0.40163192  0.20124956  0.79757086  1
  Rh  Rh223  1  0.81045453  0.61230743  0.80272883  1
  Rh  Rh224  1  -0.00049164  0.40371661  0.20054136  1
  Rh  Rh225  1  0.59516589  -0.00732929  0.61192378  1
  Rh  Rh226  1  0.19418348  0.39768187  0.81080540  1
  Rh  Rh227  1  0.79354311  0.80390791  0.20068813  1
  Rh  Rh228  1  0.40870795  0.00705485  0.39450918  1
  Rh  Rh229  1  0.00735665  0.79124534  0.39052930  1
  Rh  Rh230  1  0.78998905  0.80711104  0.39942547  1
  Rh  Rh231  1  0.00762068  0.19446831  0.00005608  1
  Rh  Rh232  1  0.40033818  0.79168076  0.40089015  1
  Rh  Rh233  1  -0.00529637  0.00165990  0.41005171  1
  Rh  Rh234  1  0.00477957  0.18816745  0.19053574  1
  Rh  Rh235  1  0.80580360  0.40245505  0.00088145  1
  Rh  Rh236  1  0.19840858  0.79387266  0.59764357  1
  Rh  Rh237  1  0.79724691  0.00363078  0.79938721  1
  Rh  Rh238  1  0.39380782  0.59634548  0.79268695  1
  Rh  Rh239  1  0.79189578  0.00915699  -0.00389691  1
  Rh  Rh240  1  0.80092833  0.60110607  0.00158339  1
  Rh  Rh241  1  0.40102959  0.20355210  0.20497133  1
  Rh  Rh242  1  0.41228799  0.40148532  0.79802403  1
  Rh  Rh243  1  0.60229436  0.79203478  0.80461712  1
  Rh  Rh244  1  0.19230300  0.80133452  0.00141624  1
  Rh  Rh245  1  0.79572567  0.20013298  0.79952536  1
  Rh  Rh246  1  0.40692873  -0.00223317  -0.00971372  1
  Rh  Rh247  1  0.00584000  0.19368198  0.60980553  1
  Rh  Rh248  1  -0.00017213  0.80550595  -0.00620712  1
  Rh  Rh249  1  0.60315067  0.18793146  -0.00771378  1
