# generated using pymatgen
data_ZrScNbPdRh
_symmetry_space_group_name_H-M   'P 1'
_cell_length_a   16.55798111
_cell_length_b   16.56016561
_cell_length_c   16.56006902
_cell_angle_alpha   90.01229258
_cell_angle_beta   90.00629190
_cell_angle_gamma   89.97023055
_symmetry_Int_Tables_number   1
_chemical_formula_structural   ZrScNbPdRh
_chemical_formula_sum   'Zr50 Sc50 Nb50 Pd50 Rh50'
_cell_volume   4540.81835856
_cell_formula_units_Z   50
loop_
 _symmetry_equiv_pos_site_id
 _symmetry_equiv_pos_as_xyz
  1  'x, y, z'
loop_
 _atom_site_type_symbol
 _atom_site_label
 _atom_site_symmetry_multiplicity
 _atom_site_fract_x
 _atom_site_fract_y
 _atom_site_fract_z
 _atom_site_occupancy
  Zr  Zr0  1  0.69988909  0.70629045  0.50409309  1
  Zr  Zr1  1  0.49315454  0.09994550  0.49509418  1
  Zr  Zr2  1  0.30017938  0.70258688  0.49639785  1
  Zr  Zr3  1  0.50482431  0.50193187  0.90510840  1
  Zr  Zr4  1  0.70458362  0.11270557  0.69187375  1
  Zr  Zr5  1  0.10494011  0.90600609  0.29372529  1
  Zr  Zr6  1  0.09852925  0.70141781  0.50082419  1
  Zr  Zr7  1  0.51300582  0.90460022  0.10914248  1
  Zr  Zr8  1  0.70250037  0.69855173  0.70907851  1
  Zr  Zr9  1  0.08925814  0.29855051  0.90301787  1
  Zr  Zr10  1  0.69661002  0.89743917  0.28468769  1
  Zr  Zr11  1  0.29457452  0.10271622  0.10058669  1
  Zr  Zr12  1  0.30270597  0.49841320  0.30396513  1
  Zr  Zr13  1  0.30386466  0.70079397  0.29066551  1
  Zr  Zr14  1  0.49829627  0.90221929  0.49907149  1
  Zr  Zr15  1  0.70266711  0.09781518  0.30606014  1
  Zr  Zr16  1  0.29703508  0.91205110  0.70534861  1
  Zr  Zr17  1  0.90435236  0.30176230  0.29327564  1
  Zr  Zr18  1  0.09539684  0.70198618  0.89985848  1
  Zr  Zr19  1  0.30840426  0.91101036  0.50272172  1
  Zr  Zr20  1  0.89527662  0.91197359  0.29815978  1
  Zr  Zr21  1  0.10503619  0.29345130  0.49956633  1
  Zr  Zr22  1  0.30585313  0.09819072  0.89240536  1
  Zr  Zr23  1  0.09610117  0.71150754  0.70284929  1
  Zr  Zr24  1  0.50682917  0.28650030  0.90103312  1
  Zr  Zr25  1  0.09182504  0.10067600  0.29815697  1
  Zr  Zr26  1  0.70548146  0.70088824  0.29951135  1
  Zr  Zr27  1  0.48976420  0.49061906  0.50173982  1
  Zr  Zr28  1  0.90324675  0.30281122  0.09041951  1
  Zr  Zr29  1  0.10225434  0.30584126  0.29618962  1
  Zr  Zr30  1  0.70719828  0.29923321  0.89599630  1
  Zr  Zr31  1  0.29787929  0.29936517  0.90343719  1
  Zr  Zr32  1  0.89033542  0.09560638  0.49571401  1
  Zr  Zr33  1  0.29817574  0.69853026  0.90569874  1
  Zr  Zr34  1  0.90456664  0.09240366  0.69976641  1
  Zr  Zr35  1  0.89951276  0.70136470  0.09564654  1
  Zr  Zr36  1  0.69199421  0.10916776  0.90108685  1
  Zr  Zr37  1  0.89119169  0.90518445  0.10145302  1
  Zr  Zr38  1  0.49920877  0.48985024  0.29992468  1
  Zr  Zr39  1  0.49609198  0.90245685  0.69835383  1
  Zr  Zr40  1  0.49588309  0.90077914  0.89614309  1
  Zr  Zr41  1  0.69413035  0.48894801  0.70529692  1
  Zr  Zr42  1  0.30134495  0.90399260  0.29327343  1
  Zr  Zr43  1  0.10753786  0.09984331  0.49944353  1
  Zr  Zr44  1  0.50690862  0.10962118  0.09740945  1
  Zr  Zr45  1  0.09541134  0.29766764  0.70120151  1
  Zr  Zr46  1  0.10576133  0.69937071  0.10026509  1
  Zr  Zr47  1  0.29660982  0.29621904  0.10166552  1
  Zr  Zr48  1  0.70758393  0.90482636  0.90541212  1
  Zr  Zr49  1  0.50706778  0.49632700  0.09063557  1
  Sc  Sc50  1  0.89696078  0.70184705  0.71565783  1
  Sc  Sc51  1  0.70194367  0.10700532  0.50019648  1
  Sc  Sc52  1  0.09296791  0.09185572  0.89987382  1
  Sc  Sc53  1  0.89253067  0.30290597  0.70974231  1
  Sc  Sc54  1  0.89512133  0.30036234  0.50142912  1
  Sc  Sc55  1  0.09925131  0.09879347  0.09752985  1
  Sc  Sc56  1  0.70833908  0.69903059  0.10506658  1
  Sc  Sc57  1  0.49872681  0.29542304  0.49892654  1
  Sc  Sc58  1  0.71149075  0.49156984  0.29958655  1
  Sc  Sc59  1  0.49656214  0.69541143  0.09615739  1
  Sc  Sc60  1  0.29611296  0.90003393  0.10045146  1
  Sc  Sc61  1  0.29753806  0.48544741  0.69575174  1
  Sc  Sc62  1  0.90199278  0.49728165  0.49270806  1
  Sc  Sc63  1  0.49108031  0.11206193  0.70516476  1
  Sc  Sc64  1  0.70413736  0.48261706  0.49718039  1
  Sc  Sc65  1  0.70426563  0.88898552  0.69416314  1
  Sc  Sc66  1  0.09986033  0.50040090  0.10321588  1
  Sc  Sc67  1  0.70683491  0.89882976  0.49959932  1
  Sc  Sc68  1  0.89198864  0.89839449  0.50187589  1
  Sc  Sc69  1  0.29840417  0.49611660  0.90670689  1
  Sc  Sc70  1  0.50068410  0.30890094  0.09673043  1
  Sc  Sc71  1  0.89943245  0.50023673  0.71520127  1
  Sc  Sc72  1  0.89106859  0.70544252  0.49383144  1
  Sc  Sc73  1  0.10129686  0.90317866  0.50634741  1
  Sc  Sc74  1  0.10185496  0.90485356  0.09419656  1
  Sc  Sc75  1  0.09790316  0.49445483  0.89821630  1
  Sc  Sc76  1  0.70119302  0.08935263  0.09236276  1
  Sc  Sc77  1  0.30216037  0.29641872  0.29456469  1
  Sc  Sc78  1  0.29701997  0.89943962  0.89667130  1
  Sc  Sc79  1  0.69875047  0.50965659  0.90572380  1
  Sc  Sc80  1  0.49862521  0.90747964  0.29709807  1
  Sc  Sc81  1  0.30179590  0.10352768  0.29710220  1
  Sc  Sc82  1  0.29890694  0.69631100  0.09682933  1
  Sc  Sc83  1  0.49455915  0.70483759  0.50081183  1
  Sc  Sc84  1  0.89378780  0.49388899  0.10172823  1
  Sc  Sc85  1  0.89592299  0.68749513  0.29920074  1
  Sc  Sc86  1  0.90185200  0.89803284  0.69745318  1
  Sc  Sc87  1  0.09234465  0.49207154  0.70526634  1
  Sc  Sc88  1  0.09586756  0.49008669  0.49677683  1
  Sc  Sc89  1  0.49717911  0.10225861  0.30264811  1
  Sc  Sc90  1  0.29434223  0.71516486  0.70133777  1
  Sc  Sc91  1  0.50644937  0.69452636  0.90246362  1
  Sc  Sc92  1  0.29932788  0.29529205  0.68927712  1
  Sc  Sc93  1  0.30438200  0.49996903  0.09336406  1
  Sc  Sc94  1  0.51063116  0.70628244  0.70453231  1
  Sc  Sc95  1  0.90380426  0.89516369  0.90628269  1
  Sc  Sc96  1  0.89941890  0.10813405  0.90969912  1
  Sc  Sc97  1  0.70252202  0.30736086  0.31254820  1
  Sc  Sc98  1  0.10062289  0.29933058  0.09886001  1
  Sc  Sc99  1  0.10029456  0.90144004  0.90102209  1
  Nb  Nb100  1  0.69490403  0.29910915  0.69405436  1
  Nb  Nb101  1  0.29666415  0.29702157  0.50081779  1
  Nb  Nb102  1  0.50079902  0.49831359  0.69993105  1
  Nb  Nb103  1  0.10010058  0.91089076  0.70731429  1
  Nb  Nb104  1  0.70101513  0.29382262  0.52006967  1
  Nb  Nb105  1  0.70631446  0.69754688  0.89976140  1
  Nb  Nb106  1  0.90175415  0.30821097  0.90554821  1
  Nb  Nb107  1  0.10113408  0.09063070  0.69995497  1
  Nb  Nb108  1  0.89999759  0.50226721  0.90098360  1
  Nb  Nb109  1  0.50011042  0.29476925  0.29573483  1
  Nb  Nb110  1  0.29257680  0.09835843  0.69563882  1
  Nb  Nb111  1  0.70134625  0.89697882  0.10238773  1
  Nb  Nb112  1  0.50303460  0.69667385  0.29678968  1
  Nb  Nb113  1  0.29876976  0.49871261  0.50155236  1
  Nb  Nb114  1  0.30175712  0.11037082  0.50892345  1
  Nb  Nb115  1  0.69213800  0.49345636  0.10270476  1
  Nb  Nb116  1  0.89292055  0.68840911  0.89943505  1
  Nb  Nb117  1  0.10224806  0.69800714  0.29667882  1
  Nb  Nb118  1  0.09103655  0.50545316  0.30159081  1
  Nb  Nb119  1  0.50264432  0.10197371  0.89959785  1
  Nb  Nb120  1  0.51175398  0.31095939  0.69567753  1
  Nb  Nb121  1  0.91017148  0.49260562  0.29882506  1
  Nb  Nb122  1  0.90014197  0.09963265  0.11003114  1
  Nb  Nb123  1  0.70105841  0.31097672  0.10562083  1
  Nb  Nb124  1  0.89906441  0.09932657  0.29443166  1
  Nb  Nb125  1  0.40851040  0.39826121  0.79663528  1
  Nb  Nb126  1  0.20266566  0.60023240  0.79445599  1
  Nb  Nb127  1  0.79831011  0.59693354  0.60395439  1
  Nb  Nb128  1  0.59903850  0.59348363  0.59708304  1
  Nb  Nb129  1  0.60916714  0.80182923  0.00271045  1
  Nb  Nb130  1  -0.00274090  0.60251165  0.60266607  1
  Nb  Nb131  1  0.60298786  0.00514942  0.79558140  1
  Nb  Nb132  1  0.60781925  0.20810128  0.20114102  1
  Nb  Nb133  1  0.19888122  0.59725541  0.59957834  1
  Nb  Nb134  1  0.19728340  0.59927765  0.39827555  1
  Nb  Nb135  1  0.00191547  0.19385241  0.60260390  1
  Nb  Nb136  1  0.00193743  0.79874541  0.20378524  1
  Nb  Nb137  1  0.39697252  0.59642732  0.60597677  1
  Nb  Nb138  1  0.19677036  0.19370142  0.79468967  1
  Nb  Nb139  1  0.00525454  0.79997874  0.39019098  1
  Nb  Nb140  1  0.59757390  0.00334431  0.60402319  1
  Nb  Nb141  1  0.60047004  0.59498561  0.20519464  1
  Nb  Nb142  1  0.40563948  0.00530704  -0.00225155  1
  Nb  Nb143  1  0.19920964  0.79777264  0.39397986  1
  Nb  Nb144  1  0.80019011  0.20005376  0.19785169  1
  Nb  Nb145  1  0.59776226  0.59986883  0.39979598  1
  Nb  Nb146  1  0.79623845  0.00386856  0.80100054  1
  Nb  Nb147  1  0.39718367  0.59353781  0.79289376  1
  Nb  Nb148  1  0.59856403  0.79509922  0.39286299  1
  Nb  Nb149  1  -0.00640337  0.60048770  -0.00525023  1
  Pd  Pd150  1  0.79436287  0.58976918  0.40660889  1
  Pd  Pd151  1  0.20113912  0.80881007  0.59731427  1
  Pd  Pd152  1  0.60079331  0.20692111  0.39941293  1
  Pd  Pd153  1  0.40253376  0.80467392  0.39069624  1
  Pd  Pd154  1  0.40174874  0.79482885  0.60746122  1
  Pd  Pd155  1  -0.00043425  0.60452780  0.40612215  1
  Pd  Pd156  1  -0.00180589  -0.00664687  0.40704622  1
  Pd  Pd157  1  0.40623739  0.59260585  0.19313452  1
  Pd  Pd158  1  0.20128367  0.40321460  0.39785785  1
  Pd  Pd159  1  0.20560374  0.39486333  0.79942254  1
  Pd  Pd160  1  0.19965194  0.40668516  0.19870424  1
  Pd  Pd161  1  -0.00908879  0.39929940  0.60254347  1
  Pd  Pd162  1  0.19144125  0.19309484  -0.00959252  1
  Pd  Pd163  1  0.20662718  0.19915038  0.39166336  1
  Pd  Pd164  1  -0.00114472  0.19666011  0.79845396  1
  Pd  Pd165  1  0.59923291  0.39489329  0.40583147  1
  Pd  Pd166  1  -0.00099078  0.39182495  0.40220427  1
  Pd  Pd167  1  0.19950195  0.80477384  -0.00050266  1
  Pd  Pd168  1  -0.00625843  0.00227218  0.00266656  1
  Pd  Pd169  1  -0.00423389  0.60024422  0.19178949  1
  Pd  Pd170  1  -0.00643577  0.20071584  0.40646702  1
  Pd  Pd171  1  0.80271819  0.20811405  0.39651196  1
  Pd  Pd172  1  0.40809376  0.80743655  0.00675856  1
  Pd  Pd173  1  0.20763520  0.00084992  0.40120015  1
  Pd  Pd174  1  0.20356614  0.59076740  0.20259491  1
  Pd  Pd175  1  0.60609064  -0.00745686  0.40541583  1
  Pd  Pd176  1  0.79788562  0.58885685  0.19689186  1
  Pd  Pd177  1  0.19344029  0.40320669  0.00427753  1
  Pd  Pd178  1  0.39425908  0.21074996  0.79180921  1
  Pd  Pd179  1  0.39952717  0.79042994  0.80024875  1
  Pd  Pd180  1  0.39932044  0.19915202  0.00467484  1
  Pd  Pd181  1  0.59940690  0.39764154  0.81068822  1
  Pd  Pd182  1  0.39427036  0.38423577  0.40089371  1
  Pd  Pd183  1  0.59621833  -0.00518728  -0.00529954  1
  Pd  Pd184  1  0.79471804  0.40751368  -0.00364662  1
  Pd  Pd185  1  0.40423536  0.20549730  0.60261453  1
  Pd  Pd186  1  0.40119482  0.00689493  0.19207145  1
  Pd  Pd187  1  0.40131184  0.60147152  0.40441274  1
  Pd  Pd188  1  -0.00129538  0.00087207  0.59202827  1
  Pd  Pd189  1  0.79707869  0.19928554  0.00928657  1
  Pd  Pd190  1  0.19566422  0.40164962  0.59721582  1
  Pd  Pd191  1  0.60765399  0.80626255  0.81061406  1
  Pd  Pd192  1  -0.00906604  0.79723371  0.59502001  1
  Pd  Pd193  1  -0.00555680  0.80748610  0.80522102  1
  Pd  Pd194  1  0.79737396  0.79645026  -0.00282245  1
  Pd  Pd195  1  0.39851359  0.39835098  0.19410421  1
  Pd  Pd196  1  0.40489555  0.80020399  0.19240093  1
  Pd  Pd197  1  0.80910190  0.40571395  0.60585243  1
  Pd  Pd198  1  0.00071574  0.20299902  0.19253294  1
  Pd  Pd199  1  0.80668501  0.19801023  0.79991025  1
  Rh  Rh200  1  0.19071464  0.59614048  -0.00902316  1
  Rh  Rh201  1  0.00316652  0.40320738  0.19500093  1
  Rh  Rh202  1  -0.00103866  0.19829740  0.00359458  1
  Rh  Rh203  1  0.59534293  0.80384337  0.58882182  1
  Rh  Rh204  1  0.80459251  0.39657941  0.20187244  1
  Rh  Rh205  1  0.80080505  0.80711149  0.38814478  1
  Rh  Rh206  1  0.40402790  0.01079516  0.60514830  1
  Rh  Rh207  1  0.19735631  0.80153998  0.19878681  1
  Rh  Rh208  1  0.59738515  0.60120752  0.79575892  1
  Rh  Rh209  1  0.20126498  -0.00234874  0.59800119  1
  Rh  Rh210  1  0.21072593  0.00170851  -0.00420110  1
  Rh  Rh211  1  0.79216557  0.00946573  0.19770551  1
  Rh  Rh212  1  0.00337419  -0.00421716  0.19300202  1
  Rh  Rh213  1  0.19652337  0.80172171  0.80286057  1
  Rh  Rh214  1  0.39241493  0.00835469  0.39798144  1
  Rh  Rh215  1  0.19313976  0.19738763  0.60618798  1
  Rh  Rh216  1  -0.00634934  0.39820625  0.80554722  1
  Rh  Rh217  1  0.19143860  0.19747110  0.20466971  1
  Rh  Rh218  1  0.39296451  0.20242330  0.40084909  1
  Rh  Rh219  1  0.19599896  0.00449929  0.80535068  1
  Rh  Rh220  1  0.79788831  0.40281027  0.80853437  1
  Rh  Rh221  1  0.81264034  0.79950036  0.20349829  1
  Rh  Rh222  1  0.40512831  0.00411749  0.80070467  1
  Rh  Rh223  1  0.00206626  0.40921187  0.00084993  1
  Rh  Rh224  1  0.40195084  0.39509434  -0.00741826  1
  Rh  Rh225  1  0.81277845  0.20419187  0.60337287  1
  Rh  Rh226  1  0.59685700  0.78808607  0.19621512  1
  Rh  Rh227  1  0.00014258  0.79293756  0.00493909  1
  Rh  Rh228  1  0.19775038  0.00729586  0.19615038  1
  Rh  Rh229  1  0.61033168  0.21045242  0.01233572  1
  Rh  Rh230  1  -0.00787275  -0.00507007  0.80394028  1
  Rh  Rh231  1  0.39768769  0.59870337  -0.00749066  1
  Rh  Rh232  1  0.59947642  0.40153854  0.59137853  1
  Rh  Rh233  1  0.79490900  -0.00319977  0.39886471  1
  Rh  Rh234  1  0.59095167  0.19552354  0.59869185  1
  Rh  Rh235  1  0.60109317  0.39898979  0.20682033  1
  Rh  Rh236  1  0.80587337  0.00610221  -0.00319112  1
  Rh  Rh237  1  0.40847482  0.20360817  0.19673643  1
  Rh  Rh238  1  0.60367734  0.01428924  0.20272957  1
  Rh  Rh239  1  0.60087904  0.19978149  0.79052432  1
  Rh  Rh240  1  0.00856672  0.59845693  0.80195392  1
  Rh  Rh241  1  0.61291227  0.61183192  0.01271609  1
  Rh  Rh242  1  0.80373533  0.80738376  0.80603827  1
  Rh  Rh243  1  0.79202706  0.59129854  0.79841603  1
  Rh  Rh244  1  0.79033867  -0.00215201  0.60621012  1
  Rh  Rh245  1  0.79973639  0.59410171  0.00546361  1
  Rh  Rh246  1  0.39851612  0.39497283  0.60159191  1
  Rh  Rh247  1  0.80768976  0.78936505  0.60782265  1
  Rh  Rh248  1  0.60725371  0.39218716  -0.00825103  1
  Rh  Rh249  1  0.80950340  0.39580420  0.39993646  1
