# generated using pymatgen
data_ZrScNbPdRh
_symmetry_space_group_name_H-M   'P 1'
_cell_length_a   16.55902005
_cell_length_b   16.56188068
_cell_length_c   16.56071196
_cell_angle_alpha   90.01160720
_cell_angle_beta   90.00339012
_cell_angle_gamma   90.01941760
_symmetry_Int_Tables_number   1
_chemical_formula_structural   ZrScNbPdRh
_chemical_formula_sum   'Zr50 Sc50 Nb50 Pd50 Rh50'
_cell_volume   4541.75028873
_cell_formula_units_Z   50
loop_
 _symmetry_equiv_pos_site_id
 _symmetry_equiv_pos_as_xyz
  1  'x, y, z'
loop_
 _atom_site_type_symbol
 _atom_site_label
 _atom_site_symmetry_multiplicity
 _atom_site_fract_x
 _atom_site_fract_y
 _atom_site_fract_z
 _atom_site_occupancy
  Zr  Zr0  1  0.69531929  0.90294417  0.69879929  1
  Zr  Zr1  1  0.29526900  0.89162434  0.49897002  1
  Zr  Zr2  1  0.70406202  0.50110381  0.09786252  1
  Zr  Zr3  1  0.29954442  0.70693745  0.30716078  1
  Zr  Zr4  1  0.69796073  0.89988162  0.30283614  1
  Zr  Zr5  1  0.90116643  0.29835614  0.90052859  1
  Zr  Zr6  1  0.09627291  0.11053596  0.49804618  1
  Zr  Zr7  1  0.09014587  0.50172081  0.71037253  1
  Zr  Zr8  1  0.90057991  0.89923047  0.31184226  1
  Zr  Zr9  1  0.69905396  0.29902567  0.10133458  1
  Zr  Zr10  1  0.30080999  0.29978164  0.09933693  1
  Zr  Zr11  1  0.70632478  0.09492846  0.50614948  1
  Zr  Zr12  1  0.50331454  0.49327844  0.09427923  1
  Zr  Zr13  1  0.30462579  0.90606798  0.10208966  1
  Zr  Zr14  1  0.91018113  0.30544770  0.49541823  1
  Zr  Zr15  1  0.29594798  0.10128829  0.09081654  1
  Zr  Zr16  1  0.30430955  0.50885281  0.70361012  1
  Zr  Zr17  1  0.49770434  0.29781232  0.89687770  1
  Zr  Zr18  1  0.50114749  0.49631140  0.50421188  1
  Zr  Zr19  1  0.29011512  0.49904257  0.90031916  1
  Zr  Zr20  1  0.70656900  0.29908582  0.30230363  1
  Zr  Zr21  1  0.69888524  0.09479604  0.30693220  1
  Zr  Zr22  1  0.30173968  0.49885481  0.30068329  1
  Zr  Zr23  1  0.09630695  0.68997611  0.10252927  1
  Zr  Zr24  1  0.89437572  0.90449200  0.09915269  1
  Zr  Zr25  1  0.10128977  0.10291741  0.89904988  1
  Zr  Zr26  1  0.30646130  0.29879793  0.29691970  1
  Zr  Zr27  1  0.89335147  0.69025645  0.70181209  1
  Zr  Zr28  1  0.30078443  0.70715799  0.10371850  1
  Zr  Zr29  1  0.29463880  0.09981726  0.49681681  1
  Zr  Zr30  1  0.70155134  0.09453396  0.10342653  1
  Zr  Zr31  1  0.70078082  0.09600895  0.89480461  1
  Zr  Zr32  1  0.08520580  0.49509378  0.50427025  1
  Zr  Zr33  1  0.09806665  0.10164668  0.29827034  1
  Zr  Zr34  1  0.10072171  0.90083085  0.69427021  1
  Zr  Zr35  1  0.89483891  0.70946110  0.90035674  1
  Zr  Zr36  1  0.09235687  0.90133753  0.89119622  1
  Zr  Zr37  1  0.49677671  0.88783738  0.09793708  1
  Zr  Zr38  1  0.69356929  0.88979387  0.89415404  1
  Zr  Zr39  1  0.29566122  0.70103374  0.69470694  1
  Zr  Zr40  1  0.10213645  0.10282694  0.68815440  1
  Zr  Zr41  1  0.50399722  0.90461622  0.89809704  1
  Zr  Zr42  1  0.50443443  0.49920378  0.90068747  1
  Zr  Zr43  1  0.50088527  0.09865558  0.30594811  1
  Zr  Zr44  1  0.69571064  0.50153052  0.50586614  1
  Zr  Zr45  1  0.89644186  0.09765707  0.90074702  1
  Zr  Zr46  1  0.50497148  0.30302018  0.69659390  1
  Zr  Zr47  1  0.30541098  0.11289261  0.89328207  1
  Zr  Zr48  1  0.69998970  0.69642721  0.09049128  1
  Zr  Zr49  1  0.90478339  0.90667684  0.89681450  1
  Sc  Sc50  1  0.29962736  0.29019337  0.71125632  1
  Sc  Sc51  1  0.29459253  0.69648794  0.89036313  1
  Sc  Sc52  1  0.29292977  0.29695641  0.90233721  1
  Sc  Sc53  1  0.50242971  0.50437861  0.68914455  1
  Sc  Sc54  1  0.50323455  0.48957872  0.30239464  1
  Sc  Sc55  1  0.50468021  0.09147269  0.49744943  1
  Sc  Sc56  1  0.69967213  0.49589893  0.90424542  1
  Sc  Sc57  1  0.30368165  0.10192828  0.29137967  1
  Sc  Sc58  1  0.91202619  0.48994335  0.88723980  1
  Sc  Sc59  1  0.89872663  0.89952473  0.50326421  1
  Sc  Sc60  1  0.70258450  0.49606213  0.29581928  1
  Sc  Sc61  1  0.09379689  0.50493560  0.29503679  1
  Sc  Sc62  1  0.70208242  0.29937335  0.70117610  1
  Sc  Sc63  1  0.09578780  0.69994473  0.89976481  1
  Sc  Sc64  1  0.89973450  0.09889966  0.31558631  1
  Sc  Sc65  1  0.70207707  0.89955349  0.50503524  1
  Sc  Sc66  1  0.91286012  0.29399315  0.09940201  1
  Sc  Sc67  1  0.51562964  0.09774845  0.70125728  1
  Sc  Sc68  1  0.50503240  0.71736569  0.30005587  1
  Sc  Sc69  1  0.09723375  0.70457013  0.70739259  1
  Sc  Sc70  1  0.89393933  0.69726014  0.09780422  1
  Sc  Sc71  1  0.49955228  0.29986858  0.09675182  1
  Sc  Sc72  1  0.89675028  0.48963602  0.29603539  1
  Sc  Sc73  1  0.49392036  0.30011556  0.29978568  1
  Sc  Sc74  1  0.89917038  0.10313730  0.50471840  1
  Sc  Sc75  1  0.90626934  0.50639117  0.10305960  1
  Sc  Sc76  1  0.08744104  0.29512068  0.29495481  1
  Sc  Sc77  1  0.09614227  0.70391400  0.50405211  1
  Sc  Sc78  1  0.50185176  0.10163050  0.90233834  1
  Sc  Sc79  1  0.70427946  0.30151571  0.50394295  1
  Sc  Sc80  1  0.09997574  0.69951112  0.31093203  1
  Sc  Sc81  1  0.10887998  0.90882793  0.08651524  1
  Sc  Sc82  1  0.10336279  0.10963178  0.10091560  1
  Sc  Sc83  1  0.09962312  0.29477112  0.69901422  1
  Sc  Sc84  1  0.30760561  0.49987302  0.50032642  1
  Sc  Sc85  1  0.69837632  0.70474364  0.29965652  1
  Sc  Sc86  1  0.09804440  0.29680509  0.09402935  1
  Sc  Sc87  1  0.49988607  0.09505876  0.09660183  1
  Sc  Sc88  1  0.49832460  0.69572549  0.69165105  1
  Sc  Sc89  1  0.51105395  0.70949843  0.90537475  1
  Sc  Sc90  1  0.69769379  0.70451988  0.50934146  1
  Sc  Sc91  1  0.89453623  0.70136854  0.29806994  1
  Sc  Sc92  1  0.89625803  0.70658885  0.51101005  1
  Sc  Sc93  1  0.49902730  0.90151837  0.30635608  1
  Sc  Sc94  1  0.50643060  0.69870317  0.49901600  1
  Sc  Sc95  1  0.30956893  0.29837252  0.49062618  1
  Sc  Sc96  1  0.29578804  0.70239961  0.49696346  1
  Sc  Sc97  1  0.09113722  0.89597244  0.49929078  1
  Sc  Sc98  1  0.29514058  0.90419353  0.91150907  1
  Sc  Sc99  1  0.70114576  0.29879258  0.89203334  1
  Nb  Nb100  1  0.29880162  0.09954137  0.69605986  1
  Nb  Nb101  1  0.89892785  0.10085225  0.09924975  1
  Nb  Nb102  1  0.29777533  0.50206757  0.09969604  1
  Nb  Nb103  1  0.50218829  0.30121208  0.50232945  1
  Nb  Nb104  1  0.89789489  0.29426954  0.30049518  1
  Nb  Nb105  1  0.89559029  0.49736364  0.69248196  1
  Nb  Nb106  1  0.29708834  0.90030765  0.69269802  1
  Nb  Nb107  1  0.09323287  0.30709189  0.89965420  1
  Nb  Nb108  1  0.89764516  0.50374556  0.51181940  1
  Nb  Nb109  1  0.89715995  0.09889045  0.70389748  1
  Nb  Nb110  1  0.49875240  0.70057141  0.10102906  1
  Nb  Nb111  1  0.10120184  0.48761796  0.90700235  1
  Nb  Nb112  1  0.90405822  0.90948689  0.70471169  1
  Nb  Nb113  1  0.50234644  0.89874783  0.50348926  1
  Nb  Nb114  1  0.10037165  0.30134715  0.49792015  1
  Nb  Nb115  1  0.09413615  0.90150116  0.30323725  1
  Nb  Nb116  1  0.71164446  0.50497423  0.69812904  1
  Nb  Nb117  1  0.10770275  0.50015383  0.09105995  1
  Nb  Nb118  1  0.69765430  0.89943913  0.10843269  1
  Nb  Nb119  1  0.70414562  0.70114400  0.70754504  1
  Nb  Nb120  1  0.71239701  0.09628471  0.69746613  1
  Nb  Nb121  1  0.89561582  0.30055627  0.70906911  1
  Nb  Nb122  1  0.49974403  0.90113310  0.69959822  1
  Nb  Nb123  1  0.29701093  0.89645267  0.30238130  1
  Nb  Nb124  1  0.70029186  0.70037078  0.89505786  1
  Nb  Nb125  1  0.39816404  -0.00299011  0.60367848  1
  Nb  Nb126  1  0.39988588  0.80950904  0.79219654  1
  Nb  Nb127  1  0.80434443  0.19624761  0.20270005  1
  Nb  Nb128  1  0.00530091  0.80801607  0.19963253  1
  Nb  Nb129  1  0.19767123  -0.00380092  0.39545276  1
  Nb  Nb130  1  -0.00257173  -0.00152510  0.19996730  1
  Nb  Nb131  1  0.40529559  0.60166392  0.39244623  1
  Nb  Nb132  1  0.19509719  0.80664929  0.20419336  1
  Nb  Nb133  1  0.40431604  0.60144476  0.19808179  1
  Nb  Nb134  1  0.19811264  0.40079783  0.59641246  1
  Nb  Nb135  1  0.80225312  0.59520445  0.40752562  1
  Nb  Nb136  1  0.19252669  0.39711903  0.39996819  1
  Nb  Nb137  1  -0.00519495  0.19911652  0.79898869  1
  Nb  Nb138  1  -0.01295894  0.59503591  0.40818093  1
  Nb  Nb139  1  0.20589666  0.00251104  0.79100120  1
  Nb  Nb140  1  0.40388363  0.19312371  0.60025481  1
  Nb  Nb141  1  0.39948484  0.60081299  0.00561141  1
  Nb  Nb142  1  0.40129397  0.40375718  0.80024863  1
  Nb  Nb143  1  0.19517491  0.59202187  0.60378693  1
  Nb  Nb144  1  0.59351801  0.60289890  0.19330611  1
  Nb  Nb145  1  0.19984758  0.40481245  0.19702105  1
  Nb  Nb146  1  0.60091324  0.20142124  0.40400166  1
  Nb  Nb147  1  0.39584595  -0.00195933  0.79056254  1
  Nb  Nb148  1  0.61073570  0.60480255  0.79842999  1
  Nb  Nb149  1  0.80593816  0.39639894  0.00059013  1
  Pd  Pd150  1  0.60128232  0.39217073  0.40144205  1
  Pd  Pd151  1  0.19400416  -0.00346242  0.20416968  1
  Pd  Pd152  1  -0.00509897  0.59447188  -0.00950122  1
  Pd  Pd153  1  0.59914421  0.19619573  0.59460877  1
  Pd  Pd154  1  0.80812195  0.00618544  0.20881835  1
  Pd  Pd155  1  0.60111149  0.41090116  0.79107004  1
  Pd  Pd156  1  0.79949013  0.20455936  0.00579893  1
  Pd  Pd157  1  0.59990923  0.79829201  0.60384765  1
  Pd  Pd158  1  0.81179768  0.58754174  -0.01296303  1
  Pd  Pd159  1  0.80723904  0.20741354  0.59970437  1
  Pd  Pd160  1  0.20291033  0.39711502  0.79310788  1
  Pd  Pd161  1  0.19896407  0.20338655  0.38946618  1
  Pd  Pd162  1  0.40526242  -0.00136367  0.20189777  1
  Pd  Pd163  1  0.39501569  0.79322581  -0.01412208  1
  Pd  Pd164  1  0.41482102  0.60702589  0.80960062  1
  Pd  Pd165  1  0.40623639  0.19489848  0.19267601  1
  Pd  Pd166  1  0.20238993  0.60773549  -0.00532914  1
  Pd  Pd167  1  0.19568225  0.79409606  0.00206634  1
  Pd  Pd168  1  0.59861458  0.40103102  0.20087861  1
  Pd  Pd169  1  0.20553457  0.80839993  0.80271409  1
  Pd  Pd170  1  0.81062613  0.39184040  0.18915621  1
  Pd  Pd171  1  -0.00115162  0.60395463  0.80809553  1
  Pd  Pd172  1  0.79523270  0.80811236  0.00137459  1
  Pd  Pd173  1  0.60082095  0.20032706  0.20710338  1
  Pd  Pd174  1  0.80143661  0.79684864  0.19753664  1
  Pd  Pd175  1  0.80370663  0.40638137  0.40545737  1
  Pd  Pd176  1  0.39455187  0.40210488  -0.00772837  1
  Pd  Pd177  1  0.79631666  0.79205980  0.40705719  1
  Pd  Pd178  1  0.79997162  0.58969652  0.81019746  1
  Pd  Pd179  1  0.38922783  0.38816200  0.60812326  1
  Pd  Pd180  1  0.40297638  0.79881572  0.59765390  1
  Pd  Pd181  1  0.00629865  0.40080621  0.19449909  1
  Pd  Pd182  1  0.79050304  -0.00763651  -0.00426081  1
  Pd  Pd183  1  0.60347135  -0.00486417  0.00373017  1
  Pd  Pd184  1  0.80623172  0.80893988  0.79310812  1
  Pd  Pd185  1  -0.00434639  0.00216674  0.59397465  1
  Pd  Pd186  1  -0.00546089  0.60665148  0.20903665  1
  Pd  Pd187  1  0.39223983  -0.00446295  0.40489559  1
  Pd  Pd188  1  0.00110107  0.39083905  0.61056012  1
  Pd  Pd189  1  0.20320006  0.60222231  0.20305647  1
  Pd  Pd190  1  0.60102238  0.60203245  0.38883889  1
  Pd  Pd191  1  0.60407461  0.19603334  0.79758325  1
  Pd  Pd192  1  -0.00629097  0.79782346  0.60957967  1
  Pd  Pd193  1  0.59049663  -0.00730168  0.19868842  1
  Pd  Pd194  1  0.00417320  0.00775612  0.00842066  1
  Pd  Pd195  1  0.21043833  0.21381319  0.59531316  1
  Pd  Pd196  1  0.00275776  0.80030930  0.00862486  1
  Pd  Pd197  1  0.79873117  0.39292237  0.60226558  1
  Pd  Pd198  1  0.19430917  0.58922719  0.41210699  1
  Pd  Pd199  1  0.60080134  0.20097822  -0.00217293  1
  Rh  Rh200  1  0.59990638  -0.00055748  0.59895364  1
  Rh  Rh201  1  -0.00794018  0.79774609  0.79589621  1
  Rh  Rh202  1  0.41390499  0.19738630  0.40872578  1
  Rh  Rh203  1  0.00938469  0.01037999  0.79097774  1
  Rh  Rh204  1  0.60557244  0.79714432  0.19531365  1
  Rh  Rh205  1  0.19785596  0.39292107  0.00629495  1
  Rh  Rh206  1  0.79469476  0.60448413  0.59565852  1
  Rh  Rh207  1  0.79905938  0.40442342  0.80193208  1
  Rh  Rh208  1  0.00201997  0.19560238  -0.00755093  1
  Rh  Rh209  1  0.18689039  0.59696941  0.80036320  1
  Rh  Rh210  1  0.39495341  0.80158731  0.20568319  1
  Rh  Rh211  1  0.80127040  0.19586913  0.79678399  1
  Rh  Rh212  1  -0.01051053  0.18803599  0.20359749  1
  Rh  Rh213  1  0.39340978  0.60886141  0.58407622  1
  Rh  Rh214  1  0.41228798  0.19970213  0.79005923  1
  Rh  Rh215  1  -0.01085077  0.20697089  0.60826754  1
  Rh  Rh216  1  0.60448717  -0.00219713  0.40742247  1
  Rh  Rh217  1  0.80604048  -0.00427721  0.60419899  1
  Rh  Rh218  1  0.00023377  0.39142943  0.79214704  1
  Rh  Rh219  1  0.60226262  0.80831730  0.40654893  1
  Rh  Rh220  1  0.40102322  0.40458810  0.40286979  1
  Rh  Rh221  1  0.39901348  0.00549060  -0.00829917  1
  Rh  Rh222  1  0.18762416  0.19822479  0.80063655  1
  Rh  Rh223  1  0.60775103  0.40232936  0.60382687  1
  Rh  Rh224  1  0.79648608  0.20116445  0.40066919  1
  Rh  Rh225  1  0.61147767  0.38947818  -0.00239542  1
  Rh  Rh226  1  0.78962771  0.60239371  0.20898889  1
  Rh  Rh227  1  -0.00234786  0.40597372  0.00715189  1
  Rh  Rh228  1  0.39486091  0.40377897  0.19566471  1
  Rh  Rh229  1  0.20176557  0.00962082  -0.01089857  1
  Rh  Rh230  1  -0.00543470  0.78889338  0.39609792  1
  Rh  Rh231  1  0.19586785  0.20616149  -0.00350525  1
  Rh  Rh232  1  0.59131017  0.78983387  0.78917140  1
  Rh  Rh233  1  0.79967594  -0.00424449  0.40859857  1
  Rh  Rh234  1  0.40735595  0.79716680  0.40517957  1
  Rh  Rh235  1  0.60935391  0.60172010  0.61049724  1
  Rh  Rh236  1  0.20185048  0.21153283  0.20129268  1
  Rh  Rh237  1  0.79475230  -0.00534211  0.79965723  1
  Rh  Rh238  1  0.19298876  0.79261834  0.59882093  1
  Rh  Rh239  1  0.60178453  0.00365958  0.79773524  1
  Rh  Rh240  1  0.80259430  0.80603302  0.61110242  1
  Rh  Rh241  1  0.60740482  0.80303866  0.00750394  1
  Rh  Rh242  1  0.00249299  0.60637529  0.60086011  1
  Rh  Rh243  1  -0.00031377  0.40283945  0.39266002  1
  Rh  Rh244  1  0.19015773  0.80798024  0.39916738  1
  Rh  Rh245  1  -0.00255178  0.20208247  0.40005234  1
  Rh  Rh246  1  0.40348628  0.19963200  0.00432443  1
  Rh  Rh247  1  0.20056359  -0.00345807  0.59190376  1
  Rh  Rh248  1  0.59507895  0.60382759  -0.00273766  1
  Rh  Rh249  1  0.00516971  0.00553226  0.40434351  1
