# generated using pymatgen
data_ZrScNbPdRh
_symmetry_space_group_name_H-M   'P 1'
_cell_length_a   16.56001368
_cell_length_b   16.55947416
_cell_length_c   16.56397412
_cell_angle_alpha   90.00823916
_cell_angle_beta   90.00689098
_cell_angle_gamma   89.99417475
_symmetry_Int_Tables_number   1
_chemical_formula_structural   ZrScNbPdRh
_chemical_formula_sum   'Zr50 Sc50 Nb50 Pd50 Rh50'
_cell_volume   4542.25766346
_cell_formula_units_Z   50
loop_
 _symmetry_equiv_pos_site_id
 _symmetry_equiv_pos_as_xyz
  1  'x, y, z'
loop_
 _atom_site_type_symbol
 _atom_site_label
 _atom_site_symmetry_multiplicity
 _atom_site_fract_x
 _atom_site_fract_y
 _atom_site_fract_z
 _atom_site_occupancy
  Zr  Zr0  1  0.28964386  0.90914478  0.29758455  1
  Zr  Zr1  1  0.90209268  0.09769798  0.90240943  1
  Zr  Zr2  1  0.30306259  0.10682304  0.48855375  1
  Zr  Zr3  1  0.09526972  0.90138963  0.69871112  1
  Zr  Zr4  1  0.50008706  0.69901231  0.30419517  1
  Zr  Zr5  1  0.30814885  0.49938175  0.10084523  1
  Zr  Zr6  1  0.69841855  0.90065898  0.70128074  1
  Zr  Zr7  1  0.70346979  0.10537870  0.89826125  1
  Zr  Zr8  1  0.29546694  0.69761547  0.89924874  1
  Zr  Zr9  1  0.29646825  0.90040377  0.69792965  1
  Zr  Zr10  1  0.69279750  0.29601759  0.70703869  1
  Zr  Zr11  1  0.08576370  0.50115924  0.29849042  1
  Zr  Zr12  1  0.70778386  0.69999532  0.10003635  1
  Zr  Zr13  1  0.70669028  0.49214793  0.30376929  1
  Zr  Zr14  1  0.89863741  0.09617875  0.69503149  1
  Zr  Zr15  1  0.69495152  0.09649073  0.69587460  1
  Zr  Zr16  1  0.89873612  0.29949560  0.69731786  1
  Zr  Zr17  1  0.50858761  0.10380022  0.50367968  1
  Zr  Zr18  1  0.50966809  0.70692017  0.89876393  1
  Zr  Zr19  1  0.50044819  0.09274497  0.09359426  1
  Zr  Zr20  1  0.70878198  0.89486538  0.30611808  1
  Zr  Zr21  1  0.90280243  0.90445330  0.10781755  1
  Zr  Zr22  1  0.70753709  0.49814846  0.69984618  1
  Zr  Zr23  1  0.89479172  0.49450304  0.90573543  1
  Zr  Zr24  1  0.49153158  0.10086879  0.89827467  1
  Zr  Zr25  1  0.10689670  0.30602053  0.70382547  1
  Zr  Zr26  1  0.30052505  0.49459513  0.89916489  1
  Zr  Zr27  1  0.90725195  0.90650667  0.49254470  1
  Zr  Zr28  1  0.09586607  0.29639241  0.50119999  1
  Zr  Zr29  1  0.90333003  0.29518921  0.10224589  1
  Zr  Zr30  1  0.49086379  0.30214021  0.49631238  1
  Zr  Zr31  1  0.91817439  0.90295643  0.89641808  1
  Zr  Zr32  1  0.29941601  0.69728665  0.70093367  1
  Zr  Zr33  1  0.90229692  0.89589718  0.69943661  1
  Zr  Zr34  1  0.50105382  0.11057636  0.70349574  1
  Zr  Zr35  1  0.90051250  0.10200065  0.09845533  1
  Zr  Zr36  1  0.70113092  0.89890521  0.10094961  1
  Zr  Zr37  1  0.50455559  0.90357877  0.09483351  1
  Zr  Zr38  1  0.29736551  0.89977654  0.50164532  1
  Zr  Zr39  1  0.69521188  0.70149700  0.49513574  1
  Zr  Zr40  1  0.09986385  0.09966040  0.69375281  1
  Zr  Zr41  1  0.10248679  0.50164769  0.50780822  1
  Zr  Zr42  1  0.70047425  0.49693791  0.90416402  1
  Zr  Zr43  1  0.49519357  0.70027310  0.50570575  1
  Zr  Zr44  1  0.28829458  0.49969167  0.69667316  1
  Zr  Zr45  1  0.89972686  0.29650768  0.90842035  1
  Zr  Zr46  1  0.29716539  0.09854454  0.29463870  1
  Zr  Zr47  1  0.29970409  0.30026593  0.89733215  1
  Zr  Zr48  1  0.90116745  0.28917770  0.49720822  1
  Zr  Zr49  1  0.29970527  0.69579835  0.29497764  1
  Sc  Sc50  1  0.89547555  0.49898029  0.49413390  1
  Sc  Sc51  1  0.70663750  0.90056577  0.49971612  1
  Sc  Sc52  1  0.08886485  0.09780063  0.49575430  1
  Sc  Sc53  1  0.10191226  0.09750558  0.29649664  1
  Sc  Sc54  1  0.50796118  0.30817446  0.10685645  1
  Sc  Sc55  1  0.90347703  0.09696212  0.29904153  1
  Sc  Sc56  1  0.28837522  0.90871249  0.90151536  1
  Sc  Sc57  1  0.10282378  0.69766449  0.69555241  1
  Sc  Sc58  1  0.10527295  0.30257766  0.90703261  1
  Sc  Sc59  1  0.90347161  0.50108924  0.10093318  1
  Sc  Sc60  1  0.30245311  0.10230955  0.89941045  1
  Sc  Sc61  1  0.30724782  0.30762702  0.70263717  1
  Sc  Sc62  1  0.71000560  0.10115314  0.49582389  1
  Sc  Sc63  1  0.70771957  0.09472479  0.10096246  1
  Sc  Sc64  1  0.50168226  0.90559595  0.29971965  1
  Sc  Sc65  1  0.08800305  0.29300556  0.29731574  1
  Sc  Sc66  1  0.50024499  0.49381646  0.10462385  1
  Sc  Sc67  1  0.30005145  0.69765352  0.51052692  1
  Sc  Sc68  1  0.09693340  0.49020165  0.90377980  1
  Sc  Sc69  1  0.31834022  0.49844903  0.29825757  1
  Sc  Sc70  1  0.71104996  0.70106002  0.70264267  1
  Sc  Sc71  1  0.50391617  0.10250282  0.30189863  1
  Sc  Sc72  1  0.09017207  0.69832540  0.50411839  1
  Sc  Sc73  1  0.29784646  0.30236827  0.09497109  1
  Sc  Sc74  1  0.29272578  0.91169175  0.09610369  1
  Sc  Sc75  1  0.89866093  0.70288678  0.90170970  1
  Sc  Sc76  1  0.70515380  0.10961016  0.30179540  1
  Sc  Sc77  1  0.69907733  0.30608250  0.90496332  1
  Sc  Sc78  1  0.29493203  0.09974818  0.09503582  1
  Sc  Sc79  1  0.71523894  0.69843674  0.30392575  1
  Sc  Sc80  1  0.50055446  0.49537961  0.90708005  1
  Sc  Sc81  1  0.89578066  0.30002085  0.29810605  1
  Sc  Sc82  1  0.89574057  0.50539101  0.29806527  1
  Sc  Sc83  1  0.70404592  0.29829951  0.48411083  1
  Sc  Sc84  1  0.50179286  0.89799119  0.50280297  1
  Sc  Sc85  1  0.70717287  0.49629833  0.09654891  1
  Sc  Sc86  1  0.89905741  0.69502057  0.10204556  1
  Sc  Sc87  1  0.50225670  0.90710273  0.90252528  1
  Sc  Sc88  1  0.70259428  0.70321353  0.90617143  1
  Sc  Sc89  1  0.49282543  0.69727708  0.69490122  1
  Sc  Sc90  1  0.50391988  0.90854825  0.70544603  1
  Sc  Sc91  1  0.50040528  0.30138731  0.88946088  1
  Sc  Sc92  1  0.10205568  0.09534654  0.90273793  1
  Sc  Sc93  1  0.70818565  0.50210345  0.50024402  1
  Sc  Sc94  1  0.09487429  0.71066308  0.90101271  1
  Sc  Sc95  1  0.30194802  0.29633264  0.30299777  1
  Sc  Sc96  1  0.69210627  0.89330092  0.90237154  1
  Sc  Sc97  1  0.50033489  0.69080884  0.09608341  1
  Sc  Sc98  1  0.48821636  0.50171092  0.69764191  1
  Sc  Sc99  1  0.89853415  0.70228101  0.50274629  1
  Nb  Nb100  1  0.90868105  0.70551069  0.29417309  1
  Nb  Nb101  1  0.09772245  0.10262509  0.10684421  1
  Nb  Nb102  1  0.90240193  0.10268805  0.49667897  1
  Nb  Nb103  1  0.09857200  0.49803017  0.10038702  1
  Nb  Nb104  1  0.09502171  0.90323265  0.90629088  1
  Nb  Nb105  1  0.09794937  0.49914976  0.69917422  1
  Nb  Nb106  1  0.70205355  0.29563799  0.10586540  1
  Nb  Nb107  1  0.30057592  0.09782227  0.70095854  1
  Nb  Nb108  1  0.89703524  0.49921039  0.70316598  1
  Nb  Nb109  1  0.90948492  0.89527491  0.29910186  1
  Nb  Nb110  1  0.09915284  0.69676935  0.10362420  1
  Nb  Nb111  1  0.09520902  0.70065516  0.29677457  1
  Nb  Nb112  1  0.08665099  0.89442702  0.29678161  1
  Nb  Nb113  1  0.09497250  0.89722567  0.49576827  1
  Nb  Nb114  1  0.50229363  0.49361044  0.29975536  1
  Nb  Nb115  1  0.50260390  0.30101463  0.69655585  1
  Nb  Nb116  1  0.90602019  0.70182261  0.70475496  1
  Nb  Nb117  1  0.09830625  0.90274330  0.09542137  1
  Nb  Nb118  1  0.29832579  0.69933588  0.10184945  1
  Nb  Nb119  1  0.49197151  0.49754950  0.49700365  1
  Nb  Nb120  1  0.69299860  0.29801781  0.29291401  1
  Nb  Nb121  1  0.29777749  0.30687716  0.50047816  1
  Nb  Nb122  1  0.30262098  0.48846592  0.49981088  1
  Nb  Nb123  1  0.09724178  0.30566395  0.10345902  1
  Nb  Nb124  1  0.51240815  0.30910934  0.29640073  1
  Nb  Nb125  1  0.39398571  0.79910062  0.00138090  1
  Nb  Nb126  1  -0.00506329  0.59332610  0.79319131  1
  Nb  Nb127  1  0.59356820  0.59202012  0.39986854  1
  Nb  Nb128  1  0.20019152  0.40445014  0.39810229  1
  Nb  Nb129  1  0.39699390  0.80144628  0.19594141  1
  Nb  Nb130  1  -0.00064520  0.19972828  0.79861000  1
  Nb  Nb131  1  0.20732786  0.20046273  0.59768826  1
  Nb  Nb132  1  0.60362432  0.59812531  0.79857962  1
  Nb  Nb133  1  0.19730225  0.60076985  0.00853372  1
  Nb  Nb134  1  0.19471584  0.59854060  0.19940820  1
  Nb  Nb135  1  0.60309846  0.79807654  0.60192851  1
  Nb  Nb136  1  0.40473463  0.20106232  0.19952112  1
  Nb  Nb137  1  0.60565966  0.00014326  0.40148544  1
  Nb  Nb138  1  -0.00302650  0.40477699  0.60659327  1
  Nb  Nb139  1  0.60323378  0.59731015  0.20930628  1
  Nb  Nb140  1  0.60012518  0.79523126  0.20199793  1
  Nb  Nb141  1  0.39582557  0.80137462  0.80511764  1
  Nb  Nb142  1  0.19242789  0.79698140  0.39400480  1
  Nb  Nb143  1  0.19276449  0.79856433  0.19751943  1
  Nb  Nb144  1  0.19935074  0.59711891  0.39598674  1
  Nb  Nb145  1  0.60148358  0.20060999  0.00318418  1
  Nb  Nb146  1  0.39082519  0.80195766  0.39386333  1
  Nb  Nb147  1  0.39673793  0.00925675  0.60249883  1
  Nb  Nb148  1  0.59493098  0.39937836  0.59780974  1
  Nb  Nb149  1  0.19455602  0.40520001  0.20262034  1
  Pd  Pd150  1  0.79134029  0.20235326  0.59858042  1
  Pd  Pd151  1  0.81302572  0.79753571  0.40144144  1
  Pd  Pd152  1  0.59274176  0.41020206  0.79210935  1
  Pd  Pd153  1  0.81029130  0.80747518  -0.00133994  1
  Pd  Pd154  1  0.80308272  -0.00136781  0.59431353  1
  Pd  Pd155  1  0.59584205  0.19273126  0.19207534  1
  Pd  Pd156  1  0.60265500  0.40423970  0.40871679  1
  Pd  Pd157  1  0.39179960  0.20027796  0.60418238  1
  Pd  Pd158  1  0.60327089  0.59590144  0.00295962  1
  Pd  Pd159  1  0.41005701  -0.00385350  0.40598886  1
  Pd  Pd160  1  0.20116366  0.00948099  0.58832945  1
  Pd  Pd161  1  0.18690037  -0.00276804  0.40216574  1
  Pd  Pd162  1  0.60936137  0.21083406  0.58901456  1
  Pd  Pd163  1  -0.01043596  0.59542296  0.60538451  1
  Pd  Pd164  1  0.79949017  0.39289636  0.80421876  1
  Pd  Pd165  1  -0.00527953  0.79688403  0.00843958  1
  Pd  Pd166  1  0.60088197  0.59683602  0.60138519  1
  Pd  Pd167  1  0.40826304  0.60194505  0.80558661  1
  Pd  Pd168  1  0.80014627  0.00190386  0.20936734  1
  Pd  Pd169  1  0.60060219  0.00389233  0.80658361  1
  Pd  Pd170  1  0.20147428  0.79946178  0.00512598  1
  Pd  Pd171  1  0.19884360  0.19814785  0.79584971  1
  Pd  Pd172  1  0.01121909  0.19809233  -0.00363082  1
  Pd  Pd173  1  0.40777159  0.39046453  -0.00013431  1
  Pd  Pd174  1  0.80209947  0.80462611  0.80806859  1
  Pd  Pd175  1  0.80059271  0.60434800  0.80767376  1
  Pd  Pd176  1  0.80553332  0.60450251  0.59784666  1
  Pd  Pd177  1  0.39896512  0.60330448  -0.00328637  1
  Pd  Pd178  1  -0.00364157  0.60549649  0.40195461  1
  Pd  Pd179  1  0.00414482  0.60016263  -0.00858786  1
  Pd  Pd180  1  0.19503180  0.00111875  0.80332434  1
  Pd  Pd181  1  0.19079253  0.79555449  0.59315621  1
  Pd  Pd182  1  0.80452337  0.20220129  0.79992545  1
  Pd  Pd183  1  0.19364968  0.20592366  0.40054925  1
  Pd  Pd184  1  0.79775688  0.39338512  0.59334159  1
  Pd  Pd185  1  0.61006221  -0.00292174  0.21098183  1
  Pd  Pd186  1  -0.00068509  0.39782541  0.80038731  1
  Pd  Pd187  1  0.39687539  0.60279900  0.40689822  1
  Pd  Pd188  1  0.19478911  0.19718371  0.00341036  1
  Pd  Pd189  1  0.20513042  0.20970627  0.19701009  1
  Pd  Pd190  1  0.39891674  0.00288248  0.19619440  1
  Pd  Pd191  1  0.40791582  0.20616976  0.38838482  1
  Pd  Pd192  1  0.79866381  -0.00752082  0.80587933  1
  Pd  Pd193  1  0.79930451  -0.00925921  -0.00766410  1
  Pd  Pd194  1  0.19696540  0.80437152  0.80046744  1
  Pd  Pd195  1  0.80277002  0.39805266  0.19787722  1
  Pd  Pd196  1  0.18357100  0.59582921  0.81090280  1
  Pd  Pd197  1  0.40841748  0.20930513  0.00790796  1
  Pd  Pd198  1  -0.00229959  0.39860906  0.40572252  1
  Pd  Pd199  1  0.79933535  0.80002179  0.59813397  1
  Rh  Rh200  1  0.59870872  -0.00568039  0.59208749  1
  Rh  Rh201  1  0.60263044  0.39164535  0.00556996  1
  Rh  Rh202  1  0.00012710  0.00262753  0.39389695  1
  Rh  Rh203  1  0.80270845  0.59914428  -0.00082076  1
  Rh  Rh204  1  0.80213534  0.39380379  0.00866110  1
  Rh  Rh205  1  0.59945152  0.19719178  0.39841436  1
  Rh  Rh206  1  0.00330775  0.00273990  0.19901288  1
  Rh  Rh207  1  0.80312496  0.60467565  0.39975101  1
  Rh  Rh208  1  0.20366960  0.59940121  0.59378784  1
  Rh  Rh209  1  -0.00474318  0.60071797  0.19749352  1
  Rh  Rh210  1  0.80201532  0.79983195  0.20066530  1
  Rh  Rh211  1  0.39582015  0.38777898  0.20638541  1
  Rh  Rh212  1  -0.00118509  0.39935380  0.19763650  1
  Rh  Rh213  1  0.59420065  0.78906217  0.78556997  1
  Rh  Rh214  1  0.40063452  0.40157913  0.79696518  1
  Rh  Rh215  1  -0.00353055  0.19342521  0.39364526  1
  Rh  Rh216  1  0.00700371  0.79396536  0.79590310  1
  Rh  Rh217  1  0.39239168  -0.00644936  -0.00568425  1
  Rh  Rh218  1  0.40331779  0.40179518  0.60381107  1
  Rh  Rh219  1  0.59011751  0.80041667  0.40367816  1
  Rh  Rh220  1  0.00029914  0.79494269  0.40395447  1
  Rh  Rh221  1  0.00492530  0.00550679  0.00871914  1
  Rh  Rh222  1  0.38985269  0.58911829  0.59716782  1
  Rh  Rh223  1  0.79203651  0.20326681  0.00616015  1
  Rh  Rh224  1  0.60873004  0.01103577  -0.00720977  1
  Rh  Rh225  1  0.40870872  0.81531711  0.61059050  1
  Rh  Rh226  1  0.39718355  0.39383396  0.39202998  1
  Rh  Rh227  1  0.59857495  0.19914981  0.80873162  1
  Rh  Rh228  1  0.80270446  0.00229900  0.39698286  1
  Rh  Rh229  1  -0.00173933  0.19642884  0.19971922  1
  Rh  Rh230  1  0.20023698  0.40507993  0.00755952  1
  Rh  Rh231  1  0.80041084  0.60066987  0.20226763  1
  Rh  Rh232  1  -0.00356121  -0.00326458  0.59649265  1
  Rh  Rh233  1  0.39599814  -0.00440271  0.79507839  1
  Rh  Rh234  1  0.19295409  0.00765307  0.00164075  1
  Rh  Rh235  1  0.00675169  0.20571082  0.60782372  1
  Rh  Rh236  1  0.80206237  0.20055332  0.20202107  1
  Rh  Rh237  1  0.19473935  0.39362934  0.59555586  1
  Rh  Rh238  1  -0.00007803  0.79928451  0.19086010  1
  Rh  Rh239  1  0.40886440  0.60005420  0.19530845  1
  Rh  Rh240  1  0.80305766  0.39355144  0.39591335  1
  Rh  Rh241  1  0.80571456  0.20053473  0.39125800  1
  Rh  Rh242  1  -0.00049389  0.80216469  0.60048341  1
  Rh  Rh243  1  0.20125088  0.40408615  0.80466720  1
  Rh  Rh244  1  0.61050381  0.41011015  0.19608196  1
  Rh  Rh245  1  0.18752178  -0.00357371  0.19426187  1
  Rh  Rh246  1  0.39681935  0.20436031  0.79511510  1
  Rh  Rh247  1  0.00638033  0.00726121  0.79730115  1
  Rh  Rh248  1  -0.00230711  0.39825894  0.00562900  1
  Rh  Rh249  1  0.59552280  0.79732430  0.01145601  1
