# generated using pymatgen
data_ZrScNbPdRh
_symmetry_space_group_name_H-M   'P 1'
_cell_length_a   16.55904730
_cell_length_b   16.55264704
_cell_length_c   16.56023872
_cell_angle_alpha   90.02055702
_cell_angle_beta   89.99843515
_cell_angle_gamma   90.01120203
_symmetry_Int_Tables_number   1
_chemical_formula_structural   ZrScNbPdRh
_chemical_formula_sum   'Zr50 Sc50 Nb50 Pd50 Rh50'
_cell_volume   4539.09588913
_cell_formula_units_Z   50
loop_
 _symmetry_equiv_pos_site_id
 _symmetry_equiv_pos_as_xyz
  1  'x, y, z'
loop_
 _atom_site_type_symbol
 _atom_site_label
 _atom_site_symmetry_multiplicity
 _atom_site_fract_x
 _atom_site_fract_y
 _atom_site_fract_z
 _atom_site_occupancy
  Zr  Zr0  1  0.30915602  0.89188616  0.29865039  1
  Zr  Zr1  1  0.70260154  0.30862953  0.49607497  1
  Zr  Zr2  1  0.70671018  0.09460562  0.48720747  1
  Zr  Zr3  1  0.89414543  0.09976192  0.90067411  1
  Zr  Zr4  1  0.50101490  0.89926108  0.49646106  1
  Zr  Zr5  1  0.70556266  0.69122075  0.90427755  1
  Zr  Zr6  1  0.28857478  0.49248194  0.30645964  1
  Zr  Zr7  1  0.90126686  0.29596676  0.90748130  1
  Zr  Zr8  1  0.09940570  0.31338937  0.30105119  1
  Zr  Zr9  1  0.49676198  0.89755699  0.89873424  1
  Zr  Zr10  1  0.29607608  0.69217485  0.70270511  1
  Zr  Zr11  1  0.50838584  0.89811097  0.70792861  1
  Zr  Zr12  1  0.89650023  0.30085014  0.09915875  1
  Zr  Zr13  1  0.70728681  0.49857948  0.69716199  1
  Zr  Zr14  1  0.90098859  0.49976415  0.09807114  1
  Zr  Zr15  1  0.29290646  0.10355997  0.70119942  1
  Zr  Zr16  1  0.89424710  0.89239298  0.10156531  1
  Zr  Zr17  1  0.29894881  0.30580789  0.10684804  1
  Zr  Zr18  1  0.49940175  0.69943761  0.89341617  1
  Zr  Zr19  1  0.50432460  0.09317293  0.30305653  1
  Zr  Zr20  1  0.69419592  0.50782337  0.09090059  1
  Zr  Zr21  1  0.90150012  0.29880822  0.30167898  1
  Zr  Zr22  1  0.49439466  0.70257817  0.30203744  1
  Zr  Zr23  1  0.10377586  0.49956513  0.49451561  1
  Zr  Zr24  1  0.51138959  0.89570530  0.09016900  1
  Zr  Zr25  1  0.49574715  0.49858027  0.71244023  1
  Zr  Zr26  1  0.69708754  0.30819686  0.70027977  1
  Zr  Zr27  1  0.10254791  0.09019963  0.10342111  1
  Zr  Zr28  1  0.49759194  0.30434884  0.49933798  1
  Zr  Zr29  1  0.10694291  0.90307606  0.69938481  1
  Zr  Zr30  1  0.69415762  0.49699894  0.89857435  1
  Zr  Zr31  1  0.69947453  0.69461906  0.49827941  1
  Zr  Zr32  1  0.69832859  0.71122841  0.10301051  1
  Zr  Zr33  1  0.10434488  0.50893292  0.70596601  1
  Zr  Zr34  1  0.70661160  0.70075001  0.69647811  1
  Zr  Zr35  1  0.49747626  0.09081521  0.49965895  1
  Zr  Zr36  1  0.90107944  0.70823958  0.29124924  1
  Zr  Zr37  1  0.49549185  0.50038342  0.49061699  1
  Zr  Zr38  1  0.30051183  0.10035654  0.28837781  1
  Zr  Zr39  1  0.29897884  0.49884540  0.09401272  1
  Zr  Zr40  1  0.89057111  0.89606813  0.70011561  1
  Zr  Zr41  1  0.09506020  0.09495990  0.29395586  1
  Zr  Zr42  1  0.10645014  0.69338410  0.50505979  1
  Zr  Zr43  1  0.50294665  0.69629492  0.49733467  1
  Zr  Zr44  1  0.90037718  0.91176110  0.49542299  1
  Zr  Zr45  1  0.29901477  0.50189625  0.49426712  1
  Zr  Zr46  1  0.49069402  0.29756026  0.70078641  1
  Zr  Zr47  1  0.69661203  0.49856317  0.49468956  1
  Zr  Zr48  1  0.29975059  0.29332929  0.70404572  1
  Zr  Zr49  1  0.49986697  0.31100531  0.89760627  1
  Sc  Sc50  1  0.10482513  0.69735047  0.91552633  1
  Sc  Sc51  1  0.50314768  0.89425806  0.31009797  1
  Sc  Sc52  1  0.29386623  0.10476369  0.09724390  1
  Sc  Sc53  1  0.30049241  0.09863062  0.89669294  1
  Sc  Sc54  1  0.90030476  0.09250475  0.31572197  1
  Sc  Sc55  1  0.88842327  0.89358656  0.90773468  1
  Sc  Sc56  1  0.90016008  0.69578493  0.50375072  1
  Sc  Sc57  1  0.50204585  0.50443773  0.29312055  1
  Sc  Sc58  1  0.90443949  0.29723876  0.71058317  1
  Sc  Sc59  1  0.70885679  0.30241279  0.90073533  1
  Sc  Sc60  1  0.11774245  0.89272508  0.90277450  1
  Sc  Sc61  1  0.90201787  0.10119424  0.09498782  1
  Sc  Sc62  1  0.30618049  0.90247721  0.50321629  1
  Sc  Sc63  1  0.70426637  0.09847031  0.90580735  1
  Sc  Sc64  1  0.69765767  0.30865919  0.29969101  1
  Sc  Sc65  1  0.89535328  0.49565728  0.90685506  1
  Sc  Sc66  1  0.50733053  0.11326450  0.09804687  1
  Sc  Sc67  1  0.29898196  0.89844158  0.09377163  1
  Sc  Sc68  1  0.89376275  0.49742037  0.49615231  1
  Sc  Sc69  1  0.09867264  0.90304917  0.50068003  1
  Sc  Sc70  1  0.69672750  0.89088199  0.30026213  1
  Sc  Sc71  1  0.90444764  0.29916285  0.49309476  1
  Sc  Sc72  1  0.50062101  0.30944928  0.28720782  1
  Sc  Sc73  1  0.29431495  0.50888442  0.90167637  1
  Sc  Sc74  1  0.49131914  0.09696019  0.70197130  1
  Sc  Sc75  1  0.49744778  0.09712809  0.89606708  1
  Sc  Sc76  1  0.70012482  0.89860194  0.70793777  1
  Sc  Sc77  1  0.09576393  0.70944056  0.29286919  1
  Sc  Sc78  1  0.30195709  0.09779046  0.50888738  1
  Sc  Sc79  1  0.09870263  0.30281404  0.89675821  1
  Sc  Sc80  1  0.29061579  0.29893634  0.90142751  1
  Sc  Sc81  1  0.30181602  0.70275227  0.10558654  1
  Sc  Sc82  1  0.08749784  0.90241654  0.29194605  1
  Sc  Sc83  1  0.11039415  0.10482646  0.90040481  1
  Sc  Sc84  1  0.90216547  0.09731804  0.70087479  1
  Sc  Sc85  1  0.30353623  0.69044685  0.49619707  1
  Sc  Sc86  1  0.68840031  0.69694703  0.29847974  1
  Sc  Sc87  1  0.30295456  0.30402006  0.50335928  1
  Sc  Sc88  1  0.10468962  0.10539665  0.69850571  1
  Sc  Sc89  1  0.69707690  0.49912698  0.30141699  1
  Sc  Sc90  1  0.70116824  0.08921011  0.71017875  1
  Sc  Sc91  1  0.50561050  0.68767465  0.10647066  1
  Sc  Sc92  1  0.69004064  0.30066282  0.09962420  1
  Sc  Sc93  1  0.09639468  0.29310615  0.50365102  1
  Sc  Sc94  1  0.90353578  0.48841291  0.29558761  1
  Sc  Sc95  1  0.70048010  0.89710612  0.50703027  1
  Sc  Sc96  1  0.90371852  0.70569150  0.09028470  1
  Sc  Sc97  1  0.09465356  0.10039111  0.51086590  1
  Sc  Sc98  1  0.29432873  0.89884881  0.70782893  1
  Sc  Sc99  1  0.10236375  0.29838145  0.09453349  1
  Nb  Nb100  1  0.30828037  0.89046188  0.89995092  1
  Nb  Nb101  1  0.29623119  0.49892248  0.70067225  1
  Nb  Nb102  1  0.09798987  0.70204274  0.10269407  1
  Nb  Nb103  1  0.29623277  0.30112101  0.30047278  1
  Nb  Nb104  1  0.10315431  0.50284462  0.90992132  1
  Nb  Nb105  1  0.70062035  0.10039021  0.29961504  1
  Nb  Nb106  1  0.09612015  0.89350997  0.09877625  1
  Nb  Nb107  1  0.30502329  0.71598069  0.89953564  1
  Nb  Nb108  1  0.10058110  0.30053341  0.69717587  1
  Nb  Nb109  1  0.69346826  0.90332245  0.91294868  1
  Nb  Nb110  1  0.90090222  0.69879223  0.70295613  1
  Nb  Nb111  1  0.50180832  0.50031303  0.91305698  1
  Nb  Nb112  1  0.90108928  0.70154919  0.89495821  1
  Nb  Nb113  1  0.89618878  0.10500705  0.50171275  1
  Nb  Nb114  1  0.70231083  0.90193357  0.09389172  1
  Nb  Nb115  1  0.90785936  0.50712037  0.69646968  1
  Nb  Nb116  1  0.09497709  0.69865770  0.69451700  1
  Nb  Nb117  1  0.29759165  0.70106939  0.29853832  1
  Nb  Nb118  1  0.49950906  0.49136504  0.08857467  1
  Nb  Nb119  1  0.70337266  0.10003708  0.10177901  1
  Nb  Nb120  1  0.90091579  0.90027522  0.29985537  1
  Nb  Nb121  1  0.10118332  0.50105995  0.30046287  1
  Nb  Nb122  1  0.50026476  0.70102269  0.70107143  1
  Nb  Nb123  1  0.49544807  0.31306716  0.09293588  1
  Nb  Nb124  1  0.10476117  0.51345246  0.09215502  1
  Nb  Nb125  1  0.00494429  -0.00771343  -0.00263456  1
  Nb  Nb126  1  0.59915622  0.20498383  0.79498465  1
  Nb  Nb127  1  0.20172904  0.80317497  0.39544743  1
  Nb  Nb128  1  0.20050669  0.00116160  0.39506308  1
  Nb  Nb129  1  0.00016220  0.60428125  0.80151906  1
  Nb  Nb130  1  0.00411876  0.59832015  0.39354579  1
  Nb  Nb131  1  0.19307408  0.59951168  0.19919417  1
  Nb  Nb132  1  0.79524525  -0.00006948  0.20017977  1
  Nb  Nb133  1  0.00061684  0.79547868  0.79914113  1
  Nb  Nb134  1  0.40953040  -0.00133085  0.19517482  1
  Nb  Nb135  1  0.00223560  -0.00875087  0.80733157  1
  Nb  Nb136  1  0.19749258  0.40286636  0.60896594  1
  Nb  Nb137  1  -0.00124011  0.79722210  0.60817668  1
  Nb  Nb138  1  0.00501383  0.40454518  0.60884857  1
  Nb  Nb139  1  0.20481304  0.19801331  0.39397380  1
  Nb  Nb140  1  0.60440564  0.19818021  0.59798752  1
  Nb  Nb141  1  0.39874285  0.20192836  0.39271682  1
  Nb  Nb142  1  0.79552920  0.19271150  0.20391511  1
  Nb  Nb143  1  0.80576404  0.79929945  0.39861772  1
  Nb  Nb144  1  0.60602715  0.00053060  0.19540783  1
  Nb  Nb145  1  0.40659461  0.79326305  0.60734131  1
  Nb  Nb146  1  0.79725602  0.19822849  0.59559240  1
  Nb  Nb147  1  0.80092401  0.60118594  0.19496122  1
  Nb  Nb148  1  0.59748114  0.20013657  0.40134760  1
  Nb  Nb149  1  0.40245639  0.21148639  0.00271318  1
  Pd  Pd150  1  0.19510139  0.60988278  0.81091432  1
  Pd  Pd151  1  0.20042014  0.40026928  0.80184395  1
  Pd  Pd152  1  0.80323582  0.59825522  0.59665762  1
  Pd  Pd153  1  0.59790362  0.79970703  0.59966171  1
  Pd  Pd154  1  0.59809139  0.20448921  -0.01076836  1
  Pd  Pd155  1  0.79366063  0.19874081  0.79249097  1
  Pd  Pd156  1  0.60248307  0.20208803  0.20536323  1
  Pd  Pd157  1  0.59678453  0.01042166  -0.00041121  1
  Pd  Pd158  1  -0.00787512  0.19557772  0.20104228  1
  Pd  Pd159  1  0.80737146  0.59160281  0.80211661  1
  Pd  Pd160  1  0.79618452  0.00589063  0.60323017  1
  Pd  Pd161  1  0.39720313  -0.01089367  0.61302224  1
  Pd  Pd162  1  0.39848964  0.41022379  0.20381686  1
  Pd  Pd163  1  0.39648656  0.59761800  0.80700317  1
  Pd  Pd164  1  0.20162822  -0.00276734  -0.00400593  1
  Pd  Pd165  1  0.78975095  0.40203719  0.19595679  1
  Pd  Pd166  1  0.01026209  0.40285999  0.18751149  1
  Pd  Pd167  1  0.79416827  0.80297817  0.80748667  1
  Pd  Pd168  1  0.00194930  0.79467769  0.41012046  1
  Pd  Pd169  1  0.00743244  0.19143860  -0.00125927  1
  Pd  Pd170  1  -0.00074492  -0.00223303  0.60820237  1
  Pd  Pd171  1  0.19063563  0.20726844  0.20213872  1
  Pd  Pd172  1  0.39012281  0.59187635  0.20340579  1
  Pd  Pd173  1  0.20740746  -0.01467071  0.20153865  1
  Pd  Pd174  1  0.81658146  0.39244538  0.60198980  1
  Pd  Pd175  1  0.81008343  0.40415795  0.80019494  1
  Pd  Pd176  1  0.00562091  0.19078288  0.80087894  1
  Pd  Pd177  1  0.80846402  0.60309976  0.38643138  1
  Pd  Pd178  1  0.39730346  0.60780007  -0.00317288  1
  Pd  Pd179  1  0.40663516  0.19912507  0.19694653  1
  Pd  Pd180  1  0.40997584  0.80509346  0.19180469  1
  Pd  Pd181  1  0.61109024  0.79707524  0.80735947  1
  Pd  Pd182  1  0.40797645  0.78914091  0.00965285  1
  Pd  Pd183  1  -0.00639906  0.60262295  -0.00743955  1
  Pd  Pd184  1  0.39326056  -0.00266590  0.79703160  1
  Pd  Pd185  1  0.00852681  0.19390603  0.40123162  1
  Pd  Pd186  1  0.60514731  0.00449117  0.60321104  1
  Pd  Pd187  1  0.59204667  0.40561398  0.60209755  1
  Pd  Pd188  1  -0.00073249  0.40901327  0.80184769  1
  Pd  Pd189  1  0.20576073  0.80084402  0.59172870  1
  Pd  Pd190  1  0.59591045  0.59149789  0.60609555  1
  Pd  Pd191  1  0.38855109  0.40619480  0.81098705  1
  Pd  Pd192  1  0.00727759  0.40103594  0.00371450  1
  Pd  Pd193  1  0.40072814  0.59977666  0.60331667  1
  Pd  Pd194  1  0.40009831  0.01067824  0.00699125  1
  Pd  Pd195  1  0.39321557  0.40684456  0.60218664  1
  Pd  Pd196  1  0.60209790  0.59878545  0.79601019  1
  Pd  Pd197  1  0.20399054  0.79532014  0.00851692  1
  Pd  Pd198  1  -0.00138605  0.59984269  0.20341521  1
  Pd  Pd199  1  0.19395354  0.78999870  0.80029619  1
  Rh  Rh200  1  0.79545131  0.39740705  0.00380838  1
  Rh  Rh201  1  0.60707358  0.39522820  -0.00157577  1
  Rh  Rh202  1  0.80539457  0.79634328  0.59123572  1
  Rh  Rh203  1  -0.01266864  0.20773115  0.60388131  1
  Rh  Rh204  1  0.79455132  0.20836019  0.39760932  1
  Rh  Rh205  1  0.59563558  0.80685885  0.19932248  1
  Rh  Rh206  1  0.20771123  0.59333856  0.60162957  1
  Rh  Rh207  1  0.80253160  -0.00584557  0.80959798  1
  Rh  Rh208  1  0.39267388  0.79217488  0.41232456  1
  Rh  Rh209  1  0.60870623  0.79823373  0.40643537  1
  Rh  Rh210  1  0.19579180  0.40077304  -0.00116438  1
  Rh  Rh211  1  0.19534199  0.20142586  0.79969923  1
  Rh  Rh212  1  0.79513685  0.80058574  0.20634930  1
  Rh  Rh213  1  0.59920736  0.79071230  -0.00661837  1
  Rh  Rh214  1  0.79600106  0.20467892  0.00939294  1
  Rh  Rh215  1  0.79579547  -0.01383188  0.39095897  1
  Rh  Rh216  1  0.00773357  0.00590844  0.40580846  1
  Rh  Rh217  1  0.79389044  0.79464241  -0.00584053  1
  Rh  Rh218  1  0.20103201  0.00189058  0.59452359  1
  Rh  Rh219  1  0.80330685  0.40155727  0.39493030  1
  Rh  Rh220  1  0.00394735  0.80459515  -0.00589467  1
  Rh  Rh221  1  0.39828882  0.80085527  0.79180801  1
  Rh  Rh222  1  0.40184430  0.39621758  0.39032598  1
  Rh  Rh223  1  -0.00027521  0.80371884  0.19233472  1
  Rh  Rh224  1  0.40444763  0.20160238  0.81238608  1
  Rh  Rh225  1  0.60933808  -0.00497338  0.39614280  1
  Rh  Rh226  1  0.60234540  0.00382731  0.80889345  1
  Rh  Rh227  1  0.20415542  0.20762654  0.59414594  1
  Rh  Rh228  1  0.59455535  0.60561493  -0.00089519  1
  Rh  Rh229  1  0.60007399  0.40849957  0.19242038  1
  Rh  Rh230  1  -0.01334089  -0.00333960  0.18823244  1
  Rh  Rh231  1  -0.00482431  0.59847253  0.59515956  1
  Rh  Rh232  1  0.38967728  0.39877464  -0.00681995  1
  Rh  Rh233  1  0.59904870  0.40102534  0.80131872  1
  Rh  Rh234  1  0.40446386  0.19645135  0.59050973  1
  Rh  Rh235  1  0.19272076  0.40836322  0.19039515  1
  Rh  Rh236  1  0.60461088  0.59437808  0.19687526  1
  Rh  Rh237  1  0.80606819  0.00141627  0.00418372  1
  Rh  Rh238  1  0.38769853  0.00697453  0.39029462  1
  Rh  Rh239  1  0.00009640  0.40700492  0.40800792  1
  Rh  Rh240  1  0.20977753  0.61140775  0.00469521  1
  Rh  Rh241  1  0.19152809  0.61417859  0.38469739  1
  Rh  Rh242  1  0.59393606  0.39906479  0.39470625  1
  Rh  Rh243  1  0.80591587  0.60534730  0.00590132  1
  Rh  Rh244  1  0.39915114  0.59866372  0.38909113  1
  Rh  Rh245  1  0.20053189  0.00029298  0.80671581  1
  Rh  Rh246  1  0.19520116  0.79866420  0.20022857  1
  Rh  Rh247  1  0.59592055  0.59774151  0.39598945  1
  Rh  Rh248  1  0.19656305  0.38605793  0.41372694  1
  Rh  Rh249  1  0.20520621  0.20234738  0.00146737  1
