# generated using pymatgen
data_ZrScNbPdRh
_symmetry_space_group_name_H-M   'P 1'
_cell_length_a   16.56348056
_cell_length_b   16.55890658
_cell_length_c   16.55933493
_cell_angle_alpha   90.00775648
_cell_angle_beta   89.96106165
_cell_angle_gamma   89.98921681
_symmetry_Int_Tables_number   1
_chemical_formula_structural   ZrScNbPdRh
_chemical_formula_sum   'Zr50 Sc50 Nb50 Pd50 Rh50'
_cell_volume   4541.77940466
_cell_formula_units_Z   50
loop_
 _symmetry_equiv_pos_site_id
 _symmetry_equiv_pos_as_xyz
  1  'x, y, z'
loop_
 _atom_site_type_symbol
 _atom_site_label
 _atom_site_symmetry_multiplicity
 _atom_site_fract_x
 _atom_site_fract_y
 _atom_site_fract_z
 _atom_site_occupancy
  Zr  Zr0  1  0.49746136  0.09804929  0.70041068  1
  Zr  Zr1  1  0.10001734  0.90649653  0.10623506  1
  Zr  Zr2  1  0.30366063  0.09978767  0.49590422  1
  Zr  Zr3  1  0.69850611  0.29622136  0.29317387  1
  Zr  Zr4  1  0.89864937  0.29332248  0.49814897  1
  Zr  Zr5  1  0.70161348  0.49519533  0.09433653  1
  Zr  Zr6  1  0.50295935  0.10093808  0.10462898  1
  Zr  Zr7  1  0.89381815  0.30687837  0.71079005  1
  Zr  Zr8  1  0.49372682  0.49859340  0.30506133  1
  Zr  Zr9  1  0.70957008  0.50326640  0.70145138  1
  Zr  Zr10  1  0.89976880  0.09756514  0.30325940  1
  Zr  Zr11  1  0.50596608  0.69830879  0.69287162  1
  Zr  Zr12  1  0.89582924  0.10818384  0.89978363  1
  Zr  Zr13  1  0.88986678  0.70374036  0.09932593  1
  Zr  Zr14  1  0.10422136  0.70989709  0.49600278  1
  Zr  Zr15  1  0.50360239  0.90348683  0.49374040  1
  Zr  Zr16  1  0.09823050  0.29058321  0.50287873  1
  Zr  Zr17  1  0.90690177  0.10090791  0.49574457  1
  Zr  Zr18  1  0.10274253  0.70971854  0.09297714  1
  Zr  Zr19  1  0.09259256  0.69317745  0.30336080  1
  Zr  Zr20  1  0.69838819  0.09953411  0.29775988  1
  Zr  Zr21  1  0.30160238  0.29404885  0.90029051  1
  Zr  Zr22  1  0.30619270  0.50257265  0.49622303  1
  Zr  Zr23  1  0.10210751  0.49702981  0.90336961  1
  Zr  Zr24  1  0.30088318  0.29716893  0.09492445  1
  Zr  Zr25  1  0.10000370  0.29714325  0.70412549  1
  Zr  Zr26  1  0.69705438  0.10412885  0.10027297  1
  Zr  Zr27  1  0.89766026  0.50425137  0.50825997  1
  Zr  Zr28  1  0.09821373  0.50819980  0.50208060  1
  Zr  Zr29  1  0.50418772  0.49655566  0.69408589  1
  Zr  Zr30  1  0.49364751  0.70312063  0.09545445  1
  Zr  Zr31  1  0.49974319  0.10807249  0.89757534  1
  Zr  Zr32  1  0.68739143  0.49681342  0.29699878  1
  Zr  Zr33  1  0.70484637  0.10062632  0.89775523  1
  Zr  Zr34  1  0.30215652  0.30051706  0.30409902  1
  Zr  Zr35  1  0.09883726  0.09080742  0.29564429  1
  Zr  Zr36  1  0.09545147  0.88593608  0.90549608  1
  Zr  Zr37  1  0.70487823  0.89031640  0.09620490  1
  Zr  Zr38  1  0.29974893  0.71410180  0.70040473  1
  Zr  Zr39  1  0.49710384  0.09132901  0.50276394  1
  Zr  Zr40  1  0.50444613  0.50280908  0.49734775  1
  Zr  Zr41  1  0.10692537  0.69581402  0.89235579  1
  Zr  Zr42  1  0.30498386  0.10289364  0.89875551  1
  Zr  Zr43  1  0.30935000  0.09853114  0.69837912  1
  Zr  Zr44  1  0.89898794  0.29333124  0.30127600  1
  Zr  Zr45  1  0.70211516  0.70021316  0.69437233  1
  Zr  Zr46  1  0.50184425  0.30477751  0.71080525  1
  Zr  Zr47  1  0.69642661  0.30396120  0.90305021  1
  Zr  Zr48  1  0.70090943  0.09165479  0.49535429  1
  Zr  Zr49  1  0.49990515  0.70028178  0.90753605  1
  Sc  Sc50  1  0.90823249  0.89826951  0.49810664  1
  Sc  Sc51  1  0.90538844  0.30129445  0.09759631  1
  Sc  Sc52  1  0.29938803  0.50183608  0.09767170  1
  Sc  Sc53  1  0.49906888  0.69832856  0.50284088  1
  Sc  Sc54  1  0.90295158  0.49277072  0.09937223  1
  Sc  Sc55  1  0.69848083  0.30382651  0.70969829  1
  Sc  Sc56  1  0.29883251  0.70082362  0.90403869  1
  Sc  Sc57  1  0.29951003  0.49846209  0.29895962  1
  Sc  Sc58  1  0.90471583  0.90020015  0.08974756  1
  Sc  Sc59  1  0.91018941  0.70096470  0.50388360  1
  Sc  Sc60  1  0.09973938  0.30430391  0.90167027  1
  Sc  Sc61  1  0.10026367  0.29980314  0.09028467  1
  Sc  Sc62  1  0.29045212  0.91535391  0.30191530  1
  Sc  Sc63  1  0.29846569  0.49729706  0.69825235  1
  Sc  Sc64  1  0.90449433  0.89471369  0.70495304  1
  Sc  Sc65  1  0.09837034  0.50429682  0.71156558  1
  Sc  Sc66  1  0.49689394  0.89653473  0.90268456  1
  Sc  Sc67  1  0.28830391  0.69159654  0.30624055  1
  Sc  Sc68  1  0.50993843  0.49752483  0.89625405  1
  Sc  Sc69  1  0.90015861  0.90235178  0.89923035  1
  Sc  Sc70  1  0.91316465  0.09933116  0.09759186  1
  Sc  Sc71  1  0.89562114  0.69751239  0.90200358  1
  Sc  Sc72  1  0.09776510  0.11488630  0.89968081  1
  Sc  Sc73  1  0.49672457  0.69195032  0.30430371  1
  Sc  Sc74  1  0.10243587  0.29937009  0.30211721  1
  Sc  Sc75  1  0.30242378  0.30227911  0.69620410  1
  Sc  Sc76  1  0.51147935  0.29730768  0.09707498  1
  Sc  Sc77  1  0.49995081  0.50480193  0.10545299  1
  Sc  Sc78  1  0.49655731  0.31185805  0.50148416  1
  Sc  Sc79  1  0.10338462  0.90103723  0.29996618  1
  Sc  Sc80  1  0.29900620  0.69737927  0.09171868  1
  Sc  Sc81  1  0.49394011  0.90429418  0.09652604  1
  Sc  Sc82  1  0.29561354  0.30391866  0.49922489  1
  Sc  Sc83  1  0.69863828  0.69848915  0.08697476  1
  Sc  Sc84  1  0.50003430  0.30459961  0.29651973  1
  Sc  Sc85  1  0.10279219  0.49233100  0.09990639  1
  Sc  Sc86  1  0.90548511  0.09939460  0.71157265  1
  Sc  Sc87  1  0.10060422  0.50566981  0.29723747  1
  Sc  Sc88  1  0.89675248  0.49313925  0.89636131  1
  Sc  Sc89  1  0.69534999  0.89747883  0.31108458  1
  Sc  Sc90  1  0.49718998  0.90724136  0.69331163  1
  Sc  Sc91  1  0.69240591  0.89231157  0.50309168  1
  Sc  Sc92  1  0.30483326  0.89102772  0.89411246  1
  Sc  Sc93  1  0.29456876  0.50767236  0.90309702  1
  Sc  Sc94  1  0.69724062  0.30131356  0.10155418  1
  Sc  Sc95  1  0.70032142  0.71121664  0.30115546  1
  Sc  Sc96  1  0.31102694  0.10153263  0.09420498  1
  Sc  Sc97  1  0.69702902  0.09289212  0.71327898  1
  Sc  Sc98  1  0.09311690  0.89182861  0.71000992  1
  Sc  Sc99  1  0.69688762  0.30493830  0.49427037  1
  Nb  Nb100  1  0.10359442  0.09742922  0.69607536  1
  Nb  Nb101  1  0.89815314  0.50259228  0.69942277  1
  Nb  Nb102  1  0.29178342  0.89761656  0.10055078  1
  Nb  Nb103  1  0.49582744  0.89913355  0.30121509  1
  Nb  Nb104  1  0.89071504  0.88920367  0.29322317  1
  Nb  Nb105  1  0.10443688  0.09778188  0.10205163  1
  Nb  Nb106  1  0.30707690  0.10561901  0.29978318  1
  Nb  Nb107  1  0.29600621  0.70617674  0.50078364  1
  Nb  Nb108  1  0.70027280  0.69938230  0.90026359  1
  Nb  Nb109  1  0.29862418  0.90637487  0.69915384  1
  Nb  Nb110  1  0.90381045  0.50613084  0.30295016  1
  Nb  Nb111  1  0.09538890  0.69592904  0.70554693  1
  Nb  Nb112  1  0.90650777  0.29633424  0.89661640  1
  Nb  Nb113  1  0.70307606  0.90001706  0.89626656  1
  Nb  Nb114  1  0.70257897  0.90006362  0.70187392  1
  Nb  Nb115  1  0.70609613  0.51062129  0.90139859  1
  Nb  Nb116  1  0.10680166  0.90505083  0.49825468  1
  Nb  Nb117  1  0.89756525  0.69884893  0.30083640  1
  Nb  Nb118  1  0.69219712  0.70342566  0.50247117  1
  Nb  Nb119  1  0.69920591  0.50164587  0.49532452  1
  Nb  Nb120  1  0.50456487  0.30315545  0.89825014  1
  Nb  Nb121  1  0.28882037  0.89132574  0.50240930  1
  Nb  Nb122  1  0.09240177  0.09529618  0.50592033  1
  Nb  Nb123  1  0.90421609  0.69011336  0.69957610  1
  Nb  Nb124  1  0.49261709  0.08750176  0.30430528  1
  Nb  Nb125  1  0.79519462  0.19345445  0.60179665  1
  Nb  Nb126  1  0.40394313  0.60357615  0.79671949  1
  Nb  Nb127  1  0.19918425  0.00038425  0.79888390  1
  Nb  Nb128  1  0.39568652  0.80462621  0.20664812  1
  Nb  Nb129  1  0.80206502  -0.00511284  0.20061121  1
  Nb  Nb130  1  -0.00383305  0.40180017  0.60319910  1
  Nb  Nb131  1  0.80160446  0.59848269  0.20721490  1
  Nb  Nb132  1  0.20025035  -0.00087204  -0.00274514  1
  Nb  Nb133  1  0.00188908  0.60020580  0.00036649  1
  Nb  Nb134  1  0.40546187  0.39613640  -0.00566770  1
  Nb  Nb135  1  0.60234978  0.19689763  0.59925928  1
  Nb  Nb136  1  0.80203317  0.40904453  0.39569647  1
  Nb  Nb137  1  0.19450126  -0.00253987  0.60140069  1
  Nb  Nb138  1  0.60556617  -0.00034835  -0.00334946  1
  Nb  Nb139  1  0.60737733  0.79997126  0.80127378  1
  Nb  Nb140  1  -0.00639374  0.79660317  0.20266171  1
  Nb  Nb141  1  0.79782673  0.60067995  0.39927334  1
  Nb  Nb142  1  0.39087159  0.80362653  0.40001711  1
  Nb  Nb143  1  0.58976333  0.80227426  0.19901461  1
  Nb  Nb144  1  0.80094346  0.00003242  0.60392886  1
  Nb  Nb145  1  0.79388088  0.79475844  0.79740212  1
  Nb  Nb146  1  -0.00592777  0.40330230  0.40421466  1
  Nb  Nb147  1  0.59395330  0.19242558  0.40083033  1
  Nb  Nb148  1  0.19957663  0.61097851  0.60058272  1
  Nb  Nb149  1  0.20551856  0.19333530  0.20136775  1
  Pd  Pd150  1  0.00181107  0.80698112  0.39342363  1
  Pd  Pd151  1  0.39131351  0.60076384  0.60468383  1
  Pd  Pd152  1  0.39277239  -0.00488680  0.19828433  1
  Pd  Pd153  1  -0.00951415  0.20314868  0.61229167  1
  Pd  Pd154  1  0.79813564  0.00057758  0.00601192  1
  Pd  Pd155  1  0.80283878  -0.01241643  0.40258310  1
  Pd  Pd156  1  0.39318925  0.40974372  0.80729554  1
  Pd  Pd157  1  0.41149127  0.79765439  0.79678734  1
  Pd  Pd158  1  0.39853455  -0.00539701  -0.00456967  1
  Pd  Pd159  1  0.18727768  0.80260403  0.61062855  1
  Pd  Pd160  1  0.00725539  0.00432205  0.80846234  1
  Pd  Pd161  1  0.20428192  0.19340964  0.59926021  1
  Pd  Pd162  1  0.59689479  0.59400633  0.00331668  1
  Pd  Pd163  1  0.60641889  -0.01079624  0.19597150  1
  Pd  Pd164  1  0.79612974  0.60843321  0.59035960  1
  Pd  Pd165  1  0.40348762  0.39856798  0.18988958  1
  Pd  Pd166  1  0.80562824  0.80441800  0.60002699  1
  Pd  Pd167  1  0.59870490  0.60194245  0.79948542  1
  Pd  Pd168  1  0.20227724  0.19683320  0.79537905  1
  Pd  Pd169  1  0.19756675  0.39244041  0.19872411  1
  Pd  Pd170  1  0.80341151  0.40518823  0.20358340  1
  Pd  Pd171  1  0.60794251  0.61189834  0.19590483  1
  Pd  Pd172  1  -0.00163992  -0.00656766  0.60517678  1
  Pd  Pd173  1  0.19176232  0.40850036  0.60231228  1
  Pd  Pd174  1  0.19989386  0.00866092  0.40575160  1
  Pd  Pd175  1  0.80335113  0.20796193  0.00604222  1
  Pd  Pd176  1  0.01025771  0.20394394  0.19837007  1
  Pd  Pd177  1  0.40322673  0.20338656  0.20058403  1
  Pd  Pd178  1  0.00932670  0.00719061  -0.00941293  1
  Pd  Pd179  1  0.40607129  0.80784415  0.59323787  1
  Pd  Pd180  1  0.00529277  0.39709463  0.20712582  1
  Pd  Pd181  1  0.40993067  0.20722370  0.40267942  1
  Pd  Pd182  1  0.60399962  0.60836178  0.40087498  1
  Pd  Pd183  1  0.39112168  0.60805746  0.20268307  1
  Pd  Pd184  1  0.20549545  0.39943731  0.80212590  1
  Pd  Pd185  1  -0.00215107  -0.01000966  0.39214594  1
  Pd  Pd186  1  0.19239427  0.40624158  0.39869965  1
  Pd  Pd187  1  0.60842557  0.39592158  0.60096918  1
  Pd  Pd188  1  0.79846693  0.39194446  0.59591991  1
  Pd  Pd189  1  -0.00829255  0.59692891  0.80972103  1
  Pd  Pd190  1  0.80422986  0.39445207  -0.00433281  1
  Pd  Pd191  1  0.00492113  0.80243256  0.60344445  1
  Pd  Pd192  1  0.40705836  0.21175450  0.59844504  1
  Pd  Pd193  1  -0.00446949  0.60419908  0.18757170  1
  Pd  Pd194  1  0.59086890  -0.00824635  0.80572250  1
  Pd  Pd195  1  0.80786945  0.19226817  0.18949484  1
  Pd  Pd196  1  0.19390238  0.19061731  0.39641056  1
  Pd  Pd197  1  0.80140435  0.79413434  0.41378042  1
  Pd  Pd198  1  0.20037293  0.79508914  0.20799407  1
  Pd  Pd199  1  0.20105934  0.60138374  0.19235835  1
  Rh  Rh200  1  0.39228831  0.80452047  0.00919995  1
  Rh  Rh201  1  0.80827001  -0.00902540  0.79432641  1
  Rh  Rh202  1  0.59375382  0.40108627  0.19534909  1
  Rh  Rh203  1  0.20677429  0.80664851  -0.00455449  1
  Rh  Rh204  1  0.61146021  0.41006287  0.80429870  1
  Rh  Rh205  1  0.80221576  0.80212315  -0.01359480  1
  Rh  Rh206  1  -0.00290312  0.40328626  -0.00562502  1
  Rh  Rh207  1  0.39948671  0.40054147  0.59997492  1
  Rh  Rh208  1  0.00292044  0.20210594  0.79820618  1
  Rh  Rh209  1  0.39772982  0.39884499  0.40055708  1
  Rh  Rh210  1  0.01110824  0.19851185  0.39366319  1
  Rh  Rh211  1  0.58686045  0.79405036  0.39535833  1
  Rh  Rh212  1  0.38794086  -0.01016421  0.58959845  1
  Rh  Rh213  1  -0.00410557  0.59900785  0.40431846  1
  Rh  Rh214  1  0.59912327  0.00231927  0.39438396  1
  Rh  Rh215  1  0.40146260  0.20538791  0.79622706  1
  Rh  Rh216  1  -0.01204887  0.78651659  0.80078453  1
  Rh  Rh217  1  0.39744405  -0.00313295  0.80575835  1
  Rh  Rh218  1  0.60192926  0.39286232  0.39558051  1
  Rh  Rh219  1  0.58836833  0.19490720  0.21342372  1
  Rh  Rh220  1  0.79461749  0.79835663  0.19902476  1
  Rh  Rh221  1  0.79620189  0.20362088  0.79862385  1
  Rh  Rh222  1  -0.01271142  -0.01257310  0.20576018  1
  Rh  Rh223  1  0.60145836  0.20120283  0.79613640  1
  Rh  Rh224  1  0.21215433  0.01290037  0.18952324  1
  Rh  Rh225  1  0.60066142  0.19421983  -0.00433952  1
  Rh  Rh226  1  -0.00622476  0.79160112  0.00189507  1
  Rh  Rh227  1  0.19660234  0.19242288  0.00813467  1
  Rh  Rh228  1  0.59670523  0.80502917  0.60428694  1
  Rh  Rh229  1  0.60013244  0.80841854  -0.00249880  1
  Rh  Rh230  1  0.00906248  0.59830664  0.60746666  1
  Rh  Rh231  1  0.80360485  0.60415149  0.80047541  1
  Rh  Rh232  1  0.20151551  0.59576679  0.40792581  1
  Rh  Rh233  1  0.79638912  0.40351940  0.80955884  1
  Rh  Rh234  1  0.80734701  0.59330678  0.00518092  1
  Rh  Rh235  1  0.39496361  0.60671871  0.40151573  1
  Rh  Rh236  1  0.39084983  -0.00925680  0.40449528  1
  Rh  Rh237  1  0.19981443  0.80460295  0.79863779  1
  Rh  Rh238  1  0.20103330  0.80176758  0.39087326  1
  Rh  Rh239  1  0.78687798  0.20749149  0.40442292  1
  Rh  Rh240  1  0.21384000  0.60674745  0.78820450  1
  Rh  Rh241  1  0.61038966  0.00309780  0.60591593  1
  Rh  Rh242  1  0.59778216  0.40616963  -0.00079775  1
  Rh  Rh243  1  0.19029057  0.59795849  0.00540196  1
  Rh  Rh244  1  0.00006376  0.40168630  0.79678911  1
  Rh  Rh245  1  0.21065830  0.39902959  -0.00164580  1
  Rh  Rh246  1  0.60688467  0.59369247  0.59508234  1
  Rh  Rh247  1  0.00148116  0.20164237  0.00017875  1
  Rh  Rh248  1  0.40536973  0.58811635  -0.01106780  1
  Rh  Rh249  1  0.41260053  0.20927212  -0.00036628  1
