# generated using pymatgen
data_ZrScNbPdRh
_symmetry_space_group_name_H-M   'P 1'
_cell_length_a   16.56485085
_cell_length_b   16.56152410
_cell_length_c   16.56310634
_cell_angle_alpha   89.98853768
_cell_angle_beta   90.01422024
_cell_angle_gamma   89.94719978
_symmetry_Int_Tables_number   1
_chemical_formula_structural   ZrScNbPdRh
_chemical_formula_sum   'Zr50 Sc50 Nb50 Pd50 Rh50'
_cell_volume   4543.90679070
_cell_formula_units_Z   50
loop_
 _symmetry_equiv_pos_site_id
 _symmetry_equiv_pos_as_xyz
  1  'x, y, z'
loop_
 _atom_site_type_symbol
 _atom_site_label
 _atom_site_symmetry_multiplicity
 _atom_site_fract_x
 _atom_site_fract_y
 _atom_site_fract_z
 _atom_site_occupancy
  Zr  Zr0  1  0.10389800  0.29673023  0.10948486  1
  Zr  Zr1  1  0.49490676  0.90024504  0.70147293  1
  Zr  Zr2  1  0.69721998  0.30803088  0.70141679  1
  Zr  Zr3  1  0.30784313  0.70355506  0.89834078  1
  Zr  Zr4  1  0.49615317  0.31119802  0.49690522  1
  Zr  Zr5  1  0.89500135  0.90683701  0.10437232  1
  Zr  Zr6  1  0.90078552  0.10279929  0.10478609  1
  Zr  Zr7  1  0.50969362  0.29552777  0.69450893  1
  Zr  Zr8  1  0.69246282  0.10717072  0.69432725  1
  Zr  Zr9  1  0.29786082  0.50445489  0.29385081  1
  Zr  Zr10  1  0.30561740  0.89892899  0.50274041  1
  Zr  Zr11  1  0.89938352  0.50982287  0.10358694  1
  Zr  Zr12  1  0.10411084  0.50673544  0.30177865  1
  Zr  Zr13  1  0.90970033  0.50249838  0.89805314  1
  Zr  Zr14  1  0.09997898  0.30234366  0.91073831  1
  Zr  Zr15  1  0.49634369  0.09226430  0.49338119  1
  Zr  Zr16  1  0.90289480  0.69604164  0.90038979  1
  Zr  Zr17  1  0.29555972  0.29382995  0.48818688  1
  Zr  Zr18  1  0.49519866  0.50751355  0.49840913  1
  Zr  Zr19  1  0.69350290  0.30103922  0.10123390  1
  Zr  Zr20  1  0.69242099  0.49970703  0.49402371  1
  Zr  Zr21  1  0.69402542  0.30490518  0.89830456  1
  Zr  Zr22  1  0.69791260  0.49902569  0.10099582  1
  Zr  Zr23  1  0.29811741  0.09628613  0.49954704  1
  Zr  Zr24  1  0.48882979  0.90464474  0.11091820  1
  Zr  Zr25  1  0.50153292  0.30049434  0.89955715  1
  Zr  Zr26  1  0.30106800  0.30136109  0.69131407  1
  Zr  Zr27  1  0.30386305  0.09775516  0.09717559  1
  Zr  Zr28  1  0.90101839  0.70339664  0.49951277  1
  Zr  Zr29  1  0.90522511  0.10800345  0.69637157  1
  Zr  Zr30  1  0.29993463  0.90018151  0.90079495  1
  Zr  Zr31  1  0.29897607  0.29678478  0.90329923  1
  Zr  Zr32  1  0.89631151  0.30244677  0.69740413  1
  Zr  Zr33  1  0.89521164  0.49376636  0.70154183  1
  Zr  Zr34  1  0.69736768  0.29436757  0.50331315  1
  Zr  Zr35  1  0.09828349  0.70238348  0.69884563  1
  Zr  Zr36  1  0.09845623  0.70305186  0.30435991  1
  Zr  Zr37  1  0.49937910  0.70631537  0.09856461  1
  Zr  Zr38  1  0.89987953  0.70068927  0.69532808  1
  Zr  Zr39  1  0.90905090  0.29660064  0.09773521  1
  Zr  Zr40  1  0.70126039  0.69788059  0.90392535  1
  Zr  Zr41  1  0.90157648  0.10150828  0.30656368  1
  Zr  Zr42  1  0.49937316  0.70024776  0.89686759  1
  Zr  Zr43  1  0.50803943  0.30031540  0.10476331  1
  Zr  Zr44  1  0.29297427  0.30391398  0.09987743  1
  Zr  Zr45  1  0.09131946  0.69608252  0.89984349  1
  Zr  Zr46  1  0.29301031  0.08817743  0.69749463  1
  Zr  Zr47  1  0.10002892  0.90023330  0.30360368  1
  Zr  Zr48  1  0.90029231  0.28961959  0.50313189  1
  Zr  Zr49  1  0.69823956  0.69076953  0.69353551  1
  Sc  Sc50  1  0.50630918  0.09301796  0.70506510  1
  Sc  Sc51  1  0.30779931  0.50335277  0.68934577  1
  Sc  Sc52  1  0.88934802  0.50029265  0.49334721  1
  Sc  Sc53  1  0.49747892  0.08957592  0.29825333  1
  Sc  Sc54  1  0.10263271  0.89978579  0.48973917  1
  Sc  Sc55  1  0.10594381  0.90008636  0.70918750  1
  Sc  Sc56  1  0.90104202  0.70026468  0.09981468  1
  Sc  Sc57  1  0.69778827  0.09529330  0.09509912  1
  Sc  Sc58  1  0.50333268  0.49697739  0.69413571  1
  Sc  Sc59  1  0.69875578  0.89799785  0.10701290  1
  Sc  Sc60  1  0.10647799  0.70129481  0.49373062  1
  Sc  Sc61  1  0.09533707  0.89407170  0.09951882  1
  Sc  Sc62  1  0.90824244  0.90455237  0.29863225  1
  Sc  Sc63  1  0.90391556  0.30308657  0.89813699  1
  Sc  Sc64  1  0.08960619  0.49751277  0.70059153  1
  Sc  Sc65  1  0.31089798  0.49436558  0.89911281  1
  Sc  Sc66  1  0.31029983  0.69941509  0.10113694  1
  Sc  Sc67  1  0.90178180  0.09948915  0.91045854  1
  Sc  Sc68  1  0.69134089  0.09814055  0.90456294  1
  Sc  Sc69  1  0.50210058  0.49927285  0.89162959  1
  Sc  Sc70  1  0.90680569  0.90291409  0.90262383  1
  Sc  Sc71  1  0.30630735  0.09935310  0.31245061  1
  Sc  Sc72  1  0.10216113  0.89531432  0.90112240  1
  Sc  Sc73  1  0.69905476  0.09410249  0.30844993  1
  Sc  Sc74  1  0.09942101  0.11090545  0.09978586  1
  Sc  Sc75  1  0.70012043  0.69984119  0.29761486  1
  Sc  Sc76  1  0.90589713  0.69714020  0.29806116  1
  Sc  Sc77  1  0.09872152  0.69875564  0.10136308  1
  Sc  Sc78  1  0.10264876  0.49340365  0.10786645  1
  Sc  Sc79  1  0.90502892  0.29322762  0.30695329  1
  Sc  Sc80  1  0.49775656  0.69343743  0.69457758  1
  Sc  Sc81  1  0.70035763  0.90495170  0.91256560  1
  Sc  Sc82  1  0.49236458  0.90069210  0.90042655  1
  Sc  Sc83  1  0.69069660  0.90729097  0.50001764  1
  Sc  Sc84  1  0.29667266  0.09270580  0.90666815  1
  Sc  Sc85  1  0.69601054  0.91004806  0.68691019  1
  Sc  Sc86  1  0.50425327  0.89936615  0.30373770  1
  Sc  Sc87  1  0.11138972  0.10657361  0.49729939  1
  Sc  Sc88  1  0.69112997  0.30342205  0.30192512  1
  Sc  Sc89  1  0.71236916  0.70231265  0.10112566  1
  Sc  Sc90  1  0.69546643  0.69380527  0.50287250  1
  Sc  Sc91  1  0.49405238  0.70409437  0.30336738  1
  Sc  Sc92  1  0.08530151  0.29354758  0.69060368  1
  Sc  Sc93  1  0.70411547  0.09662109  0.50331009  1
  Sc  Sc94  1  0.30302306  0.50375747  0.49394721  1
  Sc  Sc95  1  0.49839160  0.49286809  0.30740275  1
  Sc  Sc96  1  0.49532803  0.49112664  0.10308476  1
  Sc  Sc97  1  0.90402578  0.89629774  0.69360622  1
  Sc  Sc98  1  0.09851557  0.09267568  0.89540459  1
  Sc  Sc99  1  0.90049186  0.90476121  0.50048192  1
  Nb  Nb100  1  0.10036545  0.50270291  0.49370768  1
  Nb  Nb101  1  0.50115870  0.89253776  0.50152405  1
  Nb  Nb102  1  0.89920115  0.49982998  0.30069213  1
  Nb  Nb103  1  0.10492041  0.30439455  0.49322625  1
  Nb  Nb104  1  0.49482285  0.29825813  0.30153895  1
  Nb  Nb105  1  0.70112489  0.49985141  0.89479417  1
  Nb  Nb106  1  0.11265743  0.29934233  0.30302718  1
  Nb  Nb107  1  0.31127975  0.69958399  0.50742401  1
  Nb  Nb108  1  0.49503472  0.10020311  0.09974182  1
  Nb  Nb109  1  0.30257545  0.89299671  0.70808054  1
  Nb  Nb110  1  0.29608008  0.70677960  0.69244011  1
  Nb  Nb111  1  0.30258109  0.90260323  0.29553706  1
  Nb  Nb112  1  0.48881975  0.70411797  0.50034110  1
  Nb  Nb113  1  0.70094501  0.89721361  0.30524542  1
  Nb  Nb114  1  0.89549542  0.10455849  0.50201033  1
  Nb  Nb115  1  0.29896695  0.69912370  0.29764481  1
  Nb  Nb116  1  0.69759487  0.50208447  0.70251013  1
  Nb  Nb117  1  0.70484536  0.50062308  0.30012589  1
  Nb  Nb118  1  0.10283268  0.10139618  0.69792118  1
  Nb  Nb119  1  0.10091734  0.10158441  0.29725285  1
  Nb  Nb120  1  0.49272281  0.09769119  0.90078578  1
  Nb  Nb121  1  0.29359994  0.50511469  0.10265474  1
  Nb  Nb122  1  0.10078100  0.50439401  0.89369890  1
  Nb  Nb123  1  0.30234856  0.30144744  0.30298461  1
  Nb  Nb124  1  0.29999256  0.90173971  0.10316946  1
  Nb  Nb125  1  0.19266069  0.40043275  0.59304332  1
  Nb  Nb126  1  0.60093339  0.59851047  0.00260182  1
  Nb  Nb127  1  0.79832703  0.20366094  0.19978410  1
  Nb  Nb128  1  0.80012217  0.00330764  0.79663362  1
  Nb  Nb129  1  0.00538917  0.01005934  0.60035429  1
  Nb  Nb130  1  0.00738049  0.40058737  0.40011885  1
  Nb  Nb131  1  -0.00003664  0.59780478  0.59355646  1
  Nb  Nb132  1  0.40337533  0.20354208  0.20078234  1
  Nb  Nb133  1  0.79661203  0.19779025  0.79926243  1
  Nb  Nb134  1  0.79947207  0.40372588  0.00252409  1
  Nb  Nb135  1  0.59147519  0.20178665  0.39995281  1
  Nb  Nb136  1  0.20164497  0.59746279  0.80039178  1
  Nb  Nb137  1  0.79410471  0.80139582  0.79800839  1
  Nb  Nb138  1  0.60592163  0.79912988  0.79829716  1
  Nb  Nb139  1  0.39754392  0.19577236  0.79831253  1
  Nb  Nb140  1  0.20038433  0.20187038  0.79533184  1
  Nb  Nb141  1  0.19722839  0.39943880  0.79536298  1
  Nb  Nb142  1  0.39975649  0.19636178  0.59989879  1
  Nb  Nb143  1  0.79608590  0.80521705  0.39839762  1
  Nb  Nb144  1  0.79790654  0.59921158  0.79860816  1
  Nb  Nb145  1  0.60075649  0.59751748  0.19825350  1
  Nb  Nb146  1  0.20809357  0.80316370  0.20322432  1
  Nb  Nb147  1  0.20282653  -0.00280910  0.20346368  1
  Nb  Nb148  1  0.80293569  0.40008409  0.20168323  1
  Nb  Nb149  1  0.20321850  0.59558817  -0.00433143  1
  Pd  Pd150  1  0.19253079  -0.01343657  0.59867893  1
  Pd  Pd151  1  0.80720589  0.80063589  0.20996278  1
  Pd  Pd152  1  0.40029060  0.39418136  0.79360110  1
  Pd  Pd153  1  0.20985595  0.60781176  0.40400564  1
  Pd  Pd154  1  0.19364483  0.59268886  0.60489392  1
  Pd  Pd155  1  0.00281230  0.00875933  0.41129609  1
  Pd  Pd156  1  0.59529298  0.19412811  -0.00231423  1
  Pd  Pd157  1  0.39459392  0.60204877  0.78979376  1
  Pd  Pd158  1  0.19951306  0.41073963  -0.00457647  1
  Pd  Pd159  1  0.20496735  0.79031274  0.00815894  1
  Pd  Pd160  1  0.40187861  0.40165387  0.00408517  1
  Pd  Pd161  1  0.01123293  0.80571528  0.59307154  1
  Pd  Pd162  1  0.80677642  0.80791616  -0.00314154  1
  Pd  Pd163  1  0.80074817  -0.00632295  0.40305588  1
  Pd  Pd164  1  0.00015532  0.40739080  0.00412762  1
  Pd  Pd165  1  0.60686556  -0.00789966  0.80470001  1
  Pd  Pd166  1  0.40943419  0.59836921  0.20316857  1
  Pd  Pd167  1  0.19051734  -0.00003172  0.00810531  1
  Pd  Pd168  1  0.79152338  0.80799089  0.59403882  1
  Pd  Pd169  1  -0.00510333  -0.00387928  0.79303427  1
  Pd  Pd170  1  0.79316300  0.40402291  0.59277856  1
  Pd  Pd171  1  0.59957113  0.18803007  0.20939039  1
  Pd  Pd172  1  0.58943379  -0.00480384  0.00558759  1
  Pd  Pd173  1  0.60443125  0.00204366  0.20037523  1
  Pd  Pd174  1  0.00700273  0.00251657  0.00708501  1
  Pd  Pd175  1  0.79861035  0.20577423  -0.00219197  1
  Pd  Pd176  1  0.01064952  0.00347835  0.19468441  1
  Pd  Pd177  1  0.21291339  0.79693452  0.39917259  1
  Pd  Pd178  1  0.19952512  0.79259330  0.80395995  1
  Pd  Pd179  1  0.40268451  0.59080004  0.00257324  1
  Pd  Pd180  1  -0.00596860  0.80121360  0.00365391  1
  Pd  Pd181  1  0.00128078  0.20218094  0.80782541  1
  Pd  Pd182  1  0.80435860  0.39072424  0.39455653  1
  Pd  Pd183  1  -0.00219335  0.39514003  0.21229393  1
  Pd  Pd184  1  0.39485920  0.39619214  0.19988307  1
  Pd  Pd185  1  0.40279503  0.20198984  0.00237386  1
  Pd  Pd186  1  0.59804033  0.79692389  0.60319091  1
  Pd  Pd187  1  0.79329445  0.00722225  0.20350330  1
  Pd  Pd188  1  0.39556524  0.80241368  0.39515973  1
  Pd  Pd189  1  0.00375133  0.60328025  0.19947017  1
  Pd  Pd190  1  0.00092707  0.40706712  0.58706553  1
  Pd  Pd191  1  0.21249587  0.19015834  0.20818130  1
  Pd  Pd192  1  0.80052981  0.61138197  0.39636006  1
  Pd  Pd193  1  0.59773630  0.80088769  -0.00174471  1
  Pd  Pd194  1  0.40318955  0.00023906  0.60204472  1
  Pd  Pd195  1  0.60478837  0.79529447  0.40345503  1
  Pd  Pd196  1  0.00987348  0.20022341  0.40169701  1
  Pd  Pd197  1  0.59422335  0.60805080  0.39265662  1
  Pd  Pd198  1  0.19694086  0.80734664  0.59594079  1
  Pd  Pd199  1  0.59965605  0.79496650  0.20293324  1
  Rh  Rh200  1  0.59317069  0.59746481  0.59374692  1
  Rh  Rh201  1  -0.00287353  0.20302785  0.20843831  1
  Rh  Rh202  1  0.60482000  0.60246732  0.80412004  1
  Rh  Rh203  1  0.00771336  0.39164745  0.80121516  1
  Rh  Rh204  1  0.81239041  0.00431597  0.60541555  1
  Rh  Rh205  1  0.40274868  -0.01442346  0.40121936  1
  Rh  Rh206  1  0.40235367  0.60240127  0.60066306  1
  Rh  Rh207  1  -0.01034282  0.80035460  0.40006311  1
  Rh  Rh208  1  0.39634700  0.79938991  0.20483502  1
  Rh  Rh209  1  0.39851974  0.80814646  0.00321852  1
  Rh  Rh210  1  0.40334839  -0.00513182  -0.00072676  1
  Rh  Rh211  1  0.20080142  0.40563164  0.39771124  1
  Rh  Rh212  1  0.20267824  0.61223113  0.19052965  1
  Rh  Rh213  1  0.19929532  0.20910608  0.60329457  1
  Rh  Rh214  1  0.78878788  0.20140985  0.39458177  1
  Rh  Rh215  1  0.20103940  0.00035933  0.80292310  1
  Rh  Rh216  1  0.39356758  0.00824836  0.20364449  1
  Rh  Rh217  1  0.01317297  0.59360829  0.01067068  1
  Rh  Rh218  1  0.00472968  0.19677785  -0.00354409  1
  Rh  Rh219  1  0.39208502  0.40468948  0.39749415  1
  Rh  Rh220  1  0.59970531  0.39719463  0.39808283  1
  Rh  Rh221  1  0.59413827  0.40444038  0.79679098  1
  Rh  Rh222  1  0.60252807  0.40924023  0.21302146  1
  Rh  Rh223  1  0.80060520  0.40030305  0.80822710  1
  Rh  Rh224  1  0.19913955  0.19417257  0.39173796  1
  Rh  Rh225  1  0.79662719  0.59216057  -0.00794761  1
  Rh  Rh226  1  0.79735736  0.59763453  0.20707138  1
  Rh  Rh227  1  0.80255959  -0.00166272  -0.00156777  1
  Rh  Rh228  1  0.59744704  -0.00020278  0.40154045  1
  Rh  Rh229  1  0.00384857  0.79868035  0.20042713  1
  Rh  Rh230  1  0.00768490  0.19288805  0.58633058  1
  Rh  Rh231  1  0.79603591  0.20028936  0.60631300  1
  Rh  Rh232  1  0.20328465  0.39943232  0.20634824  1
  Rh  Rh233  1  0.60431928  0.40924662  0.59839678  1
  Rh  Rh234  1  0.59008416  0.00026063  0.59428954  1
  Rh  Rh235  1  0.58770852  0.19369546  0.58506040  1
  Rh  Rh236  1  0.40702088  0.20103074  0.40000629  1
  Rh  Rh237  1  0.80422144  0.59093364  0.60283371  1
  Rh  Rh238  1  -0.00581105  0.80381954  0.80337303  1
  Rh  Rh239  1  0.59700905  0.19595264  0.80923891  1
  Rh  Rh240  1  0.40078771  0.80024124  0.60583442  1
  Rh  Rh241  1  0.60084899  0.40976373  -0.00908371  1
  Rh  Rh242  1  0.40544505  0.79512184  0.79168791  1
  Rh  Rh243  1  0.20052628  0.00323152  0.39292747  1
  Rh  Rh244  1  -0.00172259  0.60242884  0.78710399  1
  Rh  Rh245  1  0.19469699  0.19228585  -0.00785945  1
  Rh  Rh246  1  0.39199716  0.39758124  0.59099158  1
  Rh  Rh247  1  0.39688753  0.60519096  0.39651241  1
  Rh  Rh248  1  -0.00632879  0.59313674  0.40532478  1
  Rh  Rh249  1  0.39294217  0.00429925  0.80359923  1
