# generated using pymatgen
data_ZrScNbPdRh
_symmetry_space_group_name_H-M   'P 1'
_cell_length_a   16.56087087
_cell_length_b   16.56137776
_cell_length_c   16.56154237
_cell_angle_alpha   90.05150461
_cell_angle_beta   89.97733635
_cell_angle_gamma   90.04974641
_symmetry_Int_Tables_number   1
_chemical_formula_structural   ZrScNbPdRh
_chemical_formula_sum   'Zr50 Sc50 Nb50 Pd50 Rh50'
_cell_volume   4542.34421314
_cell_formula_units_Z   50
loop_
 _symmetry_equiv_pos_site_id
 _symmetry_equiv_pos_as_xyz
  1  'x, y, z'
loop_
 _atom_site_type_symbol
 _atom_site_label
 _atom_site_symmetry_multiplicity
 _atom_site_fract_x
 _atom_site_fract_y
 _atom_site_fract_z
 _atom_site_occupancy
  Zr  Zr0  1  0.10438257  0.49607565  0.10716016  1
  Zr  Zr1  1  0.30526956  0.70206571  0.08791910  1
  Zr  Zr2  1  0.49891496  0.28650142  0.29772569  1
  Zr  Zr3  1  0.50102872  0.09649022  0.49826762  1
  Zr  Zr4  1  0.90893816  0.09651114  0.09818223  1
  Zr  Zr5  1  0.90540312  0.31846187  0.69573051  1
  Zr  Zr6  1  0.90411604  0.49771994  0.90130599  1
  Zr  Zr7  1  0.90022812  0.49316361  0.50907156  1
  Zr  Zr8  1  0.69967249  0.89664660  0.70319857  1
  Zr  Zr9  1  0.29858401  0.10419036  0.30206643  1
  Zr  Zr10  1  0.49778194  0.30845541  0.70588043  1
  Zr  Zr11  1  0.49984422  0.51174365  0.09904605  1
  Zr  Zr12  1  0.29455614  0.50325716  0.49731519  1
  Zr  Zr13  1  0.30583606  0.89977768  0.10464077  1
  Zr  Zr14  1  0.29427624  0.29938386  0.90523632  1
  Zr  Zr15  1  0.09433630  0.89670257  0.90108090  1
  Zr  Zr16  1  0.68711650  0.70426787  0.09265517  1
  Zr  Zr17  1  0.30657617  0.50054726  0.69477289  1
  Zr  Zr18  1  0.50381039  0.89195660  0.10115248  1
  Zr  Zr19  1  0.50642727  0.90177025  0.90027797  1
  Zr  Zr20  1  0.28757039  0.49661453  0.29621025  1
  Zr  Zr21  1  0.50236005  0.10368681  0.90958088  1
  Zr  Zr22  1  0.50063445  0.89979863  0.29408857  1
  Zr  Zr23  1  0.90072801  0.89448173  0.28676391  1
  Zr  Zr24  1  0.89996394  0.09367797  0.28761706  1
  Zr  Zr25  1  0.69320299  0.50645112  0.29760956  1
  Zr  Zr26  1  0.29428895  0.10187264  0.70589943  1
  Zr  Zr27  1  0.50511009  0.50048856  0.69739407  1
  Zr  Zr28  1  0.68853831  0.09789538  0.29956313  1
  Zr  Zr29  1  0.10427875  0.09628343  0.49878808  1
  Zr  Zr30  1  0.09650700  0.29542665  0.09795540  1
  Zr  Zr31  1  0.49791111  0.70222451  0.90442520  1
  Zr  Zr32  1  0.69347253  0.49883458  0.10142544  1
  Zr  Zr33  1  0.90183444  0.09200646  0.50155080  1
  Zr  Zr34  1  0.69976500  0.69445671  0.48649079  1
  Zr  Zr35  1  0.30154383  0.50598649  0.10034369  1
  Zr  Zr36  1  0.10720027  0.30521299  0.29326214  1
  Zr  Zr37  1  0.29555119  0.10406118  0.10162437  1
  Zr  Zr38  1  0.70238341  0.68647711  0.70503316  1
  Zr  Zr39  1  0.89920112  0.70413536  0.30535949  1
  Zr  Zr40  1  0.89653928  0.10478393  0.90084659  1
  Zr  Zr41  1  0.89978087  0.09705448  0.70563030  1
  Zr  Zr42  1  0.69645852  0.30378402  0.29513407  1
  Zr  Zr43  1  0.49813364  0.50165263  0.29126185  1
  Zr  Zr44  1  0.09805869  0.89877309  0.69899832  1
  Zr  Zr45  1  0.30789663  0.89723641  0.90356315  1
  Zr  Zr46  1  0.90325169  0.90390895  0.90826125  1
  Zr  Zr47  1  0.69889819  0.50410506  0.70173986  1
  Zr  Zr48  1  0.70304051  0.30659059  0.49885220  1
  Zr  Zr49  1  0.49575848  0.90127323  0.50921896  1
  Sc  Sc50  1  0.29333565  0.29626713  0.10620928  1
  Sc  Sc51  1  0.91480590  0.70137467  0.90039933  1
  Sc  Sc52  1  0.51166685  0.70385386  0.30035683  1
  Sc  Sc53  1  0.29716495  0.88664796  0.49931323  1
  Sc  Sc54  1  0.09786129  0.89845900  0.49856412  1
  Sc  Sc55  1  0.49975170  0.89656683  0.70669409  1
  Sc  Sc56  1  0.08780065  0.49595430  0.70475571  1
  Sc  Sc57  1  0.91090978  0.71246498  0.10552575  1
  Sc  Sc58  1  0.70662079  0.30185851  0.10392361  1
  Sc  Sc59  1  0.09517464  0.70184465  0.70041119  1
  Sc  Sc60  1  0.09899766  0.90167484  0.30739113  1
  Sc  Sc61  1  0.90608894  0.50506171  0.29486361  1
  Sc  Sc62  1  0.29191858  0.29092713  0.49646271  1
  Sc  Sc63  1  0.50064565  0.50165651  0.51076444  1
  Sc  Sc64  1  0.09368631  0.10356512  0.89280999  1
  Sc  Sc65  1  0.29265770  0.70158495  0.68755181  1
  Sc  Sc66  1  0.50185192  0.29328841  0.10580223  1
  Sc  Sc67  1  0.70325813  0.50138080  0.50217952  1
  Sc  Sc68  1  0.70325099  0.09667467  0.90082541  1
  Sc  Sc69  1  0.90363588  0.89974997  0.70002809  1
  Sc  Sc70  1  0.10134263  0.09566922  0.29606593  1
  Sc  Sc71  1  0.30245928  0.70983736  0.30075475  1
  Sc  Sc72  1  0.90204060  0.29580761  0.09610290  1
  Sc  Sc73  1  0.70080553  0.89653115  0.50223657  1
  Sc  Sc74  1  0.69545690  0.29957471  0.70179163  1
  Sc  Sc75  1  0.90043052  0.69991195  0.69761513  1
  Sc  Sc76  1  0.10379699  0.70237220  0.09268058  1
  Sc  Sc77  1  0.10018337  0.10401645  0.70585204  1
  Sc  Sc78  1  0.50478216  0.29669470  0.50584747  1
  Sc  Sc79  1  0.10155412  0.50860017  0.49176636  1
  Sc  Sc80  1  0.10011214  0.50346499  0.90571682  1
  Sc  Sc81  1  0.90206651  0.89539973  0.50535105  1
  Sc  Sc82  1  0.49965142  0.50128901  0.89112404  1
  Sc  Sc83  1  0.10314422  0.70407144  0.49745894  1
  Sc  Sc84  1  0.90172889  0.29780828  0.90579047  1
  Sc  Sc85  1  0.50161516  0.10032513  0.10692654  1
  Sc  Sc86  1  0.50559635  0.08665827  0.69651890  1
  Sc  Sc87  1  0.30637439  0.90277892  0.69994136  1
  Sc  Sc88  1  0.09731232  0.30709979  0.89783339  1
  Sc  Sc89  1  0.89600476  0.51096294  0.69787727  1
  Sc  Sc90  1  0.90283852  0.48860519  0.09960694  1
  Sc  Sc91  1  0.70452545  0.28600316  0.89840934  1
  Sc  Sc92  1  0.68848400  0.09773294  0.50278051  1
  Sc  Sc93  1  0.08784148  0.69982933  0.30038600  1
  Sc  Sc94  1  0.70367287  0.09944004  0.70489445  1
  Sc  Sc95  1  0.10462093  0.30114100  0.49882761  1
  Sc  Sc96  1  0.70603293  0.09981192  0.10112231  1
  Sc  Sc97  1  0.29033747  0.50499318  0.90327141  1
  Sc  Sc98  1  0.29321038  0.29952679  0.70579815  1
  Sc  Sc99  1  0.89641719  0.30548991  0.28554756  1
  Nb  Nb100  1  0.70114369  0.51134212  0.89871022  1
  Nb  Nb101  1  0.90124328  0.69293417  0.49377767  1
  Nb  Nb102  1  0.49943117  0.30127148  0.90183557  1
  Nb  Nb103  1  0.50181066  0.68923481  0.69512972  1
  Nb  Nb104  1  0.49515560  0.69803117  0.10053951  1
  Nb  Nb105  1  0.09912014  0.49782870  0.29988935  1
  Nb  Nb106  1  0.10143980  0.29997368  0.69603734  1
  Nb  Nb107  1  0.09783365  0.09953352  0.10189805  1
  Nb  Nb108  1  0.30011079  0.90438647  0.29868253  1
  Nb  Nb109  1  0.30285047  0.69647744  0.50118515  1
  Nb  Nb110  1  0.49660361  0.69827344  0.50195654  1
  Nb  Nb111  1  0.30195334  0.30195554  0.30095335  1
  Nb  Nb112  1  0.69951766  0.88746404  0.90947187  1
  Nb  Nb113  1  0.29832662  0.10053666  0.90053863  1
  Nb  Nb114  1  0.89857627  0.30400527  0.49789982  1
  Nb  Nb115  1  0.29836370  0.09680535  0.50283702  1
  Nb  Nb116  1  0.90722090  0.90628326  0.09938803  1
  Nb  Nb117  1  0.70008352  0.69645972  0.90089034  1
  Nb  Nb118  1  0.10959210  0.70292976  0.90305906  1
  Nb  Nb119  1  0.50240448  0.10042577  0.30568279  1
  Nb  Nb120  1  0.70674486  0.89565239  0.09620992  1
  Nb  Nb121  1  0.09587209  0.90332229  0.09396925  1
  Nb  Nb122  1  0.70030312  0.89252679  0.29113158  1
  Nb  Nb123  1  0.29559501  0.69965133  0.90308397  1
  Nb  Nb124  1  0.70397660  0.70283288  0.29953500  1
  Nb  Nb125  1  0.20152354  0.80918362  0.19603797  1
  Nb  Nb126  1  0.79517943  0.79764855  0.81034702  1
  Nb  Nb127  1  0.80403525  0.19625169  0.40097347  1
  Nb  Nb128  1  0.79643445  -0.00155322  0.39068121  1
  Nb  Nb129  1  0.40469113  0.39829969  0.00000686  1
  Nb  Nb130  1  0.39846457  0.60058856  0.40445276  1
  Nb  Nb131  1  0.79934262  0.60306240  0.00173269  1
  Nb  Nb132  1  -0.00771428  0.20490465  0.40016642  1
  Nb  Nb133  1  0.20308749  0.00239884  0.59907932  1
  Nb  Nb134  1  0.39822856  0.39924951  0.39530001  1
  Nb  Nb135  1  0.40132732  0.19827480  0.80496836  1
  Nb  Nb136  1  -0.00227563  0.20468318  0.59555553  1
  Nb  Nb137  1  0.80811649  0.20362502  0.59507304  1
  Nb  Nb138  1  0.39550963  0.60770477  0.79631935  1
  Nb  Nb139  1  0.39828589  0.00092453  0.39671599  1
  Nb  Nb140  1  0.79510762  0.60785484  0.19603088  1
  Nb  Nb141  1  0.19898585  0.00329430  -0.00030035  1
  Nb  Nb142  1  0.59698528  0.78741509  0.60136766  1
  Nb  Nb143  1  0.00183824  0.39837124  0.39705849  1
  Nb  Nb144  1  0.79760578  0.40713767  0.80472341  1
  Nb  Nb145  1  0.19786562  0.40147883  0.60133565  1
  Nb  Nb146  1  0.59231670  0.40221231  0.39493968  1
  Nb  Nb147  1  0.59663929  0.39870066  -0.00572863  1
  Nb  Nb148  1  0.20186763  0.79642106  0.80727495  1
  Nb  Nb149  1  0.39660746  0.19385308  0.60634069  1
  Pd  Pd150  1  0.40541423  0.00807472  0.80424504  1
  Pd  Pd151  1  0.79535399  0.79031588  0.60506853  1
  Pd  Pd152  1  -0.00731376  -0.00164511  0.39472737  1
  Pd  Pd153  1  0.39046748  0.38599711  0.58851535  1
  Pd  Pd154  1  0.39956908  0.20567153  0.00197283  1
  Pd  Pd155  1  0.61154778  0.39941818  0.80958481  1
  Pd  Pd156  1  0.00480028  0.60435461  0.59425192  1
  Pd  Pd157  1  0.60038020  -0.01355355  0.40031327  1
  Pd  Pd158  1  0.40414171  0.00811180  0.20481386  1
  Pd  Pd159  1  0.79658497  0.00158896  0.00263356  1
  Pd  Pd160  1  0.80371722  0.80971180  0.40195270  1
  Pd  Pd161  1  0.81128282  0.79124294  -0.00009541  1
  Pd  Pd162  1  0.00241684  0.60322313  0.80104058  1
  Pd  Pd163  1  0.20137373  0.61278644  0.39102419  1
  Pd  Pd164  1  -0.00327080  0.60109046  0.19393017  1
  Pd  Pd165  1  0.18855473  0.19354966  -0.00606779  1
  Pd  Pd166  1  0.19722312  0.61646218  0.20229269  1
  Pd  Pd167  1  0.40424478  0.80034294  0.39669616  1
  Pd  Pd168  1  0.39631421  0.61232608  0.21104395  1
  Pd  Pd169  1  0.19761742  -0.00876792  0.80250561  1
  Pd  Pd170  1  0.20102218  0.60445616  0.79218777  1
  Pd  Pd171  1  0.60505520  -0.00283249  0.19106386  1
  Pd  Pd172  1  0.60330137  0.79084534  0.79558614  1
  Pd  Pd173  1  0.59263153  0.19234707  0.79672867  1
  Pd  Pd174  1  0.79752750  0.79479643  0.18971547  1
  Pd  Pd175  1  0.40011136  0.20008621  0.40910174  1
  Pd  Pd176  1  0.19597843  0.40399056  0.79581829  1
  Pd  Pd177  1  0.59713068  0.80548729  0.40563879  1
  Pd  Pd178  1  0.79953396  0.19813600  0.20064541  1
  Pd  Pd179  1  0.79091029  0.40179905  -0.00653162  1
  Pd  Pd180  1  0.79204959  0.00458016  0.59569787  1
  Pd  Pd181  1  0.79838534  -0.01106558  0.80662924  1
  Pd  Pd182  1  -0.00169939  0.59977130  0.00811916  1
  Pd  Pd183  1  0.60737525  0.20580223  0.00796390  1
  Pd  Pd184  1  -0.00471761  0.21004719  0.79531618  1
  Pd  Pd185  1  0.59867094  0.19908806  0.60718690  1
  Pd  Pd186  1  0.60649471  -0.00045969  0.00756497  1
  Pd  Pd187  1  0.80284529  0.40334317  0.38778816  1
  Pd  Pd188  1  0.40039025  0.39408807  0.19556016  1
  Pd  Pd189  1  -0.00083703  0.79383677  0.59437635  1
  Pd  Pd190  1  0.39307829  0.78996592  0.79161799  1
  Pd  Pd191  1  0.39158909  0.40365571  0.81028079  1
  Pd  Pd192  1  0.19329043  -0.00441238  0.19608901  1
  Pd  Pd193  1  0.39898244  0.00281369  0.00398473  1
  Pd  Pd194  1  0.19238958  0.19913073  0.39422593  1
  Pd  Pd195  1  0.19713437  0.79745956  0.39372540  1
  Pd  Pd196  1  0.60551676  0.00226427  0.80471963  1
  Pd  Pd197  1  0.80710036  0.58998765  0.39454071  1
  Pd  Pd198  1  0.40285413  0.79641295  0.60808977  1
  Pd  Pd199  1  0.18841975  0.59579057  0.60570673  1
  Rh  Rh200  1  0.59339208  0.39382668  0.19712142  1
  Rh  Rh201  1  0.00291278  0.19761885  -0.00134906  1
  Rh  Rh202  1  0.39847535  0.60346081  0.59868782  1
  Rh  Rh203  1  0.01412282  0.80741408  0.19704379  1
  Rh  Rh204  1  0.60273609  0.79748025  0.19763571  1
  Rh  Rh205  1  0.80098997  0.60553541  0.59127421  1
  Rh  Rh206  1  0.00339222  0.20083509  0.20282257  1
  Rh  Rh207  1  0.00091915  0.79846261  0.00189605  1
  Rh  Rh208  1  0.80105734  0.41195884  0.20052848  1
  Rh  Rh209  1  0.58828694  0.59222674  0.40375481  1
  Rh  Rh210  1  -0.00388103  -0.00163428  0.79928369  1
  Rh  Rh211  1  0.19953580  0.81030615  0.00060194  1
  Rh  Rh212  1  0.60497934  0.61357864  0.20188733  1
  Rh  Rh213  1  0.00076318  0.79812142  0.80117371  1
  Rh  Rh214  1  0.79016009  0.39831846  0.61254741  1
  Rh  Rh215  1  0.19777367  0.19853295  0.60389286  1
  Rh  Rh216  1  0.19582214  0.59703389  0.00424802  1
  Rh  Rh217  1  0.00682504  0.39819216  0.00247457  1
  Rh  Rh218  1  0.19775162  0.80708576  0.60514116  1
  Rh  Rh219  1  -0.00349422  0.40172462  0.80501969  1
  Rh  Rh220  1  0.39822105  0.79464684  0.20116792  1
  Rh  Rh221  1  0.79300591  -0.00771700  0.19838426  1
  Rh  Rh222  1  0.60271821  0.19580113  0.19573411  1
  Rh  Rh223  1  0.80876345  0.21476251  0.78683740  1
  Rh  Rh224  1  0.00758118  0.00883539  -0.00350955  1
  Rh  Rh225  1  0.01448307  0.39873497  0.58850817  1
  Rh  Rh226  1  0.19831748  0.20008593  0.20451519  1
  Rh  Rh227  1  0.39662246  0.19465101  0.20132401  1
  Rh  Rh228  1  0.81159347  0.60257788  0.81273454  1
  Rh  Rh229  1  0.80273260  0.19516923  0.00404167  1
  Rh  Rh230  1  0.40232036  0.59274175  -0.01161991  1
  Rh  Rh231  1  0.39129134  0.00298127  0.59343531  1
  Rh  Rh232  1  0.59781673  0.59670426  -0.00550145  1
  Rh  Rh233  1  0.20448567  0.40373184  0.00677234  1
  Rh  Rh234  1  0.60511653  -0.01293204  0.60621816  1
  Rh  Rh235  1  0.01248114  0.00605576  0.60806674  1
  Rh  Rh236  1  0.00077444  0.39817805  0.20201041  1
  Rh  Rh237  1  0.59302038  0.80012950  -0.00027036  1
  Rh  Rh238  1  0.60508219  0.40343057  0.59428228  1
  Rh  Rh239  1  0.40682583  0.80121106  -0.00024225  1
  Rh  Rh240  1  -0.00349226  0.59425763  0.40292201  1
  Rh  Rh241  1  0.58868268  0.60452138  0.80627994  1
  Rh  Rh242  1  0.60733284  0.60321480  0.59105437  1
  Rh  Rh243  1  0.20054874  0.20525933  0.80644758  1
  Rh  Rh244  1  0.20200391  0.39705523  0.19378178  1
  Rh  Rh245  1  0.19847226  0.39783590  0.40394976  1
  Rh  Rh246  1  -0.00591018  0.80054914  0.40527877  1
  Rh  Rh247  1  0.00862535  -0.00640523  0.20058070  1
  Rh  Rh248  1  0.60657386  0.20981090  0.40091440  1
  Rh  Rh249  1  0.21064008  -0.00682327  0.40797682  1
