# generated using pymatgen
data_ZrScNbPdRh
_symmetry_space_group_name_H-M   'P 1'
_cell_length_a   16.56118119
_cell_length_b   16.55916940
_cell_length_c   16.55513831
_cell_angle_alpha   89.94725405
_cell_angle_beta   90.04826199
_cell_angle_gamma   90.03989692
_symmetry_Int_Tables_number   1
_chemical_formula_structural   ZrScNbPdRh
_chemical_formula_sum   'Zr50 Sc50 Nb50 Pd50 Rh50'
_cell_volume   4540.06664557
_cell_formula_units_Z   50
loop_
 _symmetry_equiv_pos_site_id
 _symmetry_equiv_pos_as_xyz
  1  'x, y, z'
loop_
 _atom_site_type_symbol
 _atom_site_label
 _atom_site_symmetry_multiplicity
 _atom_site_fract_x
 _atom_site_fract_y
 _atom_site_fract_z
 _atom_site_occupancy
  Zr  Zr0  1  0.49932665  0.49690853  0.09428326  1
  Zr  Zr1  1  0.89736697  0.69354084  0.31096104  1
  Zr  Zr2  1  0.48719797  0.09197804  0.29155372  1
  Zr  Zr3  1  0.29664820  0.10236273  0.90545254  1
  Zr  Zr4  1  0.89966591  0.09060469  0.30641527  1
  Zr  Zr5  1  0.50070100  0.69103276  0.69917523  1
  Zr  Zr6  1  0.90579230  0.51206727  0.49370599  1
  Zr  Zr7  1  0.70306811  0.09560931  0.09981759  1
  Zr  Zr8  1  0.70051160  0.89726982  0.89425165  1
  Zr  Zr9  1  0.10161418  0.89578616  0.70417099  1
  Zr  Zr10  1  0.30127516  0.90174729  0.89873626  1
  Zr  Zr11  1  0.29057941  0.70328064  0.69862380  1
  Zr  Zr12  1  0.30812202  0.49078037  0.70088917  1
  Zr  Zr13  1  0.50205141  0.69550247  0.49998583  1
  Zr  Zr14  1  0.90304942  0.49533862  0.69943537  1
  Zr  Zr15  1  0.89477972  0.28796894  0.69750566  1
  Zr  Zr16  1  0.89968617  0.89644458  0.30082011  1
  Zr  Zr17  1  0.50653986  0.30488764  0.90761417  1
  Zr  Zr18  1  0.89497298  0.90258281  0.49314283  1
  Zr  Zr19  1  0.10300675  0.29807583  0.29983388  1
  Zr  Zr20  1  0.90034782  0.89877346  0.70030409  1
  Zr  Zr21  1  0.89756391  0.49475207  0.90734884  1
  Zr  Zr22  1  0.30180335  0.50648055  0.09817107  1
  Zr  Zr23  1  0.09321262  0.68651809  0.50903299  1
  Zr  Zr24  1  0.09988337  0.70144633  0.10170111  1
  Zr  Zr25  1  0.70115038  0.29728401  0.69836373  1
  Zr  Zr26  1  0.70158398  0.10067442  0.70046500  1
  Zr  Zr27  1  0.50561092  0.11358476  0.09742986  1
  Zr  Zr28  1  0.50845310  0.69382985  0.90038281  1
  Zr  Zr29  1  0.30362496  0.30542004  0.09699369  1
  Zr  Zr30  1  0.68854542  0.29232700  0.09524706  1
  Zr  Zr31  1  0.10684380  0.90302523  0.90208292  1
  Zr  Zr32  1  0.09789093  0.29367592  0.10278749  1
  Zr  Zr33  1  0.31042231  0.09729266  0.10128742  1
  Zr  Zr34  1  0.29662824  0.69746186  0.10498810  1
  Zr  Zr35  1  0.69370367  0.70260804  0.90067775  1
  Zr  Zr36  1  0.10663721  0.88884092  0.10191317  1
  Zr  Zr37  1  0.68806498  0.49922889  0.89729727  1
  Zr  Zr38  1  0.71474793  0.50275248  0.29969207  1
  Zr  Zr39  1  0.90558468  0.69515691  0.89991069  1
  Zr  Zr40  1  0.89748578  0.30517950  0.08948040  1
  Zr  Zr41  1  0.29704100  0.49818644  0.50487766  1
  Zr  Zr42  1  0.49582348  0.51050857  0.51423658  1
  Zr  Zr43  1  0.50190564  0.09926702  0.49654076  1
  Zr  Zr44  1  0.50752930  0.10404318  0.69142180  1
  Zr  Zr45  1  0.69654488  0.69883794  0.09606838  1
  Zr  Zr46  1  0.48729149  0.09865706  0.88926235  1
  Zr  Zr47  1  0.89663651  0.70952834  0.50636727  1
  Zr  Zr48  1  0.29283467  0.09697002  0.48796039  1
  Zr  Zr49  1  0.10140093  0.49766651  0.29565393  1
  Sc  Sc50  1  0.09314881  0.10142739  0.49708400  1
  Sc  Sc51  1  0.49632464  0.29798043  0.49846786  1
  Sc  Sc52  1  0.29231792  0.89637163  0.31466049  1
  Sc  Sc53  1  0.50472945  0.90754395  0.10772251  1
  Sc  Sc54  1  0.69832667  0.69971665  0.30680209  1
  Sc  Sc55  1  0.69021041  0.09970535  0.50295866  1
  Sc  Sc56  1  0.10161708  0.29864150  0.90805732  1
  Sc  Sc57  1  0.09691047  0.10460199  0.31224742  1
  Sc  Sc58  1  0.10072312  0.10657458  0.90360733  1
  Sc  Sc59  1  0.69889113  0.89944261  0.29756487  1
  Sc  Sc60  1  0.09993142  0.71205280  0.29530922  1
  Sc  Sc61  1  0.08371962  0.09635830  0.69617570  1
  Sc  Sc62  1  0.70730051  0.30080447  0.90386243  1
  Sc  Sc63  1  0.48655707  0.29857201  0.69531111  1
  Sc  Sc64  1  0.29159034  0.89680526  0.70097182  1
  Sc  Sc65  1  0.70127651  0.48685566  0.10357244  1
  Sc  Sc66  1  0.90810498  0.30307032  0.29729153  1
  Sc  Sc67  1  0.08868263  0.30394201  0.69028376  1
  Sc  Sc68  1  0.89495609  0.09924681  0.09671345  1
  Sc  Sc69  1  0.69933169  0.70377272  0.50102867  1
  Sc  Sc70  1  0.30111051  0.30215218  0.31108858  1
  Sc  Sc71  1  0.49919969  0.69727683  0.09158636  1
  Sc  Sc72  1  0.89701048  0.90601313  0.89511092  1
  Sc  Sc73  1  0.09947564  0.50340164  0.89860845  1
  Sc  Sc74  1  0.32105613  0.10657212  0.70331403  1
  Sc  Sc75  1  0.49833999  0.49846375  0.30571074  1
  Sc  Sc76  1  0.70164602  0.09044521  0.30168897  1
  Sc  Sc77  1  0.30156627  0.31076928  0.89316318  1
  Sc  Sc78  1  0.69452464  0.31138347  0.30204298  1
  Sc  Sc79  1  0.70153814  0.89945506  0.49421979  1
  Sc  Sc80  1  0.69887031  0.71129979  0.70329107  1
  Sc  Sc81  1  0.30154238  0.69570436  0.49911145  1
  Sc  Sc82  1  0.50139754  0.69730222  0.31287099  1
  Sc  Sc83  1  0.10910116  0.49763170  0.10058539  1
  Sc  Sc84  1  0.89831997  0.10164646  0.88991879  1
  Sc  Sc85  1  0.30235348  0.49855362  0.29097601  1
  Sc  Sc86  1  0.50685712  0.91221008  0.71022610  1
  Sc  Sc87  1  0.30951626  0.70772827  0.90445384  1
  Sc  Sc88  1  0.69795861  0.49942516  0.50263222  1
  Sc  Sc89  1  0.69496083  0.30274309  0.50114587  1
  Sc  Sc90  1  0.50240832  0.29991343  0.29955636  1
  Sc  Sc91  1  0.09698527  0.70190019  0.90232507  1
  Sc  Sc92  1  0.89649035  0.89801967  0.09866429  1
  Sc  Sc93  1  0.69920349  0.90306419  0.09374589  1
  Sc  Sc94  1  0.69148152  0.49574733  0.69633082  1
  Sc  Sc95  1  0.70907725  0.09963016  0.90644652  1
  Sc  Sc96  1  0.50075259  0.89582757  0.90002311  1
  Sc  Sc97  1  0.30026199  0.89832288  0.09563772  1
  Sc  Sc98  1  0.09904272  0.50282400  0.69128842  1
  Sc  Sc99  1  0.11046228  0.90810684  0.49645315  1
  Nb  Nb100  1  0.90235340  0.10149401  0.50005371  1
  Nb  Nb101  1  0.30039262  0.90227981  0.50444843  1
  Nb  Nb102  1  0.09611448  0.69810761  0.70527323  1
  Nb  Nb103  1  0.89265640  0.50189906  0.10701137  1
  Nb  Nb104  1  0.49876343  0.50454966  0.70478266  1
  Nb  Nb105  1  0.91029188  0.70133536  0.70003336  1
  Nb  Nb106  1  0.10170903  0.30071126  0.49553063  1
  Nb  Nb107  1  0.09784132  0.89969105  0.29458656  1
  Nb  Nb108  1  0.89672827  0.50401936  0.29885306  1
  Nb  Nb109  1  0.09862575  0.49766817  0.50101773  1
  Nb  Nb110  1  0.69985298  0.90440801  0.69688532  1
  Nb  Nb111  1  0.49753207  0.89212649  0.30367968  1
  Nb  Nb112  1  0.49798076  0.89773759  0.49232218  1
  Nb  Nb113  1  0.89848015  0.30026882  0.89864012  1
  Nb  Nb114  1  0.30130077  0.29874118  0.69579649  1
  Nb  Nb115  1  0.29587224  0.09966380  0.29553934  1
  Nb  Nb116  1  0.50852063  0.30123712  0.10101833  1
  Nb  Nb117  1  0.29698111  0.30034303  0.50799486  1
  Nb  Nb118  1  0.90018710  0.69739783  0.10145667  1
  Nb  Nb119  1  0.30075140  0.50067346  0.89506528  1
  Nb  Nb120  1  0.89790717  0.09861352  0.69669766  1
  Nb  Nb121  1  0.49660068  0.50546667  0.89059343  1
  Nb  Nb122  1  0.10966141  0.09942971  0.09657499  1
  Nb  Nb123  1  0.90811698  0.29771914  0.50502486  1
  Nb  Nb124  1  0.29586923  0.69305598  0.29871176  1
  Nb  Nb125  1  0.80372035  0.60150320  0.79976160  1
  Nb  Nb126  1  0.59899069  0.19980869  0.80003328  1
  Nb  Nb127  1  0.20217415  0.20358113  0.78860393  1
  Nb  Nb128  1  0.60311141  0.59646128  0.19995948  1
  Nb  Nb129  1  0.59221988  0.80801718  0.59868646  1
  Nb  Nb130  1  0.80269808  0.00239224  0.60326234  1
  Nb  Nb131  1  0.20208180  0.60085867  0.79712782  1
  Nb  Nb132  1  0.20291979  0.20379786  0.60033508  1
  Nb  Nb133  1  -0.00707328  0.39527670  0.80443572  1
  Nb  Nb134  1  0.00926600  -0.00160122  0.19663867  1
  Nb  Nb135  1  0.19796460  0.00249139  0.20247982  1
  Nb  Nb136  1  0.40415636  0.80722269  0.59613418  1
  Nb  Nb137  1  -0.00984913  0.59835019  0.19988910  1
  Nb  Nb138  1  0.79952406  0.20040108  0.20369803  1
  Nb  Nb139  1  0.40159428  -0.00697859  0.59111835  1
  Nb  Nb140  1  0.00743994  0.00086577  0.00572669  1
  Nb  Nb141  1  0.20417052  0.19407406  0.19886300  1
  Nb  Nb142  1  0.00318188  0.40323795  0.40471639  1
  Nb  Nb143  1  0.80185462  0.79137664  0.19811842  1
  Nb  Nb144  1  0.40013499  0.79878570  0.21068981  1
  Nb  Nb145  1  0.80550118  0.20067810  0.40132099  1
  Nb  Nb146  1  0.20118094  0.01066704  0.79910669  1
  Nb  Nb147  1  0.80080575  0.59809018  0.00103382  1
  Nb  Nb148  1  0.19639490  0.59674416  0.39898119  1
  Nb  Nb149  1  0.80624292  0.60720273  0.60897586  1
  Pd  Pd150  1  0.39832469  0.20767989  -0.00490718  1
  Pd  Pd151  1  0.39329869  0.79401506  0.40150630  1
  Pd  Pd152  1  -0.00077154  0.59181901  0.01040266  1
  Pd  Pd153  1  0.00671107  0.20571182  0.80156366  1
  Pd  Pd154  1  0.20443857  0.60482019  -0.01142378  1
  Pd  Pd155  1  0.60610772  0.19881910  0.39230769  1
  Pd  Pd156  1  0.40678331  0.80310621  0.79074361  1
  Pd  Pd157  1  0.40306136  0.40418502  0.40646372  1
  Pd  Pd158  1  0.19575378  0.39600632  0.60604743  1
  Pd  Pd159  1  0.00953684  0.81006831  0.59268907  1
  Pd  Pd160  1  0.80157663  0.40223784  0.79985029  1
  Pd  Pd161  1  0.00982703  0.80296523  0.40725852  1
  Pd  Pd162  1  0.19972402  0.40540538  0.39898451  1
  Pd  Pd163  1  0.80406973  0.40643941  0.59188655  1
  Pd  Pd164  1  0.19878409  0.40045724  -0.00094196  1
  Pd  Pd165  1  0.40107271  0.40574893  -0.00587788  1
  Pd  Pd166  1  0.79584583  0.19450240  0.58788002  1
  Pd  Pd167  1  0.60768722  0.19576747  0.21219804  1
  Pd  Pd168  1  0.40748051  0.80454029  0.01027475  1
  Pd  Pd169  1  0.59971236  -0.00016440  0.20445169  1
  Pd  Pd170  1  0.00642967  0.40527432  0.00030629  1
  Pd  Pd171  1  0.19574896  0.79103534  0.40803657  1
  Pd  Pd172  1  0.39848016  0.20117041  0.39989510  1
  Pd  Pd173  1  -0.00275299  0.40651151  0.20046218  1
  Pd  Pd174  1  0.39616361  0.21241515  0.20408425  1
  Pd  Pd175  1  -0.00719666  0.19112743  -0.00223449  1
  Pd  Pd176  1  0.40344160  0.39476306  0.20231714  1
  Pd  Pd177  1  0.80277474  0.79788117  0.00186651  1
  Pd  Pd178  1  0.59464961  0.40779963  0.40467998  1
  Pd  Pd179  1  -0.00551150  0.80853708  -0.00336888  1
  Pd  Pd180  1  0.59173302  0.39086969  0.79172492  1
  Pd  Pd181  1  0.58930355  0.39565910  0.60160972  1
  Pd  Pd182  1  0.00094042  0.80438170  0.80688506  1
  Pd  Pd183  1  0.39752668  -0.00263881  0.39667786  1
  Pd  Pd184  1  -0.00160634  0.18849183  0.19792800  1
  Pd  Pd185  1  0.80354658  0.79586976  0.79697668  1
  Pd  Pd186  1  -0.00435256  -0.00635204  0.59418834  1
  Pd  Pd187  1  0.79974784  0.38654495  0.19952244  1
  Pd  Pd188  1  0.80978402  0.39203608  0.40836932  1
  Pd  Pd189  1  0.39040930  0.60506383  0.80186260  1
  Pd  Pd190  1  0.59968150  -0.00373626  0.39458433  1
  Pd  Pd191  1  0.20923655  0.01464606  0.61177281  1
  Pd  Pd192  1  0.59834999  0.79085950  0.20110314  1
  Pd  Pd193  1  0.19699243  0.79596986  0.59069469  1
  Pd  Pd194  1  0.60674559  0.59205637  0.39728145  1
  Pd  Pd195  1  0.40922026  -0.00509227  0.00380914  1
  Pd  Pd196  1  0.59527736  0.00404134  -0.00756094  1
  Pd  Pd197  1  0.41287121  0.60752074  0.20478836  1
  Pd  Pd198  1  0.18762567  0.39944543  0.79398855  1
  Pd  Pd199  1  0.60669832  0.00807775  0.80942197  1
  Rh  Rh200  1  0.60669549  0.59940605  0.79228995  1
  Rh  Rh201  1  -0.00405960  0.39902883  0.59621113  1
  Rh  Rh202  1  0.20176850  0.59823860  0.60276778  1
  Rh  Rh203  1  0.19893982  -0.00113556  0.00012797  1
  Rh  Rh204  1  0.19561382  0.79512655  0.80815666  1
  Rh  Rh205  1  0.40469621  0.40145594  0.59671716  1
  Rh  Rh206  1  0.38926854  -0.01753993  0.20869573  1
  Rh  Rh207  1  0.40731926  0.39931587  0.80114996  1
  Rh  Rh208  1  0.20118366  0.20252776  0.40177990  1
  Rh  Rh209  1  0.59986470  0.40449353  -0.00024148  1
  Rh  Rh210  1  0.20672073  0.38959199  0.19754074  1
  Rh  Rh211  1  0.60459582  0.58947105  0.00720780  1
  Rh  Rh212  1  0.39154571  0.60447808  0.60632621  1
  Rh  Rh213  1  0.80423141  0.20008405  0.00393226  1
  Rh  Rh214  1  0.01091840  0.59585558  0.38872217  1
  Rh  Rh215  1  0.60062347  -0.01010252  0.59211863  1
  Rh  Rh216  1  0.59500694  0.80229253  0.79421706  1
  Rh  Rh217  1  0.39259553  0.19108518  0.58438543  1
  Rh  Rh218  1  -0.01220442  0.79749615  0.20113451  1
  Rh  Rh219  1  0.19385119  0.00027954  0.39206728  1
  Rh  Rh220  1  0.80588030  -0.00542998  0.19659131  1
  Rh  Rh221  1  0.79560540  0.60576493  0.19168146  1
  Rh  Rh222  1  0.59335386  0.40667563  0.20279215  1
  Rh  Rh223  1  0.00803860  0.00146731  0.80778621  1
  Rh  Rh224  1  0.38700445  0.59339297  0.39777959  1
  Rh  Rh225  1  0.59944154  0.19264181  -0.01126103  1
  Rh  Rh226  1  0.00484223  0.59217448  0.79471855  1
  Rh  Rh227  1  0.59842755  0.21057309  0.60382381  1
  Rh  Rh228  1  0.79800099  0.00140550  0.79297152  1
  Rh  Rh229  1  0.61357205  0.60914556  0.60714353  1
  Rh  Rh230  1  0.79355751  0.60265668  0.41486760  1
  Rh  Rh231  1  0.21482979  0.80656909  0.20269013  1
  Rh  Rh232  1  0.18911042  0.60351729  0.20669915  1
  Rh  Rh233  1  0.20442896  0.79168242  -0.00311564  1
  Rh  Rh234  1  0.60239032  0.80255517  0.40516789  1
  Rh  Rh235  1  0.20831352  0.20824789  0.00136155  1
  Rh  Rh236  1  0.59522420  0.80944857  0.00026103  1
  Rh  Rh237  1  0.38975669  -0.01002232  0.79237730  1
  Rh  Rh238  1  -0.00657659  0.20869263  0.40392304  1
  Rh  Rh239  1  0.00608214  0.19838816  0.59522307  1
  Rh  Rh240  1  0.00469492  -0.00697761  0.39731872  1
  Rh  Rh241  1  0.39706756  0.59562220  -0.00819578  1
  Rh  Rh242  1  -0.00517869  0.59870859  0.60643690  1
  Rh  Rh243  1  0.79460251  0.00922667  0.41308123  1
  Rh  Rh244  1  0.80879634  -0.00206175  -0.00347047  1
  Rh  Rh245  1  0.79464367  0.40203021  0.00080561  1
  Rh  Rh246  1  0.79310428  0.79943154  0.39071122  1
  Rh  Rh247  1  0.40121566  0.21321005  0.80875553  1
  Rh  Rh248  1  0.79274113  0.80350810  0.60600982  1
  Rh  Rh249  1  0.79545782  0.19923542  0.80320822  1
