# generated using pymatgen
data_ZrScNbPdRh
_symmetry_space_group_name_H-M   'P 1'
_cell_length_a   16.55850418
_cell_length_b   16.56033441
_cell_length_c   16.55619842
_cell_angle_alpha   90.01038487
_cell_angle_beta   89.97157949
_cell_angle_gamma   90.01249222
_symmetry_Int_Tables_number   1
_chemical_formula_structural   ZrScNbPdRh
_chemical_formula_sum   'Zr50 Sc50 Nb50 Pd50 Rh50'
_cell_volume   4539.94672214
_cell_formula_units_Z   50
loop_
 _symmetry_equiv_pos_site_id
 _symmetry_equiv_pos_as_xyz
  1  'x, y, z'
loop_
 _atom_site_type_symbol
 _atom_site_label
 _atom_site_symmetry_multiplicity
 _atom_site_fract_x
 _atom_site_fract_y
 _atom_site_fract_z
 _atom_site_occupancy
  Zr  Zr0  1  0.50250909  0.30065236  0.69733986  1
  Zr  Zr1  1  0.69699646  0.29690463  0.49742669  1
  Zr  Zr2  1  0.89655695  0.70190415  0.08872452  1
  Zr  Zr3  1  0.10264602  0.69759730  0.29865362  1
  Zr  Zr4  1  0.29368471  0.70340237  0.89151658  1
  Zr  Zr5  1  0.30556670  0.70109160  0.28396974  1
  Zr  Zr6  1  0.89480361  0.30299833  0.29878791  1
  Zr  Zr7  1  0.49411399  0.29099658  0.30158289  1
  Zr  Zr8  1  0.69740327  0.09586720  0.49861122  1
  Zr  Zr9  1  0.10153142  0.30673576  0.09714154  1
  Zr  Zr10  1  0.10173789  0.30428587  0.70213263  1
  Zr  Zr11  1  0.89680456  0.10616609  0.30123734  1
  Zr  Zr12  1  0.09359293  0.70371689  0.50359090  1
  Zr  Zr13  1  0.50407934  0.30774429  0.89734857  1
  Zr  Zr14  1  0.49448043  0.09773955  0.29196493  1
  Zr  Zr15  1  0.89207756  0.69614149  0.50368050  1
  Zr  Zr16  1  0.70141970  0.09322251  0.70296107  1
  Zr  Zr17  1  0.90168334  0.90150332  0.29740070  1
  Zr  Zr18  1  0.09887994  0.30580805  0.89321792  1
  Zr  Zr19  1  0.70084143  0.49535093  0.30231453  1
  Zr  Zr20  1  0.70585132  0.50282134  0.50171922  1
  Zr  Zr21  1  0.49973457  0.70138485  0.30278437  1
  Zr  Zr22  1  0.69643761  0.29719977  0.29963086  1
  Zr  Zr23  1  0.90455405  0.69982615  0.70357389  1
  Zr  Zr24  1  0.29319551  0.09758332  0.70329285  1
  Zr  Zr25  1  0.69918335  0.89567647  0.51225636  1
  Zr  Zr26  1  0.29692593  0.50147585  0.89896096  1
  Zr  Zr27  1  0.70558362  0.70048282  0.49218932  1
  Zr  Zr28  1  0.10212348  0.28875676  0.50190781  1
  Zr  Zr29  1  0.50840751  0.50228097  0.70752363  1
  Zr  Zr30  1  0.69801905  0.89429713  0.90487693  1
  Zr  Zr31  1  0.90035166  0.30131181  0.90374884  1
  Zr  Zr32  1  0.90507960  0.09808589  0.90233748  1
  Zr  Zr33  1  0.89730977  0.29930818  0.09626351  1
  Zr  Zr34  1  0.29156856  0.49745760  0.30528876  1
  Zr  Zr35  1  0.50543302  0.91051971  0.09886826  1
  Zr  Zr36  1  0.50527902  0.49907976  0.89521168  1
  Zr  Zr37  1  0.09803810  0.69576371  0.90172294  1
  Zr  Zr38  1  0.89552552  0.89899586  0.70204201  1
  Zr  Zr39  1  0.91083395  0.90558072  0.10114077  1
  Zr  Zr40  1  0.49251613  0.50248233  0.29968636  1
  Zr  Zr41  1  0.71597533  0.70150729  0.90759977  1
  Zr  Zr42  1  0.09731969  0.69635107  0.69916717  1
  Zr  Zr43  1  0.09825696  0.49731236  0.28678364  1
  Zr  Zr44  1  0.31020672  0.51649905  0.69361411  1
  Zr  Zr45  1  0.10911846  0.50584502  0.48867517  1
  Zr  Zr46  1  0.31004573  0.09996982  0.09381503  1
  Zr  Zr47  1  0.51546550  0.70441997  0.89674194  1
  Zr  Zr48  1  0.10395461  0.10331229  0.09535832  1
  Zr  Zr49  1  0.69662013  0.29638279  0.69741523  1
  Sc  Sc50  1  0.70223041  0.70598003  0.70186875  1
  Sc  Sc51  1  0.89606418  0.49738426  0.50013025  1
  Sc  Sc52  1  0.70364038  0.90254239  0.70613066  1
  Sc  Sc53  1  0.70307405  0.09933196  0.89572960  1
  Sc  Sc54  1  0.10073121  0.70330433  0.10125247  1
  Sc  Sc55  1  0.49561454  0.09817207  0.48896948  1
  Sc  Sc56  1  0.10217775  0.30082821  0.29521410  1
  Sc  Sc57  1  0.10594644  0.49412391  0.89378777  1
  Sc  Sc58  1  0.70554009  0.30423303  0.90404980  1
  Sc  Sc59  1  0.48534270  0.70316473  0.10942329  1
  Sc  Sc60  1  0.89985840  0.49118393  0.29712220  1
  Sc  Sc61  1  0.90630024  0.89671973  0.89998827  1
  Sc  Sc62  1  0.28834648  0.10180213  0.49606918  1
  Sc  Sc63  1  0.10172492  0.89079601  0.29805093  1
  Sc  Sc64  1  0.89839352  0.88772118  0.50454833  1
  Sc  Sc65  1  0.90371518  0.29727421  0.48996394  1
  Sc  Sc66  1  0.30211873  0.29044957  0.69990462  1
  Sc  Sc67  1  0.10425696  0.11044163  0.70149582  1
  Sc  Sc68  1  0.68493008  0.10246564  0.30380245  1
  Sc  Sc69  1  0.29362013  0.29075762  0.30034912  1
  Sc  Sc70  1  0.09993173  0.90324035  0.90701516  1
  Sc  Sc71  1  0.50160539  0.10723836  0.70786061  1
  Sc  Sc72  1  0.49936444  0.49206073  0.09806528  1
  Sc  Sc73  1  0.50181995  0.69757414  0.70389413  1
  Sc  Sc74  1  0.30104706  0.90024155  0.29845778  1
  Sc  Sc75  1  0.10299886  0.89394423  0.49924613  1
  Sc  Sc76  1  0.29381203  0.50057731  0.09836512  1
  Sc  Sc77  1  0.29339538  0.70020498  0.09764738  1
  Sc  Sc78  1  0.29609102  0.29628053  0.09824240  1
  Sc  Sc79  1  0.29973320  0.30494884  0.89885833  1
  Sc  Sc80  1  0.29007909  0.90589583  0.49817377  1
  Sc  Sc81  1  0.48442589  0.49590971  0.51175720  1
  Sc  Sc82  1  0.90853669  0.30502796  0.70501815  1
  Sc  Sc83  1  0.70690175  0.49352812  0.70464889  1
  Sc  Sc84  1  0.90768171  0.09907748  0.10226420  1
  Sc  Sc85  1  0.51015329  0.70237348  0.50442436  1
  Sc  Sc86  1  0.28537988  0.68974970  0.51201522  1
  Sc  Sc87  1  0.49202819  0.90862369  0.30093942  1
  Sc  Sc88  1  0.50344220  0.10136308  0.90961235  1
  Sc  Sc89  1  0.10192706  0.89929184  0.69649654  1
  Sc  Sc90  1  0.69917717  0.90465213  0.30801294  1
  Sc  Sc91  1  0.49983868  0.29163284  0.09491018  1
  Sc  Sc92  1  0.90352189  0.50204052  0.70066188  1
  Sc  Sc93  1  0.50474914  0.90447215  0.49921577  1
  Sc  Sc94  1  0.51125817  0.90200077  0.89957362  1
  Sc  Sc95  1  0.89898588  0.09736211  0.71236022  1
  Sc  Sc96  1  0.51418013  0.89418356  0.70477663  1
  Sc  Sc97  1  0.89948145  0.49136305  0.10307652  1
  Sc  Sc98  1  0.69623847  0.30971214  0.09598178  1
  Sc  Sc99  1  0.10924681  0.11311624  0.30209382  1
  Nb  Nb100  1  0.10460783  0.09836612  0.89655713  1
  Nb  Nb101  1  0.09895237  0.90110625  0.10320922  1
  Nb  Nb102  1  0.50576895  0.09819514  0.10703640  1
  Nb  Nb103  1  0.09943296  0.50019263  0.09474606  1
  Nb  Nb104  1  0.30862108  0.30857039  0.49839822  1
  Nb  Nb105  1  0.89145182  0.50820087  0.89734343  1
  Nb  Nb106  1  0.29904785  0.71062887  0.69964119  1
  Nb  Nb107  1  0.09756261  0.48918420  0.70146661  1
  Nb  Nb108  1  0.29185594  0.08909164  0.89888113  1
  Nb  Nb109  1  0.29802774  0.90164718  0.89789855  1
  Nb  Nb110  1  0.70090788  0.50216094  0.09997843  1
  Nb  Nb111  1  0.30216716  0.09592920  0.29510726  1
  Nb  Nb112  1  0.29826636  0.89720373  0.70421871  1
  Nb  Nb113  1  0.70130491  0.69761407  0.30530100  1
  Nb  Nb114  1  0.90267728  0.10803196  0.49560331  1
  Nb  Nb115  1  0.90448329  0.69510141  0.89872911  1
  Nb  Nb116  1  0.68733198  0.09040569  0.10687344  1
  Nb  Nb117  1  0.09506912  0.10357353  0.50017676  1
  Nb  Nb118  1  0.30181607  0.89816038  0.09833900  1
  Nb  Nb119  1  0.29983684  0.49882664  0.49808936  1
  Nb  Nb120  1  0.70086432  0.89718996  0.09723506  1
  Nb  Nb121  1  0.70229180  0.70498296  0.09586929  1
  Nb  Nb122  1  0.49256075  0.30191320  0.49923502  1
  Nb  Nb123  1  0.89223876  0.70130408  0.30469556  1
  Nb  Nb124  1  0.70036917  0.50326086  0.90587774  1
  Nb  Nb125  1  -0.00042151  0.00608806  0.40557713  1
  Nb  Nb126  1  -0.00106594  0.00797081  0.59172074  1
  Nb  Nb127  1  0.60371641  0.60197233  0.00634085  1
  Nb  Nb128  1  0.39365086  0.80310446  0.60291716  1
  Nb  Nb129  1  0.39197071  0.60306037  0.40477854  1
  Nb  Nb130  1  0.60705606  0.60495429  0.19716057  1
  Nb  Nb131  1  0.79537563  0.79786950  0.20020745  1
  Nb  Nb132  1  0.79408817  0.60630276  0.19972064  1
  Nb  Nb133  1  0.60830564  0.79690852  0.19963344  1
  Nb  Nb134  1  0.39279966  -0.00404194  0.80210331  1
  Nb  Nb135  1  -0.00278138  0.59605086  -0.00488952  1
  Nb  Nb136  1  0.60499515  0.59671682  0.60129172  1
  Nb  Nb137  1  0.39494463  0.80450568  -0.00557824  1
  Nb  Nb138  1  0.39447123  -0.00494871  0.61010516  1
  Nb  Nb139  1  0.58943258  0.39689146  0.40580628  1
  Nb  Nb140  1  0.79664793  -0.00179764  0.00877389  1
  Nb  Nb141  1  0.40288554  0.60443622  -0.00694314  1
  Nb  Nb142  1  0.20584027  0.40328558  0.59558249  1
  Nb  Nb143  1  0.80151981  0.19578159  0.59866113  1
  Nb  Nb144  1  0.80665945  0.00320441  0.40658740  1
  Nb  Nb145  1  0.39592164  0.79371776  0.40804349  1
  Nb  Nb146  1  -0.00206775  0.60405146  0.39387626  1
  Nb  Nb147  1  0.39557247  0.39650268  0.20397054  1
  Nb  Nb148  1  0.79206428  0.19698385  0.19625280  1
  Nb  Nb149  1  0.20356014  -0.00067586  0.19237344  1
  Pd  Pd150  1  0.20015849  0.59923237  0.19259818  1
  Pd  Pd151  1  0.19418837  -0.00018442  0.60224125  1
  Pd  Pd152  1  0.19166817  0.59401870  0.60808372  1
  Pd  Pd153  1  0.19189871  0.00133312  0.38844860  1
  Pd  Pd154  1  -0.00244580  0.20469240  0.20099263  1
  Pd  Pd155  1  0.59074990  0.40051663  0.20345877  1
  Pd  Pd156  1  0.39385352  0.39830199  0.79138791  1
  Pd  Pd157  1  0.20181930  0.20310128  0.80768351  1
  Pd  Pd158  1  0.00690512  0.19920864  -0.00538323  1
  Pd  Pd159  1  0.21018801  0.79243360  0.39999471  1
  Pd  Pd160  1  0.19718446  0.38861407  0.40257742  1
  Pd  Pd161  1  0.40483497  -0.00430437  -0.00796824  1
  Pd  Pd162  1  0.20015605  0.80180192  0.00254021  1
  Pd  Pd163  1  -0.01011646  0.60249512  0.19602816  1
  Pd  Pd164  1  0.80925891  0.38854891  0.59825257  1
  Pd  Pd165  1  0.40650987  0.80686715  0.80016075  1
  Pd  Pd166  1  0.01731934  0.00811354  0.21248559  1
  Pd  Pd167  1  0.58976950  0.58892233  0.40762654  1
  Pd  Pd168  1  0.81180121  0.00587017  0.59557380  1
  Pd  Pd169  1  0.59883614  0.40713626  0.59498400  1
  Pd  Pd170  1  -0.00265358  0.41042036  -0.00699889  1
  Pd  Pd171  1  0.18737976  0.80547336  0.80043377  1
  Pd  Pd172  1  0.19571061  0.59604733  0.79211650  1
  Pd  Pd173  1  0.80129570  0.39839671  0.80223786  1
  Pd  Pd174  1  0.39555364  0.40321383  0.00654203  1
  Pd  Pd175  1  0.39396704  0.39793371  0.61183559  1
  Pd  Pd176  1  0.80298817  0.20524686  0.79482948  1
  Pd  Pd177  1  0.00527913  0.40311777  0.59042685  1
  Pd  Pd178  1  0.60719347  0.19863478  0.00090343  1
  Pd  Pd179  1  0.58673804  0.00578038  0.60503530  1
  Pd  Pd180  1  0.39117467  0.19276537  0.40261610  1
  Pd  Pd181  1  0.01005841  0.00013749  0.79258409  1
  Pd  Pd182  1  0.00523366  0.80454600  0.80150983  1
  Pd  Pd183  1  -0.00917552  0.19593976  0.61108926  1
  Pd  Pd184  1  0.00001632  0.59017155  0.59350925  1
  Pd  Pd185  1  0.39889471  0.19210154  0.81170547  1
  Pd  Pd186  1  0.39888281  0.20128743  -0.00825363  1
  Pd  Pd187  1  0.20170199  0.20489281  -0.00931872  1
  Pd  Pd188  1  0.79684542  0.60196504  0.79307420  1
  Pd  Pd189  1  0.40234772  0.60834902  0.80454703  1
  Pd  Pd190  1  0.19700188  -0.00417408  0.00509227  1
  Pd  Pd191  1  0.79104163  0.00161206  0.20335904  1
  Pd  Pd192  1  0.60220650  0.20128161  0.80749717  1
  Pd  Pd193  1  0.00474422  0.40280006  0.40002935  1
  Pd  Pd194  1  -0.00455085  0.79151558  0.19787088  1
  Pd  Pd195  1  0.59415681  0.80972138  0.39507394  1
  Pd  Pd196  1  0.59735840  0.19157959  0.59489470  1
  Pd  Pd197  1  0.39699843  0.18872613  0.59376025  1
  Pd  Pd198  1  -0.00409995  0.79875554  0.40057336  1
  Pd  Pd199  1  0.78998242  0.18714947  0.01111003  1
  Rh  Rh200  1  0.60204865  0.40532589  -0.00329014  1
  Rh  Rh201  1  0.39317911  -0.00046142  0.19690277  1
  Rh  Rh202  1  0.60804830  0.00748720  -0.00465250  1
  Rh  Rh203  1  0.00468973  0.59081532  0.80506284  1
  Rh  Rh204  1  0.59644397  0.00363396  0.80274581  1
  Rh  Rh205  1  0.58511258  0.79222990  0.01462257  1
  Rh  Rh206  1  0.60153168  -0.00981614  0.20814305  1
  Rh  Rh207  1  0.79826078  0.39561821  0.19545209  1
  Rh  Rh208  1  0.80006801  0.81211759  0.39653822  1
  Rh  Rh209  1  0.61118573  0.79837090  0.79848133  1
  Rh  Rh210  1  0.79946827  -0.00713036  0.81597396  1
  Rh  Rh211  1  0.39990923  0.58696268  0.19321694  1
  Rh  Rh212  1  0.00384772  0.79538220  -0.00070144  1
  Rh  Rh213  1  0.21208648  0.40562928  0.78418204  1
  Rh  Rh214  1  0.61367846  0.60069226  0.80100391  1
  Rh  Rh215  1  0.80266703  0.59089436  0.00581197  1
  Rh  Rh216  1  0.60381583  -0.00320537  0.40016505  1
  Rh  Rh217  1  0.81158249  0.58911014  0.39132278  1
  Rh  Rh218  1  0.19654378  -0.00331655  0.79955676  1
  Rh  Rh219  1  0.20384358  0.39962569  0.19299174  1
  Rh  Rh220  1  0.40063875  0.40335621  0.39283016  1
  Rh  Rh221  1  0.80527386  0.80005109  0.80378913  1
  Rh  Rh222  1  0.40536539  0.81355007  0.19714701  1
  Rh  Rh223  1  0.59043137  0.20437609  0.40577817  1
  Rh  Rh224  1  0.20829944  0.20826298  0.59408353  1
  Rh  Rh225  1  0.40819893  0.61542035  0.59514716  1
  Rh  Rh226  1  0.79899121  0.79522270  0.60603042  1
  Rh  Rh227  1  0.20097777  0.80186007  0.60168327  1
  Rh  Rh228  1  0.39796308  0.20266369  0.19569993  1
  Rh  Rh229  1  0.19582868  0.59725352  -0.00004658  1
  Rh  Rh230  1  0.20505596  0.20302915  0.40283710  1
  Rh  Rh231  1  0.00157299  0.00332333  -0.00206268  1
  Rh  Rh232  1  0.79294191  0.19426020  0.39783575  1
  Rh  Rh233  1  0.00191495  0.39443929  0.19617679  1
  Rh  Rh234  1  0.00284767  0.19982881  0.80445614  1
  Rh  Rh235  1  0.00531965  0.20159412  0.39113333  1
  Rh  Rh236  1  0.79490875  0.60276138  0.60746473  1
  Rh  Rh237  1  0.80157855  0.40649988  -0.00142774  1
  Rh  Rh238  1  0.59937418  0.79424934  0.60371106  1
  Rh  Rh239  1  0.60250328  0.20332031  0.19065443  1
  Rh  Rh240  1  0.39270357  -0.00524018  0.40772884  1
  Rh  Rh241  1  0.20040939  0.40013170  0.00065338  1
  Rh  Rh242  1  0.20691176  0.19102144  0.19449698  1
  Rh  Rh243  1  0.20048663  0.60830602  0.39425383  1
  Rh  Rh244  1  0.61065609  0.39562001  0.80313908  1
  Rh  Rh245  1  0.79430211  0.39910125  0.40315235  1
  Rh  Rh246  1  -0.00065403  0.80674445  0.60525403  1
  Rh  Rh247  1  -0.00821805  0.40679977  0.80726220  1
  Rh  Rh248  1  0.20033896  0.80863808  0.19459828  1
  Rh  Rh249  1  0.81261705  0.81358015  0.00165944  1
