# generated using pymatgen
data_ZrScNbPdRh
_symmetry_space_group_name_H-M   'P 1'
_cell_length_a   16.55767072
_cell_length_b   16.56250945
_cell_length_c   16.56075792
_cell_angle_alpha   89.96027375
_cell_angle_beta   90.04105117
_cell_angle_gamma   90.02064896
_symmetry_Int_Tables_number   1
_chemical_formula_structural   ZrScNbPdRh
_chemical_formula_sum   'Zr50 Sc50 Nb50 Pd50 Rh50'
_cell_volume   4541.56302660
_cell_formula_units_Z   50
loop_
 _symmetry_equiv_pos_site_id
 _symmetry_equiv_pos_as_xyz
  1  'x, y, z'
loop_
 _atom_site_type_symbol
 _atom_site_label
 _atom_site_symmetry_multiplicity
 _atom_site_fract_x
 _atom_site_fract_y
 _atom_site_fract_z
 _atom_site_occupancy
  Zr  Zr0  1  0.30543489  0.69566051  0.30798739  1
  Zr  Zr1  1  0.30240628  0.49827935  0.30429830  1
  Zr  Zr2  1  0.10119633  0.70150083  0.70690109  1
  Zr  Zr3  1  0.30903591  0.49862092  0.90308808  1
  Zr  Zr4  1  0.70406923  0.50085681  0.30276241  1
  Zr  Zr5  1  0.50787999  0.70366602  0.30661693  1
  Zr  Zr6  1  0.09621887  0.10616389  0.08826855  1
  Zr  Zr7  1  0.30530122  0.10010932  0.30101786  1
  Zr  Zr8  1  0.49736600  0.89947988  0.09151021  1
  Zr  Zr9  1  0.89962226  0.49525756  0.29868137  1
  Zr  Zr10  1  0.50472014  0.49092841  0.30060065  1
  Zr  Zr11  1  0.70999734  0.49369760  0.69967119  1
  Zr  Zr12  1  0.30154328  0.70650678  0.09687052  1
  Zr  Zr13  1  0.10554809  0.70264230  0.10263919  1
  Zr  Zr14  1  0.70007371  0.90409166  0.10182101  1
  Zr  Zr15  1  0.89303564  0.10401560  0.30057516  1
  Zr  Zr16  1  0.10014787  0.30052692  0.49909666  1
  Zr  Zr17  1  0.28808392  0.30938264  0.09624271  1
  Zr  Zr18  1  0.90164805  0.49210870  0.71016613  1
  Zr  Zr19  1  0.69641367  0.69798859  0.49958382  1
  Zr  Zr20  1  0.50203366  0.09816300  0.30736800  1
  Zr  Zr21  1  0.89712647  0.10097484  0.49950933  1
  Zr  Zr22  1  0.90268383  0.70473622  0.90325192  1
  Zr  Zr23  1  0.10674952  0.28804758  0.91271890  1
  Zr  Zr24  1  0.89829251  0.91388102  0.69952572  1
  Zr  Zr25  1  0.08994272  0.50735708  0.30442161  1
  Zr  Zr26  1  0.68892970  0.29366334  0.90551574  1
  Zr  Zr27  1  0.30144672  0.89902612  0.50784783  1
  Zr  Zr28  1  0.30230982  0.51010624  0.09952007  1
  Zr  Zr29  1  0.50448067  0.28350280  0.70155280  1
  Zr  Zr30  1  0.10073196  0.70967068  0.90440884  1
  Zr  Zr31  1  0.91466602  0.68947929  0.30356657  1
  Zr  Zr32  1  0.09099851  0.09876325  0.70241434  1
  Zr  Zr33  1  0.69907003  0.09606912  0.29797247  1
  Zr  Zr34  1  0.09403842  0.69643064  0.49100891  1
  Zr  Zr35  1  0.49643399  0.30379041  0.89866212  1
  Zr  Zr36  1  0.50113527  0.69870556  0.49968390  1
  Zr  Zr37  1  0.30119031  0.89878109  0.09890584  1
  Zr  Zr38  1  0.89706456  0.70272094  0.10185743  1
  Zr  Zr39  1  0.30915537  0.49792811  0.50348875  1
  Zr  Zr40  1  0.09076111  0.50509246  0.89679154  1
  Zr  Zr41  1  0.09673651  0.90005724  0.50330493  1
  Zr  Zr42  1  0.70205661  0.69562505  0.10383545  1
  Zr  Zr43  1  0.51592716  0.30573167  0.09840931  1
  Zr  Zr44  1  0.70348103  0.10241228  0.90434504  1
  Zr  Zr45  1  0.89771011  0.70150259  0.49996360  1
  Zr  Zr46  1  0.51207927  0.70334265  0.89400598  1
  Zr  Zr47  1  0.50089090  0.10204098  0.50158824  1
  Zr  Zr48  1  0.30265731  0.30199581  0.89720826  1
  Zr  Zr49  1  0.30180266  0.90017131  0.69641188  1
  Sc  Sc50  1  0.70503323  0.89994254  0.49932132  1
  Sc  Sc51  1  0.89467194  0.29445875  0.49932478  1
  Sc  Sc52  1  0.70034735  0.90080270  0.69359897  1
  Sc  Sc53  1  0.51033389  0.70341287  0.69147405  1
  Sc  Sc54  1  0.90443742  0.08708486  0.89994602  1
  Sc  Sc55  1  0.09968726  0.90025907  0.69573962  1
  Sc  Sc56  1  0.30457301  0.30764875  0.30744634  1
  Sc  Sc57  1  0.09739656  0.49113027  0.10382345  1
  Sc  Sc58  1  0.09641654  0.31397317  0.30612851  1
  Sc  Sc59  1  0.30032298  0.10828169  0.89741347  1
  Sc  Sc60  1  0.30842297  0.89682273  0.90671592  1
  Sc  Sc61  1  0.09600152  0.89634881  0.29804505  1
  Sc  Sc62  1  0.09633931  0.29282647  0.70790423  1
  Sc  Sc63  1  0.30051648  0.30337548  0.49501568  1
  Sc  Sc64  1  0.69523530  0.29784241  0.29518597  1
  Sc  Sc65  1  0.30275447  0.09152493  0.10386612  1
  Sc  Sc66  1  0.30068060  0.90977158  0.30019037  1
  Sc  Sc67  1  0.89581963  0.49946909  0.11162841  1
  Sc  Sc68  1  0.09974130  0.09310784  0.30536491  1
  Sc  Sc69  1  0.89499840  0.30020593  0.10269340  1
  Sc  Sc70  1  0.89951878  0.90544568  0.29289501  1
  Sc  Sc71  1  0.50282860  0.09004808  0.10681710  1
  Sc  Sc72  1  0.89411554  0.50122462  0.89453941  1
  Sc  Sc73  1  0.10859549  0.49308433  0.49343792  1
  Sc  Sc74  1  0.09646163  0.09562130  0.50014476  1
  Sc  Sc75  1  0.69477033  0.50443749  0.10491652  1
  Sc  Sc76  1  0.29547262  0.70446995  0.91285396  1
  Sc  Sc77  1  0.69873385  0.69759305  0.29719859  1
  Sc  Sc78  1  0.90123919  0.90083136  0.50321438  1
  Sc  Sc79  1  0.31273286  0.09345310  0.69645468  1
  Sc  Sc80  1  0.49418241  0.49771109  0.69416592  1
  Sc  Sc81  1  0.89032062  0.09835782  0.09525452  1
  Sc  Sc82  1  0.89736562  0.70015876  0.69886859  1
  Sc  Sc83  1  0.69868403  0.89938827  0.30019124  1
  Sc  Sc84  1  0.69887510  0.10219458  0.49466824  1
  Sc  Sc85  1  0.49992954  0.89657030  0.49754188  1
  Sc  Sc86  1  0.50044504  0.29587328  0.48883001  1
  Sc  Sc87  1  0.30990821  0.30401291  0.69979951  1
  Sc  Sc88  1  0.09564661  0.89778680  0.10291887  1
  Sc  Sc89  1  0.49705138  0.10706958  0.89622114  1
  Sc  Sc90  1  0.69484001  0.90055935  0.90271428  1
  Sc  Sc91  1  0.88999472  0.49654254  0.49581689  1
  Sc  Sc92  1  0.30061188  0.09396909  0.49488348  1
  Sc  Sc93  1  0.89946807  0.30356226  0.89827362  1
  Sc  Sc94  1  0.69969442  0.50301077  0.49507845  1
  Sc  Sc95  1  0.69902666  0.70190389  0.69462088  1
  Sc  Sc96  1  0.69767298  0.69098683  0.89854736  1
  Sc  Sc97  1  0.70123639  0.10588568  0.09808505  1
  Sc  Sc98  1  0.50636682  0.69395256  0.09877603  1
  Sc  Sc99  1  0.89510007  0.30588474  0.29847396  1
  Nb  Nb100  1  0.49302502  0.90635807  0.70313320  1
  Nb  Nb101  1  0.69822738  0.29928155  0.50908948  1
  Nb  Nb102  1  0.30167209  0.70236458  0.69964653  1
  Nb  Nb103  1  0.88890341  0.30126586  0.69583780  1
  Nb  Nb104  1  0.29933584  0.50004528  0.69996053  1
  Nb  Nb105  1  0.50085035  0.89867253  0.89217503  1
  Nb  Nb106  1  0.50670451  0.49966433  0.90117126  1
  Nb  Nb107  1  0.50306370  0.90142866  0.29671130  1
  Nb  Nb108  1  0.30313202  0.69985004  0.50412216  1
  Nb  Nb109  1  0.89738417  0.89834268  0.08545768  1
  Nb  Nb110  1  0.50301070  0.50338612  0.09612693  1
  Nb  Nb111  1  0.89412716  0.10601878  0.69816407  1
  Nb  Nb112  1  0.69707381  0.49749864  0.89496271  1
  Nb  Nb113  1  0.10107600  0.69629217  0.30400055  1
  Nb  Nb114  1  0.08584813  0.90595169  0.89844959  1
  Nb  Nb115  1  0.10079181  0.50071411  0.70184729  1
  Nb  Nb116  1  0.51162606  0.49842459  0.50000896  1
  Nb  Nb117  1  0.90130584  0.89930325  0.90455199  1
  Nb  Nb118  1  0.49916460  0.29727246  0.30062729  1
  Nb  Nb119  1  0.69162457  0.10673571  0.69693153  1
  Nb  Nb120  1  0.09671715  0.29697759  0.10072564  1
  Nb  Nb121  1  0.10121973  0.10024038  0.89795231  1
  Nb  Nb122  1  0.70450878  0.29569259  0.09381134  1
  Nb  Nb123  1  0.70304437  0.29746241  0.69767704  1
  Nb  Nb124  1  0.50055160  0.09604005  0.69885480  1
  Nb  Nb125  1  0.19770728  0.20434721  0.20003566  1
  Nb  Nb126  1  0.19166312  0.00183850  -0.00907712  1
  Nb  Nb127  1  0.40025261  0.20780951  0.19919150  1
  Nb  Nb128  1  0.60153013  0.39861455  0.79734581  1
  Nb  Nb129  1  0.40073642  0.20663223  0.01114454  1
  Nb  Nb130  1  -0.00247446  0.40021667  0.60645407  1
  Nb  Nb131  1  0.20094348  0.79335713  0.40358666  1
  Nb  Nb132  1  0.80522264  0.79539017  0.39920074  1
  Nb  Nb133  1  -0.00196359  0.60413775  0.00177449  1
  Nb  Nb134  1  0.00565106  0.59068575  0.60394159  1
  Nb  Nb135  1  0.40461256  0.80259134  0.20245652  1
  Nb  Nb136  1  0.79863107  0.19777986  0.79139912  1
  Nb  Nb137  1  0.00565947  0.20172551  0.19820264  1
  Nb  Nb138  1  0.80255931  0.80735965  0.80317401  1
  Nb  Nb139  1  0.19516909  -0.00069845  0.80673567  1
  Nb  Nb140  1  0.20427599  0.60067637  0.60375099  1
  Nb  Nb141  1  0.60402948  0.39356690  0.60197916  1
  Nb  Nb142  1  0.19925743  0.19869814  0.60030220  1
  Nb  Nb143  1  0.78822437  0.39978541  -0.00056266  1
  Nb  Nb144  1  0.20015361  0.40627357  0.79976690  1
  Nb  Nb145  1  0.39690411  0.60478061  0.79781870  1
  Nb  Nb146  1  0.40405608  0.79736157  0.79710360  1
  Nb  Nb147  1  0.19983525  0.60294414  0.20605210  1
  Nb  Nb148  1  0.59489221  0.00354544  0.79409394  1
  Nb  Nb149  1  0.20627793  0.59847684  0.79696498  1
  Pd  Pd150  1  -0.00558517  0.80159447  0.19995822  1
  Pd  Pd151  1  0.59608983  0.00586922  -0.00795657  1
  Pd  Pd152  1  0.40249359  0.39708978  0.19311916  1
  Pd  Pd153  1  0.40309598  0.60591429  0.20139969  1
  Pd  Pd154  1  -0.00643388  -0.00390404  0.39911622  1
  Pd  Pd155  1  0.59585310  0.80269962  0.19665344  1
  Pd  Pd156  1  0.79351292  0.39176983  0.40228319  1
  Pd  Pd157  1  0.60519652  0.79690025  0.00184271  1
  Pd  Pd158  1  0.19844196  0.20104861  0.39947206  1
  Pd  Pd159  1  0.59914360  -0.00306184  0.60046486  1
  Pd  Pd160  1  0.41203532  0.39075168  0.59559126  1
  Pd  Pd161  1  -0.00866416  0.80707439  0.79228033  1
  Pd  Pd162  1  0.60738576  0.40163377  0.20009416  1
  Pd  Pd163  1  0.79926466  0.61057623  0.79766184  1
  Pd  Pd164  1  0.40195919  0.60332006  0.60400835  1
  Pd  Pd165  1  -0.00286775  0.79564815  0.60615760  1
  Pd  Pd166  1  0.80573505  0.59588718  0.60303758  1
  Pd  Pd167  1  0.39254959  0.20066103  0.59254377  1
  Pd  Pd168  1  0.60171786  -0.00684318  0.40376858  1
  Pd  Pd169  1  -0.01506886  0.19964003  0.00053091  1
  Pd  Pd170  1  0.20842689  0.80687802  0.80896393  1
  Pd  Pd171  1  0.00650431  0.38787613  0.80100507  1
  Pd  Pd172  1  0.19442570  0.39413767  0.60787105  1
  Pd  Pd173  1  0.00128032  0.20546459  0.59851817  1
  Pd  Pd174  1  0.39706776  0.01019819  -0.00948702  1
  Pd  Pd175  1  -0.01246345  0.20061393  0.80577872  1
  Pd  Pd176  1  0.00065231  0.20323676  0.39051158  1
  Pd  Pd177  1  0.59727949  0.19537953  0.19894070  1
  Pd  Pd178  1  0.19383608  0.40980118  -0.00717509  1
  Pd  Pd179  1  0.79128882  0.20682438  0.39790790  1
  Pd  Pd180  1  0.19818399  -0.00878997  0.40235275  1
  Pd  Pd181  1  0.80283917  0.58931325  0.00192797  1
  Pd  Pd182  1  0.78884484  0.80100405  -0.00708530  1
  Pd  Pd183  1  0.59835046  0.80927550  0.59796592  1
  Pd  Pd184  1  0.19137590  0.00652453  0.19350247  1
  Pd  Pd185  1  0.59486798  0.59098664  0.78730193  1
  Pd  Pd186  1  0.21029978  0.19686720  0.78771496  1
  Pd  Pd187  1  0.39550388  0.80909600  0.39622186  1
  Pd  Pd188  1  -0.00277523  0.00746270  0.19230573  1
  Pd  Pd189  1  0.80591009  0.79831181  0.20916622  1
  Pd  Pd190  1  0.40475633  0.39813097  0.01016525  1
  Pd  Pd191  1  0.41073470  0.59254491  0.40418842  1
  Pd  Pd192  1  0.79429081  0.00715670  0.59482449  1
  Pd  Pd193  1  0.19534328  0.40360103  0.20803485  1
  Pd  Pd194  1  0.20827498  0.79694254  0.21349643  1
  Pd  Pd195  1  0.79005016  0.00018684  0.80143012  1
  Pd  Pd196  1  0.79987983  0.00045001  0.19482473  1
  Pd  Pd197  1  0.19643876  0.79282523  0.59350386  1
  Pd  Pd198  1  -0.01248161  0.40628277  0.00542670  1
  Pd  Pd199  1  0.41080517  0.60804436  -0.00883527  1
  Rh  Rh200  1  0.60521158  0.20283672  0.39934504  1
  Rh  Rh201  1  0.18806987  0.59394248  0.00487975  1
  Rh  Rh202  1  0.80173644  0.80177540  0.59979544  1
  Rh  Rh203  1  0.00894133  0.60088166  0.18957575  1
  Rh  Rh204  1  0.60367550  0.39344106  0.40556684  1
  Rh  Rh205  1  0.80447056  0.20590183  -0.01001497  1
  Rh  Rh206  1  0.79961959  0.60819372  0.39463406  1
  Rh  Rh207  1  -0.00056395  0.00126022  0.79675631  1
  Rh  Rh208  1  0.59874955  0.20103254  0.59285111  1
  Rh  Rh209  1  -0.00279227  0.39179892  0.19880617  1
  Rh  Rh210  1  0.40615339  -0.00009177  0.59150439  1
  Rh  Rh211  1  0.00165177  0.60720942  0.80212815  1
  Rh  Rh212  1  0.58895962  0.18956680  0.00812899  1
  Rh  Rh213  1  0.20321513  0.40372869  0.39734391  1
  Rh  Rh214  1  0.00051874  -0.00136478  0.00409039  1
  Rh  Rh215  1  0.40420540  -0.00453401  0.40259455  1
  Rh  Rh216  1  0.79542270  0.19321236  0.60139670  1
  Rh  Rh217  1  0.20570983  0.60157243  0.40319603  1
  Rh  Rh218  1  0.80493707  0.20158733  0.20134442  1
  Rh  Rh219  1  0.60227634  0.59644681  0.00110841  1
  Rh  Rh220  1  0.39878698  0.19970645  0.39438171  1
  Rh  Rh221  1  -0.00330831  0.00532855  0.59943733  1
  Rh  Rh222  1  0.60288802  -0.00188545  0.20035470  1
  Rh  Rh223  1  0.40509760  0.40794910  0.79724644  1
  Rh  Rh224  1  0.80005738  0.60041809  0.20570371  1
  Rh  Rh225  1  0.39896102  -0.00378441  0.80566122  1
  Rh  Rh226  1  0.59917336  0.59775186  0.39751479  1
  Rh  Rh227  1  0.40692509  0.79894705  0.60560432  1
  Rh  Rh228  1  -0.00520353  0.58624911  0.41360107  1
  Rh  Rh229  1  0.19020215  0.81862377  -0.00574698  1
  Rh  Rh230  1  0.78902724  0.38644101  0.81196346  1
  Rh  Rh231  1  0.60382023  0.19542869  0.80051165  1
  Rh  Rh232  1  0.59545803  0.59532393  0.20421667  1
  Rh  Rh233  1  0.80048959  0.39973221  0.59308364  1
  Rh  Rh234  1  0.21217608  0.19088097  0.00901451  1
  Rh  Rh235  1  0.79767178  -0.00422048  0.00030895  1
  Rh  Rh236  1  0.79166909  0.39738471  0.19172777  1
  Rh  Rh237  1  -0.00653233  0.39984566  0.41190418  1
  Rh  Rh238  1  0.40758067  -0.00307699  0.20655860  1
  Rh  Rh239  1  0.80260264  -0.00767542  0.40051388  1
  Rh  Rh240  1  0.00263475  0.79937847  0.00758651  1
  Rh  Rh241  1  0.60347028  0.81329679  0.79206796  1
  Rh  Rh242  1  0.60973189  0.80307961  0.40200008  1
  Rh  Rh243  1  -0.00102621  0.80846199  0.39367083  1
  Rh  Rh244  1  0.39751282  0.19644736  0.80160095  1
  Rh  Rh245  1  0.41339273  0.79292593  -0.00237980  1
  Rh  Rh246  1  0.19811477  0.01089817  0.61016425  1
  Rh  Rh247  1  0.60474465  0.58808277  0.60112633  1
  Rh  Rh248  1  0.40826142  0.40299615  0.40546031  1
  Rh  Rh249  1  0.60506477  0.41145535  -0.00251320  1
