# generated using pymatgen
data_ZrScNbPdRh
_symmetry_space_group_name_H-M   'P 1'
_cell_length_a   16.55982998
_cell_length_b   16.56035955
_cell_length_c   16.56376824
_cell_angle_alpha   89.98795425
_cell_angle_beta   89.98141375
_cell_angle_gamma   90.00745895
_symmetry_Int_Tables_number   1
_chemical_formula_structural   ZrScNbPdRh
_chemical_formula_sum   'Zr50 Sc50 Nb50 Pd50 Rh50'
_cell_volume   4542.39340123
_cell_formula_units_Z   50
loop_
 _symmetry_equiv_pos_site_id
 _symmetry_equiv_pos_as_xyz
  1  'x, y, z'
loop_
 _atom_site_type_symbol
 _atom_site_label
 _atom_site_symmetry_multiplicity
 _atom_site_fract_x
 _atom_site_fract_y
 _atom_site_fract_z
 _atom_site_occupancy
  Zr  Zr0  1  0.10407012  0.10652007  0.10628689  1
  Zr  Zr1  1  0.90268819  0.69949950  0.50737637  1
  Zr  Zr2  1  0.89938277  0.89616860  0.89477428  1
  Zr  Zr3  1  0.69382196  0.70325848  0.29740769  1
  Zr  Zr4  1  0.30089467  0.69906209  0.30205704  1
  Zr  Zr5  1  0.90314790  0.11205212  0.69721788  1
  Zr  Zr6  1  0.89281826  0.49705494  0.50172969  1
  Zr  Zr7  1  0.30175517  0.69298501  0.49775977  1
  Zr  Zr8  1  0.08451787  0.49309916  0.10293013  1
  Zr  Zr9  1  0.69925364  0.69663213  0.49183506  1
  Zr  Zr10  1  0.10749216  0.69583648  0.89246514  1
  Zr  Zr11  1  0.11242709  0.49996557  0.50549048  1
  Zr  Zr12  1  0.89816607  0.50642842  0.09239148  1
  Zr  Zr13  1  0.90086838  0.49154245  0.28495083  1
  Zr  Zr14  1  0.70197245  0.50950637  0.10726606  1
  Zr  Zr15  1  0.70180180  0.89888292  0.49911417  1
  Zr  Zr16  1  0.50094898  0.49110169  0.30087271  1
  Zr  Zr17  1  0.50302371  0.29824870  0.30027421  1
  Zr  Zr18  1  0.30029842  0.69912892  0.90225028  1
  Zr  Zr19  1  0.49467763  0.29310939  0.69254797  1
  Zr  Zr20  1  0.90701994  0.31088356  0.11053778  1
  Zr  Zr21  1  0.30391086  0.49982276  0.09674287  1
  Zr  Zr22  1  0.31037922  0.29822639  0.30666939  1
  Zr  Zr23  1  0.09701716  0.89512889  0.31004337  1
  Zr  Zr24  1  0.70055137  0.30087066  0.90417911  1
  Zr  Zr25  1  0.30342221  0.09934663  0.30528834  1
  Zr  Zr26  1  0.49734309  0.49771943  0.89815705  1
  Zr  Zr27  1  0.29173335  0.29802961  0.09468552  1
  Zr  Zr28  1  0.29264552  0.50586390  0.30112190  1
  Zr  Zr29  1  0.90080450  0.09644173  0.10817689  1
  Zr  Zr30  1  0.69750593  0.90205659  0.69531551  1
  Zr  Zr31  1  0.89224925  0.70184783  0.09929875  1
  Zr  Zr32  1  0.49492478  0.30585407  0.49583123  1
  Zr  Zr33  1  0.49873084  0.09571372  0.89942818  1
  Zr  Zr34  1  0.90004518  0.29992266  0.50296632  1
  Zr  Zr35  1  0.89869643  0.89696442  0.49963593  1
  Zr  Zr36  1  0.89730242  0.88884142  0.69589661  1
  Zr  Zr37  1  0.90309151  0.10542873  0.29725435  1
  Zr  Zr38  1  0.49363653  0.90347571  0.11261839  1
  Zr  Zr39  1  0.49348837  0.10236522  0.29804763  1
  Zr  Zr40  1  0.69391260  0.09695891  0.69624576  1
  Zr  Zr41  1  0.70418706  0.09378716  0.50593282  1
  Zr  Zr42  1  0.49904821  0.69635038  0.49475785  1
  Zr  Zr43  1  0.49879581  0.90742252  0.70308960  1
  Zr  Zr44  1  0.29676102  0.50258086  0.89827281  1
  Zr  Zr45  1  0.49320392  0.90149263  0.89693273  1
  Zr  Zr46  1  0.30056848  0.89501852  0.90072785  1
  Zr  Zr47  1  0.69092795  0.70022659  0.10355551  1
  Zr  Zr48  1  0.30460827  0.30494622  0.90459032  1
  Zr  Zr49  1  0.10280060  0.30859020  0.69696063  1
  Sc  Sc50  1  0.30302483  0.49626112  0.49794090  1
  Sc  Sc51  1  0.69837611  0.50299153  0.49221821  1
  Sc  Sc52  1  0.49715983  0.68559624  0.70411099  1
  Sc  Sc53  1  0.10377169  0.69493261  0.09839586  1
  Sc  Sc54  1  0.29930765  0.69089784  0.09969536  1
  Sc  Sc55  1  0.49571131  0.69518068  0.89623729  1
  Sc  Sc56  1  0.10694957  0.31056555  0.90155639  1
  Sc  Sc57  1  0.50005594  0.10458214  0.10586855  1
  Sc  Sc58  1  0.10181822  0.10186379  0.49665175  1
  Sc  Sc59  1  0.30578733  0.09872387  0.69400750  1
  Sc  Sc60  1  0.68998731  0.89526887  0.88789194  1
  Sc  Sc61  1  0.69408440  0.89222529  0.11455745  1
  Sc  Sc62  1  0.70537560  0.10291139  0.29408343  1
  Sc  Sc63  1  0.71168181  0.30647856  0.70149630  1
  Sc  Sc64  1  0.70134482  0.11055058  0.10424166  1
  Sc  Sc65  1  0.49806715  0.09440253  0.69924922  1
  Sc  Sc66  1  0.30719743  0.10513232  0.09961551  1
  Sc  Sc67  1  0.29610110  0.49931979  0.69363297  1
  Sc  Sc68  1  0.69019111  0.70005961  0.89600103  1
  Sc  Sc69  1  0.09457557  0.09826866  0.30421721  1
  Sc  Sc70  1  0.49344921  0.70625525  0.30236709  1
  Sc  Sc71  1  0.10450913  0.70785733  0.50473384  1
  Sc  Sc72  1  0.30657646  0.09988519  0.90509712  1
  Sc  Sc73  1  0.69656453  0.49785100  0.88843093  1
  Sc  Sc74  1  0.29576830  0.90396165  0.49968569  1
  Sc  Sc75  1  0.50023956  0.50573629  0.09887763  1
  Sc  Sc76  1  0.49691239  0.50265439  0.49988593  1
  Sc  Sc77  1  0.29973464  0.69676837  0.70556778  1
  Sc  Sc78  1  0.11127273  0.89136326  0.89487392  1
  Sc  Sc79  1  0.29725572  0.10252916  0.50370679  1
  Sc  Sc80  1  0.89693563  0.10332317  0.49765136  1
  Sc  Sc81  1  0.69742841  0.29859079  0.10212430  1
  Sc  Sc82  1  0.09677737  0.28853607  0.30238119  1
  Sc  Sc83  1  0.09504492  0.89691705  0.10655350  1
  Sc  Sc84  1  0.89441466  0.29771898  0.30314016  1
  Sc  Sc85  1  0.10565489  0.10511502  0.89727534  1
  Sc  Sc86  1  0.90127869  0.30809990  0.69162849  1
  Sc  Sc87  1  0.70087488  0.30797283  0.29882585  1
  Sc  Sc88  1  0.90007574  0.69329163  0.88799023  1
  Sc  Sc89  1  0.10120379  0.29658001  0.50636022  1
  Sc  Sc90  1  0.10879097  0.88972434  0.69990209  1
  Sc  Sc91  1  0.30118251  0.90078705  0.70642676  1
  Sc  Sc92  1  0.90051692  0.90354583  0.28999526  1
  Sc  Sc93  1  0.90010855  0.70672924  0.29957524  1
  Sc  Sc94  1  0.70825274  0.30906496  0.49964203  1
  Sc  Sc95  1  0.89446542  0.29551598  0.88717154  1
  Sc  Sc96  1  0.49629033  0.09968124  0.51392429  1
  Sc  Sc97  1  0.10545951  0.10845121  0.69372909  1
  Sc  Sc98  1  0.49915481  0.30427970  0.09971215  1
  Sc  Sc99  1  0.30126051  0.30307789  0.50749292  1
  Nb  Nb100  1  0.10286657  0.50420955  0.30029736  1
  Nb  Nb101  1  0.30077040  0.30216405  0.69994749  1
  Nb  Nb102  1  0.31532397  0.89753778  0.29415856  1
  Nb  Nb103  1  0.90400513  0.69353706  0.69511562  1
  Nb  Nb104  1  0.09438505  0.50157182  0.88698921  1
  Nb  Nb105  1  0.50249744  0.70225605  0.09787691  1
  Nb  Nb106  1  0.89607548  0.50728902  0.70679532  1
  Nb  Nb107  1  0.10983653  0.69260126  0.30148120  1
  Nb  Nb108  1  0.49975174  0.89402511  0.49812204  1
  Nb  Nb109  1  0.69882250  0.49856534  0.30038196  1
  Nb  Nb110  1  0.69661872  0.69176829  0.69529166  1
  Nb  Nb111  1  0.50400926  0.49803586  0.70119933  1
  Nb  Nb112  1  0.30020848  0.89641119  0.10140311  1
  Nb  Nb113  1  0.68765334  0.89482332  0.30297756  1
  Nb  Nb114  1  0.09509575  0.68924551  0.69551817  1
  Nb  Nb115  1  0.10208154  0.29666860  0.09868689  1
  Nb  Nb116  1  0.90257374  0.49956047  0.89649835  1
  Nb  Nb117  1  0.49263634  0.90091330  0.30450948  1
  Nb  Nb118  1  0.09429130  0.90040115  0.50511577  1
  Nb  Nb119  1  0.69595704  0.50458991  0.69810393  1
  Nb  Nb120  1  0.50351037  0.30242050  0.89819412  1
  Nb  Nb121  1  0.90012112  0.89892062  0.09723315  1
  Nb  Nb122  1  0.90035858  0.10028519  0.90243418  1
  Nb  Nb123  1  0.70651691  0.10497411  0.90570980  1
  Nb  Nb124  1  0.10131383  0.50297715  0.70954173  1
  Nb  Nb125  1  0.59929823  0.40664547  0.60492350  1
  Nb  Nb126  1  0.40332534  0.39591826  0.79662994  1
  Nb  Nb127  1  0.79988179  0.80396481  0.00003095  1
  Nb  Nb128  1  -0.00006144  0.20021689  0.00208442  1
  Nb  Nb129  1  0.00108927  -0.00625458  0.60210546  1
  Nb  Nb130  1  0.19940364  -0.00329217  0.00780399  1
  Nb  Nb131  1  0.60082430  0.20198956  0.80549022  1
  Nb  Nb132  1  0.79781801  -0.00416292  -0.00148377  1
  Nb  Nb133  1  0.59543073  -0.00271916  0.39773964  1
  Nb  Nb134  1  0.40671002  0.79968199  0.59860246  1
  Nb  Nb135  1  0.19534673  0.39863966  0.20065293  1
  Nb  Nb136  1  0.80445948  0.40664681  -0.00279298  1
  Nb  Nb137  1  -0.00468668  0.80146881  -0.00147948  1
  Nb  Nb138  1  0.80350828  0.00689110  0.80321027  1
  Nb  Nb139  1  0.20708853  -0.00842768  0.20340669  1
  Nb  Nb140  1  -0.00200005  0.00169447  0.79808720  1
  Nb  Nb141  1  -0.00050208  -0.00033487  -0.00383110  1
  Nb  Nb142  1  0.00581432  0.59544658  0.39707866  1
  Nb  Nb143  1  0.00361096  0.40740403  0.39934903  1
  Nb  Nb144  1  0.20522145  0.80087811  0.20590506  1
  Nb  Nb145  1  0.40091181  0.79964936  0.00637388  1
  Nb  Nb146  1  0.20974658  0.20973282  0.79820530  1
  Nb  Nb147  1  0.60576050  0.00094302  0.00017619  1
  Nb  Nb148  1  0.59943815  0.19511916  0.40350060  1
  Nb  Nb149  1  0.59585836  0.79424588  0.59865255  1
  Pd  Pd150  1  0.59716040  0.80932382  0.00125517  1
  Pd  Pd151  1  0.00235251  0.60906961  -0.00751849  1
  Pd  Pd152  1  0.80928014  0.59712583  0.38935057  1
  Pd  Pd153  1  0.60641334  0.40723370  0.00676984  1
  Pd  Pd154  1  0.81124288  0.20736820  0.01077719  1
  Pd  Pd155  1  0.40877175  0.20386041  0.00407989  1
  Pd  Pd156  1  -0.00012214  0.79072539  0.40205904  1
  Pd  Pd157  1  0.80442389  0.80400442  0.39257301  1
  Pd  Pd158  1  0.59090191  0.79040100  0.78788380  1
  Pd  Pd159  1  0.60287988  0.00531938  0.20176261  1
  Pd  Pd160  1  0.19506432  0.38941618  0.39478963  1
  Pd  Pd161  1  0.20047278  0.01091869  0.80360411  1
  Pd  Pd162  1  0.00412160  0.59185877  0.59492550  1
  Pd  Pd163  1  0.60958980  0.21291728  0.59822625  1
  Pd  Pd164  1  0.20232835  -0.00456669  0.39640242  1
  Pd  Pd165  1  0.79387975  0.79478404  0.79972765  1
  Pd  Pd166  1  -0.00590472  0.39674596  0.79922832  1
  Pd  Pd167  1  0.01240748  0.20267788  0.80474413  1
  Pd  Pd168  1  -0.00432661  0.00272772  0.40714321  1
  Pd  Pd169  1  0.00752720  0.79795423  0.79794733  1
  Pd  Pd170  1  0.20080043  0.20388033  0.40407902  1
  Pd  Pd171  1  0.19254982  0.41092015  0.00390248  1
  Pd  Pd172  1  0.60287772  0.40120359  0.19439160  1
  Pd  Pd173  1  0.20646081  0.19994642  0.20898565  1
  Pd  Pd174  1  0.20705765  0.80540218  0.39912805  1
  Pd  Pd175  1  0.79387100  0.19761023  0.79251973  1
  Pd  Pd176  1  0.59361570  0.19509535  -0.00090000  1
  Pd  Pd177  1  0.20940865  0.79651302  0.60382282  1
  Pd  Pd178  1  0.79621484  0.59720322  0.60060472  1
  Pd  Pd179  1  0.80004706  0.60547556  0.20927542  1
  Pd  Pd180  1  0.19408109  -0.00051859  0.60170143  1
  Pd  Pd181  1  -0.00745475  0.39100056  -0.01291121  1
  Pd  Pd182  1  0.79250586  0.60262687  -0.01373716  1
  Pd  Pd183  1  0.59409984  0.59556125  0.39259563  1
  Pd  Pd184  1  0.00739156  0.79248357  0.19658896  1
  Pd  Pd185  1  0.79145969  0.20246308  0.39967206  1
  Pd  Pd186  1  0.79069125  0.79006273  0.60080559  1
  Pd  Pd187  1  0.40090286  0.19953807  0.79929703  1
  Pd  Pd188  1  0.39768772  0.59981458  0.60369209  1
  Pd  Pd189  1  0.40319425  0.00329934  0.41172078  1
  Pd  Pd190  1  0.00099485  0.41005291  0.59830149  1
  Pd  Pd191  1  -0.00031938  0.61058699  0.20471687  1
  Pd  Pd192  1  0.59969017  0.59556759  -0.00623041  1
  Pd  Pd193  1  0.79587784  -0.00423707  0.38860869  1
  Pd  Pd194  1  0.39311392  0.39719824  0.19609953  1
  Pd  Pd195  1  0.59758288  0.39113722  0.79097515  1
  Pd  Pd196  1  0.18923710  0.58905728  0.00214157  1
  Pd  Pd197  1  0.40747301  0.60192429  0.20246715  1
  Pd  Pd198  1  0.79418974  0.60222142  0.80079411  1
  Pd  Pd199  1  0.79249993  -0.00605659  0.19895380  1
  Rh  Rh200  1  0.79654384  0.80286083  0.20036149  1
  Rh  Rh201  1  0.40500075  0.40064922  -0.00275635  1
  Rh  Rh202  1  0.79711086  0.20197899  0.59958393  1
  Rh  Rh203  1  0.60060814  0.60097511  0.80089959  1
  Rh  Rh204  1  0.40111717  -0.00677471  0.00544042  1
  Rh  Rh205  1  0.80528156  0.40861929  0.80071317  1
  Rh  Rh206  1  0.20011575  0.78863129  0.78992461  1
  Rh  Rh207  1  0.20274531  0.59963140  0.79521921  1
  Rh  Rh208  1  0.60996617  0.01336659  0.81061768  1
  Rh  Rh209  1  0.19536019  0.60404374  0.40953721  1
  Rh  Rh210  1  0.40123381  0.79693254  0.79917630  1
  Rh  Rh211  1  -0.00150952  0.20350183  0.19888391  1
  Rh  Rh212  1  0.00448503  0.80193141  0.60484593  1
  Rh  Rh213  1  0.79128701  0.40002159  0.19289814  1
  Rh  Rh214  1  0.00839228  -0.00124789  0.20078452  1
  Rh  Rh215  1  0.39731466  0.40523942  0.39951536  1
  Rh  Rh216  1  -0.00353646  0.20635032  0.40581975  1
  Rh  Rh217  1  0.39410387  0.19878507  0.59707039  1
  Rh  Rh218  1  0.40534269  0.19558355  0.41041021  1
  Rh  Rh219  1  0.79367134  0.41121650  0.60588143  1
  Rh  Rh220  1  0.20356349  0.20291902  0.60514606  1
  Rh  Rh221  1  0.19748998  0.59527711  0.19069679  1
  Rh  Rh222  1  0.39222194  0.80276685  0.40889843  1
  Rh  Rh223  1  0.00318024  0.19417469  0.59351717  1
  Rh  Rh224  1  0.80091516  0.20696556  0.19889341  1
  Rh  Rh225  1  0.60011764  0.20321650  0.20912037  1
  Rh  Rh226  1  0.39426380  0.00824934  0.19809911  1
  Rh  Rh227  1  0.60412429  0.39593116  0.40728978  1
  Rh  Rh228  1  0.81414670  0.00497996  0.61019106  1
  Rh  Rh229  1  0.20186411  0.40189601  0.60380394  1
  Rh  Rh230  1  0.59220601  0.60180739  0.20709616  1
  Rh  Rh231  1  0.80505902  0.40581207  0.39351398  1
  Rh  Rh232  1  0.58760382  0.79612014  0.20660551  1
  Rh  Rh233  1  0.60233999  0.59746003  0.59821161  1
  Rh  Rh234  1  0.39074328  0.00374069  0.79866055  1
  Rh  Rh235  1  0.39795889  0.78856074  0.19244437  1
  Rh  Rh236  1  0.39765410  -0.00912464  0.59927722  1
  Rh  Rh237  1  0.20746819  0.40001697  0.79745427  1
  Rh  Rh238  1  0.59326876  -0.01066203  0.58937292  1
  Rh  Rh239  1  0.40253766  0.59172224  0.39302135  1
  Rh  Rh240  1  0.59662789  0.80357061  0.40160221  1
  Rh  Rh241  1  0.40493909  0.60770840  0.00044513  1
  Rh  Rh242  1  -0.00156735  0.60016659  0.79577541  1
  Rh  Rh243  1  0.40589777  0.40489185  0.60512574  1
  Rh  Rh244  1  0.39558359  0.58804566  0.79849574  1
  Rh  Rh245  1  0.20068462  0.60090512  0.60350923  1
  Rh  Rh246  1  0.39733957  0.20647137  0.19495813  1
  Rh  Rh247  1  0.01335661  0.38994443  0.21395100  1
  Rh  Rh248  1  0.20021603  0.80599745  0.01035803  1
  Rh  Rh249  1  0.19535329  0.19319676  -0.00851737  1
