# generated using pymatgen
data_ZrScNbPdRh
_symmetry_space_group_name_H-M   'P 1'
_cell_length_a   16.55258962
_cell_length_b   16.55670097
_cell_length_c   16.55397685
_cell_angle_alpha   89.97072680
_cell_angle_beta   89.98377410
_cell_angle_gamma   89.97324153
_symmetry_Int_Tables_number   1
_chemical_formula_structural   ZrScNbPdRh
_chemical_formula_sum   'Zr50 Sc50 Nb50 Pd50 Rh50'
_cell_volume   4536.71999121
_cell_formula_units_Z   50
loop_
 _symmetry_equiv_pos_site_id
 _symmetry_equiv_pos_as_xyz
  1  'x, y, z'
loop_
 _atom_site_type_symbol
 _atom_site_label
 _atom_site_symmetry_multiplicity
 _atom_site_fract_x
 _atom_site_fract_y
 _atom_site_fract_z
 _atom_site_occupancy
  Zr  Zr0  1  0.89799647  0.69366470  0.29853663  1
  Zr  Zr1  1  0.30180854  0.90515160  0.30555886  1
  Zr  Zr2  1  0.69937084  0.10058268  0.29578806  1
  Zr  Zr3  1  0.90248633  0.90557434  0.69480398  1
  Zr  Zr4  1  0.90184427  0.49811004  0.70729546  1
  Zr  Zr5  1  0.70024747  0.30740921  0.49907882  1
  Zr  Zr6  1  0.09659080  0.90925119  0.89392179  1
  Zr  Zr7  1  0.50484415  0.30358887  0.11525624  1
  Zr  Zr8  1  0.29959098  0.89174842  0.09290284  1
  Zr  Zr9  1  0.09525857  0.90587380  0.70177224  1
  Zr  Zr10  1  0.49958821  0.09504887  0.90004769  1
  Zr  Zr11  1  0.89719272  0.10366893  0.50360269  1
  Zr  Zr12  1  0.70074992  0.69302921  0.49860667  1
  Zr  Zr13  1  0.49457434  0.30113547  0.49715196  1
  Zr  Zr14  1  0.70391374  0.69676637  0.89979675  1
  Zr  Zr15  1  0.09380264  0.50515868  0.29992258  1
  Zr  Zr16  1  0.29742239  0.30833443  0.89744384  1
  Zr  Zr17  1  0.49934383  0.50255646  0.70343737  1
  Zr  Zr18  1  0.30694272  0.10156915  0.50230733  1
  Zr  Zr19  1  0.90091327  0.49948971  0.89931436  1
  Zr  Zr20  1  0.89754238  0.30349869  0.10455594  1
  Zr  Zr21  1  0.30317378  0.31033699  0.10006986  1
  Zr  Zr22  1  0.10331334  0.29580504  0.09431102  1
  Zr  Zr23  1  0.30390762  0.09574066  0.11002328  1
  Zr  Zr24  1  0.49813213  0.69964477  0.70294561  1
  Zr  Zr25  1  0.90013204  0.90676142  0.50276205  1
  Zr  Zr26  1  0.09516766  0.90901586  0.30570902  1
  Zr  Zr27  1  0.49943182  0.89985037  0.89352881  1
  Zr  Zr28  1  0.88814026  0.49769528  0.49941778  1
  Zr  Zr29  1  0.10132155  0.89605251  0.49806853  1
  Zr  Zr30  1  0.10105982  0.30014180  0.29772210  1
  Zr  Zr31  1  0.89747964  0.68399381  0.89722605  1
  Zr  Zr32  1  0.69363855  0.29759962  0.28900809  1
  Zr  Zr33  1  0.69429668  0.70174874  0.69686423  1
  Zr  Zr34  1  0.49967266  0.90578886  0.08645991  1
  Zr  Zr35  1  0.70267011  0.10762817  0.50298862  1
  Zr  Zr36  1  0.11700259  0.70465148  0.09563242  1
  Zr  Zr37  1  0.10025163  0.70006866  0.30048784  1
  Zr  Zr38  1  0.50620153  0.30610937  0.71247213  1
  Zr  Zr39  1  0.69719673  0.70590287  0.10890206  1
  Zr  Zr40  1  0.89883886  0.49846739  0.09653267  1
  Zr  Zr41  1  0.90404905  0.09822352  0.30177767  1
  Zr  Zr42  1  0.29219490  0.70297957  0.91005528  1
  Zr  Zr43  1  0.30174774  0.50290187  0.90468078  1
  Zr  Zr44  1  0.90508359  0.30107927  0.70415045  1
  Zr  Zr45  1  0.09977110  0.69618012  0.49789480  1
  Zr  Zr46  1  0.48777685  0.90750437  0.49423356  1
  Zr  Zr47  1  0.30938637  0.70618694  0.28925870  1
  Zr  Zr48  1  0.29269248  0.49780076  0.70817501  1
  Zr  Zr49  1  0.31093079  0.29881021  0.30203361  1
  Sc  Sc50  1  0.90604635  0.10735748  0.89933128  1
  Sc  Sc51  1  0.89210249  0.69805139  0.49527424  1
  Sc  Sc52  1  0.49862910  0.71003803  0.49835373  1
  Sc  Sc53  1  0.10398948  0.10259464  0.49160350  1
  Sc  Sc54  1  0.30897516  0.49530489  0.29086034  1
  Sc  Sc55  1  0.69502193  0.49899980  0.31297148  1
  Sc  Sc56  1  0.29661436  0.29082025  0.50082032  1
  Sc  Sc57  1  0.69825885  0.89269690  0.90480569  1
  Sc  Sc58  1  0.30914197  0.69315965  0.09999728  1
  Sc  Sc59  1  0.90424692  0.89498354  0.89795377  1
  Sc  Sc60  1  0.89484992  0.90329970  0.10120163  1
  Sc  Sc61  1  0.10042703  0.09408778  0.71382030  1
  Sc  Sc62  1  0.70941962  0.49899546  0.89879577  1
  Sc  Sc63  1  0.49147521  0.49421887  0.89345723  1
  Sc  Sc64  1  0.49709538  0.88870986  0.70209009  1
  Sc  Sc65  1  0.30493602  0.50163775  0.50399018  1
  Sc  Sc66  1  0.69369494  0.89494233  0.29863697  1
  Sc  Sc67  1  0.70017403  0.10370205  0.89634638  1
  Sc  Sc68  1  0.50297976  0.70337726  0.89067627  1
  Sc  Sc69  1  0.50513152  0.49623275  0.29738200  1
  Sc  Sc70  1  0.30032372  0.10553179  0.70192323  1
  Sc  Sc71  1  0.70658015  0.49206967  0.10164691  1
  Sc  Sc72  1  0.89142601  0.29683954  0.49853143  1
  Sc  Sc73  1  0.10704724  0.29278586  0.50772597  1
  Sc  Sc74  1  0.89321058  0.69390333  0.09683896  1
  Sc  Sc75  1  0.09353650  0.69894916  0.90518692  1
  Sc  Sc76  1  0.09207800  0.90294221  0.09564551  1
  Sc  Sc77  1  0.89307667  0.29791363  0.30352440  1
  Sc  Sc78  1  0.89578364  0.30342134  0.89339365  1
  Sc  Sc79  1  0.10044153  0.50011560  0.50605020  1
  Sc  Sc80  1  0.50950203  0.49365607  0.49184706  1
  Sc  Sc81  1  0.88682375  0.70053787  0.70444516  1
  Sc  Sc82  1  0.48884366  0.09408499  0.30055019  1
  Sc  Sc83  1  0.49906566  0.11059551  0.70245679  1
  Sc  Sc84  1  0.10059918  0.50405044  0.88982564  1
  Sc  Sc85  1  0.30527068  0.69428507  0.69692507  1
  Sc  Sc86  1  0.69441805  0.29753027  0.70523904  1
  Sc  Sc87  1  0.30016445  0.70654592  0.50835202  1
  Sc  Sc88  1  0.31105546  0.90383251  0.89989087  1
  Sc  Sc89  1  0.10656125  0.49685133  0.10621737  1
  Sc  Sc90  1  0.69624292  0.89135041  0.49467989  1
  Sc  Sc91  1  0.10795084  0.69223410  0.69926196  1
  Sc  Sc92  1  0.30013503  0.09831797  0.88983134  1
  Sc  Sc93  1  0.89540123  0.09111163  0.10391352  1
  Sc  Sc94  1  0.90142868  0.90729238  0.29671185  1
  Sc  Sc95  1  0.30797526  0.90057263  0.70463657  1
  Sc  Sc96  1  0.90209748  0.50080929  0.29447055  1
  Sc  Sc97  1  0.10649856  0.30677731  0.70368074  1
  Sc  Sc98  1  0.50301080  0.89398263  0.30908528  1
  Sc  Sc99  1  0.70440330  0.90020958  0.09824792  1
  Nb  Nb100  1  0.31376382  0.49842381  0.09062066  1
  Nb  Nb101  1  0.10256810  0.09803480  0.29432634  1
  Nb  Nb102  1  0.50469375  0.69316233  0.11746812  1
  Nb  Nb103  1  0.70432309  0.89850640  0.69275676  1
  Nb  Nb104  1  0.50700417  0.29894175  0.89914500  1
  Nb  Nb105  1  0.69798997  0.10663191  0.10621334  1
  Nb  Nb106  1  0.50698507  0.69735183  0.29629920  1
  Nb  Nb107  1  0.50153473  0.09896259  0.09578865  1
  Nb  Nb108  1  0.50112303  0.30739994  0.30543814  1
  Nb  Nb109  1  0.49475172  0.50138607  0.09557381  1
  Nb  Nb110  1  0.70486583  0.09955399  0.69374331  1
  Nb  Nb111  1  0.68268852  0.70465864  0.30029500  1
  Nb  Nb112  1  0.09691952  0.49925926  0.69908301  1
  Nb  Nb113  1  0.69965323  0.29632259  0.10331495  1
  Nb  Nb114  1  0.89638946  0.09504108  0.69101445  1
  Nb  Nb115  1  0.09452915  0.28821829  0.90549987  1
  Nb  Nb116  1  0.09790586  0.10441733  0.09566436  1
  Nb  Nb117  1  0.28818690  0.09944767  0.30057409  1
  Nb  Nb118  1  0.29877697  0.30217085  0.69670990  1
  Nb  Nb119  1  0.10073254  0.10712982  0.90911565  1
  Nb  Nb120  1  0.50515152  0.09579676  0.49723765  1
  Nb  Nb121  1  0.30241631  0.89993266  0.50449338  1
  Nb  Nb122  1  0.69330211  0.50287686  0.68562909  1
  Nb  Nb123  1  0.69862694  0.49844850  0.50596834  1
  Nb  Nb124  1  0.69439901  0.30128918  0.90322378  1
  Nb  Nb125  1  0.00159203  0.79603041  0.20152922  1
  Nb  Nb126  1  0.00615727  0.19389885  0.19901778  1
  Nb  Nb127  1  0.59325018  0.20128401  0.39744080  1
  Nb  Nb128  1  -0.00249095  0.19445714  0.60594468  1
  Nb  Nb129  1  0.00172865  0.39558962  -0.00321261  1
  Nb  Nb130  1  0.60942796  -0.00188455  0.78781539  1
  Nb  Nb131  1  0.40728230  0.20338182  0.00203745  1
  Nb  Nb132  1  0.59716035  0.00494217  0.19259651  1
  Nb  Nb133  1  0.60041149  0.00212821  0.60102342  1
  Nb  Nb134  1  0.19945367  0.80289801  0.80274079  1
  Nb  Nb135  1  -0.00403770  0.59769690  0.60367944  1
  Nb  Nb136  1  0.79752420  0.00444550  0.40165780  1
  Nb  Nb137  1  0.79194496  0.20571112  0.00501328  1
  Nb  Nb138  1  0.40099165  0.60612332  0.39323422  1
  Nb  Nb139  1  0.59937022  0.39651375  0.00055632  1
  Nb  Nb140  1  0.20514352  -0.00331188  0.59723493  1
  Nb  Nb141  1  0.59989925  0.20309108  0.00531160  1
  Nb  Nb142  1  0.19921417  0.40280545  0.39720419  1
  Nb  Nb143  1  0.20682003  0.59953817  0.39534190  1
  Nb  Nb144  1  0.19566489  0.00831741  -0.00132207  1
  Nb  Nb145  1  0.00369004  0.39968344  0.40171884  1
  Nb  Nb146  1  0.59546439  0.59556190  0.00680964  1
  Nb  Nb147  1  0.40005411  0.39660129  0.60739524  1
  Nb  Nb148  1  -0.00068038  0.79468177  0.59996921  1
  Nb  Nb149  1  0.79841677  0.00092081  0.79052715  1
  Pd  Pd150  1  0.80838932  0.79715638  -0.00138278  1
  Pd  Pd151  1  0.20445940  0.40344020  0.20382727  1
  Pd  Pd152  1  0.00335714  0.60916692  0.18628616  1
  Pd  Pd153  1  0.78921288  0.40216502  0.79242540  1
  Pd  Pd154  1  0.78829047  0.59652994  0.20579670  1
  Pd  Pd155  1  0.39734989  0.20601282  0.80582588  1
  Pd  Pd156  1  0.79644165  0.39541444  0.60966953  1
  Pd  Pd157  1  0.40287262  0.00193915  0.60989881  1
  Pd  Pd158  1  0.00146831  0.19719397  0.79396485  1
  Pd  Pd159  1  0.40410028  0.19838033  0.20131028  1
  Pd  Pd160  1  0.79796375  0.80732629  0.80217472  1
  Pd  Pd161  1  0.21735669  0.19303458  0.00037136  1
  Pd  Pd162  1  0.59346651  0.78881724  0.00350591  1
  Pd  Pd163  1  0.01024945  0.59198990  0.00705717  1
  Pd  Pd164  1  0.79825360  0.19569349  0.80104958  1
  Pd  Pd165  1  0.80028389  0.80579003  0.39296057  1
  Pd  Pd166  1  0.59446108  0.80704682  0.59464504  1
  Pd  Pd167  1  0.79361247  0.59851425  0.39274362  1
  Pd  Pd168  1  0.19823952  0.20522470  0.79728438  1
  Pd  Pd169  1  0.40923193  0.59398702  0.59024022  1
  Pd  Pd170  1  0.19407080  -0.00783772  0.19069606  1
  Pd  Pd171  1  0.59491753  0.20141159  0.59715013  1
  Pd  Pd172  1  0.60839270  0.58746602  0.19773175  1
  Pd  Pd173  1  0.00406826  0.78778394  0.79158163  1
  Pd  Pd174  1  0.20622093  0.40380751  0.59439998  1
  Pd  Pd175  1  0.20944882  0.79403958  0.39739836  1
  Pd  Pd176  1  0.00512478  0.20597931  0.40171841  1
  Pd  Pd177  1  0.40739090  -0.00984218  0.20309560  1
  Pd  Pd178  1  0.60363933  0.59257669  0.80855822  1
  Pd  Pd179  1  0.20493455  0.00348785  0.40833750  1
  Pd  Pd180  1  0.79707641  0.40590112  0.20935782  1
  Pd  Pd181  1  -0.00698487  0.79587479  0.00764520  1
  Pd  Pd182  1  0.80497508  0.80307408  0.20695712  1
  Pd  Pd183  1  -0.00330183  0.00389088  -0.00195482  1
  Pd  Pd184  1  0.58966223  0.60108157  0.59069412  1
  Pd  Pd185  1  0.61383931  0.00538517  -0.00320614  1
  Pd  Pd186  1  0.20146373  0.60701393  0.80339243  1
  Pd  Pd187  1  0.21151636  0.59420312  0.19859974  1
  Pd  Pd188  1  -0.01055037  0.79939078  0.39850048  1
  Pd  Pd189  1  0.41193373  0.78824620  0.00106320  1
  Pd  Pd190  1  0.40542589  0.20656095  0.60489195  1
  Pd  Pd191  1  0.19322405  0.81259119  0.20240783  1
  Pd  Pd192  1  0.41041324  0.81056354  0.19834651  1
  Pd  Pd193  1  0.40227477  0.19267294  0.39665658  1
  Pd  Pd194  1  0.19991258  0.20291356  0.20106835  1
  Pd  Pd195  1  0.41132247  0.61040097  -0.00624614  1
  Pd  Pd196  1  0.79747207  0.00826206  -0.01025869  1
  Pd  Pd197  1  0.19874531  0.80559017  0.61211994  1
  Pd  Pd198  1  0.18879857  0.40753700  -0.00718724  1
  Pd  Pd199  1  0.00050341  0.39639120  0.59281617  1
  Rh  Rh200  1  0.19492459  0.59530897  0.59646856  1
  Rh  Rh201  1  0.20310425  0.20310042  0.39270197  1
  Rh  Rh202  1  0.39520867  0.39704599  0.79588874  1
  Rh  Rh203  1  0.78772922  0.19920222  0.39386901  1
  Rh  Rh204  1  0.01617410  0.00567410  0.59278315  1
  Rh  Rh205  1  0.81317552  0.19708268  0.19584399  1
  Rh  Rh206  1  0.78825402  -0.00551563  0.20692503  1
  Rh  Rh207  1  0.80258881  0.39238116  -0.00222206  1
  Rh  Rh208  1  0.41021317  0.39112796  -0.00040649  1
  Rh  Rh209  1  0.01029216  0.39551084  0.81083465  1
  Rh  Rh210  1  0.39371514  0.60509899  0.80658885  1
  Rh  Rh211  1  0.39618873  0.79445114  0.39966819  1
  Rh  Rh212  1  0.41164604  0.00151008  0.79340869  1
  Rh  Rh213  1  0.58666933  0.19170079  0.20626322  1
  Rh  Rh214  1  0.78861041  0.59305815  0.78903763  1
  Rh  Rh215  1  0.00561655  0.00111101  0.19581391  1
  Rh  Rh216  1  0.00152937  0.60365030  0.79080970  1
  Rh  Rh217  1  0.78724703  0.60235505  0.00753075  1
  Rh  Rh218  1  0.80233732  0.59826848  0.60466289  1
  Rh  Rh219  1  0.40036732  0.80153369  0.60129775  1
  Rh  Rh220  1  -0.00092626  0.39089747  0.19983844  1
  Rh  Rh221  1  0.78868117  -0.00593992  0.59362242  1
  Rh  Rh222  1  0.59240925  0.81414594  0.19331401  1
  Rh  Rh223  1  0.60473050  0.39323840  0.39955626  1
  Rh  Rh224  1  0.38846518  0.79046759  0.80200896  1
  Rh  Rh225  1  0.60443264  0.19120763  0.80397137  1
  Rh  Rh226  1  0.60792097  0.80562937  0.79768969  1
  Rh  Rh227  1  0.19067285  0.18702360  0.61168592  1
  Rh  Rh228  1  0.19947209  0.59064158  0.00481264  1
  Rh  Rh229  1  -0.00398661  0.00531196  0.40495447  1
  Rh  Rh230  1  0.80516706  0.79623065  0.59614759  1
  Rh  Rh231  1  0.59436653  0.60490368  0.40454851  1
  Rh  Rh232  1  0.39238237  0.00522384  0.39651939  1
  Rh  Rh233  1  0.40501057  0.40551266  0.19955928  1
  Rh  Rh234  1  0.59416900  0.39873538  0.60232151  1
  Rh  Rh235  1  0.38725698  0.01103577  -0.00216070  1
  Rh  Rh236  1  -0.01167786  0.00941934  0.80759584  1
  Rh  Rh237  1  0.80542061  0.21241830  0.61003730  1
  Rh  Rh238  1  0.19391255  0.39641876  0.80531837  1
  Rh  Rh239  1  0.39293838  0.40708101  0.40747708  1
  Rh  Rh240  1  -0.00000092  0.58850252  0.41228175  1
  Rh  Rh241  1  0.60783598  0.00929807  0.40071347  1
  Rh  Rh242  1  0.59748669  0.79595099  0.40513353  1
  Rh  Rh243  1  0.60715491  0.41067337  0.80536932  1
  Rh  Rh244  1  -0.01301506  0.20562516  0.00777335  1
  Rh  Rh245  1  0.60074757  0.40875671  0.19670921  1
  Rh  Rh246  1  0.20554105  -0.00598884  0.80196794  1
  Rh  Rh247  1  0.19509176  0.81609338  -0.01176714  1
  Rh  Rh248  1  0.80132630  0.40140574  0.39603429  1
  Rh  Rh249  1  0.40284717  0.59252003  0.20315062  1
