# generated using pymatgen
data_ZrScNbPdRh
_symmetry_space_group_name_H-M   'P 1'
_cell_length_a   16.55708196
_cell_length_b   16.56124712
_cell_length_c   16.56290051
_cell_angle_alpha   89.98962234
_cell_angle_beta   90.01531339
_cell_angle_gamma   90.01104085
_symmetry_Int_Tables_number   1
_chemical_formula_structural   ZrScNbPdRh
_chemical_formula_sum   'Zr50 Sc50 Nb50 Pd50 Rh50'
_cell_volume   4541.64515029
_cell_formula_units_Z   50
loop_
 _symmetry_equiv_pos_site_id
 _symmetry_equiv_pos_as_xyz
  1  'x, y, z'
loop_
 _atom_site_type_symbol
 _atom_site_label
 _atom_site_symmetry_multiplicity
 _atom_site_fract_x
 _atom_site_fract_y
 _atom_site_fract_z
 _atom_site_occupancy
  Zr  Zr0  1  0.29841930  0.30394863  0.29457388  1
  Zr  Zr1  1  0.09425571  0.89753222  0.10003662  1
  Zr  Zr2  1  0.08709639  0.09508897  0.49815418  1
  Zr  Zr3  1  0.49562534  0.50230136  0.69589979  1
  Zr  Zr4  1  0.10562020  0.70178610  0.11118992  1
  Zr  Zr5  1  0.10650745  0.90516342  0.49593285  1
  Zr  Zr6  1  0.90507937  0.89122332  0.89964075  1
  Zr  Zr7  1  0.49965829  0.09780599  0.69459796  1
  Zr  Zr8  1  0.90661814  0.49806396  0.10970717  1
  Zr  Zr9  1  0.69676394  0.30336881  0.30324182  1
  Zr  Zr10  1  0.30322601  0.50067850  0.10572798  1
  Zr  Zr11  1  0.30275058  0.69517114  0.68784082  1
  Zr  Zr12  1  0.70362135  0.90960159  0.69411179  1
  Zr  Zr13  1  0.10812162  0.50103971  0.89902096  1
  Zr  Zr14  1  0.70539591  0.69170812  0.71121880  1
  Zr  Zr15  1  0.49689831  0.10596822  0.10075268  1
  Zr  Zr16  1  0.30174518  0.10443050  0.29548920  1
  Zr  Zr17  1  0.50589927  0.10587552  0.90999862  1
  Zr  Zr18  1  0.70241426  0.90182507  0.49557320  1
  Zr  Zr19  1  0.30012065  0.89637728  0.89586273  1
  Zr  Zr20  1  0.49125192  0.69751158  0.50745851  1
  Zr  Zr21  1  0.50099862  0.90380349  0.50380255  1
  Zr  Zr22  1  0.10126243  0.89957468  0.89891883  1
  Zr  Zr23  1  0.89956262  0.10754725  0.89756986  1
  Zr  Zr24  1  0.29865439  0.09367649  0.89812617  1
  Zr  Zr25  1  0.90712255  0.50219184  0.90182998  1
  Zr  Zr26  1  0.69896783  0.10101340  0.09334053  1
  Zr  Zr27  1  0.49740865  0.49548388  0.30022519  1
  Zr  Zr28  1  0.08870179  0.49849231  0.50306200  1
  Zr  Zr29  1  0.10229213  0.11043361  0.30368008  1
  Zr  Zr30  1  0.29385226  0.89992244  0.30316413  1
  Zr  Zr31  1  0.90238747  0.69940018  0.70373324  1
  Zr  Zr32  1  0.70066570  0.30210978  0.89691008  1
  Zr  Zr33  1  0.90004499  0.50467689  0.68527636  1
  Zr  Zr34  1  0.50105204  0.30059238  0.49798220  1
  Zr  Zr35  1  0.90137902  0.09524622  0.30122170  1
  Zr  Zr36  1  0.70427320  0.49323790  0.69948174  1
  Zr  Zr37  1  0.49345947  0.30865104  0.69180194  1
  Zr  Zr38  1  0.90085313  0.91328214  0.48826795  1
  Zr  Zr39  1  0.70624061  0.09686660  0.50286534  1
  Zr  Zr40  1  0.30326856  0.89432930  0.10197115  1
  Zr  Zr41  1  0.50028216  0.69436546  0.90226652  1
  Zr  Zr42  1  0.70541012  0.50276194  0.30035705  1
  Zr  Zr43  1  0.89576103  0.70255277  0.89497149  1
  Zr  Zr44  1  0.09945685  0.50417986  0.29818922  1
  Zr  Zr45  1  0.09966595  0.50135651  0.69635338  1
  Zr  Zr46  1  0.09752816  0.29647215  0.11072954  1
  Zr  Zr47  1  0.70251549  0.69745199  0.30375403  1
  Zr  Zr48  1  0.30536930  0.29837609  0.51195895  1
  Zr  Zr49  1  0.49613942  0.89113500  0.89764961  1
  Sc  Sc50  1  0.49349327  0.88546719  0.10381592  1
  Sc  Sc51  1  0.50413521  0.09833003  0.49741201  1
  Sc  Sc52  1  0.89855537  0.10463598  0.68745458  1
  Sc  Sc53  1  0.49571988  0.49628460  0.49970914  1
  Sc  Sc54  1  0.09084870  0.29356589  0.90130339  1
  Sc  Sc55  1  0.09446173  0.10029937  0.69179479  1
  Sc  Sc56  1  0.91092042  0.70605574  0.09817043  1
  Sc  Sc57  1  0.29059478  0.50882301  0.51061468  1
  Sc  Sc58  1  0.90469720  0.29499459  0.10471950  1
  Sc  Sc59  1  0.90411724  0.30778573  0.49973147  1
  Sc  Sc60  1  0.70066021  0.29675712  0.10719298  1
  Sc  Sc61  1  0.71186154  0.90287526  0.90366876  1
  Sc  Sc62  1  0.69129137  0.49924224  0.10814751  1
  Sc  Sc63  1  0.29050538  0.09165390  0.50019415  1
  Sc  Sc64  1  0.09519130  0.29684244  0.49727788  1
  Sc  Sc65  1  0.09700766  0.29842466  0.69416148  1
  Sc  Sc66  1  0.71119538  0.50424195  0.49074287  1
  Sc  Sc67  1  0.49899110  0.30004479  0.09489456  1
  Sc  Sc68  1  0.49323178  0.69744696  0.10371474  1
  Sc  Sc69  1  0.10249372  0.49991340  0.09657406  1
  Sc  Sc70  1  0.09843356  0.69657479  0.89879527  1
  Sc  Sc71  1  0.29210856  0.49640015  0.70519473  1
  Sc  Sc72  1  0.89814945  0.10242652  0.10765073  1
  Sc  Sc73  1  0.49595129  0.49564702  0.90783140  1
  Sc  Sc74  1  0.30352276  0.31199834  0.90496962  1
  Sc  Sc75  1  0.30121115  0.30072493  0.10638766  1
  Sc  Sc76  1  0.90326097  0.69029093  0.49257182  1
  Sc  Sc77  1  0.70173509  0.69795412  0.48515167  1
  Sc  Sc78  1  0.50085000  0.10334251  0.30105811  1
  Sc  Sc79  1  0.49512235  0.89749358  0.70058277  1
  Sc  Sc80  1  0.30528011  0.69502871  0.10628094  1
  Sc  Sc81  1  0.10137517  0.69663084  0.70184272  1
  Sc  Sc82  1  0.70245452  0.10553515  0.29169085  1
  Sc  Sc83  1  0.10351850  0.90020746  0.69641561  1
  Sc  Sc84  1  0.70237622  0.30237312  0.49689040  1
  Sc  Sc85  1  0.29868909  0.90402613  0.69695445  1
  Sc  Sc86  1  0.49394179  0.70432791  0.70901673  1
  Sc  Sc87  1  0.50316822  0.70171638  0.29759572  1
  Sc  Sc88  1  0.71131532  0.10107755  0.69482773  1
  Sc  Sc89  1  0.90181678  0.29320284  0.89900614  1
  Sc  Sc90  1  0.70877072  0.90381537  0.09759573  1
  Sc  Sc91  1  0.90952931  0.69507911  0.30301963  1
  Sc  Sc92  1  0.68880014  0.50295366  0.89903718  1
  Sc  Sc93  1  0.70078556  0.89899675  0.30543323  1
  Sc  Sc94  1  0.49670465  0.89837840  0.30010355  1
  Sc  Sc95  1  0.90606898  0.90287558  0.10108563  1
  Sc  Sc96  1  0.29651388  0.50239197  0.90959980  1
  Sc  Sc97  1  0.30100803  0.69490583  0.89959344  1
  Sc  Sc98  1  0.69469456  0.69228233  0.10693264  1
  Sc  Sc99  1  0.09344413  0.09934266  0.89810580  1
  Nb  Nb100  1  0.90770055  0.49853117  0.48904967  1
  Nb  Nb101  1  0.90735804  0.30092661  0.29814393  1
  Nb  Nb102  1  0.10207454  0.09949811  0.09855065  1
  Nb  Nb103  1  0.50040034  0.29787611  0.31139748  1
  Nb  Nb104  1  0.89724316  0.90053679  0.29722158  1
  Nb  Nb105  1  0.30295418  0.29203805  0.69894419  1
  Nb  Nb106  1  0.10663886  0.69615427  0.49092726  1
  Nb  Nb107  1  0.29376720  0.70259680  0.49865968  1
  Nb  Nb108  1  0.70342448  0.30047265  0.69781228  1
  Nb  Nb109  1  0.09555432  0.89330601  0.29616543  1
  Nb  Nb110  1  0.90270128  0.89635071  0.69775710  1
  Nb  Nb111  1  0.69954851  0.69580217  0.90419296  1
  Nb  Nb112  1  0.29821522  0.50141384  0.29818389  1
  Nb  Nb113  1  0.30236347  0.10736990  0.69877354  1
  Nb  Nb114  1  0.28545033  0.69410581  0.30217937  1
  Nb  Nb115  1  0.90019189  0.10204745  0.49314595  1
  Nb  Nb116  1  0.10959111  0.70589007  0.30375685  1
  Nb  Nb117  1  0.90212705  0.49213289  0.31064803  1
  Nb  Nb118  1  0.10187564  0.30080163  0.29881528  1
  Nb  Nb119  1  0.69662314  0.10112973  0.90340624  1
  Nb  Nb120  1  0.49347700  0.50764984  0.09760083  1
  Nb  Nb121  1  0.29719285  0.89394132  0.50092679  1
  Nb  Nb122  1  0.50112147  0.29844379  0.89804196  1
  Nb  Nb123  1  0.30167411  0.10070302  0.10394167  1
  Nb  Nb124  1  0.89040984  0.30223400  0.70316263  1
  Nb  Nb125  1  0.39860733  0.20512308  0.39969900  1
  Nb  Nb126  1  0.19667348  0.00241385  0.19790567  1
  Nb  Nb127  1  0.60415475  0.20582635  0.60576718  1
  Nb  Nb128  1  0.60373809  0.79294904  -0.00488460  1
  Nb  Nb129  1  -0.00477349  0.40014231  0.79309552  1
  Nb  Nb130  1  0.20033276  0.80125290  0.00283045  1
  Nb  Nb131  1  0.60413623  0.00813926  0.80599535  1
  Nb  Nb132  1  0.80361462  0.80052709  0.59664367  1
  Nb  Nb133  1  -0.00821736  -0.00386154  0.79598289  1
  Nb  Nb134  1  0.40099061  0.20337339  0.79898726  1
  Nb  Nb135  1  0.80054929  0.59704971  0.00068471  1
  Nb  Nb136  1  0.20109565  0.19327081  0.00234105  1
  Nb  Nb137  1  0.60824445  0.79543880  0.60165759  1
  Nb  Nb138  1  0.20062936  0.40124159  0.39627956  1
  Nb  Nb139  1  0.60308348  0.60340366  0.60130156  1
  Nb  Nb140  1  0.80489979  0.80027867  0.20641069  1
  Nb  Nb141  1  0.38815369  0.79541130  0.40570495  1
  Nb  Nb142  1  0.39941564  0.00062387  0.00250788  1
  Nb  Nb143  1  0.59993499  0.20310228  0.79665666  1
  Nb  Nb144  1  0.80186402  0.40653935  0.00239535  1
  Nb  Nb145  1  0.80781559  0.20084438  0.39869475  1
  Nb  Nb146  1  0.38805169  0.60399177  0.39699163  1
  Nb  Nb147  1  0.59839473  0.00077439  0.19282807  1
  Nb  Nb148  1  0.20799226  0.20025460  0.79898310  1
  Nb  Nb149  1  -0.00274625  0.80014084  0.59400634  1
  Pd  Pd150  1  0.60808956  0.40525621  0.59039318  1
  Pd  Pd151  1  0.39257957  0.00051731  0.59565160  1
  Pd  Pd152  1  0.79429750  0.78888557  0.01295631  1
  Pd  Pd153  1  0.59243082  -0.01571381  0.00339098  1
  Pd  Pd154  1  0.59533298  0.19931671  0.20169455  1
  Pd  Pd155  1  0.19408191  0.19479127  0.59894097  1
  Pd  Pd156  1  0.20180629  0.79175435  0.80053158  1
  Pd  Pd157  1  0.80413759  0.00620295  0.79958830  1
  Pd  Pd158  1  -0.00723319  0.00508040  -0.00501220  1
  Pd  Pd159  1  0.61128857  0.80940888  0.80163279  1
  Pd  Pd160  1  0.38887515  0.20132130  -0.00455306  1
  Pd  Pd161  1  0.39655351  0.40209406  0.80186901  1
  Pd  Pd162  1  -0.00074899  0.79989734  0.40234166  1
  Pd  Pd163  1  0.19702749  0.38953697  0.00613618  1
  Pd  Pd164  1  0.80030420  0.20836996  0.00439982  1
  Pd  Pd165  1  0.79262089  0.80469606  0.79595156  1
  Pd  Pd166  1  0.39359209  0.59342597  0.80367241  1
  Pd  Pd167  1  0.40936382  0.39546798  0.19548401  1
  Pd  Pd168  1  0.58929448  0.79744477  0.40570054  1
  Pd  Pd169  1  0.60294212  0.39869762  0.00653060  1
  Pd  Pd170  1  0.19140192  0.38798351  0.80038586  1
  Pd  Pd171  1  0.39839315  0.00186432  0.40371610  1
  Pd  Pd172  1  -0.00299719  0.39258729  -0.00286518  1
  Pd  Pd173  1  0.38758135  0.40438789  0.40702651  1
  Pd  Pd174  1  0.19161788  0.79697576  0.60030506  1
  Pd  Pd175  1  0.00169770  0.60626388  0.00161557  1
  Pd  Pd176  1  0.00208512  0.60206181  0.20594858  1
  Pd  Pd177  1  0.60471347  0.40879333  0.40586449  1
  Pd  Pd178  1  0.59495898  0.59392002  0.79674242  1
  Pd  Pd179  1  0.60462704  0.00633948  0.38776742  1
  Pd  Pd180  1  0.79535657  0.19572882  0.79817880  1
  Pd  Pd181  1  0.80195989  0.39888540  0.59052273  1
  Pd  Pd182  1  0.80674490  0.40695440  0.80787722  1
  Pd  Pd183  1  0.00263477  0.59513789  0.79830338  1
  Pd  Pd184  1  0.80961269  0.60679388  0.19706460  1
  Pd  Pd185  1  -0.00840976  0.20700400  0.59923707  1
  Pd  Pd186  1  0.40870140  0.00515433  0.80353118  1
  Pd  Pd187  1  0.59073220  0.39824707  0.19740594  1
  Pd  Pd188  1  0.59447963  0.39907242  0.79896262  1
  Pd  Pd189  1  0.81155908  0.00376901  0.00106135  1
  Pd  Pd190  1  0.19884591  0.39703330  0.59633407  1
  Pd  Pd191  1  0.79624424  0.60735375  0.59001209  1
  Pd  Pd192  1  0.40383768  -0.00257884  0.19698440  1
  Pd  Pd193  1  0.18910549  0.00850445  0.78924835  1
  Pd  Pd194  1  0.59233115  0.59807721  0.20283655  1
  Pd  Pd195  1  0.00662435  0.00406176  0.20398296  1
  Pd  Pd196  1  0.80293368  0.39649735  0.19721749  1
  Pd  Pd197  1  0.20693372  0.20761317  0.40824301  1
  Pd  Pd198  1  0.61124573  0.80822588  0.19344551  1
  Pd  Pd199  1  0.20475128  -0.00192312  0.00740161  1
  Rh  Rh200  1  0.00752936  -0.00179607  0.38883249  1
  Rh  Rh201  1  0.19445986  -0.00133469  0.39236334  1
  Rh  Rh202  1  0.19849027  0.59439181  0.19701955  1
  Rh  Rh203  1  0.00706378  0.60089682  0.39601328  1
  Rh  Rh204  1  0.19924300  0.80454422  0.40156018  1
  Rh  Rh205  1  0.40306351  0.40170893  0.00540804  1
  Rh  Rh206  1  0.59962906  0.60421222  0.00530915  1
  Rh  Rh207  1  0.00177888  0.20028121  0.78914319  1
  Rh  Rh208  1  0.81105421  -0.00409022  0.59726016  1
  Rh  Rh209  1  -0.00607660  0.39477486  0.60651892  1
  Rh  Rh210  1  0.38748174  0.79476146  0.79333530  1
  Rh  Rh211  1  0.80412747  0.39375670  0.39704164  1
  Rh  Rh212  1  0.79963162  0.20804722  0.58913237  1
  Rh  Rh213  1  0.00281946  0.40054298  0.20513055  1
  Rh  Rh214  1  0.20392782  0.80502713  0.19699409  1
  Rh  Rh215  1  0.81002694  0.79735719  0.39606645  1
  Rh  Rh216  1  0.19576799  0.40616308  0.20217280  1
  Rh  Rh217  1  0.79321163  0.00922644  0.39096714  1
  Rh  Rh218  1  -0.00420962  -0.00650781  0.60309898  1
  Rh  Rh219  1  0.80412878  0.20625319  0.20923661  1
  Rh  Rh220  1  0.19863526  0.19476402  0.19254877  1
  Rh  Rh221  1  0.19127208  0.60401248  0.60016555  1
  Rh  Rh222  1  0.20382083  0.60088111  0.79873140  1
  Rh  Rh223  1  0.00426739  0.19558875  0.00746858  1
  Rh  Rh224  1  0.58703763  0.59539833  0.40471666  1
  Rh  Rh225  1  0.01030148  0.79467528  -0.00342512  1
  Rh  Rh226  1  0.40719966  0.20867835  0.20856835  1
  Rh  Rh227  1  -0.00033519  0.19545726  0.20224619  1
  Rh  Rh228  1  0.39939315  0.79764340  -0.00458130  1
  Rh  Rh229  1  -0.00592142  0.20586368  0.39802099  1
  Rh  Rh230  1  0.59802769  -0.00021866  0.60696985  1
  Rh  Rh231  1  -0.00634241  0.79860345  0.20872822  1
  Rh  Rh232  1  0.40735964  0.19186493  0.59422691  1
  Rh  Rh233  1  0.40226784  0.80625801  0.59782588  1
  Rh  Rh234  1  0.20098895  0.60876663  0.00624591  1
  Rh  Rh235  1  0.00833545  0.80546251  0.79282272  1
  Rh  Rh236  1  0.40155887  0.59509686  0.59745953  1
  Rh  Rh237  1  0.00328710  0.61083548  0.59319666  1
  Rh  Rh238  1  0.19778792  0.59035345  0.40317605  1
  Rh  Rh239  1  0.40123088  0.60200783  0.21054949  1
  Rh  Rh240  1  0.39837693  0.59870412  0.00150732  1
  Rh  Rh241  1  0.79948978  0.58977454  0.81123713  1
  Rh  Rh242  1  0.38886494  0.41050228  0.60168428  1
  Rh  Rh243  1  0.00833490  0.39540273  0.39376630  1
  Rh  Rh244  1  0.20206413  0.00281535  0.60160861  1
  Rh  Rh245  1  0.80817917  0.59719194  0.39459678  1
  Rh  Rh246  1  0.60809908  0.21214710  -0.00206330  1
  Rh  Rh247  1  0.39129154  0.78973414  0.21771896  1
  Rh  Rh248  1  0.60310633  0.19736948  0.40765764  1
  Rh  Rh249  1  0.79337768  -0.00863642  0.20348308  1
