# generated using pymatgen
data_ZrScNbPdRh
_symmetry_space_group_name_H-M   'P 1'
_cell_length_a   16.55818749
_cell_length_b   16.56075517
_cell_length_c   16.56040419
_cell_angle_alpha   89.98651597
_cell_angle_beta   89.99753784
_cell_angle_gamma   89.98319705
_symmetry_Int_Tables_number   1
_chemical_formula_structural   ZrScNbPdRh
_chemical_formula_sum   'Zr50 Sc50 Nb50 Pd50 Rh50'
_cell_volume   4541.12894622
_cell_formula_units_Z   50
loop_
 _symmetry_equiv_pos_site_id
 _symmetry_equiv_pos_as_xyz
  1  'x, y, z'
loop_
 _atom_site_type_symbol
 _atom_site_label
 _atom_site_symmetry_multiplicity
 _atom_site_fract_x
 _atom_site_fract_y
 _atom_site_fract_z
 _atom_site_occupancy
  Zr  Zr0  1  0.89174328  0.89902740  0.90512984  1
  Zr  Zr1  1  0.09646027  0.09253291  0.09532645  1
  Zr  Zr2  1  0.09631847  0.08093783  0.70496490  1
  Zr  Zr3  1  0.89607181  0.70362700  0.10444653  1
  Zr  Zr4  1  0.50027646  0.69979651  0.29519490  1
  Zr  Zr5  1  0.90776026  0.49004468  0.29731603  1
  Zr  Zr6  1  0.09588539  0.69658063  0.10196686  1
  Zr  Zr7  1  0.69288621  0.50879156  0.09465408  1
  Zr  Zr8  1  0.90016675  0.30195367  0.11121805  1
  Zr  Zr9  1  0.90004466  0.09380679  0.49468154  1
  Zr  Zr10  1  0.50314045  0.49234561  0.89945979  1
  Zr  Zr11  1  0.09979485  0.09158444  0.50101041  1
  Zr  Zr12  1  0.70461551  0.30572006  0.09705292  1
  Zr  Zr13  1  0.50626455  0.50020003  0.49054803  1
  Zr  Zr14  1  0.69802522  0.09142524  0.89357328  1
  Zr  Zr15  1  0.91056109  0.50074784  0.89532613  1
  Zr  Zr16  1  0.70158188  0.49846290  0.90169096  1
  Zr  Zr17  1  0.48405582  0.29538588  0.90224924  1
  Zr  Zr18  1  0.30258183  0.70060196  0.10581585  1
  Zr  Zr19  1  0.30720289  0.90846051  0.89441340  1
  Zr  Zr20  1  0.91052515  0.69486691  0.29897439  1
  Zr  Zr21  1  0.49851012  0.90295553  0.50776847  1
  Zr  Zr22  1  0.29861214  0.29865248  0.51092989  1
  Zr  Zr23  1  0.50718036  0.69387810  0.10785837  1
  Zr  Zr24  1  0.30582038  0.49588343  0.50388461  1
  Zr  Zr25  1  0.10724448  0.30154790  0.89475590  1
  Zr  Zr26  1  0.49329745  0.49994396  0.69700927  1
  Zr  Zr27  1  0.49918957  0.70577443  0.49896808  1
  Zr  Zr28  1  0.89923622  0.30595548  0.90476284  1
  Zr  Zr29  1  0.09888582  0.91555912  0.89150143  1
  Zr  Zr30  1  0.69011682  0.49226715  0.30980871  1
  Zr  Zr31  1  0.89898083  0.29601615  0.69892451  1
  Zr  Zr32  1  0.09648445  0.09426568  0.29630165  1
  Zr  Zr33  1  0.28825155  0.30024422  0.28883563  1
  Zr  Zr34  1  0.29248410  0.50150708  0.89408948  1
  Zr  Zr35  1  0.29520144  0.10823095  0.89735858  1
  Zr  Zr36  1  0.48845847  0.08756132  0.90316890  1
  Zr  Zr37  1  0.70596675  0.29764058  0.30350540  1
  Zr  Zr38  1  0.70074527  0.09868473  0.70079692  1
  Zr  Zr39  1  0.30510463  0.10267254  0.50627721  1
  Zr  Zr40  1  0.70543727  0.50555085  0.68733996  1
  Zr  Zr41  1  0.69813736  0.70711641  0.69490733  1
  Zr  Zr42  1  0.10253949  0.70661767  0.69927801  1
  Zr  Zr43  1  0.50336403  0.70563794  0.89974060  1
  Zr  Zr44  1  0.50372778  0.10087038  0.50261865  1
  Zr  Zr45  1  0.50399910  0.30079039  0.70547514  1
  Zr  Zr46  1  0.29516212  0.69603747  0.89419273  1
  Zr  Zr47  1  0.08743589  0.30509121  0.29934028  1
  Zr  Zr48  1  0.09870072  0.90849446  0.10438739  1
  Zr  Zr49  1  0.70245041  0.90497144  0.49965626  1
  Sc  Sc50  1  0.29578936  0.49498358  0.10510072  1
  Sc  Sc51  1  0.90888068  0.50209665  0.69044785  1
  Sc  Sc52  1  0.50804558  0.90618997  0.10078869  1
  Sc  Sc53  1  0.09634842  0.49607724  0.70250081  1
  Sc  Sc54  1  0.49526330  0.70719249  0.69479593  1
  Sc  Sc55  1  0.09808055  0.89982950  0.30212357  1
  Sc  Sc56  1  0.68938574  0.30171393  0.89104590  1
  Sc  Sc57  1  0.70056484  0.28791286  0.69555647  1
  Sc  Sc58  1  0.30042769  0.50022489  0.30219955  1
  Sc  Sc59  1  0.30118708  0.70801677  0.49501031  1
  Sc  Sc60  1  0.70301342  0.90125801  0.30279120  1
  Sc  Sc61  1  0.70060691  0.70507578  0.91330439  1
  Sc  Sc62  1  0.50242656  0.09803166  0.69563764  1
  Sc  Sc63  1  0.90100817  0.90495126  0.10207983  1
  Sc  Sc64  1  0.90626790  0.69835621  0.90276515  1
  Sc  Sc65  1  0.49706361  0.29526509  0.30086896  1
  Sc  Sc66  1  0.09903377  0.49924577  0.09651228  1
  Sc  Sc67  1  0.70191343  0.70229893  0.10312780  1
  Sc  Sc68  1  0.89941314  0.49999970  0.09500755  1
  Sc  Sc69  1  0.29981466  0.89213554  0.69715347  1
  Sc  Sc70  1  0.29235990  0.89947519  0.30015014  1
  Sc  Sc71  1  0.70466766  0.70144043  0.28962825  1
  Sc  Sc72  1  0.30035776  0.89850527  0.49980821  1
  Sc  Sc73  1  0.90890793  0.70093705  0.69331962  1
  Sc  Sc74  1  0.30613418  0.09724282  0.70126381  1
  Sc  Sc75  1  0.89481367  0.29682282  0.49491178  1
  Sc  Sc76  1  0.89893445  0.89847499  0.30764698  1
  Sc  Sc77  1  0.51203283  0.90289227  0.29709587  1
  Sc  Sc78  1  0.69075693  0.09639552  0.10808206  1
  Sc  Sc79  1  0.90549129  0.89736583  0.49538076  1
  Sc  Sc80  1  0.69344625  0.90242689  0.90330585  1
  Sc  Sc81  1  0.30154484  0.30266091  0.70076891  1
  Sc  Sc82  1  0.29525977  0.90448711  0.10831843  1
  Sc  Sc83  1  0.09353632  0.50495570  0.30796234  1
  Sc  Sc84  1  0.10141715  0.68540063  0.89804282  1
  Sc  Sc85  1  0.49378540  0.29592277  0.50264380  1
  Sc  Sc86  1  0.11104259  0.30026488  0.10516646  1
  Sc  Sc87  1  0.91604606  0.89836523  0.69813171  1
  Sc  Sc88  1  0.70532006  0.69811143  0.50977468  1
  Sc  Sc89  1  0.30263348  0.29795400  0.09567379  1
  Sc  Sc90  1  0.89354399  0.08730465  0.89590110  1
  Sc  Sc91  1  0.29069626  0.10874650  0.10120081  1
  Sc  Sc92  1  0.30121520  0.70558299  0.30543249  1
  Sc  Sc93  1  0.49545455  0.50589885  0.29857591  1
  Sc  Sc94  1  0.09895473  0.49869767  0.89856355  1
  Sc  Sc95  1  0.50064545  0.90180333  0.70110916  1
  Sc  Sc96  1  0.69515750  0.10527057  0.49939027  1
  Sc  Sc97  1  0.09919468  0.89767343  0.49874253  1
  Sc  Sc98  1  0.90882580  0.70609584  0.50062876  1
  Sc  Sc99  1  0.10611053  0.30836850  0.69672629  1
  Nb  Nb100  1  0.09998701  0.10197892  0.89938868  1
  Nb  Nb101  1  0.29981671  0.10466855  0.30189849  1
  Nb  Nb102  1  0.09854309  0.89835760  0.69727537  1
  Nb  Nb103  1  0.10610599  0.69214197  0.48333531  1
  Nb  Nb104  1  0.50845858  0.09963934  0.29793790  1
  Nb  Nb105  1  0.89544883  0.10164904  0.69653379  1
  Nb  Nb106  1  0.29650280  0.29253313  0.89778368  1
  Nb  Nb107  1  0.69707597  0.30826394  0.49909763  1
  Nb  Nb108  1  0.29861790  0.50487511  0.69653486  1
  Nb  Nb109  1  0.89766322  0.10732532  0.29754972  1
  Nb  Nb110  1  0.29485371  0.68998934  0.70037652  1
  Nb  Nb111  1  0.89894626  0.50427358  0.50212880  1
  Nb  Nb112  1  0.10066204  0.69507719  0.30646263  1
  Nb  Nb113  1  0.10091481  0.49907469  0.50071227  1
  Nb  Nb114  1  0.90105948  0.29327477  0.29476603  1
  Nb  Nb115  1  0.49861240  0.30022975  0.09712862  1
  Nb  Nb116  1  0.70510855  0.49694121  0.49701629  1
  Nb  Nb117  1  0.50019906  0.10638923  0.10428221  1
  Nb  Nb118  1  0.69318703  0.09233999  0.30563999  1
  Nb  Nb119  1  0.70598306  0.89523582  0.10924036  1
  Nb  Nb120  1  0.10495660  0.29660771  0.50400277  1
  Nb  Nb121  1  0.49768153  0.50088644  0.09909529  1
  Nb  Nb122  1  0.49524055  0.90118252  0.90151512  1
  Nb  Nb123  1  0.69932979  0.90387728  0.70057787  1
  Nb  Nb124  1  0.90068623  0.10043587  0.10095813  1
  Nb  Nb125  1  0.59452674  0.19753273  0.00243853  1
  Nb  Nb126  1  0.80186443  0.00143747  0.60444089  1
  Nb  Nb127  1  0.79854083  0.79890221  0.79692096  1
  Nb  Nb128  1  0.00118844  0.19387982  0.60309175  1
  Nb  Nb129  1  0.19701183  0.20137004  0.40126916  1
  Nb  Nb130  1  0.60156959  0.79899494  0.40469937  1
  Nb  Nb131  1  0.80122564  0.40592865  0.79591770  1
  Nb  Nb132  1  0.40236588  0.60069145  0.00119494  1
  Nb  Nb133  1  0.79876909  0.19596518  0.00313396  1
  Nb  Nb134  1  0.40409460  0.01325127  0.20674819  1
  Nb  Nb135  1  0.40391580  0.00935665  0.39283369  1
  Nb  Nb136  1  0.60413212  0.40182906  0.59236681  1
  Nb  Nb137  1  0.00895583  0.80490756  0.00085971  1
  Nb  Nb138  1  0.20094144  0.59942093  0.59692576  1
  Nb  Nb139  1  0.60446644  0.60127978  0.79813589  1
  Nb  Nb140  1  0.79825090  0.60322697  0.79617575  1
  Nb  Nb141  1  0.59437182  0.39910631  0.19321164  1
  Nb  Nb142  1  0.00049456  0.19420909  0.80006640  1
  Nb  Nb143  1  -0.00291164  0.19460199  -0.00326111  1
  Nb  Nb144  1  0.80142506  0.00895983  0.20596003  1
  Nb  Nb145  1  0.80398907  0.59235123  0.40419728  1
  Nb  Nb146  1  0.19510969  0.60511142  0.20676273  1
  Nb  Nb147  1  0.39921484  0.80059499  -0.00064286  1
  Nb  Nb148  1  0.19921337  0.80255991  -0.00270178  1
  Nb  Nb149  1  0.19474331  0.39536446  0.40844745  1
  Pd  Pd150  1  -0.00158841  0.39134121  0.59329229  1
  Pd  Pd151  1  0.19439940  0.19802767  0.78676846  1
  Pd  Pd152  1  0.80823163  0.80999114  0.60560332  1
  Pd  Pd153  1  0.38869805  0.40537222  -0.00014240  1
  Pd  Pd154  1  0.40882525  0.60190335  0.80462954  1
  Pd  Pd155  1  0.79334545  0.40980213  0.20162496  1
  Pd  Pd156  1  0.80405625  0.20482406  0.81085153  1
  Pd  Pd157  1  0.60106349  0.20691994  0.40307187  1
  Pd  Pd158  1  0.20633661  -0.00722654  0.60381636  1
  Pd  Pd159  1  0.39246374  -0.00125359  0.01543566  1
  Pd  Pd160  1  0.20411233  0.39757375  -0.00140441  1
  Pd  Pd161  1  0.39916400  0.19904184  0.19773768  1
  Pd  Pd162  1  0.38959933  0.39950439  0.79904615  1
  Pd  Pd163  1  0.79581204  0.19669599  0.40337264  1
  Pd  Pd164  1  -0.00145174  0.39664516  0.41101480  1
  Pd  Pd165  1  0.20813358  -0.00157620  -0.00124610  1
  Pd  Pd166  1  0.39589665  0.39257247  0.39583714  1
  Pd  Pd167  1  0.79979067  0.39450641  0.60309650  1
  Pd  Pd168  1  0.79093739  0.00324432  0.01325820  1
  Pd  Pd169  1  0.80675561  0.60340214  -0.00525374  1
  Pd  Pd170  1  0.81036853  0.40030140  0.39958430  1
  Pd  Pd171  1  0.39825775  0.79936275  0.79769589  1
  Pd  Pd172  1  0.39443476  0.60361182  0.39889759  1
  Pd  Pd173  1  0.40693118  0.81483876  0.39231943  1
  Pd  Pd174  1  0.40546766  0.39987234  0.20149719  1
  Pd  Pd175  1  0.60355675  0.00019461  0.00556690  1
  Pd  Pd176  1  0.59728563  0.39232979  0.00141438  1
  Pd  Pd177  1  0.01051178  0.60641938  0.59478504  1
  Pd  Pd178  1  0.39460458  0.20048708  0.39735995  1
  Pd  Pd179  1  0.40557717  0.81513655  0.19770367  1
  Pd  Pd180  1  0.00706868  0.19821728  0.19182343  1
  Pd  Pd181  1  0.00376928  0.19856542  0.40651267  1
  Pd  Pd182  1  0.79823328  0.58931571  0.20819846  1
  Pd  Pd183  1  0.79095885  0.19223329  0.19803652  1
  Pd  Pd184  1  0.59769693  0.80640019  0.00863102  1
  Pd  Pd185  1  0.58886150  0.18941982  0.80940529  1
  Pd  Pd186  1  0.19416519  0.79537649  0.20173717  1
  Pd  Pd187  1  0.61192156  0.61383841  0.39943375  1
  Pd  Pd188  1  0.19313701  0.19145947  0.60716006  1
  Pd  Pd189  1  0.60455638  0.20877583  0.19834609  1
  Pd  Pd190  1  0.39609869  0.60782366  0.59338134  1
  Pd  Pd191  1  0.79543733  0.78735335  0.39880920  1
  Pd  Pd192  1  0.59414789  0.59728611  0.60008060  1
  Pd  Pd193  1  0.00760881  0.39150619  0.00671435  1
  Pd  Pd194  1  0.60496470  0.80173162  0.80038708  1
  Pd  Pd195  1  -0.00057714  0.80646775  0.20059140  1
  Pd  Pd196  1  0.19717383  0.80438219  0.80509225  1
  Pd  Pd197  1  0.19856721  0.79412410  0.59272180  1
  Pd  Pd198  1  0.20669888  0.00132217  0.40080621  1
  Pd  Pd199  1  -0.00183071  0.79828721  0.80864431  1
  Rh  Rh200  1  0.81092229  0.60481635  0.59547616  1
  Rh  Rh201  1  0.19580095  0.80360474  0.39888724  1
  Rh  Rh202  1  0.80570167  0.80980915  0.20316132  1
  Rh  Rh203  1  0.60811718  0.00011138  0.60308078  1
  Rh  Rh204  1  -0.00617592  -0.00127802  0.59654947  1
  Rh  Rh205  1  0.19122537  0.59314118  0.78766894  1
  Rh  Rh206  1  0.59082543  0.60187111  -0.00676441  1
  Rh  Rh207  1  -0.00457294  0.60446450  0.00423846  1
  Rh  Rh208  1  -0.00277479  -0.00214768  0.39367090  1
  Rh  Rh209  1  0.20630715  0.59138278  0.40037080  1
  Rh  Rh210  1  -0.00428314  0.00089916  -0.00636026  1
  Rh  Rh211  1  0.00367017  0.40281880  0.19383003  1
  Rh  Rh212  1  -0.00098471  0.60064199  0.79507829  1
  Rh  Rh213  1  0.39727526  -0.00193645  0.59643327  1
  Rh  Rh214  1  0.79773146  0.39869191  -0.00644268  1
  Rh  Rh215  1  0.01336532  0.79825602  0.59177616  1
  Rh  Rh216  1  0.39421396  0.79690744  0.60582740  1
  Rh  Rh217  1  -0.00856773  0.59849907  0.40629293  1
  Rh  Rh218  1  0.38987040  0.59470238  0.19691187  1
  Rh  Rh219  1  0.59934015  0.80630926  0.59520826  1
  Rh  Rh220  1  0.40520911  0.20240544  0.61064284  1
  Rh  Rh221  1  0.20733661  0.00632893  0.20472560  1
  Rh  Rh222  1  0.80129675  0.19383111  0.58881997  1
  Rh  Rh223  1  -0.00452763  0.39342910  0.79655565  1
  Rh  Rh224  1  0.00554959  0.59411029  0.19769635  1
  Rh  Rh225  1  0.20821916  -0.00304526  0.79290182  1
  Rh  Rh226  1  0.19289216  0.20368603  -0.00069511  1
  Rh  Rh227  1  -0.00873207  0.00182102  0.80163411  1
  Rh  Rh228  1  0.80396406  0.79984311  0.00094888  1
  Rh  Rh229  1  -0.01328744  -0.00111858  0.20968647  1
  Rh  Rh230  1  0.19184328  0.19466675  0.20435437  1
  Rh  Rh231  1  0.60522912  0.80228315  0.20472504  1
  Rh  Rh232  1  0.61226437  0.41068657  0.78217782  1
  Rh  Rh233  1  0.80045450  0.00665510  0.39818514  1
  Rh  Rh234  1  0.60409742  -0.00394986  0.19834901  1
  Rh  Rh235  1  0.20860278  0.60395883  0.01209467  1
  Rh  Rh236  1  0.20077629  0.41068244  0.59867254  1
  Rh  Rh237  1  0.39993881  0.19749768  0.79645868  1
  Rh  Rh238  1  0.59130802  -0.00330605  0.80013440  1
  Rh  Rh239  1  0.19022843  0.41479427  0.21333923  1
  Rh  Rh240  1  0.40787115  0.39682894  0.60319386  1
  Rh  Rh241  1  0.20538979  0.40240696  0.79769408  1
  Rh  Rh242  1  0.59983276  0.20839471  0.59534634  1
  Rh  Rh243  1  0.39912448  0.19641002  0.00434823  1
  Rh  Rh244  1  0.59506167  -0.00575543  0.40493098  1
  Rh  Rh245  1  0.00677949  0.79846735  0.39989455  1
  Rh  Rh246  1  0.60346394  0.59167676  0.20455464  1
  Rh  Rh247  1  0.80651205  -0.01542600  0.78765751  1
  Rh  Rh248  1  0.40244910  -0.00049983  0.79168293  1
  Rh  Rh249  1  0.59098877  0.39111721  0.39959458  1
