# generated using pymatgen
data_ZrScNbPdRh
_symmetry_space_group_name_H-M   'P 1'
_cell_length_a   16.54967601
_cell_length_b   16.55584013
_cell_length_c   16.54944822
_cell_angle_alpha   90.00307618
_cell_angle_beta   90.01656019
_cell_angle_gamma   89.98619275
_symmetry_Int_Tables_number   1
_chemical_formula_structural   ZrScNbPdRh
_chemical_formula_sum   'Zr50 Sc50 Nb50 Pd50 Rh50'
_cell_volume   4534.44571491
_cell_formula_units_Z   50
loop_
 _symmetry_equiv_pos_site_id
 _symmetry_equiv_pos_as_xyz
  1  'x, y, z'
loop_
 _atom_site_type_symbol
 _atom_site_label
 _atom_site_symmetry_multiplicity
 _atom_site_fract_x
 _atom_site_fract_y
 _atom_site_fract_z
 _atom_site_occupancy
  Zr  Zr0  1  0.29664790  0.90285011  0.10588332  1
  Zr  Zr1  1  0.69830487  0.70286903  0.10099130  1
  Zr  Zr2  1  0.09204273  0.89336096  0.10223249  1
  Zr  Zr3  1  0.30183329  0.50006432  0.09800276  1
  Zr  Zr4  1  0.10344102  0.68980635  0.70223093  1
  Zr  Zr5  1  0.30754158  0.29364483  0.50229652  1
  Zr  Zr6  1  0.89861104  0.69584493  0.49870630  1
  Zr  Zr7  1  0.69575773  0.30229515  0.50364403  1
  Zr  Zr8  1  0.30269674  0.09780817  0.10172692  1
  Zr  Zr9  1  0.30141900  0.70116016  0.09981127  1
  Zr  Zr10  1  0.70637026  0.70019373  0.89377379  1
  Zr  Zr11  1  0.90453932  0.50652497  0.69491228  1
  Zr  Zr12  1  0.09806586  0.10402377  0.30472852  1
  Zr  Zr13  1  0.30509576  0.09039129  0.90176911  1
  Zr  Zr14  1  0.09964765  0.30519663  0.69438251  1
  Zr  Zr15  1  0.89711066  0.91254275  0.30654710  1
  Zr  Zr16  1  0.30028210  0.29979992  0.69425601  1
  Zr  Zr17  1  0.09259992  0.49560358  0.10117160  1
  Zr  Zr18  1  0.50984965  0.29969425  0.68693455  1
  Zr  Zr19  1  0.30359302  0.30115482  0.90559129  1
  Zr  Zr20  1  0.70622301  0.09682502  0.10396998  1
  Zr  Zr21  1  0.90471451  0.30086967  0.49878339  1
  Zr  Zr22  1  0.10593930  0.29870099  0.49430454  1
  Zr  Zr23  1  0.29536001  0.50233804  0.70205921  1
  Zr  Zr24  1  0.69981209  0.90612576  0.70560803  1
  Zr  Zr25  1  0.69801789  0.90900953  0.49523214  1
  Zr  Zr26  1  0.89947694  0.10407139  0.70717705  1
  Zr  Zr27  1  0.49996780  0.89957546  0.68813132  1
  Zr  Zr28  1  0.49999761  0.49650539  0.30014393  1
  Zr  Zr29  1  0.09225363  0.29982035  0.10681124  1
  Zr  Zr30  1  0.09360139  0.29811020  0.30267781  1
  Zr  Zr31  1  0.90319467  0.90169279  0.49983494  1
  Zr  Zr32  1  0.50273943  0.09473983  0.90145328  1
  Zr  Zr33  1  0.30020723  0.69496016  0.49164136  1
  Zr  Zr34  1  0.31614525  0.89796706  0.90476813  1
  Zr  Zr35  1  0.31055376  0.69552508  0.69375601  1
  Zr  Zr36  1  0.09892097  0.30913453  0.90028638  1
  Zr  Zr37  1  0.10163865  0.50349584  0.69901953  1
  Zr  Zr38  1  0.49816398  0.30092268  0.29185916  1
  Zr  Zr39  1  0.90377442  0.89779405  0.69788521  1
  Zr  Zr40  1  0.29721771  0.49625067  0.90084946  1
  Zr  Zr41  1  0.90653204  0.70998234  0.09458702  1
  Zr  Zr42  1  0.31406645  0.30368230  0.09839161  1
  Zr  Zr43  1  0.70714167  0.49151357  0.30390877  1
  Zr  Zr44  1  0.70147643  0.09177906  0.90184925  1
  Zr  Zr45  1  0.69681162  0.30802312  0.89489916  1
  Zr  Zr46  1  0.09703802  0.10148543  0.89400175  1
  Zr  Zr47  1  0.49297939  0.69548384  0.30858076  1
  Zr  Zr48  1  0.49365995  0.48806276  0.10696135  1
  Zr  Zr49  1  0.49640219  0.70682311  0.90060200  1
  Sc  Sc50  1  0.49930596  0.89694920  0.10685590  1
  Sc  Sc51  1  0.70302664  0.68876248  0.50441047  1
  Sc  Sc52  1  0.50061757  0.48274657  0.50481850  1
  Sc  Sc53  1  0.90700681  0.68827357  0.30157761  1
  Sc  Sc54  1  0.09203918  0.49418971  0.50432806  1
  Sc  Sc55  1  0.09387321  0.90628349  0.50005153  1
  Sc  Sc56  1  0.29972689  0.49662618  0.50040290  1
  Sc  Sc57  1  0.10205000  0.09828315  0.11329759  1
  Sc  Sc58  1  0.10751647  0.90222476  0.89479730  1
  Sc  Sc59  1  0.09408522  0.69590850  0.49082538  1
  Sc  Sc60  1  0.49342261  0.70413675  0.51167789  1
  Sc  Sc61  1  0.29497115  0.09722076  0.30198732  1
  Sc  Sc62  1  0.50014048  0.09579418  0.29825977  1
  Sc  Sc63  1  0.30099897  0.50756770  0.30708544  1
  Sc  Sc64  1  0.69412876  0.50865888  0.70450725  1
  Sc  Sc65  1  0.29468783  0.10179077  0.49718112  1
  Sc  Sc66  1  0.29654316  0.29632862  0.31257288  1
  Sc  Sc67  1  0.30393562  0.69923247  0.89759963  1
  Sc  Sc68  1  0.51767751  0.49882435  0.90068683  1
  Sc  Sc69  1  0.29180176  0.90235445  0.30684379  1
  Sc  Sc70  1  0.10120305  0.90522897  0.69415304  1
  Sc  Sc71  1  0.89617328  0.90523012  0.10043893  1
  Sc  Sc72  1  0.88860866  0.29448759  0.70617381  1
  Sc  Sc73  1  0.69469450  0.91997740  0.29404881  1
  Sc  Sc74  1  0.89632834  0.69186993  0.70030134  1
  Sc  Sc75  1  0.10557445  0.50486960  0.89455404  1
  Sc  Sc76  1  0.50201344  0.11289236  0.10433443  1
  Sc  Sc77  1  0.70251270  0.29110757  0.09985020  1
  Sc  Sc78  1  0.89433210  0.10612409  0.29701317  1
  Sc  Sc79  1  0.49992268  0.69287388  0.10291776  1
  Sc  Sc80  1  0.09554706  0.50404693  0.30147028  1
  Sc  Sc81  1  0.49887054  0.09521075  0.49511222  1
  Sc  Sc82  1  0.69583947  0.49885020  0.10451525  1
  Sc  Sc83  1  0.88841203  0.89216443  0.90573639  1
  Sc  Sc84  1  0.70056571  0.68866546  0.29672143  1
  Sc  Sc85  1  0.30209650  0.90109857  0.70112696  1
  Sc  Sc86  1  0.89908752  0.50817535  0.49346923  1
  Sc  Sc87  1  0.51055293  0.09655298  0.70150931  1
  Sc  Sc88  1  0.70252763  0.10668296  0.49836020  1
  Sc  Sc89  1  0.09959269  0.09470456  0.69727170  1
  Sc  Sc90  1  0.10027001  0.90239949  0.29862859  1
  Sc  Sc91  1  0.29906544  0.09553526  0.69143128  1
  Sc  Sc92  1  0.10315943  0.09694386  0.50182138  1
  Sc  Sc93  1  0.30458912  0.90374757  0.50223526  1
  Sc  Sc94  1  0.88734322  0.30467165  0.90397025  1
  Sc  Sc95  1  0.89851819  0.70044990  0.89484134  1
  Sc  Sc96  1  0.09823544  0.70071971  0.90288629  1
  Sc  Sc97  1  0.90382915  0.09724667  0.49045635  1
  Sc  Sc98  1  0.09833673  0.70061999  0.10904790  1
  Sc  Sc99  1  0.50082617  0.50494827  0.69976050  1
  Nb  Nb100  1  0.70546502  0.29348562  0.30148346  1
  Nb  Nb101  1  0.69691742  0.70197071  0.69977788  1
  Nb  Nb102  1  0.49876759  0.29436818  0.49700929  1
  Nb  Nb103  1  0.10906600  0.69891525  0.29638349  1
  Nb  Nb104  1  0.70349527  0.49844630  0.49962459  1
  Nb  Nb105  1  0.70498627  0.89964786  0.09644514  1
  Nb  Nb106  1  0.70589036  0.11123087  0.69851964  1
  Nb  Nb107  1  0.50558468  0.90370437  0.89345156  1
  Nb  Nb108  1  0.50336077  0.89772784  0.30994704  1
  Nb  Nb109  1  0.69724387  0.89899678  0.90337224  1
  Nb  Nb110  1  0.70798108  0.50052344  0.90176836  1
  Nb  Nb111  1  0.90378502  0.30424919  0.09913735  1
  Nb  Nb112  1  0.69744032  0.11041890  0.29418083  1
  Nb  Nb113  1  0.49884427  0.29665741  0.90608595  1
  Nb  Nb114  1  0.50591623  0.90039407  0.49161825  1
  Nb  Nb115  1  0.89273524  0.10910585  0.09254894  1
  Nb  Nb116  1  0.89808207  0.49953960  0.28947494  1
  Nb  Nb117  1  0.49437381  0.30012303  0.09332630  1
  Nb  Nb118  1  0.89427868  0.49758443  0.89840611  1
  Nb  Nb119  1  0.90112580  0.49001332  0.09957961  1
  Nb  Nb120  1  0.70133029  0.28684485  0.69181586  1
  Nb  Nb121  1  0.50828271  0.70004202  0.70281669  1
  Nb  Nb122  1  0.28921559  0.70363116  0.30196182  1
  Nb  Nb123  1  0.89867161  0.10627579  0.90345250  1
  Nb  Nb124  1  0.89858933  0.30138887  0.29280625  1
  Nb  Nb125  1  0.20530590  0.20236423  0.80334672  1
  Nb  Nb126  1  0.60084313  0.20694807  0.39437430  1
  Nb  Nb127  1  0.60012289  0.80283922  0.79947030  1
  Nb  Nb128  1  0.40246891  0.20365499  0.80190306  1
  Nb  Nb129  1  0.19778523  0.19893521  -0.00018925  1
  Nb  Nb130  1  0.60201472  0.80659059  -0.00528111  1
  Nb  Nb131  1  -0.00461426  0.40555652  0.79973844  1
  Nb  Nb132  1  -0.00050895  0.20323231  0.59959761  1
  Nb  Nb133  1  -0.00871964  0.59005897  0.00164389  1
  Nb  Nb134  1  0.80420182  0.59283428  0.00087011  1
  Nb  Nb135  1  0.60185505  0.79830523  0.40001042  1
  Nb  Nb136  1  0.79347055  0.40111897  0.59892615  1
  Nb  Nb137  1  -0.00248702  0.20009872  0.00155914  1
  Nb  Nb138  1  0.79464062  0.80096477  0.39746641  1
  Nb  Nb139  1  0.59889616  0.59484969  0.40459975  1
  Nb  Nb140  1  0.00059249  0.79859852  0.79629739  1
  Nb  Nb141  1  0.40577301  0.39230789  0.80080014  1
  Nb  Nb142  1  0.20212943  0.79269680  0.59857612  1
  Nb  Nb143  1  -0.00579070  0.00929164  -0.00227121  1
  Nb  Nb144  1  0.80087123  0.00236906  0.60437486  1
  Nb  Nb145  1  0.19989936  0.39933132  0.20107972  1
  Nb  Nb146  1  0.79733918  0.80459998  0.20533852  1
  Nb  Nb147  1  0.79649459  0.80319412  0.59770290  1
  Nb  Nb148  1  0.39679161  0.79743979  0.21328943  1
  Nb  Nb149  1  0.20435157  0.80378874  0.00349276  1
  Pd  Pd150  1  -0.00853922  -0.01144564  0.80970814  1
  Pd  Pd151  1  0.79884853  0.19955575  0.40134797  1
  Pd  Pd152  1  0.19812478  0.79566639  0.79987130  1
  Pd  Pd153  1  0.41376077  -0.00161088  0.01133421  1
  Pd  Pd154  1  0.19241102  0.80694088  0.40882971  1
  Pd  Pd155  1  0.79812482  0.40588689  0.78630235  1
  Pd  Pd156  1  -0.00679040  0.40718457  0.39372920  1
  Pd  Pd157  1  0.80857963  0.60556729  0.19038258  1
  Pd  Pd158  1  0.00269519  0.21202634  0.79978658  1
  Pd  Pd159  1  0.39611882  0.00286440  0.39790185  1
  Pd  Pd160  1  0.60395699  0.39695622  0.00767276  1
  Pd  Pd161  1  0.00411241  0.78995047  0.60591156  1
  Pd  Pd162  1  0.20626010  0.00304477  0.79382199  1
  Pd  Pd163  1  0.80896241  0.39968957  0.40421828  1
  Pd  Pd164  1  -0.00816674  0.00840870  0.19565276  1
  Pd  Pd165  1  0.20398453  0.40272477  0.59201854  1
  Pd  Pd166  1  0.59455614  0.00166322  0.19459068  1
  Pd  Pd167  1  0.59673555  0.59463180  0.59322509  1
  Pd  Pd168  1  0.40749132  0.18801584  0.60405901  1
  Pd  Pd169  1  0.60626526  0.01042061  0.59685833  1
  Pd  Pd170  1  0.59911539  0.39690026  0.39931229  1
  Pd  Pd171  1  0.59890803  0.39893072  0.79155120  1
  Pd  Pd172  1  0.79587222  0.39287478  0.19355638  1
  Pd  Pd173  1  0.39423540  0.19892382  0.20868495  1
  Pd  Pd174  1  0.59858048  0.59462144  0.20533862  1
  Pd  Pd175  1  0.20000551  0.59234239  0.19961345  1
  Pd  Pd176  1  -0.00843643  0.79995604  0.21422370  1
  Pd  Pd177  1  0.39987346  0.80317602  0.40126346  1
  Pd  Pd178  1  -0.00117453  0.79829183  0.39145101  1
  Pd  Pd179  1  0.40506592  0.59190062  0.59418416  1
  Pd  Pd180  1  0.39416340  0.60398209  0.20474662  1
  Pd  Pd181  1  0.20935895  0.20792067  0.19741183  1
  Pd  Pd182  1  0.40660445  0.59054441  0.80648626  1
  Pd  Pd183  1  0.19153589  0.59088647  0.40544830  1
  Pd  Pd184  1  0.60515532  0.60506649  -0.00187349  1
  Pd  Pd185  1  0.39584606  0.39929958  0.39863116  1
  Pd  Pd186  1  0.60642255  0.79818521  0.59640340  1
  Pd  Pd187  1  0.60786420  0.39005623  0.19477462  1
  Pd  Pd188  1  0.40315028  -0.00704054  0.20831009  1
  Pd  Pd189  1  0.40125295  0.00333369  0.59668073  1
  Pd  Pd190  1  0.80467294  0.00053489  0.80181435  1
  Pd  Pd191  1  0.40716381  0.59334167  -0.00602338  1
  Pd  Pd192  1  0.18895695  -0.00086870  0.00578181  1
  Pd  Pd193  1  0.60639074  0.19998995  -0.00013493  1
  Pd  Pd194  1  0.40584138  0.80318504  0.79008863  1
  Pd  Pd195  1  0.59455001  -0.00420056  0.01196622  1
  Pd  Pd196  1  0.19127619  0.60818702  0.00189141  1
  Pd  Pd197  1  0.19750195  0.39622482  0.00917303  1
  Pd  Pd198  1  0.60002554  0.19922651  0.80291798  1
  Pd  Pd199  1  0.59998486  0.80250778  0.20410444  1
  Rh  Rh200  1  0.80603892  0.20505517  0.19815456  1
  Rh  Rh201  1  0.59534065  0.19246212  0.58810812  1
  Rh  Rh202  1  -0.01256492  0.19812450  0.19653170  1
  Rh  Rh203  1  0.80162635  0.00170626  0.19789340  1
  Rh  Rh204  1  0.79662924  0.59658571  0.79960589  1
  Rh  Rh205  1  0.60180822  -0.00044158  0.79628808  1
  Rh  Rh206  1  0.19592536  -0.00088452  0.20456719  1
  Rh  Rh207  1  0.20139918  -0.01058669  0.59703923  1
  Rh  Rh208  1  0.81126718  0.19808435  0.59367729  1
  Rh  Rh209  1  0.79611995  0.60054765  0.39501440  1
  Rh  Rh210  1  0.19622137  -0.00059252  0.40216731  1
  Rh  Rh211  1  0.38777736  0.39948123  0.21096692  1
  Rh  Rh212  1  0.19986233  0.19673073  0.40308283  1
  Rh  Rh213  1  0.19680191  0.60473257  0.59044919  1
  Rh  Rh214  1  0.19059795  0.19740398  0.60349620  1
  Rh  Rh215  1  0.60937375  0.40418293  0.60633721  1
  Rh  Rh216  1  0.80470546  -0.00053957  -0.00105358  1
  Rh  Rh217  1  0.20011294  0.39800222  0.79422308  1
  Rh  Rh218  1  0.01089596  0.80937238  -0.01404211  1
  Rh  Rh219  1  -0.01445819  0.39202929  0.60964148  1
  Rh  Rh220  1  0.40899501  0.59215968  0.40931028  1
  Rh  Rh221  1  0.60104992  0.60758394  0.80421338  1
  Rh  Rh222  1  0.00226271  0.59644745  0.39345176  1
  Rh  Rh223  1  0.79613850  0.59836406  0.60433169  1
  Rh  Rh224  1  0.78921929  0.19914848  0.81164151  1
  Rh  Rh225  1  -0.00181132  0.59948019  0.81008696  1
  Rh  Rh226  1  0.19862813  0.40205683  0.39615408  1
  Rh  Rh227  1  -0.00733621  0.01422433  0.60025189  1
  Rh  Rh228  1  -0.00104614  0.19940811  0.40280002  1
  Rh  Rh229  1  0.39926980  0.40167027  0.60676673  1
  Rh  Rh230  1  -0.00659691  0.40036098  -0.01155490  1
  Rh  Rh231  1  0.20357822  0.80152940  0.19796065  1
  Rh  Rh232  1  -0.00269872  0.59910654  0.19591637  1
  Rh  Rh233  1  0.40517824  0.00429504  0.79213502  1
  Rh  Rh234  1  0.79346457  0.00571154  0.40024738  1
  Rh  Rh235  1  0.79989119  0.79765268  0.78864198  1
  Rh  Rh236  1  0.00307394  0.60403082  0.59285017  1
  Rh  Rh237  1  0.79313785  0.40331691  0.00678559  1
  Rh  Rh238  1  0.40296348  0.80354596  0.01096563  1
  Rh  Rh239  1  0.00525592  0.00595425  0.39587321  1
  Rh  Rh240  1  0.39571567  0.80299457  0.59808887  1
  Rh  Rh241  1  0.40791925  0.19612264  0.39756410  1
  Rh  Rh242  1  0.79320405  0.79478796  0.00743577  1
  Rh  Rh243  1  0.20742581  0.60661408  0.80526573  1
  Rh  Rh244  1  0.39841691  0.19062638  -0.00251261  1
  Rh  Rh245  1  0.60191852  0.00850168  0.39588728  1
  Rh  Rh246  1  0.00036114  0.40127314  0.21054203  1
  Rh  Rh247  1  0.41170474  0.41071139  -0.01177369  1
  Rh  Rh248  1  0.79830875  0.20563193  -0.00377615  1
  Rh  Rh249  1  0.59885269  0.20520226  0.20203789  1
