# generated using pymatgen
data_ZrScNbPdRh
_symmetry_space_group_name_H-M   'P 1'
_cell_length_a   16.56158118
_cell_length_b   16.56435643
_cell_length_c   16.56111531
_cell_angle_alpha   90.00245808
_cell_angle_beta   89.96751616
_cell_angle_gamma   89.99928948
_symmetry_Int_Tables_number   1
_chemical_formula_structural   ZrScNbPdRh
_chemical_formula_sum   'Zr50 Sc50 Nb50 Pd50 Rh50'
_cell_volume   4543.24205120
_cell_formula_units_Z   50
loop_
 _symmetry_equiv_pos_site_id
 _symmetry_equiv_pos_as_xyz
  1  'x, y, z'
loop_
 _atom_site_type_symbol
 _atom_site_label
 _atom_site_symmetry_multiplicity
 _atom_site_fract_x
 _atom_site_fract_y
 _atom_site_fract_z
 _atom_site_occupancy
  Zr  Zr0  1  0.49999181  0.09833771  0.49543482  1
  Zr  Zr1  1  0.90382360  0.09872162  0.10314368  1
  Zr  Zr2  1  0.89685346  0.29648298  0.10383669  1
  Zr  Zr3  1  0.69637946  0.49371108  0.69155445  1
  Zr  Zr4  1  0.29670213  0.89967354  0.69956014  1
  Zr  Zr5  1  0.90959371  0.29599514  0.49610995  1
  Zr  Zr6  1  0.29562205  0.29162172  0.90154795  1
  Zr  Zr7  1  0.10287650  0.89567510  0.30126731  1
  Zr  Zr8  1  0.50135098  0.89428448  0.49914037  1
  Zr  Zr9  1  0.09691261  0.89898638  0.69545248  1
  Zr  Zr10  1  0.70129277  0.89117713  0.10599079  1
  Zr  Zr11  1  0.70161838  0.70911881  0.69539491  1
  Zr  Zr12  1  0.31610053  0.90047140  0.90147589  1
  Zr  Zr13  1  0.49130002  0.09497209  0.90002496  1
  Zr  Zr14  1  0.29766343  0.49748794  0.09945318  1
  Zr  Zr15  1  0.70408168  0.69794438  0.90179916  1
  Zr  Zr16  1  0.10654485  0.11292409  0.90089085  1
  Zr  Zr17  1  0.50714635  0.89104426  0.70613429  1
  Zr  Zr18  1  0.29998013  0.50694291  0.50827383  1
  Zr  Zr19  1  0.91392871  0.09989705  0.90271996  1
  Zr  Zr20  1  0.30358034  0.70370212  0.30073811  1
  Zr  Zr21  1  0.09967984  0.49293181  0.89588520  1
  Zr  Zr22  1  0.29991486  0.29838182  0.29953992  1
  Zr  Zr23  1  0.10500033  0.68427261  0.90762452  1
  Zr  Zr24  1  0.30118922  0.70585494  0.10451954  1
  Zr  Zr25  1  0.69773992  0.09716484  0.30545938  1
  Zr  Zr26  1  0.30240543  0.30456513  0.68957634  1
  Zr  Zr27  1  0.10069673  0.90176617  0.10684800  1
  Zr  Zr28  1  0.50141209  0.30700633  0.69350202  1
  Zr  Zr29  1  0.69500011  0.09226205  0.89536811  1
  Zr  Zr30  1  0.69693550  0.50775851  0.50089729  1
  Zr  Zr31  1  0.89478235  0.30464937  0.29941263  1
  Zr  Zr32  1  0.49986776  0.30393726  0.30487859  1
  Zr  Zr33  1  0.09971566  0.29450734  0.89631092  1
  Zr  Zr34  1  0.89898863  0.71363692  0.69940724  1
  Zr  Zr35  1  0.49422512  0.70257690  0.30636968  1
  Zr  Zr36  1  0.90360641  0.50409474  0.30636030  1
  Zr  Zr37  1  0.49761778  0.50736644  0.89987027  1
  Zr  Zr38  1  0.29199184  0.50423120  0.89287081  1
  Zr  Zr39  1  0.70157262  0.09825989  0.10944719  1
  Zr  Zr40  1  0.10195085  0.30594823  0.30818067  1
  Zr  Zr41  1  0.69332289  0.89421233  0.88933283  1
  Zr  Zr42  1  0.09981779  0.51073707  0.09325238  1
  Zr  Zr43  1  0.10321020  0.70137922  0.49302729  1
  Zr  Zr44  1  0.70269027  0.30343242  0.90492144  1
  Zr  Zr45  1  0.69908737  0.70060110  0.10058308  1
  Zr  Zr46  1  0.89287974  0.69970513  0.49368180  1
  Zr  Zr47  1  0.89729871  0.10404444  0.29811999  1
  Zr  Zr48  1  0.49429031  0.30140427  0.49847628  1
  Zr  Zr49  1  0.29827868  0.11029064  0.50202439  1
  Sc  Sc50  1  0.10157635  0.70569601  0.69808855  1
  Sc  Sc51  1  0.90163364  0.29616214  0.69537303  1
  Sc  Sc52  1  0.09789366  0.10414056  0.49348244  1
  Sc  Sc53  1  0.70556734  0.50085801  0.90642820  1
  Sc  Sc54  1  0.90109507  0.70432730  0.30457556  1
  Sc  Sc55  1  0.10531866  0.29525378  0.49541612  1
  Sc  Sc56  1  0.70015014  0.48781634  0.30748365  1
  Sc  Sc57  1  0.11373603  0.29389918  0.10018859  1
  Sc  Sc58  1  0.30920317  0.69603246  0.89670725  1
  Sc  Sc59  1  0.70453557  0.31102115  0.10720388  1
  Sc  Sc60  1  0.49129150  0.09654946  0.11181365  1
  Sc  Sc61  1  0.89684549  0.10193285  0.50115635  1
  Sc  Sc62  1  0.90075619  0.70173391  0.10572447  1
  Sc  Sc63  1  0.69943043  0.89911928  0.30305030  1
  Sc  Sc64  1  0.10442320  0.50501454  0.48644160  1
  Sc  Sc65  1  0.50093341  0.49743721  0.09571183  1
  Sc  Sc66  1  0.10203085  0.09776156  0.30087505  1
  Sc  Sc67  1  0.89545270  0.50479694  0.49336963  1
  Sc  Sc68  1  0.90799985  0.30033598  0.89233477  1
  Sc  Sc69  1  0.50076870  0.49880073  0.31237439  1
  Sc  Sc70  1  0.49856313  0.69976828  0.09650090  1
  Sc  Sc71  1  0.49489455  0.70142296  0.69749546  1
  Sc  Sc72  1  0.29139367  0.89206136  0.49378626  1
  Sc  Sc73  1  0.09422649  0.69866532  0.10567226  1
  Sc  Sc74  1  0.50175923  0.09580752  0.70189668  1
  Sc  Sc75  1  0.49123809  0.50260521  0.68864592  1
  Sc  Sc76  1  0.11451424  0.49652516  0.70660178  1
  Sc  Sc77  1  0.08919784  0.91420293  0.89620374  1
  Sc  Sc78  1  0.30133980  0.49912070  0.30444446  1
  Sc  Sc79  1  0.30355648  0.90091157  0.11108643  1
  Sc  Sc80  1  0.09586237  0.10153184  0.09607997  1
  Sc  Sc81  1  0.30402236  0.69285259  0.69863562  1
  Sc  Sc82  1  0.89574010  0.49899634  0.90134911  1
  Sc  Sc83  1  0.09896804  0.30149936  0.70888226  1
  Sc  Sc84  1  0.89555459  0.89654225  0.49281188  1
  Sc  Sc85  1  0.29938033  0.10135230  0.11050709  1
  Sc  Sc86  1  0.10471104  0.10300170  0.70669214  1
  Sc  Sc87  1  0.70180902  0.71067428  0.30735203  1
  Sc  Sc88  1  0.50044085  0.69953226  0.49869740  1
  Sc  Sc89  1  0.89305347  0.49489308  0.70300379  1
  Sc  Sc90  1  0.10047925  0.89740338  0.49438770  1
  Sc  Sc91  1  0.69874019  0.49538007  0.09178296  1
  Sc  Sc92  1  0.49898692  0.70806559  0.89828660  1
  Sc  Sc93  1  0.09247121  0.70040206  0.29994228  1
  Sc  Sc94  1  0.49369728  0.09552678  0.30560191  1
  Sc  Sc95  1  0.30687011  0.29897390  0.10596714  1
  Sc  Sc96  1  0.89848748  0.89771084  0.88850945  1
  Sc  Sc97  1  0.89819469  0.50376142  0.10208392  1
  Sc  Sc98  1  0.48887213  0.29856274  0.90284259  1
  Sc  Sc99  1  0.30236810  0.09318617  0.30036229  1
  Nb  Nb100  1  0.89571060  0.90224036  0.69454826  1
  Nb  Nb101  1  0.50345542  0.50003319  0.50103316  1
  Nb  Nb102  1  0.50193637  0.89993502  0.90284811  1
  Nb  Nb103  1  0.30280290  0.50228881  0.70149359  1
  Nb  Nb104  1  0.89006476  0.09744158  0.69179204  1
  Nb  Nb105  1  0.90021230  0.69964004  0.89592681  1
  Nb  Nb106  1  0.90351085  0.89962017  0.09903848  1
  Nb  Nb107  1  0.69690463  0.89912591  0.50511266  1
  Nb  Nb108  1  0.29884040  0.09625602  0.70147343  1
  Nb  Nb109  1  0.70128878  0.29812433  0.69536414  1
  Nb  Nb110  1  0.30157443  0.29582415  0.49848228  1
  Nb  Nb111  1  0.69891243  0.30022177  0.30349931  1
  Nb  Nb112  1  0.48725794  0.89625202  0.30032691  1
  Nb  Nb113  1  0.70213352  0.71227405  0.49695229  1
  Nb  Nb114  1  0.50247212  0.29399597  0.10508817  1
  Nb  Nb115  1  0.29747158  0.89413085  0.29468161  1
  Nb  Nb116  1  0.29848621  0.09915459  0.89469366  1
  Nb  Nb117  1  0.10071109  0.50240614  0.29576124  1
  Nb  Nb118  1  0.29897967  0.69421449  0.49144817  1
  Nb  Nb119  1  0.50011934  0.89793562  0.09902365  1
  Nb  Nb120  1  0.69884483  0.30041354  0.50432485  1
  Nb  Nb121  1  0.70038509  0.09461997  0.50480718  1
  Nb  Nb122  1  0.70448667  0.09414698  0.69413850  1
  Nb  Nb123  1  0.90424724  0.89601377  0.29424160  1
  Nb  Nb124  1  0.70441906  0.90652962  0.69516602  1
  Nb  Nb125  1  0.20048942  0.59805659  0.20203854  1
  Nb  Nb126  1  0.79679194  0.19312523  -0.00359910  1
  Nb  Nb127  1  0.00017595  0.79967439  -0.00251141  1
  Nb  Nb128  1  0.59758914  -0.00475292  0.00360380  1
  Nb  Nb129  1  0.20053269  0.80338773  0.80799386  1
  Nb  Nb130  1  0.79164491  0.60078008  0.20557922  1
  Nb  Nb131  1  0.60513618  0.20356141  0.79680797  1
  Nb  Nb132  1  -0.00294589  0.60227859  0.79625831  1
  Nb  Nb133  1  0.19690485  0.80668303  -0.00381732  1
  Nb  Nb134  1  0.20586588  0.00054737  -0.00440882  1
  Nb  Nb135  1  0.79492463  0.19352550  0.79478611  1
  Nb  Nb136  1  0.00700716  0.40367275  0.19945831  1
  Nb  Nb137  1  0.00382716  0.40739715  0.59711001  1
  Nb  Nb138  1  0.60037928  0.40024515  0.79744774  1
  Nb  Nb139  1  0.60385134  0.60071110  0.20335934  1
  Nb  Nb140  1  0.39430099  -0.00159367  0.60046314  1
  Nb  Nb141  1  0.00433577  0.39899424  0.00474071  1
  Nb  Nb142  1  0.59991208  0.19585574  0.00540490  1
  Nb  Nb143  1  0.79841083  -0.00276105  0.00188186  1
  Nb  Nb144  1  0.60322597  0.59622639  0.79704603  1
  Nb  Nb145  1  -0.00592919  -0.00124824  0.60360184  1
  Nb  Nb146  1  0.78872578  0.20111861  0.40481187  1
  Nb  Nb147  1  -0.00031075  0.59868140  0.60278140  1
  Nb  Nb148  1  0.59979458  0.20574280  0.20342735  1
  Nb  Nb149  1  0.60895067  0.19705179  0.59951462  1
  Pd  Pd150  1  0.40650623  0.40535098  0.20125063  1
  Pd  Pd151  1  0.19969905  -0.00429065  0.80669106  1
  Pd  Pd152  1  0.00355753  0.00085036  0.20518383  1
  Pd  Pd153  1  0.39853647  0.00217039  0.01080618  1
  Pd  Pd154  1  0.19311606  0.60334660  0.60418333  1
  Pd  Pd155  1  0.79839128  0.39327311  0.79965707  1
  Pd  Pd156  1  0.59530342  0.80006545  -0.00071323  1
  Pd  Pd157  1  0.20696279  0.40336445  0.40568072  1
  Pd  Pd158  1  0.19863319  0.39472947  0.00053618  1
  Pd  Pd159  1  -0.00447342  0.00083934  0.40490364  1
  Pd  Pd160  1  0.59259325  0.00088654  0.60257435  1
  Pd  Pd161  1  0.60182543  0.20164181  0.40167036  1
  Pd  Pd162  1  0.59222948  0.79484700  0.20723156  1
  Pd  Pd163  1  0.60491890  0.60426267  0.39563954  1
  Pd  Pd164  1  0.19816476  0.19542302  0.20503805  1
  Pd  Pd165  1  0.59124239  0.39384795  -0.00536546  1
  Pd  Pd166  1  0.40025087  0.40373370  0.80061330  1
  Pd  Pd167  1  0.59836542  -0.01041302  0.39743397  1
  Pd  Pd168  1  0.40470328  0.59236711  0.20190146  1
  Pd  Pd169  1  0.80999728  0.39793510  0.59206109  1
  Pd  Pd170  1  0.39850133  0.60309335  0.00015378  1
  Pd  Pd171  1  0.19250485  0.20094004  0.60511334  1
  Pd  Pd172  1  0.80578951  0.60329271  0.60207503  1
  Pd  Pd173  1  0.19326520  0.39870499  0.59459352  1
  Pd  Pd174  1  0.79799610  0.39530310  0.40916436  1
  Pd  Pd175  1  0.81028735  0.80466121  -0.00351839  1
  Pd  Pd176  1  0.40044879  0.20112914  0.79016637  1
  Pd  Pd177  1  -0.00272819  0.80104334  0.58781037  1
  Pd  Pd178  1  0.20378892  0.00224538  0.40087965  1
  Pd  Pd179  1  0.39209068  0.40499928  0.40681581  1
  Pd  Pd180  1  0.40751746  0.19141500  0.60574166  1
  Pd  Pd181  1  0.39897658  0.19361575  0.00818708  1
  Pd  Pd182  1  0.79905995  0.60049680  0.79451699  1
  Pd  Pd183  1  0.40417960  -0.00291219  0.79117029  1
  Pd  Pd184  1  0.19511700  0.00494284  0.59240566  1
  Pd  Pd185  1  0.80336850  -0.00992161  0.20016532  1
  Pd  Pd186  1  0.80512425  0.60252095  0.00928663  1
  Pd  Pd187  1  0.38947646  -0.00690588  0.40732598  1
  Pd  Pd188  1  0.00998069  0.79377444  0.80931061  1
  Pd  Pd189  1  0.80509571  0.00124021  0.80340882  1
  Pd  Pd190  1  0.59800719  0.40460057  0.20142671  1
  Pd  Pd191  1  0.20640288  0.79197196  0.60302664  1
  Pd  Pd192  1  0.00826060  0.19807153  0.60472389  1
  Pd  Pd193  1  -0.00196199  0.00765808  0.78852850  1
  Pd  Pd194  1  0.01061275  0.20791470  0.20474118  1
  Pd  Pd195  1  0.39923842  0.39808350  0.00087623  1
  Pd  Pd196  1  0.59581154  0.60955903  0.60198587  1
  Pd  Pd197  1  0.59036041  -0.00016022  0.20274278  1
  Pd  Pd198  1  0.39289763  0.80025527  0.59496725  1
  Pd  Pd199  1  0.80291306  -0.00035099  0.40191872  1
  Rh  Rh200  1  0.79709856  0.80842441  0.59638527  1
  Rh  Rh201  1  0.21169158  0.39203730  0.79774339  1
  Rh  Rh202  1  0.79022807  0.60413057  0.39383675  1
  Rh  Rh203  1  0.40628705  0.20217746  0.20933146  1
  Rh  Rh204  1  0.21308379  0.60914228  0.00936796  1
  Rh  Rh205  1  0.21177103  0.19051171  0.00496722  1
  Rh  Rh206  1  0.20033796  0.79498380  0.39225022  1
  Rh  Rh207  1  -0.00343696  0.80149995  0.19643255  1
  Rh  Rh208  1  0.00430897  0.40350069  0.40112845  1
  Rh  Rh209  1  0.80753376  0.79782668  0.20586022  1
  Rh  Rh210  1  0.19534299  0.40851573  0.19752318  1
  Rh  Rh211  1  -0.00088683  -0.00787788  0.00401843  1
  Rh  Rh212  1  0.40117951  0.59662092  0.40752463  1
  Rh  Rh213  1  0.60200034  0.79146180  0.79766271  1
  Rh  Rh214  1  0.59830486  0.39764453  0.59532729  1
  Rh  Rh215  1  -0.00208569  0.40895852  0.79654323  1
  Rh  Rh216  1  0.39518632  0.80269217  0.40518101  1
  Rh  Rh217  1  0.40780402  0.80364442  0.19649425  1
  Rh  Rh218  1  0.19929232  0.00160102  0.19717946  1
  Rh  Rh219  1  0.39963607  -0.00710475  0.20443915  1
  Rh  Rh220  1  0.19812275  0.60816018  0.79277749  1
  Rh  Rh221  1  0.59400307  -0.00003321  0.79857409  1
  Rh  Rh222  1  0.39847856  0.80185703  0.00503466  1
  Rh  Rh223  1  0.80364825  -0.00830215  0.59111087  1
  Rh  Rh224  1  0.79616497  0.80360551  0.79725852  1
  Rh  Rh225  1  0.79833755  0.80890102  0.39826194  1
  Rh  Rh226  1  -0.00457177  0.21218124  0.00259762  1
  Rh  Rh227  1  0.59778131  0.80465328  0.40016872  1
  Rh  Rh228  1  0.19535957  0.79227422  0.20008110  1
  Rh  Rh229  1  -0.00153763  0.80235057  0.39940659  1
  Rh  Rh230  1  0.60008954  0.60273281  -0.00235290  1
  Rh  Rh231  1  0.20322677  0.60394038  0.38823195  1
  Rh  Rh232  1  -0.00536118  0.19657445  0.39383837  1
  Rh  Rh233  1  0.79525495  0.19945901  0.59633547  1
  Rh  Rh234  1  0.21224209  0.20509178  0.79001683  1
  Rh  Rh235  1  0.80548850  0.41105357  0.20187619  1
  Rh  Rh236  1  0.39670277  0.79819915  0.79856424  1
  Rh  Rh237  1  0.60362211  0.79872363  0.59858061  1
  Rh  Rh238  1  0.39509786  0.20031339  0.39511567  1
  Rh  Rh239  1  0.20504903  0.19827978  0.39499550  1
  Rh  Rh240  1  -0.01213383  0.60058325  -0.00966672  1
  Rh  Rh241  1  -0.01018258  0.19319721  0.78884086  1
  Rh  Rh242  1  0.40160912  0.60229456  0.59402694  1
  Rh  Rh243  1  0.40793285  0.59845563  0.79552259  1
  Rh  Rh244  1  0.39637249  0.40659475  0.59179033  1
  Rh  Rh245  1  0.60197235  0.40012075  0.41109106  1
  Rh  Rh246  1  0.81424047  0.39322892  0.00030265  1
  Rh  Rh247  1  -0.00300209  0.59579809  0.20655391  1
  Rh  Rh248  1  0.78930822  0.20461036  0.20572918  1
  Rh  Rh249  1  0.00173223  0.60361536  0.40480097  1
