# generated using pymatgen
data_ZrScNbPdRh
_symmetry_space_group_name_H-M   'P 1'
_cell_length_a   16.55852460
_cell_length_b   16.55546211
_cell_length_c   16.55384106
_cell_angle_alpha   89.95892121
_cell_angle_beta   90.00096524
_cell_angle_gamma   90.01517022
_symmetry_Int_Tables_number   1
_chemical_formula_structural   ZrScNbPdRh
_chemical_formula_sum   'Zr50 Sc50 Nb50 Pd50 Rh50'
_cell_volume   4537.96977888
_cell_formula_units_Z   50
loop_
 _symmetry_equiv_pos_site_id
 _symmetry_equiv_pos_as_xyz
  1  'x, y, z'
loop_
 _atom_site_type_symbol
 _atom_site_label
 _atom_site_symmetry_multiplicity
 _atom_site_fract_x
 _atom_site_fract_y
 _atom_site_fract_z
 _atom_site_occupancy
  Zr  Zr0  1  0.70286152  0.30309115  0.09690290  1
  Zr  Zr1  1  0.70138450  0.30538321  0.50220229  1
  Zr  Zr2  1  0.10466167  0.48878267  0.50137439  1
  Zr  Zr3  1  0.50465807  0.90142430  0.90111632  1
  Zr  Zr4  1  0.10020137  0.89863721  0.70391237  1
  Zr  Zr5  1  0.70390603  0.90084547  0.09864297  1
  Zr  Zr6  1  0.30478762  0.69853771  0.49493333  1
  Zr  Zr7  1  0.70281275  0.90357958  0.49961523  1
  Zr  Zr8  1  0.29875869  0.48797823  0.29935616  1
  Zr  Zr9  1  0.29062087  0.49566579  0.69757605  1
  Zr  Zr10  1  0.70916364  0.49919103  0.49899579  1
  Zr  Zr11  1  0.10158836  0.69111903  0.70416345  1
  Zr  Zr12  1  0.89259935  0.09715987  0.50282498  1
  Zr  Zr13  1  0.50590176  0.70557942  0.90080861  1
  Zr  Zr14  1  0.50965346  0.28919922  0.71015615  1
  Zr  Zr15  1  0.89161337  0.10316661  0.29186291  1
  Zr  Zr16  1  0.30870436  0.49989830  0.49963220  1
  Zr  Zr17  1  0.89392150  0.49455743  0.08950810  1
  Zr  Zr18  1  0.31577385  0.10044890  0.70764489  1
  Zr  Zr19  1  0.69776549  0.70385384  0.49817934  1
  Zr  Zr20  1  0.50082326  0.29560923  0.49847518  1
  Zr  Zr21  1  0.89577447  0.49973475  0.70826104  1
  Zr  Zr22  1  0.70035756  0.49055988  0.69924756  1
  Zr  Zr23  1  0.49512152  0.10219045  0.88554415  1
  Zr  Zr24  1  0.69577627  0.89573185  0.30176750  1
  Zr  Zr25  1  0.50347777  0.49731150  0.10216980  1
  Zr  Zr26  1  0.49660281  0.90950333  0.69783267  1
  Zr  Zr27  1  0.30692819  0.70442689  0.30113781  1
  Zr  Zr28  1  0.50979032  0.10302276  0.69363269  1
  Zr  Zr29  1  0.90303786  0.10502206  0.10390458  1
  Zr  Zr30  1  0.30668886  0.90117619  0.49828649  1
  Zr  Zr31  1  0.90869425  0.90559834  0.10076750  1
  Zr  Zr32  1  0.49473773  0.10211614  0.10913829  1
  Zr  Zr33  1  0.29830784  0.30207078  0.49916809  1
  Zr  Zr34  1  0.10470017  0.10120903  0.49591826  1
  Zr  Zr35  1  0.70849625  0.10549127  0.10432831  1
  Zr  Zr36  1  0.29894157  0.49783822  0.91009614  1
  Zr  Zr37  1  0.50638205  0.30074343  0.10325712  1
  Zr  Zr38  1  0.50292911  0.70382798  0.30000711  1
  Zr  Zr39  1  0.10159957  0.90399778  0.49926189  1
  Zr  Zr40  1  0.70176568  0.70418326  0.29953197  1
  Zr  Zr41  1  0.29759720  0.09696752  0.10058234  1
  Zr  Zr42  1  0.70048735  0.50899277  0.29616709  1
  Zr  Zr43  1  0.29907457  0.90031604  0.70090943  1
  Zr  Zr44  1  0.89822793  0.69677784  0.70552408  1
  Zr  Zr45  1  0.90346281  0.10588450  0.89298646  1
  Zr  Zr46  1  0.09562512  0.30138586  0.89678214  1
  Zr  Zr47  1  0.69568695  0.09883617  0.49369304  1
  Zr  Zr48  1  0.10237828  0.10570349  0.28980354  1
  Zr  Zr49  1  0.89990391  0.90287439  0.89792385  1
  Sc  Sc50  1  0.89728535  0.70132880  0.29535454  1
  Sc  Sc51  1  0.09032861  0.09055016  0.70570053  1
  Sc  Sc52  1  0.70294659  0.49653117  0.10062577  1
  Sc  Sc53  1  0.50288338  0.90383536  0.50041631  1
  Sc  Sc54  1  0.49923319  0.49936031  0.49900992  1
  Sc  Sc55  1  0.49923548  0.70783026  0.10000489  1
  Sc  Sc56  1  0.50986932  0.69698027  0.69950334  1
  Sc  Sc57  1  0.69442054  0.30935544  0.89170947  1
  Sc  Sc58  1  0.49819146  0.49584308  0.30405506  1
  Sc  Sc59  1  0.09897879  0.89768205  0.29124570  1
  Sc  Sc60  1  0.89920202  0.89776806  0.29113463  1
  Sc  Sc61  1  0.49692434  0.29467432  0.29960457  1
  Sc  Sc62  1  0.70018904  0.69510114  0.69874538  1
  Sc  Sc63  1  0.30574795  0.90108095  0.29754438  1
  Sc  Sc64  1  0.30233021  0.09627581  0.29511977  1
  Sc  Sc65  1  0.89233791  0.49479197  0.30447420  1
  Sc  Sc66  1  0.90996236  0.69471101  0.09682623  1
  Sc  Sc67  1  0.29821293  0.09814454  0.90546683  1
  Sc  Sc68  1  0.09565379  0.49368901  0.89659474  1
  Sc  Sc69  1  0.49628827  0.69933722  0.50036878  1
  Sc  Sc70  1  0.29629628  0.90604117  0.90269915  1
  Sc  Sc71  1  0.70276076  0.69673283  0.10889398  1
  Sc  Sc72  1  0.70907776  0.49703389  0.90284381  1
  Sc  Sc73  1  0.10102070  0.28214634  0.09902003  1
  Sc  Sc74  1  0.09450363  0.68905513  0.90251262  1
  Sc  Sc75  1  0.09250275  0.50669678  0.09570997  1
  Sc  Sc76  1  0.49469018  0.90088211  0.09403805  1
  Sc  Sc77  1  0.89020201  0.69993388  0.49540744  1
  Sc  Sc78  1  0.29886628  0.69300934  0.70326114  1
  Sc  Sc79  1  0.30684349  0.30098714  0.69980693  1
  Sc  Sc80  1  0.09273413  0.70667448  0.29329458  1
  Sc  Sc81  1  0.89607564  0.68412502  0.89929909  1
  Sc  Sc82  1  0.30225246  0.70418300  0.09682125  1
  Sc  Sc83  1  0.70311099  0.09708384  0.89906532  1
  Sc  Sc84  1  0.30312451  0.90697292  0.10461369  1
  Sc  Sc85  1  0.29849035  0.69384493  0.90085638  1
  Sc  Sc86  1  0.89655872  0.91517884  0.69901569  1
  Sc  Sc87  1  0.50534143  0.49794858  0.90188232  1
  Sc  Sc88  1  0.29934318  0.30751739  0.10486186  1
  Sc  Sc89  1  0.29052691  0.30385154  0.90791831  1
  Sc  Sc90  1  0.69877908  0.29406389  0.30222183  1
  Sc  Sc91  1  0.69708448  0.89909350  0.69846604  1
  Sc  Sc92  1  0.50406584  0.50481523  0.69968698  1
  Sc  Sc93  1  0.70068550  0.70368218  0.89457162  1
  Sc  Sc94  1  0.09566973  0.91495831  0.90276154  1
  Sc  Sc95  1  0.69248601  0.89836440  0.90013585  1
  Sc  Sc96  1  0.49716436  0.10548504  0.30332998  1
  Sc  Sc97  1  0.30048279  0.09589764  0.49167706  1
  Sc  Sc98  1  0.09940855  0.70402153  0.49161324  1
  Sc  Sc99  1  0.50134899  0.09557277  0.49754502  1
  Nb  Nb100  1  0.90286799  0.31210035  0.89942720  1
  Nb  Nb101  1  0.70278308  0.10949279  0.69386494  1
  Nb  Nb102  1  0.49960105  0.90035806  0.30111241  1
  Nb  Nb103  1  0.90143298  0.90384506  0.50336917  1
  Nb  Nb104  1  0.09649196  0.29644902  0.50003015  1
  Nb  Nb105  1  0.89977888  0.30737770  0.49709859  1
  Nb  Nb106  1  0.89597374  0.29584407  0.10510183  1
  Nb  Nb107  1  0.10022137  0.08827794  0.09451434  1
  Nb  Nb108  1  0.09736529  0.70520679  0.10213127  1
  Nb  Nb109  1  0.10140278  0.30788696  0.70093460  1
  Nb  Nb110  1  0.69546557  0.09745012  0.30068489  1
  Nb  Nb111  1  0.09778245  0.49436273  0.30042880  1
  Nb  Nb112  1  0.50241233  0.29907327  0.89971084  1
  Nb  Nb113  1  0.10239487  0.30226826  0.30565581  1
  Nb  Nb114  1  0.09933640  0.49382633  0.69788135  1
  Nb  Nb115  1  0.90147921  0.29932992  0.70675318  1
  Nb  Nb116  1  0.90095845  0.49673308  0.90341825  1
  Nb  Nb117  1  0.70033922  0.29943715  0.69841099  1
  Nb  Nb118  1  0.89878214  0.49204831  0.49948282  1
  Nb  Nb119  1  0.90650548  0.29703376  0.30041903  1
  Nb  Nb120  1  0.89288112  0.10645358  0.70029117  1
  Nb  Nb121  1  0.10395855  0.10649883  0.91217757  1
  Nb  Nb122  1  0.30172453  0.50364048  0.10167559  1
  Nb  Nb123  1  0.09489392  0.90209953  0.09830624  1
  Nb  Nb124  1  0.29278470  0.29476701  0.30066792  1
  Nb  Nb125  1  -0.00330127  0.00455498  0.39973869  1
  Nb  Nb126  1  0.19652490  0.59488875  0.39089025  1
  Nb  Nb127  1  0.19349495  0.20176903  0.60537476  1
  Nb  Nb128  1  0.19366470  0.20157545  0.79685868  1
  Nb  Nb129  1  -0.00031016  0.39196785  0.20400938  1
  Nb  Nb130  1  0.18797501  0.80231242  0.00566581  1
  Nb  Nb131  1  0.00156936  0.58910793  0.40271622  1
  Nb  Nb132  1  -0.00028253  0.79956016  0.79636816  1
  Nb  Nb133  1  0.19748443  0.80045000  0.59965312  1
  Nb  Nb134  1  0.60120649  0.60135546  0.00331236  1
  Nb  Nb135  1  0.60522352  0.60330898  0.39771201  1
  Nb  Nb136  1  0.59500392  0.20152403  -0.00238900  1
  Nb  Nb137  1  0.40219365  0.39892913  0.80475196  1
  Nb  Nb138  1  0.39432569  0.59530983  0.19886197  1
  Nb  Nb139  1  0.40538598  0.20401388  0.00068401  1
  Nb  Nb140  1  -0.00048612  0.79874918  0.60197892  1
  Nb  Nb141  1  -0.00296812  0.39730041  0.60150411  1
  Nb  Nb142  1  -0.00094673  0.59423263  0.59520929  1
  Nb  Nb143  1  0.80492709  0.80121488  0.00090346  1
  Nb  Nb144  1  0.40271363  0.80124814  0.80129620  1
  Nb  Nb145  1  0.20091865  0.59745994  0.20079850  1
  Nb  Nb146  1  0.60164106  0.00133879  0.20387356  1
  Nb  Nb147  1  -0.00024282  0.20406963  0.40101265  1
  Nb  Nb148  1  0.80407128  0.20596294  0.60426280  1
  Nb  Nb149  1  -0.00287331  0.20607466  0.60189090  1
  Pd  Pd150  1  0.81096367  0.60087025  0.19441096  1
  Pd  Pd151  1  0.60998012  0.00436751  0.79344360  1
  Pd  Pd152  1  0.39573523  0.19519221  0.59255877  1
  Pd  Pd153  1  -0.00113390  0.00250995  0.59810814  1
  Pd  Pd154  1  0.39513144  0.19808100  0.39786311  1
  Pd  Pd155  1  0.40902596  0.60231375  0.00493074  1
  Pd  Pd156  1  0.18832428  0.39974874  0.01136214  1
  Pd  Pd157  1  0.40177772  0.39699076  0.20390912  1
  Pd  Pd158  1  -0.00089221  0.59133351  0.20673204  1
  Pd  Pd159  1  0.19833553  0.58988515  0.80783750  1
  Pd  Pd160  1  0.00702978  0.19826231  0.79648146  1
  Pd  Pd161  1  0.80759453  0.80637037  0.39853439  1
  Pd  Pd162  1  0.20362661  0.19952782  0.19583204  1
  Pd  Pd163  1  0.60178389  0.40413000  0.39605783  1
  Pd  Pd164  1  -0.00554963  0.20220821  0.00122855  1
  Pd  Pd165  1  0.59447731  0.80854616  0.19186596  1
  Pd  Pd166  1  0.80324385  0.39420517  0.20662415  1
  Pd  Pd167  1  0.19692860  -0.00337157  0.38591335  1
  Pd  Pd168  1  0.80315517  0.80213533  0.80313322  1
  Pd  Pd169  1  0.41046849  0.39771367  0.61015683  1
  Pd  Pd170  1  0.38764758  0.80278243  -0.00684688  1
  Pd  Pd171  1  0.60794743  0.59460409  0.80822497  1
  Pd  Pd172  1  0.59143171  0.40015907  0.60146181  1
  Pd  Pd173  1  0.40361318  0.60192766  0.60710086  1
  Pd  Pd174  1  0.19446188  0.60634916  0.58851160  1
  Pd  Pd175  1  0.60369014  0.39814552  0.20856948  1
  Pd  Pd176  1  0.80156885  0.60002514  0.59972577  1
  Pd  Pd177  1  0.20748771  0.00562469  0.60515782  1
  Pd  Pd178  1  0.19895593  0.79703458  0.80976250  1
  Pd  Pd179  1  0.79460205  0.20873218  0.80382151  1
  Pd  Pd180  1  0.39638970  0.79325639  0.60852024  1
  Pd  Pd181  1  0.20323300  0.39858756  0.40316247  1
  Pd  Pd182  1  0.00512791  0.39294361  0.01109937  1
  Pd  Pd183  1  0.80601294  -0.00794288  0.39200867  1
  Pd  Pd184  1  0.79198328  -0.00070489  0.79649356  1
  Pd  Pd185  1  0.18695961  0.40282942  0.18908038  1
  Pd  Pd186  1  0.59774560  0.80197128  0.60026905  1
  Pd  Pd187  1  0.40299230  0.39500600  -0.00256112  1
  Pd  Pd188  1  0.40091658  0.59732330  0.80000782  1
  Pd  Pd189  1  0.20095697  0.79842058  0.39960133  1
  Pd  Pd190  1  0.19505656  0.60496708  0.00634436  1
  Pd  Pd191  1  0.59590473  0.01139833  0.00726747  1
  Pd  Pd192  1  0.79579476  0.20942549  -0.01291448  1
  Pd  Pd193  1  0.19882802  0.01124317  0.80290965  1
  Pd  Pd194  1  0.80471125  -0.00107177  -0.00196601  1
  Pd  Pd195  1  -0.00126239  0.79506459  -0.01137759  1
  Pd  Pd196  1  0.80610092  0.80462837  0.60523785  1
  Pd  Pd197  1  0.80176435  0.20624471  0.40190481  1
  Pd  Pd198  1  0.20350152  0.80008069  0.19318131  1
  Pd  Pd199  1  -0.00834487  0.80294225  0.40234621  1
  Rh  Rh200  1  0.59490292  -0.00071695  0.39228662  1
  Rh  Rh201  1  0.40425813  -0.00119650  0.39685666  1
  Rh  Rh202  1  0.61188955  0.19549953  0.80750514  1
  Rh  Rh203  1  0.00122945  0.59424965  0.79897539  1
  Rh  Rh204  1  -0.00348597  0.40521640  0.79780692  1
  Rh  Rh205  1  0.00422291  0.00290352  0.20566062  1
  Rh  Rh206  1  0.19975968  0.39192482  0.60022192  1
  Rh  Rh207  1  -0.00319938  0.80004795  0.19749533  1
  Rh  Rh208  1  0.39742125  0.00757380  0.59395028  1
  Rh  Rh209  1  0.00312254  0.20316259  0.20189730  1
  Rh  Rh210  1  0.80276246  0.39717940  0.80227503  1
  Rh  Rh211  1  0.60590891  0.00139234  0.59958011  1
  Rh  Rh212  1  0.60722256  0.20033809  0.59242895  1
  Rh  Rh213  1  0.20001857  -0.00759603  0.00544604  1
  Rh  Rh214  1  0.20115438  0.20144114  0.40158215  1
  Rh  Rh215  1  0.40229395  0.00771870  -0.00254752  1
  Rh  Rh216  1  0.79311759  0.60593763  0.00113446  1
  Rh  Rh217  1  0.40660072  0.80854045  0.40164483  1
  Rh  Rh218  1  0.80623121  0.39236243  0.60851124  1
  Rh  Rh219  1  -0.00514722  0.01109157  -0.00351686  1
  Rh  Rh220  1  0.20699722  0.19794742  -0.00148670  1
  Rh  Rh221  1  0.40012926  0.38975232  0.39858444  1
  Rh  Rh222  1  0.19603259  -0.00376508  0.19728108  1
  Rh  Rh223  1  0.58938554  0.59959568  0.20033903  1
  Rh  Rh224  1  -0.00263691  0.39867976  0.39704975  1
  Rh  Rh225  1  0.80116284  0.59994285  0.40044300  1
  Rh  Rh226  1  0.40146814  0.79941505  0.19934531  1
  Rh  Rh227  1  0.79297446  0.00445829  0.60394664  1
  Rh  Rh228  1  0.59355821  0.80285363  0.79154363  1
  Rh  Rh229  1  0.59355739  0.79741794  0.40831331  1
  Rh  Rh230  1  0.60420304  0.59697682  0.58859131  1
  Rh  Rh231  1  0.61540320  0.78971862  0.00541169  1
  Rh  Rh232  1  0.79445539  0.20697192  0.20486486  1
  Rh  Rh233  1  0.79165190  -0.00250978  0.20450601  1
  Rh  Rh234  1  0.40961556  -0.00302198  0.20509607  1
  Rh  Rh235  1  0.60350394  0.40242548  -0.00109024  1
  Rh  Rh236  1  0.59407536  0.40440004  0.79703564  1
  Rh  Rh237  1  0.80983467  0.79836323  0.18740704  1
  Rh  Rh238  1  0.79573473  0.39694199  0.39124940  1
  Rh  Rh239  1  0.20772082  0.39739052  0.80028957  1
  Rh  Rh240  1  0.79403380  0.59340607  0.80301564  1
  Rh  Rh241  1  0.40349553  0.59712570  0.39233717  1
  Rh  Rh242  1  0.38385520  0.21329868  0.81456194  1
  Rh  Rh243  1  0.39881832  -0.01022335  0.80602042  1
  Rh  Rh244  1  0.59854866  0.19968327  0.40209176  1
  Rh  Rh245  1  -0.00120880  0.00441040  0.80655480  1
  Rh  Rh246  1  0.60559272  0.19464136  0.19868962  1
  Rh  Rh247  1  -0.00045771  0.59633836  -0.00189228  1
  Rh  Rh248  1  0.38912186  0.20576560  0.19856592  1
  Rh  Rh249  1  0.80033748  0.39344312  -0.00428724  1
