# generated using pymatgen
data_ZrScNbPdRh
_symmetry_space_group_name_H-M   'P 1'
_cell_length_a   16.55481528
_cell_length_b   16.55745601
_cell_length_c   16.56013777
_cell_angle_alpha   90.00455533
_cell_angle_beta   90.01867339
_cell_angle_gamma   90.00337684
_symmetry_Int_Tables_number   1
_chemical_formula_structural   ZrScNbPdRh
_chemical_formula_sum   'Zr50 Sc50 Nb50 Pd50 Rh50'
_cell_volume   4539.22666329
_cell_formula_units_Z   50
loop_
 _symmetry_equiv_pos_site_id
 _symmetry_equiv_pos_as_xyz
  1  'x, y, z'
loop_
 _atom_site_type_symbol
 _atom_site_label
 _atom_site_symmetry_multiplicity
 _atom_site_fract_x
 _atom_site_fract_y
 _atom_site_fract_z
 _atom_site_occupancy
  Zr  Zr0  1  0.69966332  0.89653995  0.50641269  1
  Zr  Zr1  1  0.29697155  0.49864927  0.89868079  1
  Zr  Zr2  1  0.09642519  0.49646724  0.50329369  1
  Zr  Zr3  1  0.10145297  0.10508109  0.89642007  1
  Zr  Zr4  1  0.70494681  0.69737868  0.69120316  1
  Zr  Zr5  1  0.50192678  0.10603647  0.09237535  1
  Zr  Zr6  1  0.90328871  0.70389701  0.70564995  1
  Zr  Zr7  1  0.29979733  0.69798612  0.68607043  1
  Zr  Zr8  1  0.49655643  0.30280271  0.30014623  1
  Zr  Zr9  1  0.90015613  0.49571019  0.30414291  1
  Zr  Zr10  1  0.09475416  0.10466694  0.10359327  1
  Zr  Zr11  1  0.70190734  0.90588687  0.29533069  1
  Zr  Zr12  1  0.29281994  0.50141663  0.10099493  1
  Zr  Zr13  1  0.90361113  0.50644374  0.09498673  1
  Zr  Zr14  1  0.10349707  0.49833982  0.69478208  1
  Zr  Zr15  1  0.90274486  0.89647131  0.88515372  1
  Zr  Zr16  1  0.50972675  0.49688809  0.50523693  1
  Zr  Zr17  1  0.90968618  0.50275099  0.90430306  1
  Zr  Zr18  1  0.50023796  0.09407315  0.30253305  1
  Zr  Zr19  1  0.50709026  0.89799477  0.09464240  1
  Zr  Zr20  1  0.70454091  0.09163621  0.10850675  1
  Zr  Zr21  1  0.49472544  0.10267330  0.50467585  1
  Zr  Zr22  1  0.70525819  0.70223259  0.31278646  1
  Zr  Zr23  1  0.90287821  0.10429161  0.89439985  1
  Zr  Zr24  1  0.89640616  0.29971740  0.90084296  1
  Zr  Zr25  1  0.28814069  0.29432079  0.90237887  1
  Zr  Zr26  1  0.70332914  0.29940097  0.89577029  1
  Zr  Zr27  1  0.49828575  0.09813538  0.69762401  1
  Zr  Zr28  1  0.09522142  0.70289799  0.29258807  1
  Zr  Zr29  1  0.50151865  0.29543346  0.69991716  1
  Zr  Zr30  1  0.90050663  0.90014505  0.69917165  1
  Zr  Zr31  1  0.89809895  0.69810287  0.30383330  1
  Zr  Zr32  1  0.30039949  0.09610143  0.49664830  1
  Zr  Zr33  1  0.50879726  0.28865572  0.90466703  1
  Zr  Zr34  1  0.49640154  0.29837612  0.10219979  1
  Zr  Zr35  1  0.69794782  0.89733329  0.70186562  1
  Zr  Zr36  1  0.09971662  0.50159737  0.29628829  1
  Zr  Zr37  1  0.90655121  0.90778388  0.49985453  1
  Zr  Zr38  1  0.69671329  0.49933230  0.31464860  1
  Zr  Zr39  1  0.50183647  0.89437218  0.89019438  1
  Zr  Zr40  1  0.29480219  0.88653039  0.50379541  1
  Zr  Zr41  1  0.30558283  0.50479444  0.51353858  1
  Zr  Zr42  1  0.70356178  0.30593814  0.30011010  1
  Zr  Zr43  1  0.48854051  0.51267123  0.89930079  1
  Zr  Zr44  1  0.70304267  0.09812787  0.50403552  1
  Zr  Zr45  1  0.09644931  0.90213955  0.31053449  1
  Zr  Zr46  1  0.50041542  0.90679040  0.51181283  1
  Zr  Zr47  1  0.30183098  0.10810128  0.30820437  1
  Zr  Zr48  1  0.69786303  0.89858732  0.89196634  1
  Zr  Zr49  1  0.29619094  0.09628109  0.89300717  1
  Sc  Sc50  1  0.10644000  0.89914467  0.11783099  1
  Sc  Sc51  1  0.50123181  0.49188589  0.30817750  1
  Sc  Sc52  1  0.90885050  0.69479576  0.10227997  1
  Sc  Sc53  1  0.50332043  0.50420462  0.09671171  1
  Sc  Sc54  1  0.30535908  0.28881221  0.49265209  1
  Sc  Sc55  1  0.90294666  0.68983750  0.89723534  1
  Sc  Sc56  1  0.48528937  0.69779588  0.50120663  1
  Sc  Sc57  1  0.29547440  0.88708187  0.09887160  1
  Sc  Sc58  1  0.90125560  0.10590962  0.10079476  1
  Sc  Sc59  1  0.30086912  0.89741692  0.70464533  1
  Sc  Sc60  1  0.89864270  0.09885454  0.69750840  1
  Sc  Sc61  1  0.49023580  0.48613297  0.69868761  1
  Sc  Sc62  1  0.70135423  0.69609007  0.89882659  1
  Sc  Sc63  1  0.89829629  0.30131047  0.50372779  1
  Sc  Sc64  1  0.10589846  0.89858061  0.88408278  1
  Sc  Sc65  1  0.49790716  0.70374188  0.09223181  1
  Sc  Sc66  1  0.69489756  0.69662853  0.09060670  1
  Sc  Sc67  1  0.89097899  0.10901318  0.29192915  1
  Sc  Sc68  1  0.69612402  0.30272190  0.09145425  1
  Sc  Sc69  1  0.90817833  0.50950575  0.70339781  1
  Sc  Sc70  1  0.89436886  0.29829048  0.70039231  1
  Sc  Sc71  1  0.29601816  0.90041665  0.30016747  1
  Sc  Sc72  1  0.09020797  0.10386980  0.70565054  1
  Sc  Sc73  1  0.50389030  0.10050799  0.89120427  1
  Sc  Sc74  1  0.89378464  0.30517801  0.30984917  1
  Sc  Sc75  1  0.49334399  0.71092668  0.70927307  1
  Sc  Sc76  1  0.10249895  0.51496632  0.09424844  1
  Sc  Sc77  1  0.69556971  0.49653202  0.09921906  1
  Sc  Sc78  1  0.69828362  0.10519710  0.89782659  1
  Sc  Sc79  1  0.09497382  0.30022647  0.89932589  1
  Sc  Sc80  1  0.89950320  0.49560486  0.50027545  1
  Sc  Sc81  1  0.69728534  0.89929150  0.10329839  1
  Sc  Sc82  1  0.10654397  0.70170241  0.89841622  1
  Sc  Sc83  1  0.70057102  0.09557679  0.70004998  1
  Sc  Sc84  1  0.29493915  0.89480062  0.89208590  1
  Sc  Sc85  1  0.50128598  0.70222934  0.90234837  1
  Sc  Sc86  1  0.70885804  0.30644904  0.50874201  1
  Sc  Sc87  1  0.50227300  0.89541877  0.29430095  1
  Sc  Sc88  1  0.10811088  0.09298963  0.30347948  1
  Sc  Sc89  1  0.89760841  0.89021912  0.29764173  1
  Sc  Sc90  1  0.30407919  0.11635956  0.09367866  1
  Sc  Sc91  1  0.30049486  0.09928985  0.70411200  1
  Sc  Sc92  1  0.49640193  0.29638326  0.50784271  1
  Sc  Sc93  1  0.89158725  0.69921881  0.50147774  1
  Sc  Sc94  1  0.70685554  0.50038763  0.90537313  1
  Sc  Sc95  1  0.90228700  0.29433067  0.09241116  1
  Sc  Sc96  1  0.30714196  0.69697781  0.90086599  1
  Sc  Sc97  1  0.09440252  0.69689591  0.69273812  1
  Sc  Sc98  1  0.09569279  0.30378688  0.69745357  1
  Sc  Sc99  1  0.09970115  0.30021133  0.30614871  1
  Nb  Nb100  1  0.29609761  0.69915143  0.49910172  1
  Nb  Nb101  1  0.09971135  0.09801672  0.49597490  1
  Nb  Nb102  1  0.70092819  0.10139347  0.30136883  1
  Nb  Nb103  1  0.69470896  0.51471331  0.50803954  1
  Nb  Nb104  1  0.10055956  0.50233820  0.89363000  1
  Nb  Nb105  1  0.30397086  0.30522348  0.29512378  1
  Nb  Nb106  1  0.69413915  0.31632940  0.70849823  1
  Nb  Nb107  1  0.89925960  0.10554024  0.50285872  1
  Nb  Nb108  1  0.30201591  0.30145817  0.10151939  1
  Nb  Nb109  1  0.69657782  0.69042301  0.49671886  1
  Nb  Nb110  1  0.89896463  0.90336152  0.09726631  1
  Nb  Nb111  1  0.10346273  0.29624494  0.09972945  1
  Nb  Nb112  1  0.29084608  0.69611725  0.09430120  1
  Nb  Nb113  1  0.10803774  0.70374361  0.09478600  1
  Nb  Nb114  1  0.09521518  0.89720330  0.69575436  1
  Nb  Nb115  1  0.50214750  0.89995119  0.70623984  1
  Nb  Nb116  1  0.31357248  0.69861687  0.30910547  1
  Nb  Nb117  1  0.68797158  0.49798818  0.69225966  1
  Nb  Nb118  1  0.29831520  0.49783619  0.30043898  1
  Nb  Nb119  1  0.11370403  0.70088448  0.50227568  1
  Nb  Nb120  1  0.29943841  0.49241650  0.70542067  1
  Nb  Nb121  1  0.30056694  0.30919471  0.69845429  1
  Nb  Nb122  1  0.50015049  0.69957903  0.30125869  1
  Nb  Nb123  1  0.09950748  0.90322848  0.49982148  1
  Nb  Nb124  1  0.09770710  0.29729697  0.49788096  1
  Nb  Nb125  1  0.00234900  -0.00644655  -0.00133487  1
  Nb  Nb126  1  0.19417246  0.19602433  0.59262645  1
  Nb  Nb127  1  0.80025535  0.00534810  0.40147522  1
  Nb  Nb128  1  0.40006592  0.00176932  0.18996394  1
  Nb  Nb129  1  0.79444938  0.59823870  0.20527660  1
  Nb  Nb130  1  0.18992076  -0.00184050  0.59750729  1
  Nb  Nb131  1  0.00953246  0.60293009  0.40406621  1
  Nb  Nb132  1  0.80910003  0.80511397  -0.00187951  1
  Nb  Nb133  1  0.60131500  0.59354124  0.79218301  1
  Nb  Nb134  1  0.80746238  -0.00533364  -0.00316553  1
  Nb  Nb135  1  0.60069823  0.79501546  0.40443905  1
  Nb  Nb136  1  0.00404760  0.39815579  0.19464295  1
  Nb  Nb137  1  0.20662596  0.60151821  0.40038904  1
  Nb  Nb138  1  0.20480271  0.21065403  0.20131695  1
  Nb  Nb139  1  0.20464864  0.59141167  0.79348667  1
  Nb  Nb140  1  0.60608943  0.19697561  0.39802775  1
  Nb  Nb141  1  0.39793266  0.60543675  0.20585238  1
  Nb  Nb142  1  0.60165266  0.19914172  0.20619792  1
  Nb  Nb143  1  0.00270236  0.80685372  0.00187895  1
  Nb  Nb144  1  0.39421658  0.39457579  0.00113393  1
  Nb  Nb145  1  0.39649174  -0.00157182  -0.00202686  1
  Nb  Nb146  1  0.19768917  0.00126644  0.00037559  1
  Nb  Nb147  1  0.20614568  0.40324743  0.39819627  1
  Nb  Nb148  1  0.00091165  0.19478697  0.40797859  1
  Nb  Nb149  1  0.59874335  0.60353092  0.21122042  1
  Pd  Pd150  1  0.00138512  0.79361979  0.59026661  1
  Pd  Pd151  1  0.00408609  0.20817862  0.21296645  1
  Pd  Pd152  1  -0.00741017  0.00020116  0.20407368  1
  Pd  Pd153  1  0.40237996  0.59029132  0.39988562  1
  Pd  Pd154  1  0.80676692  0.40232768  0.18949108  1
  Pd  Pd155  1  0.40487228  0.41296271  0.19262720  1
  Pd  Pd156  1  0.19694546  0.20657409  0.78423281  1
  Pd  Pd157  1  0.60591687  0.79078494  0.20313135  1
  Pd  Pd158  1  0.80114088  0.40115956  0.00338437  1
  Pd  Pd159  1  0.79439410  0.21130166  0.19292325  1
  Pd  Pd160  1  0.60975976  0.20450397  0.59961136  1
  Pd  Pd161  1  -0.01299825  0.01120509  0.38828180  1
  Pd  Pd162  1  0.79723958  0.79092035  0.18679113  1
  Pd  Pd163  1  0.00035419  0.79138055  0.41060601  1
  Pd  Pd164  1  0.79590312  0.19764557  0.79157293  1
  Pd  Pd165  1  0.39729177  0.20436790  0.79955688  1
  Pd  Pd166  1  0.20825218  0.61098009  0.20820609  1
  Pd  Pd167  1  0.01040879  0.40002074  0.00619697  1
  Pd  Pd168  1  0.39766501  -0.01256971  0.39425132  1
  Pd  Pd169  1  0.60448747  -0.00249717  0.40338827  1
  Pd  Pd170  1  -0.00862950  0.39555822  0.60491864  1
  Pd  Pd171  1  0.40236777  0.38769004  0.81057561  1
  Pd  Pd172  1  0.80391597  0.41322236  0.79470638  1
  Pd  Pd173  1  0.38891977  -0.00447038  0.60847889  1
  Pd  Pd174  1  0.20902955  0.79242069  0.20989987  1
  Pd  Pd175  1  0.21377285  0.01308156  0.19069665  1
  Pd  Pd176  1  0.59332784  0.40898404  0.81047922  1
  Pd  Pd177  1  0.79315242  0.59351146  0.79712582  1
  Pd  Pd178  1  0.59151445  0.78989692  0.59627859  1
  Pd  Pd179  1  0.19505982  0.40100970  0.00039859  1
  Pd  Pd180  1  0.19222948  0.39482222  0.20159339  1
  Pd  Pd181  1  0.80275609  0.41107437  0.60569703  1
  Pd  Pd182  1  0.40862272  0.80896127  0.40305953  1
  Pd  Pd183  1  0.60455784  0.38905858  0.41349479  1
  Pd  Pd184  1  -0.00219190  0.80209625  0.19313199  1
  Pd  Pd185  1  0.20700162  0.38872777  0.58983637  1
  Pd  Pd186  1  0.39503336  0.40121401  0.40945465  1
  Pd  Pd187  1  0.80830470  0.59342693  0.60116819  1
  Pd  Pd188  1  0.80378945  0.80035138  0.59608034  1
  Pd  Pd189  1  0.39568409  0.80409671  -0.00433541  1
  Pd  Pd190  1  0.59258452  0.40642273  -0.00677888  1
  Pd  Pd191  1  0.79459143  0.20303295  0.60955095  1
  Pd  Pd192  1  0.58359706  0.61015365  0.60998569  1
  Pd  Pd193  1  0.19881524  0.79549297  0.39238358  1
  Pd  Pd194  1  0.20039047  0.78684632  0.78928121  1
  Pd  Pd195  1  0.00368050  0.00673953  0.60496820  1
  Pd  Pd196  1  0.60293157  0.00116417  -0.00693640  1
  Pd  Pd197  1  -0.00252766  0.39738363  0.79583277  1
  Pd  Pd198  1  0.39643403  0.79828746  0.19630887  1
  Pd  Pd199  1  0.40875640  0.59759572  0.60985821  1
  Rh  Rh200  1  0.20010867  0.59756356  0.60211804  1
  Rh  Rh201  1  0.40260038  0.80532013  0.60186270  1
  Rh  Rh202  1  0.00158786  0.19815542  -0.00463210  1
  Rh  Rh203  1  0.60884633  0.80120033  -0.00557210  1
  Rh  Rh204  1  0.79192683  0.40736496  0.41421738  1
  Rh  Rh205  1  0.59833783  0.00363105  0.79604649  1
  Rh  Rh206  1  0.20547242  -0.00847218  0.40787987  1
  Rh  Rh207  1  0.79805275  0.19106203  0.00197842  1
  Rh  Rh208  1  0.41091695  0.20360922  0.39730355  1
  Rh  Rh209  1  0.61062225  0.19519278  0.00657610  1
  Rh  Rh210  1  0.00518852  0.39751820  0.39566860  1
  Rh  Rh211  1  0.59943039  0.59896646  -0.00633552  1
  Rh  Rh212  1  0.39719463  0.39297987  0.59646354  1
  Rh  Rh213  1  0.59107044  0.00593124  0.19664309  1
  Rh  Rh214  1  -0.00590937  0.20868112  0.79841191  1
  Rh  Rh215  1  0.39972593  0.19598530  0.20881326  1
  Rh  Rh216  1  0.19457968  0.20843316  0.39764377  1
  Rh  Rh217  1  0.58947871  0.60598038  0.40138951  1
  Rh  Rh218  1  0.79796118  0.79190349  0.80234859  1
  Rh  Rh219  1  0.39595802  0.20122070  -0.01416288  1
  Rh  Rh220  1  0.80138245  0.60635265  0.00918474  1
  Rh  Rh221  1  0.60790336  0.20085658  0.79014958  1
  Rh  Rh222  1  0.01010243  0.61096005  -0.00612795  1
  Rh  Rh223  1  0.80340523  -0.00220187  0.59768835  1
  Rh  Rh224  1  0.59936714  0.00061999  0.60851871  1
  Rh  Rh225  1  0.40378777  -0.00428667  0.80351814  1
  Rh  Rh226  1  0.19219512  0.80698539  0.00053698  1
  Rh  Rh227  1  0.80754370  0.59215865  0.40285818  1
  Rh  Rh228  1  0.01234263  0.60248695  0.80169375  1
  Rh  Rh229  1  0.39789514  0.60287896  0.79174836  1
  Rh  Rh230  1  0.19476203  0.19644393  0.00681884  1
  Rh  Rh231  1  0.19362103  0.80588465  0.60534514  1
  Rh  Rh232  1  0.19914618  0.60221189  -0.01289453  1
  Rh  Rh233  1  0.80726703  -0.00205227  0.20269945  1
  Rh  Rh234  1  0.60785654  0.78655296  0.79625881  1
  Rh  Rh235  1  -0.00218178  0.60596789  0.59021886  1
  Rh  Rh236  1  0.19346399  0.40086310  0.80056561  1
  Rh  Rh237  1  0.60135050  0.39366883  0.59726624  1
  Rh  Rh238  1  0.39372085  0.79928500  0.80078770  1
  Rh  Rh239  1  0.19362895  -0.00075989  0.79185111  1
  Rh  Rh240  1  0.59777755  0.40020095  0.19878189  1
  Rh  Rh241  1  0.79865536  0.00457301  0.80198448  1
  Rh  Rh242  1  0.38540022  0.20263916  0.60962433  1
  Rh  Rh243  1  0.00555043  0.79484112  0.80138254  1
  Rh  Rh244  1  0.39578771  0.59704992  0.01324917  1
  Rh  Rh245  1  0.80188623  0.19561926  0.40560077  1
  Rh  Rh246  1  0.79508434  0.81117004  0.40870698  1
  Rh  Rh247  1  -0.00747441  0.59446957  0.20463079  1
  Rh  Rh248  1  0.00190196  0.00045154  0.79776682  1
  Rh  Rh249  1  0.00288098  0.20039206  0.59475465  1
