# generated using pymatgen
data_ZrScNbPdRh
_symmetry_space_group_name_H-M   'P 1'
_cell_length_a   16.54921520
_cell_length_b   16.55213427
_cell_length_c   16.55526176
_cell_angle_alpha   89.97504062
_cell_angle_beta   90.00365668
_cell_angle_gamma   90.01910048
_symmetry_Int_Tables_number   1
_chemical_formula_structural   ZrScNbPdRh
_chemical_formula_sum   'Zr50 Sc50 Nb50 Pd50 Rh50'
_cell_volume   4534.89660701
_cell_formula_units_Z   50
loop_
 _symmetry_equiv_pos_site_id
 _symmetry_equiv_pos_as_xyz
  1  'x, y, z'
loop_
 _atom_site_type_symbol
 _atom_site_label
 _atom_site_symmetry_multiplicity
 _atom_site_fract_x
 _atom_site_fract_y
 _atom_site_fract_z
 _atom_site_occupancy
  Zr  Zr0  1  0.10045435  0.70374235  0.49312541  1
  Zr  Zr1  1  0.50096903  0.30044814  0.69351171  1
  Zr  Zr2  1  0.70061845  0.50399233  0.70542564  1
  Zr  Zr3  1  0.08926443  0.10280510  0.30544938  1
  Zr  Zr4  1  0.30015483  0.90458434  0.90574221  1
  Zr  Zr5  1  0.29441397  0.29972468  0.10385553  1
  Zr  Zr6  1  0.49977000  0.90072044  0.89931156  1
  Zr  Zr7  1  0.49849799  0.10599659  0.90436050  1
  Zr  Zr8  1  0.50285178  0.69797024  0.48912446  1
  Zr  Zr9  1  0.09656436  0.10132068  0.69445550  1
  Zr  Zr10  1  0.68823222  0.69865025  0.10345091  1
  Zr  Zr11  1  0.49933931  0.69819313  0.11129099  1
  Zr  Zr12  1  0.51431693  0.70415092  0.69140797  1
  Zr  Zr13  1  0.89739734  0.10465492  0.90257488  1
  Zr  Zr14  1  0.28281379  0.08904655  0.69116207  1
  Zr  Zr15  1  0.08595485  0.49960054  0.10869397  1
  Zr  Zr16  1  0.49181641  0.10442739  0.10618124  1
  Zr  Zr17  1  0.10072720  0.90695064  0.10378478  1
  Zr  Zr18  1  0.29808674  0.89986294  0.10165145  1
  Zr  Zr19  1  0.09273238  0.09683361  0.09973465  1
  Zr  Zr20  1  0.50878635  0.29419596  0.30027403  1
  Zr  Zr21  1  0.90229467  0.10053648  0.69470682  1
  Zr  Zr22  1  0.10100620  0.91132866  0.69988704  1
  Zr  Zr23  1  0.50593213  0.90031499  0.69627347  1
  Zr  Zr24  1  0.29453487  0.49844886  0.70500568  1
  Zr  Zr25  1  0.29379959  0.29854366  0.90605991  1
  Zr  Zr26  1  0.70546171  0.09606480  0.70029889  1
  Zr  Zr27  1  0.50049380  0.29680917  0.10552611  1
  Zr  Zr28  1  0.09678431  0.90118023  0.30117309  1
  Zr  Zr29  1  0.69536547  0.89841257  0.10593591  1
  Zr  Zr30  1  0.89856438  0.91091777  0.10079927  1
  Zr  Zr31  1  0.50515400  0.49545166  0.69750491  1
  Zr  Zr32  1  0.49450697  0.90026132  0.09879222  1
  Zr  Zr33  1  0.50895206  0.51234826  0.10128484  1
  Zr  Zr34  1  0.50320838  0.49197452  0.50065498  1
  Zr  Zr35  1  0.09927032  0.90624190  0.90207233  1
  Zr  Zr36  1  0.89979221  0.49549088  0.10782229  1
  Zr  Zr37  1  0.50703708  0.91047305  0.29625616  1
  Zr  Zr38  1  0.70677352  0.90251516  0.49369570  1
  Zr  Zr39  1  0.29878244  0.50088798  0.90046302  1
  Zr  Zr40  1  0.69714268  0.29252724  0.69280276  1
  Zr  Zr41  1  0.30524979  0.30102926  0.50030335  1
  Zr  Zr42  1  0.70320141  0.70078534  0.49949466  1
  Zr  Zr43  1  0.69887433  0.89840860  0.69015813  1
  Zr  Zr44  1  0.50753388  0.29388009  0.90026617  1
  Zr  Zr45  1  0.69149782  0.49532713  0.90332925  1
  Zr  Zr46  1  0.30020533  0.70681359  0.49463222  1
  Zr  Zr47  1  0.30556347  0.69816431  0.10697258  1
  Zr  Zr48  1  0.69705502  0.90164014  0.89225646  1
  Zr  Zr49  1  0.90193688  0.29539689  0.68717913  1
  Sc  Sc50  1  0.29315280  0.49193288  0.29865974  1
  Sc  Sc51  1  0.29878123  0.89833097  0.29873291  1
  Sc  Sc52  1  0.70390008  0.49460197  0.49516715  1
  Sc  Sc53  1  0.89907834  0.89900929  0.89324885  1
  Sc  Sc54  1  0.70109138  0.29956331  0.49392095  1
  Sc  Sc55  1  0.30621792  0.49967960  0.10514397  1
  Sc  Sc56  1  0.09795822  0.29551763  0.49141754  1
  Sc  Sc57  1  0.89826290  0.30221898  0.10243715  1
  Sc  Sc58  1  0.30268838  0.09927854  0.09889194  1
  Sc  Sc59  1  0.89457652  0.70310696  0.89561994  1
  Sc  Sc60  1  0.29789692  0.10780582  0.90425883  1
  Sc  Sc61  1  0.08977868  0.89811941  0.49504582  1
  Sc  Sc62  1  0.90233987  0.10278808  0.49555610  1
  Sc  Sc63  1  0.89898756  0.91076597  0.31153110  1
  Sc  Sc64  1  0.09344045  0.49090276  0.30384227  1
  Sc  Sc65  1  0.30996346  0.90737074  0.49945186  1
  Sc  Sc66  1  0.09679257  0.70066883  0.30909908  1
  Sc  Sc67  1  0.50407454  0.69684132  0.91156884  1
  Sc  Sc68  1  0.69377409  0.70074840  0.30861954  1
  Sc  Sc69  1  0.10636883  0.49930859  0.90181811  1
  Sc  Sc70  1  0.29881332  0.30301976  0.30147520  1
  Sc  Sc71  1  0.09666569  0.69388296  0.09905431  1
  Sc  Sc72  1  0.49756608  0.09858595  0.49088216  1
  Sc  Sc73  1  0.09859481  0.28823403  0.69590425  1
  Sc  Sc74  1  0.89807475  0.50115717  0.90479739  1
  Sc  Sc75  1  0.50936294  0.10461201  0.69429137  1
  Sc  Sc76  1  0.90513889  0.69143198  0.09592724  1
  Sc  Sc77  1  0.30063359  0.29192304  0.69625265  1
  Sc  Sc78  1  0.30462982  0.10389107  0.49819792  1
  Sc  Sc79  1  0.90356410  0.70119026  0.49231517  1
  Sc  Sc80  1  0.09264423  0.70205187  0.69990435  1
  Sc  Sc81  1  0.29501086  0.69189305  0.90785841  1
  Sc  Sc82  1  0.90265827  0.49675060  0.30601126  1
  Sc  Sc83  1  0.09206973  0.50035791  0.49315938  1
  Sc  Sc84  1  0.29871236  0.49795545  0.49447102  1
  Sc  Sc85  1  0.89595934  0.10442089  0.29867801  1
  Sc  Sc86  1  0.70813925  0.10804583  0.11017935  1
  Sc  Sc87  1  0.90141923  0.49472848  0.49721209  1
  Sc  Sc88  1  0.70360786  0.30659427  0.10563667  1
  Sc  Sc89  1  0.09964627  0.69272133  0.90349290  1
  Sc  Sc90  1  0.30083118  0.70253363  0.30531358  1
  Sc  Sc91  1  0.50521367  0.90166585  0.50033131  1
  Sc  Sc92  1  0.70334626  0.49016554  0.30440511  1
  Sc  Sc93  1  0.09549156  0.10591931  0.89840330  1
  Sc  Sc94  1  0.90129330  0.29239115  0.90794618  1
  Sc  Sc95  1  0.70381605  0.09963882  0.50451945  1
  Sc  Sc96  1  0.90302424  0.10479057  0.10124942  1
  Sc  Sc97  1  0.09463805  0.30374492  0.09718856  1
  Sc  Sc98  1  0.50669531  0.29526321  0.50583708  1
  Sc  Sc99  1  0.70259523  0.70358457  0.89089460  1
  Nb  Nb100  1  0.69562135  0.10049407  0.29898593  1
  Nb  Nb101  1  0.10133501  0.30297645  0.30002922  1
  Nb  Nb102  1  0.50053004  0.68916850  0.29462611  1
  Nb  Nb103  1  0.49956496  0.50305396  0.29992690  1
  Nb  Nb104  1  0.70479808  0.50167141  0.10371293  1
  Nb  Nb105  1  0.70158142  0.10615637  0.89834778  1
  Nb  Nb106  1  0.49857731  0.49665620  0.90113656  1
  Nb  Nb107  1  0.90185465  0.49530234  0.69838557  1
  Nb  Nb108  1  0.29925516  0.90061201  0.70021134  1
  Nb  Nb109  1  0.70622841  0.29566895  0.30228466  1
  Nb  Nb110  1  0.89456265  0.29519388  0.49320545  1
  Nb  Nb111  1  0.89805537  0.90102498  0.50324895  1
  Nb  Nb112  1  0.70277886  0.29062766  0.89974104  1
  Nb  Nb113  1  0.70331398  0.90726212  0.29412647  1
  Nb  Nb114  1  0.49226613  0.10399248  0.29621042  1
  Nb  Nb115  1  0.10703810  0.10156746  0.50158346  1
  Nb  Nb116  1  0.30012618  0.69890392  0.70056895  1
  Nb  Nb117  1  0.31191143  0.10219921  0.30304482  1
  Nb  Nb118  1  0.89857489  0.69487181  0.29852830  1
  Nb  Nb119  1  0.90142362  0.29932031  0.30980789  1
  Nb  Nb120  1  0.89451961  0.69702053  0.70455700  1
  Nb  Nb121  1  0.09965400  0.29658893  0.90072072  1
  Nb  Nb122  1  0.09729964  0.49958372  0.69832432  1
  Nb  Nb123  1  0.70606965  0.69888384  0.69981727  1
  Nb  Nb124  1  0.90498123  0.89668032  0.68987870  1
  Nb  Nb125  1  -0.00052885  0.39928036  0.79544830  1
  Nb  Nb126  1  -0.00805614  0.80009298  0.20067788  1
  Nb  Nb127  1  0.80261670  0.39587895  0.79838743  1
  Nb  Nb128  1  -0.00004505  0.80587029  0.00494169  1
  Nb  Nb129  1  0.19947244  0.60215886  0.60188684  1
  Nb  Nb130  1  0.79203478  0.59676140  0.00635947  1
  Nb  Nb131  1  0.79084519  0.00292728  -0.00421049  1
  Nb  Nb132  1  0.80206813  0.79847642  0.20447839  1
  Nb  Nb133  1  0.20376650  0.80136823  0.60409657  1
  Nb  Nb134  1  0.39587286  0.79740680  0.79570628  1
  Nb  Nb135  1  -0.00534260  0.59209583  0.79146827  1
  Nb  Nb136  1  0.39693266  0.60288574  0.60184790  1
  Nb  Nb137  1  0.80496905  0.60248997  0.60838628  1
  Nb  Nb138  1  0.19867712  0.00791550  0.39868379  1
  Nb  Nb139  1  0.19577291  0.59763241  0.20261309  1
  Nb  Nb140  1  0.40977722  0.39930932  0.39740140  1
  Nb  Nb141  1  0.20502164  0.80280612  0.79631054  1
  Nb  Nb142  1  0.19497567  0.19844204  0.20685412  1
  Nb  Nb143  1  0.40715256  0.40084377  -0.00269720  1
  Nb  Nb144  1  0.60558500  0.00689137  -0.00024510  1
  Nb  Nb145  1  0.40410975  0.60013949  0.79568628  1
  Nb  Nb146  1  0.40244414  0.40017263  0.80455192  1
  Nb  Nb147  1  0.79849509  0.60168443  0.20100227  1
  Nb  Nb148  1  0.19451609  0.40454578  0.60113053  1
  Nb  Nb149  1  0.39689596  -0.00252277  0.79548653  1
  Pd  Pd150  1  0.60454974  0.19335399  0.40274056  1
  Pd  Pd151  1  0.60048834  0.80306305  -0.00317561  1
  Pd  Pd152  1  0.60640686  0.59633471  0.59251734  1
  Pd  Pd153  1  0.60047704  0.01089761  0.19280576  1
  Pd  Pd154  1  0.19790849  0.59262501  0.39658837  1
  Pd  Pd155  1  0.80079700  0.80954911  0.79127916  1
  Pd  Pd156  1  0.80422497  0.80063417  0.39266648  1
  Pd  Pd157  1  0.00708483  0.39213065  0.59572870  1
  Pd  Pd158  1  0.39673062  0.19619448  0.79333431  1
  Pd  Pd159  1  0.59781490  0.80557127  0.39440747  1
  Pd  Pd160  1  0.39740461  0.79167954  -0.00350020  1
  Pd  Pd161  1  0.80077853  0.01011183  0.40016057  1
  Pd  Pd162  1  0.80425364  0.20654242  0.20383793  1
  Pd  Pd163  1  0.00202109  0.20777562  0.19939878  1
  Pd  Pd164  1  0.00615696  0.79377064  0.80555022  1
  Pd  Pd165  1  0.20710074  0.01179059  0.21002868  1
  Pd  Pd166  1  0.18987726  0.78919538  0.20257503  1
  Pd  Pd167  1  0.80559512  0.79806037  0.00729665  1
  Pd  Pd168  1  0.79547159  0.40400310  0.59939673  1
  Pd  Pd169  1  0.40420997  0.80306776  0.21005857  1
  Pd  Pd170  1  0.00144440  0.79606822  0.59962444  1
  Pd  Pd171  1  0.19390872  0.79552673  -0.00185575  1
  Pd  Pd172  1  0.20508299  0.19739762  0.39596252  1
  Pd  Pd173  1  0.39956175  0.79692282  0.60022653  1
  Pd  Pd174  1  0.39998774  0.18964545  0.60171883  1
  Pd  Pd175  1  0.60678619  0.59136270  0.39759183  1
  Pd  Pd176  1  0.61061220  0.19735538  0.01130521  1
  Pd  Pd177  1  0.40903523  0.80817719  0.39194384  1
  Pd  Pd178  1  0.19514325  0.38808788  0.79266775  1
  Pd  Pd179  1  0.59511000  0.60705390  0.80578034  1
  Pd  Pd180  1  0.39598406  0.59180159  0.39926716  1
  Pd  Pd181  1  0.80611406  -0.00535921  0.79741225  1
  Pd  Pd182  1  -0.00652268  0.00394002  0.80149088  1
  Pd  Pd183  1  -0.00298019  0.60528508  0.59904419  1
  Pd  Pd184  1  -0.00004693  0.39937762  -0.00976631  1
  Pd  Pd185  1  0.20039613  0.01167208  -0.00203221  1
  Pd  Pd186  1  0.59398390  0.00938244  0.80235678  1
  Pd  Pd187  1  0.59856972  0.39580418  0.00734224  1
  Pd  Pd188  1  0.60259290  0.00738226  0.40102608  1
  Pd  Pd189  1  0.80601858  0.20716285  0.79697597  1
  Pd  Pd190  1  0.19849742  0.59161608  0.01402224  1
  Pd  Pd191  1  0.60339826  0.39039912  0.79911510  1
  Pd  Pd192  1  0.80465434  0.79523462  0.59820180  1
  Pd  Pd193  1  0.60371744  0.40311884  0.20324165  1
  Pd  Pd194  1  0.40526574  0.40253364  0.20115203  1
  Pd  Pd195  1  0.40636475  0.00651522  0.60409688  1
  Pd  Pd196  1  0.19964630  0.40719682  0.00899729  1
  Pd  Pd197  1  0.19838765  0.19902521  0.79941687  1
  Pd  Pd198  1  0.79933231  0.39926113  -0.00582330  1
  Pd  Pd199  1  -0.00123373  0.00324214  0.58962454  1
  Rh  Rh200  1  -0.00581060  0.39044565  0.20908344  1
  Rh  Rh201  1  0.59770362  0.79380970  0.80035894  1
  Rh  Rh202  1  0.00281812  0.20288595  0.00218968  1
  Rh  Rh203  1  -0.01015156  -0.00232423  -0.00912291  1
  Rh  Rh204  1  0.60472440  0.19825407  0.20228045  1
  Rh  Rh205  1  -0.01082836  0.80203434  0.39309743  1
  Rh  Rh206  1  0.79672493  0.19825640  0.00556622  1
  Rh  Rh207  1  0.40528268  0.20941021  0.39747489  1
  Rh  Rh208  1  0.80200736  0.59791436  0.40167885  1
  Rh  Rh209  1  0.40429793  0.00469157  -0.00315551  1
  Rh  Rh210  1  -0.00308128  0.39260916  0.40344409  1
  Rh  Rh211  1  0.60256079  0.19875635  0.79513008  1
  Rh  Rh212  1  -0.00977236  0.60582580  -0.01427770  1
  Rh  Rh213  1  0.39627820  0.20927054  0.00436159  1
  Rh  Rh214  1  0.60621351  0.60064781  -0.00422037  1
  Rh  Rh215  1  0.59973846  0.79861718  0.21296262  1
  Rh  Rh216  1  0.39470609  -0.00302409  0.20114114  1
  Rh  Rh217  1  0.80008761  -0.00013511  0.19975179  1
  Rh  Rh218  1  0.59682219  0.39631421  0.39551120  1
  Rh  Rh219  1  -0.00844871  -0.00191186  0.20816451  1
  Rh  Rh220  1  0.19606020  -0.01015753  0.58350252  1
  Rh  Rh221  1  0.19094937  0.61080116  0.79370946  1
  Rh  Rh222  1  0.80712748  -0.00206879  0.59993653  1
  Rh  Rh223  1  0.00201383  0.19846544  0.58849870  1
  Rh  Rh224  1  0.60955057  0.59441930  0.21275944  1
  Rh  Rh225  1  0.20429122  0.00122444  0.80927572  1
  Rh  Rh226  1  0.61061427  0.39833955  0.59718203  1
  Rh  Rh227  1  0.20358096  0.39643303  0.40756182  1
  Rh  Rh228  1  0.60738505  0.80115724  0.58975429  1
  Rh  Rh229  1  0.00273207  0.60443352  0.21119680  1
  Rh  Rh230  1  0.80322798  0.40074710  0.20969806  1
  Rh  Rh231  1  0.38983350  0.20497176  0.20381461  1
  Rh  Rh232  1  0.60111508  0.00122839  0.59168096  1
  Rh  Rh233  1  0.80305371  0.39490667  0.39874111  1
  Rh  Rh234  1  -0.00266441  0.59866115  0.39901431  1
  Rh  Rh235  1  0.00117965  0.00414839  0.40574462  1
  Rh  Rh236  1  0.79473790  0.19639446  0.39795821  1
  Rh  Rh237  1  0.80109712  0.19734104  0.59264685  1
  Rh  Rh238  1  0.80454298  0.59157059  0.80265010  1
  Rh  Rh239  1  0.40154649  0.59597672  -0.00302368  1
  Rh  Rh240  1  -0.00241505  0.20240713  0.40295414  1
  Rh  Rh241  1  0.38967988  0.40753784  0.59884723  1
  Rh  Rh242  1  0.19875785  0.20751871  0.59287363  1
  Rh  Rh243  1  0.39792988  -0.00191075  0.39465761  1
  Rh  Rh244  1  0.60338885  0.19512187  0.59338199  1
  Rh  Rh245  1  0.38991040  0.59659650  0.21111636  1
  Rh  Rh246  1  0.19048828  0.19797122  0.00983521  1
  Rh  Rh247  1  -0.00223550  0.20658318  0.80258039  1
  Rh  Rh248  1  0.18949508  0.39960892  0.19796785  1
  Rh  Rh249  1  0.20431854  0.81589642  0.40897819  1
