# generated using pymatgen
data_ZrScNbPdRh
_symmetry_space_group_name_H-M   'P 1'
_cell_length_a   16.55260132
_cell_length_b   16.55374060
_cell_length_c   16.55657064
_cell_angle_alpha   89.99832835
_cell_angle_beta   89.99327720
_cell_angle_gamma   89.98398140
_symmetry_Int_Tables_number   1
_chemical_formula_structural   ZrScNbPdRh
_chemical_formula_sum   'Zr50 Sc50 Nb50 Pd50 Rh50'
_cell_volume   4536.62379615
_cell_formula_units_Z   50
loop_
 _symmetry_equiv_pos_site_id
 _symmetry_equiv_pos_as_xyz
  1  'x, y, z'
loop_
 _atom_site_type_symbol
 _atom_site_label
 _atom_site_symmetry_multiplicity
 _atom_site_fract_x
 _atom_site_fract_y
 _atom_site_fract_z
 _atom_site_occupancy
  Zr  Zr0  1  0.90223394  0.50449343  0.49714605  1
  Zr  Zr1  1  0.30803740  0.30221144  0.10782760  1
  Zr  Zr2  1  0.29380197  0.70338204  0.90357066  1
  Zr  Zr3  1  0.50121509  0.90216915  0.09983953  1
  Zr  Zr4  1  0.49076443  0.49690727  0.69756931  1
  Zr  Zr5  1  0.90039747  0.10459098  0.90285226  1
  Zr  Zr6  1  0.90540596  0.29974081  0.91062000  1
  Zr  Zr7  1  0.90266001  0.49248132  0.30285278  1
  Zr  Zr8  1  0.50079186  0.69699685  0.49675771  1
  Zr  Zr9  1  0.10054380  0.69682538  0.70733103  1
  Zr  Zr10  1  0.29541382  0.69797917  0.29721753  1
  Zr  Zr11  1  0.10487810  0.30011445  0.89733396  1
  Zr  Zr12  1  0.49798969  0.09394192  0.10744699  1
  Zr  Zr13  1  0.09709789  0.70046567  0.49664885  1
  Zr  Zr14  1  0.49318891  0.10148482  0.50138286  1
  Zr  Zr15  1  0.70193777  0.89423865  0.90560898  1
  Zr  Zr16  1  0.70496393  0.89419919  0.10162076  1
  Zr  Zr17  1  0.49751859  0.30047882  0.49878426  1
  Zr  Zr18  1  0.89747835  0.29100332  0.69344367  1
  Zr  Zr19  1  0.70486507  0.90176140  0.29226880  1
  Zr  Zr20  1  0.09466749  0.09976658  0.10245664  1
  Zr  Zr21  1  0.70175867  0.29899839  0.90068468  1
  Zr  Zr22  1  0.30657819  0.10289178  0.29343614  1
  Zr  Zr23  1  0.69344264  0.10915577  0.90048675  1
  Zr  Zr24  1  0.68924711  0.10285741  0.49392724  1
  Zr  Zr25  1  0.70473155  0.49647855  0.09848625  1
  Zr  Zr26  1  0.90140736  0.70465472  0.49470080  1
  Zr  Zr27  1  0.70395264  0.50190959  0.90062941  1
  Zr  Zr28  1  0.89689098  0.91496264  0.69800011  1
  Zr  Zr29  1  0.08374594  0.89900194  0.49317382  1
  Zr  Zr30  1  0.89975527  0.69714781  0.30110314  1
  Zr  Zr31  1  0.70243682  0.69797912  0.50211202  1
  Zr  Zr32  1  0.89233453  0.31171559  0.49725353  1
  Zr  Zr33  1  0.70077331  0.09648458  0.11503367  1
  Zr  Zr34  1  0.29251696  0.89171242  0.29544016  1
  Zr  Zr35  1  0.90405108  0.49929812  0.69537140  1
  Zr  Zr36  1  0.10383292  0.89885398  0.10085629  1
  Zr  Zr37  1  0.49938239  0.30034361  0.69695111  1
  Zr  Zr38  1  0.10202256  0.10730570  0.90600600  1
  Zr  Zr39  1  0.49826982  0.49255212  0.49876325  1
  Zr  Zr40  1  0.49990547  0.69683390  0.90640018  1
  Zr  Zr41  1  0.10234382  0.89479989  0.90295410  1
  Zr  Zr42  1  0.70180444  0.29852403  0.30113585  1
  Zr  Zr43  1  0.70533638  0.10412603  0.70060238  1
  Zr  Zr44  1  0.70556703  0.69369961  0.89669035  1
  Zr  Zr45  1  0.70376759  0.90761115  0.70387178  1
  Zr  Zr46  1  0.90946512  0.90341012  0.89647456  1
  Zr  Zr47  1  0.29816538  0.69767900  0.70900360  1
  Zr  Zr48  1  0.70658775  0.51098684  0.69700119  1
  Zr  Zr49  1  0.11300878  0.50486133  0.69999473  1
  Sc  Sc50  1  0.49841030  0.30403490  0.09741519  1
  Sc  Sc51  1  0.30459954  0.29847285  0.29896505  1
  Sc  Sc52  1  0.70280750  0.49879665  0.49856674  1
  Sc  Sc53  1  0.90093991  0.69876220  0.89822735  1
  Sc  Sc54  1  0.70310341  0.70657021  0.30951969  1
  Sc  Sc55  1  0.08813796  0.29806788  0.09932365  1
  Sc  Sc56  1  0.31259830  0.10249968  0.69091286  1
  Sc  Sc57  1  0.29925537  0.49077612  0.28349790  1
  Sc  Sc58  1  0.09009500  0.11594506  0.69449189  1
  Sc  Sc59  1  0.10581727  0.50346346  0.90031389  1
  Sc  Sc60  1  0.70366063  0.29921798  0.10003416  1
  Sc  Sc61  1  0.08871261  0.89803911  0.70777590  1
  Sc  Sc62  1  0.10498511  0.70511863  0.89930246  1
  Sc  Sc63  1  0.90682847  0.48934231  0.10368600  1
  Sc  Sc64  1  0.90517256  0.50466465  0.90266115  1
  Sc  Sc65  1  0.30474456  0.90437187  0.49461978  1
  Sc  Sc66  1  0.50092197  0.30736849  0.29977896  1
  Sc  Sc67  1  0.30266393  0.09835137  0.10704019  1
  Sc  Sc68  1  0.89861421  0.10192935  0.10092474  1
  Sc  Sc69  1  0.10437189  0.70094965  0.30030667  1
  Sc  Sc70  1  0.90903571  0.09816787  0.50549973  1
  Sc  Sc71  1  0.89777153  0.29807131  0.10614580  1
  Sc  Sc72  1  0.30234787  0.89926323  0.70474076  1
  Sc  Sc73  1  0.89209255  0.70192946  0.09906232  1
  Sc  Sc74  1  0.08525619  0.10107457  0.29788902  1
  Sc  Sc75  1  0.30309447  0.50303788  0.90244769  1
  Sc  Sc76  1  0.29696308  0.68755110  0.10489935  1
  Sc  Sc77  1  0.49345309  0.68693191  0.70486495  1
  Sc  Sc78  1  0.69807699  0.29440082  0.69662232  1
  Sc  Sc79  1  0.70286191  0.70088162  0.08201151  1
  Sc  Sc80  1  0.89479572  0.90358799  0.09572856  1
  Sc  Sc81  1  0.10154653  0.49800898  0.11278237  1
  Sc  Sc82  1  0.90018632  0.89713714  0.30046466  1
  Sc  Sc83  1  0.50224334  0.10782636  0.69848149  1
  Sc  Sc84  1  0.29679982  0.30353751  0.70101768  1
  Sc  Sc85  1  0.89829875  0.29800323  0.30056909  1
  Sc  Sc86  1  0.29807967  0.70644656  0.49151115  1
  Sc  Sc87  1  0.29809362  0.29724102  0.89418010  1
  Sc  Sc88  1  0.30278823  0.11187850  0.49683063  1
  Sc  Sc89  1  0.90226055  0.69246414  0.70447008  1
  Sc  Sc90  1  0.48393406  0.49938502  0.09505258  1
  Sc  Sc91  1  0.49064582  0.69878615  0.30051375  1
  Sc  Sc92  1  0.50614037  0.30128804  0.89499822  1
  Sc  Sc93  1  0.49170300  0.89991802  0.29928508  1
  Sc  Sc94  1  0.70166815  0.89764966  0.49310786  1
  Sc  Sc95  1  0.69457855  0.30282598  0.49902858  1
  Sc  Sc96  1  0.09462811  0.29767239  0.30087488  1
  Sc  Sc97  1  0.50642832  0.90424809  0.90740120  1
  Sc  Sc98  1  0.49377565  0.90215968  0.49271850  1
  Sc  Sc99  1  0.49719924  0.49660688  0.89994014  1
  Nb  Nb100  1  0.50095067  0.49941803  0.30082233  1
  Nb  Nb101  1  0.09388314  0.50290325  0.30211270  1
  Nb  Nb102  1  0.11643155  0.29560968  0.50353887  1
  Nb  Nb103  1  0.09965631  0.89752206  0.29949802  1
  Nb  Nb104  1  0.29869566  0.89871735  0.90243581  1
  Nb  Nb105  1  0.10522055  0.69720687  0.09885774  1
  Nb  Nb106  1  0.29843521  0.49709607  0.09605070  1
  Nb  Nb107  1  0.29661881  0.30461516  0.49185868  1
  Nb  Nb108  1  0.29717211  0.49240306  0.49819940  1
  Nb  Nb109  1  0.10093209  0.30542533  0.70140408  1
  Nb  Nb110  1  0.49750639  0.09897159  0.90606366  1
  Nb  Nb111  1  0.89793316  0.90384711  0.50085286  1
  Nb  Nb112  1  0.69336948  0.49364976  0.29524351  1
  Nb  Nb113  1  0.30063817  0.50727458  0.70112058  1
  Nb  Nb114  1  0.10496258  0.49490140  0.49738552  1
  Nb  Nb115  1  0.30010252  0.09729561  0.90241761  1
  Nb  Nb116  1  0.30322257  0.90287808  0.10070086  1
  Nb  Nb117  1  0.51143485  0.10054965  0.30063990  1
  Nb  Nb118  1  0.70281169  0.70262723  0.70071006  1
  Nb  Nb119  1  0.49888087  0.90268096  0.69962439  1
  Nb  Nb120  1  0.49894483  0.69759032  0.09991220  1
  Nb  Nb121  1  0.88998792  0.10152900  0.69929805  1
  Nb  Nb122  1  0.69821238  0.10052262  0.30010658  1
  Nb  Nb123  1  0.89345833  0.10333005  0.30062558  1
  Nb  Nb124  1  0.10535903  0.09849506  0.49522705  1
  Nb  Nb125  1  0.59846790  0.79189998  0.19390909  1
  Nb  Nb126  1  0.40173462  0.79981419  0.60440267  1
  Nb  Nb127  1  0.19181908  0.00213478  0.39881111  1
  Nb  Nb128  1  0.20406686  0.39920396  0.00699909  1
  Nb  Nb129  1  0.59989960  0.60097410  0.19941406  1
  Nb  Nb130  1  0.60134923  0.79800553  0.79516281  1
  Nb  Nb131  1  0.20598636  -0.00200639  -0.00141642  1
  Nb  Nb132  1  0.59876741  0.80097405  0.60807250  1
  Nb  Nb133  1  0.00624711  0.79891252  0.19692667  1
  Nb  Nb134  1  0.59869681  -0.00437571  0.60065934  1
  Nb  Nb135  1  0.40075113  0.19184859  -0.00380721  1
  Nb  Nb136  1  0.79142005  0.59382446  0.20287913  1
  Nb  Nb137  1  0.80203184  0.00654981  0.39718986  1
  Nb  Nb138  1  0.39982915  0.00150679  0.80905779  1
  Nb  Nb139  1  0.00278703  0.39674121  0.79278223  1
  Nb  Nb140  1  0.00799909  0.60354279  0.00816427  1
  Nb  Nb141  1  0.39345637  0.58786374  0.39904280  1
  Nb  Nb142  1  0.20399639  0.00498733  0.80134003  1
  Nb  Nb143  1  0.80650653  0.39779820  0.79790436  1
  Nb  Nb144  1  0.39620681  0.80228074  0.00431336  1
  Nb  Nb145  1  0.19871058  0.80593309  0.60058773  1
  Nb  Nb146  1  0.20011186  0.58516570  0.39979856  1
  Nb  Nb147  1  0.01521010  0.39608431  0.59667393  1
  Nb  Nb148  1  0.79947016  0.80238719  0.60229892  1
  Nb  Nb149  1  0.19434237  -0.00018184  0.59702270  1
  Pd  Pd150  1  0.39334505  0.40207338  0.80383388  1
  Pd  Pd151  1  0.20056614  0.40006344  0.38692432  1
  Pd  Pd152  1  0.79683337  0.19611752  0.58679481  1
  Pd  Pd153  1  0.00791075  0.01438237  0.79797297  1
  Pd  Pd154  1  0.59629950  0.59968417  0.79919998  1
  Pd  Pd155  1  0.60921496  0.00383701  0.00429039  1
  Pd  Pd156  1  0.00592234  0.00593266  0.60448380  1
  Pd  Pd157  1  0.39178139  0.00344671  0.39334488  1
  Pd  Pd158  1  0.59330759  0.00150403  0.79801609  1
  Pd  Pd159  1  0.59615985  0.40326006  0.00222864  1
  Pd  Pd160  1  0.21003246  0.20266779  0.01199177  1
  Pd  Pd161  1  0.20726359  0.19621115  0.60451265  1
  Pd  Pd162  1  0.00337531  0.59620591  0.59624045  1
  Pd  Pd163  1  -0.00615087  0.60627283  0.19509516  1
  Pd  Pd164  1  0.19223702  0.39259512  0.19940795  1
  Pd  Pd165  1  0.20785873  0.60919413  0.58995350  1
  Pd  Pd166  1  0.59853890  0.60087126  0.60200326  1
  Pd  Pd167  1  0.60193561  -0.00786916  0.39860493  1
  Pd  Pd168  1  0.59345508  0.20039054  0.00838638  1
  Pd  Pd169  1  0.38889269  0.39525371  0.60008961  1
  Pd  Pd170  1  0.20584029  0.19128285  0.78803753  1
  Pd  Pd171  1  0.59480829  0.58983696  0.00669172  1
  Pd  Pd172  1  0.40098809  0.79686156  0.19255907  1
  Pd  Pd173  1  0.80587613  0.40198781  -0.00350179  1
  Pd  Pd174  1  0.40251455  0.19642019  0.80432665  1
  Pd  Pd175  1  -0.00951250  -0.00736057  0.20064649  1
  Pd  Pd176  1  -0.00142115  0.20401524  0.40829575  1
  Pd  Pd177  1  0.00762058  0.39153872  0.40534065  1
  Pd  Pd178  1  0.59664412  0.59729189  0.39364345  1
  Pd  Pd179  1  0.40637091  0.20448108  0.39276312  1
  Pd  Pd180  1  0.19402385  0.20337641  0.20212565  1
  Pd  Pd181  1  0.60948658  0.40364935  0.79283112  1
  Pd  Pd182  1  0.59273462  0.40454346  0.19172579  1
  Pd  Pd183  1  0.80246939  0.19585117  0.40633673  1
  Pd  Pd184  1  0.59628594  0.20791498  0.20030974  1
  Pd  Pd185  1  0.79848189  0.00679170  0.81270407  1
  Pd  Pd186  1  0.41038808  0.80593542  0.80595719  1
  Pd  Pd187  1  0.00196533  0.20812971  0.58763273  1
  Pd  Pd188  1  0.38902425  0.60510512  0.58977936  1
  Pd  Pd189  1  0.20543398  0.39818496  0.60332436  1
  Pd  Pd190  1  0.79367666  0.59183233  0.39310195  1
  Pd  Pd191  1  -0.00517548  0.79831801  0.61024126  1
  Pd  Pd192  1  0.19791252  0.19527067  0.38861877  1
  Pd  Pd193  1  -0.00491410  0.20269732  0.80012090  1
  Pd  Pd194  1  -0.00473716  0.79297512  0.00625182  1
  Pd  Pd195  1  0.60743842  0.40287631  0.60272767  1
  Pd  Pd196  1  0.19912494  0.00364132  0.20266746  1
  Pd  Pd197  1  0.59366468  0.80478221  0.39410500  1
  Pd  Pd198  1  0.79637525  0.00542941  -0.00249977  1
  Pd  Pd199  1  0.80467186  0.79971156  0.79749645  1
  Rh  Rh200  1  0.19667777  0.79703563  0.19414375  1
  Rh  Rh201  1  0.39491790  0.40276364  0.39529744  1
  Rh  Rh202  1  0.19829814  0.59568130  0.20582684  1
  Rh  Rh203  1  0.80384331  0.20591044  0.80440424  1
  Rh  Rh204  1  0.59361812  0.20664941  0.39535147  1
  Rh  Rh205  1  -0.00389995  0.00276938  0.39445627  1
  Rh  Rh206  1  0.40641672  0.40263623  0.20143089  1
  Rh  Rh207  1  -0.00243987  0.19874689  0.00634374  1
  Rh  Rh208  1  0.39575515  0.21301420  0.59593873  1
  Rh  Rh209  1  0.80677153  0.80941835  0.40592521  1
  Rh  Rh210  1  0.19629044  0.80776500  0.40779053  1
  Rh  Rh211  1  0.80548843  0.59401080  0.80017610  1
  Rh  Rh212  1  0.79846879  0.40095577  0.60519117  1
  Rh  Rh213  1  0.81487413  0.59188129  0.00813233  1
  Rh  Rh214  1  0.01448478  0.40849252  -0.00761230  1
  Rh  Rh215  1  0.79731101  0.78882492  0.19927560  1
  Rh  Rh216  1  0.39762047  0.59350270  0.80674295  1
  Rh  Rh217  1  0.59320323  0.79759883  -0.00094490  1
  Rh  Rh218  1  0.19582061  0.80844034  0.79045118  1
  Rh  Rh219  1  0.59588156  0.19999849  0.79884094  1
  Rh  Rh220  1  0.80709650  0.00365915  0.20649637  1
  Rh  Rh221  1  0.79307686  0.00112245  0.58615959  1
  Rh  Rh222  1  -0.00796584  0.20000778  0.20122097  1
  Rh  Rh223  1  0.39108745  0.38712257  -0.00695701  1
  Rh  Rh224  1  0.59762276  0.19591250  0.59790246  1
  Rh  Rh225  1  0.00544813  0.59745040  0.81069728  1
  Rh  Rh226  1  0.40285348  -0.00548135  0.60604717  1
  Rh  Rh227  1  0.40126227  0.79256373  0.40419312  1
  Rh  Rh228  1  0.00541450  0.00227130  0.00024968  1
  Rh  Rh229  1  0.20990753  0.80193266  0.01145002  1
  Rh  Rh230  1  0.40231856  -0.00090413  0.20871781  1
  Rh  Rh231  1  0.41155917  0.20028234  0.19964700  1
  Rh  Rh232  1  0.39402639  -0.00148788  -0.00215680  1
  Rh  Rh233  1  0.20457188  0.59823145  0.80750811  1
  Rh  Rh234  1  0.00820826  0.60007520  0.40061463  1
  Rh  Rh235  1  0.59616960  -0.00912592  0.20676985  1
  Rh  Rh236  1  0.79587089  0.19644149  0.00688393  1
  Rh  Rh237  1  0.81041932  0.80364555  -0.00933150  1
  Rh  Rh238  1  -0.00403994  0.80028515  0.38825961  1
  Rh  Rh239  1  0.80209260  0.40050442  0.20493481  1
  Rh  Rh240  1  0.60255692  0.39928456  0.40180207  1
  Rh  Rh241  1  0.20146268  0.40563267  0.80496409  1
  Rh  Rh242  1  0.40435982  0.59298819  0.20458743  1
  Rh  Rh243  1  0.19535404  0.59132168  0.00559580  1
  Rh  Rh244  1  0.79240021  0.40303915  0.39574115  1
  Rh  Rh245  1  0.80465889  0.60839522  0.59670326  1
  Rh  Rh246  1  -0.00608241  0.79547909  0.79852110  1
  Rh  Rh247  1  0.39441595  0.60683382  -0.00135137  1
  Rh  Rh248  1  0.00154207  0.39494193  0.20751945  1
  Rh  Rh249  1  0.79928181  0.20029078  0.20118633  1
