# generated using pymatgen
data_ZrScNbPdRh
_symmetry_space_group_name_H-M   'P 1'
_cell_length_a   16.56143425
_cell_length_b   16.55634685
_cell_length_c   16.56385234
_cell_angle_alpha   89.98794969
_cell_angle_beta   89.98394713
_cell_angle_gamma   90.01301652
_symmetry_Int_Tables_number   1
_chemical_formula_structural   ZrScNbPdRh
_chemical_formula_sum   'Zr50 Sc50 Nb50 Pd50 Rh50'
_cell_volume   4541.75573620
_cell_formula_units_Z   50
loop_
 _symmetry_equiv_pos_site_id
 _symmetry_equiv_pos_as_xyz
  1  'x, y, z'
loop_
 _atom_site_type_symbol
 _atom_site_label
 _atom_site_symmetry_multiplicity
 _atom_site_fract_x
 _atom_site_fract_y
 _atom_site_fract_z
 _atom_site_occupancy
  Zr  Zr0  1  0.30296007  0.70631457  0.50072125  1
  Zr  Zr1  1  0.91193809  0.30094218  0.69669619  1
  Zr  Zr2  1  0.69632344  0.10853268  0.89509594  1
  Zr  Zr3  1  0.89858659  0.51136048  0.89246347  1
  Zr  Zr4  1  0.30530995  0.29815464  0.29204499  1
  Zr  Zr5  1  0.69515758  0.89215844  0.29894209  1
  Zr  Zr6  1  0.69710370  0.30564573  0.90176128  1
  Zr  Zr7  1  0.11784029  0.90505362  0.10162787  1
  Zr  Zr8  1  0.29523699  0.90411502  0.50026266  1
  Zr  Zr9  1  0.90101066  0.89488344  0.09126359  1
  Zr  Zr10  1  0.29366409  0.10239210  0.30679342  1
  Zr  Zr11  1  0.49434345  0.50108529  0.50788256  1
  Zr  Zr12  1  0.49158012  0.29996889  0.10106473  1
  Zr  Zr13  1  0.09512428  0.49001825  0.69834297  1
  Zr  Zr14  1  0.11012936  0.49796812  0.90598626  1
  Zr  Zr15  1  0.29569427  0.29411650  0.50447607  1
  Zr  Zr16  1  0.30183040  0.89515450  0.30177687  1
  Zr  Zr17  1  0.49255443  0.89464180  0.49862452  1
  Zr  Zr18  1  0.09837330  0.30114099  0.89457555  1
  Zr  Zr19  1  0.09272884  0.29800755  0.29693167  1
  Zr  Zr20  1  0.50054215  0.10326324  0.89808823  1
  Zr  Zr21  1  0.28894633  0.89904039  0.90793242  1
  Zr  Zr22  1  0.10268778  0.10274248  0.28827226  1
  Zr  Zr23  1  0.49479302  0.30148391  0.90260122  1
  Zr  Zr24  1  0.30751444  0.68990635  0.29916916  1
  Zr  Zr25  1  0.70427244  0.49529360  0.70305300  1
  Zr  Zr26  1  0.69900424  0.69734986  0.10216401  1
  Zr  Zr27  1  0.69966425  0.90160087  0.09770363  1
  Zr  Zr28  1  0.50083630  0.10326078  0.09625724  1
  Zr  Zr29  1  0.09778683  0.70038029  0.69509364  1
  Zr  Zr30  1  0.10370426  0.09517752  0.89680801  1
  Zr  Zr31  1  0.50419806  0.30854121  0.30496609  1
  Zr  Zr32  1  0.90889862  0.10538482  0.30429501  1
  Zr  Zr33  1  0.50069247  0.69956032  0.69525729  1
  Zr  Zr34  1  0.50932441  0.90596926  0.70387364  1
  Zr  Zr35  1  0.30046403  0.91285064  0.69729275  1
  Zr  Zr36  1  0.09625373  0.89306999  0.50400864  1
  Zr  Zr37  1  0.50515986  0.89829706  0.10431295  1
  Zr  Zr38  1  0.69349129  0.30387245  0.48705535  1
  Zr  Zr39  1  0.48803855  0.50766453  0.29611164  1
  Zr  Zr40  1  0.09718685  0.30197354  0.50583892  1
  Zr  Zr41  1  0.10722611  0.69646175  0.89383644  1
  Zr  Zr42  1  0.50100443  0.70294381  0.89897117  1
  Zr  Zr43  1  0.90789356  0.70877989  0.90365570  1
  Zr  Zr44  1  0.28822452  0.69842781  0.69661385  1
  Zr  Zr45  1  0.70470068  0.70399830  0.49867804  1
  Zr  Zr46  1  0.70117486  0.49971846  0.49958571  1
  Zr  Zr47  1  0.29302102  0.09789596  0.50889476  1
  Zr  Zr48  1  0.70659208  0.88966404  0.50119373  1
  Zr  Zr49  1  0.89434516  0.10531080  0.70117078  1
  Sc  Sc50  1  0.90304841  0.71423308  0.49590850  1
  Sc  Sc51  1  0.29294905  0.49595011  0.10047070  1
  Sc  Sc52  1  0.91381674  0.89630340  0.30343734  1
  Sc  Sc53  1  0.50002082  0.49893957  0.10115794  1
  Sc  Sc54  1  0.49730771  0.29823291  0.50341095  1
  Sc  Sc55  1  0.09865345  0.90171740  0.70467000  1
  Sc  Sc56  1  0.90095291  0.49096790  0.49029814  1
  Sc  Sc57  1  0.90019996  0.29462672  0.49563181  1
  Sc  Sc58  1  0.10383813  0.10601830  0.48988120  1
  Sc  Sc59  1  0.69778248  0.70139805  0.30577019  1
  Sc  Sc60  1  0.70065110  0.71172993  0.69853160  1
  Sc  Sc61  1  0.71050280  0.69341237  0.90526203  1
  Sc  Sc62  1  0.69125418  0.49355027  0.30657919  1
  Sc  Sc63  1  0.30300612  0.30286175  0.09964553  1
  Sc  Sc64  1  0.69251129  0.10619146  0.50707454  1
  Sc  Sc65  1  0.89822970  0.09922945  0.89662800  1
  Sc  Sc66  1  0.10053822  0.69065579  0.10246603  1
  Sc  Sc67  1  0.50335795  0.10270489  0.50896054  1
  Sc  Sc68  1  0.70536114  0.90851442  0.89887304  1
  Sc  Sc69  1  0.29884332  0.49219855  0.69378380  1
  Sc  Sc70  1  0.29894033  0.10073244  0.88585285  1
  Sc  Sc71  1  0.10293063  0.69641579  0.29615635  1
  Sc  Sc72  1  0.69740451  0.10458819  0.30992827  1
  Sc  Sc73  1  0.90834269  0.30301793  0.09247627  1
  Sc  Sc74  1  0.91594340  0.49706957  0.30291760  1
  Sc  Sc75  1  0.29412089  0.10743869  0.11308942  1
  Sc  Sc76  1  0.10346978  0.10199483  0.70628204  1
  Sc  Sc77  1  0.50123870  0.10125232  0.30278227  1
  Sc  Sc78  1  0.49856325  0.90486977  0.89648128  1
  Sc  Sc79  1  0.49881955  0.69284585  0.11263871  1
  Sc  Sc80  1  0.90715842  0.10452950  0.09602552  1
  Sc  Sc81  1  0.90814227  0.69788884  0.30170143  1
  Sc  Sc82  1  0.29794632  0.70635112  0.09895190  1
  Sc  Sc83  1  0.10293569  0.89664343  0.29425345  1
  Sc  Sc84  1  0.89875302  0.29559508  0.90078713  1
  Sc  Sc85  1  0.69188555  0.50083828  0.09338044  1
  Sc  Sc86  1  0.69159959  0.09891336  0.70208318  1
  Sc  Sc87  1  0.10769996  0.70174517  0.50268900  1
  Sc  Sc88  1  0.90160054  0.49430349  0.70375412  1
  Sc  Sc89  1  0.90298811  0.89073862  0.70913169  1
  Sc  Sc90  1  0.90506663  0.70126255  0.71203339  1
  Sc  Sc91  1  0.29496315  0.29254585  0.69671723  1
  Sc  Sc92  1  0.91319327  0.50062280  0.10145893  1
  Sc  Sc93  1  0.30128790  0.30505980  0.90017049  1
  Sc  Sc94  1  0.90421247  0.69625043  0.09242845  1
  Sc  Sc95  1  0.71165348  0.29542167  0.70155150  1
  Sc  Sc96  1  0.49448010  0.10273854  0.70727849  1
  Sc  Sc97  1  0.69915520  0.30767466  0.08833435  1
  Sc  Sc98  1  0.29915292  0.50935973  0.49890081  1
  Sc  Sc99  1  0.69419301  0.09582065  0.08802597  1
  Nb  Nb100  1  0.48538913  0.30741723  0.69863822  1
  Nb  Nb101  1  0.10212192  0.10318006  0.09812397  1
  Nb  Nb102  1  0.50160746  0.70340459  0.30296126  1
  Nb  Nb103  1  0.30018944  0.50357725  0.90640159  1
  Nb  Nb104  1  0.09982426  0.48844777  0.10695005  1
  Nb  Nb105  1  0.09743204  0.30283018  0.09065949  1
  Nb  Nb106  1  0.89434964  0.30173536  0.30158083  1
  Nb  Nb107  1  0.49732049  0.49495968  0.89639009  1
  Nb  Nb108  1  0.90185500  0.89902511  0.50107321  1
  Nb  Nb109  1  0.29830031  0.49811385  0.30044473  1
  Nb  Nb110  1  0.69291191  0.49566533  0.89921114  1
  Nb  Nb111  1  0.90139458  0.09448215  0.49890285  1
  Nb  Nb112  1  0.09523178  0.49803079  0.49553850  1
  Nb  Nb113  1  0.49902266  0.49777175  0.70289057  1
  Nb  Nb114  1  0.49650894  0.69695296  0.49976440  1
  Nb  Nb115  1  0.91067513  0.89896433  0.90111621  1
  Nb  Nb116  1  0.69948793  0.30013694  0.30232708  1
  Nb  Nb117  1  0.29782446  0.69449262  0.89738571  1
  Nb  Nb118  1  0.29731548  0.10253942  0.69946829  1
  Nb  Nb119  1  0.10223895  0.49811822  0.29587614  1
  Nb  Nb120  1  0.30257937  0.90324043  0.10229613  1
  Nb  Nb121  1  0.70113319  0.90412826  0.69437464  1
  Nb  Nb122  1  0.09946046  0.90602516  0.89984297  1
  Nb  Nb123  1  0.50392563  0.89322252  0.30004490  1
  Nb  Nb124  1  0.09801219  0.30234710  0.69947813  1
  Nb  Nb125  1  0.19252391  0.20172702  0.00109382  1
  Nb  Nb126  1  0.60648130  0.20727858  0.20098872  1
  Nb  Nb127  1  0.39560871  0.19920548  0.40185934  1
  Nb  Nb128  1  0.80230482  -0.00232721  0.40358515  1
  Nb  Nb129  1  0.39223436  0.79538658  0.80130843  1
  Nb  Nb130  1  0.80144970  0.39726638  0.20443203  1
  Nb  Nb131  1  -0.00762334  0.00131450  0.59737528  1
  Nb  Nb132  1  0.80183665  0.79962883  0.19733282  1
  Nb  Nb133  1  -0.00255206  0.59598438  0.59591778  1
  Nb  Nb134  1  0.59743993  0.59020361  0.80144514  1
  Nb  Nb135  1  0.60058519  0.79959197  0.00233357  1
  Nb  Nb136  1  0.80261599  0.00193344  0.20583699  1
  Nb  Nb137  1  0.60125343  -0.00999277  0.40220505  1
  Nb  Nb138  1  0.58962832  0.60494871  0.40552187  1
  Nb  Nb139  1  0.80438659  -0.00465752  0.59722534  1
  Nb  Nb140  1  0.80040361  0.59550205  0.20275246  1
  Nb  Nb141  1  0.39300475  -0.00113724  0.00741139  1
  Nb  Nb142  1  0.39945134  0.59728456  0.80264036  1
  Nb  Nb143  1  0.00747107  -0.00377716  -0.00262454  1
  Nb  Nb144  1  0.39614944  0.59977998  -0.00931789  1
  Nb  Nb145  1  0.79623391  0.20419043  0.20263100  1
  Nb  Nb146  1  0.80665238  0.60181791  0.59826085  1
  Nb  Nb147  1  0.59560388  0.40136784  0.60802623  1
  Nb  Nb148  1  0.19698359  0.40592138  0.39344675  1
  Nb  Nb149  1  0.40195949  -0.00429343  0.20174451  1
  Pd  Pd150  1  0.00713107  0.18998012  0.59730884  1
  Pd  Pd151  1  0.20707236  0.39770035  0.79878185  1
  Pd  Pd152  1  0.19704083  0.59812429  0.40183464  1
  Pd  Pd153  1  0.59424336  0.21205831  0.79196583  1
  Pd  Pd154  1  0.40642745  0.00713858  0.60391153  1
  Pd  Pd155  1  0.20308511  0.59937237  0.19481223  1
  Pd  Pd156  1  0.18903283  -0.00508834  0.39740594  1
  Pd  Pd157  1  0.59890389  0.39361353  0.79394820  1
  Pd  Pd158  1  0.39291747  0.59983428  0.60728118  1
  Pd  Pd159  1  -0.00576086  0.20661688  0.19365766  1
  Pd  Pd160  1  0.80735201  0.41012319  0.00461927  1
  Pd  Pd161  1  0.39938229  0.80009772  0.20138040  1
  Pd  Pd162  1  0.39058250  0.39608275  0.40791250  1
  Pd  Pd163  1  0.20158774  0.58807669  0.79156511  1
  Pd  Pd164  1  0.40731808  0.00629218  0.39740711  1
  Pd  Pd165  1  0.38890153  0.40130180  0.79910493  1
  Pd  Pd166  1  0.01679099  0.80238828  0.00366493  1
  Pd  Pd167  1  0.79767665  0.19770728  0.59469290  1
  Pd  Pd168  1  0.19805992  0.79600221  0.39442588  1
  Pd  Pd169  1  0.80143716  0.39974577  0.59508367  1
  Pd  Pd170  1  0.19456310  0.79217564  0.00306722  1
  Pd  Pd171  1  0.40389047  0.79980436  -0.00291140  1
  Pd  Pd172  1  0.39716230  0.80363652  0.60872677  1
  Pd  Pd173  1  0.38270973  0.19055736  -0.00393813  1
  Pd  Pd174  1  0.80015485  0.19482670  0.40203390  1
  Pd  Pd175  1  0.79811313  0.59764804  0.39647744  1
  Pd  Pd176  1  -0.00059079  0.19662791  0.80204877  1
  Pd  Pd177  1  0.79555702  0.80323265  0.80686938  1
  Pd  Pd178  1  0.80945572  0.00597085  0.00180208  1
  Pd  Pd179  1  -0.00361497  -0.00292005  0.19004262  1
  Pd  Pd180  1  0.79944915  0.19856404  0.00613420  1
  Pd  Pd181  1  -0.00521460  0.40682094  -0.00996239  1
  Pd  Pd182  1  0.80112303  -0.00291257  0.79400588  1
  Pd  Pd183  1  0.80298009  0.59019164  0.00767196  1
  Pd  Pd184  1  0.79300152  0.60552038  0.79259812  1
  Pd  Pd185  1  0.60604746  0.79877486  0.80823544  1
  Pd  Pd186  1  0.59645109  0.80204885  0.59621123  1
  Pd  Pd187  1  0.60268848  0.01137227  0.20892234  1
  Pd  Pd188  1  0.00620878  -0.00221725  0.40269928  1
  Pd  Pd189  1  0.19909728  0.39341311  0.20145546  1
  Pd  Pd190  1  0.60982850  0.59734869  0.60266605  1
  Pd  Pd191  1  0.00928526  0.59549850  -0.00093351  1
  Pd  Pd192  1  0.59205247  0.60177473  -0.00601254  1
  Pd  Pd193  1  -0.00043739  0.79420968  0.19429892  1
  Pd  Pd194  1  0.59544985  0.21369901  0.61119484  1
  Pd  Pd195  1  0.00563164  0.60712416  0.40587806  1
  Pd  Pd196  1  0.20203276  0.40414247  0.59181680  1
  Pd  Pd197  1  0.60548489  0.39836262  0.19516394  1
  Pd  Pd198  1  0.20036148  0.80727578  0.79599086  1
  Pd  Pd199  1  0.80787724  0.39410435  0.80512288  1
  Rh  Rh200  1  0.39767374  0.39944021  0.59794945  1
  Rh  Rh201  1  0.60200911  0.20801044  0.00389457  1
  Rh  Rh202  1  -0.00219778  0.79826636  0.60365957  1
  Rh  Rh203  1  0.00750951  0.19242245  -0.00587125  1
  Rh  Rh204  1  0.59007499  0.79631721  0.40755810  1
  Rh  Rh205  1  0.81012285  0.79835325  0.61004449  1
  Rh  Rh206  1  0.40198686  0.60308209  0.40226367  1
  Rh  Rh207  1  -0.00370001  0.39549212  0.19927926  1
  Rh  Rh208  1  0.40049639  0.79532702  0.39794471  1
  Rh  Rh209  1  0.20865447  0.00014825  0.20462449  1
  Rh  Rh210  1  0.20076974  0.20762418  0.80105677  1
  Rh  Rh211  1  0.79984639  0.20374516  0.80219586  1
  Rh  Rh212  1  0.01014062  0.80076343  0.80556496  1
  Rh  Rh213  1  0.20118557  0.59815539  0.00885177  1
  Rh  Rh214  1  0.20101034  0.39371724  0.00118331  1
  Rh  Rh215  1  0.60287068  0.79087393  0.19513891  1
  Rh  Rh216  1  0.20355991  0.01224147  0.00374921  1
  Rh  Rh217  1  0.00575297  0.39355336  0.39855099  1
  Rh  Rh218  1  -0.00587625  0.40379555  0.59495218  1
  Rh  Rh219  1  0.60657442  -0.00720121  0.59307220  1
  Rh  Rh220  1  0.59015024  0.39912013  -0.00026009  1
  Rh  Rh221  1  0.39507308  -0.00498597  0.80553602  1
  Rh  Rh222  1  -0.00084730  0.59607321  0.20074770  1
  Rh  Rh223  1  0.60778734  0.59926498  0.21533959  1
  Rh  Rh224  1  0.60471194  0.00249206  0.80128452  1
  Rh  Rh225  1  0.58998795  0.19615012  0.39680343  1
  Rh  Rh226  1  0.39801969  0.40855995  0.19536027  1
  Rh  Rh227  1  0.39971629  0.40888604  0.00342787  1
  Rh  Rh228  1  0.18900751  0.59148738  0.59777039  1
  Rh  Rh229  1  0.59082908  -0.00480378  -0.01180686  1
  Rh  Rh230  1  0.79414228  0.80057434  -0.00098945  1
  Rh  Rh231  1  0.20239812  -0.00186714  0.79566518  1
  Rh  Rh232  1  0.20401468  0.79453859  0.20138779  1
  Rh  Rh233  1  0.59115187  0.41101299  0.40906724  1
  Rh  Rh234  1  0.80332110  0.40170127  0.39331351  1
  Rh  Rh235  1  0.81145595  0.80521990  0.38483504  1
  Rh  Rh236  1  0.41176064  0.19478391  0.20987979  1
  Rh  Rh237  1  0.20234372  0.80927052  0.60243807  1
  Rh  Rh238  1  0.00055831  0.20348112  0.40200261  1
  Rh  Rh239  1  0.19159466  0.21122288  0.18998588  1
  Rh  Rh240  1  0.39871151  0.19541067  0.59932661  1
  Rh  Rh241  1  0.20220997  0.21190210  0.39644907  1
  Rh  Rh242  1  0.00906424  0.79680906  0.39926556  1
  Rh  Rh243  1  0.39012416  0.59541552  0.18944351  1
  Rh  Rh244  1  0.18633427  0.00457320  0.60156763  1
  Rh  Rh245  1  -0.00327092  0.39990062  0.80633419  1
  Rh  Rh246  1  -0.00408134  -0.00022700  0.79926184  1
  Rh  Rh247  1  0.00762668  0.59663353  0.79628656  1
  Rh  Rh248  1  0.39631302  0.20514699  0.79595318  1
  Rh  Rh249  1  0.19134645  0.19581907  0.60855267  1
