# generated using pymatgen
data_ZrScNbPdRh
_symmetry_space_group_name_H-M   'P 1'
_cell_length_a   16.55944651
_cell_length_b   16.55436245
_cell_length_c   16.55671083
_cell_angle_alpha   90.00234484
_cell_angle_beta   90.00511865
_cell_angle_gamma   90.01478925
_symmetry_Int_Tables_number   1
_chemical_formula_structural   ZrScNbPdRh
_chemical_formula_sum   'Zr50 Sc50 Nb50 Pd50 Rh50'
_cell_volume   4538.70883910
_cell_formula_units_Z   50
loop_
 _symmetry_equiv_pos_site_id
 _symmetry_equiv_pos_as_xyz
  1  'x, y, z'
loop_
 _atom_site_type_symbol
 _atom_site_label
 _atom_site_symmetry_multiplicity
 _atom_site_fract_x
 _atom_site_fract_y
 _atom_site_fract_z
 _atom_site_occupancy
  Zr  Zr0  1  0.50463503  0.49872939  0.09996327  1
  Zr  Zr1  1  0.71396212  0.49581211  0.70876756  1
  Zr  Zr2  1  0.69032996  0.30101253  0.89686799  1
  Zr  Zr3  1  0.89751358  0.50331742  0.28936161  1
  Zr  Zr4  1  0.69405721  0.48919360  0.10202303  1
  Zr  Zr5  1  0.29584297  0.49791621  0.70383610  1
  Zr  Zr6  1  0.49938302  0.89973319  0.69769064  1
  Zr  Zr7  1  0.51198880  0.30287820  0.09289973  1
  Zr  Zr8  1  0.70217323  0.70017284  0.89202778  1
  Zr  Zr9  1  0.29748925  0.90454604  0.70032410  1
  Zr  Zr10  1  0.49843172  0.70227411  0.30392618  1
  Zr  Zr11  1  0.10287751  0.48816889  0.29850257  1
  Zr  Zr12  1  0.30344952  0.69642258  0.69310509  1
  Zr  Zr13  1  0.30347129  0.89086023  0.29535205  1
  Zr  Zr14  1  0.70126517  0.70216577  0.31188555  1
  Zr  Zr15  1  0.91087490  0.29435467  0.90234747  1
  Zr  Zr16  1  0.49626591  0.70192162  0.49740843  1
  Zr  Zr17  1  0.49023832  0.29595609  0.29816359  1
  Zr  Zr18  1  0.29596200  0.30134673  0.70483655  1
  Zr  Zr19  1  0.50407257  0.70800556  0.70932041  1
  Zr  Zr20  1  0.09869434  0.51206203  0.90498924  1
  Zr  Zr21  1  0.70024219  0.91303356  0.29613460  1
  Zr  Zr22  1  0.70021079  0.69440142  0.50411095  1
  Zr  Zr23  1  0.10097633  0.89492281  0.90044945  1
  Zr  Zr24  1  0.49971263  0.90049753  0.30842687  1
  Zr  Zr25  1  0.90665806  0.50583011  0.69594660  1
  Zr  Zr26  1  0.50224436  0.28912342  0.49953431  1
  Zr  Zr27  1  0.49977888  0.10827067  0.10430175  1
  Zr  Zr28  1  0.89803020  0.31115999  0.70359635  1
  Zr  Zr29  1  0.90030313  0.91316132  0.49790646  1
  Zr  Zr30  1  0.08945444  0.09491948  0.29538843  1
  Zr  Zr31  1  0.10606822  0.89602586  0.29551641  1
  Zr  Zr32  1  0.49698641  0.70116524  0.09375778  1
  Zr  Zr33  1  0.49806661  0.89907659  0.09504798  1
  Zr  Zr34  1  0.50400149  0.29712440  0.70539418  1
  Zr  Zr35  1  0.29552923  0.30184941  0.30023938  1
  Zr  Zr36  1  0.30046459  0.70350698  0.30151970  1
  Zr  Zr37  1  0.51210542  0.09944142  0.30543298  1
  Zr  Zr38  1  0.89964432  0.89483455  0.08577939  1
  Zr  Zr39  1  0.89697099  0.89957744  0.90156986  1
  Zr  Zr40  1  0.70175353  0.11079845  0.49478709  1
  Zr  Zr41  1  0.09713425  0.30128809  0.49571526  1
  Zr  Zr42  1  0.89396740  0.69613777  0.50029138  1
  Zr  Zr43  1  0.10322965  0.90382201  0.50016473  1
  Zr  Zr44  1  0.89273472  0.10237735  0.30487302  1
  Zr  Zr45  1  0.30036429  0.70854490  0.10076683  1
  Zr  Zr46  1  0.49711203  0.90034824  0.89692959  1
  Zr  Zr47  1  0.10301913  0.09311432  0.09478491  1
  Zr  Zr48  1  0.49990086  0.50348372  0.48988917  1
  Zr  Zr49  1  0.10681056  0.29788997  0.71033673  1
  Sc  Sc50  1  0.10074607  0.28763703  0.09606971  1
  Sc  Sc51  1  0.69515407  0.09948276  0.69899368  1
  Sc  Sc52  1  0.09247305  0.09097849  0.50347685  1
  Sc  Sc53  1  0.70558927  0.30494290  0.49868378  1
  Sc  Sc54  1  0.89933366  0.50543073  0.89037210  1
  Sc  Sc55  1  0.90322553  0.70555345  0.90479991  1
  Sc  Sc56  1  0.69307220  0.09107800  0.89603843  1
  Sc  Sc57  1  0.10201501  0.89838105  0.09558379  1
  Sc  Sc58  1  0.69409205  0.89434428  0.70511480  1
  Sc  Sc59  1  0.10747464  0.69692882  0.29564774  1
  Sc  Sc60  1  0.30225850  0.09968697  0.09032565  1
  Sc  Sc61  1  0.30544931  0.49767601  0.09047919  1
  Sc  Sc62  1  0.89609698  0.51526432  0.09915677  1
  Sc  Sc63  1  0.30637968  0.49913947  0.89543829  1
  Sc  Sc64  1  0.11065602  0.90323078  0.70096357  1
  Sc  Sc65  1  0.11118436  0.69301639  0.50068543  1
  Sc  Sc66  1  0.28601261  0.09959751  0.70344910  1
  Sc  Sc67  1  0.89407129  0.29748181  0.49186430  1
  Sc  Sc68  1  0.09805358  0.69254977  0.08318072  1
  Sc  Sc69  1  0.49610032  0.69999151  0.90142460  1
  Sc  Sc70  1  0.31553154  0.10394911  0.30046314  1
  Sc  Sc71  1  0.29328356  0.29820872  0.89773254  1
  Sc  Sc72  1  0.89119908  0.89981936  0.70168491  1
  Sc  Sc73  1  0.90603452  0.09499729  0.10005321  1
  Sc  Sc74  1  0.89279573  0.09689711  0.69508704  1
  Sc  Sc75  1  0.70417603  0.90944782  0.09658799  1
  Sc  Sc76  1  0.09700395  0.50016975  0.69662956  1
  Sc  Sc77  1  0.89604091  0.91174079  0.30077741  1
  Sc  Sc78  1  0.70099216  0.68913903  0.08644397  1
  Sc  Sc79  1  0.49594778  0.49444697  0.90563263  1
  Sc  Sc80  1  0.10089092  0.50079206  0.50443182  1
  Sc  Sc81  1  0.31081531  0.29327853  0.10013038  1
  Sc  Sc82  1  0.70301738  0.89532744  0.50082583  1
  Sc  Sc83  1  0.51080137  0.09927375  0.69233335  1
  Sc  Sc84  1  0.48928344  0.50516670  0.71847988  1
  Sc  Sc85  1  0.30370177  0.49413768  0.30742466  1
  Sc  Sc86  1  0.29989891  0.70301514  0.91136188  1
  Sc  Sc87  1  0.69584258  0.29631867  0.70197074  1
  Sc  Sc88  1  0.49733735  0.09190041  0.90655006  1
  Sc  Sc89  1  0.10314963  0.11398180  0.90509326  1
  Sc  Sc90  1  0.70297755  0.89916780  0.90025956  1
  Sc  Sc91  1  0.71356146  0.29789131  0.28789400  1
  Sc  Sc92  1  0.89282415  0.49703172  0.50906620  1
  Sc  Sc93  1  0.89852492  0.69881129  0.70153279  1
  Sc  Sc94  1  0.69570930  0.49575906  0.30319207  1
  Sc  Sc95  1  0.29326074  0.89851000  0.09532670  1
  Sc  Sc96  1  0.50418224  0.49619088  0.30052965  1
  Sc  Sc97  1  0.30158423  0.29413320  0.50399924  1
  Sc  Sc98  1  0.30933821  0.09866451  0.50411726  1
  Sc  Sc99  1  0.09570819  0.70166968  0.69932600  1
  Nb  Nb100  1  0.30264159  0.51750198  0.50902366  1
  Nb  Nb101  1  0.70217932  0.09747212  0.28947823  1
  Nb  Nb102  1  0.30095113  0.09793141  0.90180504  1
  Nb  Nb103  1  0.10140896  0.30141198  0.90285496  1
  Nb  Nb104  1  0.69593418  0.10862098  0.12010397  1
  Nb  Nb105  1  0.48552829  0.91478123  0.50106522  1
  Nb  Nb106  1  0.09641515  0.50270885  0.09894695  1
  Nb  Nb107  1  0.69375964  0.70075819  0.69951330  1
  Nb  Nb108  1  0.29834866  0.91501225  0.89815190  1
  Nb  Nb109  1  0.09745183  0.29847784  0.30284149  1
  Nb  Nb110  1  0.50033264  0.29267010  0.89662159  1
  Nb  Nb111  1  0.50102654  0.09958725  0.49406980  1
  Nb  Nb112  1  0.89282534  0.30208942  0.10320843  1
  Nb  Nb113  1  0.89927506  0.69576204  0.29634851  1
  Nb  Nb114  1  0.10007520  0.09904809  0.70186677  1
  Nb  Nb115  1  0.70798883  0.49989807  0.90479607  1
  Nb  Nb116  1  0.90685244  0.30084259  0.29440138  1
  Nb  Nb117  1  0.30378904  0.90126678  0.50058604  1
  Nb  Nb118  1  0.10063157  0.70021471  0.89806879  1
  Nb  Nb119  1  0.90188735  0.09832778  0.90359622  1
  Nb  Nb120  1  0.70308745  0.29747563  0.09839664  1
  Nb  Nb121  1  0.69608717  0.50008111  0.50751383  1
  Nb  Nb122  1  0.89947218  0.69842206  0.10442014  1
  Nb  Nb123  1  0.30342284  0.68960485  0.49840858  1
  Nb  Nb124  1  0.89742049  0.10065116  0.50034483  1
  Nb  Nb125  1  0.79685303  0.20087166  0.00333595  1
  Nb  Nb126  1  0.19051342  0.39940018  -0.00004097  1
  Nb  Nb127  1  0.19719628  0.19951726  0.20799548  1
  Nb  Nb128  1  -0.00142122  0.19862082  0.60334706  1
  Nb  Nb129  1  0.19870449  0.60552214  0.80271117  1
  Nb  Nb130  1  0.60220293  0.59734698  0.60769138  1
  Nb  Nb131  1  0.40652581  -0.00322659  0.19972347  1
  Nb  Nb132  1  0.19398499  0.19535261  0.39481988  1
  Nb  Nb133  1  0.80399906  0.19867340  0.80919467  1
  Nb  Nb134  1  -0.00113925  0.80385336  0.59078888  1
  Nb  Nb135  1  -0.00400850  0.60287488  0.39489734  1
  Nb  Nb136  1  -0.00042903  0.00599992  0.80399607  1
  Nb  Nb137  1  0.20356889  0.59290958  0.19287961  1
  Nb  Nb138  1  0.59509977  0.40886038  0.60096157  1
  Nb  Nb139  1  -0.00099135  0.40013847  0.00577562  1
  Nb  Nb140  1  0.80063839  0.79534824  0.19903265  1
  Nb  Nb141  1  0.39774940  0.60291620  0.19935704  1
  Nb  Nb142  1  -0.00744736  0.79134820  0.20043686  1
  Nb  Nb143  1  0.80130938  0.39573603  0.00007173  1
  Nb  Nb144  1  0.60559168  0.80030989  0.19962908  1
  Nb  Nb145  1  0.40359061  0.40394618  0.60032202  1
  Nb  Nb146  1  -0.00003726  0.39491531  0.19554308  1
  Nb  Nb147  1  0.20563852  0.00081825  0.39774033  1
  Nb  Nb148  1  -0.00252005  0.79533907  0.39705823  1
  Nb  Nb149  1  0.40058171  0.19700502  0.80419820  1
  Pd  Pd150  1  0.80409940  0.79904704  0.60496586  1
  Pd  Pd151  1  0.80772351  0.80776563  0.39306301  1
  Pd  Pd152  1  0.80567034  0.60811391  0.79965923  1
  Pd  Pd153  1  0.21605063  0.01089909  0.20504597  1
  Pd  Pd154  1  -0.00022417  0.19447255  0.40793603  1
  Pd  Pd155  1  0.60591161  -0.00237279  0.59217103  1
  Pd  Pd156  1  -0.00482777  0.19132142  0.79136849  1
  Pd  Pd157  1  0.59905579  0.80833619  0.40656184  1
  Pd  Pd158  1  0.59748717  0.59568090  -0.01050677  1
  Pd  Pd159  1  0.60763736  0.80138064  0.00063029  1
  Pd  Pd160  1  0.39803625  0.80138604  0.59555631  1
  Pd  Pd161  1  -0.00082021  0.39177600  0.59620345  1
  Pd  Pd162  1  0.20822565  0.79309369  0.80304856  1
  Pd  Pd163  1  0.41394764  0.59612286  0.60671013  1
  Pd  Pd164  1  0.78286158  0.60371779  0.19920591  1
  Pd  Pd165  1  -0.00092644  -0.00148666  0.61345966  1
  Pd  Pd166  1  0.40141110  0.19684696  0.61080069  1
  Pd  Pd167  1  0.40136912  0.40665940  0.19677112  1
  Pd  Pd168  1  0.19026739  0.19273937  0.59065117  1
  Pd  Pd169  1  0.19603920  0.39463503  0.18635894  1
  Pd  Pd170  1  0.59891408  0.60669444  0.20431287  1
  Pd  Pd171  1  0.00687962  0.40768055  0.80622532  1
  Pd  Pd172  1  0.80234562  0.40308797  0.39680858  1
  Pd  Pd173  1  0.79206434  0.01429657  0.00500384  1
  Pd  Pd174  1  -0.00031732  0.20218269  0.19317263  1
  Pd  Pd175  1  0.60754040  -0.00202690  0.41152780  1
  Pd  Pd176  1  0.60047085  0.59281355  0.80428599  1
  Pd  Pd177  1  -0.00111449  0.80695909  0.79016178  1
  Pd  Pd178  1  0.60461029  0.00638121  0.00666251  1
  Pd  Pd179  1  0.61259195  0.21006238  0.39061102  1
  Pd  Pd180  1  0.20198798  0.80205502  0.40886765  1
  Pd  Pd181  1  0.19871047  0.79650528  0.59598481  1
  Pd  Pd182  1  0.39284813  0.39837036  0.41181412  1
  Pd  Pd183  1  0.38914470  0.80008592  0.80599000  1
  Pd  Pd184  1  0.80093578  0.00462411  0.79844274  1
  Pd  Pd185  1  0.20836500  0.39925918  0.41301047  1
  Pd  Pd186  1  0.19667364  0.59319794  0.39231307  1
  Pd  Pd187  1  0.39648919  0.01031498  0.61034157  1
  Pd  Pd188  1  0.20594901  0.40239275  0.59307426  1
  Pd  Pd189  1  -0.00604883  -0.01304450  0.19454045  1
  Pd  Pd190  1  -0.01023344  0.40982788  0.39832840  1
  Pd  Pd191  1  0.78790430  0.00059874  0.60020005  1
  Pd  Pd192  1  0.80316921  0.20635397  0.60816383  1
  Pd  Pd193  1  0.80168722  0.58721054  0.40134658  1
  Pd  Pd194  1  0.60476561  0.39084394  0.39938623  1
  Pd  Pd195  1  0.59810648  0.40961922  0.79957546  1
  Pd  Pd196  1  0.40417143  0.01213276  0.79025639  1
  Pd  Pd197  1  0.60641611  0.18972593  -0.00337173  1
  Pd  Pd198  1  0.59466987  0.80117536  0.59194828  1
  Pd  Pd199  1  0.39435031  0.39132131  -0.00614274  1
  Rh  Rh200  1  0.20582980  0.00358128  0.59298349  1
  Rh  Rh201  1  0.39948595  0.20224504  -0.01081856  1
  Rh  Rh202  1  0.60380090  0.59838001  0.40358103  1
  Rh  Rh203  1  0.40122329  0.59862375  0.00433914  1
  Rh  Rh204  1  0.59741786  0.21035209  0.20750239  1
  Rh  Rh205  1  -0.01088271  0.60065505  -0.00534012  1
  Rh  Rh206  1  0.59251309  -0.00613116  0.19427781  1
  Rh  Rh207  1  0.01301640  0.59911026  0.20569965  1
  Rh  Rh208  1  0.39450794  0.80040541  0.41117262  1
  Rh  Rh209  1  0.80373641  0.59656491  -0.00543171  1
  Rh  Rh210  1  -0.00461665  0.20003269  0.00801681  1
  Rh  Rh211  1  0.39702506  0.60023082  0.38970993  1
  Rh  Rh212  1  0.79815917  0.79704635  0.79940417  1
  Rh  Rh213  1  0.00865166  0.00138967  -0.01075984  1
  Rh  Rh214  1  0.19559755  0.60199365  0.60959515  1
  Rh  Rh215  1  0.39632269  -0.00424638  0.00670654  1
  Rh  Rh216  1  0.40150756  0.38652130  0.80121827  1
  Rh  Rh217  1  0.20764255  0.20558797  0.00496934  1
  Rh  Rh218  1  0.59469855  -0.00547287  0.79785228  1
  Rh  Rh219  1  0.80933373  0.19497768  0.19736054  1
  Rh  Rh220  1  0.60423268  0.20453904  0.59407269  1
  Rh  Rh221  1  0.00250050  0.79443064  0.00400343  1
  Rh  Rh222  1  0.79570527  0.79283929  0.00263739  1
  Rh  Rh223  1  0.39015110  0.61128596  0.80628592  1
  Rh  Rh224  1  0.41296801  0.80170909  0.19818817  1
  Rh  Rh225  1  0.60375411  0.40239833  -0.00752201  1
  Rh  Rh226  1  0.39261384  0.81162216  -0.00919408  1
  Rh  Rh227  1  0.00419558  -0.00290453  0.39695488  1
  Rh  Rh228  1  0.20794068  0.59251462  -0.00229717  1
  Rh  Rh229  1  0.79239366  0.00751185  0.40594030  1
  Rh  Rh230  1  0.79960739  0.20170939  0.39284503  1
  Rh  Rh231  1  0.39934076  0.19508273  0.19916545  1
  Rh  Rh232  1  0.80001380  0.39108954  0.80991005  1
  Rh  Rh233  1  0.59858250  0.39073729  0.20726760  1
  Rh  Rh234  1  0.00154410  0.60824640  0.59123229  1
  Rh  Rh235  1  0.18841104  0.00764106  0.80873972  1
  Rh  Rh236  1  0.79370272  0.60062967  0.60856456  1
  Rh  Rh237  1  0.39463481  0.00002660  0.39518896  1
  Rh  Rh238  1  0.20458159  0.19421456  0.80715190  1
  Rh  Rh239  1  0.39622034  0.19766346  0.40385101  1
  Rh  Rh240  1  0.00492571  0.60667145  0.80015830  1
  Rh  Rh241  1  0.18346515  0.78674068  0.18501939  1
  Rh  Rh242  1  0.79525833  0.39588504  0.60174063  1
  Rh  Rh243  1  0.19213607  0.41217558  0.81048817  1
  Rh  Rh244  1  0.19731727  0.00114386  -0.00733027  1
  Rh  Rh245  1  0.60161689  0.80400997  0.80812087  1
  Rh  Rh246  1  0.20026258  0.80504438  -0.00463097  1
  Rh  Rh247  1  0.80727780  -0.00099675  0.19168679  1
  Rh  Rh248  1  0.80423938  0.40448726  0.19479785  1
  Rh  Rh249  1  0.59653953  0.18934421  0.80564516  1
