# generated using pymatgen
data_ZrScNbPdRh
_symmetry_space_group_name_H-M   'P 1'
_cell_length_a   16.56406089
_cell_length_b   16.56351731
_cell_length_c   16.56374622
_cell_angle_alpha   89.99502756
_cell_angle_beta   90.00472353
_cell_angle_gamma   90.00192757
_symmetry_Int_Tables_number   1
_chemical_formula_structural   ZrScNbPdRh
_chemical_formula_sum   'Zr50 Sc50 Nb50 Pd50 Rh50'
_cell_volume   4544.41462314
_cell_formula_units_Z   50
loop_
 _symmetry_equiv_pos_site_id
 _symmetry_equiv_pos_as_xyz
  1  'x, y, z'
loop_
 _atom_site_type_symbol
 _atom_site_label
 _atom_site_symmetry_multiplicity
 _atom_site_fract_x
 _atom_site_fract_y
 _atom_site_fract_z
 _atom_site_occupancy
  Zr  Zr0  1  0.89983287  0.89969930  0.89578526  1
  Zr  Zr1  1  0.09127021  0.49707496  0.10521538  1
  Zr  Zr2  1  0.30593335  0.90256786  0.90482083  1
  Zr  Zr3  1  0.69927474  0.10706279  0.30910113  1
  Zr  Zr4  1  0.70023796  0.30406733  0.90053740  1
  Zr  Zr5  1  0.90062445  0.50169206  0.50281716  1
  Zr  Zr6  1  0.09864565  0.70188991  0.90751423  1
  Zr  Zr7  1  0.30100240  0.09869520  0.70050878  1
  Zr  Zr8  1  0.89926539  0.69460856  0.49568935  1
  Zr  Zr9  1  0.30447794  0.89475884  0.10469329  1
  Zr  Zr10  1  0.10381918  0.89397279  0.29594351  1
  Zr  Zr11  1  0.90186098  0.70393089  0.30349990  1
  Zr  Zr12  1  0.69773788  0.51075640  0.49118902  1
  Zr  Zr13  1  0.90210148  0.09989114  0.49842646  1
  Zr  Zr14  1  0.30122927  0.69884473  0.28697677  1
  Zr  Zr15  1  0.09831236  0.30366104  0.49781445  1
  Zr  Zr16  1  0.10025226  0.09787438  0.70759850  1
  Zr  Zr17  1  0.90522513  0.90721538  0.29805775  1
  Zr  Zr18  1  0.69848465  0.68881211  0.10292250  1
  Zr  Zr19  1  0.90501668  0.09906521  0.89772644  1
  Zr  Zr20  1  0.08744620  0.50464472  0.90204856  1
  Zr  Zr21  1  0.69653875  0.29038319  0.48993020  1
  Zr  Zr22  1  0.49872526  0.50006882  0.89410484  1
  Zr  Zr23  1  0.89677928  0.29581649  0.29015240  1
  Zr  Zr24  1  0.90021756  0.69167254  0.10295121  1
  Zr  Zr25  1  0.09177220  0.50044649  0.70094253  1
  Zr  Zr26  1  0.50648204  0.30035501  0.89933858  1
  Zr  Zr27  1  0.90416131  0.69456844  0.90431246  1
  Zr  Zr28  1  0.49339226  0.70695220  0.10576700  1
  Zr  Zr29  1  0.09638736  0.09729287  0.29665331  1
  Zr  Zr30  1  0.70368891  0.49755982  0.10443571  1
  Zr  Zr31  1  0.09464532  0.71066575  0.69317103  1
  Zr  Zr32  1  0.89981270  0.90203085  0.70087354  1
  Zr  Zr33  1  0.29235205  0.10442179  0.30205565  1
  Zr  Zr34  1  0.68838241  0.69943336  0.90103783  1
  Zr  Zr35  1  0.29889270  0.50372670  0.89755879  1
  Zr  Zr36  1  0.10408798  0.10879286  0.09569231  1
  Zr  Zr37  1  0.30098578  0.49699510  0.49749792  1
  Zr  Zr38  1  0.30106137  0.30893776  0.30077402  1
  Zr  Zr39  1  0.70595764  0.90283732  0.70719857  1
  Zr  Zr40  1  0.10114460  0.90314119  0.89583993  1
  Zr  Zr41  1  0.30171019  0.09363237  0.10137483  1
  Zr  Zr42  1  0.70161267  0.68848710  0.30701975  1
  Zr  Zr43  1  0.30141495  0.30007067  0.89884795  1
  Zr  Zr44  1  0.29833442  0.70652531  0.90385019  1
  Zr  Zr45  1  0.89334409  0.70397440  0.69448140  1
  Zr  Zr46  1  0.09953432  0.50211654  0.49068125  1
  Zr  Zr47  1  0.89828969  0.09959813  0.29309756  1
  Zr  Zr48  1  0.51010875  0.09562210  0.49266310  1
  Zr  Zr49  1  0.10430189  0.90134376  0.09620066  1
  Sc  Sc50  1  0.69947259  0.29467436  0.69823878  1
  Sc  Sc51  1  0.50696157  0.10354950  0.70320124  1
  Sc  Sc52  1  0.50525842  0.70018405  0.69417146  1
  Sc  Sc53  1  0.30105138  0.89590782  0.70606313  1
  Sc  Sc54  1  0.90071002  0.49622844  0.09835887  1
  Sc  Sc55  1  0.89798335  0.50146926  0.71143388  1
  Sc  Sc56  1  0.90270436  0.29879766  0.70275716  1
  Sc  Sc57  1  0.30029646  0.29307982  0.50016239  1
  Sc  Sc58  1  0.09246671  0.28688173  0.90441444  1
  Sc  Sc59  1  0.69855878  0.30028453  0.29651865  1
  Sc  Sc60  1  0.10054086  0.29934483  0.29715244  1
  Sc  Sc61  1  0.50541788  0.89276799  0.69507116  1
  Sc  Sc62  1  0.90234489  0.30048711  0.10116504  1
  Sc  Sc63  1  0.49298225  0.50531354  0.69241352  1
  Sc  Sc64  1  0.70657559  0.51255909  0.70349412  1
  Sc  Sc65  1  0.49370139  0.30131220  0.69740176  1
  Sc  Sc66  1  0.50029573  0.30857760  0.30107622  1
  Sc  Sc67  1  0.09411069  0.29044600  0.69816214  1
  Sc  Sc68  1  0.10481942  0.10978159  0.49198144  1
  Sc  Sc69  1  0.29458785  0.29500595  0.10893833  1
  Sc  Sc70  1  0.10239340  0.70542072  0.09956119  1
  Sc  Sc71  1  0.30620803  0.29849156  0.69465724  1
  Sc  Sc72  1  0.68872145  0.10248095  0.89473862  1
  Sc  Sc73  1  0.89140106  0.90035826  0.49781749  1
  Sc  Sc74  1  0.48852459  0.09931105  0.30130856  1
  Sc  Sc75  1  0.90914943  0.90157712  0.10361118  1
  Sc  Sc76  1  0.49819823  0.30154464  0.49708115  1
  Sc  Sc77  1  0.69110655  0.90884758  0.50727918  1
  Sc  Sc78  1  0.10282509  0.09843942  0.90193563  1
  Sc  Sc79  1  0.69198821  0.49774178  0.29640700  1
  Sc  Sc80  1  0.90506911  0.49777039  0.28636804  1
  Sc  Sc81  1  0.30225032  0.71068006  0.49763813  1
  Sc  Sc82  1  0.70308038  0.90815970  0.30863549  1
  Sc  Sc83  1  0.31156744  0.49667356  0.70001182  1
  Sc  Sc84  1  0.50906223  0.49619807  0.11137392  1
  Sc  Sc85  1  0.70638352  0.10624932  0.09892001  1
  Sc  Sc86  1  0.70669686  0.50300348  0.90326375  1
  Sc  Sc87  1  0.70281749  0.69487961  0.50617598  1
  Sc  Sc88  1  0.29535963  0.09467572  0.89762287  1
  Sc  Sc89  1  0.29301279  0.50328086  0.11691063  1
  Sc  Sc90  1  0.30808743  0.70527851  0.69873600  1
  Sc  Sc91  1  0.90697420  0.29324470  0.50120921  1
  Sc  Sc92  1  0.50649701  0.30813712  0.10177803  1
  Sc  Sc93  1  0.70194106  0.10025241  0.50705909  1
  Sc  Sc94  1  0.90126448  0.09687547  0.69661999  1
  Sc  Sc95  1  0.90028777  0.30561219  0.90353886  1
  Sc  Sc96  1  0.11443327  0.88419108  0.49063388  1
  Sc  Sc97  1  0.49737209  0.09766532  0.89528997  1
  Sc  Sc98  1  0.69873542  0.89868118  0.10352297  1
  Sc  Sc99  1  0.70206458  0.30456916  0.09675730  1
  Nb  Nb100  1  0.30021399  0.70288784  0.09827540  1
  Nb  Nb101  1  0.50164407  0.69810839  0.29875878  1
  Nb  Nb102  1  0.10360558  0.69880015  0.31662887  1
  Nb  Nb103  1  0.69625035  0.70635550  0.69534684  1
  Nb  Nb104  1  0.90079444  0.10254005  0.10416129  1
  Nb  Nb105  1  0.49286673  0.90582461  0.10297660  1
  Nb  Nb106  1  0.49573993  0.89864191  0.30095228  1
  Nb  Nb107  1  0.50561642  0.50499591  0.49895316  1
  Nb  Nb108  1  0.69998159  0.90069209  0.90340189  1
  Nb  Nb109  1  0.49185072  0.09342143  0.10249911  1
  Nb  Nb110  1  0.10162954  0.69314568  0.49327426  1
  Nb  Nb111  1  0.10021926  0.90307915  0.69559820  1
  Nb  Nb112  1  0.50102755  0.89074377  0.91259690  1
  Nb  Nb113  1  0.50346418  0.70154872  0.50229754  1
  Nb  Nb114  1  0.49840086  0.70163326  0.90792330  1
  Nb  Nb115  1  0.30435563  0.90405361  0.49505722  1
  Nb  Nb116  1  0.49454961  0.89422533  0.49640845  1
  Nb  Nb117  1  0.09670364  0.29870183  0.09330985  1
  Nb  Nb118  1  0.29819888  0.09507512  0.49784187  1
  Nb  Nb119  1  0.70284344  0.09652211  0.70317307  1
  Nb  Nb120  1  0.29592449  0.50060512  0.30516798  1
  Nb  Nb121  1  0.29693725  0.90073240  0.30724729  1
  Nb  Nb122  1  0.90161894  0.50246065  0.89812218  1
  Nb  Nb123  1  0.11988516  0.50078108  0.30543395  1
  Nb  Nb124  1  0.50024490  0.49882997  0.30583583  1
  Nb  Nb125  1  0.19623282  0.40298367  0.80052732  1
  Nb  Nb126  1  0.60445355  0.40671636  0.59651079  1
  Nb  Nb127  1  0.79683250  0.19613636  0.80017254  1
  Nb  Nb128  1  0.19657111  0.60079728  0.59947430  1
  Nb  Nb129  1  0.59726710  0.80374586  0.20798602  1
  Nb  Nb130  1  0.79458782  0.40083703  0.59449211  1
  Nb  Nb131  1  0.40688615  0.59900870  0.39610084  1
  Nb  Nb132  1  0.80173182  0.39935784  0.40294687  1
  Nb  Nb133  1  0.59086975  0.79879550  0.40071801  1
  Nb  Nb134  1  0.79591242  -0.00348789  -0.00388877  1
  Nb  Nb135  1  0.39417649  0.40315731  0.00272360  1
  Nb  Nb136  1  0.59289027  0.00012303  0.19835286  1
  Nb  Nb137  1  0.20410506  -0.00201266  0.59493987  1
  Nb  Nb138  1  0.39925262  0.60181078  0.00467549  1
  Nb  Nb139  1  0.59578019  -0.00522890  0.00430699  1
  Nb  Nb140  1  0.79714352  0.79785420  0.20174672  1
  Nb  Nb141  1  0.59530643  0.19168821  0.19769042  1
  Nb  Nb142  1  0.19796644  0.39961431  -0.00217862  1
  Nb  Nb143  1  0.40188327  0.20107835  0.00436913  1
  Nb  Nb144  1  0.01203484  -0.00589157  0.59798923  1
  Nb  Nb145  1  0.79693552  0.80090883  0.00213272  1
  Nb  Nb146  1  0.19601569  0.40557300  0.60273849  1
  Nb  Nb147  1  0.60248951  0.40308854  0.79322182  1
  Nb  Nb148  1  0.39753635  -0.00241897  0.59080218  1
  Nb  Nb149  1  0.19626739  0.60057504  0.79428200  1
  Pd  Pd150  1  0.39406149  0.60627656  0.59145180  1
  Pd  Pd151  1  0.40037492  0.19940079  0.80440219  1
  Pd  Pd152  1  0.59617628  0.20480838  0.60368285  1
  Pd  Pd153  1  0.40094325  0.20244057  0.40137472  1
  Pd  Pd154  1  0.59610262  0.59821597  0.79366468  1
  Pd  Pd155  1  0.80331276  0.20315870  0.60539854  1
  Pd  Pd156  1  0.41123042  0.79856503  0.79991835  1
  Pd  Pd157  1  0.40528926  0.59050930  0.19980520  1
  Pd  Pd158  1  -0.00334887  0.59101148  0.38888477  1
  Pd  Pd159  1  0.01176876  0.60449008  0.20834106  1
  Pd  Pd160  1  0.59146255  0.19080892  0.00941187  1
  Pd  Pd161  1  0.40706178  0.20912031  0.19665928  1
  Pd  Pd162  1  0.60338758  0.80335586  0.01193587  1
  Pd  Pd163  1  0.80617100  0.40415236  0.00023741  1
  Pd  Pd164  1  -0.00146783  0.80732476  0.58497069  1
  Pd  Pd165  1  -0.00529114  0.40133982  0.38859392  1
  Pd  Pd166  1  0.19388020  0.39384017  0.19593091  1
  Pd  Pd167  1  0.79302623  -0.00279952  0.19348520  1
  Pd  Pd168  1  0.20064227  0.20682317  0.79973742  1
  Pd  Pd169  1  0.40718764  0.18941409  0.59369746  1
  Pd  Pd170  1  0.78930813  0.80375235  0.40087321  1
  Pd  Pd171  1  0.79513634  0.79128064  0.80786469  1
  Pd  Pd172  1  0.00390477  0.39007305  0.80427661  1
  Pd  Pd173  1  -0.00424915  0.39826154  0.60337467  1
  Pd  Pd174  1  0.00018948  0.79805843  0.80154401  1
  Pd  Pd175  1  0.18932418  0.60819437  0.19966597  1
  Pd  Pd176  1  -0.00406208  0.00316702  0.00421558  1
  Pd  Pd177  1  0.59380223  -0.00117798  0.60528192  1
  Pd  Pd178  1  0.01121402  -0.00866623  0.41142324  1
  Pd  Pd179  1  0.80443369  0.19496530  -0.00611565  1
  Pd  Pd180  1  0.20315915  0.59441701  0.00382344  1
  Pd  Pd181  1  0.59562620  0.80187267  0.79971135  1
  Pd  Pd182  1  0.39937977  0.00228607  0.39799173  1
  Pd  Pd183  1  0.40026475  0.79173622  0.39381306  1
  Pd  Pd184  1  0.20113042  -0.00204901  0.20053679  1
  Pd  Pd185  1  0.20706169  0.80009480  0.59948059  1
  Pd  Pd186  1  0.19892205  0.79793332  0.79999526  1
  Pd  Pd187  1  0.79759300  0.61019649  0.80326762  1
  Pd  Pd188  1  0.40996285  -0.00696312  0.79325004  1
  Pd  Pd189  1  -0.00174281  0.20194194  0.39297575  1
  Pd  Pd190  1  0.19811186  0.20019895  0.59995722  1
  Pd  Pd191  1  0.39843963  0.61161753  0.80297674  1
  Pd  Pd192  1  0.00129549  0.79426463  0.20028175  1
  Pd  Pd193  1  0.59058735  0.59225047  0.00488803  1
  Pd  Pd194  1  0.79668080  0.00351160  0.40627958  1
  Pd  Pd195  1  0.79228447  0.80493065  0.59250773  1
  Pd  Pd196  1  -0.00076617  0.60189118  0.60262957  1
  Pd  Pd197  1  0.40219392  0.40303781  0.40434593  1
  Pd  Pd198  1  0.59392785  -0.00807135  0.80532375  1
  Pd  Pd199  1  -0.00293236  0.80672134  0.40677976  1
  Rh  Rh200  1  -0.00702742  0.19768217  0.00431373  1
  Rh  Rh201  1  0.60217520  0.39287310  0.20574741  1
  Rh  Rh202  1  0.80309297  0.59905739  -0.00343917  1
  Rh  Rh203  1  0.81118159  0.58612752  0.38927559  1
  Rh  Rh204  1  0.60422228  0.79895491  0.59354233  1
  Rh  Rh205  1  0.80838944  0.20383651  0.39860225  1
  Rh  Rh206  1  0.80135896  0.59956084  0.20431673  1
  Rh  Rh207  1  0.58957906  0.20069887  0.38887192  1
  Rh  Rh208  1  0.20882740  0.20364296  0.00206083  1
  Rh  Rh209  1  0.21365393  0.60915826  0.40378110  1
  Rh  Rh210  1  0.00025095  0.39911713  -0.00136571  1
  Rh  Rh211  1  0.20342885  -0.00264838  -0.00059310  1
  Rh  Rh212  1  0.40305614  0.39881646  0.59276074  1
  Rh  Rh213  1  0.20895363  0.79315178  0.39394205  1
  Rh  Rh214  1  0.79200836  0.20216355  0.19649644  1
  Rh  Rh215  1  0.19574033  0.20296682  0.20223469  1
  Rh  Rh216  1  -0.00885937  0.19867574  0.80142240  1
  Rh  Rh217  1  0.39818761  0.79533486  0.00247624  1
  Rh  Rh218  1  -0.00518866  0.80217360  0.00165688  1
  Rh  Rh219  1  0.80524293  0.00092347  0.60122081  1
  Rh  Rh220  1  0.20131613  -0.00634151  0.79627708  1
  Rh  Rh221  1  0.60513874  0.20743491  0.79429678  1
  Rh  Rh222  1  -0.00295695  0.59749114  0.00666787  1
  Rh  Rh223  1  0.79663256  0.39951539  0.20323373  1
  Rh  Rh224  1  0.00595178  0.00553572  0.19298139  1
  Rh  Rh225  1  0.59661254  -0.00580455  0.39398914  1
  Rh  Rh226  1  0.40522000  0.39526200  0.80101078  1
  Rh  Rh227  1  0.19547451  0.00031832  0.40100060  1
  Rh  Rh228  1  -0.00031709  0.61145354  0.79533660  1
  Rh  Rh229  1  0.20134299  0.20376536  0.39598875  1
  Rh  Rh230  1  0.20171581  0.80686582  0.00067095  1
  Rh  Rh231  1  0.59687489  0.40872450  -0.00903632  1
  Rh  Rh232  1  0.59130251  0.60688289  0.39982757  1
  Rh  Rh233  1  0.79622261  0.00981282  0.80678335  1
  Rh  Rh234  1  0.00804007  0.39589496  0.20247204  1
  Rh  Rh235  1  0.19848160  0.79627335  0.20313387  1
  Rh  Rh236  1  0.59596001  0.60108287  0.20174961  1
  Rh  Rh237  1  0.79389292  0.39232018  0.79403827  1
  Rh  Rh238  1  0.00266997  -0.00082164  0.79376340  1
  Rh  Rh239  1  0.39830581  0.40486003  0.19897163  1
  Rh  Rh240  1  0.40086372  0.80612738  0.60012459  1
  Rh  Rh241  1  0.39509632  -0.00542417  0.21212024  1
  Rh  Rh242  1  0.20193431  0.39160923  0.40576350  1
  Rh  Rh243  1  0.00187654  0.18850057  0.60079050  1
  Rh  Rh244  1  0.60603617  0.39985618  0.40444607  1
  Rh  Rh245  1  0.40354434  0.00624865  -0.00827578  1
  Rh  Rh246  1  0.80161619  0.59849294  0.60565132  1
  Rh  Rh247  1  0.39892155  0.80651289  0.20592193  1
  Rh  Rh248  1  0.00249154  0.19950953  0.19371666  1
  Rh  Rh249  1  0.60313243  0.59937424  0.60435006  1
