# generated using pymatgen
data_ZrScNbPdRh
_symmetry_space_group_name_H-M   'P 1'
_cell_length_a   16.56890166
_cell_length_b   16.56609674
_cell_length_c   16.56585953
_cell_angle_alpha   90.02607126
_cell_angle_beta   89.98167475
_cell_angle_gamma   90.01134975
_symmetry_Int_Tables_number   1
_chemical_formula_structural   ZrScNbPdRh
_chemical_formula_sum   'Zr50 Sc50 Nb50 Pd50 Rh50'
_cell_volume   4547.02992274
_cell_formula_units_Z   50
loop_
 _symmetry_equiv_pos_site_id
 _symmetry_equiv_pos_as_xyz
  1  'x, y, z'
loop_
 _atom_site_type_symbol
 _atom_site_label
 _atom_site_symmetry_multiplicity
 _atom_site_fract_x
 _atom_site_fract_y
 _atom_site_fract_z
 _atom_site_occupancy
  Zr  Zr0  1  0.69765882  0.70217331  0.30370605  1
  Zr  Zr1  1  0.09404581  0.69241542  0.09719276  1
  Zr  Zr2  1  0.90214906  0.70106341  0.70582159  1
  Zr  Zr3  1  0.69924634  0.88912654  0.70387937  1
  Zr  Zr4  1  0.48393036  0.10132462  0.49847237  1
  Zr  Zr5  1  0.49834377  0.28923035  0.71528852  1
  Zr  Zr6  1  0.71159394  0.70167302  0.10470071  1
  Zr  Zr7  1  0.69365792  0.30191052  0.10455298  1
  Zr  Zr8  1  0.09906096  0.90371697  0.50010705  1
  Zr  Zr9  1  0.90268604  0.89862892  0.90731785  1
  Zr  Zr10  1  0.30902285  0.49355717  0.50304646  1
  Zr  Zr11  1  0.30442072  0.29572682  0.89539858  1
  Zr  Zr12  1  0.09299396  0.30326125  0.30053475  1
  Zr  Zr13  1  0.49444662  0.90376169  0.29838187  1
  Zr  Zr14  1  0.29558707  0.30423083  0.09701336  1
  Zr  Zr15  1  0.09100418  0.50334531  0.49775488  1
  Zr  Zr16  1  0.30981783  0.70444439  0.29591162  1
  Zr  Zr17  1  0.28549378  0.09522819  0.09824418  1
  Zr  Zr18  1  0.90125233  0.08597848  0.09833220  1
  Zr  Zr19  1  0.10304487  0.89828461  0.30305700  1
  Zr  Zr20  1  0.50267937  0.50265745  0.70405478  1
  Zr  Zr21  1  0.89457663  0.09180340  0.50736236  1
  Zr  Zr22  1  0.90835076  0.29322102  0.69519222  1
  Zr  Zr23  1  0.30401457  0.70678661  0.89022416  1
  Zr  Zr24  1  0.89338471  0.50334572  0.69975323  1
  Zr  Zr25  1  0.10025146  0.30406227  0.10469757  1
  Zr  Zr26  1  0.70997687  0.09265348  0.69801678  1
  Zr  Zr27  1  0.90910384  0.89781598  0.50487431  1
  Zr  Zr28  1  0.90173512  0.29908028  0.30610991  1
  Zr  Zr29  1  0.29898344  0.29260646  0.49815575  1
  Zr  Zr30  1  0.49387704  0.29660455  0.49763224  1
  Zr  Zr31  1  0.51094570  0.49494880  0.09747197  1
  Zr  Zr32  1  0.50578732  0.50797477  0.29543044  1
  Zr  Zr33  1  0.09615398  0.49829381  0.10000748  1
  Zr  Zr34  1  0.89897995  0.69103270  0.49719732  1
  Zr  Zr35  1  0.70232268  0.30325633  0.50028654  1
  Zr  Zr36  1  0.49551720  0.89397381  0.90607975  1
  Zr  Zr37  1  0.09435139  0.90527104  0.69530127  1
  Zr  Zr38  1  0.90368673  0.30318602  0.10127106  1
  Zr  Zr39  1  0.90709339  0.50078039  0.08898687  1
  Zr  Zr40  1  0.50484621  0.70165717  0.49721828  1
  Zr  Zr41  1  0.70415377  0.10131827  0.49452569  1
  Zr  Zr42  1  0.10188258  0.29610583  0.50126648  1
  Zr  Zr43  1  0.50334158  0.50350709  0.50449125  1
  Zr  Zr44  1  0.50462668  0.30359351  0.09472339  1
  Zr  Zr45  1  0.70386031  0.50146928  0.88386037  1
  Zr  Zr46  1  0.11332685  0.09660191  0.89756698  1
  Zr  Zr47  1  0.69657356  0.69247083  0.50048673  1
  Zr  Zr48  1  0.89330448  0.49461932  0.50112499  1
  Zr  Zr49  1  0.89328054  0.09313016  0.90420610  1
  Sc  Sc50  1  0.29986750  0.49872611  0.29835644  1
  Sc  Sc51  1  0.50103090  0.90400215  0.10180505  1
  Sc  Sc52  1  0.29974935  0.09517168  0.30134553  1
  Sc  Sc53  1  0.89635529  0.30340963  0.90929341  1
  Sc  Sc54  1  0.50128575  0.10430221  0.29997316  1
  Sc  Sc55  1  0.71004194  0.89976730  0.89997914  1
  Sc  Sc56  1  0.09947849  0.09631222  0.29314640  1
  Sc  Sc57  1  0.90162767  0.70417743  0.09843135  1
  Sc  Sc58  1  0.29944936  0.89492436  0.70528640  1
  Sc  Sc59  1  0.48930895  0.89193615  0.50438319  1
  Sc  Sc60  1  0.10650052  0.29549405  0.89435150  1
  Sc  Sc61  1  0.51027187  0.29294696  0.29893725  1
  Sc  Sc62  1  0.50326049  0.70371515  0.70191138  1
  Sc  Sc63  1  0.31154936  0.89975565  0.09926951  1
  Sc  Sc64  1  0.89646712  0.90483364  0.30121971  1
  Sc  Sc65  1  0.89524042  0.10101177  0.30665647  1
  Sc  Sc66  1  0.69844126  0.10192019  0.29659531  1
  Sc  Sc67  1  0.90033434  0.30084258  0.49610240  1
  Sc  Sc68  1  0.50042172  0.89157159  0.69490717  1
  Sc  Sc69  1  0.50484317  0.30879030  0.89943054  1
  Sc  Sc70  1  0.69730669  0.31075246  0.70330696  1
  Sc  Sc71  1  0.70171480  0.09520655  0.09765984  1
  Sc  Sc72  1  0.09645886  0.50995571  0.70863012  1
  Sc  Sc73  1  0.69538344  0.30017150  0.90175718  1
  Sc  Sc74  1  0.09908324  0.90111150  0.89457829  1
  Sc  Sc75  1  0.89913245  0.90436258  0.69866912  1
  Sc  Sc76  1  0.29366708  0.30148341  0.30545974  1
  Sc  Sc77  1  0.70597573  0.70593946  0.88498503  1
  Sc  Sc78  1  0.31537839  0.70760635  0.49780728  1
  Sc  Sc79  1  0.28963776  0.49962225  0.09665224  1
  Sc  Sc80  1  0.70093137  0.29020336  0.30389009  1
  Sc  Sc81  1  0.69590878  0.50834326  0.29385924  1
  Sc  Sc82  1  0.08800203  0.70862192  0.49448070  1
  Sc  Sc83  1  0.09396735  0.70345733  0.71469238  1
  Sc  Sc84  1  0.90199159  0.70239770  0.90119719  1
  Sc  Sc85  1  0.49047192  0.70475225  0.10740363  1
  Sc  Sc86  1  0.09793649  0.49884808  0.29497750  1
  Sc  Sc87  1  0.51229128  0.09354805  0.10036044  1
  Sc  Sc88  1  0.08030362  0.90522613  0.09868068  1
  Sc  Sc89  1  0.29834414  0.30359992  0.70751717  1
  Sc  Sc90  1  0.70551206  0.89491714  0.49732887  1
  Sc  Sc91  1  0.69812202  0.50162404  0.10000211  1
  Sc  Sc92  1  0.09700606  0.51029963  0.90634461  1
  Sc  Sc93  1  0.09103731  0.69427854  0.29821443  1
  Sc  Sc94  1  0.30171417  0.90524797  0.49433913  1
  Sc  Sc95  1  0.29946206  0.90399971  0.29874142  1
  Sc  Sc96  1  0.89401113  0.69352285  0.29565623  1
  Sc  Sc97  1  0.29696452  0.50167880  0.88671018  1
  Sc  Sc98  1  0.30188294  0.69889456  0.09924279  1
  Sc  Sc99  1  0.29393096  0.10253473  0.69726388  1
  Nb  Nb100  1  0.50499905  0.50695300  0.89837889  1
  Nb  Nb101  1  0.29909515  0.90570112  0.90245895  1
  Nb  Nb102  1  0.70040857  0.50735704  0.69167363  1
  Nb  Nb103  1  0.29677569  0.10487751  0.49940862  1
  Nb  Nb104  1  0.90567680  0.49539753  0.30255284  1
  Nb  Nb105  1  0.50183405  0.69944380  0.89912991  1
  Nb  Nb106  1  0.88642527  0.89476072  0.09505787  1
  Nb  Nb107  1  0.09657276  0.70499588  0.90173572  1
  Nb  Nb108  1  0.70127788  0.69641625  0.69951018  1
  Nb  Nb109  1  0.29958416  0.09122210  0.90065291  1
  Nb  Nb110  1  0.11805566  0.09797369  0.51683243  1
  Nb  Nb111  1  0.70087672  0.89678899  0.10686164  1
  Nb  Nb112  1  0.50401090  0.10808989  0.89242144  1
  Nb  Nb113  1  0.90309329  0.49579560  0.89804416  1
  Nb  Nb114  1  0.69855058  0.90035059  0.29988325  1
  Nb  Nb115  1  0.29614982  0.69454270  0.70185044  1
  Nb  Nb116  1  0.69711477  0.49729795  0.51610329  1
  Nb  Nb117  1  0.29628156  0.50963227  0.69715144  1
  Nb  Nb118  1  0.69921386  0.09917737  0.89572781  1
  Nb  Nb119  1  0.10066923  0.29349561  0.70066261  1
  Nb  Nb120  1  0.90102843  0.09877503  0.70004610  1
  Nb  Nb121  1  0.09815670  0.10087767  0.09919356  1
  Nb  Nb122  1  0.50106608  0.09809511  0.70299394  1
  Nb  Nb123  1  0.50407222  0.69986804  0.30103381  1
  Nb  Nb124  1  0.09810509  0.10964133  0.70079571  1
  Nb  Nb125  1  -0.00213851  0.39836320  0.80054741  1
  Nb  Nb126  1  0.59618765  0.19308973  0.60332653  1
  Nb  Nb127  1  0.80577522  0.40065705  0.20196395  1
  Nb  Nb128  1  0.80115385  0.79087613  0.60032768  1
  Nb  Nb129  1  0.60252458  0.40605218  0.40769948  1
  Nb  Nb130  1  0.00618170  0.19318342  0.00479872  1
  Nb  Nb131  1  0.59752162  -0.00152172  0.40476030  1
  Nb  Nb132  1  0.39912175  0.19150192  -0.00300379  1
  Nb  Nb133  1  0.39725309  0.20368489  0.18862215  1
  Nb  Nb134  1  0.40716465  0.59867382  -0.00885637  1
  Nb  Nb135  1  0.19851633  0.80043517  -0.00134195  1
  Nb  Nb136  1  0.59541042  0.00371206  0.80002497  1
  Nb  Nb137  1  0.20323383  0.60438726  0.59775006  1
  Nb  Nb138  1  0.59733785  0.00329594  0.59914314  1
  Nb  Nb139  1  0.59826393  0.60895088  -0.00623234  1
  Nb  Nb140  1  0.19511913  0.80045702  0.19364914  1
  Nb  Nb141  1  -0.00021065  0.01241580  0.79585144  1
  Nb  Nb142  1  0.19842438  0.40605486  0.60437575  1
  Nb  Nb143  1  0.40199582  0.00358380  0.80658823  1
  Nb  Nb144  1  0.20028593  0.79294436  0.60104981  1
  Nb  Nb145  1  0.80244406  0.19433669  0.80035273  1
  Nb  Nb146  1  0.40411639  0.39532120  0.19528302  1
  Nb  Nb147  1  0.60347379  0.79583443  0.00477789  1
  Nb  Nb148  1  0.60248063  0.80186093  0.20267770  1
  Nb  Nb149  1  0.20299598  0.60273097  0.40746356  1
  Pd  Pd150  1  0.79377821  0.58771991  0.39983479  1
  Pd  Pd151  1  0.59444702  0.80947249  0.39842283  1
  Pd  Pd152  1  0.00096506  0.19285622  0.58900031  1
  Pd  Pd153  1  0.60596834  -0.00753872  -0.00864433  1
  Pd  Pd154  1  0.79458658  0.20816868  0.60574400  1
  Pd  Pd155  1  0.39789387  0.39321786  0.61257079  1
  Pd  Pd156  1  -0.00289980  0.80219861  0.20207339  1
  Pd  Pd157  1  0.19503707  0.40837988  0.40442166  1
  Pd  Pd158  1  0.40143596  0.40785248  0.79916828  1
  Pd  Pd159  1  0.20367728  0.79148488  0.40038458  1
  Pd  Pd160  1  0.79756948  -0.00011763  0.20344779  1
  Pd  Pd161  1  0.79612630  0.60288779  -0.00973158  1
  Pd  Pd162  1  0.20989531  -0.00846336  0.60550324  1
  Pd  Pd163  1  0.19235069  -0.01611305  0.00862432  1
  Pd  Pd164  1  0.40639810  0.00833306  -0.00042783  1
  Pd  Pd165  1  -0.00493734  0.19310012  0.19707622  1
  Pd  Pd166  1  -0.01019750  0.79676218  0.38774683  1
  Pd  Pd167  1  0.19580375  0.80407928  0.80011823  1
  Pd  Pd168  1  0.80881156  0.58962982  0.19876259  1
  Pd  Pd169  1  0.00606633  0.00997130  0.40408958  1
  Pd  Pd170  1  0.39581631  0.20276112  0.61001097  1
  Pd  Pd171  1  0.79148580  0.40458427  0.00499348  1
  Pd  Pd172  1  0.39722409  0.59952201  0.39868105  1
  Pd  Pd173  1  0.80094894  0.19881892  -0.00039476  1
  Pd  Pd174  1  0.00587207  0.18761556  0.40969528  1
  Pd  Pd175  1  0.80703882  0.39045080  0.79476059  1
  Pd  Pd176  1  0.18960343  0.40518502  0.79633758  1
  Pd  Pd177  1  0.39593400  0.40750311  -0.00199379  1
  Pd  Pd178  1  0.41174307  0.39685314  0.38545486  1
  Pd  Pd179  1  0.20965772  0.60809803  -0.00973678  1
  Pd  Pd180  1  0.39917967  0.58965183  0.18879463  1
  Pd  Pd181  1  0.00711242  0.60695387  0.60474243  1
  Pd  Pd182  1  -0.00773047  0.20063331  0.81354556  1
  Pd  Pd183  1  0.19584842  0.40327623  -0.01200811  1
  Pd  Pd184  1  0.40230878  0.60873709  0.60415926  1
  Pd  Pd185  1  0.78860809  0.40785250  0.39127924  1
  Pd  Pd186  1  0.19988811  0.60512535  0.20866977  1
  Pd  Pd187  1  0.19921883  0.00627944  0.39978141  1
  Pd  Pd188  1  0.80717675  0.80184734  0.40304494  1
  Pd  Pd189  1  0.80194123  0.20221768  0.19654645  1
  Pd  Pd190  1  -0.00516020  -0.00282029  0.20546323  1
  Pd  Pd191  1  0.39695394  -0.00375054  0.60835703  1
  Pd  Pd192  1  0.00719504  0.40173895  0.60838924  1
  Pd  Pd193  1  0.19993543  0.20338679  -0.00229354  1
  Pd  Pd194  1  0.40014259  0.01171887  0.19655624  1
  Pd  Pd195  1  0.59166928  0.38954040  0.60267066  1
  Pd  Pd196  1  0.19382691  0.19057705  0.39313136  1
  Pd  Pd197  1  0.40381323  0.80488663  0.79481605  1
  Pd  Pd198  1  0.59734749  0.19740229  0.00030786  1
  Pd  Pd199  1  0.20323484  0.20099262  0.20704287  1
  Rh  Rh200  1  0.39055981  0.79759561  0.60577209  1
  Rh  Rh201  1  0.79509359  0.79887633  -0.00188562  1
  Rh  Rh202  1  -0.00298842  0.81230510  0.80305718  1
  Rh  Rh203  1  0.20752908  0.19656016  0.79561053  1
  Rh  Rh204  1  0.60421985  0.59145810  0.40426344  1
  Rh  Rh205  1  0.79995904  0.80526945  0.20575839  1
  Rh  Rh206  1  0.19443226  -0.01179908  0.19482883  1
  Rh  Rh207  1  0.39331713  0.19860028  0.38672569  1
  Rh  Rh208  1  -0.00678364  0.59513125  0.19815354  1
  Rh  Rh209  1  0.20514404  0.20942410  0.60680492  1
  Rh  Rh210  1  0.01114614  0.39002416  -0.01197317  1
  Rh  Rh211  1  0.78916542  -0.00556351  0.00460855  1
  Rh  Rh212  1  -0.00591774  0.60644543  -0.00494790  1
  Rh  Rh213  1  0.80802656  0.80058218  0.79448696  1
  Rh  Rh214  1  0.39134785  0.19040106  0.80560292  1
  Rh  Rh215  1  0.80441263  0.19792159  0.40125526  1
  Rh  Rh216  1  0.60937134  0.80005044  0.59599350  1
  Rh  Rh217  1  0.20042104  0.00076528  0.79158024  1
  Rh  Rh218  1  0.40250710  0.59962549  0.80000084  1
  Rh  Rh219  1  0.39687163  0.79312664  -0.00036698  1
  Rh  Rh220  1  0.79629355  -0.01612218  0.59760967  1
  Rh  Rh221  1  0.80469756  0.60199156  0.80053897  1
  Rh  Rh222  1  0.40266777  0.80357607  0.39468316  1
  Rh  Rh223  1  0.59812686  0.80492515  0.80820737  1
  Rh  Rh224  1  0.61057140  0.41233742  -0.01226548  1
  Rh  Rh225  1  0.59551944  0.60664773  0.60706832  1
  Rh  Rh226  1  0.40064071  0.00174725  0.40033856  1
  Rh  Rh227  1  0.80308106  0.00087238  0.80054122  1
  Rh  Rh228  1  -0.00027287  0.79446697  0.60363515  1
  Rh  Rh229  1  0.19518371  0.60494493  0.80073200  1
  Rh  Rh230  1  0.00659188  0.00579704  -0.00965901  1
  Rh  Rh231  1  0.80032822  0.60525486  0.60148504  1
  Rh  Rh232  1  -0.00007065  0.59618012  0.39471502  1
  Rh  Rh233  1  0.40116062  0.80372446  0.20284918  1
  Rh  Rh234  1  0.80390810  0.39638105  0.60564971  1
  Rh  Rh235  1  -0.00570387  0.40465294  0.20243867  1
  Rh  Rh236  1  0.60027510  0.40580663  0.79741193  1
  Rh  Rh237  1  -0.00507525  0.59506947  0.80983270  1
  Rh  Rh238  1  0.00188877  0.40010777  0.40189503  1
  Rh  Rh239  1  0.59814816  0.19572278  0.19384399  1
  Rh  Rh240  1  0.00252708  0.79840611  0.00092427  1
  Rh  Rh241  1  0.60418276  -0.00440195  0.21022232  1
  Rh  Rh242  1  0.00412686  0.01155252  0.60372925  1
  Rh  Rh243  1  0.59871633  0.19753277  0.41191029  1
  Rh  Rh244  1  0.20435845  0.40155870  0.20455856  1
  Rh  Rh245  1  0.79336536  -0.00171003  0.39805173  1
  Rh  Rh246  1  0.60689389  0.39365526  0.21583267  1
  Rh  Rh247  1  0.61586706  0.19486775  0.79274991  1
  Rh  Rh248  1  0.59773108  0.61594409  0.18961937  1
  Rh  Rh249  1  0.60261590  0.60305133  0.79668986  1
