# generated using pymatgen
data_ZrScNbPdRh
_symmetry_space_group_name_H-M   'P 1'
_cell_length_a   16.56397979
_cell_length_b   16.55883843
_cell_length_c   16.56202081
_cell_angle_alpha   90.01968125
_cell_angle_beta   89.96158053
_cell_angle_gamma   89.97274595
_symmetry_Int_Tables_number   1
_chemical_formula_structural   ZrScNbPdRh
_chemical_formula_sum   'Zr50 Sc50 Nb50 Pd50 Rh50'
_cell_volume   4542.63365286
_cell_formula_units_Z   50
loop_
 _symmetry_equiv_pos_site_id
 _symmetry_equiv_pos_as_xyz
  1  'x, y, z'
loop_
 _atom_site_type_symbol
 _atom_site_label
 _atom_site_symmetry_multiplicity
 _atom_site_fract_x
 _atom_site_fract_y
 _atom_site_fract_z
 _atom_site_occupancy
  Zr  Zr0  1  0.30414699  0.10577086  0.29923692  1
  Zr  Zr1  1  0.69834344  0.10405180  0.50374122  1
  Zr  Zr2  1  0.89364639  0.70142084  0.28597642  1
  Zr  Zr3  1  0.88885148  0.49776044  0.49539241  1
  Zr  Zr4  1  0.49588020  0.31140488  0.29521806  1
  Zr  Zr5  1  0.89494745  0.29701284  0.89971654  1
  Zr  Zr6  1  0.89624057  0.50081139  0.10196743  1
  Zr  Zr7  1  0.89841293  0.90248332  0.51092487  1
  Zr  Zr8  1  0.90078111  0.51130147  0.70671263  1
  Zr  Zr9  1  0.09848481  0.70039639  0.50191100  1
  Zr  Zr10  1  0.30763656  0.30694882  0.70162958  1
  Zr  Zr11  1  0.29847994  0.89919012  0.90526979  1
  Zr  Zr12  1  0.69875388  0.90729446  0.50524516  1
  Zr  Zr13  1  0.90073274  0.71078732  0.69421316  1
  Zr  Zr14  1  0.08573116  0.90818312  0.29923241  1
  Zr  Zr15  1  0.10258320  0.69659128  0.30210687  1
  Zr  Zr16  1  0.89414088  0.10513105  0.90275789  1
  Zr  Zr17  1  0.10071522  0.89779600  0.09576247  1
  Zr  Zr18  1  0.69851856  0.10279801  0.09791443  1
  Zr  Zr19  1  0.10045946  0.29820818  0.10678598  1
  Zr  Zr20  1  0.49953717  0.29971518  0.91030617  1
  Zr  Zr21  1  0.30154432  0.29024620  0.09751464  1
  Zr  Zr22  1  0.71059297  0.50023862  0.90083489  1
  Zr  Zr23  1  0.50740067  0.89487146  0.69843322  1
  Zr  Zr24  1  0.49598376  0.49889957  0.49602215  1
  Zr  Zr25  1  0.09546339  0.69742400  0.10403192  1
  Zr  Zr26  1  0.89510528  0.30328046  0.49393896  1
  Zr  Zr27  1  0.49992493  0.88977979  0.30344872  1
  Zr  Zr28  1  0.89707039  0.89583156  0.89767509  1
  Zr  Zr29  1  0.30798030  0.49142384  0.89528475  1
  Zr  Zr30  1  0.49816209  0.90391429  0.10276147  1
  Zr  Zr31  1  0.30704256  0.10679409  0.69128158  1
  Zr  Zr32  1  0.09848985  0.10173121  0.48836798  1
  Zr  Zr33  1  0.70608263  0.09962663  0.29408204  1
  Zr  Zr34  1  0.10361182  0.90013316  0.49273655  1
  Zr  Zr35  1  0.90380500  0.89350360  0.11088231  1
  Zr  Zr36  1  0.49220172  0.49855810  0.69195557  1
  Zr  Zr37  1  0.10352026  0.90300573  0.90195347  1
  Zr  Zr38  1  0.50415273  0.09806404  0.69684956  1
  Zr  Zr39  1  0.69754131  0.09493365  0.90832857  1
  Zr  Zr40  1  0.69199200  0.70342840  0.29216726  1
  Zr  Zr41  1  0.50561913  0.90478617  0.89554334  1
  Zr  Zr42  1  0.90048827  0.10242284  0.50119974  1
  Zr  Zr43  1  0.29387312  0.70355104  0.10018227  1
  Zr  Zr44  1  0.50776648  0.69824492  0.68962314  1
  Zr  Zr45  1  0.69525315  0.09823234  0.69602643  1
  Zr  Zr46  1  0.30067356  0.29519201  0.49589313  1
  Zr  Zr47  1  0.10168042  0.29147740  0.29836171  1
  Zr  Zr48  1  0.10161794  0.30269946  0.70213301  1
  Zr  Zr49  1  0.10266031  0.50849114  0.49905894  1
  Sc  Sc50  1  0.10947568  0.49356231  0.29990244  1
  Sc  Sc51  1  0.30178702  0.10093162  0.10403360  1
  Sc  Sc52  1  0.70196131  0.29179423  0.90447913  1
  Sc  Sc53  1  0.31832878  0.69835229  0.69693950  1
  Sc  Sc54  1  0.90190015  0.30673938  0.29412731  1
  Sc  Sc55  1  0.09770230  0.50908508  0.70003199  1
  Sc  Sc56  1  0.09779845  0.29130302  0.90107471  1
  Sc  Sc57  1  0.10028338  0.29807579  0.48976851  1
  Sc  Sc58  1  0.51101706  0.29795772  0.50004446  1
  Sc  Sc59  1  0.09729392  0.50653918  0.90015310  1
  Sc  Sc60  1  0.08085722  0.89641410  0.70078735  1
  Sc  Sc61  1  0.29630368  0.30242699  0.29819964  1
  Sc  Sc62  1  0.50639576  0.69355550  0.10930379  1
  Sc  Sc63  1  0.69519626  0.89381471  0.90376058  1
  Sc  Sc64  1  0.30581749  0.69781091  0.30595597  1
  Sc  Sc65  1  0.09886949  0.10774886  0.10286891  1
  Sc  Sc66  1  0.31090004  0.10101863  0.49458872  1
  Sc  Sc67  1  0.69758284  0.30052040  0.29819827  1
  Sc  Sc68  1  0.49838691  0.09973006  0.10298644  1
  Sc  Sc69  1  0.69573763  0.69431028  0.50579659  1
  Sc  Sc70  1  0.10052801  0.50886002  0.10473608  1
  Sc  Sc71  1  0.70489107  0.49815341  0.29700299  1
  Sc  Sc72  1  0.09858307  0.10244201  0.90100109  1
  Sc  Sc73  1  0.29720440  0.09714730  0.91265971  1
  Sc  Sc74  1  0.30562903  0.89866373  0.31247057  1
  Sc  Sc75  1  0.50055785  0.49697332  0.91389213  1
  Sc  Sc76  1  0.70113813  0.90440370  0.09508294  1
  Sc  Sc77  1  0.10077311  0.69978645  0.91081751  1
  Sc  Sc78  1  0.89135572  0.10406443  0.10536332  1
  Sc  Sc79  1  0.09406175  0.10540668  0.69559672  1
  Sc  Sc80  1  0.70484883  0.49760233  0.68693696  1
  Sc  Sc81  1  0.29957700  0.91139097  0.09906026  1
  Sc  Sc82  1  0.89698214  0.68987066  0.89653523  1
  Sc  Sc83  1  0.30402681  0.69733563  0.90541116  1
  Sc  Sc84  1  0.51009322  0.69977689  0.90577539  1
  Sc  Sc85  1  0.70045628  0.29800629  0.10806295  1
  Sc  Sc86  1  0.90163330  0.69574280  0.09744206  1
  Sc  Sc87  1  0.69711652  0.70395279  0.69974672  1
  Sc  Sc88  1  0.69707559  0.50188971  0.09865033  1
  Sc  Sc89  1  0.08875463  0.69322304  0.69615693  1
  Sc  Sc90  1  0.90237636  0.10311187  0.69773674  1
  Sc  Sc91  1  0.69637999  0.69822765  0.09479978  1
  Sc  Sc92  1  0.89035311  0.29350815  0.69842851  1
  Sc  Sc93  1  0.50212627  0.49698568  0.10471926  1
  Sc  Sc94  1  0.69814539  0.89643531  0.70165380  1
  Sc  Sc95  1  0.69929796  0.70276775  0.90394018  1
  Sc  Sc96  1  0.70048052  0.49199594  0.49804366  1
  Sc  Sc97  1  0.32276946  0.89767568  0.70258200  1
  Sc  Sc98  1  0.49604235  0.09907731  0.29680995  1
  Sc  Sc99  1  0.30292492  0.50422898  0.10093412  1
  Nb  Nb100  1  0.51246860  0.10178293  0.89603842  1
  Nb  Nb101  1  0.89579442  0.50204719  0.30059680  1
  Nb  Nb102  1  0.70376891  0.89972992  0.30267647  1
  Nb  Nb103  1  0.49758649  0.30191227  0.09839012  1
  Nb  Nb104  1  0.49448854  0.89688710  0.49852098  1
  Nb  Nb105  1  0.50457155  0.29827137  0.69823158  1
  Nb  Nb106  1  0.30230346  0.49874511  0.69889474  1
  Nb  Nb107  1  0.09162989  0.09993984  0.30125320  1
  Nb  Nb108  1  0.49162721  0.50711431  0.30141217  1
  Nb  Nb109  1  0.90767578  0.09308786  0.29961861  1
  Nb  Nb110  1  0.31073048  0.49571115  0.31802604  1
  Nb  Nb111  1  0.89514291  0.90167079  0.29886648  1
  Nb  Nb112  1  0.30035316  0.29922024  0.90063370  1
  Nb  Nb113  1  0.50246295  0.69986848  0.30191309  1
  Nb  Nb114  1  0.50473233  0.09308427  0.49710795  1
  Nb  Nb115  1  0.30179811  0.89424731  0.49900638  1
  Nb  Nb116  1  0.29601927  0.50164451  0.49581660  1
  Nb  Nb117  1  0.29102464  0.70638784  0.49461242  1
  Nb  Nb118  1  0.89992674  0.70150824  0.49532551  1
  Nb  Nb119  1  0.69147774  0.29876550  0.68364329  1
  Nb  Nb120  1  0.50121405  0.70640466  0.50036727  1
  Nb  Nb121  1  0.70561930  0.30158861  0.50294818  1
  Nb  Nb122  1  0.89495888  0.89897620  0.70429049  1
  Nb  Nb123  1  0.89866807  0.49686934  0.90087795  1
  Nb  Nb124  1  0.89982825  0.29985389  0.10409840  1
  Nb  Nb125  1  0.20207691  0.79867125  0.79325253  1
  Nb  Nb126  1  0.19403006  0.00019970  0.20878054  1
  Nb  Nb127  1  -0.01105614  0.60071706  0.39543181  1
  Nb  Nb128  1  0.21072016  0.19983882  0.79886177  1
  Nb  Nb129  1  0.00041538  0.40403872  0.60164406  1
  Nb  Nb130  1  0.20342240  0.40762730  0.60007143  1
  Nb  Nb131  1  0.19845885  0.39507220  -0.00205009  1
  Nb  Nb132  1  0.20531685  0.80457548  0.60378442  1
  Nb  Nb133  1  0.20329205  -0.00148755  0.78892719  1
  Nb  Nb134  1  -0.00666105  0.40161903  0.80281361  1
  Nb  Nb135  1  0.80042379  0.80354447  0.39717194  1
  Nb  Nb136  1  -0.01079165  0.79824800  0.39730133  1
  Nb  Nb137  1  0.60109622  0.39773259  0.79380324  1
  Nb  Nb138  1  0.80178335  -0.00264544  0.80039514  1
  Nb  Nb139  1  0.19691005  0.80629401  0.20375360  1
  Nb  Nb140  1  0.80053975  0.19765158  0.39796382  1
  Nb  Nb141  1  0.59909918  -0.00400433  0.40014629  1
  Nb  Nb142  1  -0.00568820  -0.00176152  0.00165369  1
  Nb  Nb143  1  0.40368072  0.80357658  0.00444026  1
  Nb  Nb144  1  0.59028526  0.60293858  0.39416933  1
  Nb  Nb145  1  0.40461644  0.20235830  0.80485139  1
  Nb  Nb146  1  0.59939740  0.58875565  0.79695406  1
  Nb  Nb147  1  0.20442553  -0.00711674  0.60058500  1
  Nb  Nb148  1  -0.00285857  0.39883295  -0.00014721  1
  Nb  Nb149  1  0.20890382  0.60068466  0.79542282  1
  Pd  Pd150  1  0.00376101  0.40747767  0.40066775  1
  Pd  Pd151  1  0.40074456  -0.00241958  0.59314208  1
  Pd  Pd152  1  0.20959034  0.40453810  0.19526489  1
  Pd  Pd153  1  -0.00187620  0.00838656  0.80493907  1
  Pd  Pd154  1  0.41058867  0.20665849  0.39786218  1
  Pd  Pd155  1  0.79236081  0.59947336  0.19250906  1
  Pd  Pd156  1  0.41363176  0.39604004  0.80281948  1
  Pd  Pd157  1  0.79046344  0.60803606  0.79662428  1
  Pd  Pd158  1  0.39168901  0.80192944  0.19697476  1
  Pd  Pd159  1  0.60285374  0.19521376  0.39577213  1
  Pd  Pd160  1  0.19050994  0.40477897  0.80243283  1
  Pd  Pd161  1  0.59951320  -0.00402300  0.20681840  1
  Pd  Pd162  1  0.39426478  0.60463256  0.58681871  1
  Pd  Pd163  1  0.60926729  0.39668789  -0.00157242  1
  Pd  Pd164  1  0.78879847  0.19466656  0.79375708  1
  Pd  Pd165  1  0.39145273  0.40248803  0.19616238  1
  Pd  Pd166  1  0.79944563  0.39407975  0.00846274  1
  Pd  Pd167  1  0.79536755  0.39424747  0.79005566  1
  Pd  Pd168  1  0.39806246  0.39423142  0.58906200  1
  Pd  Pd169  1  0.40765880  0.00376560  -0.00422708  1
  Pd  Pd170  1  0.79250433  0.79826584  0.59675413  1
  Pd  Pd171  1  0.40584493  0.18961989  -0.00331225  1
  Pd  Pd172  1  0.80035798  0.60517170  0.60046224  1
  Pd  Pd173  1  0.60787323  0.79931033  0.40811457  1
  Pd  Pd174  1  0.60186867  0.40663124  0.20146640  1
  Pd  Pd175  1  0.40679303  0.60643371  0.00522138  1
  Pd  Pd176  1  0.60415318  0.80531092  0.19124615  1
  Pd  Pd177  1  0.60198938  0.20720427  0.80023422  1
  Pd  Pd178  1  0.40703119  0.60218466  0.80608286  1
  Pd  Pd179  1  0.21142074  0.59920021  0.21131549  1
  Pd  Pd180  1  -0.00453783  0.19904038  0.00670934  1
  Pd  Pd181  1  0.21120362  0.60553358  0.60824114  1
  Pd  Pd182  1  0.79127757  0.60889509  0.39731534  1
  Pd  Pd183  1  0.39606969  0.01239306  0.80799558  1
  Pd  Pd184  1  0.39642573  0.60001311  0.20062427  1
  Pd  Pd185  1  0.40156544  0.61038532  0.40940838  1
  Pd  Pd186  1  0.80195054  0.79510813  0.00329597  1
  Pd  Pd187  1  0.19703344  0.20088665  0.59946818  1
  Pd  Pd188  1  -0.00624749  0.79813632  -0.00466617  1
  Pd  Pd189  1  0.79957081  -0.00255887  0.19425117  1
  Pd  Pd190  1  0.00492542  0.00088460  0.59987894  1
  Pd  Pd191  1  0.59238342  0.20098433  0.19918331  1
  Pd  Pd192  1  0.00081044  0.40701209  0.19707426  1
  Pd  Pd193  1  0.79979933  0.00212388  0.40082676  1
  Pd  Pd194  1  0.60340090  0.40737958  0.39583146  1
  Pd  Pd195  1  0.20267623  0.59184003  -0.00772585  1
  Pd  Pd196  1  0.40552487  0.79002321  0.81111423  1
  Pd  Pd197  1  0.00181205  0.21094119  0.59665662  1
  Pd  Pd198  1  0.00588596  0.78979994  0.80649110  1
  Pd  Pd199  1  0.20899569  0.00666916  0.39902716  1
  Rh  Rh200  1  0.79944766  0.39976429  0.19978290  1
  Rh  Rh201  1  0.40085327  0.39249165  0.40475415  1
  Rh  Rh202  1  0.39715039  0.79568362  0.58954854  1
  Rh  Rh203  1  0.61036669  -0.00407385  0.80064069  1
  Rh  Rh204  1  0.79013416  0.80414003  0.19782596  1
  Rh  Rh205  1  0.00626427  0.60018413  0.80782937  1
  Rh  Rh206  1  0.20114874  0.39807601  0.40518043  1
  Rh  Rh207  1  0.00126692  0.00920273  0.18935085  1
  Rh  Rh208  1  -0.00639575  0.19755801  0.20351964  1
  Rh  Rh209  1  -0.00166442  0.59210060  0.20771803  1
  Rh  Rh210  1  0.80721567  -0.00381419  -0.00486757  1
  Rh  Rh211  1  0.79878799  0.20039107  0.59530591  1
  Rh  Rh212  1  0.39112257  -0.00361846  0.20831674  1
  Rh  Rh213  1  0.40109910  0.79266136  0.40475926  1
  Rh  Rh214  1  0.79979150  0.60204931  0.00137160  1
  Rh  Rh215  1  0.19951446  0.19021152  0.20599257  1
  Rh  Rh216  1  0.59217905  -0.00625220  0.59555369  1
  Rh  Rh217  1  -0.01127682  -0.00412680  0.40576206  1
  Rh  Rh218  1  0.79703176  0.20529592  0.00978182  1
  Rh  Rh219  1  0.59862760  0.40332577  0.59979449  1
  Rh  Rh220  1  0.59894143  0.59336803  0.59557979  1
  Rh  Rh221  1  0.80669355  0.20364338  0.20831833  1
  Rh  Rh222  1  0.00535183  0.79449306  0.20562565  1
  Rh  Rh223  1  0.18754669  0.01006981  0.00782841  1
  Rh  Rh224  1  0.20764916  0.79824486  0.00154613  1
  Rh  Rh225  1  0.00262492  0.80290321  0.59447220  1
  Rh  Rh226  1  0.59649721  0.20241675  0.01101221  1
  Rh  Rh227  1  0.59591213  0.19952709  0.59399927  1
  Rh  Rh228  1  0.00555744  0.20467155  0.79637823  1
  Rh  Rh229  1  0.40631794  0.20712552  0.19994842  1
  Rh  Rh230  1  0.20142766  0.19530684  0.39557008  1
  Rh  Rh231  1  0.79330523  0.39041808  0.39084221  1
  Rh  Rh232  1  0.41391757  0.20216219  0.59791136  1
  Rh  Rh233  1  0.59815822  0.59252515  0.20801937  1
  Rh  Rh234  1  0.59550613  0.00131601  0.00219871  1
  Rh  Rh235  1  0.80380913  0.00294012  0.61424622  1
  Rh  Rh236  1  -0.01016045  0.20151404  0.39162161  1
  Rh  Rh237  1  -0.01381293  0.59296455  0.58833955  1
  Rh  Rh238  1  0.20055682  0.20304611  -0.00440108  1
  Rh  Rh239  1  0.80739215  0.39807987  0.60490599  1
  Rh  Rh240  1  0.59841117  0.79020772  0.79936464  1
  Rh  Rh241  1  0.60393536  0.59431913  -0.00597262  1
  Rh  Rh242  1  0.59155721  0.80286887  0.00632394  1
  Rh  Rh243  1  0.20017063  0.59665433  0.39452837  1
  Rh  Rh244  1  0.60308505  0.80470625  0.59505162  1
  Rh  Rh245  1  0.19438840  0.79917230  0.39755486  1
  Rh  Rh246  1  -0.00578414  0.59183094  -0.00022709  1
  Rh  Rh247  1  0.40829005  -0.00210510  0.40048464  1
  Rh  Rh248  1  0.39138996  0.39835660  0.01123454  1
  Rh  Rh249  1  0.79837628  0.80276833  0.80004820  1
