# generated using pymatgen
data_ZrScNbPdRh
_symmetry_space_group_name_H-M   'P 1'
_cell_length_a   16.56473853
_cell_length_b   16.55784798
_cell_length_c   16.55868004
_cell_angle_alpha   89.94951113
_cell_angle_beta   89.98402290
_cell_angle_gamma   90.02005276
_symmetry_Int_Tables_number   1
_chemical_formula_structural   ZrScNbPdRh
_chemical_formula_sum   'Zr50 Sc50 Nb50 Pd50 Rh50'
_cell_volume   4541.65330249
_cell_formula_units_Z   50
loop_
 _symmetry_equiv_pos_site_id
 _symmetry_equiv_pos_as_xyz
  1  'x, y, z'
loop_
 _atom_site_type_symbol
 _atom_site_label
 _atom_site_symmetry_multiplicity
 _atom_site_fract_x
 _atom_site_fract_y
 _atom_site_fract_z
 _atom_site_occupancy
  Zr  Zr0  1  0.89654550  0.50858775  0.09795156  1
  Zr  Zr1  1  0.49898604  0.09834649  0.70541603  1
  Zr  Zr2  1  0.10175919  0.31406221  0.49464103  1
  Zr  Zr3  1  0.70685411  0.69949954  0.10940145  1
  Zr  Zr4  1  0.09256469  0.09431200  0.29741950  1
  Zr  Zr5  1  0.89858610  0.71629068  0.69606139  1
  Zr  Zr6  1  0.50224138  0.08414831  0.50375267  1
  Zr  Zr7  1  0.48240390  0.89411329  0.69675702  1
  Zr  Zr8  1  0.70233081  0.29960263  0.90690788  1
  Zr  Zr9  1  0.70164016  0.70625945  0.49970922  1
  Zr  Zr10  1  0.90628904  0.30007281  0.30118278  1
  Zr  Zr11  1  0.49098343  0.69767167  0.30560991  1
  Zr  Zr12  1  0.09993451  0.68706954  0.49207691  1
  Zr  Zr13  1  0.90691303  0.69845637  0.09787358  1
  Zr  Zr14  1  0.49703033  0.49998039  0.49316110  1
  Zr  Zr15  1  0.88976967  0.10107022  0.70229844  1
  Zr  Zr16  1  0.29724361  0.89630801  0.51352476  1
  Zr  Zr17  1  0.69956761  0.09114765  0.89458062  1
  Zr  Zr18  1  0.69458761  0.90138358  0.49293718  1
  Zr  Zr19  1  0.31326856  0.29553234  0.90738454  1
  Zr  Zr20  1  0.70275051  0.89177625  0.29785523  1
  Zr  Zr21  1  0.30515609  0.09452772  0.10808146  1
  Zr  Zr22  1  0.70164502  0.30777586  0.29698625  1
  Zr  Zr23  1  0.70223436  0.30785881  0.70193956  1
  Zr  Zr24  1  0.69853036  0.08923256  0.30605379  1
  Zr  Zr25  1  0.10146945  0.49740164  0.68616156  1
  Zr  Zr26  1  0.89907241  0.30180433  0.49512034  1
  Zr  Zr27  1  0.89493546  0.09811845  0.49488798  1
  Zr  Zr28  1  0.49974326  0.10665406  0.89930475  1
  Zr  Zr29  1  0.09559555  0.30717013  0.70353735  1
  Zr  Zr30  1  0.30308122  0.90054030  0.90209639  1
  Zr  Zr31  1  0.69693835  0.70107286  0.89081969  1
  Zr  Zr32  1  0.28805231  0.50219708  0.69989870  1
  Zr  Zr33  1  0.10018361  0.50100536  0.88113191  1
  Zr  Zr34  1  0.89764647  0.90572706  0.88848418  1
  Zr  Zr35  1  0.30648924  0.29924995  0.48937685  1
  Zr  Zr36  1  0.10739999  0.50575855  0.29811674  1
  Zr  Zr37  1  0.09449458  0.29306985  0.90202295  1
  Zr  Zr38  1  0.49353794  0.69627818  0.10152393  1
  Zr  Zr39  1  0.70012145  0.50080102  0.49607360  1
  Zr  Zr40  1  0.91526733  0.90399458  0.29924748  1
  Zr  Zr41  1  0.10011402  0.50656207  0.10641699  1
  Zr  Zr42  1  0.69755310  0.90288550  0.10089245  1
  Zr  Zr43  1  0.49369365  0.90665605  0.10853109  1
  Zr  Zr44  1  0.10292047  0.89671708  0.48981909  1
  Zr  Zr45  1  0.70235815  0.09142155  0.50334653  1
  Zr  Zr46  1  0.70026572  0.69728625  0.30210995  1
  Zr  Zr47  1  0.09823081  0.89692621  0.70009308  1
  Zr  Zr48  1  0.49418024  0.09320733  0.29432764  1
  Zr  Zr49  1  0.69379345  0.30938589  0.09899155  1
  Sc  Sc50  1  0.10360450  0.90277546  0.90154529  1
  Sc  Sc51  1  0.29908956  0.09653406  0.91041515  1
  Sc  Sc52  1  0.29393040  0.30046385  0.29905446  1
  Sc  Sc53  1  0.09933691  0.89483935  0.10146089  1
  Sc  Sc54  1  0.49953620  0.10405907  0.10588851  1
  Sc  Sc55  1  0.70085042  0.69988936  0.70113952  1
  Sc  Sc56  1  0.89798694  0.30089142  0.89737400  1
  Sc  Sc57  1  0.89730056  0.49477588  0.70033087  1
  Sc  Sc58  1  0.90550025  0.10037328  0.30480715  1
  Sc  Sc59  1  0.30850895  0.50792018  0.09829819  1
  Sc  Sc60  1  0.70682498  0.49521457  0.90309379  1
  Sc  Sc61  1  0.29889313  0.70031446  0.49242330  1
  Sc  Sc62  1  0.50451942  0.89319579  0.29898876  1
  Sc  Sc63  1  0.29757785  0.09696824  0.49852699  1
  Sc  Sc64  1  0.50591884  0.30069864  0.70999081  1
  Sc  Sc65  1  0.89732170  0.50285967  0.29549024  1
  Sc  Sc66  1  0.09729560  0.69101709  0.69838090  1
  Sc  Sc67  1  0.29205079  0.50058145  0.49201030  1
  Sc  Sc68  1  0.89439271  0.69794701  0.49830213  1
  Sc  Sc69  1  0.50427988  0.30078889  0.91041841  1
  Sc  Sc70  1  0.09503264  0.70237924  0.10057675  1
  Sc  Sc71  1  0.10018937  0.09359294  0.70351015  1
  Sc  Sc72  1  0.10539278  0.09171874  0.49369241  1
  Sc  Sc73  1  0.90685522  0.69681449  0.89661956  1
  Sc  Sc74  1  0.29989933  0.70614321  0.69385994  1
  Sc  Sc75  1  0.30998907  0.70331036  0.90789607  1
  Sc  Sc76  1  0.89995576  0.50175578  0.90036862  1
  Sc  Sc77  1  0.49814474  0.49900609  0.91432167  1
  Sc  Sc78  1  0.90615946  0.89577574  0.10288300  1
  Sc  Sc79  1  0.70844611  0.90269308  0.70515211  1
  Sc  Sc80  1  0.90337737  0.09978746  0.10252827  1
  Sc  Sc81  1  0.30285967  0.10942708  0.30278732  1
  Sc  Sc82  1  0.69103244  0.10164743  0.09262252  1
  Sc  Sc83  1  0.29697838  0.29147271  0.10599840  1
  Sc  Sc84  1  0.89919107  0.70077434  0.29661740  1
  Sc  Sc85  1  0.50227567  0.30660002  0.49367980  1
  Sc  Sc86  1  0.70335193  0.30943928  0.50111558  1
  Sc  Sc87  1  0.29836346  0.29988891  0.70260595  1
  Sc  Sc88  1  0.89570498  0.30637189  0.09990195  1
  Sc  Sc89  1  0.90195596  0.50226393  0.49723811  1
  Sc  Sc90  1  0.70002586  0.49438458  0.70101776  1
  Sc  Sc91  1  0.89561653  0.29928149  0.70628270  1
  Sc  Sc92  1  0.29919274  0.89762144  0.09669679  1
  Sc  Sc93  1  0.50503306  0.49971383  0.10126025  1
  Sc  Sc94  1  0.30044353  0.70123523  0.10723138  1
  Sc  Sc95  1  0.89669273  0.11092918  0.89566417  1
  Sc  Sc96  1  0.30276015  0.08839714  0.70127389  1
  Sc  Sc97  1  0.48891526  0.29341688  0.30468198  1
  Sc  Sc98  1  0.10658529  0.10930948  0.10045157  1
  Sc  Sc99  1  0.50172256  0.50647286  0.30222694  1
  Nb  Nb100  1  0.10600375  0.30746731  0.10771792  1
  Nb  Nb101  1  0.49828399  0.89173068  0.50099907  1
  Nb  Nb102  1  0.10266457  0.89709676  0.29773783  1
  Nb  Nb103  1  0.50032220  0.89196201  0.89675208  1
  Nb  Nb104  1  0.49862297  0.30210679  0.09690006  1
  Nb  Nb105  1  0.50348442  0.70192300  0.89410583  1
  Nb  Nb106  1  0.11121562  0.70674172  0.29641676  1
  Nb  Nb107  1  0.10340608  0.30320506  0.28366709  1
  Nb  Nb108  1  0.30452716  0.50851077  0.29421828  1
  Nb  Nb109  1  0.69795930  0.90252167  0.90636590  1
  Nb  Nb110  1  0.09817599  0.10231848  0.90412780  1
  Nb  Nb111  1  0.50012062  0.49816450  0.69663018  1
  Nb  Nb112  1  0.50023292  0.69707987  0.70465056  1
  Nb  Nb113  1  0.70151913  0.50093816  0.10827444  1
  Nb  Nb114  1  0.69751059  0.10536589  0.69863054  1
  Nb  Nb115  1  0.29267029  0.89739156  0.70230706  1
  Nb  Nb116  1  0.89844448  0.89681491  0.50503804  1
  Nb  Nb117  1  0.29615908  0.69466626  0.29634039  1
  Nb  Nb118  1  0.69986052  0.50640950  0.28718600  1
  Nb  Nb119  1  0.10274186  0.50225272  0.50311551  1
  Nb  Nb120  1  0.29488155  0.88499164  0.30005964  1
  Nb  Nb121  1  0.30225713  0.50005639  0.90343082  1
  Nb  Nb122  1  0.50022904  0.70589225  0.50685367  1
  Nb  Nb123  1  0.90740420  0.89907360  0.69698498  1
  Nb  Nb124  1  0.09783584  0.69794737  0.89878598  1
  Nb  Nb125  1  0.00274332  0.19726426  0.59712554  1
  Nb  Nb126  1  0.39831654  -0.01384838  0.40195634  1
  Nb  Nb127  1  -0.00573708  -0.00316475  0.59924363  1
  Nb  Nb128  1  0.19788272  0.20358039  0.60185015  1
  Nb  Nb129  1  0.60119018  0.19768564  0.59989351  1
  Nb  Nb130  1  0.79407691  0.80288503  -0.00503510  1
  Nb  Nb131  1  0.40596186  0.59913720  0.60189877  1
  Nb  Nb132  1  0.60496461  0.60863676  0.00092052  1
  Nb  Nb133  1  0.79521432  0.19849015  0.20344573  1
  Nb  Nb134  1  0.40285206  0.20235905  0.60000392  1
  Nb  Nb135  1  0.60162739  0.19289805  0.40478984  1
  Nb  Nb136  1  0.40548651  0.59889699  0.79807061  1
  Nb  Nb137  1  0.79955909  0.00087408  0.20203178  1
  Nb  Nb138  1  0.00423898  0.00670994  -0.00492991  1
  Nb  Nb139  1  0.19827554  0.19705471  0.80291225  1
  Nb  Nb140  1  0.39907450  0.40067688  0.19922947  1
  Nb  Nb141  1  0.19830671  0.40317866  0.00144010  1
  Nb  Nb142  1  0.19884411  -0.00637560  0.20793443  1
  Nb  Nb143  1  0.39912133  0.40876166  0.79983008  1
  Nb  Nb144  1  0.20090862  0.80074333  0.80172303  1
  Nb  Nb145  1  0.01080784  0.40215454  0.00252046  1
  Nb  Nb146  1  0.19728515  0.59700203  -0.00694706  1
  Nb  Nb147  1  0.40025375  0.40276074  0.60427890  1
  Nb  Nb148  1  0.59850960  0.80065244  -0.00488724  1
  Nb  Nb149  1  0.59214653  0.60209239  0.60055226  1
  Pd  Pd150  1  0.40721771  0.00266659  -0.00295677  1
  Pd  Pd151  1  0.59888838  0.39744575  0.39031193  1
  Pd  Pd152  1  0.39540372  0.80051289  0.40149753  1
  Pd  Pd153  1  -0.00534093  0.80907053  -0.00984228  1
  Pd  Pd154  1  0.01175777  0.20184585  0.40475086  1
  Pd  Pd155  1  0.59696232  0.58773408  0.80293386  1
  Pd  Pd156  1  0.59400776  0.40647856  0.81242355  1
  Pd  Pd157  1  0.20159545  0.00060364  0.80394573  1
  Pd  Pd158  1  -0.00406069  0.20181834  0.19351604  1
  Pd  Pd159  1  0.80960521  0.80225377  0.39781553  1
  Pd  Pd160  1  0.79958623  0.19900851  0.00770299  1
  Pd  Pd161  1  0.58715112  -0.00167801  -0.00065274  1
  Pd  Pd162  1  0.19028648  0.20207970  0.39867379  1
  Pd  Pd163  1  0.20820493  0.38822033  0.81084184  1
  Pd  Pd164  1  0.40542873  0.80014474  0.00364936  1
  Pd  Pd165  1  -0.00449536  0.20406492  0.00999796  1
  Pd  Pd166  1  -0.00983965  0.60082930  0.60194554  1
  Pd  Pd167  1  0.81221708  -0.00237443  0.00598512  1
  Pd  Pd168  1  0.00731875  0.79812451  0.58998492  1
  Pd  Pd169  1  0.79891905  0.20796029  0.59925832  1
  Pd  Pd170  1  0.80207344  0.40993780  0.39469364  1
  Pd  Pd171  1  0.20200361  0.40396938  0.39081777  1
  Pd  Pd172  1  0.80496041  0.59864068  0.79473519  1
  Pd  Pd173  1  -0.00211200  0.79227894  0.39974038  1
  Pd  Pd174  1  0.60495390  0.80125987  0.60982113  1
  Pd  Pd175  1  0.79408472  0.60733527  -0.00463286  1
  Pd  Pd176  1  0.19080823  0.79031090  0.60207875  1
  Pd  Pd177  1  -0.00168053  0.00791368  0.80108977  1
  Pd  Pd178  1  -0.00184049  0.59808620  0.39215665  1
  Pd  Pd179  1  0.21235403  -0.00311753  0.39140173  1
  Pd  Pd180  1  0.60025358  -0.00733210  0.61287530  1
  Pd  Pd181  1  0.79467776  0.59797399  0.60383508  1
  Pd  Pd182  1  0.39891487  0.00026781  0.80676752  1
  Pd  Pd183  1  0.60200092  0.60512661  0.40422974  1
  Pd  Pd184  1  -0.00764302  0.60030394  0.78905954  1
  Pd  Pd185  1  -0.00928789  0.39654240  0.59955702  1
  Pd  Pd186  1  0.58616705  0.39963467  0.20696440  1
  Pd  Pd187  1  0.79154401  0.20277700  0.39483819  1
  Pd  Pd188  1  0.59385161  0.79385279  0.19779026  1
  Pd  Pd189  1  0.20373474  0.20293726  -0.00050254  1
  Pd  Pd190  1  0.60495212  0.20448967  0.80064542  1
  Pd  Pd191  1  0.60208200  0.20103735  0.20667911  1
  Pd  Pd192  1  0.60054757  0.80987090  0.79375077  1
  Pd  Pd193  1  0.80036215  0.80212955  0.80306313  1
  Pd  Pd194  1  0.80187820  -0.00786175  0.60350510  1
  Pd  Pd195  1  0.19816378  0.79142913  -0.00317983  1
  Pd  Pd196  1  0.00424270  0.40990019  0.39224861  1
  Pd  Pd197  1  0.59610056  -0.00916423  0.79382036  1
  Pd  Pd198  1  0.21186123  0.61579496  0.80556661  1
  Pd  Pd199  1  -0.00568067  0.40564684  0.19655860  1
  Rh  Rh200  1  0.60670614  -0.00000241  0.19994799  1
  Rh  Rh201  1  0.39518071  0.39716436  0.00912385  1
  Rh  Rh202  1  0.00454976  0.79291047  0.20519537  1
  Rh  Rh203  1  0.79528434  0.80594494  0.59830071  1
  Rh  Rh204  1  0.19675493  0.19139158  0.20777843  1
  Rh  Rh205  1  0.39358151  0.40901247  0.39036045  1
  Rh  Rh206  1  0.80300996  0.39804020  0.19950163  1
  Rh  Rh207  1  0.19101001  0.00094714  0.01359251  1
  Rh  Rh208  1  0.79799507  0.00151815  0.79709154  1
  Rh  Rh209  1  0.39386955  -0.00037697  0.59631881  1
  Rh  Rh210  1  0.21369648  0.40738215  0.19655036  1
  Rh  Rh211  1  0.40338095  0.60402614  -0.00351633  1
  Rh  Rh212  1  0.79687751  0.59670210  0.39540685  1
  Rh  Rh213  1  0.20295271  0.59870461  0.39651973  1
  Rh  Rh214  1  0.19336347  0.00353838  0.60261030  1
  Rh  Rh215  1  0.41235648  0.18266390  0.41109327  1
  Rh  Rh216  1  0.00211611  0.60687999  0.20767780  1
  Rh  Rh217  1  0.20455219  0.60285902  0.59256487  1
  Rh  Rh218  1  0.20879056  0.39446665  0.59121849  1
  Rh  Rh219  1  0.20026542  0.60597670  0.19330069  1
  Rh  Rh220  1  0.80898062  -0.01176715  0.39308680  1
  Rh  Rh221  1  -0.00416924  -0.00472254  0.41038219  1
  Rh  Rh222  1  0.40406936  0.59477103  0.20147330  1
  Rh  Rh223  1  0.38511384  -0.01073694  0.21418843  1
  Rh  Rh224  1  0.59704158  0.79629846  0.39917484  1
  Rh  Rh225  1  0.59706739  0.60234632  0.19666228  1
  Rh  Rh226  1  0.59637147  0.39951480  0.59730440  1
  Rh  Rh227  1  0.58870936  -0.00519742  0.39449214  1
  Rh  Rh228  1  0.39046394  0.79486482  0.79841168  1
  Rh  Rh229  1  0.80389878  0.40157830  0.59727588  1
  Rh  Rh230  1  0.00872819  0.79665662  0.80319208  1
  Rh  Rh231  1  0.80487839  0.60227542  0.20355910  1
  Rh  Rh232  1  0.00586506  0.19595421  0.79062455  1
  Rh  Rh233  1  -0.00763289  0.40129441  0.80458732  1
  Rh  Rh234  1  0.80564547  0.40430501  0.00330087  1
  Rh  Rh235  1  0.40192867  0.21096101  0.19569884  1
  Rh  Rh236  1  0.40496623  0.19424915  0.00991243  1
  Rh  Rh237  1  0.59756903  0.19925658  -0.00041650  1
  Rh  Rh238  1  0.39584503  0.60336882  0.40471647  1
  Rh  Rh239  1  0.39715075  0.79277548  0.60129262  1
  Rh  Rh240  1  0.39788849  0.79996898  0.20177007  1
  Rh  Rh241  1  0.39234339  0.20393254  0.79386893  1
  Rh  Rh242  1  0.00664281  0.00052133  0.18907723  1
  Rh  Rh243  1  0.60493180  0.41029108  0.00319173  1
  Rh  Rh244  1  0.80934165  0.80641043  0.19537316  1
  Rh  Rh245  1  0.20030815  0.79415635  0.40112387  1
  Rh  Rh246  1  0.19990136  0.80138041  0.19529426  1
  Rh  Rh247  1  0.78985232  0.20146735  0.80336130  1
  Rh  Rh248  1  0.01136785  0.59101454  -0.00651498  1
  Rh  Rh249  1  0.80123370  0.39983394  0.80439208  1
