# generated using pymatgen
data_ZrScNbPdRh
_symmetry_space_group_name_H-M   'P 1'
_cell_length_a   16.55518245
_cell_length_b   16.56362385
_cell_length_c   16.55545935
_cell_angle_alpha   90.02194033
_cell_angle_beta   89.96834167
_cell_angle_gamma   90.00359667
_symmetry_Int_Tables_number   1
_chemical_formula_structural   ZrScNbPdRh
_chemical_formula_sum   'Zr50 Sc50 Nb50 Pd50 Rh50'
_cell_volume   4539.73462962
_cell_formula_units_Z   50
loop_
 _symmetry_equiv_pos_site_id
 _symmetry_equiv_pos_as_xyz
  1  'x, y, z'
loop_
 _atom_site_type_symbol
 _atom_site_label
 _atom_site_symmetry_multiplicity
 _atom_site_fract_x
 _atom_site_fract_y
 _atom_site_fract_z
 _atom_site_occupancy
  Zr  Zr0  1  0.68783118  0.10000318  0.09598101  1
  Zr  Zr1  1  0.10739011  0.09652904  0.70337416  1
  Zr  Zr2  1  0.10162225  0.69789415  0.70137883  1
  Zr  Zr3  1  0.49427307  0.09209580  0.51330197  1
  Zr  Zr4  1  0.30327993  0.29904734  0.69293649  1
  Zr  Zr5  1  0.69310157  0.30372682  0.50178530  1
  Zr  Zr6  1  0.69925261  0.10445015  0.29224935  1
  Zr  Zr7  1  0.69077057  0.10671750  0.69730317  1
  Zr  Zr8  1  0.10941998  0.10125516  0.09420518  1
  Zr  Zr9  1  0.89278316  0.70221456  0.50708106  1
  Zr  Zr10  1  0.69248016  0.30428590  0.70021639  1
  Zr  Zr11  1  0.89818990  0.30012482  0.90226895  1
  Zr  Zr12  1  0.70287894  0.49225593  0.89210118  1
  Zr  Zr13  1  0.88966211  0.50250696  0.29143887  1
  Zr  Zr14  1  0.49631256  0.70194930  0.90337873  1
  Zr  Zr15  1  0.89455325  0.69576246  0.10722720  1
  Zr  Zr16  1  0.90351743  0.48993183  0.90067442  1
  Zr  Zr17  1  0.90463845  0.30608433  0.49270532  1
  Zr  Zr18  1  0.90628741  0.49431516  0.69962868  1
  Zr  Zr19  1  0.10035372  0.70600506  0.50044612  1
  Zr  Zr20  1  0.70427542  0.90513902  0.30498035  1
  Zr  Zr21  1  0.09935579  0.30342836  0.29708940  1
  Zr  Zr22  1  0.49892598  0.70367688  0.11036045  1
  Zr  Zr23  1  0.09994582  0.89714840  0.09920687  1
  Zr  Zr24  1  0.31122540  0.90317770  0.49991105  1
  Zr  Zr25  1  0.50466785  0.71085285  0.49194091  1
  Zr  Zr26  1  0.70015688  0.28796653  0.09861931  1
  Zr  Zr27  1  0.89972845  0.89853127  0.29434683  1
  Zr  Zr28  1  0.50377383  0.50664508  0.29869299  1
  Zr  Zr29  1  0.30318480  0.89962330  0.70741560  1
  Zr  Zr30  1  0.50251062  0.50477587  0.89731894  1
  Zr  Zr31  1  0.89958726  0.30437842  0.29559614  1
  Zr  Zr32  1  0.70474046  0.70522878  0.69332148  1
  Zr  Zr33  1  0.50005062  0.89908448  0.50563220  1
  Zr  Zr34  1  0.29749330  0.69626619  0.70571166  1
  Zr  Zr35  1  0.48955894  0.88888129  0.30650157  1
  Zr  Zr36  1  0.90182635  0.90336413  0.89887354  1
  Zr  Zr37  1  0.30024234  0.29634083  0.89139708  1
  Zr  Zr38  1  0.90516646  0.88965804  0.09542429  1
  Zr  Zr39  1  0.29515576  0.09519007  0.90348006  1
  Zr  Zr40  1  0.50630478  0.09795340  0.90068372  1
  Zr  Zr41  1  0.89591436  0.10312508  0.09786853  1
  Zr  Zr42  1  0.29157293  0.70702275  0.29919999  1
  Zr  Zr43  1  0.30174852  0.50392068  0.30066381  1
  Zr  Zr44  1  0.90235808  0.09890172  0.70638202  1
  Zr  Zr45  1  0.90781754  0.09560324  0.89526612  1
  Zr  Zr46  1  0.48857777  0.09675358  0.29048990  1
  Zr  Zr47  1  0.89030884  0.10055106  0.30847497  1
  Zr  Zr48  1  0.09420633  0.49356991  0.50645474  1
  Zr  Zr49  1  0.10484816  0.89843949  0.50341842  1
  Sc  Sc50  1  0.10239075  0.70346986  0.10516497  1
  Sc  Sc51  1  0.49526135  0.30735064  0.50596799  1
  Sc  Sc52  1  0.30387189  0.49793555  0.69742980  1
  Sc  Sc53  1  0.90477814  0.30413176  0.70113389  1
  Sc  Sc54  1  0.50208334  0.49300042  0.49484870  1
  Sc  Sc55  1  0.49766711  0.30633976  0.30447884  1
  Sc  Sc56  1  0.10998771  0.11478373  0.29230343  1
  Sc  Sc57  1  0.68557963  0.69000942  0.29686892  1
  Sc  Sc58  1  0.70167510  0.30099971  0.29734508  1
  Sc  Sc59  1  0.29947198  0.70050272  0.50710286  1
  Sc  Sc60  1  0.90458089  0.30523881  0.09753518  1
  Sc  Sc61  1  0.10486102  0.49975084  0.70755783  1
  Sc  Sc62  1  0.29994714  0.70465489  0.09713138  1
  Sc  Sc63  1  0.09999876  0.90344195  0.90958145  1
  Sc  Sc64  1  0.89745189  0.70135611  0.90407413  1
  Sc  Sc65  1  0.09698068  0.29262769  0.09972371  1
  Sc  Sc66  1  0.70938568  0.90497538  0.89974626  1
  Sc  Sc67  1  0.71299015  0.51340650  0.10328829  1
  Sc  Sc68  1  0.69939211  0.09706001  0.90429578  1
  Sc  Sc69  1  0.89519832  0.89617472  0.70762134  1
  Sc  Sc70  1  0.10374307  0.29294786  0.90369489  1
  Sc  Sc71  1  0.50168477  0.29391685  0.69683910  1
  Sc  Sc72  1  0.70849571  0.90072060  0.09835265  1
  Sc  Sc73  1  0.49701829  0.69041900  0.69743548  1
  Sc  Sc74  1  0.48964035  0.90906643  0.90283529  1
  Sc  Sc75  1  0.29705155  0.49766706  0.90010959  1
  Sc  Sc76  1  0.69471406  0.70170609  0.50182022  1
  Sc  Sc77  1  0.69719520  0.50439278  0.48798333  1
  Sc  Sc78  1  0.90001083  0.89709995  0.49794034  1
  Sc  Sc79  1  0.09765734  0.50866327  0.29497681  1
  Sc  Sc80  1  0.70459195  0.90089523  0.70193070  1
  Sc  Sc81  1  0.29751691  0.70239376  0.89833670  1
  Sc  Sc82  1  0.49989324  0.28707802  0.09810092  1
  Sc  Sc83  1  0.29608445  0.90358888  0.09800084  1
  Sc  Sc84  1  0.29356538  0.29896205  0.30691147  1
  Sc  Sc85  1  0.70192430  0.69424582  0.90103062  1
  Sc  Sc86  1  0.49464305  0.29489675  0.89798772  1
  Sc  Sc87  1  0.29520311  0.10079930  0.51512575  1
  Sc  Sc88  1  0.70608588  0.10370238  0.49809293  1
  Sc  Sc89  1  0.30323369  0.49130871  0.50358991  1
  Sc  Sc90  1  0.69436835  0.89273961  0.50623517  1
  Sc  Sc91  1  0.10252555  0.89621856  0.69987284  1
  Sc  Sc92  1  0.29678187  0.10343176  0.70258455  1
  Sc  Sc93  1  0.29829115  0.29471148  0.08815078  1
  Sc  Sc94  1  0.49315747  0.51386265  0.09689054  1
  Sc  Sc95  1  0.10642427  0.30353882  0.69561223  1
  Sc  Sc96  1  0.29577438  0.50718310  0.08944268  1
  Sc  Sc97  1  0.49243654  0.09750727  0.09418863  1
  Sc  Sc98  1  0.10359887  0.88308114  0.30065831  1
  Sc  Sc99  1  0.10965629  0.30122667  0.49510237  1
  Nb  Nb100  1  0.30154745  0.90867064  0.30458381  1
  Nb  Nb101  1  0.69651548  0.70208530  0.09773780  1
  Nb  Nb102  1  0.30195919  0.09380242  0.29376987  1
  Nb  Nb103  1  0.89804076  0.70231166  0.70061022  1
  Nb  Nb104  1  0.09740759  0.49931290  0.09956266  1
  Nb  Nb105  1  0.70052967  0.30200126  0.89996481  1
  Nb  Nb106  1  0.09927216  0.69945330  0.30523528  1
  Nb  Nb107  1  0.30723173  0.30107408  0.50384955  1
  Nb  Nb108  1  0.30524941  0.89730658  0.90638399  1
  Nb  Nb109  1  0.91292089  0.50373492  0.10592658  1
  Nb  Nb110  1  0.90204186  0.10125977  0.49900824  1
  Nb  Nb111  1  0.50829141  0.91213323  0.69575098  1
  Nb  Nb112  1  0.09877921  0.10061964  0.89762215  1
  Nb  Nb113  1  0.10411611  0.50978420  0.90589865  1
  Nb  Nb114  1  0.89771962  0.50118754  0.49673504  1
  Nb  Nb115  1  0.09984035  0.69073831  0.89763524  1
  Nb  Nb116  1  0.49397538  0.69738365  0.29695095  1
  Nb  Nb117  1  0.49964474  0.90022935  0.09704171  1
  Nb  Nb118  1  0.10223738  0.09676046  0.50387582  1
  Nb  Nb119  1  0.90809798  0.70097963  0.29762612  1
  Nb  Nb120  1  0.50918149  0.49575936  0.69757301  1
  Nb  Nb121  1  0.69564038  0.49811205  0.69938242  1
  Nb  Nb122  1  0.50604340  0.09535990  0.69955118  1
  Nb  Nb123  1  0.69365643  0.49590607  0.29910911  1
  Nb  Nb124  1  0.29669426  0.09766336  0.11302804  1
  Nb  Nb125  1  0.80717399  0.00652438  0.59988586  1
  Nb  Nb126  1  0.59549905  0.80247747  0.80296423  1
  Nb  Nb127  1  0.58983957  0.19345146  0.39983859  1
  Nb  Nb128  1  0.20105216  0.40331231  0.19456611  1
  Nb  Nb129  1  0.39663414  0.19508500  0.40468031  1
  Nb  Nb130  1  0.40199720  0.60596153  0.39590469  1
  Nb  Nb131  1  0.00084879  0.00145707  0.20460694  1
  Nb  Nb132  1  0.20179253  0.00268068  0.39772637  1
  Nb  Nb133  1  0.60403643  0.40067978  0.00205905  1
  Nb  Nb134  1  -0.00075166  0.00414530  0.59669728  1
  Nb  Nb135  1  0.39735902  0.40360289  0.19696452  1
  Nb  Nb136  1  0.59439469  0.00287039  0.39713628  1
  Nb  Nb137  1  0.80160694  0.59407768  0.79170341  1
  Nb  Nb138  1  0.00303552  0.59556840  0.00300911  1
  Nb  Nb139  1  -0.00594750  0.60500114  0.40180350  1
  Nb  Nb140  1  0.79884500  0.40624985  0.59741475  1
  Nb  Nb141  1  0.59761786  0.79999384  0.00125076  1
  Nb  Nb142  1  0.59250190  -0.00650590  0.20160647  1
  Nb  Nb143  1  0.59816924  0.40464560  0.19281975  1
  Nb  Nb144  1  0.00212662  0.19332472  0.59328956  1
  Nb  Nb145  1  -0.00556720  0.60108901  0.59831643  1
  Nb  Nb146  1  0.79556239  0.20609158  0.80245800  1
  Nb  Nb147  1  0.00148555  0.79269862  0.80365391  1
  Nb  Nb148  1  0.00744933  0.00551736  0.39912394  1
  Nb  Nb149  1  0.80216975  0.79394076  0.39359887  1
  Pd  Pd150  1  -0.00472537  0.80115163  0.40145301  1
  Pd  Pd151  1  0.39591703  0.59208353  0.80078410  1
  Pd  Pd152  1  0.19341687  0.80479108  0.81123868  1
  Pd  Pd153  1  0.38893770  0.80622627  0.19689501  1
  Pd  Pd154  1  -0.00486230  0.19447183  0.19921020  1
  Pd  Pd155  1  0.20912499  0.80301010  0.60247720  1
  Pd  Pd156  1  0.60533336  -0.00755909  0.80518853  1
  Pd  Pd157  1  0.19553106  0.59374645  0.59900550  1
  Pd  Pd158  1  0.39206659  0.60640126  -0.00346905  1
  Pd  Pd159  1  0.80125136  0.19485260  -0.00725677  1
  Pd  Pd160  1  0.19815012  -0.00877870  0.80782568  1
  Pd  Pd161  1  0.79374430  0.79846662  -0.00502609  1
  Pd  Pd162  1  0.40704338  0.59410330  0.58905490  1
  Pd  Pd163  1  0.00102195  0.00468651  0.00682937  1
  Pd  Pd164  1  0.19486496  0.39599840  0.00300671  1
  Pd  Pd165  1  -0.00722213  0.60278745  0.80133981  1
  Pd  Pd166  1  0.00334572  0.20838714  0.79442550  1
  Pd  Pd167  1  0.40581805  0.40375438  0.79526876  1
  Pd  Pd168  1  0.78917279  0.78936186  0.20786429  1
  Pd  Pd169  1  0.19051485  -0.00760418  0.20880503  1
  Pd  Pd170  1  0.19832859  0.79629779  -0.00453300  1
  Pd  Pd171  1  0.79938130  0.59055636  0.60373206  1
  Pd  Pd172  1  0.39237142  0.21323048  0.20650232  1
  Pd  Pd173  1  0.40937582  0.80269322  0.79534206  1
  Pd  Pd174  1  0.39963196  0.00611641  0.79899052  1
  Pd  Pd175  1  0.79324902  0.39881449  0.19096060  1
  Pd  Pd176  1  0.60684662  0.60901096  0.79601416  1
  Pd  Pd177  1  0.58856046  0.39255583  0.80506010  1
  Pd  Pd178  1  0.79552750  0.40452711  0.01257416  1
  Pd  Pd179  1  0.79924264  0.60740419  0.39049032  1
  Pd  Pd180  1  0.40511041  0.79851031  0.61121351  1
  Pd  Pd181  1  0.00990692  0.39960475  -0.00111081  1
  Pd  Pd182  1  0.80878460  0.59350472  -0.00632269  1
  Pd  Pd183  1  0.60235645  0.59926661  0.00448735  1
  Pd  Pd184  1  0.19934422  0.59651391  0.40918203  1
  Pd  Pd185  1  0.01507332  0.39396442  0.80548914  1
  Pd  Pd186  1  0.60549184  0.80654653  0.19858835  1
  Pd  Pd187  1  0.20913082  0.19248735  0.40622339  1
  Pd  Pd188  1  0.80884990  0.20632123  0.60538094  1
  Pd  Pd189  1  0.20087868  0.40644023  0.39648585  1
  Pd  Pd190  1  0.00041741  0.41216760  0.38862997  1
  Pd  Pd191  1  0.79276712  0.20884502  0.40044158  1
  Pd  Pd192  1  0.39433952  0.19073254  -0.00184330  1
  Pd  Pd193  1  0.19940657  0.60014092  0.19416437  1
  Pd  Pd194  1  0.40967920  0.39839850  0.00558601  1
  Pd  Pd195  1  0.59647121  0.59703980  0.59179096  1
  Pd  Pd196  1  0.19854329  0.40116610  0.80250405  1
  Pd  Pd197  1  0.80068348  0.00187187  0.19014886  1
  Pd  Pd198  1  0.00705134  0.19623933  0.40206246  1
  Pd  Pd199  1  0.40335886  0.18984366  0.79410001  1
  Rh  Rh200  1  0.20211011  -0.00705792  0.59913147  1
  Rh  Rh201  1  0.79862358  0.78912377  0.80474489  1
  Rh  Rh202  1  0.79458549  0.60667966  0.20667771  1
  Rh  Rh203  1  0.59719795  0.20646466  -0.00934474  1
  Rh  Rh204  1  0.60300253  0.40745169  0.59685614  1
  Rh  Rh205  1  0.59281048  0.19982037  0.20559830  1
  Rh  Rh206  1  0.00652210  0.40030541  0.20086585  1
  Rh  Rh207  1  0.39123577  0.60038851  0.20328680  1
  Rh  Rh208  1  0.80420447  0.00260533  0.00138990  1
  Rh  Rh209  1  0.39231946  0.00130771  0.61630951  1
  Rh  Rh210  1  0.61339686  0.00271094  0.59243867  1
  Rh  Rh211  1  0.80767542  0.20520301  0.19804432  1
  Rh  Rh212  1  0.79807344  0.39718310  0.78780863  1
  Rh  Rh213  1  0.59200675  0.79958308  0.61563918  1
  Rh  Rh214  1  0.79602884  -0.01083962  0.41458062  1
  Rh  Rh215  1  0.20928683  0.21154409  0.19547419  1
  Rh  Rh216  1  0.20442235  0.00183434  -0.00085951  1
  Rh  Rh217  1  0.20904755  0.59419244  0.80056874  1
  Rh  Rh218  1  -0.00516541  0.80186592  0.61387602  1
  Rh  Rh219  1  0.20394266  0.39786433  0.59932477  1
  Rh  Rh220  1  0.80254368  0.81147678  0.59548742  1
  Rh  Rh221  1  0.00419536  0.78651800  -0.00598756  1
  Rh  Rh222  1  0.00547532  0.79864537  0.19727185  1
  Rh  Rh223  1  0.60180296  -0.01085030  0.00668701  1
  Rh  Rh224  1  0.00598329  0.60615429  0.20084644  1
  Rh  Rh225  1  0.60194966  0.59360489  0.19286547  1
  Rh  Rh226  1  0.60222320  0.20109721  0.80605956  1
  Rh  Rh227  1  0.19884140  0.20164312  0.80052119  1
  Rh  Rh228  1  -0.00310221  0.39694716  0.59773142  1
  Rh  Rh229  1  0.60687866  0.80324086  0.39000944  1
  Rh  Rh230  1  0.40194610  -0.00911746  0.19045125  1
  Rh  Rh231  1  0.19581964  0.60613421  0.00141326  1
  Rh  Rh232  1  0.40592352  0.40383422  0.60790996  1
  Rh  Rh233  1  0.20271285  0.80304305  0.20139461  1
  Rh  Rh234  1  0.39230618  0.00233113  0.00476304  1
  Rh  Rh235  1  0.20362499  0.19514937  -0.00208973  1
  Rh  Rh236  1  0.79495233  0.39909497  0.40332945  1
  Rh  Rh237  1  0.00081275  0.19581399  -0.00180127  1
  Rh  Rh238  1  0.60344815  0.39248407  0.39179733  1
  Rh  Rh239  1  0.20736538  0.80661015  0.40283424  1
  Rh  Rh240  1  0.40218617  0.19886276  0.60147387  1
  Rh  Rh241  1  0.19635954  0.20790722  0.59930470  1
  Rh  Rh242  1  0.39540017  0.39944572  0.39443900  1
  Rh  Rh243  1  0.39540633  0.01043559  0.40287823  1
  Rh  Rh244  1  0.38970314  0.79031762  0.40028280  1
  Rh  Rh245  1  0.40321475  0.80350747  0.00244541  1
  Rh  Rh246  1  0.79055967  0.01362852  0.79249582  1
  Rh  Rh247  1  0.01167875  -0.01390539  0.79626397  1
  Rh  Rh248  1  0.59140750  0.19987169  0.59154112  1
  Rh  Rh249  1  0.59253265  0.60158549  0.40278315  1
