# generated using pymatgen
data_ZrScNbPdRh
_symmetry_space_group_name_H-M   'P 1'
_cell_length_a   16.56357178
_cell_length_b   16.56178017
_cell_length_c   16.56125612
_cell_angle_alpha   90.05448771
_cell_angle_beta   89.99647320
_cell_angle_gamma   89.98912671
_symmetry_Int_Tables_number   1
_chemical_formula_structural   ZrScNbPdRh
_chemical_formula_sum   'Zr50 Sc50 Nb50 Pd50 Rh50'
_cell_volume   4543.11864154
_cell_formula_units_Z   50
loop_
 _symmetry_equiv_pos_site_id
 _symmetry_equiv_pos_as_xyz
  1  'x, y, z'
loop_
 _atom_site_type_symbol
 _atom_site_label
 _atom_site_symmetry_multiplicity
 _atom_site_fract_x
 _atom_site_fract_y
 _atom_site_fract_z
 _atom_site_occupancy
  Zr  Zr0  1  0.29335799  0.89469188  0.69004949  1
  Zr  Zr1  1  0.29688729  0.29598685  0.70167267  1
  Zr  Zr2  1  0.69739077  0.49669729  0.89893811  1
  Zr  Zr3  1  0.09682639  0.49677603  0.70261853  1
  Zr  Zr4  1  0.50073744  0.49629389  0.90145914  1
  Zr  Zr5  1  0.69504303  0.70522457  0.50490659  1
  Zr  Zr6  1  0.70253230  0.10056321  0.10026915  1
  Zr  Zr7  1  0.70072488  0.30002787  0.69957433  1
  Zr  Zr8  1  0.49837621  0.89835420  0.50906388  1
  Zr  Zr9  1  0.09672734  0.90864483  0.69920033  1
  Zr  Zr10  1  0.29226877  0.89113982  0.49869154  1
  Zr  Zr11  1  0.09500977  0.69808767  0.70794900  1
  Zr  Zr12  1  0.90083961  0.70891419  0.49757324  1
  Zr  Zr13  1  0.70786564  0.90139262  0.29364321  1
  Zr  Zr14  1  0.49892184  0.09799247  0.50748370  1
  Zr  Zr15  1  0.08634000  0.89928934  0.90454412  1
  Zr  Zr16  1  0.70954154  0.89654710  0.50132811  1
  Zr  Zr17  1  0.50017455  0.89800598  0.29064273  1
  Zr  Zr18  1  0.09954429  0.50139158  0.49610560  1
  Zr  Zr19  1  0.50408031  0.70723981  0.69937085  1
  Zr  Zr20  1  0.69625443  0.29832130  0.50027863  1
  Zr  Zr21  1  0.89837291  0.50257142  0.50152841  1
  Zr  Zr22  1  0.48950988  0.70244247  0.89966543  1
  Zr  Zr23  1  0.89479796  0.71088535  0.70177804  1
  Zr  Zr24  1  0.70294107  0.30222659  0.90604641  1
  Zr  Zr25  1  0.89910905  0.90057888  0.10099974  1
  Zr  Zr26  1  0.09964985  0.30014115  0.29546262  1
  Zr  Zr27  1  0.30178261  0.50009506  0.70166466  1
  Zr  Zr28  1  0.50531183  0.10136312  0.10459827  1
  Zr  Zr29  1  0.29875867  0.10609403  0.89797011  1
  Zr  Zr30  1  0.29679422  0.49457528  0.49853290  1
  Zr  Zr31  1  0.50339185  0.69516196  0.50534385  1
  Zr  Zr32  1  0.90166183  0.29282817  0.70277765  1
  Zr  Zr33  1  0.49671467  0.50674179  0.10183732  1
  Zr  Zr34  1  0.50613518  0.29864217  0.49642160  1
  Zr  Zr35  1  0.29537142  0.69708623  0.90566894  1
  Zr  Zr36  1  0.09990590  0.70103171  0.09280905  1
  Zr  Zr37  1  0.49397078  0.10076326  0.89424909  1
  Zr  Zr38  1  0.49762205  0.89974549  0.10409035  1
  Zr  Zr39  1  0.10498811  0.70238228  0.49330212  1
  Zr  Zr40  1  0.70206498  0.89226214  0.70620058  1
  Zr  Zr41  1  0.89634164  0.49593317  0.90370328  1
  Zr  Zr42  1  0.70357042  0.70237416  0.10090652  1
  Zr  Zr43  1  0.89791998  0.50320315  0.09790322  1
  Zr  Zr44  1  0.30609443  0.50266960  0.90682944  1
  Zr  Zr45  1  0.49027839  0.70417746  0.10790343  1
  Zr  Zr46  1  0.10587297  0.51747309  0.89659057  1
  Zr  Zr47  1  0.29942779  0.09732520  0.49616276  1
  Zr  Zr48  1  0.50176472  0.28722772  0.70035452  1
  Zr  Zr49  1  0.88918582  0.28693336  0.50566403  1
  Sc  Sc50  1  0.90593823  0.10437183  0.09692863  1
  Sc  Sc51  1  0.30788878  0.69758750  0.70118573  1
  Sc  Sc52  1  0.90520179  0.10041629  0.90137574  1
  Sc  Sc53  1  0.29781284  0.09501887  0.70861814  1
  Sc  Sc54  1  0.09726917  0.09843868  0.29947147  1
  Sc  Sc55  1  0.29915222  0.70152638  0.50602771  1
  Sc  Sc56  1  0.30557632  0.30053394  0.49448451  1
  Sc  Sc57  1  0.90269335  0.50424621  0.28785499  1
  Sc  Sc58  1  0.50105035  0.09970914  0.29804529  1
  Sc  Sc59  1  0.09092342  0.29125790  0.70538169  1
  Sc  Sc60  1  0.68713234  0.29987762  0.30388971  1
  Sc  Sc61  1  0.29309702  0.30928117  0.09029614  1
  Sc  Sc62  1  0.70721858  0.49273169  0.09414585  1
  Sc  Sc63  1  0.90511567  0.69734683  0.10424619  1
  Sc  Sc64  1  0.69480688  0.70511457  0.30465124  1
  Sc  Sc65  1  0.89744551  0.09962387  0.30778824  1
  Sc  Sc66  1  0.69641781  0.10040328  0.29746973  1
  Sc  Sc67  1  0.09659078  0.69909503  0.30045133  1
  Sc  Sc68  1  0.51497440  0.29949977  0.09520823  1
  Sc  Sc69  1  0.49571489  0.50170034  0.50036292  1
  Sc  Sc70  1  0.09796733  0.10002697  0.89668461  1
  Sc  Sc71  1  0.70950111  0.10400067  0.49936321  1
  Sc  Sc72  1  0.29870602  0.90010491  0.90859318  1
  Sc  Sc73  1  0.70056920  0.70467758  0.88032324  1
  Sc  Sc74  1  0.30488735  0.90124211  0.29132685  1
  Sc  Sc75  1  0.69057481  0.49771492  0.29578971  1
  Sc  Sc76  1  0.08990030  0.08947953  0.50399381  1
  Sc  Sc77  1  0.11305819  0.29988927  0.49592313  1
  Sc  Sc78  1  0.09567682  0.29696318  0.09832043  1
  Sc  Sc79  1  0.30567164  0.09634477  0.30068955  1
  Sc  Sc80  1  0.68744477  0.49311577  0.50585202  1
  Sc  Sc81  1  0.09674563  0.89588108  0.50190324  1
  Sc  Sc82  1  0.11041303  0.50661198  0.29453850  1
  Sc  Sc83  1  0.89813503  0.09189150  0.50619617  1
  Sc  Sc84  1  0.90629703  0.10210532  0.69712124  1
  Sc  Sc85  1  0.30307970  0.09574526  0.09383626  1
  Sc  Sc86  1  0.30583387  0.90073293  0.10105904  1
  Sc  Sc87  1  0.90238361  0.49945741  0.70272818  1
  Sc  Sc88  1  0.49950433  0.89869536  0.88771536  1
  Sc  Sc89  1  0.49877376  0.50278139  0.70297227  1
  Sc  Sc90  1  0.10090495  0.90005188  0.09412933  1
  Sc  Sc91  1  0.90862451  0.70621147  0.89995030  1
  Sc  Sc92  1  0.70369990  0.09539796  0.70261343  1
  Sc  Sc93  1  0.90599549  0.70562187  0.29537147  1
  Sc  Sc94  1  0.90668161  0.30453076  0.10033087  1
  Sc  Sc95  1  0.71395514  0.10205578  0.89970278  1
  Sc  Sc96  1  0.29215853  0.68834460  0.30242547  1
  Sc  Sc97  1  0.50571261  0.30236906  0.89667330  1
  Sc  Sc98  1  0.09546748  0.10147547  0.09662305  1
  Sc  Sc99  1  0.30294114  0.29412420  0.89982240  1
  Nb  Nb100  1  0.89961716  0.90222890  0.49553495  1
  Nb  Nb101  1  0.70466832  0.90298348  0.90178132  1
  Nb  Nb102  1  0.29743610  0.30165592  0.30324746  1
  Nb  Nb103  1  0.49778678  0.30694501  0.29827714  1
  Nb  Nb104  1  0.89951624  0.90164903  0.69859220  1
  Nb  Nb105  1  0.49553751  0.69325944  0.30129556  1
  Nb  Nb106  1  0.10050720  0.09728933  0.69651812  1
  Nb  Nb107  1  0.10271062  0.50199752  0.09858148  1
  Nb  Nb108  1  0.09931217  0.89473580  0.30304433  1
  Nb  Nb109  1  0.30056359  0.70387456  0.09802625  1
  Nb  Nb110  1  0.70261109  0.29701306  0.09919127  1
  Nb  Nb111  1  0.70045771  0.90477810  0.09901758  1
  Nb  Nb112  1  0.50022157  0.90756927  0.69703662  1
  Nb  Nb113  1  0.69987295  0.50520643  0.70533741  1
  Nb  Nb114  1  0.90786632  0.89845334  0.30587171  1
  Nb  Nb115  1  0.10403466  0.70766515  0.90157037  1
  Nb  Nb116  1  0.49945149  0.08719951  0.70302637  1
  Nb  Nb117  1  0.89675263  0.90497375  0.89822405  1
  Nb  Nb118  1  0.49309021  0.50748628  0.29860035  1
  Nb  Nb119  1  0.29452438  0.50885505  0.10515684  1
  Nb  Nb120  1  0.09705576  0.30033830  0.89491202  1
  Nb  Nb121  1  0.90223515  0.29822554  0.29745350  1
  Nb  Nb122  1  0.69891623  0.69787450  0.69638576  1
  Nb  Nb123  1  0.30052349  0.49744738  0.29786377  1
  Nb  Nb124  1  0.90874676  0.29956029  0.89341178  1
  Nb  Nb125  1  0.39714034  0.21430288  0.20287556  1
  Nb  Nb126  1  0.79325991  0.60353568  0.60160195  1
  Nb  Nb127  1  -0.00545086  0.39564968  0.39932630  1
  Nb  Nb128  1  0.39642078  0.40274025  0.20531027  1
  Nb  Nb129  1  0.59971118  0.60826133  -0.00128367  1
  Nb  Nb130  1  0.59977004  -0.00618574  0.40304955  1
  Nb  Nb131  1  0.19743654  -0.00668814  0.39719488  1
  Nb  Nb132  1  -0.00124764  -0.00792204  0.20678846  1
  Nb  Nb133  1  -0.00268382  0.20643805  0.40126298  1
  Nb  Nb134  1  0.19584845  0.59631171  0.60244046  1
  Nb  Nb135  1  0.60588722  -0.00569500  -0.00142882  1
  Nb  Nb136  1  0.20743377  0.20279304  0.20314227  1
  Nb  Nb137  1  0.60502955  0.80366796  -0.00125245  1
  Nb  Nb138  1  0.00738186  0.40457441  -0.00716433  1
  Nb  Nb139  1  0.79561928  0.80899353  -0.00262836  1
  Nb  Nb140  1  -0.00193636  0.39396676  0.59287994  1
  Nb  Nb141  1  0.79812709  0.20777004  0.19957663  1
  Nb  Nb142  1  0.19633521  0.39972360  0.80551665  1
  Nb  Nb143  1  0.79790212  0.59717835  0.40508410  1
  Nb  Nb144  1  0.19887188  0.79835175  0.19708694  1
  Nb  Nb145  1  0.40621610  0.79357091  0.39571714  1
  Nb  Nb146  1  0.79949312  0.39747483  0.80050913  1
  Nb  Nb147  1  0.19338609  0.79872778  0.80505731  1
  Nb  Nb148  1  0.19811266  0.19248001  0.60290227  1
  Nb  Nb149  1  0.80352830  0.39985628  0.39815787  1
  Pd  Pd150  1  0.79349099  0.61464418  -0.01037895  1
  Pd  Pd151  1  -0.00946762  0.60292332  0.80301619  1
  Pd  Pd152  1  -0.00592248  0.59677966  0.39004330  1
  Pd  Pd153  1  0.19225389  0.39306391  0.60831792  1
  Pd  Pd154  1  0.81075935  0.01085097  0.20037814  1
  Pd  Pd155  1  0.40107040  -0.01021668  0.39794549  1
  Pd  Pd156  1  0.59360203  0.80602293  0.39716045  1
  Pd  Pd157  1  0.60216634  0.19074686  -0.01008381  1
  Pd  Pd158  1  0.59093190  0.40358316  0.60846778  1
  Pd  Pd159  1  0.19876499  -0.00799231  0.80859918  1
  Pd  Pd160  1  0.20249092  0.39593974  0.19775000  1
  Pd  Pd161  1  0.60205439  0.79728195  0.19834263  1
  Pd  Pd162  1  0.19647467  0.00240286  -0.00197948  1
  Pd  Pd163  1  0.39019739  -0.00835435  0.79890135  1
  Pd  Pd164  1  0.38997830  0.80752676  0.79813529  1
  Pd  Pd165  1  0.39192623  0.19209409  0.60587302  1
  Pd  Pd166  1  0.39308252  0.60390058  0.40580231  1
  Pd  Pd167  1  0.19271031  0.40292831  -0.00797466  1
  Pd  Pd168  1  0.60622464  0.60026240  0.19452123  1
  Pd  Pd169  1  0.80807434  0.00344810  0.79547186  1
  Pd  Pd170  1  0.80257406  0.40759656  0.60429694  1
  Pd  Pd171  1  0.39640519  0.39370284  0.80008426  1
  Pd  Pd172  1  0.19445178  0.00010228  0.20257865  1
  Pd  Pd173  1  0.81148239  0.20605008  0.00545448  1
  Pd  Pd174  1  0.40898633  -0.00383736  -0.00285889  1
  Pd  Pd175  1  0.40527969  0.39529107  0.00879540  1
  Pd  Pd176  1  0.79510705  0.39344270  0.20590591  1
  Pd  Pd177  1  0.59206424  0.60217100  0.80318009  1
  Pd  Pd178  1  0.61270069  0.00114150  0.59580530  1
  Pd  Pd179  1  0.60540452  0.19245841  0.80346974  1
  Pd  Pd180  1  0.60441389  0.00262198  0.80673208  1
  Pd  Pd181  1  0.40693364  0.39667967  0.60095440  1
  Pd  Pd182  1  0.80444382  0.79747834  0.19971601  1
  Pd  Pd183  1  0.39040504  0.00219493  0.60426107  1
  Pd  Pd184  1  0.60468624  0.59376749  0.40033201  1
  Pd  Pd185  1  0.40627084  0.19955510  0.39429897  1
  Pd  Pd186  1  0.59586131  0.40197018  0.19612506  1
  Pd  Pd187  1  0.79616371  0.00110214  0.39827347  1
  Pd  Pd188  1  0.79350238  0.60298277  0.21004760  1
  Pd  Pd189  1  0.19302083  0.18823849  0.40073541  1
  Pd  Pd190  1  0.40316497  0.20821796  0.00857654  1
  Pd  Pd191  1  0.00421809  0.40740677  0.19682366  1
  Pd  Pd192  1  -0.00232934  0.59965925  0.60287280  1
  Pd  Pd193  1  0.80704582  0.59805214  0.79847006  1
  Pd  Pd194  1  -0.00094338  0.59943218  -0.00040926  1
  Pd  Pd195  1  0.40453119  0.40282449  0.39797152  1
  Pd  Pd196  1  0.60480104  0.18821762  0.60394194  1
  Pd  Pd197  1  0.00297345  0.80384285  0.59845214  1
  Pd  Pd198  1  0.19524599  0.19786732  0.00483495  1
  Pd  Pd199  1  0.59582143  0.19012654  0.39762512  1
  Rh  Rh200  1  0.20786055  0.60433696  0.79381687  1
  Rh  Rh201  1  -0.00498669  0.00242246  0.79710041  1
  Rh  Rh202  1  0.80116944  0.20662991  0.38901345  1
  Rh  Rh203  1  0.60265956  0.59532875  0.60584746  1
  Rh  Rh204  1  0.19578543  0.40591138  0.39194345  1
  Rh  Rh205  1  0.59940640  0.40808869  0.00608435  1
  Rh  Rh206  1  0.00744894  0.59847723  0.19719412  1
  Rh  Rh207  1  0.80536260  0.80404180  0.80575565  1
  Rh  Rh208  1  0.00882472  0.80639060  0.19608509  1
  Rh  Rh209  1  0.60151282  0.20570552  0.20211787  1
  Rh  Rh210  1  0.40116338  0.60170608  0.00443468  1
  Rh  Rh211  1  0.20221171  0.00648790  0.59040788  1
  Rh  Rh212  1  0.40055423  0.01336868  0.19584106  1
  Rh  Rh213  1  -0.00277369  0.18768513  0.20751668  1
  Rh  Rh214  1  0.81097138  0.38866950  -0.00391537  1
  Rh  Rh215  1  -0.00281999  0.00105715  0.00583139  1
  Rh  Rh216  1  0.20460070  0.80266619  0.00216193  1
  Rh  Rh217  1  0.80170649  0.80064782  0.60083567  1
  Rh  Rh218  1  0.00220346  0.20873152  -0.00614572  1
  Rh  Rh219  1  -0.00022559  0.80201410  0.40244413  1
  Rh  Rh220  1  0.01131792  0.20461272  0.58977978  1
  Rh  Rh221  1  0.80529536  0.79461466  0.39313057  1
  Rh  Rh222  1  0.00032359  0.40236952  0.80206246  1
  Rh  Rh223  1  0.19436990  0.20404464  0.79501920  1
  Rh  Rh224  1  0.19846680  0.60922567  0.19207397  1
  Rh  Rh225  1  0.59580222  0.40658402  0.39845681  1
  Rh  Rh226  1  0.20986453  0.80534358  0.38577066  1
  Rh  Rh227  1  0.00104316  0.80682162  0.80005086  1
  Rh  Rh228  1  0.20171999  0.60136307  0.00631887  1
  Rh  Rh229  1  -0.01097275  0.80136367  0.00206167  1
  Rh  Rh230  1  0.80325765  -0.00423869  0.60427347  1
  Rh  Rh231  1  0.00370181  0.00017574  0.39693958  1
  Rh  Rh232  1  0.40455216  0.79727121  0.59741975  1
  Rh  Rh233  1  0.38645190  0.78577426  0.21099913  1
  Rh  Rh234  1  0.40329287  0.80536038  -0.00026770  1
  Rh  Rh235  1  0.60033554  -0.00043663  0.20159303  1
  Rh  Rh236  1  -0.00820669  -0.00715155  0.60141689  1
  Rh  Rh237  1  0.39124382  0.59853106  0.20139324  1
  Rh  Rh238  1  0.59961873  0.80734453  0.60837067  1
  Rh  Rh239  1  0.20459242  0.59622308  0.40698399  1
  Rh  Rh240  1  0.00301407  0.18712467  0.80234254  1
  Rh  Rh241  1  0.59827078  0.80359569  0.79860474  1
  Rh  Rh242  1  0.40255856  0.60001355  0.80052304  1
  Rh  Rh243  1  0.40354975  0.19801066  0.79701842  1
  Rh  Rh244  1  0.39492044  0.59854452  0.59893447  1
  Rh  Rh245  1  0.80209292  -0.00160700  0.00027976  1
  Rh  Rh246  1  0.60528827  0.39736059  0.79425780  1
  Rh  Rh247  1  0.79405492  0.19065687  0.60863911  1
  Rh  Rh248  1  0.80294837  0.20452203  0.80057933  1
  Rh  Rh249  1  0.19139522  0.78693411  0.61248117  1
