# generated using pymatgen
data_ZrScNbPdRh
_symmetry_space_group_name_H-M   'P 1'
_cell_length_a   16.55428712
_cell_length_b   16.55447884
_cell_length_c   16.55263482
_cell_angle_alpha   89.99571720
_cell_angle_beta   90.02063097
_cell_angle_gamma   90.02621875
_symmetry_Int_Tables_number   1
_chemical_formula_structural   ZrScNbPdRh
_chemical_formula_sum   'Zr50 Sc50 Nb50 Pd50 Rh50'
_cell_volume   4536.20899558
_cell_formula_units_Z   50
loop_
 _symmetry_equiv_pos_site_id
 _symmetry_equiv_pos_as_xyz
  1  'x, y, z'
loop_
 _atom_site_type_symbol
 _atom_site_label
 _atom_site_symmetry_multiplicity
 _atom_site_fract_x
 _atom_site_fract_y
 _atom_site_fract_z
 _atom_site_occupancy
  Zr  Zr0  1  0.69744829  0.89731994  0.69511343  1
  Zr  Zr1  1  0.29653026  0.29499572  0.89427198  1
  Zr  Zr2  1  0.10211124  0.70649414  0.69690502  1
  Zr  Zr3  1  0.49726080  0.89762583  0.90239429  1
  Zr  Zr4  1  0.50849635  0.89204135  0.50407833  1
  Zr  Zr5  1  0.29240689  0.29246858  0.10279768  1
  Zr  Zr6  1  0.10088398  0.50092092  0.89638731  1
  Zr  Zr7  1  0.09281645  0.09514744  0.70301646  1
  Zr  Zr8  1  0.10528546  0.10552873  0.10082691  1
  Zr  Zr9  1  0.49858647  0.90219018  0.69123690  1
  Zr  Zr10  1  0.29705963  0.89526630  0.90349231  1
  Zr  Zr11  1  0.89510682  0.50568557  0.69883923  1
  Zr  Zr12  1  0.69974303  0.49871940  0.70256222  1
  Zr  Zr13  1  0.50235618  0.30069888  0.10037818  1
  Zr  Zr14  1  0.69197866  0.69716977  0.90144147  1
  Zr  Zr15  1  0.70031330  0.09018646  0.29853028  1
  Zr  Zr16  1  0.89934880  0.50114136  0.89635499  1
  Zr  Zr17  1  0.30153920  0.10266938  0.48964058  1
  Zr  Zr18  1  0.50521290  0.10070474  0.70216617  1
  Zr  Zr19  1  0.90272445  0.90520174  0.49451837  1
  Zr  Zr20  1  0.30680235  0.90548032  0.29880675  1
  Zr  Zr21  1  0.30881468  0.09907705  0.69819037  1
  Zr  Zr22  1  0.50085690  0.29315191  0.70422213  1
  Zr  Zr23  1  0.89441099  0.29999881  0.49632877  1
  Zr  Zr24  1  0.89587403  0.89322894  0.29329277  1
  Zr  Zr25  1  0.09886772  0.70066265  0.29781499  1
  Zr  Zr26  1  0.09775825  0.69023894  0.10257728  1
  Zr  Zr27  1  0.09670243  0.50371707  0.70263918  1
  Zr  Zr28  1  0.29684941  0.08863132  0.10117189  1
  Zr  Zr29  1  0.70503283  0.49622267  0.49464026  1
  Zr  Zr30  1  0.30867782  0.29983214  0.30401179  1
  Zr  Zr31  1  0.70240425  0.50058936  0.89308377  1
  Zr  Zr32  1  0.50944936  0.70177389  0.30641830  1
  Zr  Zr33  1  0.89942509  0.90375810  0.90317490  1
  Zr  Zr34  1  0.09963086  0.29866623  0.90107780  1
  Zr  Zr35  1  0.08640301  0.09270449  0.49674941  1
  Zr  Zr36  1  0.10368491  0.50974113  0.50028364  1
  Zr  Zr37  1  0.89800900  0.70139530  0.69128855  1
  Zr  Zr38  1  0.89797611  0.10702877  0.50310928  1
  Zr  Zr39  1  0.49941075  0.89553569  0.30853420  1
  Zr  Zr40  1  0.89197921  0.09189853  0.31169396  1
  Zr  Zr41  1  0.10157635  0.90746868  0.88906084  1
  Zr  Zr42  1  0.89542776  0.88901296  0.09658143  1
  Zr  Zr43  1  0.70108388  0.29701849  0.08842028  1
  Zr  Zr44  1  0.10586186  0.89469572  0.69940545  1
  Zr  Zr45  1  0.09392403  0.29854866  0.49768952  1
  Zr  Zr46  1  0.69507019  0.30288393  0.69631520  1
  Zr  Zr47  1  0.30343509  0.30248266  0.49631315  1
  Zr  Zr48  1  0.09939508  0.30270154  0.29369338  1
  Zr  Zr49  1  0.09622624  0.09860784  0.90059545  1
  Sc  Sc50  1  0.69719895  0.50353144  0.30605092  1
  Sc  Sc51  1  0.89358139  0.29769604  0.69265162  1
  Sc  Sc52  1  0.89704413  0.89116234  0.70659198  1
  Sc  Sc53  1  0.70698042  0.69865797  0.69707594  1
  Sc  Sc54  1  0.49751355  0.89134686  0.10381191  1
  Sc  Sc55  1  0.90190285  0.10274965  0.89429622  1
  Sc  Sc56  1  0.50837665  0.50278805  0.49909052  1
  Sc  Sc57  1  0.50342060  0.29738867  0.49886157  1
  Sc  Sc58  1  0.29941616  0.70075432  0.50543643  1
  Sc  Sc59  1  0.70005895  0.70057045  0.49692066  1
  Sc  Sc60  1  0.09337506  0.89607571  0.09263625  1
  Sc  Sc61  1  0.29469963  0.29788736  0.70166285  1
  Sc  Sc62  1  0.50527986  0.51055891  0.70382175  1
  Sc  Sc63  1  0.51073933  0.29564919  0.89909796  1
  Sc  Sc64  1  0.09982485  0.69658108  0.50519933  1
  Sc  Sc65  1  0.70851400  0.10509052  0.90392667  1
  Sc  Sc66  1  0.50034138  0.69749683  0.09945355  1
  Sc  Sc67  1  0.49532762  0.69606389  0.90191508  1
  Sc  Sc68  1  0.29040214  0.09157211  0.90538026  1
  Sc  Sc69  1  0.70205324  0.48879818  0.10528308  1
  Sc  Sc70  1  0.89579821  0.10136820  0.08913679  1
  Sc  Sc71  1  0.10656877  0.69710959  0.90141751  1
  Sc  Sc72  1  0.30092763  0.51419672  0.89948898  1
  Sc  Sc73  1  0.90480522  0.30982310  0.29685561  1
  Sc  Sc74  1  0.30598016  0.70865272  0.70456852  1
  Sc  Sc75  1  0.70561376  0.30922527  0.30699241  1
  Sc  Sc76  1  0.50163989  0.09275831  0.09550503  1
  Sc  Sc77  1  0.31295281  0.89564758  0.50110076  1
  Sc  Sc78  1  0.30589637  0.51494964  0.10569280  1
  Sc  Sc79  1  0.09190331  0.29321085  0.10743609  1
  Sc  Sc80  1  0.70342650  0.30137461  0.50392131  1
  Sc  Sc81  1  0.50053660  0.70412192  0.50406274  1
  Sc  Sc82  1  0.89619566  0.70646486  0.89705113  1
  Sc  Sc83  1  0.10344002  0.30650988  0.70700118  1
  Sc  Sc84  1  0.69672363  0.10371160  0.69952884  1
  Sc  Sc85  1  0.69893749  0.89880032  0.30146971  1
  Sc  Sc86  1  0.69193298  0.70589102  0.10257646  1
  Sc  Sc87  1  0.90055309  0.10547952  0.69687658  1
  Sc  Sc88  1  0.50269107  0.51175464  0.89796285  1
  Sc  Sc89  1  0.29889552  0.69235827  0.29656774  1
  Sc  Sc90  1  0.29446610  0.50435096  0.70170417  1
  Sc  Sc91  1  0.49959392  0.50007891  0.10628648  1
  Sc  Sc92  1  0.09600987  0.90391196  0.29793066  1
  Sc  Sc93  1  0.70282002  0.30506962  0.90141895  1
  Sc  Sc94  1  0.50074040  0.09597523  0.51025264  1
  Sc  Sc95  1  0.50172618  0.49435018  0.29934221  1
  Sc  Sc96  1  0.49654075  0.30823677  0.30677138  1
  Sc  Sc97  1  0.70979441  0.89713295  0.89791295  1
  Sc  Sc98  1  0.10631137  0.10149005  0.30009337  1
  Sc  Sc99  1  0.09789443  0.51009402  0.29934115  1
  Nb  Nb100  1  0.90190860  0.69737368  0.11003931  1
  Nb  Nb101  1  0.49564242  0.09772686  0.90010153  1
  Nb  Nb102  1  0.30046969  0.89686902  0.09785631  1
  Nb  Nb103  1  0.69692868  0.89988546  0.50573166  1
  Nb  Nb104  1  0.89830946  0.69695250  0.49610331  1
  Nb  Nb105  1  0.89010071  0.50061901  0.29736449  1
  Nb  Nb106  1  0.30414154  0.49688983  0.30220604  1
  Nb  Nb107  1  0.69858465  0.90780987  0.09234451  1
  Nb  Nb108  1  0.09937733  0.50042889  0.09832543  1
  Nb  Nb109  1  0.70868287  0.10169894  0.49288029  1
  Nb  Nb110  1  0.49923404  0.70497335  0.70384370  1
  Nb  Nb111  1  0.30703620  0.10035348  0.29838394  1
  Nb  Nb112  1  0.89653103  0.30223341  0.91354246  1
  Nb  Nb113  1  0.90001054  0.49784040  0.10783030  1
  Nb  Nb114  1  0.10242970  0.89697589  0.49797742  1
  Nb  Nb115  1  0.90247479  0.50455172  0.49717770  1
  Nb  Nb116  1  0.69781292  0.10020009  0.09957968  1
  Nb  Nb117  1  0.89299310  0.31061507  0.10361720  1
  Nb  Nb118  1  0.29460193  0.70201466  0.09265955  1
  Nb  Nb119  1  0.89326026  0.70078430  0.29363235  1
  Nb  Nb120  1  0.50058485  0.09777656  0.30039024  1
  Nb  Nb121  1  0.29942987  0.89942746  0.70273927  1
  Nb  Nb122  1  0.30554182  0.70056193  0.90604830  1
  Nb  Nb123  1  0.29897748  0.50148752  0.49892097  1
  Nb  Nb124  1  0.70569784  0.69618414  0.30751181  1
  Nb  Nb125  1  0.80706121  0.60019824  0.01082713  1
  Nb  Nb126  1  0.40420260  0.19298603  0.20130645  1
  Nb  Nb127  1  0.19740008  0.40472812  0.00624514  1
  Nb  Nb128  1  0.20189800  0.40709049  0.20061451  1
  Nb  Nb129  1  0.79664408  -0.00109884  0.59419245  1
  Nb  Nb130  1  0.40142821  0.39956082  0.80063730  1
  Nb  Nb131  1  0.20042482  -0.00161892  0.59723797  1
  Nb  Nb132  1  0.39419740  0.39684571  -0.00346788  1
  Nb  Nb133  1  0.60407215  -0.00135439  -0.00070111  1
  Nb  Nb134  1  -0.00220156  0.40828635  0.59534976  1
  Nb  Nb135  1  0.79511401  0.20135482  0.19654503  1
  Nb  Nb136  1  0.39928763  0.40314210  0.60388299  1
  Nb  Nb137  1  0.20576199  0.80166463  0.19468325  1
  Nb  Nb138  1  0.39752395  0.59450399  0.40106833  1
  Nb  Nb139  1  0.20345866  0.40642624  0.39734138  1
  Nb  Nb140  1  0.39981829  0.19879904  0.00120824  1
  Nb  Nb141  1  0.60386883  0.19210262  0.39487890  1
  Nb  Nb142  1  -0.00229054  0.79495800  0.39929179  1
  Nb  Nb143  1  0.19711462  0.80180775  0.39719646  1
  Nb  Nb144  1  -0.00275587  0.40303558  0.00637708  1
  Nb  Nb145  1  0.60154142  0.19561242  0.20387767  1
  Nb  Nb146  1  0.19523719  0.19191226  0.59545070  1
  Nb  Nb147  1  0.40034223  -0.00291170  0.79964251  1
  Nb  Nb148  1  -0.00578709  0.00061206  0.19679277  1
  Nb  Nb149  1  0.59502694  0.80017981  0.79642922  1
  Pd  Pd150  1  0.59969561  -0.00362267  0.80957971  1
  Pd  Pd151  1  0.40386835  0.79388716  0.00425788  1
  Pd  Pd152  1  0.40854452  0.00143655  0.40734750  1
  Pd  Pd153  1  -0.00513565  -0.01095333  0.60918348  1
  Pd  Pd154  1  0.79454508  0.59971701  0.59232707  1
  Pd  Pd155  1  0.60731129  0.59172692  0.01038333  1
  Pd  Pd156  1  0.20204676  -0.00716325  0.40329858  1
  Pd  Pd157  1  0.19143591  0.80088330  0.00039080  1
  Pd  Pd158  1  0.00151666  0.79661258  0.80516514  1
  Pd  Pd159  1  0.79963597  0.80094173  0.40408473  1
  Pd  Pd160  1  -0.00231725  0.61253638  0.79949641  1
  Pd  Pd161  1  -0.00464736  0.20075557  0.38733373  1
  Pd  Pd162  1  0.19173112  -0.00823495  0.19695595  1
  Pd  Pd163  1  0.78944572  0.59982924  0.19635261  1
  Pd  Pd164  1  0.40887866  -0.00052191  0.19627809  1
  Pd  Pd165  1  0.20627702  0.60740643  0.60722609  1
  Pd  Pd166  1  0.78581346  0.79793090  0.19580109  1
  Pd  Pd167  1  -0.01054250  0.39173330  0.79791442  1
  Pd  Pd168  1  0.19892407  0.39426447  0.59610878  1
  Pd  Pd169  1  0.20550579  0.60952889  0.79574259  1
  Pd  Pd170  1  0.59152704  0.40978002  -0.00612785  1
  Pd  Pd171  1  0.79872894  0.20628535  0.80041566  1
  Pd  Pd172  1  0.59171467  0.40070155  0.59941914  1
  Pd  Pd173  1  0.60560736  0.60554764  0.59937572  1
  Pd  Pd174  1  0.59771251  0.00154351  0.40695929  1
  Pd  Pd175  1  -0.00483213  0.20538207  0.00460656  1
  Pd  Pd176  1  0.60582900  0.80322703  0.20292938  1
  Pd  Pd177  1  -0.00783004  0.59962849  -0.00198587  1
  Pd  Pd178  1  0.39990675  0.59704215  0.59835896  1
  Pd  Pd179  1  0.00360478  0.40911060  0.40063964  1
  Pd  Pd180  1  0.19718066  0.20372780  0.39908239  1
  Pd  Pd181  1  0.80486141  0.39073644  0.79762654  1
  Pd  Pd182  1  -0.00838039  0.60607833  0.39390899  1
  Pd  Pd183  1  0.40629852  0.60612832  0.20595072  1
  Pd  Pd184  1  0.60981429  0.19839435  0.80898793  1
  Pd  Pd185  1  -0.00371520  0.80157699  0.59230590  1
  Pd  Pd186  1  0.80623758  0.00253154  0.18942898  1
  Pd  Pd187  1  0.60549625  0.59793726  0.20203043  1
  Pd  Pd188  1  -0.00496310  0.59443669  0.20622764  1
  Pd  Pd189  1  -0.00065661  0.00166132  0.00443613  1
  Pd  Pd190  1  0.19865530  0.18992806  0.79452561  1
  Pd  Pd191  1  0.59311892  -0.00443902  0.19384251  1
  Pd  Pd192  1  0.79563725  0.78955021  0.00313525  1
  Pd  Pd193  1  0.39739211  0.20750020  0.59721004  1
  Pd  Pd194  1  -0.00632586  0.20889866  0.79700012  1
  Pd  Pd195  1  -0.01625755  0.18980033  0.20406451  1
  Pd  Pd196  1  0.00399490  0.79198939  -0.00596851  1
  Pd  Pd197  1  0.39518293  0.79055829  0.20261917  1
  Pd  Pd198  1  0.60447603  0.39316359  0.20602065  1
  Pd  Pd199  1  0.80294201  0.00358180  0.79077489  1
  Rh  Rh200  1  0.80359155  0.20051368  0.00202974  1
  Rh  Rh201  1  0.80422006  0.40381957  0.39940109  1
  Rh  Rh202  1  0.60106505  0.61020437  0.79325516  1
  Rh  Rh203  1  0.79356889  -0.01133981  0.40700157  1
  Rh  Rh204  1  0.19301043  -0.00680587  0.00436649  1
  Rh  Rh205  1  0.39901704  0.60057339  0.79970492  1
  Rh  Rh206  1  0.59588122  0.60133920  0.40057131  1
  Rh  Rh207  1  0.80223967  0.80515234  0.59239322  1
  Rh  Rh208  1  0.80695177  0.40679776  0.59707354  1
  Rh  Rh209  1  0.20823467  0.20189376  0.21196846  1
  Rh  Rh210  1  0.20697289  0.80736433  0.59200928  1
  Rh  Rh211  1  0.20138364  0.59974626  0.19804082  1
  Rh  Rh212  1  0.40376224  0.80403587  0.79947963  1
  Rh  Rh213  1  0.39946451  0.79861622  0.60229660  1
  Rh  Rh214  1  0.20942758  0.40865253  0.81015323  1
  Rh  Rh215  1  0.39466839  -0.00389041  0.60156772  1
  Rh  Rh216  1  0.00126651  -0.00608188  0.38978410  1
  Rh  Rh217  1  0.00475830  0.40893449  0.19758617  1
  Rh  Rh218  1  0.60908278  0.79820086  0.40097385  1
  Rh  Rh219  1  0.41397785  0.19361122  0.39554675  1
  Rh  Rh220  1  0.00517860  0.80415715  0.20327252  1
  Rh  Rh221  1  0.79663527  0.39787425  0.20581765  1
  Rh  Rh222  1  0.79762440  0.20823503  0.39132659  1
  Rh  Rh223  1  0.79247566  0.19353853  0.60219384  1
  Rh  Rh224  1  -0.00161117  0.59832443  0.60192602  1
  Rh  Rh225  1  0.59516781  0.18753412  -0.00033960  1
  Rh  Rh226  1  0.60785107  0.19731009  0.58886987  1
  Rh  Rh227  1  0.80373254  0.59953007  0.39798912  1
  Rh  Rh228  1  0.59282388  0.40254563  0.80101991  1
  Rh  Rh229  1  0.80026027  0.60672827  0.80593859  1
  Rh  Rh230  1  0.61120495  0.00991233  0.59354974  1
  Rh  Rh231  1  0.39905307  0.19609610  0.80931346  1
  Rh  Rh232  1  0.40233588  0.41098921  0.41353876  1
  Rh  Rh233  1  0.39353825  0.78647916  0.39654289  1
  Rh  Rh234  1  0.79211955  0.79496623  0.80050284  1
  Rh  Rh235  1  0.60262100  0.78942159  0.60557694  1
  Rh  Rh236  1  0.00848060  0.21388464  0.60839254  1
  Rh  Rh237  1  0.40097344  0.59910366  0.00327158  1
  Rh  Rh238  1  0.60125395  0.80826688  -0.00694054  1
  Rh  Rh239  1  0.20759808  0.00302215  0.79183065  1
  Rh  Rh240  1  0.20548530  0.79400255  0.80670170  1
  Rh  Rh241  1  -0.00974637  -0.00309709  0.79644955  1
  Rh  Rh242  1  0.40341982  0.00051082  -0.00363708  1
  Rh  Rh243  1  0.80570832  0.41149588  -0.00121894  1
  Rh  Rh244  1  0.20968069  0.60249844  0.40033812  1
  Rh  Rh245  1  0.60012406  0.39322904  0.40338932  1
  Rh  Rh246  1  0.79716522  0.00231462  -0.00205280  1
  Rh  Rh247  1  0.19935515  0.20099547  -0.00335237  1
  Rh  Rh248  1  0.20364818  0.59777849  0.00128331  1
  Rh  Rh249  1  0.39305767  0.39382471  0.18898948  1
