# generated using pymatgen
data_ZrScNbPdRh
_symmetry_space_group_name_H-M   'P 1'
_cell_length_a   16.56480147
_cell_length_b   16.56821949
_cell_length_c   16.56527973
_cell_angle_alpha   89.96701634
_cell_angle_beta   89.97467802
_cell_angle_gamma   90.00575660
_symmetry_Int_Tables_number   1
_chemical_formula_structural   ZrScNbPdRh
_chemical_formula_sum   'Zr50 Sc50 Nb50 Pd50 Rh50'
_cell_volume   4546.32765451
_cell_formula_units_Z   50
loop_
 _symmetry_equiv_pos_site_id
 _symmetry_equiv_pos_as_xyz
  1  'x, y, z'
loop_
 _atom_site_type_symbol
 _atom_site_label
 _atom_site_symmetry_multiplicity
 _atom_site_fract_x
 _atom_site_fract_y
 _atom_site_fract_z
 _atom_site_occupancy
  Zr  Zr0  1  0.30187912  0.89857492  0.09540739  1
  Zr  Zr1  1  0.10458919  0.49199482  0.10022125  1
  Zr  Zr2  1  0.29883319  0.10893380  0.30423001  1
  Zr  Zr3  1  0.70367388  0.10040267  0.10202413  1
  Zr  Zr4  1  0.50104535  0.10215017  0.11091680  1
  Zr  Zr5  1  0.49052937  0.09193460  0.30228343  1
  Zr  Zr6  1  0.29701699  0.09706935  0.10429832  1
  Zr  Zr7  1  0.29139514  0.29513694  0.49720148  1
  Zr  Zr8  1  0.70075933  0.68831600  0.30001696  1
  Zr  Zr9  1  0.10116600  0.29806842  0.69269113  1
  Zr  Zr10  1  0.90065806  0.69990266  0.89748713  1
  Zr  Zr11  1  0.70315305  0.89358431  0.29583788  1
  Zr  Zr12  1  0.50489179  0.09515761  0.50442539  1
  Zr  Zr13  1  0.50014167  0.89428378  0.28746970  1
  Zr  Zr14  1  0.70361499  0.50001735  0.89034358  1
  Zr  Zr15  1  0.09678310  0.09174968  0.10914071  1
  Zr  Zr16  1  0.10760015  0.30297297  0.30220437  1
  Zr  Zr17  1  0.29763140  0.30638988  0.69487946  1
  Zr  Zr18  1  0.70255351  0.30515616  0.69711003  1
  Zr  Zr19  1  0.89914942  0.89380923  0.89523725  1
  Zr  Zr20  1  0.30991752  0.09058603  0.49127831  1
  Zr  Zr21  1  0.50347848  0.29774894  0.10034598  1
  Zr  Zr22  1  0.50521501  0.69969306  0.29734693  1
  Zr  Zr23  1  0.09828741  0.89622852  0.28932804  1
  Zr  Zr24  1  0.29515566  0.30190682  0.89245124  1
  Zr  Zr25  1  0.10208464  0.71262219  0.10154505  1
  Zr  Zr26  1  0.29677066  0.70572367  0.50233130  1
  Zr  Zr27  1  0.10186991  0.69779535  0.30398989  1
  Zr  Zr28  1  0.89971484  0.29908371  0.89945609  1
  Zr  Zr29  1  0.28871279  0.50367393  0.30518188  1
  Zr  Zr30  1  0.49488023  0.50797374  0.09789828  1
  Zr  Zr31  1  0.69928991  0.09928345  0.69836332  1
  Zr  Zr32  1  0.30345568  0.10238658  0.71525974  1
  Zr  Zr33  1  0.70679281  0.70326766  0.89624509  1
  Zr  Zr34  1  0.69913973  0.28586452  0.10006738  1
  Zr  Zr35  1  0.10186490  0.09362548  0.70545206  1
  Zr  Zr36  1  0.10179581  0.50287525  0.89315614  1
  Zr  Zr37  1  0.70673213  0.89221852  0.50364896  1
  Zr  Zr38  1  0.89492592  0.70555433  0.49607533  1
  Zr  Zr39  1  0.30614305  0.90703115  0.31316111  1
  Zr  Zr40  1  0.49322741  0.50403262  0.90087825  1
  Zr  Zr41  1  0.90373839  0.30299008  0.69124594  1
  Zr  Zr42  1  0.90080913  0.69662148  0.09963886  1
  Zr  Zr43  1  0.91285291  0.90072433  0.69503909  1
  Zr  Zr44  1  0.90377823  0.49873159  0.50082337  1
  Zr  Zr45  1  0.90245348  0.50358622  0.89712930  1
  Zr  Zr46  1  0.10504446  0.09908996  0.29991876  1
  Zr  Zr47  1  0.49591738  0.09461667  0.69528259  1
  Zr  Zr48  1  0.89230175  0.10241989  0.09900800  1
  Zr  Zr49  1  0.69730471  0.69309007  0.50982098  1
  Sc  Sc50  1  0.49777206  0.30091463  0.69879376  1
  Sc  Sc51  1  0.09138862  0.69867990  0.70638397  1
  Sc  Sc52  1  0.09377907  0.49994044  0.49511845  1
  Sc  Sc53  1  0.49299495  0.89583842  0.69866375  1
  Sc  Sc54  1  0.69948126  0.70397539  0.09691387  1
  Sc  Sc55  1  0.69608544  0.29435031  0.89519405  1
  Sc  Sc56  1  0.90537803  0.89024878  0.30082112  1
  Sc  Sc57  1  0.30562912  0.90697958  0.90119542  1
  Sc  Sc58  1  0.08933595  0.49864603  0.30614924  1
  Sc  Sc59  1  0.48239902  0.09979533  0.88857716  1
  Sc  Sc60  1  0.31292226  0.70184087  0.69754782  1
  Sc  Sc61  1  0.69786474  0.49465495  0.49574248  1
  Sc  Sc62  1  0.89171618  0.30084653  0.50045061  1
  Sc  Sc63  1  0.09634825  0.90065033  0.89862892  1
  Sc  Sc64  1  0.49438153  0.49427868  0.69138898  1
  Sc  Sc65  1  0.49495356  0.70957246  0.89575957  1
  Sc  Sc66  1  0.30139868  0.49702583  0.50630916  1
  Sc  Sc67  1  0.09947954  0.30810103  0.89568705  1
  Sc  Sc68  1  0.70800535  0.10605394  0.90202190  1
  Sc  Sc69  1  0.89548554  0.30483446  0.30305267  1
  Sc  Sc70  1  0.50012380  0.71172031  0.09725583  1
  Sc  Sc71  1  0.69943818  0.89715153  0.09873461  1
  Sc  Sc72  1  0.49996365  0.30408121  0.89671199  1
  Sc  Sc73  1  0.10263136  0.09329397  0.89030831  1
  Sc  Sc74  1  0.90578493  0.49859634  0.10865482  1
  Sc  Sc75  1  0.29868241  0.71410313  0.30967295  1
  Sc  Sc76  1  0.09788820  0.69730048  0.49589558  1
  Sc  Sc77  1  0.70233363  0.88824283  0.90290201  1
  Sc  Sc78  1  0.11071418  0.10226780  0.50425752  1
  Sc  Sc79  1  0.70777152  0.10235202  0.50092728  1
  Sc  Sc80  1  0.90002990  0.09159649  0.89598634  1
  Sc  Sc81  1  0.89980545  0.30028415  0.10849644  1
  Sc  Sc82  1  0.70434874  0.10737924  0.29658364  1
  Sc  Sc83  1  0.09353164  0.70431754  0.90058274  1
  Sc  Sc84  1  0.89667116  0.69265160  0.70071915  1
  Sc  Sc85  1  0.89764647  0.10116618  0.69826322  1
  Sc  Sc86  1  0.50575175  0.28759783  0.30191555  1
  Sc  Sc87  1  0.49537087  0.90178263  0.51160067  1
  Sc  Sc88  1  0.90361691  0.90811015  0.10063865  1
  Sc  Sc89  1  0.09793245  0.30508507  0.10810448  1
  Sc  Sc90  1  0.69789619  0.89391056  0.69594693  1
  Sc  Sc91  1  0.30082505  0.49928938  0.89677939  1
  Sc  Sc92  1  0.28704697  0.31227792  0.10352738  1
  Sc  Sc93  1  0.89906945  0.09705919  0.28878775  1
  Sc  Sc94  1  0.70889373  0.51451498  0.11431774  1
  Sc  Sc95  1  0.30527685  0.71031649  0.09171714  1
  Sc  Sc96  1  0.30399999  0.70109428  0.89850705  1
  Sc  Sc97  1  0.50832650  0.49764355  0.50339064  1
  Sc  Sc98  1  0.90833553  0.69708677  0.30495104  1
  Sc  Sc99  1  0.50594787  0.30739522  0.50250602  1
  Nb  Nb100  1  0.89927170  0.50048698  0.69794632  1
  Nb  Nb101  1  0.29606381  0.10542564  0.89968471  1
  Nb  Nb102  1  0.50191779  0.69613054  0.50819681  1
  Nb  Nb103  1  0.50628564  0.50492269  0.30153835  1
  Nb  Nb104  1  0.10120553  0.90025797  0.52279883  1
  Nb  Nb105  1  0.69332252  0.49901894  0.30184774  1
  Nb  Nb106  1  0.30072242  0.50535864  0.09837804  1
  Nb  Nb107  1  0.70182639  0.30721561  0.31193531  1
  Nb  Nb108  1  0.08949370  0.29867732  0.49818397  1
  Nb  Nb109  1  0.09804050  0.50033806  0.70043685  1
  Nb  Nb110  1  0.69971016  0.29627583  0.49143511  1
  Nb  Nb111  1  0.10519120  0.89804467  0.09853217  1
  Nb  Nb112  1  0.28997825  0.49812332  0.70040790  1
  Nb  Nb113  1  0.29469736  0.89444664  0.51278437  1
  Nb  Nb114  1  0.70720654  0.50542561  0.69591780  1
  Nb  Nb115  1  0.90307246  0.90019213  0.49941760  1
  Nb  Nb116  1  0.50250152  0.90339384  0.90261043  1
  Nb  Nb117  1  0.50051654  0.89989132  0.09612790  1
  Nb  Nb118  1  0.29200811  0.89784036  0.69034986  1
  Nb  Nb119  1  0.69380303  0.69261859  0.69678320  1
  Nb  Nb120  1  0.10673382  0.90183284  0.69797088  1
  Nb  Nb121  1  0.29785650  0.30293234  0.30274829  1
  Nb  Nb122  1  0.89587539  0.10119772  0.49360297  1
  Nb  Nb123  1  0.50943124  0.69877674  0.68812743  1
  Nb  Nb124  1  0.89034420  0.49655692  0.30150929  1
  Nb  Nb125  1  0.00004807  0.19567304  0.40277615  1
  Nb  Nb126  1  0.40099806  0.40617451  0.20794488  1
  Nb  Nb127  1  0.79454501  0.40116078  0.00078848  1
  Nb  Nb128  1  0.20096785  0.80614678  0.79211889  1
  Nb  Nb129  1  0.60105713  0.59956536  -0.00927309  1
  Nb  Nb130  1  0.60065087  0.40290893  0.20421791  1
  Nb  Nb131  1  0.80313040  0.79424341  0.20105741  1
  Nb  Nb132  1  0.20068657  0.59966304  0.00487349  1
  Nb  Nb133  1  0.40151037  0.40272023  0.39131507  1
  Nb  Nb134  1  0.39475992  0.60044136  0.20518481  1
  Nb  Nb135  1  0.40517263  0.59963493  0.39954771  1
  Nb  Nb136  1  -0.00070445  -0.00136882  0.40975367  1
  Nb  Nb137  1  0.60706352  0.40946349  0.00618984  1
  Nb  Nb138  1  0.59296532  -0.00023252  -0.00349741  1
  Nb  Nb139  1  0.59730728  -0.00398307  0.80559585  1
  Nb  Nb140  1  0.60646684  0.20219573  0.59848673  1
  Nb  Nb141  1  0.19814100  0.59580981  0.60911959  1
  Nb  Nb142  1  0.60491283  -0.00719568  0.39952308  1
  Nb  Nb143  1  0.38899671  0.19934525  0.00003187  1
  Nb  Nb144  1  0.60029071  0.60254763  0.79309939  1
  Nb  Nb145  1  0.00502431  0.19655123  0.00152138  1
  Nb  Nb146  1  0.20353160  0.60282778  0.19593589  1
  Nb  Nb147  1  0.19698964  0.19696184  -0.00034436  1
  Nb  Nb148  1  0.59983120  0.79736258  0.40537885  1
  Nb  Nb149  1  0.80522222  -0.00549556  0.40213535  1
  Pd  Pd150  1  -0.00277601  0.19185091  0.59268031  1
  Pd  Pd151  1  0.40560413  0.20593104  0.59373242  1
  Pd  Pd152  1  0.39887625  0.39114935  0.00515241  1
  Pd  Pd153  1  0.18909196  0.81228224  0.40838502  1
  Pd  Pd154  1  0.39569076  0.59525172  0.59746163  1
  Pd  Pd155  1  0.40651192  0.20949580  0.40725530  1
  Pd  Pd156  1  0.60476414  0.00090815  0.19934670  1
  Pd  Pd157  1  0.80083995  0.59537679  0.40308378  1
  Pd  Pd158  1  0.00518228  0.59646408  0.20339165  1
  Pd  Pd159  1  0.20238653  0.61179105  0.79993948  1
  Pd  Pd160  1  0.79150332  -0.00759554  0.79943555  1
  Pd  Pd161  1  0.20854818  -0.00670037  0.20484209  1
  Pd  Pd162  1  0.60096969  0.18988920  0.40247907  1
  Pd  Pd163  1  0.39969460  0.40111540  0.79440653  1
  Pd  Pd164  1  0.18928077  -0.01083865  0.40684827  1
  Pd  Pd165  1  0.38871475  0.21266120  0.19368544  1
  Pd  Pd166  1  0.79100423  0.39528750  0.19648718  1
  Pd  Pd167  1  0.40584418  0.00850998  0.00337071  1
  Pd  Pd168  1  0.00813824  0.59902615  0.00276407  1
  Pd  Pd169  1  0.58533794  0.18914542  -0.01426389  1
  Pd  Pd170  1  0.01076614  0.80823455  0.40741252  1
  Pd  Pd171  1  0.00009228  0.40116980  0.79312563  1
  Pd  Pd172  1  0.18963940  0.40549532  0.59163258  1
  Pd  Pd173  1  0.00230526  0.78983003  0.60197854  1
  Pd  Pd174  1  0.40590356  0.59942406  0.79059588  1
  Pd  Pd175  1  0.20986887  0.01287814  0.60239158  1
  Pd  Pd176  1  0.79653911  0.40321354  0.59259995  1
  Pd  Pd177  1  0.59609330  0.40780885  0.79705814  1
  Pd  Pd178  1  0.79789131  0.59365898  0.00103751  1
  Pd  Pd179  1  0.80516729  0.20095108  0.79629577  1
  Pd  Pd180  1  0.20539445  0.19219318  0.60162534  1
  Pd  Pd181  1  0.59657665  0.80015455  0.79587372  1
  Pd  Pd182  1  0.39556999  0.80706981  0.79783601  1
  Pd  Pd183  1  0.80264296  0.79963774  0.78716027  1
  Pd  Pd184  1  0.19880585  0.40347535  0.40889969  1
  Pd  Pd185  1  -0.00171043  0.01173106  0.59722432  1
  Pd  Pd186  1  0.19500176  0.00120694  -0.00591375  1
  Pd  Pd187  1  0.80395114  0.39707948  0.80050700  1
  Pd  Pd188  1  0.80230202  -0.00115418  0.59792124  1
  Pd  Pd189  1  0.00087641  0.19767107  0.80496588  1
  Pd  Pd190  1  -0.00059767  0.20450560  0.20396711  1
  Pd  Pd191  1  -0.00315227  0.80723629  0.00333968  1
  Pd  Pd192  1  -0.00745057  0.39379008  0.00459397  1
  Pd  Pd193  1  0.80565245  0.79534800  0.60961570  1
  Pd  Pd194  1  0.41079132  0.80049295  0.41121819  1
  Pd  Pd195  1  0.00337983  0.60398286  0.59920780  1
  Pd  Pd196  1  0.00395345  0.00394750  -0.00260567  1
  Pd  Pd197  1  0.79105186  -0.00607134  -0.00429856  1
  Pd  Pd198  1  0.21041192  0.79833217  0.20173430  1
  Pd  Pd199  1  0.59375614  0.19177835  0.79667907  1
  Rh  Rh200  1  0.39483215  0.39784726  0.59367079  1
  Rh  Rh201  1  0.39947933  0.21121005  0.80215332  1
  Rh  Rh202  1  0.60543172  0.00289039  0.60267281  1
  Rh  Rh203  1  0.39928846  0.61113420  0.00330965  1
  Rh  Rh204  1  -0.00686236  0.39203871  0.39935487  1
  Rh  Rh205  1  0.20503215  0.60331809  0.40746642  1
  Rh  Rh206  1  0.81230803  0.20625030  -0.00201249  1
  Rh  Rh207  1  0.41040624  -0.01142672  0.40589799  1
  Rh  Rh208  1  0.79790167  0.20793679  0.20821735  1
  Rh  Rh209  1  0.80016477  0.40542042  0.40325359  1
  Rh  Rh210  1  0.20187256  0.20307594  0.19579218  1
  Rh  Rh211  1  0.79555857  0.20374100  0.59978999  1
  Rh  Rh212  1  0.20588841  -0.00981387  0.80248549  1
  Rh  Rh213  1  0.79899099  0.60225693  0.79357230  1
  Rh  Rh214  1  -0.00253537  0.40261848  0.21059460  1
  Rh  Rh215  1  0.19291278  0.20583144  0.80085717  1
  Rh  Rh216  1  0.19399751  0.20123114  0.40172959  1
  Rh  Rh217  1  0.39785816  -0.00978053  0.79421530  1
  Rh  Rh218  1  0.80468946  -0.01152971  0.20692216  1
  Rh  Rh219  1  0.39452837  0.80100468  0.19683639  1
  Rh  Rh220  1  0.80263335  0.59632401  0.59727923  1
  Rh  Rh221  1  0.80964285  0.80213682  0.00996376  1
  Rh  Rh222  1  0.19386923  0.78514531  0.60810272  1
  Rh  Rh223  1  0.59472379  0.39830671  0.39512154  1
  Rh  Rh224  1  0.20083724  0.40448776  -0.00781136  1
  Rh  Rh225  1  0.59625920  0.60548183  0.40960434  1
  Rh  Rh226  1  0.40139281  0.79961132  0.59958114  1
  Rh  Rh227  1  0.19984863  0.79889786  -0.01388269  1
  Rh  Rh228  1  0.60093565  0.58686093  0.60474462  1
  Rh  Rh229  1  0.19538839  0.39959838  0.79650106  1
  Rh  Rh230  1  0.59361599  0.60123522  0.18820687  1
  Rh  Rh231  1  0.79589940  0.79999960  0.39438046  1
  Rh  Rh232  1  0.60724362  0.20299722  0.21170008  1
  Rh  Rh233  1  0.39403151  -0.00646365  0.19833012  1
  Rh  Rh234  1  0.80962493  0.60525316  0.20862280  1
  Rh  Rh235  1  0.80742429  0.19650302  0.39313387  1
  Rh  Rh236  1  0.39029934  -0.00103962  0.60455844  1
  Rh  Rh237  1  0.00473477  0.80496090  0.79451335  1
  Rh  Rh238  1  -0.00812597  0.59592468  0.39864011  1
  Rh  Rh239  1  0.60898955  0.79490390  0.19902555  1
  Rh  Rh240  1  -0.00197375  -0.00498093  0.20346091  1
  Rh  Rh241  1  0.59652327  0.80097731  -0.00160786  1
  Rh  Rh242  1  0.60865573  0.39562316  0.60122799  1
  Rh  Rh243  1  0.00175179  0.40312300  0.60012057  1
  Rh  Rh244  1  0.59739162  0.80299849  0.59687870  1
  Rh  Rh245  1  0.20100849  0.40808507  0.20567057  1
  Rh  Rh246  1  -0.00183689  -0.00268239  0.79705669  1
  Rh  Rh247  1  -0.00477652  0.59620268  0.79716589  1
  Rh  Rh248  1  -0.00692396  0.80215855  0.19246936  1
  Rh  Rh249  1  0.40267041  0.80399024  -0.00429140  1
