# generated using pymatgen
data_ZrScNbPdRh
_symmetry_space_group_name_H-M   'P 1'
_cell_length_a   16.56163482
_cell_length_b   16.56095955
_cell_length_c   16.56306891
_cell_angle_alpha   89.99611035
_cell_angle_beta   90.04225582
_cell_angle_gamma   89.99460920
_symmetry_Int_Tables_number   1
_chemical_formula_structural   ZrScNbPdRh
_chemical_formula_sum   'Zr50 Sc50 Nb50 Pd50 Rh50'
_cell_volume   4542.86036965
_cell_formula_units_Z   50
loop_
 _symmetry_equiv_pos_site_id
 _symmetry_equiv_pos_as_xyz
  1  'x, y, z'
loop_
 _atom_site_type_symbol
 _atom_site_label
 _atom_site_symmetry_multiplicity
 _atom_site_fract_x
 _atom_site_fract_y
 _atom_site_fract_z
 _atom_site_occupancy
  Zr  Zr0  1  0.49941943  0.70601234  0.11242408  1
  Zr  Zr1  1  0.29608414  0.29685099  0.70448467  1
  Zr  Zr2  1  0.70120281  0.90216958  0.90410008  1
  Zr  Zr3  1  0.90233712  0.30573816  0.50487680  1
  Zr  Zr4  1  0.30245689  0.29446498  0.30477113  1
  Zr  Zr5  1  0.30746130  0.30036975  0.49351834  1
  Zr  Zr6  1  0.89764815  0.30149098  0.89555316  1
  Zr  Zr7  1  0.08926895  0.50311479  0.70509145  1
  Zr  Zr8  1  0.30199487  0.89526560  0.70080028  1
  Zr  Zr9  1  0.10255143  0.50457018  0.28542011  1
  Zr  Zr10  1  0.50602631  0.09923805  0.89894666  1
  Zr  Zr11  1  0.71142745  0.69649249  0.70621316  1
  Zr  Zr12  1  0.89902084  0.10244379  0.49620103  1
  Zr  Zr13  1  0.49635177  0.89741107  0.69431714  1
  Zr  Zr14  1  0.09973829  0.89655200  0.09190065  1
  Zr  Zr15  1  0.09742554  0.10271679  0.31269912  1
  Zr  Zr16  1  0.69793653  0.30315883  0.90371560  1
  Zr  Zr17  1  0.10553148  0.89783055  0.89599469  1
  Zr  Zr18  1  0.70178882  0.50609810  0.89670045  1
  Zr  Zr19  1  0.50330824  0.70377754  0.49866003  1
  Zr  Zr20  1  0.90495434  0.69142647  0.69391023  1
  Zr  Zr21  1  0.50387938  0.29725108  0.70681047  1
  Zr  Zr22  1  0.50406305  0.29851215  0.89973408  1
  Zr  Zr23  1  0.89865547  0.69967165  0.50264918  1
  Zr  Zr24  1  0.69044479  0.89397819  0.10222960  1
  Zr  Zr25  1  0.49089027  0.70132344  0.70239319  1
  Zr  Zr26  1  0.50439813  0.90529411  0.10108362  1
  Zr  Zr27  1  0.50289080  0.49763537  0.90222071  1
  Zr  Zr28  1  0.10184165  0.50782948  0.50654711  1
  Zr  Zr29  1  0.50269230  0.29625261  0.30141034  1
  Zr  Zr30  1  0.89938298  0.29778974  0.29883108  1
  Zr  Zr31  1  0.70508272  0.49981222  0.08925559  1
  Zr  Zr32  1  0.70416831  0.90101828  0.49677009  1
  Zr  Zr33  1  0.29460749  0.90853748  0.09856552  1
  Zr  Zr34  1  0.51012548  0.90164640  0.90680739  1
  Zr  Zr35  1  0.09315249  0.28721300  0.50061159  1
  Zr  Zr36  1  0.70369541  0.30700758  0.70909466  1
  Zr  Zr37  1  0.29534663  0.09251873  0.89777282  1
  Zr  Zr38  1  0.10171450  0.29514179  0.29854768  1
  Zr  Zr39  1  0.90320296  0.29222805  0.09480312  1
  Zr  Zr40  1  0.09957905  0.69143284  0.69845074  1
  Zr  Zr41  1  0.70030191  0.10391364  0.29844539  1
  Zr  Zr42  1  0.89813544  0.90201739  0.49909889  1
  Zr  Zr43  1  0.91159554  0.70135210  0.10090177  1
  Zr  Zr44  1  0.10644318  0.90102769  0.69725853  1
  Zr  Zr45  1  0.29316840  0.29512773  0.10280174  1
  Zr  Zr46  1  0.89360427  0.69674823  0.89536513  1
  Zr  Zr47  1  0.29615269  0.69782291  0.29069289  1
  Zr  Zr48  1  0.49744836  0.69688889  0.30075274  1
  Zr  Zr49  1  0.28895817  0.89972195  0.30472071  1
  Sc  Sc50  1  0.69269828  0.69491506  0.30822595  1
  Sc  Sc51  1  0.29706335  0.10090682  0.29474621  1
  Sc  Sc52  1  0.29461378  0.30108341  0.89682543  1
  Sc  Sc53  1  0.50001404  0.29369315  0.49346980  1
  Sc  Sc54  1  0.70373280  0.10125110  0.89599084  1
  Sc  Sc55  1  0.69514031  0.29791541  0.10091542  1
  Sc  Sc56  1  0.50132082  0.69417271  0.89392699  1
  Sc  Sc57  1  0.70579117  0.50320340  0.49440121  1
  Sc  Sc58  1  0.10641921  0.69887498  0.90348924  1
  Sc  Sc59  1  0.29696401  0.69562236  0.50293335  1
  Sc  Sc60  1  0.49126420  0.50357449  0.49118794  1
  Sc  Sc61  1  0.70837231  0.10571312  0.10553769  1
  Sc  Sc62  1  0.49449538  0.50579052  0.71700298  1
  Sc  Sc63  1  0.70022867  0.09676412  0.49870086  1
  Sc  Sc64  1  0.30618601  0.50467154  0.30214633  1
  Sc  Sc65  1  0.29404566  0.51008830  0.70555665  1
  Sc  Sc66  1  0.49975712  0.50505224  0.30269792  1
  Sc  Sc67  1  0.70230984  0.49729407  0.30955847  1
  Sc  Sc68  1  0.09996809  0.70223883  0.50441477  1
  Sc  Sc69  1  0.69375589  0.69549253  0.09665471  1
  Sc  Sc70  1  0.29994379  0.10095357  0.50194046  1
  Sc  Sc71  1  0.30160274  0.50585755  0.49791118  1
  Sc  Sc72  1  0.28434008  0.49789895  0.90153882  1
  Sc  Sc73  1  0.69528745  0.29880874  0.49382716  1
  Sc  Sc74  1  0.50581783  0.10393586  0.69601374  1
  Sc  Sc75  1  0.28447463  0.50024256  0.10178903  1
  Sc  Sc76  1  0.90089611  0.10170287  0.71077982  1
  Sc  Sc77  1  0.29752224  0.89883362  0.51150314  1
  Sc  Sc78  1  0.10704295  0.89644670  0.49734450  1
  Sc  Sc79  1  0.50134407  0.10471885  0.50273077  1
  Sc  Sc80  1  0.89067342  0.50126846  0.50126249  1
  Sc  Sc81  1  0.89642171  0.09560930  0.29431614  1
  Sc  Sc82  1  0.70528543  0.90772173  0.69097052  1
  Sc  Sc83  1  0.90840441  0.90997938  0.10099224  1
  Sc  Sc84  1  0.69614836  0.29767230  0.29764258  1
  Sc  Sc85  1  0.50378145  0.10017475  0.29518707  1
  Sc  Sc86  1  0.90200024  0.90836117  0.90025430  1
  Sc  Sc87  1  0.09451584  0.30496965  0.10136061  1
  Sc  Sc88  1  0.28779232  0.89576170  0.89942124  1
  Sc  Sc89  1  0.50814916  0.50441337  0.10457369  1
  Sc  Sc90  1  0.89619726  0.10315214  0.90705967  1
  Sc  Sc91  1  0.70175073  0.69660591  0.49880836  1
  Sc  Sc92  1  0.51312825  0.89703077  0.29437427  1
  Sc  Sc93  1  0.69804871  0.91014444  0.29884124  1
  Sc  Sc94  1  0.89358009  0.89357698  0.68924164  1
  Sc  Sc95  1  0.09598944  0.09111669  0.88603191  1
  Sc  Sc96  1  0.29900028  0.09629927  0.69360444  1
  Sc  Sc97  1  0.09701357  0.89503898  0.30315990  1
  Sc  Sc98  1  0.50487337  0.89609217  0.50747162  1
  Sc  Sc99  1  0.10114740  0.30640491  0.89532623  1
  Nb  Nb100  1  0.09310952  0.50221155  0.08851556  1
  Nb  Nb101  1  0.30218711  0.69939879  0.71319503  1
  Nb  Nb102  1  0.30224749  0.70362545  0.10007492  1
  Nb  Nb103  1  0.09510066  0.70093154  0.29218609  1
  Nb  Nb104  1  0.70266521  0.70172946  0.90038095  1
  Nb  Nb105  1  0.90512863  0.30981311  0.69706031  1
  Nb  Nb106  1  0.69929759  0.49884837  0.70057170  1
  Nb  Nb107  1  0.09533979  0.49998653  0.90807360  1
  Nb  Nb108  1  0.89599561  0.49069168  0.69941372  1
  Nb  Nb109  1  0.08927433  0.29913522  0.69095404  1
  Nb  Nb110  1  0.90761728  0.70124778  0.29600479  1
  Nb  Nb111  1  0.90697250  0.50167296  0.09571648  1
  Nb  Nb112  1  0.89906716  0.50146452  0.30037000  1
  Nb  Nb113  1  0.50075301  0.29882290  0.10017116  1
  Nb  Nb114  1  0.90722681  0.10796445  0.10216603  1
  Nb  Nb115  1  0.09466456  0.10301759  0.50608228  1
  Nb  Nb116  1  0.10113466  0.10497426  0.68903284  1
  Nb  Nb117  1  0.70054887  0.10762190  0.69330665  1
  Nb  Nb118  1  0.10439404  0.69644612  0.10940947  1
  Nb  Nb119  1  0.90518491  0.50070026  0.90902065  1
  Nb  Nb120  1  0.90142035  0.89393383  0.29878419  1
  Nb  Nb121  1  0.49209728  0.09949899  0.10006198  1
  Nb  Nb122  1  0.29870764  0.09587531  0.09648511  1
  Nb  Nb123  1  0.09351829  0.09892844  0.09965696  1
  Nb  Nb124  1  0.29987239  0.70170397  0.89869610  1
  Nb  Nb125  1  0.39738243  0.80390570  0.39686170  1
  Nb  Nb126  1  0.80958783  0.59878195  0.20007570  1
  Nb  Nb127  1  0.19360327  0.39932154  0.40313514  1
  Nb  Nb128  1  0.40001195  0.39701602  0.00726840  1
  Nb  Nb129  1  0.00398782  0.00583380  0.59798541  1
  Nb  Nb130  1  0.40282460  -0.00372118  0.80047847  1
  Nb  Nb131  1  0.40024108  -0.00756810  0.39967359  1
  Nb  Nb132  1  0.40320228  0.39364328  0.19513810  1
  Nb  Nb133  1  0.39952640  0.39877513  0.60574593  1
  Nb  Nb134  1  0.80176247  0.20598178  0.60749207  1
  Nb  Nb135  1  0.39681611  0.79560287  0.00303763  1
  Nb  Nb136  1  0.19830045  0.39526692  0.60016773  1
  Nb  Nb137  1  0.80766500  0.40705345  0.19591339  1
  Nb  Nb138  1  0.60086396  0.59364316  0.60753887  1
  Nb  Nb139  1  0.39348544  0.60317399  0.00331175  1
  Nb  Nb140  1  0.79903522  0.79887202  0.00369580  1
  Nb  Nb141  1  0.80664544  0.80079461  0.39126462  1
  Nb  Nb142  1  -0.00219557  0.60038801  0.39043275  1
  Nb  Nb143  1  0.59424304  0.40738266  0.60504794  1
  Nb  Nb144  1  0.39800495  0.19730603  0.00519480  1
  Nb  Nb145  1  0.60739626  0.79956034  0.80107580  1
  Nb  Nb146  1  0.00302353  0.40650710  0.39678794  1
  Nb  Nb147  1  0.80483337  0.79591706  0.20166491  1
  Nb  Nb148  1  0.19980050  0.19079463  0.00322367  1
  Nb  Nb149  1  0.00051655  0.79714815  0.79575814  1
  Pd  Pd150  1  0.80096166  -0.00128084  0.79427819  1
  Pd  Pd151  1  0.18785997  0.00423844  0.20155527  1
  Pd  Pd152  1  0.80293812  0.39522123  0.00210571  1
  Pd  Pd153  1  -0.00370600  -0.00901382  0.78852742  1
  Pd  Pd154  1  0.78814492  0.39760868  0.59524416  1
  Pd  Pd155  1  0.19139559  0.19099328  0.19467086  1
  Pd  Pd156  1  0.19337000  0.60183044  0.39521534  1
  Pd  Pd157  1  0.20457630  0.79005191  0.60372734  1
  Pd  Pd158  1  -0.00378723  0.79805149  -0.00924317  1
  Pd  Pd159  1  0.61155336  0.01443730  0.00864009  1
  Pd  Pd160  1  0.19435438  0.80378086  0.19735478  1
  Pd  Pd161  1  0.40644311  0.80776400  0.81332129  1
  Pd  Pd162  1  0.61124332  0.79052672  0.60824838  1
  Pd  Pd163  1  0.59205416  0.00278229  0.40366278  1
  Pd  Pd164  1  0.00420851  0.60978290  -0.00531331  1
  Pd  Pd165  1  0.00677056  0.00020961  0.20482175  1
  Pd  Pd166  1  0.40296499  0.20403058  0.60085146  1
  Pd  Pd167  1  0.80827234  0.58868055  0.79896960  1
  Pd  Pd168  1  0.59958460  0.00424031  0.59778738  1
  Pd  Pd169  1  -0.00432925  0.40095195  0.19942483  1
  Pd  Pd170  1  0.39795517  -0.00420492  -0.00817031  1
  Pd  Pd171  1  0.01049369  0.19892982  -0.01168661  1
  Pd  Pd172  1  0.20158878  0.60542796  0.00267498  1
  Pd  Pd173  1  0.39725177  0.81412540  0.20195001  1
  Pd  Pd174  1  0.20644042  0.40096068  0.20616078  1
  Pd  Pd175  1  0.00241417  0.00603961  -0.00499094  1
  Pd  Pd176  1  0.20605653  0.20402932  0.59676323  1
  Pd  Pd177  1  -0.00182991  0.40397766  0.80588085  1
  Pd  Pd178  1  0.79861305  -0.00095761  0.01074095  1
  Pd  Pd179  1  0.20415416  0.00498599  0.40987044  1
  Pd  Pd180  1  0.59148459  0.60623097  -0.00034004  1
  Pd  Pd181  1  -0.00059120  -0.00217259  0.40327282  1
  Pd  Pd182  1  0.80307428  0.81029723  0.80442430  1
  Pd  Pd183  1  0.60374283  0.40503073  0.20105510  1
  Pd  Pd184  1  0.79980015  0.20170269  0.79810414  1
  Pd  Pd185  1  0.19051768  0.19709256  0.80184579  1
  Pd  Pd186  1  0.39232669  0.40519565  0.80417966  1
  Pd  Pd187  1  0.61206407  0.59354144  0.20529148  1
  Pd  Pd188  1  0.79795604  0.20312684  0.40484307  1
  Pd  Pd189  1  0.59571923  0.40392726  0.40768780  1
  Pd  Pd190  1  0.19205905  0.40324622  0.79194310  1
  Pd  Pd191  1  0.39828369  0.19003218  0.80473252  1
  Pd  Pd192  1  0.00311393  0.20188906  0.79953118  1
  Pd  Pd193  1  0.00219415  0.79417190  0.40450056  1
  Pd  Pd194  1  0.59938002  0.19343673  0.00619981  1
  Pd  Pd195  1  0.40119627  -0.00420367  0.21018956  1
  Pd  Pd196  1  0.60089506  -0.00293353  0.78929221  1
  Pd  Pd197  1  0.40237269  0.59511130  0.60203626  1
  Pd  Pd198  1  0.80127757  -0.00508282  0.19667123  1
  Pd  Pd199  1  0.40240043  0.19993632  0.19931077  1
  Rh  Rh200  1  0.39705276  0.40107352  0.39464012  1
  Rh  Rh201  1  0.40439929  0.00079622  0.59931314  1
  Rh  Rh202  1  0.39241660  0.79179991  0.59250516  1
  Rh  Rh203  1  -0.01375124  0.19266369  0.60972551  1
  Rh  Rh204  1  0.20371852  0.79496613  0.00592072  1
  Rh  Rh205  1  0.59736883  0.19568122  0.19542397  1
  Rh  Rh206  1  0.80821450  0.01680874  0.60471247  1
  Rh  Rh207  1  0.79441758  0.79561344  0.58958211  1
  Rh  Rh208  1  0.80164663  -0.00562001  0.39126772  1
  Rh  Rh209  1  0.59735681  0.59609664  0.41005728  1
  Rh  Rh210  1  0.19319428  0.00269453  0.59745795  1
  Rh  Rh211  1  0.40275752  0.18306713  0.39494456  1
  Rh  Rh212  1  0.59734410  0.78893975  -0.00792316  1
  Rh  Rh213  1  0.00296404  0.80773981  0.19541076  1
  Rh  Rh214  1  0.60250526  0.40370923  0.80095730  1
  Rh  Rh215  1  -0.00255024  0.59934128  0.80815211  1
  Rh  Rh216  1  0.80688571  0.61158224  0.39290643  1
  Rh  Rh217  1  0.60091360  0.19446115  0.39774448  1
  Rh  Rh218  1  0.60482305  0.60815273  0.79534839  1
  Rh  Rh219  1  0.61112229  0.79419565  0.20878708  1
  Rh  Rh220  1  0.60121221  0.01066336  0.19371830  1
  Rh  Rh221  1  0.80604948  0.40803684  0.80732267  1
  Rh  Rh222  1  0.20325004  0.19795655  0.40553288  1
  Rh  Rh223  1  0.59680360  0.40071788  -0.00056149  1
  Rh  Rh224  1  0.80236025  0.20947512  0.19679038  1
  Rh  Rh225  1  0.00173277  0.19310094  0.20470868  1
  Rh  Rh226  1  0.19606683  0.60083122  0.80493367  1
  Rh  Rh227  1  0.80060440  0.19910542  0.00208851  1
  Rh  Rh228  1  0.39460328  0.58625347  0.18968160  1
  Rh  Rh229  1  0.80372977  0.39371300  0.39273600  1
  Rh  Rh230  1  0.38796685  0.59384243  0.81472569  1
  Rh  Rh231  1  0.00489658  0.40767324  0.59380623  1
  Rh  Rh232  1  0.00159329  0.39653921  -0.00295298  1
  Rh  Rh233  1  0.61019551  0.21063453  0.60134439  1
  Rh  Rh234  1  0.19537051  0.39132516  0.00033203  1
  Rh  Rh235  1  0.19322404  0.79086722  0.79518074  1
  Rh  Rh236  1  -0.00725890  0.20198174  0.39488816  1
  Rh  Rh237  1  0.00409094  0.81040279  0.60410228  1
  Rh  Rh238  1  0.20482836  0.59972041  0.60788686  1
  Rh  Rh239  1  0.20657011  0.00351057  0.78867645  1
  Rh  Rh240  1  0.20058652  0.59956820  0.19465611  1
  Rh  Rh241  1  0.39766729  0.61289675  0.39867808  1
  Rh  Rh242  1  0.18864051  0.00659041  0.00076988  1
  Rh  Rh243  1  0.60738329  0.19695152  0.79974067  1
  Rh  Rh244  1  0.20352245  0.78967043  0.39800209  1
  Rh  Rh245  1  -0.00984091  0.59143299  0.59183345  1
  Rh  Rh246  1  0.79589562  0.59365623  0.60360644  1
  Rh  Rh247  1  0.60269722  0.80309997  0.39851656  1
  Rh  Rh248  1  0.00102915  0.59600616  0.19721567  1
  Rh  Rh249  1  0.80448978  0.60758989  0.00534340  1
