# generated using pymatgen
data_ZrScNbPdRh
_symmetry_space_group_name_H-M   'P 1'
_cell_length_a   16.55689181
_cell_length_b   16.55478609
_cell_length_c   16.55366108
_cell_angle_alpha   89.98183552
_cell_angle_beta   90.00625192
_cell_angle_gamma   90.00051463
_symmetry_Int_Tables_number   1
_chemical_formula_structural   ZrScNbPdRh
_chemical_formula_sum   'Zr50 Sc50 Nb50 Pd50 Rh50'
_cell_volume   4537.28875848
_cell_formula_units_Z   50
loop_
 _symmetry_equiv_pos_site_id
 _symmetry_equiv_pos_as_xyz
  1  'x, y, z'
loop_
 _atom_site_type_symbol
 _atom_site_label
 _atom_site_symmetry_multiplicity
 _atom_site_fract_x
 _atom_site_fract_y
 _atom_site_fract_z
 _atom_site_occupancy
  Zr  Zr0  1  0.69532536  0.70246398  0.69761300  1
  Zr  Zr1  1  0.30171869  0.09433483  0.29886001  1
  Zr  Zr2  1  0.10225432  0.70180663  0.29442123  1
  Zr  Zr3  1  0.90237494  0.09619266  0.29891188  1
  Zr  Zr4  1  0.69087944  0.49868712  0.49297204  1
  Zr  Zr5  1  0.90108874  0.50479354  0.90932949  1
  Zr  Zr6  1  0.69632573  0.50856943  0.69872362  1
  Zr  Zr7  1  0.30099763  0.10102772  0.90528064  1
  Zr  Zr8  1  0.10197670  0.50225422  0.50087602  1
  Zr  Zr9  1  0.10432725  0.30667725  0.70500386  1
  Zr  Zr10  1  0.51392466  0.90554034  0.90809237  1
  Zr  Zr11  1  0.89329871  0.30092630  0.10057354  1
  Zr  Zr12  1  0.90306095  0.69237706  0.29863738  1
  Zr  Zr13  1  0.29278621  0.49571739  0.09844266  1
  Zr  Zr14  1  0.50171988  0.10166669  0.89640533  1
  Zr  Zr15  1  0.69869744  0.50104187  0.30086092  1
  Zr  Zr16  1  0.90096180  0.49828233  0.10519493  1
  Zr  Zr17  1  0.70596238  0.70073242  0.30128077  1
  Zr  Zr18  1  0.70485493  0.49116744  0.09727400  1
  Zr  Zr19  1  0.90588327  0.09930317  0.90210803  1
  Zr  Zr20  1  0.90567329  0.09825321  0.50057715  1
  Zr  Zr21  1  0.69682458  0.89225186  0.09101874  1
  Zr  Zr22  1  0.49987849  0.30049290  0.49623876  1
  Zr  Zr23  1  0.10078348  0.69991726  0.90144289  1
  Zr  Zr24  1  0.50179829  0.49572816  0.70366446  1
  Zr  Zr25  1  0.50070386  0.69307102  0.90126561  1
  Zr  Zr26  1  0.88951330  0.70633282  0.69744283  1
  Zr  Zr27  1  0.50516557  0.30161005  0.09598115  1
  Zr  Zr28  1  0.10336640  0.29646733  0.90186865  1
  Zr  Zr29  1  0.30069671  0.69597959  0.90724431  1
  Zr  Zr30  1  0.10735258  0.69595415  0.69737079  1
  Zr  Zr31  1  0.50107364  0.09552738  0.70026051  1
  Zr  Zr32  1  0.90453308  0.10414411  0.09782946  1
  Zr  Zr33  1  0.30100677  0.29915239  0.09863674  1
  Zr  Zr34  1  0.30673558  0.90613432  0.90523524  1
  Zr  Zr35  1  0.30324968  0.30239810  0.70324513  1
  Zr  Zr36  1  0.29664512  0.68893964  0.10972131  1
  Zr  Zr37  1  0.69404389  0.10198365  0.30240944  1
  Zr  Zr38  1  0.11145456  0.90003965  0.30441297  1
  Zr  Zr39  1  0.89787769  0.90395023  0.10111903  1
  Zr  Zr40  1  0.29920330  0.90084069  0.69616446  1
  Zr  Zr41  1  0.69388440  0.09463989  0.89522630  1
  Zr  Zr42  1  0.49440354  0.10259803  0.31328461  1
  Zr  Zr43  1  0.11208373  0.30583276  0.10800175  1
  Zr  Zr44  1  0.10204593  0.70374743  0.49736385  1
  Zr  Zr45  1  0.29793452  0.10256001  0.10344500  1
  Zr  Zr46  1  0.30061006  0.29831510  0.90007098  1
  Zr  Zr47  1  0.49884502  0.50791770  0.49585108  1
  Zr  Zr48  1  0.90357399  0.90131672  0.88809349  1
  Zr  Zr49  1  0.09942165  0.08462905  0.69206674  1
  Sc  Sc50  1  0.29356110  0.28742470  0.28945215  1
  Sc  Sc51  1  0.70292161  0.71084700  0.90128107  1
  Sc  Sc52  1  0.30423833  0.09733917  0.49381625  1
  Sc  Sc53  1  0.09763168  0.09656100  0.91011714  1
  Sc  Sc54  1  0.50406637  0.90250743  0.69486324  1
  Sc  Sc55  1  0.48571079  0.49500280  0.10046770  1
  Sc  Sc56  1  0.09345745  0.50042406  0.89896346  1
  Sc  Sc57  1  0.71308903  0.89591398  0.29149305  1
  Sc  Sc58  1  0.30808017  0.51135427  0.28681945  1
  Sc  Sc59  1  0.91230626  0.89579270  0.49832235  1
  Sc  Sc60  1  0.08714845  0.50007676  0.29429772  1
  Sc  Sc61  1  0.69728522  0.49705733  0.89532402  1
  Sc  Sc62  1  0.30095300  0.89193101  0.49819002  1
  Sc  Sc63  1  0.89886225  0.30231528  0.49332419  1
  Sc  Sc64  1  0.90840703  0.30631159  0.90390738  1
  Sc  Sc65  1  0.09872120  0.69385281  0.10205898  1
  Sc  Sc66  1  0.10548378  0.90662097  0.50609790  1
  Sc  Sc67  1  0.09652097  0.10070810  0.09789482  1
  Sc  Sc68  1  0.10513023  0.50093013  0.70433853  1
  Sc  Sc69  1  0.09740185  0.90276560  0.10410894  1
  Sc  Sc70  1  0.89737573  0.70215768  0.49184241  1
  Sc  Sc71  1  0.49912079  0.49556845  0.89879147  1
  Sc  Sc72  1  0.89532610  0.50087627  0.71388064  1
  Sc  Sc73  1  0.30031951  0.50131065  0.69101047  1
  Sc  Sc74  1  0.69382978  0.69796771  0.50408768  1
  Sc  Sc75  1  0.90073827  0.09080525  0.70323418  1
  Sc  Sc76  1  0.71291756  0.70278772  0.09517413  1
  Sc  Sc77  1  0.68648926  0.29960389  0.90759103  1
  Sc  Sc78  1  0.89594396  0.30329180  0.70016257  1
  Sc  Sc79  1  0.30870742  0.50262032  0.90635086  1
  Sc  Sc80  1  0.69964763  0.89546278  0.70535026  1
  Sc  Sc81  1  0.69082859  0.30515387  0.29378716  1
  Sc  Sc82  1  0.69851896  0.30713414  0.70231996  1
  Sc  Sc83  1  0.90507044  0.89556685  0.29609023  1
  Sc  Sc84  1  0.90088556  0.70176642  0.90340424  1
  Sc  Sc85  1  0.49509981  0.10362799  0.10282708  1
  Sc  Sc86  1  0.49496972  0.90571896  0.49968264  1
  Sc  Sc87  1  0.69002348  0.10106017  0.50072637  1
  Sc  Sc88  1  0.30593841  0.09810715  0.70290946  1
  Sc  Sc89  1  0.69897233  0.09688604  0.69862224  1
  Sc  Sc90  1  0.50382887  0.69198130  0.69770501  1
  Sc  Sc91  1  0.49576754  0.70001705  0.49929597  1
  Sc  Sc92  1  0.90177218  0.69497447  0.09339405  1
  Sc  Sc93  1  0.48098038  0.69126343  0.30581802  1
  Sc  Sc94  1  0.30440325  0.29830012  0.50346133  1
  Sc  Sc95  1  0.30578390  0.69914304  0.50229427  1
  Sc  Sc96  1  0.68561388  0.89877514  0.50692784  1
  Sc  Sc97  1  0.70040246  0.11547440  0.10165401  1
  Sc  Sc98  1  0.29839951  0.69760740  0.69533927  1
  Sc  Sc99  1  0.09657875  0.89234160  0.69698468  1
  Nb  Nb100  1  0.10497548  0.29603380  0.30452850  1
  Nb  Nb101  1  0.10358858  0.29519304  0.49517198  1
  Nb  Nb102  1  0.49542908  0.30140737  0.70227869  1
  Nb  Nb103  1  0.89654108  0.49543080  0.30579818  1
  Nb  Nb104  1  0.10377465  0.50522352  0.10212305  1
  Nb  Nb105  1  0.49656679  0.30075734  0.30182043  1
  Nb  Nb106  1  0.69625316  0.30308944  0.09949301  1
  Nb  Nb107  1  0.29756880  0.50098779  0.49494187  1
  Nb  Nb108  1  0.89921565  0.90593191  0.69960924  1
  Nb  Nb109  1  0.50247869  0.69980140  0.09704900  1
  Nb  Nb110  1  0.30438790  0.90185701  0.11123808  1
  Nb  Nb111  1  0.48887046  0.90152947  0.29682866  1
  Nb  Nb112  1  0.50329864  0.10240048  0.49634536  1
  Nb  Nb113  1  0.49911637  0.89606746  0.10483679  1
  Nb  Nb114  1  0.10132093  0.10070511  0.49511501  1
  Nb  Nb115  1  0.90347067  0.49943988  0.49083291  1
  Nb  Nb116  1  0.69971547  0.29774216  0.50197623  1
  Nb  Nb117  1  0.50339992  0.50022350  0.30501776  1
  Nb  Nb118  1  0.30596822  0.89274504  0.29484565  1
  Nb  Nb119  1  0.29238459  0.70698918  0.30333075  1
  Nb  Nb120  1  0.90281431  0.30798623  0.29924530  1
  Nb  Nb121  1  0.10580940  0.10885687  0.31767593  1
  Nb  Nb122  1  0.10231824  0.89582753  0.89877440  1
  Nb  Nb123  1  0.49915515  0.30566080  0.89236541  1
  Nb  Nb124  1  0.70494736  0.90211425  0.90244214  1
  Nb  Nb125  1  0.59142708  0.79697104  0.20136704  1
  Nb  Nb126  1  0.20175171  0.59850986  0.39645554  1
  Nb  Nb127  1  0.80036552  0.00309722  0.40457175  1
  Nb  Nb128  1  0.00359087  0.20734231  0.21154601  1
  Nb  Nb129  1  0.79832922  0.20079626  0.39820721  1
  Nb  Nb130  1  0.00611718  0.20452890  0.59833380  1
  Nb  Nb131  1  0.59999784  0.59930207  0.00756388  1
  Nb  Nb132  1  0.79846587  0.00028468  -0.00473884  1
  Nb  Nb133  1  0.20662385  0.80467013  0.00470031  1
  Nb  Nb134  1  -0.00580564  0.59591661  0.59781368  1
  Nb  Nb135  1  0.80190100  0.40618711  0.59023235  1
  Nb  Nb136  1  -0.00270522  0.40200825  0.59545727  1
  Nb  Nb137  1  0.59303622  -0.00884344  0.20245227  1
  Nb  Nb138  1  0.20319278  0.40167406  0.39644493  1
  Nb  Nb139  1  0.00173252  0.19817186  0.79442603  1
  Nb  Nb140  1  0.59139256  0.20490203  0.59994327  1
  Nb  Nb141  1  0.19974889  -0.00605595  0.80543488  1
  Nb  Nb142  1  0.19348594  0.19681938  0.59697197  1
  Nb  Nb143  1  0.40221945  0.80157377  0.80716384  1
  Nb  Nb144  1  0.39804136  0.40314260  0.39433671  1
  Nb  Nb145  1  0.59598672  0.60272449  0.19760063  1
  Nb  Nb146  1  0.80362841  0.19818867  0.80379232  1
  Nb  Nb147  1  0.40027890  0.80199109  0.00717450  1
  Nb  Nb148  1  0.59255160  0.80238701  0.38682523  1
  Nb  Nb149  1  0.80305533  -0.00324984  0.59622825  1
  Pd  Pd150  1  -0.00157552  0.79446210  0.79295677  1
  Pd  Pd151  1  0.59420062  0.80213668  0.79955161  1
  Pd  Pd152  1  0.40644716  0.20421870  -0.00194488  1
  Pd  Pd153  1  0.20833018  0.41228912  0.80787081  1
  Pd  Pd154  1  0.19829813  0.39394552  0.59404193  1
  Pd  Pd155  1  0.79623771  0.39466894  -0.00895559  1
  Pd  Pd156  1  0.79534468  0.20075065  -0.00901385  1
  Pd  Pd157  1  0.39735459  0.39384567  0.20715095  1
  Pd  Pd158  1  0.40057433  0.40572415  0.59372021  1
  Pd  Pd159  1  0.20831667  0.80385123  0.80398894  1
  Pd  Pd160  1  0.80602860  0.59270133  0.59131219  1
  Pd  Pd161  1  0.40137469  0.19971406  0.80122182  1
  Pd  Pd162  1  0.01285404  0.00864114  0.20931207  1
  Pd  Pd163  1  0.19786196  0.40641323  -0.00845213  1
  Pd  Pd164  1  0.40101015  0.78889357  0.19842965  1
  Pd  Pd165  1  0.79012806  0.00358582  0.19307657  1
  Pd  Pd166  1  0.19412042  0.00514500  0.20258007  1
  Pd  Pd167  1  0.79797028  0.20081897  0.60225341  1
  Pd  Pd168  1  0.60304864  0.39684104  0.60191088  1
  Pd  Pd169  1  0.79833413  0.60024739  0.40659267  1
  Pd  Pd170  1  0.39790580  0.00347878  0.59345224  1
  Pd  Pd171  1  0.40008671  0.19434345  0.59816263  1
  Pd  Pd172  1  0.60504268  0.20613985  0.79171931  1
  Pd  Pd173  1  0.60495348  0.01135606  0.01450001  1
  Pd  Pd174  1  0.20682286  0.59270160  0.80471856  1
  Pd  Pd175  1  0.00527148  0.80352765  0.00460659  1
  Pd  Pd176  1  0.00177042  0.39712961  0.19873019  1
  Pd  Pd177  1  0.00531057  0.80369388  0.39662534  1
  Pd  Pd178  1  0.80265919  0.20910533  0.20983861  1
  Pd  Pd179  1  0.40518662  -0.00054304  0.00949121  1
  Pd  Pd180  1  0.39630920  0.60176221  0.79199146  1
  Pd  Pd181  1  0.60447789  -0.01219628  0.39198325  1
  Pd  Pd182  1  -0.00825999  0.20454189  0.39994465  1
  Pd  Pd183  1  0.00706615  0.40049502  0.00795187  1
  Pd  Pd184  1  0.59139250  0.19688818  0.20130905  1
  Pd  Pd185  1  0.79493912  0.60806093  0.80992273  1
  Pd  Pd186  1  0.40583460  0.79679057  0.60800993  1
  Pd  Pd187  1  0.79776381  0.39305234  0.80496273  1
  Pd  Pd188  1  0.79297174  0.39279567  0.39877491  1
  Pd  Pd189  1  0.19687175  -0.00578726  0.00220446  1
  Pd  Pd190  1  0.79904131  0.59877766  0.19777374  1
  Pd  Pd191  1  -0.00185417  0.79689309  0.19512426  1
  Pd  Pd192  1  -0.00067223  0.79366853  0.60241987  1
  Pd  Pd193  1  0.00897659  0.39940078  0.40171245  1
  Pd  Pd194  1  0.20911586  -0.00598081  0.40412623  1
  Pd  Pd195  1  0.59435175  0.40748929  0.19727403  1
  Pd  Pd196  1  0.79773671  0.80992280  0.59235445  1
  Pd  Pd197  1  0.79134550  0.81076377  0.41069057  1
  Pd  Pd198  1  -0.00331102  0.60549676  0.79387162  1
  Pd  Pd199  1  0.19309622  0.18531236  0.79333854  1
  Rh  Rh200  1  0.60441682  0.20892894  0.40444011  1
  Rh  Rh201  1  0.60141280  -0.00821521  0.79389613  1
  Rh  Rh202  1  0.40370927  0.00658648  0.20027805  1
  Rh  Rh203  1  0.20339245  0.79863985  0.40263041  1
  Rh  Rh204  1  0.59822345  0.39873581  0.79896794  1
  Rh  Rh205  1  0.19412184  0.59423332  0.20830460  1
  Rh  Rh206  1  0.39999372  -0.00643533  0.79849252  1
  Rh  Rh207  1  0.00349509  0.60170095  0.39935468  1
  Rh  Rh208  1  0.01353382  0.00054385  0.80408905  1
  Rh  Rh209  1  0.59953997  0.61311364  0.39146834  1
  Rh  Rh210  1  0.40430696  0.20123832  0.20250542  1
  Rh  Rh211  1  0.79246947  0.59721480  -0.00486938  1
  Rh  Rh212  1  0.00698364  0.21153082  0.00780998  1
  Rh  Rh213  1  0.39490247  0.20772437  0.39697068  1
  Rh  Rh214  1  -0.00519579  0.59618004  0.19927116  1
  Rh  Rh215  1  0.19985385  0.80319970  0.19252613  1
  Rh  Rh216  1  0.81214944  0.80849343  -0.00483170  1
  Rh  Rh217  1  0.80035934  0.80059366  0.79921206  1
  Rh  Rh218  1  0.00158343  -0.00747705  0.39520771  1
  Rh  Rh219  1  0.59558904  0.60060880  0.59876683  1
  Rh  Rh220  1  0.40081649  0.39290282  -0.00443435  1
  Rh  Rh221  1  0.59412072  0.20083032  -0.00097943  1
  Rh  Rh222  1  0.79367640  0.00234390  0.79714682  1
  Rh  Rh223  1  -0.00459609  -0.00949707  -0.00248989  1
  Rh  Rh224  1  0.59517254  0.39371253  0.39688945  1
  Rh  Rh225  1  0.79849954  0.39732147  0.20600970  1
  Rh  Rh226  1  -0.00539317  -0.00128247  0.59625199  1
  Rh  Rh227  1  0.59260615  0.79585872  0.59256546  1
  Rh  Rh228  1  0.40557869  0.60064357  0.19588910  1
  Rh  Rh229  1  0.40090991  0.59605737  0.60007388  1
  Rh  Rh230  1  0.40096493  0.80314090  0.39938131  1
  Rh  Rh231  1  0.60300843  0.00739185  0.60155394  1
  Rh  Rh232  1  0.20103383  0.79827391  0.59686726  1
  Rh  Rh233  1  0.39656474  0.40211398  0.80030192  1
  Rh  Rh234  1  0.00441757  0.59683556  0.00367148  1
  Rh  Rh235  1  0.20912129  0.00366394  0.60026538  1
  Rh  Rh236  1  0.19081590  0.18781472  0.19964627  1
  Rh  Rh237  1  0.40529031  0.59993885  0.00725229  1
  Rh  Rh238  1  -0.00248563  0.39613898  0.79537275  1
  Rh  Rh239  1  0.59421278  0.40565204  0.00120707  1
  Rh  Rh240  1  0.39613954  -0.00626048  0.40173362  1
  Rh  Rh241  1  0.38931786  0.59595036  0.40093514  1
  Rh  Rh242  1  0.59702295  0.79223876  0.00180623  1
  Rh  Rh243  1  0.19777614  0.60349816  0.59251089  1
  Rh  Rh244  1  0.19917655  0.19925796  0.00447134  1
  Rh  Rh245  1  0.20010408  0.40875701  0.21078953  1
  Rh  Rh246  1  0.21146084  0.20483109  0.40707476  1
  Rh  Rh247  1  0.19268612  0.59905927  -0.00219789  1
  Rh  Rh248  1  0.80715067  0.79251270  0.19480205  1
  Rh  Rh249  1  0.60571423  0.60076722  0.80868934  1
