# generated using pymatgen
data_ZrScNbPdRh
_symmetry_space_group_name_H-M   'P 1'
_cell_length_a   16.56027763
_cell_length_b   16.55928542
_cell_length_c   16.55446848
_cell_angle_alpha   90.00093731
_cell_angle_beta   90.00729226
_cell_angle_gamma   89.96553741
_symmetry_Int_Tables_number   1
_chemical_formula_structural   ZrScNbPdRh
_chemical_formula_sum   'Zr50 Sc50 Nb50 Pd50 Rh50'
_cell_volume   4539.67083710
_cell_formula_units_Z   50
loop_
 _symmetry_equiv_pos_site_id
 _symmetry_equiv_pos_as_xyz
  1  'x, y, z'
loop_
 _atom_site_type_symbol
 _atom_site_label
 _atom_site_symmetry_multiplicity
 _atom_site_fract_x
 _atom_site_fract_y
 _atom_site_fract_z
 _atom_site_occupancy
  Zr  Zr0  1  0.30150526  0.89716590  0.30032097  1
  Zr  Zr1  1  0.70694513  0.29891103  0.69346419  1
  Zr  Zr2  1  0.70515632  0.10151475  0.70428548  1
  Zr  Zr3  1  0.89651804  0.30940356  0.10244756  1
  Zr  Zr4  1  0.50086303  0.89400979  0.30033609  1
  Zr  Zr5  1  0.30333851  0.90962733  0.11187469  1
  Zr  Zr6  1  0.50515315  0.49949855  0.69887877  1
  Zr  Zr7  1  0.30222962  0.89478384  0.69702063  1
  Zr  Zr8  1  0.70372351  0.09514336  0.89468047  1
  Zr  Zr9  1  0.30278704  0.10398324  0.09894489  1
  Zr  Zr10  1  0.10207573  0.31008136  0.30523317  1
  Zr  Zr11  1  0.50571067  0.89449667  0.89326259  1
  Zr  Zr12  1  0.29311540  0.70819205  0.69387240  1
  Zr  Zr13  1  0.89664605  0.49403497  0.09830873  1
  Zr  Zr14  1  0.91358008  0.89456899  0.50514922  1
  Zr  Zr15  1  0.90041874  0.29179057  0.90981517  1
  Zr  Zr16  1  0.09700955  0.89719918  0.89564689  1
  Zr  Zr17  1  0.30324815  0.10139168  0.69573939  1
  Zr  Zr18  1  0.49934392  0.30045029  0.09681011  1
  Zr  Zr19  1  0.29741898  0.69725515  0.30764492  1
  Zr  Zr20  1  0.29295100  0.49928869  0.69551938  1
  Zr  Zr21  1  0.11142033  0.90502108  0.30070533  1
  Zr  Zr22  1  0.90519543  0.49418006  0.29733793  1
  Zr  Zr23  1  0.69340558  0.10014539  0.10283687  1
  Zr  Zr24  1  0.09101865  0.30210092  0.09521957  1
  Zr  Zr25  1  0.29678034  0.89202668  0.50113420  1
  Zr  Zr26  1  0.09180056  0.09975729  0.50036145  1
  Zr  Zr27  1  0.29630014  0.70932301  0.89625586  1
  Zr  Zr28  1  0.89424691  0.50420313  0.50789988  1
  Zr  Zr29  1  0.09972085  0.90272700  0.50258597  1
  Zr  Zr30  1  0.69703871  0.30419198  0.10516810  1
  Zr  Zr31  1  0.50402267  0.30706667  0.29378454  1
  Zr  Zr32  1  0.90061921  0.11968184  0.10367422  1
  Zr  Zr33  1  0.50122386  0.89884653  0.10527941  1
  Zr  Zr34  1  0.30367619  0.30755877  0.29824594  1
  Zr  Zr35  1  0.50334539  0.30151663  0.70893455  1
  Zr  Zr36  1  0.69972130  0.89207676  0.49997870  1
  Zr  Zr37  1  0.50658532  0.10214187  0.89913437  1
  Zr  Zr38  1  0.69665628  0.89820903  0.10189952  1
  Zr  Zr39  1  0.69633458  0.90009945  0.30076682  1
  Zr  Zr40  1  0.10035550  0.29680899  0.69498753  1
  Zr  Zr41  1  0.49892212  0.70024491  0.09827864  1
  Zr  Zr42  1  0.49413170  0.69733493  0.29895533  1
  Zr  Zr43  1  0.68897026  0.29391621  0.89257842  1
  Zr  Zr44  1  0.48975519  0.49550648  0.30762007  1
  Zr  Zr45  1  0.70675701  0.68820574  0.50668007  1
  Zr  Zr46  1  0.09898256  0.29887207  0.49983202  1
  Zr  Zr47  1  0.91755521  0.69845189  0.10207607  1
  Zr  Zr48  1  0.90014614  0.10370143  0.70647660  1
  Zr  Zr49  1  0.49893627  0.90991047  0.49817434  1
  Sc  Sc50  1  0.10376749  0.10212572  0.89252701  1
  Sc  Sc51  1  0.09944116  0.70077370  0.51410482  1
  Sc  Sc52  1  0.90117815  0.89942405  0.88944558  1
  Sc  Sc53  1  0.70717015  0.50601096  0.90390501  1
  Sc  Sc54  1  0.50610954  0.49086896  0.10264898  1
  Sc  Sc55  1  0.49985988  0.10515021  0.30641209  1
  Sc  Sc56  1  0.29900120  0.30630514  0.90200782  1
  Sc  Sc57  1  0.50430974  0.70094505  0.49521388  1
  Sc  Sc58  1  0.49947539  0.10011500  0.09783884  1
  Sc  Sc59  1  0.29746700  0.29690497  0.69814848  1
  Sc  Sc60  1  0.29741834  0.29564339  0.50223189  1
  Sc  Sc61  1  0.69123650  0.69540658  0.30804989  1
  Sc  Sc62  1  0.09739295  0.49899742  0.69323356  1
  Sc  Sc63  1  0.11251384  0.10732327  0.10058724  1
  Sc  Sc64  1  0.68911484  0.69303394  0.09213952  1
  Sc  Sc65  1  0.49658236  0.71306937  0.70018442  1
  Sc  Sc66  1  0.91406060  0.89023768  0.10161716  1
  Sc  Sc67  1  0.10157432  0.89126034  0.10201745  1
  Sc  Sc68  1  0.70047318  0.89544743  0.70192773  1
  Sc  Sc69  1  0.29692698  0.10483806  0.90885221  1
  Sc  Sc70  1  0.29336872  0.90202154  0.89602192  1
  Sc  Sc71  1  0.30338680  0.29834956  0.09724981  1
  Sc  Sc72  1  0.70629161  0.69899656  0.69847000  1
  Sc  Sc73  1  0.68845326  0.49785789  0.30214523  1
  Sc  Sc74  1  0.69843523  0.49912513  0.69424367  1
  Sc  Sc75  1  0.10500337  0.50734491  0.10221876  1
  Sc  Sc76  1  0.09850629  0.90317156  0.69738898  1
  Sc  Sc77  1  0.28608278  0.70163006  0.10252434  1
  Sc  Sc78  1  0.90414548  0.89564941  0.70105515  1
  Sc  Sc79  1  0.90565431  0.69329963  0.88716813  1
  Sc  Sc80  1  0.09939674  0.11343629  0.30616265  1
  Sc  Sc81  1  0.90351955  0.50979345  0.70461020  1
  Sc  Sc82  1  0.89493954  0.50360896  0.90110826  1
  Sc  Sc83  1  0.49683025  0.30155930  0.48305047  1
  Sc  Sc84  1  0.90125941  0.29914597  0.51742561  1
  Sc  Sc85  1  0.91015553  0.29767215  0.29187950  1
  Sc  Sc86  1  0.69901533  0.90090707  0.89070490  1
  Sc  Sc87  1  0.49728749  0.29688174  0.90310372  1
  Sc  Sc88  1  0.69820306  0.70130919  0.89995855  1
  Sc  Sc89  1  0.69660659  0.09693536  0.49924007  1
  Sc  Sc90  1  0.91575408  0.89152802  0.30246505  1
  Sc  Sc91  1  0.50503433  0.89983923  0.69651908  1
  Sc  Sc92  1  0.10228259  0.69803891  0.28311542  1
  Sc  Sc93  1  0.69329534  0.10328411  0.29427652  1
  Sc  Sc94  1  0.10458296  0.50015004  0.90463856  1
  Sc  Sc95  1  0.10034339  0.49197570  0.50413670  1
  Sc  Sc96  1  0.49545415  0.10024340  0.69492370  1
  Sc  Sc97  1  0.31039704  0.09828139  0.50284030  1
  Sc  Sc98  1  0.49622900  0.48403598  0.89951117  1
  Sc  Sc99  1  0.28900235  0.50889354  0.48919075  1
  Nb  Nb100  1  0.30149823  0.50075500  0.09552985  1
  Nb  Nb101  1  0.89757245  0.30058801  0.70408532  1
  Nb  Nb102  1  0.49932062  0.70108102  0.90094260  1
  Nb  Nb103  1  0.69019794  0.30064300  0.31065504  1
  Nb  Nb104  1  0.09889697  0.70342111  0.08714548  1
  Nb  Nb105  1  0.10361565  0.70142910  0.90566317  1
  Nb  Nb106  1  0.29104281  0.09752843  0.28820843  1
  Nb  Nb107  1  0.89689119  0.09333612  0.89999676  1
  Nb  Nb108  1  0.70449452  0.30146105  0.50204471  1
  Nb  Nb109  1  0.10920936  0.49838156  0.30655863  1
  Nb  Nb110  1  0.28766607  0.50415555  0.29293192  1
  Nb  Nb111  1  0.49534838  0.10295348  0.50816201  1
  Nb  Nb112  1  0.30050141  0.70044491  0.50702807  1
  Nb  Nb113  1  0.90087442  0.10477619  0.30178722  1
  Nb  Nb114  1  0.09330872  0.69083926  0.70746448  1
  Nb  Nb115  1  0.89970746  0.09784929  0.49611419  1
  Nb  Nb116  1  0.90022734  0.69507907  0.30068184  1
  Nb  Nb117  1  0.90411544  0.69415840  0.68803308  1
  Nb  Nb118  1  0.90013294  0.69903213  0.50266459  1
  Nb  Nb119  1  0.10021234  0.09734617  0.69946365  1
  Nb  Nb120  1  0.29916851  0.50580707  0.90286950  1
  Nb  Nb121  1  0.10110801  0.30167037  0.89738270  1
  Nb  Nb122  1  0.70980057  0.49824941  0.09951966  1
  Nb  Nb123  1  0.49933509  0.50472399  0.50454846  1
  Nb  Nb124  1  0.69475125  0.49481498  0.50698112  1
  Nb  Nb125  1  -0.00234837  0.00966142  0.19817414  1
  Nb  Nb126  1  0.39916871  -0.00043092  0.79933624  1
  Nb  Nb127  1  0.81067455  -0.00249533  0.20154245  1
  Nb  Nb128  1  0.80132796  0.20201278  0.40151305  1
  Nb  Nb129  1  0.80802876  -0.00107411  0.39725337  1
  Nb  Nb130  1  0.20076883  0.60485251  0.80317120  1
  Nb  Nb131  1  -0.00110220  0.39182725  0.80171604  1
  Nb  Nb132  1  0.59066990  0.60180608  0.80201091  1
  Nb  Nb133  1  0.39908192  0.60000111  0.59860364  1
  Nb  Nb134  1  0.80513516  0.39338542  0.79842345  1
  Nb  Nb135  1  -0.00204664  0.60040578  0.39809211  1
  Nb  Nb136  1  0.39714481  0.60154815  0.80105677  1
  Nb  Nb137  1  0.40238442  0.40749821  0.59607409  1
  Nb  Nb138  1  0.80652755  -0.00066301  0.59307828  1
  Nb  Nb139  1  0.80766030  0.79412493  0.40026510  1
  Nb  Nb140  1  0.80315510  0.79294257  0.20204133  1
  Nb  Nb141  1  0.39093470  0.59319716  0.19749584  1
  Nb  Nb142  1  0.59898938  0.20274612  0.59416755  1
  Nb  Nb143  1  0.80407569  0.80244227  0.00455846  1
  Nb  Nb144  1  0.80819409  -0.00146615  0.00707988  1
  Nb  Nb145  1  -0.00500992  0.00547352  0.00133346  1
  Nb  Nb146  1  0.79329561  0.39492281  0.40580585  1
  Nb  Nb147  1  0.40142048  0.79887713  0.00104619  1
  Nb  Nb148  1  0.80029813  0.60092259  0.19883477  1
  Nb  Nb149  1  0.39619745  0.60119146  -0.00240160  1
  Pd  Pd150  1  0.00144382  0.40897539  -0.00614493  1
  Pd  Pd151  1  0.00943373  0.19096149  -0.00556349  1
  Pd  Pd152  1  0.40271972  0.79810660  0.40595333  1
  Pd  Pd153  1  0.39174559  0.19542700  0.39364253  1
  Pd  Pd154  1  0.79088717  0.40137870  0.21419143  1
  Pd  Pd155  1  0.00388637  0.59222005  0.20248739  1
  Pd  Pd156  1  0.59894074  0.79458677  0.59830126  1
  Pd  Pd157  1  0.39399219  0.00623077  0.39297800  1
  Pd  Pd158  1  0.59041117  0.38850076  0.59191180  1
  Pd  Pd159  1  0.19046180  -0.00480393  0.00418608  1
  Pd  Pd160  1  0.20903251  0.19672310  0.40163467  1
  Pd  Pd161  1  0.39496380  0.19529387  0.80572109  1
  Pd  Pd162  1  0.40185201  -0.00684848  -0.00929308  1
  Pd  Pd163  1  0.20467566  0.20083218  0.80112244  1
  Pd  Pd164  1  0.00007797  0.59402315  -0.00681341  1
  Pd  Pd165  1  0.19281887  0.40497772  0.79884977  1
  Pd  Pd166  1  0.78928097  0.19825747  -0.00111861  1
  Pd  Pd167  1  0.60669351  0.00554642  0.60492355  1
  Pd  Pd168  1  0.59788338  0.59626717  0.40375582  1
  Pd  Pd169  1  0.59796807  0.59211950  0.19874569  1
  Pd  Pd170  1  0.19947302  0.19250089  0.59610879  1
  Pd  Pd171  1  -0.00911895  0.40081235  0.40871949  1
  Pd  Pd172  1  0.20195667  0.00429999  0.59678096  1
  Pd  Pd173  1  0.18910310  0.78858650  0.40248982  1
  Pd  Pd174  1  0.80592495  0.61305132  0.00675572  1
  Pd  Pd175  1  0.59059731  0.58699951  -0.00767731  1
  Pd  Pd176  1  0.40816083  0.00965930  0.20911646  1
  Pd  Pd177  1  -0.00219545  0.19519852  0.60215958  1
  Pd  Pd178  1  0.00893241  0.78699099  0.39663548  1
  Pd  Pd179  1  0.20168623  0.39759221  0.00414043  1
  Pd  Pd180  1  0.60635518  0.40481931  -0.00372001  1
  Pd  Pd181  1  0.00189751  0.20064364  0.80242501  1
  Pd  Pd182  1  0.39204985  0.40171690  0.79509432  1
  Pd  Pd183  1  0.00132219  0.00237567  0.39066855  1
  Pd  Pd184  1  0.80170524  0.59334311  0.39416836  1
  Pd  Pd185  1  0.19780459  0.21163392  0.20059657  1
  Pd  Pd186  1  0.19937880  0.39750195  0.18975337  1
  Pd  Pd187  1  0.00090777  0.79552103  0.79602967  1
  Pd  Pd188  1  0.60218246  0.00674299  0.39842101  1
  Pd  Pd189  1  0.40429222  0.19799983  0.20295577  1
  Pd  Pd190  1  0.20703976  0.81117272  0.00527213  1
  Pd  Pd191  1  0.18553440  0.60897775  0.40564384  1
  Pd  Pd192  1  0.60706114  0.79046893  0.20204563  1
  Pd  Pd193  1  0.60512009  -0.00465661  -0.00274791  1
  Pd  Pd194  1  0.20747258  0.01057019  0.40393713  1
  Pd  Pd195  1  0.38753493  0.40735899  0.40746494  1
  Pd  Pd196  1  0.20546019  0.00336650  0.79662964  1
  Pd  Pd197  1  0.79237368  0.20465467  0.21062164  1
  Pd  Pd198  1  0.60298580  0.19464615  0.40710649  1
  Pd  Pd199  1  0.80135129  0.79348764  0.80210372  1
  Rh  Rh200  1  0.39169420  0.78982014  0.19528607  1
  Rh  Rh201  1  0.80347247  -0.00720705  0.79369670  1
  Rh  Rh202  1  0.59348741  0.60783148  0.60705914  1
  Rh  Rh203  1  0.41288865  0.21638724  0.59774529  1
  Rh  Rh204  1  0.59275384  0.00373662  0.79258375  1
  Rh  Rh205  1  0.01201983  0.40568274  0.19770953  1
  Rh  Rh206  1  0.00972983  0.20111521  0.20201941  1
  Rh  Rh207  1  0.60098558  0.19912430  0.00369745  1
  Rh  Rh208  1  0.59288961  0.00408618  0.20571570  1
  Rh  Rh209  1  0.39592572  0.59886025  0.40118694  1
  Rh  Rh210  1  0.79144813  0.59588431  0.79314520  1
  Rh  Rh211  1  0.39939568  -0.00838128  0.60477393  1
  Rh  Rh212  1  0.19904323  0.60120456  0.19419771  1
  Rh  Rh213  1  0.19851340  0.20918319  -0.00456605  1
  Rh  Rh214  1  0.19997307  0.60166092  0.60382198  1
  Rh  Rh215  1  0.60225242  0.40613974  0.40739613  1
  Rh  Rh216  1  0.00765774  0.80246668  0.20565820  1
  Rh  Rh217  1  0.60213986  0.80696523  -0.00393609  1
  Rh  Rh218  1  0.20467401  0.39743265  0.40378678  1
  Rh  Rh219  1  0.80625680  0.80338032  0.59558707  1
  Rh  Rh220  1  0.79503308  0.18771929  0.59158278  1
  Rh  Rh221  1  0.80450369  0.40771604  0.60491912  1
  Rh  Rh222  1  0.59647367  0.19283139  0.78978880  1
  Rh  Rh223  1  -0.00848844  0.21158306  0.40460543  1
  Rh  Rh224  1  0.60605479  0.79013152  0.79708999  1
  Rh  Rh225  1  -0.00423698  0.00744239  0.60876593  1
  Rh  Rh226  1  0.00226150  0.00455871  0.80091155  1
  Rh  Rh227  1  0.39666767  0.40216351  0.00261707  1
  Rh  Rh228  1  0.60407229  0.40314473  0.19991949  1
  Rh  Rh229  1  -0.00431386  0.80328472  -0.01371276  1
  Rh  Rh230  1  0.40088771  0.80604415  0.80484796  1
  Rh  Rh231  1  -0.00466222  0.40163520  0.61085640  1
  Rh  Rh232  1  0.01094936  0.59186495  0.80652978  1
  Rh  Rh233  1  0.39371805  0.40681299  0.19682506  1
  Rh  Rh234  1  0.80312160  0.20573672  0.80728839  1
  Rh  Rh235  1  0.79239485  0.39177828  -0.01037382  1
  Rh  Rh236  1  0.79959986  0.59597021  0.60735311  1
  Rh  Rh237  1  0.40023004  0.20250202  -0.00187847  1
  Rh  Rh238  1  0.59489199  0.20418195  0.19860497  1
  Rh  Rh239  1  0.60342450  0.79540781  0.40448035  1
  Rh  Rh240  1  0.20685293  0.39866110  0.59337127  1
  Rh  Rh241  1  0.00295811  0.59707547  0.59185369  1
  Rh  Rh242  1  0.18876844  0.80059574  0.60433703  1
  Rh  Rh243  1  0.20151035  0.60195398  -0.00313310  1
  Rh  Rh244  1  0.18554157  0.79698591  0.79217185  1
  Rh  Rh245  1  0.19190458  0.00484734  0.19827461  1
  Rh  Rh246  1  0.20019290  0.79903820  0.19772849  1
  Rh  Rh247  1  0.40840878  0.79938889  0.58932824  1
  Rh  Rh248  1  0.00365827  0.79474851  0.60912421  1
  Rh  Rh249  1  0.61592423  0.41230936  0.80689325  1
