# generated using pymatgen
data_ZrScNbPdRh
_symmetry_space_group_name_H-M   'P 1'
_cell_length_a   16.55760036
_cell_length_b   16.55718618
_cell_length_c   16.55578501
_cell_angle_alpha   89.98937083
_cell_angle_beta   89.98251132
_cell_angle_gamma   90.02233490
_symmetry_Int_Tables_number   1
_chemical_formula_structural   ZrScNbPdRh
_chemical_formula_sum   'Zr50 Sc50 Nb50 Pd50 Rh50'
_cell_volume   4538.72265868
_cell_formula_units_Z   50
loop_
 _symmetry_equiv_pos_site_id
 _symmetry_equiv_pos_as_xyz
  1  'x, y, z'
loop_
 _atom_site_type_symbol
 _atom_site_label
 _atom_site_symmetry_multiplicity
 _atom_site_fract_x
 _atom_site_fract_y
 _atom_site_fract_z
 _atom_site_occupancy
  Zr  Zr0  1  0.30304846  0.50631171  0.90177175  1
  Zr  Zr1  1  0.29393655  0.29819139  0.90494043  1
  Zr  Zr2  1  0.49176451  0.69054299  0.50077932  1
  Zr  Zr3  1  0.90197182  0.09861036  0.70122099  1
  Zr  Zr4  1  0.30181793  0.10647209  0.09862830  1
  Zr  Zr5  1  0.50010575  0.90009509  0.29408926  1
  Zr  Zr6  1  0.29337216  0.90274995  0.29768332  1
  Zr  Zr7  1  0.30028937  0.29604455  0.68996871  1
  Zr  Zr8  1  0.09692220  0.29908926  0.09119677  1
  Zr  Zr9  1  0.49970833  0.09694195  0.09529545  1
  Zr  Zr10  1  0.09670013  0.90549158  0.30128238  1
  Zr  Zr11  1  0.09022458  0.49661639  0.50349465  1
  Zr  Zr12  1  0.49968542  0.30054776  0.30668605  1
  Zr  Zr13  1  0.90052333  0.29629995  0.91234235  1
  Zr  Zr14  1  0.89918080  0.09507992  0.29356728  1
  Zr  Zr15  1  0.30200961  0.90983089  0.09722787  1
  Zr  Zr16  1  0.69876243  0.50405497  0.90284716  1
  Zr  Zr17  1  0.10177622  0.50238332  0.89941264  1
  Zr  Zr18  1  0.90476194  0.09440349  0.50001779  1
  Zr  Zr19  1  0.30304545  0.49888834  0.09873904  1
  Zr  Zr20  1  0.29442786  0.50755031  0.69812830  1
  Zr  Zr21  1  0.90184892  0.70311282  0.69854841  1
  Zr  Zr22  1  0.10489500  0.90639719  0.49790044  1
  Zr  Zr23  1  0.90100470  0.90585023  0.29718102  1
  Zr  Zr24  1  0.49495167  0.89991492  0.71022619  1
  Zr  Zr25  1  0.10190897  0.69888552  0.09987286  1
  Zr  Zr26  1  0.69997157  0.69689979  0.29974377  1
  Zr  Zr27  1  0.70693299  0.30394114  0.70458394  1
  Zr  Zr28  1  0.89512009  0.09985159  0.10174394  1
  Zr  Zr29  1  0.90602745  0.69789448  0.09940678  1
  Zr  Zr30  1  0.10129873  0.49946241  0.11015404  1
  Zr  Zr31  1  0.69165714  0.30244877  0.29964629  1
  Zr  Zr32  1  0.70181523  0.09524163  0.70636951  1
  Zr  Zr33  1  0.30528278  0.90122483  0.89932888  1
  Zr  Zr34  1  0.49210986  0.70060268  0.69667038  1
  Zr  Zr35  1  0.09963850  0.69967598  0.89998557  1
  Zr  Zr36  1  0.49716326  0.30303873  0.70049479  1
  Zr  Zr37  1  0.49336171  0.30181627  0.49760983  1
  Zr  Zr38  1  0.49587507  0.29934612  0.10236621  1
  Zr  Zr39  1  0.30278590  0.69901764  0.30288157  1
  Zr  Zr40  1  0.90156445  0.68688913  0.89596918  1
  Zr  Zr41  1  0.69513382  0.50211642  0.70519358  1
  Zr  Zr42  1  0.90774551  0.50216853  0.29911184  1
  Zr  Zr43  1  0.69997707  0.89373800  0.70140559  1
  Zr  Zr44  1  0.70324648  0.69614658  0.70809779  1
  Zr  Zr45  1  0.10517180  0.30156430  0.70185060  1
  Zr  Zr46  1  0.69433938  0.90320108  0.30237473  1
  Zr  Zr47  1  0.29473151  0.10178086  0.51109158  1
  Zr  Zr48  1  0.89073337  0.29981499  0.28762734  1
  Zr  Zr49  1  0.49756747  0.10779352  0.49574828  1
  Sc  Sc50  1  0.70613213  0.50490739  0.50746395  1
  Sc  Sc51  1  0.09348328  0.70250473  0.50093251  1
  Sc  Sc52  1  0.49847491  0.08723859  0.70187279  1
  Sc  Sc53  1  0.90132655  0.29517185  0.70360521  1
  Sc  Sc54  1  0.30217188  0.29984257  0.10382496  1
  Sc  Sc55  1  0.28811574  0.10672789  0.28808946  1
  Sc  Sc56  1  0.29949800  0.49130133  0.29740672  1
  Sc  Sc57  1  0.49702968  0.49772318  0.49813822  1
  Sc  Sc58  1  0.30402096  0.70533053  0.08488368  1
  Sc  Sc59  1  0.89676764  0.50446406  0.69245122  1
  Sc  Sc60  1  0.50487964  0.49929178  0.90188461  1
  Sc  Sc61  1  0.50384890  0.90515814  0.90225672  1
  Sc  Sc62  1  0.30845227  0.50012291  0.49940503  1
  Sc  Sc63  1  0.10642630  0.29894966  0.50075032  1
  Sc  Sc64  1  0.90634576  0.69921667  0.30303273  1
  Sc  Sc65  1  0.69065005  0.91013708  0.09426226  1
  Sc  Sc66  1  0.10042127  0.10259834  0.90150278  1
  Sc  Sc67  1  0.69369655  0.08561325  0.49367314  1
  Sc  Sc68  1  0.70873735  0.09512148  0.90378335  1
  Sc  Sc69  1  0.10630348  0.90782953  0.89932129  1
  Sc  Sc70  1  0.09330854  0.69910968  0.29581729  1
  Sc  Sc71  1  0.49782979  0.70493914  0.90859009  1
  Sc  Sc72  1  0.09316636  0.90334610  0.09443240  1
  Sc  Sc73  1  0.69847020  0.09749288  0.29360601  1
  Sc  Sc74  1  0.10918085  0.30612437  0.29932863  1
  Sc  Sc75  1  0.09899416  0.10175168  0.29414127  1
  Sc  Sc76  1  0.50385683  0.49569659  0.08899523  1
  Sc  Sc77  1  0.70702381  0.30556437  0.10593879  1
  Sc  Sc78  1  0.89852782  0.30055295  0.09787930  1
  Sc  Sc79  1  0.50625879  0.10723476  0.29817785  1
  Sc  Sc80  1  0.90523981  0.31117787  0.50988044  1
  Sc  Sc81  1  0.09430344  0.68940971  0.69829373  1
  Sc  Sc82  1  0.68523142  0.69597339  0.09487979  1
  Sc  Sc83  1  0.89980032  0.10610647  0.90279706  1
  Sc  Sc84  1  0.69904416  0.68951725  0.50230245  1
  Sc  Sc85  1  0.50008680  0.30968697  0.90833701  1
  Sc  Sc86  1  0.49958181  0.50486213  0.70017728  1
  Sc  Sc87  1  0.91147257  0.89929344  0.90294774  1
  Sc  Sc88  1  0.69392571  0.49644204  0.29817987  1
  Sc  Sc89  1  0.50589253  0.69980491  0.29969445  1
  Sc  Sc90  1  0.49884939  0.49593427  0.30701699  1
  Sc  Sc91  1  0.69514816  0.49499409  0.09720174  1
  Sc  Sc92  1  0.29767828  0.09283197  0.90468399  1
  Sc  Sc93  1  0.30231767  0.29486250  0.49716464  1
  Sc  Sc94  1  0.69636301  0.30557412  0.49603701  1
  Sc  Sc95  1  0.10398437  0.10255691  0.50068181  1
  Sc  Sc96  1  0.50869642  0.90677273  0.49825032  1
  Sc  Sc97  1  0.90376535  0.90005157  0.50694034  1
  Sc  Sc98  1  0.49864518  0.89727004  0.09445989  1
  Sc  Sc99  1  0.10602062  0.09777147  0.70175022  1
  Nb  Nb100  1  0.89367922  0.50595809  0.49755051  1
  Nb  Nb101  1  0.70466095  0.70306882  0.90127723  1
  Nb  Nb102  1  0.30661689  0.70614344  0.69576979  1
  Nb  Nb103  1  0.69918796  0.89343398  0.49862589  1
  Nb  Nb104  1  0.10379008  0.09977495  0.10373560  1
  Nb  Nb105  1  0.10573022  0.50299239  0.30128404  1
  Nb  Nb106  1  0.09412326  0.30332856  0.90042687  1
  Nb  Nb107  1  0.10259600  0.89535539  0.70049909  1
  Nb  Nb108  1  0.50098312  0.10239269  0.89960090  1
  Nb  Nb109  1  0.89566990  0.49341610  0.09734989  1
  Nb  Nb110  1  0.89328953  0.90006507  0.10373761  1
  Nb  Nb111  1  0.90263956  0.89854360  0.70026247  1
  Nb  Nb112  1  0.29454669  0.90244376  0.49787854  1
  Nb  Nb113  1  0.89287208  0.68559180  0.49979441  1
  Nb  Nb114  1  0.49674960  0.69808804  0.09821170  1
  Nb  Nb115  1  0.89868899  0.49715601  0.90654310  1
  Nb  Nb116  1  0.29955445  0.29807631  0.29703946  1
  Nb  Nb117  1  0.69644055  0.89221932  0.89866123  1
  Nb  Nb118  1  0.30116808  0.90688032  0.70007414  1
  Nb  Nb119  1  0.09897925  0.49928113  0.70245332  1
  Nb  Nb120  1  0.70264326  0.29892630  0.89965669  1
  Nb  Nb121  1  0.30191521  0.09423641  0.70261363  1
  Nb  Nb122  1  0.70005260  0.09852377  0.09667288  1
  Nb  Nb123  1  0.30287674  0.70295735  0.89327211  1
  Nb  Nb124  1  0.30186839  0.70032329  0.50296127  1
  Nb  Nb125  1  0.19772205  0.59713809  0.40006222  1
  Nb  Nb126  1  0.39201317  -0.00180537  0.39967120  1
  Nb  Nb127  1  0.59983191  0.39733416  0.60357076  1
  Nb  Nb128  1  0.40141661  0.19951220  0.80191629  1
  Nb  Nb129  1  0.79857036  0.79946268  0.00027245  1
  Nb  Nb130  1  0.80548021  0.40228214  0.81016651  1
  Nb  Nb131  1  0.39456187  0.80583793  0.40489176  1
  Nb  Nb132  1  0.80433708  -0.01239358  0.79775070  1
  Nb  Nb133  1  0.00059132  0.40266812  0.80619745  1
  Nb  Nb134  1  0.40388333  0.60276607  0.19454312  1
  Nb  Nb135  1  0.20875222  0.80254413  0.60241534  1
  Nb  Nb136  1  0.20771014  0.79850250  0.79123338  1
  Nb  Nb137  1  0.60060747  0.79875427  0.60104107  1
  Nb  Nb138  1  0.79854609  0.79984682  0.19665163  1
  Nb  Nb139  1  0.39244206  0.39746850  0.79917256  1
  Nb  Nb140  1  0.60186864  0.20120802  0.60518955  1
  Nb  Nb141  1  -0.00715501  0.20305481  0.39702571  1
  Nb  Nb142  1  0.60456443  0.19896824  -0.00266806  1
  Nb  Nb143  1  0.20089693  0.80218050  0.19767384  1
  Nb  Nb144  1  0.79839531  0.79877597  0.40078204  1
  Nb  Nb145  1  0.80573510  0.40228452  0.39974035  1
  Nb  Nb146  1  0.59820270  0.20015848  0.80479295  1
  Nb  Nb147  1  0.80336352  0.60114273  0.19602323  1
  Nb  Nb148  1  0.79599752  0.19595291  0.59463966  1
  Nb  Nb149  1  0.80400223  0.20215375  0.40278182  1
  Pd  Pd150  1  0.00914802  -0.00068288  0.60519522  1
  Pd  Pd151  1  0.19678992  0.19671705  0.00027595  1
  Pd  Pd152  1  0.00693370  0.60140154  0.40197948  1
  Pd  Pd153  1  0.00098406  0.20061139  0.59463557  1
  Pd  Pd154  1  0.00234323  0.80559724  0.19860440  1
  Pd  Pd155  1  0.80163031  -0.00974461  -0.00849630  1
  Pd  Pd156  1  0.20099566  0.60930062  0.79703844  1
  Pd  Pd157  1  0.40574249  0.59754329  0.80285746  1
  Pd  Pd158  1  -0.00296243  0.40289003  0.61125899  1
  Pd  Pd159  1  0.60513924  0.80337422  0.19030756  1
  Pd  Pd160  1  0.00281524  0.59138222  0.00554290  1
  Pd  Pd161  1  -0.00009622  0.00696203  0.00341824  1
  Pd  Pd162  1  0.00309446  0.20372603  0.80236796  1
  Pd  Pd163  1  0.19901942  0.78975907  0.40050467  1
  Pd  Pd164  1  0.79631758  0.79283937  0.59177895  1
  Pd  Pd165  1  0.20518947  0.19365841  0.80096409  1
  Pd  Pd166  1  0.00420537  0.39607839  0.19991384  1
  Pd  Pd167  1  0.20957866  0.60625429  0.20363414  1
  Pd  Pd168  1  0.39641763  0.79316738  0.19939076  1
  Pd  Pd169  1  -0.00917539  0.79989987  0.40744748  1
  Pd  Pd170  1  0.60173912  0.59239894  0.40428333  1
  Pd  Pd171  1  0.20266769  0.60187127  0.00031137  1
  Pd  Pd172  1  0.20345342  0.40297412  0.59266941  1
  Pd  Pd173  1  0.79493371  0.60435307  0.00962302  1
  Pd  Pd174  1  0.20041561  0.40089977  0.80085278  1
  Pd  Pd175  1  0.00415257  0.79883367  0.59622259  1
  Pd  Pd176  1  0.59941251  -0.00301830  0.60152478  1
  Pd  Pd177  1  0.00812949  0.80080183  0.80183442  1
  Pd  Pd178  1  -0.00057006  -0.00046742  0.79909994  1
  Pd  Pd179  1  0.59631648  0.79467202  0.40924764  1
  Pd  Pd180  1  0.00547087  0.20410604  0.20156297  1
  Pd  Pd181  1  0.40337550  0.81258214  0.59047698  1
  Pd  Pd182  1  0.81044402  0.80448608  0.80998898  1
  Pd  Pd183  1  0.59149480  0.79211126  0.80006528  1
  Pd  Pd184  1  0.19754996  0.60481417  0.59189072  1
  Pd  Pd185  1  0.79903971  -0.00055749  0.60180247  1
  Pd  Pd186  1  0.20139014  0.01501463  0.39597267  1
  Pd  Pd187  1  0.80012301  -0.00329958  0.40202500  1
  Pd  Pd188  1  0.38782687  0.19017337  0.39022616  1
  Pd  Pd189  1  0.59109680  0.60932557  0.80843157  1
  Pd  Pd190  1  0.19990442  0.80501402  -0.00203614  1
  Pd  Pd191  1  -0.00268945  0.80078007  -0.00218222  1
  Pd  Pd192  1  0.40369531  0.01067640  0.20657959  1
  Pd  Pd193  1  0.40525918  0.40624066  0.20318147  1
  Pd  Pd194  1  0.60365044  0.20088474  0.19054161  1
  Pd  Pd195  1  0.40284137  -0.00293956  0.59265670  1
  Pd  Pd196  1  0.59476961  0.59057676  0.19581522  1
  Pd  Pd197  1  -0.00378668  0.39325919  0.39563639  1
  Pd  Pd198  1  0.20682312  0.40430148  0.40569910  1
  Pd  Pd199  1  0.20020701  0.40186086  0.00381792  1
  Rh  Rh200  1  0.79911336  0.41382792  0.20525961  1
  Rh  Rh201  1  0.39775203  0.59282987  0.60097092  1
  Rh  Rh202  1  0.19720144  0.00446458  0.00417940  1
  Rh  Rh203  1  0.79976375  0.60431009  0.60799218  1
  Rh  Rh204  1  0.00297982  0.40646807  -0.00068757  1
  Rh  Rh205  1  0.60635431  0.40746561  0.41064704  1
  Rh  Rh206  1  0.79367413  0.19400114  0.19946260  1
  Rh  Rh207  1  0.00310782  0.19265320  0.00411978  1
  Rh  Rh208  1  0.19526864  0.20144300  0.39621717  1
  Rh  Rh209  1  0.00285940  0.00078337  0.19150783  1
  Rh  Rh210  1  0.59679188  0.59909040  0.59949357  1
  Rh  Rh211  1  0.79161528  -0.00472698  0.19543640  1
  Rh  Rh212  1  0.59996903  0.00537287  -0.00543198  1
  Rh  Rh213  1  0.40670670  0.18688263  0.61114941  1
  Rh  Rh214  1  0.39841644  0.80182941  0.80563087  1
  Rh  Rh215  1  0.79483825  0.39856074  -0.00329550  1
  Rh  Rh216  1  0.39662346  0.00690223  0.80549277  1
  Rh  Rh217  1  0.59252278  0.40052186  0.19888744  1
  Rh  Rh218  1  0.39492926  0.40044555  -0.00651457  1
  Rh  Rh219  1  0.59768802  0.60273428  -0.00443289  1
  Rh  Rh220  1  -0.00409223  0.58977772  0.79508723  1
  Rh  Rh221  1  0.40307210  0.60132799  0.00242836  1
  Rh  Rh222  1  0.39491050  0.60209141  0.39315912  1
  Rh  Rh223  1  0.40373475  0.40867940  0.60606053  1
  Rh  Rh224  1  0.79987065  0.59754566  0.38938273  1
  Rh  Rh225  1  0.79918991  0.19892494  0.79620740  1
  Rh  Rh226  1  0.19163920  -0.00586107  0.19228313  1
  Rh  Rh227  1  0.61015495  0.00235240  0.81001877  1
  Rh  Rh228  1  0.39991110  0.20064077  0.20424696  1
  Rh  Rh229  1  0.59150074  0.00178763  0.39330773  1
  Rh  Rh230  1  0.20055325  -0.00427470  0.79794438  1
  Rh  Rh231  1  0.61035131  0.19681099  0.40770584  1
  Rh  Rh232  1  0.00540637  0.00774085  0.40059271  1
  Rh  Rh233  1  0.80457997  0.59271177  0.79885425  1
  Rh  Rh234  1  0.20033830  0.39539512  0.19692302  1
  Rh  Rh235  1  0.19694566  -0.00344721  0.60772174  1
  Rh  Rh236  1  -0.00289713  0.59762774  0.59851235  1
  Rh  Rh237  1  0.40342025  0.00145072  -0.00292490  1
  Rh  Rh238  1  0.60770360  0.39073826  0.00162232  1
  Rh  Rh239  1  0.19700505  0.19809568  0.60389082  1
  Rh  Rh240  1  -0.00320935  0.59456717  0.19608122  1
  Rh  Rh241  1  0.59703283  0.00077042  0.19764758  1
  Rh  Rh242  1  0.19539917  0.20877178  0.19456835  1
  Rh  Rh243  1  0.60142034  0.39608807  0.79825766  1
  Rh  Rh244  1  0.39349308  0.39518455  0.39590685  1
  Rh  Rh245  1  0.40550892  0.20049869  -0.00476081  1
  Rh  Rh246  1  0.79319036  0.20165031  0.01006378  1
  Rh  Rh247  1  0.40277201  0.80354006  -0.00348185  1
  Rh  Rh248  1  0.60193344  0.79933589  0.00020846  1
  Rh  Rh249  1  0.79673656  0.39718710  0.59883901  1
