# generated using pymatgen
data_ZrScNbPdRh
_symmetry_space_group_name_H-M   'P 1'
_cell_length_a   16.56749385
_cell_length_b   16.57064526
_cell_length_c   16.56777127
_cell_angle_alpha   90.01287320
_cell_angle_beta   90.02215693
_cell_angle_gamma   90.00214139
_symmetry_Int_Tables_number   1
_chemical_formula_structural   ZrScNbPdRh
_chemical_formula_sum   'Zr50 Sc50 Nb50 Pd50 Rh50'
_cell_volume   4548.41711055
_cell_formula_units_Z   50
loop_
 _symmetry_equiv_pos_site_id
 _symmetry_equiv_pos_as_xyz
  1  'x, y, z'
loop_
 _atom_site_type_symbol
 _atom_site_label
 _atom_site_symmetry_multiplicity
 _atom_site_fract_x
 _atom_site_fract_y
 _atom_site_fract_z
 _atom_site_occupancy
  Zr  Zr0  1  0.09706241  0.70683929  0.10060511  1
  Zr  Zr1  1  0.68729620  0.90175292  0.89893559  1
  Zr  Zr2  1  0.29158038  0.30228775  0.88498509  1
  Zr  Zr3  1  0.69708345  0.51120616  0.10329462  1
  Zr  Zr4  1  0.30368748  0.31376452  0.69512812  1
  Zr  Zr5  1  0.49907189  0.50368115  0.29717451  1
  Zr  Zr6  1  0.09844610  0.10121183  0.49842713  1
  Zr  Zr7  1  0.49330632  0.10275314  0.09033933  1
  Zr  Zr8  1  0.30059386  0.10111277  0.10721033  1
  Zr  Zr9  1  0.50069752  0.49340028  0.10344487  1
  Zr  Zr10  1  0.29282837  0.50355948  0.70053414  1
  Zr  Zr11  1  0.90191213  0.50227744  0.29853391  1
  Zr  Zr12  1  0.90537371  0.48530104  0.50199788  1
  Zr  Zr13  1  0.09894916  0.69908870  0.29497151  1
  Zr  Zr14  1  0.69876952  0.70623150  0.50046312  1
  Zr  Zr15  1  0.70264257  0.49574396  0.70077732  1
  Zr  Zr16  1  0.30388852  0.49416711  0.30099553  1
  Zr  Zr17  1  0.51202095  0.90487937  0.70243127  1
  Zr  Zr18  1  0.11591244  0.29841738  0.70273119  1
  Zr  Zr19  1  0.30835960  0.50130745  0.10439915  1
  Zr  Zr20  1  0.70169064  0.70242176  0.09990116  1
  Zr  Zr21  1  0.09875032  0.89578742  0.70165485  1
  Zr  Zr22  1  0.89890063  0.70215227  0.70997921  1
  Zr  Zr23  1  0.49836804  0.90626977  0.90261397  1
  Zr  Zr24  1  0.70549147  0.50765318  0.90553680  1
  Zr  Zr25  1  0.71062915  0.29734774  0.49851520  1
  Zr  Zr26  1  0.70162870  0.49097352  0.49916078  1
  Zr  Zr27  1  0.50535892  0.50085546  0.49299627  1
  Zr  Zr28  1  0.30415474  0.90919882  0.30201060  1
  Zr  Zr29  1  0.29933997  0.69739253  0.50890079  1
  Zr  Zr30  1  0.71133594  0.09558245  0.30164080  1
  Zr  Zr31  1  0.90303635  0.90174775  0.49920279  1
  Zr  Zr32  1  0.70125323  0.29847267  0.30220353  1
  Zr  Zr33  1  0.89036171  0.09820437  0.90156721  1
  Zr  Zr34  1  0.28562649  0.10281911  0.29775059  1
  Zr  Zr35  1  0.09294638  0.09896731  0.11243365  1
  Zr  Zr36  1  0.51501095  0.89957990  0.09571499  1
  Zr  Zr37  1  0.09634807  0.10220864  0.69430797  1
  Zr  Zr38  1  0.50670699  0.09736481  0.89694287  1
  Zr  Zr39  1  0.90458418  0.50277147  0.70459943  1
  Zr  Zr40  1  0.29979030  0.69879441  0.30008346  1
  Zr  Zr41  1  0.70278701  0.09686545  0.50506845  1
  Zr  Zr42  1  0.90435710  0.69842995  0.29350510  1
  Zr  Zr43  1  0.09480770  0.09241305  0.89882158  1
  Zr  Zr44  1  0.30340295  0.29813944  0.30217216  1
  Zr  Zr45  1  0.29433579  0.12314837  0.70249686  1
  Zr  Zr46  1  0.89573932  0.29491811  0.30438095  1
  Zr  Zr47  1  0.50095757  0.29742298  0.90476205  1
  Zr  Zr48  1  0.50260862  0.30678412  0.29476621  1
  Zr  Zr49  1  0.90079420  0.69907620  0.90445799  1
  Sc  Sc50  1  0.29102232  0.90754541  0.09993761  1
  Sc  Sc51  1  0.90313210  0.69655792  0.10501202  1
  Sc  Sc52  1  0.49831639  0.71202264  0.69636262  1
  Sc  Sc53  1  0.30801819  0.10026184  0.91010743  1
  Sc  Sc54  1  0.70061335  0.28804316  0.90068681  1
  Sc  Sc55  1  0.69578798  0.89556696  0.28733359  1
  Sc  Sc56  1  0.90326462  0.27914041  0.09452934  1
  Sc  Sc57  1  0.50294481  0.49214684  0.90706384  1
  Sc  Sc58  1  0.90162156  0.30396193  0.68442558  1
  Sc  Sc59  1  0.29130753  0.69677037  0.69894208  1
  Sc  Sc60  1  0.09827180  0.70917840  0.49961602  1
  Sc  Sc61  1  0.89765501  0.09005307  0.69963506  1
  Sc  Sc62  1  0.90865571  0.90957689  0.90124907  1
  Sc  Sc63  1  0.29890251  0.89603796  0.90401652  1
  Sc  Sc64  1  0.48170918  0.09971731  0.29028159  1
  Sc  Sc65  1  0.29809465  0.70340987  0.89339731  1
  Sc  Sc66  1  0.69524183  0.70115525  0.29120350  1
  Sc  Sc67  1  0.90107841  0.90072490  0.69973502  1
  Sc  Sc68  1  0.69798162  0.29741653  0.69352519  1
  Sc  Sc69  1  0.49719745  0.70679130  0.48925587  1
  Sc  Sc70  1  0.89645692  0.28921155  0.90712313  1
  Sc  Sc71  1  0.10603300  0.29656093  0.29439178  1
  Sc  Sc72  1  0.30229932  0.49689730  0.50623013  1
  Sc  Sc73  1  0.90075031  0.09227788  0.29413038  1
  Sc  Sc74  1  0.50195489  0.69373852  0.10149531  1
  Sc  Sc75  1  0.50216932  0.48457452  0.69810577  1
  Sc  Sc76  1  0.09621205  0.90168241  0.50026695  1
  Sc  Sc77  1  0.70094042  0.90392867  0.50469032  1
  Sc  Sc78  1  0.70106777  0.09118523  0.10185707  1
  Sc  Sc79  1  0.50283094  0.30270232  0.50127847  1
  Sc  Sc80  1  0.29771885  0.11083041  0.49051734  1
  Sc  Sc81  1  0.29770623  0.88154825  0.69882964  1
  Sc  Sc82  1  0.10036301  0.50447336  0.89879039  1
  Sc  Sc83  1  0.30244635  0.69877165  0.10698876  1
  Sc  Sc84  1  0.89516087  0.08928177  0.49979924  1
  Sc  Sc85  1  0.30357276  0.49618453  0.89686075  1
  Sc  Sc86  1  0.30028216  0.89351286  0.49563342  1
  Sc  Sc87  1  0.09995538  0.89555600  0.90627867  1
  Sc  Sc88  1  0.69124952  0.49848736  0.29930977  1
  Sc  Sc89  1  0.09731560  0.70162844  0.89859739  1
  Sc  Sc90  1  0.69041375  0.29087347  0.10420672  1
  Sc  Sc91  1  0.69462374  0.09322345  0.69706160  1
  Sc  Sc92  1  0.09716033  0.49645883  0.09268355  1
  Sc  Sc93  1  0.50239349  0.29425129  0.69928652  1
  Sc  Sc94  1  0.09634948  0.49939621  0.29871945  1
  Sc  Sc95  1  0.09638003  0.30542495  0.50783077  1
  Sc  Sc96  1  0.50390987  0.10365440  0.50973919  1
  Sc  Sc97  1  0.10006805  0.90385126  0.30124969  1
  Sc  Sc98  1  0.90597129  0.51441826  0.90491897  1
  Sc  Sc99  1  0.49889446  0.71282405  0.90607490  1
  Nb  Nb100  1  0.10541937  0.69318324  0.70429897  1
  Nb  Nb101  1  0.70685109  0.70095392  0.89554217  1
  Nb  Nb102  1  0.89712826  0.30040577  0.49193511  1
  Nb  Nb103  1  0.89769983  0.50479418  0.10088791  1
  Nb  Nb104  1  0.69539423  0.89125659  0.69955169  1
  Nb  Nb105  1  0.09618973  0.30189590  0.90291226  1
  Nb  Nb106  1  0.70131998  0.89422523  0.10078992  1
  Nb  Nb107  1  0.89106897  0.90071004  0.30107524  1
  Nb  Nb108  1  0.89922381  0.08814451  0.09840457  1
  Nb  Nb109  1  0.09736902  0.10289204  0.30575426  1
  Nb  Nb110  1  0.89974367  0.69909930  0.49983948  1
  Nb  Nb111  1  0.10447661  0.50209597  0.69510582  1
  Nb  Nb112  1  0.29416507  0.30484353  0.10203020  1
  Nb  Nb113  1  0.10032509  0.50259428  0.50573181  1
  Nb  Nb114  1  0.49920963  0.89365581  0.30882559  1
  Nb  Nb115  1  0.09184031  0.90138905  0.09402169  1
  Nb  Nb116  1  0.70432996  0.09974015  0.89728229  1
  Nb  Nb117  1  0.49466635  0.29853806  0.10372769  1
  Nb  Nb118  1  0.50024796  0.70837180  0.30326216  1
  Nb  Nb119  1  0.09565787  0.30025377  0.09262076  1
  Nb  Nb120  1  0.89691507  0.90120484  0.10236006  1
  Nb  Nb121  1  0.49831082  0.09742711  0.69545333  1
  Nb  Nb122  1  0.49905999  0.90363138  0.49156300  1
  Nb  Nb123  1  0.70157971  0.70727184  0.70550940  1
  Nb  Nb124  1  0.29760618  0.30268558  0.49301086  1
  Nb  Nb125  1  0.60307318  0.19359037  0.39664118  1
  Nb  Nb126  1  0.39646572  0.00322607  0.78933499  1
  Nb  Nb127  1  0.80172928  0.60548595  0.59903290  1
  Nb  Nb128  1  -0.00706554  0.39351394  0.19057440  1
  Nb  Nb129  1  0.79834710  0.80489680  0.00215278  1
  Nb  Nb130  1  0.59452823  0.00039036  0.39655680  1
  Nb  Nb131  1  0.80377776  0.60409256  0.40530461  1
  Nb  Nb132  1  -0.00228852  0.19842912  0.40023409  1
  Nb  Nb133  1  0.80470385  0.79721686  0.39759471  1
  Nb  Nb134  1  0.40883476  0.59843428  0.79656428  1
  Nb  Nb135  1  0.60590845  0.60399252  0.60534150  1
  Nb  Nb136  1  0.20596571  0.00157062  0.79443523  1
  Nb  Nb137  1  0.19398071  0.20738069  0.00406254  1
  Nb  Nb138  1  0.80202097  0.40218151  0.00529383  1
  Nb  Nb139  1  0.39609957  0.00215083  0.60616156  1
  Nb  Nb140  1  0.40623311  0.80502992  0.20712097  1
  Nb  Nb141  1  0.00175011  0.39470222  0.80175113  1
  Nb  Nb142  1  0.00037955  0.60245510  0.60106099  1
  Nb  Nb143  1  0.80445551  0.40036777  0.19179530  1
  Nb  Nb144  1  0.80700893  0.40018257  0.80694246  1
  Nb  Nb145  1  0.60117986  0.60640517  0.79716016  1
  Nb  Nb146  1  0.19731588  0.59816425  0.40353598  1
  Nb  Nb147  1  0.00142403  0.20431189  0.79977022  1
  Nb  Nb148  1  0.20359045  0.60088954  0.00288964  1
  Nb  Nb149  1  0.20748077  0.00266642  0.60570331  1
  Pd  Pd150  1  0.40111917  0.80041253  0.79899714  1
  Pd  Pd151  1  -0.00149916  0.81109259  0.20034129  1
  Pd  Pd152  1  0.41433168  0.59721164  0.60867775  1
  Pd  Pd153  1  0.38889185  0.21183932  0.00024226  1
  Pd  Pd154  1  0.39424657  0.80433695  0.01437388  1
  Pd  Pd155  1  0.20414515  0.81120552  0.19992773  1
  Pd  Pd156  1  0.19913696  -0.00256545  0.40793775  1
  Pd  Pd157  1  -0.00886835  0.19866255  0.59594989  1
  Pd  Pd158  1  0.60571461  0.19355539  0.00191525  1
  Pd  Pd159  1  0.20090837  0.79717898  0.40047384  1
  Pd  Pd160  1  0.40313531  0.01119525  0.41008592  1
  Pd  Pd161  1  0.39318578  0.59994256  0.40037727  1
  Pd  Pd162  1  0.00383933  0.60082728  0.40868793  1
  Pd  Pd163  1  0.41034097  0.20064702  0.40225727  1
  Pd  Pd164  1  0.80216492  0.19929684  0.19308538  1
  Pd  Pd165  1  0.20424847  0.40407508  -0.00237097  1
  Pd  Pd166  1  0.19323875  0.40385311  0.40417030  1
  Pd  Pd167  1  0.61030701  0.39375550  0.00434013  1
  Pd  Pd168  1  0.60284525  0.19613662  0.79384511  1
  Pd  Pd169  1  0.80315281  0.81382316  0.81074488  1
  Pd  Pd170  1  0.01009603  0.39066942  0.39213753  1
  Pd  Pd171  1  0.80430250  0.80274822  0.59762237  1
  Pd  Pd172  1  0.19679651  0.20387811  0.19514366  1
  Pd  Pd173  1  0.20328627  0.79275761  0.00197751  1
  Pd  Pd174  1  0.40365623  0.40031459  0.59357584  1
  Pd  Pd175  1  0.80762713  0.20662370  0.78862551  1
  Pd  Pd176  1  0.59490281  0.18802275  0.20627345  1
  Pd  Pd177  1  0.80636489  0.19401227  0.60334565  1
  Pd  Pd178  1  0.19506541  0.59100753  0.19804736  1
  Pd  Pd179  1  0.19845418  0.00686916  -0.00232151  1
  Pd  Pd180  1  0.59339010  0.60732143  -0.00833460  1
  Pd  Pd181  1  0.39600559  0.60304867  -0.01028209  1
  Pd  Pd182  1  0.19159895  0.40431341  0.19664500  1
  Pd  Pd183  1  -0.00023775  -0.00806661  0.20564446  1
  Pd  Pd184  1  0.39795608  0.20254043  0.59284328  1
  Pd  Pd185  1  0.60797338  0.39897687  0.80763433  1
  Pd  Pd186  1  0.79341677  -0.00615526  -0.00006784  1
  Pd  Pd187  1  -0.00323188  0.80480100  0.39383310  1
  Pd  Pd188  1  0.79180224  -0.00861299  0.79520057  1
  Pd  Pd189  1  0.00205413  0.79411722  0.60482592  1
  Pd  Pd190  1  0.40643714  0.80827559  0.59609199  1
  Pd  Pd191  1  0.00266685  0.18823946  -0.00440771  1
  Pd  Pd192  1  0.40674014  -0.01125152  0.19134854  1
  Pd  Pd193  1  0.39431834  0.39176653  -0.00167848  1
  Pd  Pd194  1  -0.01268723  0.40186942  -0.00225866  1
  Pd  Pd195  1  0.59306294  0.00512475  0.20616744  1
  Pd  Pd196  1  0.00219157  0.80191389  0.80514754  1
  Pd  Pd197  1  0.59360175  0.79991786  0.59268597  1
  Pd  Pd198  1  0.40741656  0.19986158  0.80214797  1
  Pd  Pd199  1  0.60656094  0.60520648  0.40069561  1
  Rh  Rh200  1  0.80461512  0.18977223  0.40498995  1
  Rh  Rh201  1  0.19282087  0.80280368  0.59902010  1
  Rh  Rh202  1  0.79629560  -0.00975541  0.60916637  1
  Rh  Rh203  1  0.40774653  0.60958836  0.20676153  1
  Rh  Rh204  1  0.18860157  0.20895801  0.40347898  1
  Rh  Rh205  1  -0.00088536  0.20287103  0.20699829  1
  Rh  Rh206  1  0.39506645  0.20689876  0.19685279  1
  Rh  Rh207  1  0.61087152  0.81023744  0.39914550  1
  Rh  Rh208  1  0.19388591  0.80353819  0.80252992  1
  Rh  Rh209  1  0.79841923  0.40970505  0.38894478  1
  Rh  Rh210  1  0.60813639  0.79325992  -0.00099608  1
  Rh  Rh211  1  0.40846988  0.40271392  0.80154750  1
  Rh  Rh212  1  0.20577606  0.59708037  0.80841072  1
  Rh  Rh213  1  0.00541969  0.00349038  0.79590534  1
  Rh  Rh214  1  0.80099155  -0.00502774  0.19591566  1
  Rh  Rh215  1  0.40251487  0.39959185  0.40302415  1
  Rh  Rh216  1  0.60294939  0.00585195  0.79789451  1
  Rh  Rh217  1  0.60546959  0.40109221  0.19337876  1
  Rh  Rh218  1  0.59090873  0.79648088  0.19851278  1
  Rh  Rh219  1  -0.00131525  0.00007553  0.00525671  1
  Rh  Rh220  1  0.39147055  0.79754411  0.39784588  1
  Rh  Rh221  1  0.00896388  0.60566613  0.00613539  1
  Rh  Rh222  1  0.79602390  0.59574019  0.20883755  1
  Rh  Rh223  1  0.20266172  0.39807297  0.59306928  1
  Rh  Rh224  1  0.01142259  0.59581458  0.79427725  1
  Rh  Rh225  1  0.59994887  0.38938757  0.40053770  1
  Rh  Rh226  1  0.19035617  0.60624735  0.59128603  1
  Rh  Rh227  1  -0.00165256  0.00480870  0.39516756  1
  Rh  Rh228  1  0.60736105  0.00835226  0.00048864  1
  Rh  Rh229  1  0.59641063  -0.00566778  0.59393673  1
  Rh  Rh230  1  0.00787331  0.59090155  0.19215520  1
  Rh  Rh231  1  0.80106570  0.40016850  0.60556063  1
  Rh  Rh232  1  0.00762799  0.40278543  0.60712913  1
  Rh  Rh233  1  0.79311707  0.59620026  0.79549966  1
  Rh  Rh234  1  0.60223427  0.20215283  0.59573722  1
  Rh  Rh235  1  0.60059820  0.39865485  0.59531337  1
  Rh  Rh236  1  -0.00953088  0.80224377  0.00268059  1
  Rh  Rh237  1  0.19071682  0.41035582  0.80196036  1
  Rh  Rh238  1  0.18901069  -0.00253129  0.20130101  1
  Rh  Rh239  1  0.80433462  0.60683716  0.00509862  1
  Rh  Rh240  1  0.59328264  0.60379649  0.20325725  1
  Rh  Rh241  1  0.79297003  -0.01238994  0.39702893  1
  Rh  Rh242  1  0.00420748  -0.00319432  0.59994018  1
  Rh  Rh243  1  0.39871644  -0.00620931  0.00018936  1
  Rh  Rh244  1  0.39857490  0.39387192  0.19822038  1
  Rh  Rh245  1  0.19078700  0.19148042  0.81553171  1
  Rh  Rh246  1  0.80474312  0.80174355  0.19859233  1
  Rh  Rh247  1  0.20620890  0.20486183  0.58740380  1
  Rh  Rh248  1  0.79237904  0.19312190  0.00739957  1
  Rh  Rh249  1  0.59843225  0.79413531  0.80600893  1
