# generated using pymatgen
data_ZrScNbPdRh
_symmetry_space_group_name_H-M   'P 1'
_cell_length_a   16.56309797
_cell_length_b   16.55820267
_cell_length_c   16.56143126
_cell_angle_alpha   90.00504111
_cell_angle_beta   89.97712713
_cell_angle_gamma   89.99209265
_symmetry_Int_Tables_number   1
_chemical_formula_structural   ZrScNbPdRh
_chemical_formula_sum   'Zr50 Sc50 Nb50 Pd50 Rh50'
_cell_volume   4542.05711002
_cell_formula_units_Z   50
loop_
 _symmetry_equiv_pos_site_id
 _symmetry_equiv_pos_as_xyz
  1  'x, y, z'
loop_
 _atom_site_type_symbol
 _atom_site_label
 _atom_site_symmetry_multiplicity
 _atom_site_fract_x
 _atom_site_fract_y
 _atom_site_fract_z
 _atom_site_occupancy
  Zr  Zr0  1  0.09784896  0.69538808  0.49864412  1
  Zr  Zr1  1  0.09990133  0.90143628  0.49743724  1
  Zr  Zr2  1  0.29935241  0.30291807  0.10026899  1
  Zr  Zr3  1  0.49216673  0.50402425  0.49471559  1
  Zr  Zr4  1  0.90194078  0.90192074  0.89759197  1
  Zr  Zr5  1  0.09859893  0.10234414  0.29890596  1
  Zr  Zr6  1  0.49072655  0.49560220  0.70560796  1
  Zr  Zr7  1  0.49613391  0.71143325  0.70113055  1
  Zr  Zr8  1  0.89668261  0.10027351  0.70633733  1
  Zr  Zr9  1  0.49426511  0.29776813  0.49500208  1
  Zr  Zr10  1  0.70153152  0.50534327  0.49890161  1
  Zr  Zr11  1  0.89887290  0.10100101  0.90396633  1
  Zr  Zr12  1  0.90250145  0.11247281  0.10301202  1
  Zr  Zr13  1  0.49496661  0.49827083  0.90937785  1
  Zr  Zr14  1  0.11262472  0.49837323  0.10003816  1
  Zr  Zr15  1  0.49632287  0.90120204  0.09825946  1
  Zr  Zr16  1  0.10714039  0.90287265  0.90730838  1
  Zr  Zr17  1  0.89147527  0.50544396  0.29510998  1
  Zr  Zr18  1  0.10499946  0.10372762  0.09879770  1
  Zr  Zr19  1  0.10356655  0.70672752  0.11011521  1
  Zr  Zr20  1  0.30712791  0.09926485  0.48718943  1
  Zr  Zr21  1  0.49245140  0.10312603  0.30094929  1
  Zr  Zr22  1  0.29997844  0.30163874  0.70012129  1
  Zr  Zr23  1  0.09642104  0.70542060  0.90154308  1
  Zr  Zr24  1  0.10198031  0.89211985  0.29776430  1
  Zr  Zr25  1  0.49335652  0.69412866  0.90185195  1
  Zr  Zr26  1  0.50411011  0.30063279  0.89149081  1
  Zr  Zr27  1  0.70404857  0.10624976  0.89491463  1
  Zr  Zr28  1  0.30619605  0.69130275  0.69935792  1
  Zr  Zr29  1  0.89881913  0.90626476  0.69573984  1
  Zr  Zr30  1  0.10712124  0.10127015  0.49750122  1
  Zr  Zr31  1  0.90310450  0.10604286  0.29522170  1
  Zr  Zr32  1  0.90317928  0.69904903  0.30243097  1
  Zr  Zr33  1  0.69926022  0.49667549  0.90260040  1
  Zr  Zr34  1  0.69128987  0.29766749  0.71294558  1
  Zr  Zr35  1  0.29501692  0.49456056  0.69816516  1
  Zr  Zr36  1  0.69533207  0.69933569  0.69935723  1
  Zr  Zr37  1  0.49903621  0.10301586  0.90769321  1
  Zr  Zr38  1  0.89858709  0.69329818  0.10958325  1
  Zr  Zr39  1  0.70731872  0.90378506  0.90553979  1
  Zr  Zr40  1  0.48945984  0.70045562  0.10003873  1
  Zr  Zr41  1  0.49439671  0.69901855  0.49945445  1
  Zr  Zr42  1  0.89497892  0.70844753  0.91281470  1
  Zr  Zr43  1  0.51341999  0.09460352  0.70006287  1
  Zr  Zr44  1  0.29510755  0.10305168  0.70107475  1
  Zr  Zr45  1  0.49610484  0.89703023  0.88924781  1
  Zr  Zr46  1  0.50007307  0.89939603  0.49939483  1
  Zr  Zr47  1  0.69532194  0.69404987  0.49966434  1
  Zr  Zr48  1  0.90405239  0.89864792  0.50576438  1
  Zr  Zr49  1  0.50027247  0.89682475  0.29156973  1
  Sc  Sc50  1  0.29975286  0.69504535  0.10385236  1
  Sc  Sc51  1  0.10375024  0.49910162  0.69901041  1
  Sc  Sc52  1  0.29919552  0.50670137  0.90212123  1
  Sc  Sc53  1  0.29846613  0.30575847  0.49720300  1
  Sc  Sc54  1  0.90580049  0.89296856  0.30429794  1
  Sc  Sc55  1  0.10534848  0.49157436  0.89874480  1
  Sc  Sc56  1  0.30373010  0.89218196  0.09493805  1
  Sc  Sc57  1  0.29772999  0.30409489  0.29928101  1
  Sc  Sc58  1  0.90730038  0.29704796  0.70270161  1
  Sc  Sc59  1  0.08971433  0.89351120  0.69640047  1
  Sc  Sc60  1  0.90953764  0.29575387  0.30077712  1
  Sc  Sc61  1  0.69476066  0.11109451  0.28828877  1
  Sc  Sc62  1  0.09723491  0.69462339  0.69595239  1
  Sc  Sc63  1  0.29091143  0.09471872  0.90013331  1
  Sc  Sc64  1  0.68958703  0.90628967  0.70214145  1
  Sc  Sc65  1  0.49258834  0.50281088  0.10628307  1
  Sc  Sc66  1  0.90357007  0.50106376  0.49945408  1
  Sc  Sc67  1  0.69505579  0.69222854  0.30704184  1
  Sc  Sc68  1  0.10651134  0.29935281  0.09439038  1
  Sc  Sc69  1  0.48938146  0.30088369  0.09644051  1
  Sc  Sc70  1  0.30351625  0.29374514  0.90077210  1
  Sc  Sc71  1  0.30620556  0.89718880  0.48142872  1
  Sc  Sc72  1  0.90885838  0.70814159  0.69433893  1
  Sc  Sc73  1  0.29897557  0.10085065  0.30211521  1
  Sc  Sc74  1  0.90721687  0.30748816  0.50139640  1
  Sc  Sc75  1  0.49582830  0.30160858  0.28976994  1
  Sc  Sc76  1  0.70299093  0.89489256  0.50264326  1
  Sc  Sc77  1  0.10161305  0.11064365  0.70075766  1
  Sc  Sc78  1  0.49925874  0.69467765  0.29741116  1
  Sc  Sc79  1  0.69327344  0.90408614  0.09962917  1
  Sc  Sc80  1  0.30221954  0.50402556  0.29524287  1
  Sc  Sc81  1  0.10053167  0.30052010  0.30539518  1
  Sc  Sc82  1  0.31351020  0.89866327  0.70581077  1
  Sc  Sc83  1  0.89713544  0.89709098  0.09500998  1
  Sc  Sc84  1  0.89643763  0.69820812  0.49846871  1
  Sc  Sc85  1  0.69974419  0.10629627  0.09106577  1
  Sc  Sc86  1  0.09811240  0.49685302  0.50237225  1
  Sc  Sc87  1  0.68983097  0.29885074  0.28311873  1
  Sc  Sc88  1  0.10528166  0.50100281  0.30402444  1
  Sc  Sc89  1  0.09964411  0.29526439  0.89960189  1
  Sc  Sc90  1  0.10282485  0.70036132  0.29910384  1
  Sc  Sc91  1  0.90103639  0.49369835  0.69510675  1
  Sc  Sc92  1  0.89572598  0.09641651  0.52033166  1
  Sc  Sc93  1  0.70417297  0.69081991  0.09263449  1
  Sc  Sc94  1  0.10186751  0.30302023  0.49851963  1
  Sc  Sc95  1  0.90931846  0.29681856  0.90429882  1
  Sc  Sc96  1  0.69453165  0.29438094  0.50487434  1
  Sc  Sc97  1  0.30296489  0.50245570  0.50065301  1
  Sc  Sc98  1  0.90192592  0.48549852  0.90721976  1
  Sc  Sc99  1  0.70345739  0.49484369  0.69871722  1
  Nb  Nb100  1  0.30451963  0.70290042  0.89885397  1
  Nb  Nb101  1  0.90425831  0.30541845  0.09913226  1
  Nb  Nb102  1  0.69355437  0.49679692  0.29582401  1
  Nb  Nb103  1  0.10117048  0.10012224  0.90248864  1
  Nb  Nb104  1  0.30009233  0.49634530  0.10415090  1
  Nb  Nb105  1  0.30316519  0.70681785  0.30171000  1
  Nb  Nb106  1  0.49976073  0.90075667  0.69934351  1
  Nb  Nb107  1  0.69483380  0.09881969  0.50427478  1
  Nb  Nb108  1  0.50343701  0.10072637  0.49677393  1
  Nb  Nb109  1  0.48396706  0.09578965  0.09784226  1
  Nb  Nb110  1  0.29573845  0.89518981  0.89722042  1
  Nb  Nb111  1  0.31027720  0.70258965  0.49935227  1
  Nb  Nb112  1  0.69712483  0.90343827  0.29790002  1
  Nb  Nb113  1  0.70997603  0.48992339  0.11238112  1
  Nb  Nb114  1  0.10546332  0.90159067  0.10426957  1
  Nb  Nb115  1  0.29926864  0.89914363  0.29926079  1
  Nb  Nb116  1  0.89645353  0.49659205  0.10280628  1
  Nb  Nb117  1  0.70782784  0.10086707  0.69142950  1
  Nb  Nb118  1  0.69067506  0.30055098  0.90324349  1
  Nb  Nb119  1  0.69687848  0.69989565  0.89981301  1
  Nb  Nb120  1  0.49573625  0.30113106  0.70207310  1
  Nb  Nb121  1  0.50464415  0.50264519  0.29657532  1
  Nb  Nb122  1  0.30165141  0.10200502  0.09432846  1
  Nb  Nb123  1  0.11157616  0.30148173  0.70432778  1
  Nb  Nb124  1  0.70094882  0.30394256  0.10099672  1
  Nb  Nb125  1  0.60484468  0.00538220  0.39840176  1
  Nb  Nb126  1  0.79686529  0.00616069  0.39678554  1
  Nb  Nb127  1  0.40437808  0.00374431  0.59749698  1
  Nb  Nb128  1  0.59639347  0.79649755  -0.00571685  1
  Nb  Nb129  1  0.00402119  0.00467916  0.80704127  1
  Nb  Nb130  1  0.20902849  0.79947261  0.59835886  1
  Nb  Nb131  1  -0.00216966  0.40487873  0.19277659  1
  Nb  Nb132  1  0.00041008  0.59499702  0.00587478  1
  Nb  Nb133  1  0.79936709  -0.00203007  0.20606962  1
  Nb  Nb134  1  0.79663283  0.79686118  0.80261179  1
  Nb  Nb135  1  0.00756294  0.00248840  0.00188942  1
  Nb  Nb136  1  -0.00730222  0.60105355  0.80977678  1
  Nb  Nb137  1  0.40676791  0.19571115  0.60068048  1
  Nb  Nb138  1  0.59083929  0.39790154  0.59907124  1
  Nb  Nb139  1  0.60053061  0.40485937  0.39724905  1
  Nb  Nb140  1  0.79068277  0.39693183  0.39472869  1
  Nb  Nb141  1  0.60160087  0.60154776  0.80399831  1
  Nb  Nb142  1  0.79613824  0.19769477  0.40217301  1
  Nb  Nb143  1  0.60742497  0.39814445  0.00749162  1
  Nb  Nb144  1  -0.00395684  0.00374163  0.40124932  1
  Nb  Nb145  1  0.20472912  0.79774630  0.79927582  1
  Nb  Nb146  1  0.20238022  -0.00355960  0.19729711  1
  Nb  Nb147  1  0.80194145  0.60511866  0.80509276  1
  Nb  Nb148  1  0.79383411  0.80281709  0.20521927  1
  Nb  Nb149  1  0.20869766  -0.00551699  0.59667097  1
  Pd  Pd150  1  0.19111909  -0.00915332  0.78680744  1
  Pd  Pd151  1  0.20692828  0.39479245  -0.00866249  1
  Pd  Pd152  1  0.60077100  0.59425866  0.00582516  1
  Pd  Pd153  1  0.80966083  0.60302845  0.60716608  1
  Pd  Pd154  1  0.80303446  0.21035287  0.80372036  1
  Pd  Pd155  1  0.59680394  -0.00239593  -0.00135410  1
  Pd  Pd156  1  0.79313728  0.39147294  0.59487798  1
  Pd  Pd157  1  0.00386574  0.40321909  0.79640604  1
  Pd  Pd158  1  0.40149152  0.19160033  0.79758737  1
  Pd  Pd159  1  0.60067369  0.80375868  0.59856349  1
  Pd  Pd160  1  0.19925699  0.60512687  0.00030701  1
  Pd  Pd161  1  0.38942670  0.40146329  0.80940679  1
  Pd  Pd162  1  0.80103331  0.21057171  0.59813953  1
  Pd  Pd163  1  0.38836158  -0.00061071  0.20072030  1
  Pd  Pd164  1  0.20860745  0.20064083  0.59152057  1
  Pd  Pd165  1  0.20863140  0.60040835  0.40003495  1
  Pd  Pd166  1  0.00377247  0.20296757  0.60085909  1
  Pd  Pd167  1  0.60452437  0.20399816  0.39409683  1
  Pd  Pd168  1  0.39292223  0.20182925  0.20048948  1
  Pd  Pd169  1  0.59748919  0.80264816  0.39849901  1
  Pd  Pd170  1  0.39948882  0.00781681  0.79998249  1
  Pd  Pd171  1  0.20045106  0.79199453  0.40394234  1
  Pd  Pd172  1  0.39026911  -0.00455184  -0.00762729  1
  Pd  Pd173  1  0.40258596  0.40219597  0.38848150  1
  Pd  Pd174  1  0.19190846  0.60439135  0.80344462  1
  Pd  Pd175  1  0.20117265  0.40451252  0.40072650  1
  Pd  Pd176  1  0.80005912  0.21136042  0.00037936  1
  Pd  Pd177  1  0.59552668  0.20593022  0.60468281  1
  Pd  Pd178  1  0.59326065  0.20587354  0.00771675  1
  Pd  Pd179  1  0.60643711  0.00483109  0.80537447  1
  Pd  Pd180  1  0.00081572  0.59511961  0.40032271  1
  Pd  Pd181  1  0.80828364  0.38663781  0.20924997  1
  Pd  Pd182  1  0.20355439  0.60246735  0.59267159  1
  Pd  Pd183  1  0.20291865  0.19815087  0.20282703  1
  Pd  Pd184  1  0.00189770  0.80246055  0.01177277  1
  Pd  Pd185  1  0.60204582  0.01138864  0.19778832  1
  Pd  Pd186  1  0.79642481  0.80321522  0.39558508  1
  Pd  Pd187  1  0.20655409  0.79388394  0.00056305  1
  Pd  Pd188  1  0.79523689  0.79991971  0.60711828  1
  Pd  Pd189  1  0.79680583  0.39142088  -0.00275884  1
  Pd  Pd190  1  0.00902758  0.39767213  0.60553921  1
  Pd  Pd191  1  0.01076244  0.59160584  0.19790550  1
  Pd  Pd192  1  0.80504658  0.39659839  0.80240941  1
  Pd  Pd193  1  0.80492111  0.59180682  -0.00271856  1
  Pd  Pd194  1  0.60780538  0.78900045  0.19004652  1
  Pd  Pd195  1  0.60382490  0.60169754  0.19085819  1
  Pd  Pd196  1  -0.00177259  -0.00941052  0.19890141  1
  Pd  Pd197  1  0.58756841  0.19490945  0.18298961  1
  Pd  Pd198  1  -0.00934500  0.19283210  0.41500143  1
  Pd  Pd199  1  0.59039638  0.59151338  0.60966571  1
  Rh  Rh200  1  0.39687870  0.19793025  -0.00143161  1
  Rh  Rh201  1  0.00443943  0.19773362  0.00208076  1
  Rh  Rh202  1  0.59167752  0.40467178  0.19449941  1
  Rh  Rh203  1  0.79802560  0.59508319  0.39722016  1
  Rh  Rh204  1  0.78931933  0.60834351  0.20546651  1
  Rh  Rh205  1  0.20966306  0.80364175  0.20127622  1
  Rh  Rh206  1  0.40010667  0.40068966  0.00134300  1
  Rh  Rh207  1  0.20296428  0.39628445  0.80338955  1
  Rh  Rh208  1  0.19751139  0.20439171  0.80609970  1
  Rh  Rh209  1  0.38774387  0.59589926  0.00751669  1
  Rh  Rh210  1  0.39488476  0.80971253  0.59697628  1
  Rh  Rh211  1  0.20535170  0.60247829  0.20504270  1
  Rh  Rh212  1  -0.00349187  0.59616285  0.60718333  1
  Rh  Rh213  1  0.00111379  0.80023582  0.40432913  1
  Rh  Rh214  1  0.40274964  0.59716699  0.79966024  1
  Rh  Rh215  1  0.59900214  0.40923928  0.79996532  1
  Rh  Rh216  1  0.59509098  0.59515157  0.39899835  1
  Rh  Rh217  1  0.39422998  0.79823850  0.80229254  1
  Rh  Rh218  1  0.00691102  0.79306100  0.59174526  1
  Rh  Rh219  1  0.01577137  0.01018275  0.60394474  1
  Rh  Rh220  1  0.19825719  0.39944978  0.59732586  1
  Rh  Rh221  1  -0.00086040  0.80089022  0.79898594  1
  Rh  Rh222  1  0.19115976  -0.00057633  0.39191888  1
  Rh  Rh223  1  0.20263623  0.00045498  0.01026450  1
  Rh  Rh224  1  0.00888919  0.21816403  0.19316013  1
  Rh  Rh225  1  0.78999333  -0.00440582  0.59878696  1
  Rh  Rh226  1  0.60328252  0.79704255  0.80559945  1
  Rh  Rh227  1  0.39558054  0.79855246  0.20275294  1
  Rh  Rh228  1  0.40705896  0.79729649  0.38983124  1
  Rh  Rh229  1  0.40036558  0.39350198  0.60084654  1
  Rh  Rh230  1  0.78735989  0.80355885  0.00716863  1
  Rh  Rh231  1  0.41211261  -0.00438678  0.39563685  1
  Rh  Rh232  1  0.40112498  0.59648187  0.60155470  1
  Rh  Rh233  1  0.20384876  0.20656437  0.39782658  1
  Rh  Rh234  1  0.39742940  0.20622568  0.39856113  1
  Rh  Rh235  1  0.60007862  -0.00389452  0.59355091  1
  Rh  Rh236  1  -0.00860355  0.80269958  0.19661835  1
  Rh  Rh237  1  0.19585326  0.39982609  0.20398870  1
  Rh  Rh238  1  0.40239592  0.80153922  -0.00436801  1
  Rh  Rh239  1  0.00629194  0.19741655  0.79920156  1
  Rh  Rh240  1  0.39707689  0.40351659  0.20017004  1
  Rh  Rh241  1  0.60080849  0.19186913  0.79829520  1
  Rh  Rh242  1  0.80123993  0.20265651  0.19915078  1
  Rh  Rh243  1  -0.00980984  0.40902984  0.38838556  1
  Rh  Rh244  1  0.20490130  0.20043653  -0.00417457  1
  Rh  Rh245  1  0.39516086  0.59907832  0.20391501  1
  Rh  Rh246  1  0.79910627  -0.00432156  0.79205711  1
  Rh  Rh247  1  0.39671910  0.60373003  0.39265080  1
  Rh  Rh248  1  0.80894616  0.00643532  0.01448336  1
  Rh  Rh249  1  0.00508665  0.40470730  0.00960487  1
