# generated using pymatgen
data_ZrScNbPdRh
_symmetry_space_group_name_H-M   'P 1'
_cell_length_a   16.56202149
_cell_length_b   16.56316450
_cell_length_c   16.56022625
_cell_angle_alpha   89.98191481
_cell_angle_beta   90.02226541
_cell_angle_gamma   90.00532744
_symmetry_Int_Tables_number   1
_chemical_formula_structural   ZrScNbPdRh
_chemical_formula_sum   'Zr50 Sc50 Nb50 Pd50 Rh50'
_cell_volume   4542.79217018
_cell_formula_units_Z   50
loop_
 _symmetry_equiv_pos_site_id
 _symmetry_equiv_pos_as_xyz
  1  'x, y, z'
loop_
 _atom_site_type_symbol
 _atom_site_label
 _atom_site_symmetry_multiplicity
 _atom_site_fract_x
 _atom_site_fract_y
 _atom_site_fract_z
 _atom_site_occupancy
  Zr  Zr0  1  0.70973681  0.10803041  0.10110430  1
  Zr  Zr1  1  0.69734211  0.11086907  0.70543036  1
  Zr  Zr2  1  0.90720464  0.90444908  0.09881552  1
  Zr  Zr3  1  0.49678365  0.50114776  0.69567104  1
  Zr  Zr4  1  0.49981004  0.70063161  0.09931934  1
  Zr  Zr5  1  0.70832888  0.69996924  0.50727286  1
  Zr  Zr6  1  0.49128499  0.89472499  0.10281466  1
  Zr  Zr7  1  0.70286289  0.09936457  0.30165011  1
  Zr  Zr8  1  0.69578599  0.29620458  0.89989169  1
  Zr  Zr9  1  0.29619247  0.10378527  0.69568434  1
  Zr  Zr10  1  0.30435770  0.50738581  0.49936412  1
  Zr  Zr11  1  0.10461008  0.70842403  0.89831895  1
  Zr  Zr12  1  0.50378549  0.49382082  0.10405486  1
  Zr  Zr13  1  0.50070705  0.69887273  0.89313856  1
  Zr  Zr14  1  0.30310263  0.50114226  0.31058147  1
  Zr  Zr15  1  0.29449492  0.49556471  0.68925825  1
  Zr  Zr16  1  0.70515352  0.69897290  0.09132059  1
  Zr  Zr17  1  0.90038983  0.90790357  0.70004520  1
  Zr  Zr18  1  0.90196234  0.29921699  0.30571965  1
  Zr  Zr19  1  0.50809505  0.31123698  0.29725659  1
  Zr  Zr20  1  0.90116280  0.89925421  0.29719595  1
  Zr  Zr21  1  0.29970741  0.69928961  0.10071512  1
  Zr  Zr22  1  0.89937796  0.70246971  0.10440765  1
  Zr  Zr23  1  0.09681888  0.10138027  0.70102833  1
  Zr  Zr24  1  0.70192802  0.29151909  0.29696882  1
  Zr  Zr25  1  0.90242188  0.50136812  0.09855265  1
  Zr  Zr26  1  0.90627921  0.90320858  0.89592351  1
  Zr  Zr27  1  0.10022544  0.70375050  0.50817082  1
  Zr  Zr28  1  0.09342929  0.48747052  0.89377298  1
  Zr  Zr29  1  0.30763698  0.09901459  0.49673442  1
  Zr  Zr30  1  0.30444367  0.29073125  0.69710245  1
  Zr  Zr31  1  0.50075872  0.49978739  0.49638234  1
  Zr  Zr32  1  0.29864492  0.89554875  0.09946546  1
  Zr  Zr33  1  0.49472320  0.89533088  0.90398972  1
  Zr  Zr34  1  0.49059366  0.11056607  0.69648234  1
  Zr  Zr35  1  0.10262543  0.10109693  0.49929295  1
  Zr  Zr36  1  0.49212568  0.89364302  0.70037622  1
  Zr  Zr37  1  0.29697734  0.49579046  0.89719601  1
  Zr  Zr38  1  0.09765702  0.30821245  0.29747729  1
  Zr  Zr39  1  0.89886033  0.30387959  0.10696968  1
  Zr  Zr40  1  0.10173763  0.70695299  0.09962443  1
  Zr  Zr41  1  0.30165607  0.90139735  0.29970596  1
  Zr  Zr42  1  0.89293412  0.29656008  0.68570081  1
  Zr  Zr43  1  0.90654594  0.70160219  0.69091325  1
  Zr  Zr44  1  0.70208049  0.90725002  0.70198321  1
  Zr  Zr45  1  0.48856299  0.69927652  0.50152548  1
  Zr  Zr46  1  0.50569122  0.30073537  0.09848264  1
  Zr  Zr47  1  0.70213770  0.30375845  0.50688463  1
  Zr  Zr48  1  0.90162710  0.10449156  0.29898592  1
  Zr  Zr49  1  0.69467562  0.69698661  0.89366811  1
  Sc  Sc50  1  0.09716914  0.88741519  0.71063531  1
  Sc  Sc51  1  0.69671606  0.50303752  0.68946278  1
  Sc  Sc52  1  0.70962733  0.70627177  0.29575121  1
  Sc  Sc53  1  0.69738212  0.11037841  0.90774202  1
  Sc  Sc54  1  0.10456593  0.50194302  0.30867413  1
  Sc  Sc55  1  0.70394843  0.90825520  0.10474732  1
  Sc  Sc56  1  0.90162861  0.30476696  0.90152452  1
  Sc  Sc57  1  0.49085324  0.69883754  0.70555348  1
  Sc  Sc58  1  0.69566542  0.50711683  0.09993936  1
  Sc  Sc59  1  0.29525477  0.30739380  0.09176298  1
  Sc  Sc60  1  0.90687047  0.49594132  0.51238944  1
  Sc  Sc61  1  0.70701644  0.89086364  0.89867623  1
  Sc  Sc62  1  0.50608986  0.08780357  0.09487367  1
  Sc  Sc63  1  0.30151623  0.89138671  0.49757709  1
  Sc  Sc64  1  0.90177078  0.49854788  0.89318141  1
  Sc  Sc65  1  0.89305022  0.09792601  0.70219155  1
  Sc  Sc66  1  0.50276761  0.90040842  0.29946170  1
  Sc  Sc67  1  0.69094558  0.49180469  0.29659565  1
  Sc  Sc68  1  0.90867058  0.49969268  0.69935090  1
  Sc  Sc69  1  0.28741565  0.29675460  0.89759664  1
  Sc  Sc70  1  0.51127924  0.30213080  0.90014212  1
  Sc  Sc71  1  0.49017249  0.90440332  0.49669423  1
  Sc  Sc72  1  0.29541468  0.70112052  0.30944150  1
  Sc  Sc73  1  0.69506219  0.10388579  0.49493847  1
  Sc  Sc74  1  0.29578132  0.70276929  0.49899154  1
  Sc  Sc75  1  0.29914547  0.49918865  0.09308985  1
  Sc  Sc76  1  0.70042673  0.90569868  0.30371081  1
  Sc  Sc77  1  0.68959488  0.50322917  0.89525424  1
  Sc  Sc78  1  0.89218417  0.10162061  0.90134620  1
  Sc  Sc79  1  0.29930850  0.30639742  0.30890621  1
  Sc  Sc80  1  0.50254514  0.50114408  0.90059124  1
  Sc  Sc81  1  0.50774631  0.10082919  0.31562342  1
  Sc  Sc82  1  0.10381404  0.09267874  0.30956951  1
  Sc  Sc83  1  0.08860339  0.29579438  0.50144695  1
  Sc  Sc84  1  0.88604856  0.70073017  0.89851169  1
  Sc  Sc85  1  0.30396396  0.69903631  0.90175831  1
  Sc  Sc86  1  0.10384240  0.49240564  0.10278162  1
  Sc  Sc87  1  0.10124781  0.69731325  0.30405418  1
  Sc  Sc88  1  0.10597932  0.09215754  0.89625600  1
  Sc  Sc89  1  0.10447400  0.89991187  0.29984271  1
  Sc  Sc90  1  0.29651617  0.29604365  0.50200734  1
  Sc  Sc91  1  0.50788980  0.29442207  0.50101643  1
  Sc  Sc92  1  0.91155716  0.49753907  0.29579345  1
  Sc  Sc93  1  0.10548011  0.08400635  0.09307211  1
  Sc  Sc94  1  0.29090986  0.10103055  0.89461996  1
  Sc  Sc95  1  0.10393154  0.30296318  0.69536299  1
  Sc  Sc96  1  0.30122461  0.08688452  0.10094628  1
  Sc  Sc97  1  0.49729459  0.70754534  0.29701867  1
  Sc  Sc98  1  0.90476621  0.70061859  0.29549932  1
  Sc  Sc99  1  0.71113344  0.90403896  0.50284862  1
  Nb  Nb100  1  0.09677823  0.50725048  0.69200176  1
  Nb  Nb101  1  0.09690099  0.29770421  0.90599643  1
  Nb  Nb102  1  0.89932050  0.29446661  0.49802351  1
  Nb  Nb103  1  0.10320863  0.50926662  0.51468676  1
  Nb  Nb104  1  0.10276562  0.69543641  0.69605396  1
  Nb  Nb105  1  0.70049979  0.50154011  0.49697739  1
  Nb  Nb106  1  0.69920461  0.29797854  0.09578729  1
  Nb  Nb107  1  0.09904851  0.89204724  0.08859910  1
  Nb  Nb108  1  0.89668026  0.71037813  0.49695670  1
  Nb  Nb109  1  0.30152269  0.89772149  0.69664314  1
  Nb  Nb110  1  0.29853897  0.10539335  0.29865464  1
  Nb  Nb111  1  0.69358827  0.29829644  0.70550705  1
  Nb  Nb112  1  0.10232521  0.90135096  0.50015804  1
  Nb  Nb113  1  0.50826896  0.29806132  0.70325563  1
  Nb  Nb114  1  0.90063856  0.10116667  0.10157104  1
  Nb  Nb115  1  0.29403382  0.89636148  0.89396154  1
  Nb  Nb116  1  0.29366059  0.70992152  0.69800359  1
  Nb  Nb117  1  0.50315828  0.09645168  0.50320185  1
  Nb  Nb118  1  0.09975280  0.29903379  0.09575871  1
  Nb  Nb119  1  0.49854327  0.09590119  0.90112666  1
  Nb  Nb120  1  0.69266775  0.70288900  0.70498457  1
  Nb  Nb121  1  0.10329065  0.89878827  0.90786075  1
  Nb  Nb122  1  0.89944779  0.89962749  0.50511775  1
  Nb  Nb123  1  0.90758726  0.10856342  0.49835375  1
  Nb  Nb124  1  0.49871920  0.49889990  0.30103639  1
  Nb  Nb125  1  0.80174501  0.40128774  0.40632670  1
  Nb  Nb126  1  0.59431054  0.00102349  0.60378202  1
  Nb  Nb127  1  0.00162466  0.20376963  0.80466675  1
  Nb  Nb128  1  0.79974018  0.59360858  0.40496811  1
  Nb  Nb129  1  0.20110021  0.19887668  0.19929302  1
  Nb  Nb130  1  0.40239461  0.39462165  0.79284623  1
  Nb  Nb131  1  0.59930213  0.79859293  0.00183717  1
  Nb  Nb132  1  0.79206020  0.39396610  0.79495286  1
  Nb  Nb133  1  0.40181260  0.19636199  0.00229380  1
  Nb  Nb134  1  -0.00297527  0.80470592  0.40943238  1
  Nb  Nb135  1  0.60299211  0.60241939  0.40138371  1
  Nb  Nb136  1  0.00057193  -0.00319372  0.59453227  1
  Nb  Nb137  1  0.60449517  0.79576281  0.41071660  1
  Nb  Nb138  1  0.00798626  0.19686997  0.19300244  1
  Nb  Nb139  1  0.19327764  0.59928800  0.79021712  1
  Nb  Nb140  1  0.00347371  0.20042144  0.00305062  1
  Nb  Nb141  1  0.19786480  -0.00614842  0.59916787  1
  Nb  Nb142  1  0.59108982  0.00245256  0.80025977  1
  Nb  Nb143  1  0.40152766  0.59371094  0.20352725  1
  Nb  Nb144  1  0.39542391  0.19890218  0.20014870  1
  Nb  Nb145  1  0.81207268  0.00447037  0.40486172  1
  Nb  Nb146  1  0.79464282  0.39807760  -0.00132391  1
  Nb  Nb147  1  0.39732897  -0.00151669  0.79872581  1
  Nb  Nb148  1  0.00180210  0.60250578  -0.00026184  1
  Nb  Nb149  1  0.60062223  0.80191090  0.60153702  1
  Pd  Pd150  1  0.59524859  0.60840504  0.59888096  1
  Pd  Pd151  1  0.40596311  0.38954809  0.59811626  1
  Pd  Pd152  1  0.40077322  0.39019305  -0.01322907  1
  Pd  Pd153  1  0.20592612  0.59614448  0.20397196  1
  Pd  Pd154  1  0.59773671  0.00328563  0.20201850  1
  Pd  Pd155  1  0.80405867  0.58950731  -0.00740533  1
  Pd  Pd156  1  0.79958050  0.59190074  0.21233018  1
  Pd  Pd157  1  0.38934357  0.39826624  0.19959875  1
  Pd  Pd158  1  0.00354772  0.60800768  0.80639087  1
  Pd  Pd159  1  -0.00672908  0.38871235  0.78737714  1
  Pd  Pd160  1  0.59932476  0.39930727  0.60163661  1
  Pd  Pd161  1  0.79749306  -0.00226835  -0.00350481  1
  Pd  Pd162  1  0.20671051  0.39866293  0.19948107  1
  Pd  Pd163  1  0.19509018  0.00041967  0.20066396  1
  Pd  Pd164  1  0.40718531  0.20663409  0.39662156  1
  Pd  Pd165  1  0.19566277  0.20424164  0.39592483  1
  Pd  Pd166  1  0.59075746  0.19025163  0.19745631  1
  Pd  Pd167  1  0.60869305  0.80262369  0.19901369  1
  Pd  Pd168  1  0.79586189  0.80171773  0.61099851  1
  Pd  Pd169  1  0.59648576  0.60489343  0.20950502  1
  Pd  Pd170  1  0.38800326  0.59272410  0.79326460  1
  Pd  Pd171  1  0.79453329  0.40584046  0.20115943  1
  Pd  Pd172  1  0.61022882  -0.00819498  -0.00667630  1
  Pd  Pd173  1  0.19448713  0.39382827  0.59155552  1
  Pd  Pd174  1  0.20056664  -0.00875645  0.79237028  1
  Pd  Pd175  1  0.39860348  -0.00066680  0.39466629  1
  Pd  Pd176  1  0.19828566  0.79942289  0.20501973  1
  Pd  Pd177  1  -0.00130175  0.40713218  0.41034105  1
  Pd  Pd178  1  0.19036044  0.59410692  -0.01026568  1
  Pd  Pd179  1  0.80724082  0.59605365  0.60197476  1
  Pd  Pd180  1  -0.01032994  0.79218899  -0.00670904  1
  Pd  Pd181  1  0.79724814  0.59135665  0.79021326  1
  Pd  Pd182  1  -0.00599928  0.60481502  0.40811178  1
  Pd  Pd183  1  -0.00411530  0.79419179  0.80214679  1
  Pd  Pd184  1  0.79438586  0.19222103  0.59468680  1
  Pd  Pd185  1  0.38795879  0.00309106  -0.01002378  1
  Pd  Pd186  1  0.80414382  0.79786025  0.79176941  1
  Pd  Pd187  1  0.40517990  0.59645515  0.00433194  1
  Pd  Pd188  1  0.79837944  0.80619411  0.19658777  1
  Pd  Pd189  1  0.40377272  0.20405184  0.81424613  1
  Pd  Pd190  1  -0.00405967  -0.00480308  0.40445756  1
  Pd  Pd191  1  0.19191352  0.40294102  0.41376286  1
  Pd  Pd192  1  0.00044042  0.00823915  -0.00883677  1
  Pd  Pd193  1  0.40356947  0.39124886  0.40912648  1
  Pd  Pd194  1  0.78937591  0.00789752  0.81137920  1
  Pd  Pd195  1  0.01061334  0.59881832  0.19448709  1
  Pd  Pd196  1  0.20184325  0.19258165  0.00736918  1
  Pd  Pd197  1  0.00936894  0.00174387  0.19857737  1
  Pd  Pd198  1  0.20114630  0.39820311  0.79367040  1
  Pd  Pd199  1  0.40952498  0.01016247  0.21056259  1
  Rh  Rh200  1  0.39079203  0.60753430  0.60619388  1
  Rh  Rh201  1  0.60100234  0.20521617  0.40177710  1
  Rh  Rh202  1  0.40736707  0.60442352  0.39003914  1
  Rh  Rh203  1  0.39872956  0.79524167  0.59899712  1
  Rh  Rh204  1  0.81015129  0.20864023  0.00347447  1
  Rh  Rh205  1  0.20715367  0.60638740  0.60099671  1
  Rh  Rh206  1  0.60065426  0.19570655  0.59795020  1
  Rh  Rh207  1  0.38911577  0.80190235  0.80305637  1
  Rh  Rh208  1  0.19581775  0.59836722  0.40887195  1
  Rh  Rh209  1  0.79964508  0.80767077  0.00641313  1
  Rh  Rh210  1  0.19889002  0.80644388  0.60268318  1
  Rh  Rh211  1  -0.00540686  0.60527809  0.59371600  1
  Rh  Rh212  1  0.60635269  0.40190848  0.40140792  1
  Rh  Rh213  1  0.39767059  0.79715371  -0.00365713  1
  Rh  Rh214  1  0.79809842  0.40197552  0.60106843  1
  Rh  Rh215  1  0.80871630  0.20926914  0.80344063  1
  Rh  Rh216  1  0.00791521  0.80292576  0.20722318  1
  Rh  Rh217  1  0.59395500  0.60589756  -0.00138015  1
  Rh  Rh218  1  0.80445051  0.01291141  0.58931135  1
  Rh  Rh219  1  0.00366105  0.39622461  0.59953291  1
  Rh  Rh220  1  0.59306166  0.19383515  0.80549789  1
  Rh  Rh221  1  0.40494552  0.20572203  0.58996421  1
  Rh  Rh222  1  0.60808134  0.39898620  0.19458800  1
  Rh  Rh223  1  0.00582484  0.40001192  0.19853606  1
  Rh  Rh224  1  0.59860580  0.40625871  0.79193033  1
  Rh  Rh225  1  0.80650597  0.20034375  0.19762923  1
  Rh  Rh226  1  0.20805424  0.80267814  -0.00199384  1
  Rh  Rh227  1  0.60750670  -0.01104317  0.41217923  1
  Rh  Rh228  1  0.59134673  0.19505254  0.00468052  1
  Rh  Rh229  1  0.39465676  0.00133502  0.60339227  1
  Rh  Rh230  1  0.79804178  0.20099421  0.40658163  1
  Rh  Rh231  1  0.20201999  0.79696831  0.80013861  1
  Rh  Rh232  1  0.80359717  0.80347329  0.39500044  1
  Rh  Rh233  1  -0.00170067  0.19455187  0.60765673  1
  Rh  Rh234  1  0.21135632  -0.00354557  0.40559254  1
  Rh  Rh235  1  0.59811577  0.59610591  0.79110259  1
  Rh  Rh236  1  0.00119847  0.00607504  0.80098224  1
  Rh  Rh237  1  -0.00514697  0.40159695  0.00488673  1
  Rh  Rh238  1  0.00350149  0.80561882  0.59820881  1
  Rh  Rh239  1  0.19877799  0.19598024  0.59504806  1
  Rh  Rh240  1  0.00737195  0.20222024  0.39116926  1
  Rh  Rh241  1  0.39013046  0.79162241  0.20660250  1
  Rh  Rh242  1  0.40498341  0.80257173  0.39489466  1
  Rh  Rh243  1  0.60928695  0.40462524  0.00485864  1
  Rh  Rh244  1  0.19600068  0.40407083  -0.00226440  1
  Rh  Rh245  1  0.19091911  0.80066800  0.39895066  1
  Rh  Rh246  1  0.18771991  0.20695797  0.79896563  1
  Rh  Rh247  1  0.60024047  0.80496575  0.80004385  1
  Rh  Rh248  1  0.20450301  -0.00938514  -0.00217942  1
  Rh  Rh249  1  0.80294085  0.00283381  0.20562914  1
