# generated using pymatgen
data_ZrScNbPdRh
_symmetry_space_group_name_H-M   'P 1'
_cell_length_a   16.56376222
_cell_length_b   16.56166328
_cell_length_c   16.56281267
_cell_angle_alpha   89.98245889
_cell_angle_beta   90.03324579
_cell_angle_gamma   90.00916715
_symmetry_Int_Tables_number   1
_chemical_formula_structural   ZrScNbPdRh
_chemical_formula_sum   'Zr50 Sc50 Nb50 Pd50 Rh50'
_cell_volume   4543.56691875
_cell_formula_units_Z   50
loop_
 _symmetry_equiv_pos_site_id
 _symmetry_equiv_pos_as_xyz
  1  'x, y, z'
loop_
 _atom_site_type_symbol
 _atom_site_label
 _atom_site_symmetry_multiplicity
 _atom_site_fract_x
 _atom_site_fract_y
 _atom_site_fract_z
 _atom_site_occupancy
  Zr  Zr0  1  0.91047844  0.70433430  0.90018943  1
  Zr  Zr1  1  0.29590057  0.89959065  0.29538985  1
  Zr  Zr2  1  0.49732652  0.70122156  0.89983579  1
  Zr  Zr3  1  0.89700135  0.10264784  0.90487507  1
  Zr  Zr4  1  0.49259965  0.49987336  0.29921090  1
  Zr  Zr5  1  0.30380038  0.90060880  0.69529030  1
  Zr  Zr6  1  0.09851570  0.30007733  0.91092353  1
  Zr  Zr7  1  0.28859866  0.30731733  0.49983095  1
  Zr  Zr8  1  0.11091763  0.50037664  0.90164586  1
  Zr  Zr9  1  0.10355353  0.90429615  0.69367515  1
  Zr  Zr10  1  0.50660900  0.50888546  0.50533744  1
  Zr  Zr11  1  0.90273795  0.69151756  0.10420209  1
  Zr  Zr12  1  0.49768746  0.70704452  0.29421486  1
  Zr  Zr13  1  0.29804142  0.49551752  0.29857116  1
  Zr  Zr14  1  0.09942838  0.10379450  0.90755556  1
  Zr  Zr15  1  0.10310341  0.49294324  0.50724702  1
  Zr  Zr16  1  0.31066358  0.49591421  0.09642431  1
  Zr  Zr17  1  0.10899996  0.89878059  0.10595942  1
  Zr  Zr18  1  0.10293066  0.70491994  0.31186132  1
  Zr  Zr19  1  0.10119769  0.90598168  0.50045468  1
  Zr  Zr20  1  0.69974091  0.09781902  0.69696731  1
  Zr  Zr21  1  0.68961861  0.90147665  0.10786491  1
  Zr  Zr22  1  0.68597212  0.69837649  0.89825553  1
  Zr  Zr23  1  0.09564016  0.10776418  0.30933955  1
  Zr  Zr24  1  0.89555611  0.90390599  0.68556295  1
  Zr  Zr25  1  0.69155986  0.90279915  0.89437412  1
  Zr  Zr26  1  0.10268288  0.69545248  0.09362557  1
  Zr  Zr27  1  0.69591439  0.50703583  0.69473180  1
  Zr  Zr28  1  0.29552452  0.70785590  0.30209250  1
  Zr  Zr29  1  0.50120938  0.29555824  0.49883175  1
  Zr  Zr30  1  0.89333468  0.29983751  0.70053343  1
  Zr  Zr31  1  0.89619800  0.89750892  0.31153848  1
  Zr  Zr32  1  0.89762486  0.10879621  0.10320853  1
  Zr  Zr33  1  0.10116557  0.29948053  0.29754966  1
  Zr  Zr34  1  0.49572340  0.89343938  0.10240268  1
  Zr  Zr35  1  0.10025486  0.30167348  0.68443714  1
  Zr  Zr36  1  0.70105143  0.69961172  0.29978828  1
  Zr  Zr37  1  0.29963502  0.50492426  0.50678509  1
  Zr  Zr38  1  0.90251629  0.49101739  0.10615437  1
  Zr  Zr39  1  0.10435626  0.90241826  0.30277139  1
  Zr  Zr40  1  0.88950520  0.30582574  0.50039478  1
  Zr  Zr41  1  0.09810601  0.28873931  0.49355601  1
  Zr  Zr42  1  0.30582594  0.90219315  0.09870829  1
  Zr  Zr43  1  0.90969231  0.70184020  0.69424086  1
  Zr  Zr44  1  0.89565795  0.90517056  0.90050811  1
  Zr  Zr45  1  0.90484224  0.50589185  0.50136216  1
  Zr  Zr46  1  0.90671083  0.70390602  0.49604777  1
  Zr  Zr47  1  0.30398045  0.69962164  0.89493660  1
  Zr  Zr48  1  0.29311090  0.70430901  0.50310241  1
  Zr  Zr49  1  0.70016952  0.28863710  0.30768151  1
  Sc  Sc50  1  0.50086742  0.08593912  0.10717610  1
  Sc  Sc51  1  0.30280598  0.09331983  0.30368610  1
  Sc  Sc52  1  0.49845705  0.50546585  0.90545768  1
  Sc  Sc53  1  0.29842215  0.30766594  0.30328897  1
  Sc  Sc54  1  0.70734933  0.49709944  0.50227130  1
  Sc  Sc55  1  0.70524146  0.90067614  0.30200512  1
  Sc  Sc56  1  0.89653164  0.29306486  0.29798460  1
  Sc  Sc57  1  0.89941513  0.91423829  0.10251907  1
  Sc  Sc58  1  0.69277191  0.50114635  0.89886144  1
  Sc  Sc59  1  0.10352301  0.50243803  0.70273649  1
  Sc  Sc60  1  0.30113013  0.30095683  0.70912455  1
  Sc  Sc61  1  0.50490340  0.09964528  0.69622950  1
  Sc  Sc62  1  0.70630651  0.29809304  0.10216263  1
  Sc  Sc63  1  0.70300101  0.30287652  0.89767923  1
  Sc  Sc64  1  0.90943337  0.49108211  0.89623065  1
  Sc  Sc65  1  0.49723590  0.29722080  0.89121014  1
  Sc  Sc66  1  0.09654302  0.49482860  0.29716563  1
  Sc  Sc67  1  0.29753701  0.30394617  0.90039303  1
  Sc  Sc68  1  0.48971442  0.90236527  0.29287325  1
  Sc  Sc69  1  0.30599717  0.70283386  0.09072479  1
  Sc  Sc70  1  0.29931960  0.09585812  0.49457888  1
  Sc  Sc71  1  0.69879716  0.09587944  0.89590706  1
  Sc  Sc72  1  0.49749429  0.31442801  0.09468455  1
  Sc  Sc73  1  0.49290032  0.89978207  0.89601380  1
  Sc  Sc74  1  0.50130140  0.10226539  0.30376654  1
  Sc  Sc75  1  0.49513913  0.09356304  0.50211794  1
  Sc  Sc76  1  0.71125940  0.89902922  0.50982831  1
  Sc  Sc77  1  0.30712719  0.69298269  0.69920753  1
  Sc  Sc78  1  0.50217162  0.70276443  0.70355535  1
  Sc  Sc79  1  0.90734518  0.49596432  0.69610998  1
  Sc  Sc80  1  0.90369723  0.69275091  0.31047382  1
  Sc  Sc81  1  0.90124531  0.09175656  0.50022453  1
  Sc  Sc82  1  0.09649139  0.10967157  0.10292776  1
  Sc  Sc83  1  0.10226389  0.29894563  0.10403187  1
  Sc  Sc84  1  0.69728339  0.09649372  0.11237636  1
  Sc  Sc85  1  0.30580553  0.90412237  0.49931961  1
  Sc  Sc86  1  0.70650314  0.69581867  0.50358490  1
  Sc  Sc87  1  0.89384553  0.09708239  0.29844867  1
  Sc  Sc88  1  0.10106145  0.09599719  0.68086178  1
  Sc  Sc89  1  0.30285893  0.09240869  0.70120636  1
  Sc  Sc90  1  0.29831289  0.09889005  0.10087048  1
  Sc  Sc91  1  0.50221120  0.28999815  0.70232023  1
  Sc  Sc92  1  0.09587265  0.89368027  0.90269340  1
  Sc  Sc93  1  0.89757212  0.29975102  0.90473437  1
  Sc  Sc94  1  0.10433089  0.69288321  0.89959792  1
  Sc  Sc95  1  0.70275653  0.49529371  0.09679685  1
  Sc  Sc96  1  0.89491056  0.49762373  0.30002873  1
  Sc  Sc97  1  0.49858537  0.09592674  0.88880868  1
  Sc  Sc98  1  0.69963152  0.10471520  0.50199397  1
  Sc  Sc99  1  0.09787833  0.49127035  0.10073229  1
  Nb  Nb100  1  0.70207142  0.70611184  0.70870893  1
  Nb  Nb101  1  0.10289464  0.10254843  0.49396488  1
  Nb  Nb102  1  0.69858111  0.30039761  0.68529833  1
  Nb  Nb103  1  0.90076977  0.09894699  0.70435651  1
  Nb  Nb104  1  0.49594493  0.50540027  0.69887721  1
  Nb  Nb105  1  0.69312371  0.49649857  0.30188303  1
  Nb  Nb106  1  0.49517561  0.70363064  0.49666855  1
  Nb  Nb107  1  0.30709603  0.50313001  0.70894184  1
  Nb  Nb108  1  0.50345866  0.90024393  0.50647935  1
  Nb  Nb109  1  0.30321488  0.09613551  0.89703022  1
  Nb  Nb110  1  0.69728136  0.09330776  0.30000564  1
  Nb  Nb111  1  0.10041572  0.69690394  0.50394290  1
  Nb  Nb112  1  0.69575951  0.89607921  0.69707970  1
  Nb  Nb113  1  0.50588766  0.69624204  0.09481437  1
  Nb  Nb114  1  0.49911459  0.50559157  0.10179334  1
  Nb  Nb115  1  0.50863831  0.90273193  0.68805021  1
  Nb  Nb116  1  0.10503186  0.70813176  0.69737344  1
  Nb  Nb117  1  0.89410040  0.89711512  0.49737660  1
  Nb  Nb118  1  0.30399559  0.90328027  0.89618134  1
  Nb  Nb119  1  0.90225760  0.29932908  0.10294316  1
  Nb  Nb120  1  0.30197045  0.29662389  0.10076899  1
  Nb  Nb121  1  0.70070364  0.30240655  0.50554892  1
  Nb  Nb122  1  0.29573301  0.50977438  0.89059409  1
  Nb  Nb123  1  0.69516222  0.70177825  0.09776007  1
  Nb  Nb124  1  0.49914540  0.30126522  0.30156540  1
  Nb  Nb125  1  0.59622423  0.40234809  0.20773723  1
  Nb  Nb126  1  -0.00195528  0.39477616  0.40371611  1
  Nb  Nb127  1  0.39744245  0.20641464  0.59708734  1
  Nb  Nb128  1  0.59256801  0.19866040  0.00103567  1
  Nb  Nb129  1  -0.00274165  0.00658466  0.79664071  1
  Nb  Nb130  1  0.20408106  0.80291487  0.79628754  1
  Nb  Nb131  1  0.39952301  0.60604429  0.40285570  1
  Nb  Nb132  1  0.20525629  -0.00086327  -0.00586678  1
  Nb  Nb133  1  0.79499939  0.79687806  0.00128412  1
  Nb  Nb134  1  0.80345809  0.79492519  0.19478173  1
  Nb  Nb135  1  0.59910088  0.40208292  0.78722089  1
  Nb  Nb136  1  0.59978820  -0.00793499  0.40463143  1
  Nb  Nb137  1  0.40245896  0.40263616  0.60683261  1
  Nb  Nb138  1  0.40252160  0.20827165  0.19667900  1
  Nb  Nb139  1  0.80082071  0.60560544  -0.00405487  1
  Nb  Nb140  1  0.00170304  0.19615077  0.79492276  1
  Nb  Nb141  1  -0.00091169  0.79985763  0.20347021  1
  Nb  Nb142  1  0.80148119  0.60787813  0.80232309  1
  Nb  Nb143  1  0.79779190  0.79904799  0.79903540  1
  Nb  Nb144  1  0.20306273  0.60044456  0.19831452  1
  Nb  Nb145  1  0.59502470  0.80371890  0.40681565  1
  Nb  Nb146  1  0.59809694  0.59731682  0.19566568  1
  Nb  Nb147  1  0.40057970  0.19731509  0.00212036  1
  Nb  Nb148  1  0.60250924  0.39506442  0.39905161  1
  Nb  Nb149  1  0.19280975  0.19451573  0.80178681  1
  Pd  Pd150  1  0.00290721  0.59747662  0.79580472  1
  Pd  Pd151  1  -0.00204389  0.00202040  0.40243791  1
  Pd  Pd152  1  0.19974277  0.59262483  0.39566643  1
  Pd  Pd153  1  0.01049843  0.60371861  0.20902209  1
  Pd  Pd154  1  -0.00687420  0.80807579  0.01292695  1
  Pd  Pd155  1  0.40844384  0.40421388  0.80058024  1
  Pd  Pd156  1  0.79123578  0.59939154  0.19573896  1
  Pd  Pd157  1  0.79081607  0.40897189  0.79540557  1
  Pd  Pd158  1  0.20604198  0.40204404  0.00422478  1
  Pd  Pd159  1  0.59389272  0.39794686  0.59919267  1
  Pd  Pd160  1  0.00308712  0.80979140  0.79486932  1
  Pd  Pd161  1  0.40113005  0.80496443  0.40197193  1
  Pd  Pd162  1  0.79938902  0.59529319  0.40019218  1
  Pd  Pd163  1  0.78865902  0.00046870  0.00801332  1
  Pd  Pd164  1  0.19775360  0.59922285  0.61004940  1
  Pd  Pd165  1  0.41010294  -0.00271629  0.78974217  1
  Pd  Pd166  1  0.59933983  0.19385217  0.40581821  1
  Pd  Pd167  1  0.80487710  0.19253865  0.59720557  1
  Pd  Pd168  1  0.00862499  0.39009175  0.79842134  1
  Pd  Pd169  1  -0.00259367  0.58697287  -0.00208319  1
  Pd  Pd170  1  0.40508570  0.40616439  0.41189985  1
  Pd  Pd171  1  -0.00983805  0.19552733  0.59734679  1
  Pd  Pd172  1  0.80422096  0.60361104  0.60628087  1
  Pd  Pd173  1  0.21019921  0.19737618  0.20732174  1
  Pd  Pd174  1  0.59056979  0.20735670  0.19069235  1
  Pd  Pd175  1  0.79391653  0.39395554  0.20726085  1
  Pd  Pd176  1  0.19046718  -0.00007837  0.80551107  1
  Pd  Pd177  1  0.59414102  0.00630896  -0.00331425  1
  Pd  Pd178  1  0.39266724  0.19925118  0.39834090  1
  Pd  Pd179  1  0.21248152  0.19231311  0.60480520  1
  Pd  Pd180  1  0.79671015  0.20313699  0.80007914  1
  Pd  Pd181  1  0.00039258  -0.00061696  0.20528111  1
  Pd  Pd182  1  0.78785828  0.19677495  0.00247203  1
  Pd  Pd183  1  0.59986917  0.61378314  0.60392026  1
  Pd  Pd184  1  0.20568347  0.80468900  -0.00962376  1
  Pd  Pd185  1  0.79985143  -0.00522955  0.79346572  1
  Pd  Pd186  1  0.60897629  0.20515550  0.80371091  1
  Pd  Pd187  1  0.40146998  0.79697344  0.60473176  1
  Pd  Pd188  1  0.59605089  0.80692169  -0.00277447  1
  Pd  Pd189  1  0.00392656  0.80471582  0.59122930  1
  Pd  Pd190  1  0.80233686  0.40616330  -0.00475599  1
  Pd  Pd191  1  0.00763166  -0.00131521  0.00085560  1
  Pd  Pd192  1  0.19727625  0.01288791  0.19708680  1
  Pd  Pd193  1  0.60541478  0.79181073  0.59459296  1
  Pd  Pd194  1  0.19389712  0.39300382  0.79617789  1
  Pd  Pd195  1  0.39649345  0.60953025  0.20128150  1
  Pd  Pd196  1  0.80308365  0.19051006  0.40325917  1
  Pd  Pd197  1  0.59756775  0.60260278  0.39640888  1
  Pd  Pd198  1  0.59993804  0.39590274  -0.00288249  1
  Pd  Pd199  1  0.39913157  0.39855443  -0.01093099  1
  Rh  Rh200  1  0.00943860  0.60261143  0.60189385  1
  Rh  Rh201  1  0.21270321  0.40789758  0.61276519  1
  Rh  Rh202  1  0.19852748  0.61026022  0.79325539  1
  Rh  Rh203  1  0.38858389  0.19495311  0.79831882  1
  Rh  Rh204  1  0.40737493  0.59838447  0.80409086  1
  Rh  Rh205  1  0.79738415  0.40194772  0.39816221  1
  Rh  Rh206  1  0.59418119  0.80965264  0.79434820  1
  Rh  Rh207  1  0.80001749  0.79308755  0.60319673  1
  Rh  Rh208  1  0.20494434  0.00380779  0.58948298  1
  Rh  Rh209  1  0.79687257  0.19714442  0.20113696  1
  Rh  Rh210  1  0.21432375  0.19281982  -0.00633817  1
  Rh  Rh211  1  0.79373215  0.79733183  0.39910728  1
  Rh  Rh212  1  0.80044056  -0.00363865  0.20242241  1
  Rh  Rh213  1  0.79083195  0.00269760  0.40342311  1
  Rh  Rh214  1  0.20739638  0.19745304  0.39496005  1
  Rh  Rh215  1  0.20098651  0.00046749  0.40024188  1
  Rh  Rh216  1  0.20707905  0.59168753  0.00586892  1
  Rh  Rh217  1  0.39671335  0.00531372  -0.00032318  1
  Rh  Rh218  1  0.40225097  0.59995470  0.59702762  1
  Rh  Rh219  1  -0.00736420  0.20836432  0.00257407  1
  Rh  Rh220  1  0.59701243  -0.00517744  0.21535596  1
  Rh  Rh221  1  0.00795636  0.58800184  0.40332532  1
  Rh  Rh222  1  0.79775711  0.00491374  0.59964710  1
  Rh  Rh223  1  0.80123210  0.40506199  0.60490601  1
  Rh  Rh224  1  0.39944734  0.80608020  0.79168821  1
  Rh  Rh225  1  0.18832064  0.40222734  0.39751443  1
  Rh  Rh226  1  0.19458552  0.78753775  0.19412982  1
  Rh  Rh227  1  -0.00457025  0.39158393  0.20658588  1
  Rh  Rh228  1  0.40415894  0.79954769  -0.00191643  1
  Rh  Rh229  1  0.40060812  0.00619639  0.60068293  1
  Rh  Rh230  1  0.39642668  0.79424224  0.19078175  1
  Rh  Rh231  1  -0.00926996  0.20178713  0.40172028  1
  Rh  Rh232  1  0.39791304  0.00767701  0.20279602  1
  Rh  Rh233  1  -0.00176504  0.39663731  0.00535942  1
  Rh  Rh234  1  0.00437671  0.80395983  0.40334134  1
  Rh  Rh235  1  0.20194563  0.80098143  0.60266164  1
  Rh  Rh236  1  0.19953496  0.80895701  0.41251572  1
  Rh  Rh237  1  -0.00367421  0.20175523  0.20067132  1
  Rh  Rh238  1  -0.00479926  0.39754642  0.59405047  1
  Rh  Rh239  1  0.40256632  0.39141342  0.19853426  1
  Rh  Rh240  1  0.60437431  0.79737085  0.20703101  1
  Rh  Rh241  1  0.40743315  -0.00615283  0.40004871  1
  Rh  Rh242  1  0.59677357  -0.00400967  0.79204045  1
  Rh  Rh243  1  0.60624405  0.00134813  0.59552495  1
  Rh  Rh244  1  0.59528159  0.19611253  0.59627767  1
  Rh  Rh245  1  0.60358857  0.59234884  0.00853806  1
  Rh  Rh246  1  0.59806130  0.59305349  0.79568365  1
  Rh  Rh247  1  0.20464574  0.40444431  0.19369100  1
  Rh  Rh248  1  0.39819007  0.60009535  -0.00526636  1
  Rh  Rh249  1  -0.00262981  0.00226750  0.59552042  1
