# generated using pymatgen
data_ZrScNbPdRh
_symmetry_space_group_name_H-M   'P 1'
_cell_length_a   16.55457852
_cell_length_b   16.55440253
_cell_length_c   16.55481804
_cell_angle_alpha   90.00847583
_cell_angle_beta   90.01069732
_cell_angle_gamma   90.02032366
_symmetry_Int_Tables_number   1
_chemical_formula_structural   ZrScNbPdRh
_chemical_formula_sum   'Zr50 Sc50 Nb50 Pd50 Rh50'
_cell_volume   4536.86661651
_cell_formula_units_Z   50
loop_
 _symmetry_equiv_pos_site_id
 _symmetry_equiv_pos_as_xyz
  1  'x, y, z'
loop_
 _atom_site_type_symbol
 _atom_site_label
 _atom_site_symmetry_multiplicity
 _atom_site_fract_x
 _atom_site_fract_y
 _atom_site_fract_z
 _atom_site_occupancy
  Zr  Zr0  1  0.90072892  0.70485682  0.50262390  1
  Zr  Zr1  1  0.90341347  0.30865893  0.89853999  1
  Zr  Zr2  1  0.09689757  0.91064220  0.89467241  1
  Zr  Zr3  1  0.49253434  0.89645338  0.70612356  1
  Zr  Zr4  1  0.49782018  0.50302866  0.49962519  1
  Zr  Zr5  1  0.90082484  0.49764493  0.70517648  1
  Zr  Zr6  1  0.10137309  0.89761367  0.49620724  1
  Zr  Zr7  1  0.48128731  0.30345745  0.50324281  1
  Zr  Zr8  1  0.10885746  0.10468421  0.09728390  1
  Zr  Zr9  1  0.30299037  0.70570383  0.70348955  1
  Zr  Zr10  1  0.91061881  0.09648427  0.89836415  1
  Zr  Zr11  1  0.10154460  0.90010884  0.30740972  1
  Zr  Zr12  1  0.09769981  0.10165750  0.70111097  1
  Zr  Zr13  1  0.69660062  0.70693807  0.29778789  1
  Zr  Zr14  1  0.90976888  0.69558161  0.70357192  1
  Zr  Zr15  1  0.09299374  0.69649099  0.10388634  1
  Zr  Zr16  1  0.30067013  0.29597431  0.69235676  1
  Zr  Zr17  1  0.29610124  0.49621835  0.10749452  1
  Zr  Zr18  1  0.29815564  0.89390793  0.88832072  1
  Zr  Zr19  1  0.50130347  0.50568202  0.09840352  1
  Zr  Zr20  1  0.69635261  0.50849019  0.50360286  1
  Zr  Zr21  1  0.30045542  0.70112950  0.09773717  1
  Zr  Zr22  1  0.89677898  0.10131166  0.49572785  1
  Zr  Zr23  1  0.09221999  0.48768752  0.90591708  1
  Zr  Zr24  1  0.50382376  0.70396814  0.49041769  1
  Zr  Zr25  1  0.11125078  0.90821482  0.69740856  1
  Zr  Zr26  1  0.69775735  0.09954245  0.50598437  1
  Zr  Zr27  1  0.70962502  0.09674325  0.30220912  1
  Zr  Zr28  1  0.49422332  0.29977018  0.10351270  1
  Zr  Zr29  1  0.70411522  0.29808621  0.90364119  1
  Zr  Zr30  1  0.29688922  0.89945253  0.49815061  1
  Zr  Zr31  1  0.30106976  0.69789256  0.29703068  1
  Zr  Zr32  1  0.30101252  0.09896876  0.11089106  1
  Zr  Zr33  1  0.69132820  0.90116916  0.70292976  1
  Zr  Zr34  1  0.49836062  0.49342497  0.89407691  1
  Zr  Zr35  1  0.89415739  0.69922005  0.09421257  1
  Zr  Zr36  1  0.09832728  0.69999897  0.30113229  1
  Zr  Zr37  1  0.90489303  0.49850531  0.09478483  1
  Zr  Zr38  1  0.09856827  0.69640988  0.49937523  1
  Zr  Zr39  1  0.69718257  0.70751826  0.10532601  1
  Zr  Zr40  1  0.29494482  0.50017991  0.30493924  1
  Zr  Zr41  1  0.69979387  0.89317316  0.49358794  1
  Zr  Zr42  1  0.88358837  0.29858002  0.10007782  1
  Zr  Zr43  1  0.69938844  0.70728329  0.91068479  1
  Zr  Zr44  1  0.50082571  0.10287509  0.70073599  1
  Zr  Zr45  1  0.49659073  0.29751850  0.30099447  1
  Zr  Zr46  1  0.29775351  0.69957931  0.49954060  1
  Zr  Zr47  1  0.09836062  0.29476946  0.30395649  1
  Zr  Zr48  1  0.90433879  0.10542342  0.69441646  1
  Zr  Zr49  1  0.71745482  0.29919069  0.29285194  1
  Sc  Sc50  1  0.09946027  0.09117539  0.51110907  1
  Sc  Sc51  1  0.49520899  0.89555326  0.29602944  1
  Sc  Sc52  1  0.30782012  0.89855070  0.09543846  1
  Sc  Sc53  1  0.09714030  0.50625227  0.69577787  1
  Sc  Sc54  1  0.50031859  0.69506698  0.89891182  1
  Sc  Sc55  1  0.69829388  0.49772477  0.89207212  1
  Sc  Sc56  1  0.70578953  0.50686357  0.29940726  1
  Sc  Sc57  1  0.50419686  0.90141541  0.90253650  1
  Sc  Sc58  1  0.49590526  0.29878746  0.71225974  1
  Sc  Sc59  1  0.29613971  0.09298293  0.90675391  1
  Sc  Sc60  1  0.11344242  0.30276043  0.10162556  1
  Sc  Sc61  1  0.70305269  0.89638980  0.29061809  1
  Sc  Sc62  1  0.10524335  0.69300192  0.69780884  1
  Sc  Sc63  1  0.89422680  0.90606601  0.09807623  1
  Sc  Sc64  1  0.09975249  0.49467952  0.10423179  1
  Sc  Sc65  1  0.50324835  0.70499042  0.10013364  1
  Sc  Sc66  1  0.29368009  0.09815881  0.69779188  1
  Sc  Sc67  1  0.10599357  0.49489111  0.29992539  1
  Sc  Sc68  1  0.90833511  0.89173823  0.69429531  1
  Sc  Sc69  1  0.69642499  0.49924021  0.70644858  1
  Sc  Sc70  1  0.89753324  0.49905611  0.89973920  1
  Sc  Sc71  1  0.89589360  0.10194700  0.09662443  1
  Sc  Sc72  1  0.30121375  0.90610677  0.30115254  1
  Sc  Sc73  1  0.69231983  0.69375529  0.70379350  1
  Sc  Sc74  1  0.10417088  0.70597060  0.88808966  1
  Sc  Sc75  1  0.71061367  0.29449447  0.50712454  1
  Sc  Sc76  1  0.69509491  0.11054346  0.70173441  1
  Sc  Sc77  1  0.08740641  0.29540555  0.69488135  1
  Sc  Sc78  1  0.70037879  0.70137404  0.49207621  1
  Sc  Sc79  1  0.70797409  0.50516466  0.10065831  1
  Sc  Sc80  1  0.70092681  0.29860648  0.70628355  1
  Sc  Sc81  1  0.50534814  0.50585402  0.70858656  1
  Sc  Sc82  1  0.30526639  0.50442073  0.89437223  1
  Sc  Sc83  1  0.29551243  0.50771580  0.70359040  1
  Sc  Sc84  1  0.89628594  0.70602191  0.29186737  1
  Sc  Sc85  1  0.49676977  0.50608223  0.29987834  1
  Sc  Sc86  1  0.30302266  0.30293110  0.29966413  1
  Sc  Sc87  1  0.89669962  0.29925672  0.69497082  1
  Sc  Sc88  1  0.69695401  0.10285584  0.90757709  1
  Sc  Sc89  1  0.50214250  0.10109576  0.89955721  1
  Sc  Sc90  1  0.09843645  0.90413353  0.09585994  1
  Sc  Sc91  1  0.89814757  0.90180324  0.30248564  1
  Sc  Sc92  1  0.30915493  0.30559140  0.90033194  1
  Sc  Sc93  1  0.29832941  0.70066459  0.89265289  1
  Sc  Sc94  1  0.49419872  0.10497762  0.50316292  1
  Sc  Sc95  1  0.10471747  0.49518385  0.50090814  1
  Sc  Sc96  1  0.89997386  0.48983306  0.49944877  1
  Sc  Sc97  1  0.10182420  0.30245933  0.50211965  1
  Sc  Sc98  1  0.50048836  0.90334109  0.10248116  1
  Sc  Sc99  1  0.90630064  0.89634293  0.49701320  1
  Nb  Nb100  1  0.29966684  0.10343849  0.50348044  1
  Nb  Nb101  1  0.09845650  0.30041839  0.90097513  1
  Nb  Nb102  1  0.89923698  0.48634747  0.30327081  1
  Nb  Nb103  1  0.69546741  0.10044302  0.09956024  1
  Nb  Nb104  1  0.29819883  0.29967261  0.50215438  1
  Nb  Nb105  1  0.90237951  0.29448161  0.30559289  1
  Nb  Nb106  1  0.89999707  0.90078253  0.90192861  1
  Nb  Nb107  1  0.10882649  0.10158230  0.29477300  1
  Nb  Nb108  1  0.70048956  0.29469795  0.09793463  1
  Nb  Nb109  1  0.30451773  0.89694625  0.69805949  1
  Nb  Nb110  1  0.90057767  0.70827853  0.89785294  1
  Nb  Nb111  1  0.70198946  0.90020463  0.90669479  1
  Nb  Nb112  1  0.30238198  0.48880556  0.50139355  1
  Nb  Nb113  1  0.90592087  0.29631794  0.48805588  1
  Nb  Nb114  1  0.50031589  0.09895818  0.10542190  1
  Nb  Nb115  1  0.69736154  0.90545666  0.08900800  1
  Nb  Nb116  1  0.90607599  0.11477083  0.30065919  1
  Nb  Nb117  1  0.49587194  0.09867935  0.29496790  1
  Nb  Nb118  1  0.29764441  0.09577291  0.30343555  1
  Nb  Nb119  1  0.50151680  0.30151595  0.90017292  1
  Nb  Nb120  1  0.49763622  0.69902364  0.69400063  1
  Nb  Nb121  1  0.09907206  0.10120974  0.89937933  1
  Nb  Nb122  1  0.30235933  0.29748831  0.10525142  1
  Nb  Nb123  1  0.49840563  0.89882556  0.50029958  1
  Nb  Nb124  1  0.50551985  0.70581238  0.29061701  1
  Nb  Nb125  1  0.60467648  0.39415377  0.19861981  1
  Nb  Nb126  1  0.80016941  -0.00625448  0.79967083  1
  Nb  Nb127  1  0.59446380  0.00386385  0.39774336  1
  Nb  Nb128  1  -0.00407805  0.59565985  0.39666898  1
  Nb  Nb129  1  0.19424717  0.39255163  0.79996789  1
  Nb  Nb130  1  0.59249159  0.80029813  0.59884138  1
  Nb  Nb131  1  0.40195408  0.20085378  0.00787997  1
  Nb  Nb132  1  0.00722477  0.20179761  -0.00390912  1
  Nb  Nb133  1  0.19753691  0.59942469  0.00081432  1
  Nb  Nb134  1  0.00265644  0.01321051  0.20787597  1
  Nb  Nb135  1  0.19274772  0.20302675  0.80662252  1
  Nb  Nb136  1  -0.00581364  0.80217805  -0.00740689  1
  Nb  Nb137  1  0.60103678  0.39303027  0.40076661  1
  Nb  Nb138  1  0.59615589  0.40071109  0.59583629  1
  Nb  Nb139  1  0.39780244  -0.00627575  0.59867762  1
  Nb  Nb140  1  0.80142966  0.80482890  0.80756314  1
  Nb  Nb141  1  0.79692633  -0.00278356  0.60443985  1
  Nb  Nb142  1  0.80371711  0.60085595  0.60246980  1
  Nb  Nb143  1  0.59943062  0.39328530  0.00425947  1
  Nb  Nb144  1  0.19814029  0.79773335  0.19970931  1
  Nb  Nb145  1  0.60223330  0.19565706  0.19844144  1
  Nb  Nb146  1  0.59793535  0.19974480  0.39472023  1
  Nb  Nb147  1  -0.00938330  0.39117011  0.20667464  1
  Nb  Nb148  1  0.20682287  0.19326826  0.40353995  1
  Nb  Nb149  1  0.40052319  0.60415455  0.59659711  1
  Pd  Pd150  1  0.01499956  0.19046807  0.40855341  1
  Pd  Pd151  1  -0.00082055  0.81446197  0.19270683  1
  Pd  Pd152  1  0.79911737  -0.00566736  0.40400096  1
  Pd  Pd153  1  0.40011986  0.60159195  0.40127719  1
  Pd  Pd154  1  0.38992265  0.19382268  0.80938339  1
  Pd  Pd155  1  0.60580721  0.59226670  -0.00255730  1
  Pd  Pd156  1  0.80962545  0.60231083  0.40296574  1
  Pd  Pd157  1  0.59946994  -0.00123111  0.20409772  1
  Pd  Pd158  1  0.40473068  0.60381421  0.19781812  1
  Pd  Pd159  1  0.80857446  0.00424785  0.19938162  1
  Pd  Pd160  1  0.40448794  0.00459355  0.00036925  1
  Pd  Pd161  1  -0.00602697  -0.00485251  0.78990852  1
  Pd  Pd162  1  0.20395603  -0.00613470  0.00063302  1
  Pd  Pd163  1  0.79707008  0.60790479  0.80017611  1
  Pd  Pd164  1  0.78966792  0.79650794  0.61159868  1
  Pd  Pd165  1  0.79763452  0.59645562  -0.00765052  1
  Pd  Pd166  1  0.79852024  0.00717064  -0.00526539  1
  Pd  Pd167  1  0.01199252  0.80021480  0.60466532  1
  Pd  Pd168  1  0.59982906  0.59720457  0.38848434  1
  Pd  Pd169  1  0.59943199  0.79419320  0.80034727  1
  Pd  Pd170  1  0.19614989  0.40065515  0.60820503  1
  Pd  Pd171  1  0.79199400  0.39841645  0.40663983  1
  Pd  Pd172  1  0.39349564  0.60238603  -0.00263209  1
  Pd  Pd173  1  0.21055998  0.40332681  -0.00616210  1
  Pd  Pd174  1  0.40244997  0.40613629  0.20548234  1
  Pd  Pd175  1  0.39845853  0.80056236  0.39253931  1
  Pd  Pd176  1  0.40541171  0.00238005  0.40460257  1
  Pd  Pd177  1  0.19503070  0.59435654  0.40495817  1
  Pd  Pd178  1  0.40431362  0.41252770  0.61522263  1
  Pd  Pd179  1  0.40675495  0.79924185  -0.00602490  1
  Pd  Pd180  1  0.20772170  0.20600144  -0.00744179  1
  Pd  Pd181  1  0.00561494  0.59687693  0.80853362  1
  Pd  Pd182  1  0.39474666  0.00653589  0.79649711  1
  Pd  Pd183  1  0.39531169  0.19577032  0.39725974  1
  Pd  Pd184  1  0.19056123  0.79663934  0.00294363  1
  Pd  Pd185  1  0.60569151  0.00692087  0.80824036  1
  Pd  Pd186  1  0.59635361  -0.00554728  0.59488691  1
  Pd  Pd187  1  0.19872467  -0.01117824  0.19753470  1
  Pd  Pd188  1  0.59208193  0.20085846  0.00322938  1
  Pd  Pd189  1  0.19542533  0.79680045  0.60257274  1
  Pd  Pd190  1  0.80567906  0.59823005  0.20317263  1
  Pd  Pd191  1  -0.00076395  0.39998462  0.59844960  1
  Pd  Pd192  1  0.59321892  0.21414593  0.59700836  1
  Pd  Pd193  1  0.79329107  0.40450214  0.60278798  1
  Pd  Pd194  1  0.00600574  0.60836069  -0.01128384  1
  Pd  Pd195  1  -0.00018686  0.20254806  0.18812128  1
  Pd  Pd196  1  0.80280540  0.19443519  0.80491322  1
  Pd  Pd197  1  0.00288865  0.00800356  0.39504240  1
  Pd  Pd198  1  -0.00474246  0.58717408  0.21021190  1
  Pd  Pd199  1  0.40017981  0.39909231  0.00045063  1
  Rh  Rh200  1  0.59955493  0.59801209  0.20122963  1
  Rh  Rh201  1  -0.00278094  0.20378356  0.58973185  1
  Rh  Rh202  1  -0.00213096  0.38543658  0.01710697  1
  Rh  Rh203  1  0.00306081  0.00297308  0.00976871  1
  Rh  Rh204  1  0.21052327  0.20469609  0.21100477  1
  Rh  Rh205  1  0.59939339  0.20117050  0.80444053  1
  Rh  Rh206  1  0.59560036  0.80584728  0.00454089  1
  Rh  Rh207  1  0.79774558  0.18788421  0.19603616  1
  Rh  Rh208  1  0.19778692  0.39383279  0.20650763  1
  Rh  Rh209  1  0.80296886  0.80458710  0.00319738  1
  Rh  Rh210  1  0.19889258  0.00809255  0.40507501  1
  Rh  Rh211  1  0.80652782  0.19807453  0.59780070  1
  Rh  Rh212  1  0.59873501  0.60532023  0.80602885  1
  Rh  Rh213  1  0.40467633  0.79576852  0.80715415  1
  Rh  Rh214  1  0.39797999  -0.00158576  0.20200380  1
  Rh  Rh215  1  0.80644224  0.19285819  -0.00475376  1
  Rh  Rh216  1  0.79106973  0.40702550  -0.00263885  1
  Rh  Rh217  1  0.80376748  0.80085989  0.39260912  1
  Rh  Rh218  1  0.00306985  0.39865506  0.79220352  1
  Rh  Rh219  1  0.39739723  0.40346386  0.39572734  1
  Rh  Rh220  1  0.39430810  0.80041625  0.19997634  1
  Rh  Rh221  1  0.00410710  0.40246225  0.39600576  1
  Rh  Rh222  1  -0.00968045  -0.00358923  0.59930432  1
  Rh  Rh223  1  0.20517032  0.79931802  0.39247851  1
  Rh  Rh224  1  0.00175810  0.80525924  0.80033935  1
  Rh  Rh225  1  0.19722061  0.20120159  0.59901143  1
  Rh  Rh226  1  0.80146702  0.40602279  0.19657776  1
  Rh  Rh227  1  0.39803490  0.19152964  0.60523395  1
  Rh  Rh228  1  0.40440189  0.79888058  0.59691448  1
  Rh  Rh229  1  0.60062715  0.39210456  0.80156243  1
  Rh  Rh230  1  -0.00570862  0.79049489  0.39704053  1
  Rh  Rh231  1  0.19652484  0.80421573  0.79204562  1
  Rh  Rh232  1  0.59684146  -0.00012460  0.00001685  1
  Rh  Rh233  1  0.19873927  0.60410126  0.19248689  1
  Rh  Rh234  1  0.18889400  0.58484434  0.81296560  1
  Rh  Rh235  1  0.00271999  0.20629316  0.80519432  1
  Rh  Rh236  1  0.79688209  0.20242577  0.40577102  1
  Rh  Rh237  1  0.40347728  0.60389634  0.79212676  1
  Rh  Rh238  1  0.39328479  0.40062464  0.79562673  1
  Rh  Rh239  1  0.21105878  0.59553523  0.59391615  1
  Rh  Rh240  1  0.80112813  0.39798968  0.79866447  1
  Rh  Rh241  1  0.20408413  0.39046075  0.40188886  1
  Rh  Rh242  1  0.60033302  0.80832711  0.19464631  1
  Rh  Rh243  1  0.60008923  0.60194711  0.60343177  1
  Rh  Rh244  1  0.20606725  0.00605376  0.79958451  1
  Rh  Rh245  1  -0.00873586  0.59375068  0.58790609  1
  Rh  Rh246  1  0.39801290  0.19457984  0.19956565  1
  Rh  Rh247  1  0.79849564  0.80698355  0.19212265  1
  Rh  Rh248  1  0.20882829  -0.00017449  0.59678440  1
  Rh  Rh249  1  0.59662895  0.80870718  0.39567241  1
