# generated using pymatgen
data_ZrScNbPdRh
_symmetry_space_group_name_H-M   'P 1'
_cell_length_a   16.55176479
_cell_length_b   16.55186564
_cell_length_c   16.55208545
_cell_angle_alpha   90.02779932
_cell_angle_beta   90.00926511
_cell_angle_gamma   90.03475699
_symmetry_Int_Tables_number   1
_chemical_formula_structural   ZrScNbPdRh
_chemical_formula_sum   'Zr50 Sc50 Nb50 Pd50 Rh50'
_cell_volume   4534.65072027
_cell_formula_units_Z   50
loop_
 _symmetry_equiv_pos_site_id
 _symmetry_equiv_pos_as_xyz
  1  'x, y, z'
loop_
 _atom_site_type_symbol
 _atom_site_label
 _atom_site_symmetry_multiplicity
 _atom_site_fract_x
 _atom_site_fract_y
 _atom_site_fract_z
 _atom_site_occupancy
  Zr  Zr0  1  0.50099409  0.50530025  0.70137282  1
  Zr  Zr1  1  0.68685762  0.49625952  0.89228133  1
  Zr  Zr2  1  0.29326582  0.50150987  0.30143522  1
  Zr  Zr3  1  0.70672977  0.29974207  0.09367401  1
  Zr  Zr4  1  0.10739543  0.69989860  0.30973051  1
  Zr  Zr5  1  0.49471110  0.49530024  0.89977329  1
  Zr  Zr6  1  0.30244139  0.70319797  0.30166713  1
  Zr  Zr7  1  0.30042074  0.49986193  0.89927306  1
  Zr  Zr8  1  0.10478651  0.10081121  0.10913083  1
  Zr  Zr9  1  0.89026840  0.68993282  0.30451435  1
  Zr  Zr10  1  0.10608412  0.69904654  0.10145836  1
  Zr  Zr11  1  0.69863406  0.30513574  0.70297750  1
  Zr  Zr12  1  0.49287682  0.30853758  0.09780429  1
  Zr  Zr13  1  0.89918800  0.09804763  0.69685410  1
  Zr  Zr14  1  0.31063210  0.90276786  0.49731775  1
  Zr  Zr15  1  0.90060878  0.29876846  0.10657496  1
  Zr  Zr16  1  0.30877013  0.90390110  0.09886489  1
  Zr  Zr17  1  0.50122202  0.10112274  0.90056224  1
  Zr  Zr18  1  0.30168361  0.70047924  0.10539607  1
  Zr  Zr19  1  0.48909821  0.10154198  0.69808018  1
  Zr  Zr20  1  0.29791494  0.30783422  0.29880358  1
  Zr  Zr21  1  0.69492584  0.69651970  0.69693995  1
  Zr  Zr22  1  0.29847615  0.89817093  0.70057904  1
  Zr  Zr23  1  0.69759381  0.90098419  0.49403545  1
  Zr  Zr24  1  0.90552388  0.10124337  0.30548588  1
  Zr  Zr25  1  0.48624306  0.89803226  0.69216351  1
  Zr  Zr26  1  0.29488484  0.89200637  0.89250021  1
  Zr  Zr27  1  0.09281657  0.90504988  0.89115977  1
  Zr  Zr28  1  0.31454006  0.89649163  0.30264804  1
  Zr  Zr29  1  0.30715864  0.49895703  0.09747797  1
  Zr  Zr30  1  0.29988496  0.70652671  0.70379898  1
  Zr  Zr31  1  0.90810654  0.50363116  0.88715218  1
  Zr  Zr32  1  0.29200782  0.49872012  0.69954967  1
  Zr  Zr33  1  0.10656219  0.49665693  0.89411710  1
  Zr  Zr34  1  0.69970771  0.29624436  0.30551670  1
  Zr  Zr35  1  0.69860245  0.50619688  0.09820920  1
  Zr  Zr36  1  0.70443265  0.30199499  0.89860344  1
  Zr  Zr37  1  0.69767041  0.89916959  0.30618521  1
  Zr  Zr38  1  0.89527547  0.90866517  0.29850319  1
  Zr  Zr39  1  0.29444155  0.30700274  0.50124397  1
  Zr  Zr40  1  0.10468865  0.09924430  0.89883994  1
  Zr  Zr41  1  0.90261615  0.69878507  0.70478455  1
  Zr  Zr42  1  0.90093443  0.90787131  0.09611553  1
  Zr  Zr43  1  0.69528714  0.69840222  0.28749739  1
  Zr  Zr44  1  0.70542592  0.89744680  0.10766534  1
  Zr  Zr45  1  0.69989606  0.10078877  0.49470464  1
  Zr  Zr46  1  0.90058983  0.08246055  0.90283169  1
  Zr  Zr47  1  0.89933236  0.70186050  0.09668845  1
  Zr  Zr48  1  0.49699239  0.08803266  0.09531922  1
  Zr  Zr49  1  0.30030237  0.49907666  0.50435487  1
  Sc  Sc50  1  0.29117573  0.70001749  0.49953106  1
  Sc  Sc51  1  0.49866841  0.30670103  0.89636721  1
  Sc  Sc52  1  0.50055151  0.70609316  0.29654673  1
  Sc  Sc53  1  0.29991888  0.29350529  0.70043271  1
  Sc  Sc54  1  0.70698253  0.09811626  0.30939605  1
  Sc  Sc55  1  0.90961974  0.89685853  0.70331732  1
  Sc  Sc56  1  0.71549283  0.89799607  0.69240175  1
  Sc  Sc57  1  0.49845024  0.50104084  0.09109983  1
  Sc  Sc58  1  0.09786055  0.30398828  0.29646456  1
  Sc  Sc59  1  0.50173045  0.09813839  0.30522468  1
  Sc  Sc60  1  0.29721662  0.10663099  0.88667852  1
  Sc  Sc61  1  0.29393645  0.29909424  0.89550330  1
  Sc  Sc62  1  0.89841957  0.90299542  0.50501470  1
  Sc  Sc63  1  0.09831182  0.70528380  0.69052663  1
  Sc  Sc64  1  0.29629661  0.69898930  0.90422128  1
  Sc  Sc65  1  0.70314386  0.69803866  0.89083809  1
  Sc  Sc66  1  0.49840801  0.69738640  0.69372915  1
  Sc  Sc67  1  0.69939311  0.69642749  0.49332885  1
  Sc  Sc68  1  0.10215848  0.50558270  0.49948443  1
  Sc  Sc69  1  0.10349043  0.29742782  0.69643138  1
  Sc  Sc70  1  0.48992375  0.90305158  0.90872890  1
  Sc  Sc71  1  0.50335298  0.69383227  0.10613609  1
  Sc  Sc72  1  0.70498062  0.51140133  0.30262278  1
  Sc  Sc73  1  0.69195479  0.29515356  0.49586136  1
  Sc  Sc74  1  0.88917225  0.30947074  0.70916696  1
  Sc  Sc75  1  0.90876108  0.69987280  0.50317774  1
  Sc  Sc76  1  0.09693003  0.29543257  0.49801869  1
  Sc  Sc77  1  0.09412926  0.10662013  0.49936591  1
  Sc  Sc78  1  0.71647444  0.90661059  0.90201564  1
  Sc  Sc79  1  0.50133717  0.10618197  0.50012492  1
  Sc  Sc80  1  0.90525571  0.50277225  0.49713591  1
  Sc  Sc81  1  0.50777339  0.49928543  0.30151877  1
  Sc  Sc82  1  0.10210661  0.90873636  0.30718862  1
  Sc  Sc83  1  0.09748253  0.90239646  0.10265478  1
  Sc  Sc84  1  0.90072105  0.49498623  0.10392801  1
  Sc  Sc85  1  0.28873342  0.30622185  0.09834997  1
  Sc  Sc86  1  0.90828767  0.30042176  0.30029088  1
  Sc  Sc87  1  0.69304748  0.50584659  0.49384554  1
  Sc  Sc88  1  0.09786740  0.10006734  0.70199291  1
  Sc  Sc89  1  0.10660544  0.49795195  0.09383107  1
  Sc  Sc90  1  0.09476601  0.89313236  0.50184661  1
  Sc  Sc91  1  0.09803639  0.69991162  0.90557859  1
  Sc  Sc92  1  0.50330636  0.30747756  0.30317041  1
  Sc  Sc93  1  0.49545409  0.89700000  0.10454093  1
  Sc  Sc94  1  0.70544271  0.09917484  0.90599291  1
  Sc  Sc95  1  0.49667142  0.69312025  0.89459198  1
  Sc  Sc96  1  0.28875442  0.09165065  0.30110622  1
  Sc  Sc97  1  0.90348627  0.49355320  0.30030859  1
  Sc  Sc98  1  0.49086441  0.29668805  0.69781869  1
  Sc  Sc99  1  0.29058223  0.10260702  0.49306885  1
  Nb  Nb100  1  0.90114180  0.50049915  0.69861017  1
  Nb  Nb101  1  0.50060508  0.50282109  0.50125881  1
  Nb  Nb102  1  0.90376593  0.29762353  0.50140631  1
  Nb  Nb103  1  0.30334873  0.09720877  0.10205926  1
  Nb  Nb104  1  0.90336597  0.70549380  0.90032977  1
  Nb  Nb105  1  0.69685867  0.09898492  0.10111245  1
  Nb  Nb106  1  0.09859939  0.29734687  0.09167799  1
  Nb  Nb107  1  0.90065673  0.09396275  0.10800972  1
  Nb  Nb108  1  0.09447112  0.69839008  0.49931753  1
  Nb  Nb109  1  0.50079135  0.89687718  0.49253124  1
  Nb  Nb110  1  0.10280842  0.09986577  0.30873289  1
  Nb  Nb111  1  0.50241212  0.89927718  0.30514735  1
  Nb  Nb112  1  0.09183546  0.49794025  0.69711743  1
  Nb  Nb113  1  0.10422777  0.29168978  0.90530056  1
  Nb  Nb114  1  0.30149720  0.09556121  0.69648435  1
  Nb  Nb115  1  0.90385414  0.11455356  0.50255501  1
  Nb  Nb116  1  0.89933255  0.29519989  0.90490094  1
  Nb  Nb117  1  0.69755274  0.09816071  0.69842800  1
  Nb  Nb118  1  0.70217515  0.49482250  0.70145840  1
  Nb  Nb119  1  0.90627515  0.89708542  0.90022294  1
  Nb  Nb120  1  0.10486581  0.89948951  0.70454539  1
  Nb  Nb121  1  0.70016119  0.69929133  0.10096275  1
  Nb  Nb122  1  0.09315368  0.49909541  0.30019444  1
  Nb  Nb123  1  0.50431470  0.68724758  0.50536033  1
  Nb  Nb124  1  0.49958368  0.30805326  0.49467788  1
  Nb  Nb125  1  0.59678658  -0.00297021  0.60082453  1
  Nb  Nb126  1  0.80267955  0.60420480  -0.00601286  1
  Nb  Nb127  1  0.20406016  0.00286592  0.00008210  1
  Nb  Nb128  1  0.60247263  0.19413187  0.79628953  1
  Nb  Nb129  1  0.80185702  0.59152175  0.60725769  1
  Nb  Nb130  1  0.59852775  0.81028270  0.80052245  1
  Nb  Nb131  1  0.60246475  0.00029450  0.20281279  1
  Nb  Nb132  1  -0.00206444  0.79482353  0.20610796  1
  Nb  Nb133  1  0.59553268  0.40330258  0.59638444  1
  Nb  Nb134  1  0.20264028  -0.00348886  0.60504780  1
  Nb  Nb135  1  0.39615322  0.21023741  0.39690227  1
  Nb  Nb136  1  0.00513016  0.60335538  0.20278712  1
  Nb  Nb137  1  0.59832437  0.19752814  0.19367775  1
  Nb  Nb138  1  0.00269887  0.38924077  -0.00714576  1
  Nb  Nb139  1  -0.00127365  0.19808622  0.00313618  1
  Nb  Nb140  1  0.80243223  0.39541979  0.40530833  1
  Nb  Nb141  1  0.60723279  0.79682255  -0.00080164  1
  Nb  Nb142  1  0.79950577  0.20060278  0.59831577  1
  Nb  Nb143  1  0.60181746  -0.00170291  0.79211607  1
  Nb  Nb144  1  -0.00402288  0.20376912  0.81049962  1
  Nb  Nb145  1  0.40338916  0.59889117  0.40647063  1
  Nb  Nb146  1  0.39489841  0.19673836  0.00593047  1
  Nb  Nb147  1  0.39954809  0.19872716  0.19946726  1
  Nb  Nb148  1  -0.00424951  0.40365227  0.60387269  1
  Nb  Nb149  1  0.60708512  0.39650679  0.19563845  1
  Pd  Pd150  1  0.59962111  0.80693822  0.60268710  1
  Pd  Pd151  1  0.80829964  0.18910781  0.00409262  1
  Pd  Pd152  1  0.79833813  0.00627705  0.59406147  1
  Pd  Pd153  1  0.39310115  0.19961942  0.58646497  1
  Pd  Pd154  1  0.79793655  0.59674808  0.79988326  1
  Pd  Pd155  1  0.79877893  0.80488021  0.80057245  1
  Pd  Pd156  1  0.19861423  0.80548225  0.59383322  1
  Pd  Pd157  1  0.79621548  0.79462396  -0.00579347  1
  Pd  Pd158  1  0.40220569  0.01287098  0.40193620  1
  Pd  Pd159  1  0.40740317  0.59417308  0.20868579  1
  Pd  Pd160  1  0.40313248  0.40118091  0.60700462  1
  Pd  Pd161  1  0.00468853  0.38933930  0.79855232  1
  Pd  Pd162  1  0.80771589  0.41258615  -0.00859793  1
  Pd  Pd163  1  0.00568326  0.80459257  0.00389363  1
  Pd  Pd164  1  0.01114375  0.60945074  0.79596468  1
  Pd  Pd165  1  0.20024429  0.19215178  0.60162626  1
  Pd  Pd166  1  0.20152944  -0.00776390  0.20035873  1
  Pd  Pd167  1  -0.00334671  0.59060415  0.00558819  1
  Pd  Pd168  1  0.80004737  0.19265266  0.79745406  1
  Pd  Pd169  1  0.79659537  0.19275145  0.20395060  1
  Pd  Pd170  1  0.19413077  0.80865334  -0.00006210  1
  Pd  Pd171  1  0.79474952  0.40388022  0.21174124  1
  Pd  Pd172  1  0.40970965  0.78881444  0.00193790  1
  Pd  Pd173  1  0.60733194  -0.01300959  -0.00124660  1
  Pd  Pd174  1  0.40218568  0.40611498  0.39565072  1
  Pd  Pd175  1  0.19176148  0.60826860  0.79664023  1
  Pd  Pd176  1  0.59354272  0.20626520  -0.00251979  1
  Pd  Pd177  1  0.19507981  0.59367705  0.20092881  1
  Pd  Pd178  1  0.20482813  0.20254165  0.20462532  1
  Pd  Pd179  1  -0.00032002  0.00117007  0.41017471  1
  Pd  Pd180  1  0.18684964  0.40173448  0.40410431  1
  Pd  Pd181  1  0.19876468  0.39236077  0.79431954  1
  Pd  Pd182  1  0.19198602  0.40310301  0.19626684  1
  Pd  Pd183  1  0.39690484  0.60226933  0.79701859  1
  Pd  Pd184  1  0.60295809  0.60903892  -0.00589213  1
  Pd  Pd185  1  0.00893367  -0.00209028  0.59942953  1
  Pd  Pd186  1  0.39985540  -0.00179578  0.80463613  1
  Pd  Pd187  1  0.39946492  0.78916528  0.58964295  1
  Pd  Pd188  1  0.19581136  0.60256035  0.60155889  1
  Pd  Pd189  1  0.59643087  0.78944478  0.40127685  1
  Pd  Pd190  1  0.60204420  0.20338048  0.60320615  1
  Pd  Pd191  1  0.80337514  0.78875839  0.59299883  1
  Pd  Pd192  1  0.20104566  0.80681407  0.40632544  1
  Pd  Pd193  1  0.80654939  0.79991800  0.20319364  1
  Pd  Pd194  1  0.79816646  0.40092663  0.58833172  1
  Pd  Pd195  1  0.19690801  0.81221020  0.20478875  1
  Pd  Pd196  1  -0.00789786  0.80339896  0.39567638  1
  Pd  Pd197  1  0.00030705  0.59671559  0.39702530  1
  Pd  Pd198  1  0.00495635  0.19835668  0.20230112  1
  Pd  Pd199  1  0.80380645  0.79683078  0.40465297  1
  Rh  Rh200  1  0.80155875  0.40646082  0.80971311  1
  Rh  Rh201  1  0.59722326  0.59326628  0.19965258  1
  Rh  Rh202  1  0.00389950  0.79553447  0.80012595  1
  Rh  Rh203  1  0.79315807  0.00865754  0.20099833  1
  Rh  Rh204  1  -0.00334308  0.00292470  0.79275248  1
  Rh  Rh205  1  0.59183689  0.60594349  0.39270647  1
  Rh  Rh206  1  0.20411323  0.19109221  0.00555636  1
  Rh  Rh207  1  0.60284138  0.39591823  0.00437496  1
  Rh  Rh208  1  -0.01290362  0.21445347  0.61739780  1
  Rh  Rh209  1  0.00536595  0.20343546  0.39268017  1
  Rh  Rh210  1  0.39431569  0.39959378  0.79534694  1
  Rh  Rh211  1  0.59624154  0.80691738  0.19420182  1
  Rh  Rh212  1  0.58820445  0.20029897  0.39369471  1
  Rh  Rh213  1  0.80727612  0.20611723  0.40529094  1
  Rh  Rh214  1  0.00320321  -0.00251800  0.20661505  1
  Rh  Rh215  1  0.59035700  0.39297889  0.79008948  1
  Rh  Rh216  1  0.40631870  0.40278227  0.20262765  1
  Rh  Rh217  1  0.19149079  0.79241109  0.80119697  1
  Rh  Rh218  1  0.60881906  0.59090742  0.60413545  1
  Rh  Rh219  1  0.39224160  0.60230757  0.59641692  1
  Rh  Rh220  1  0.41109770  0.78672818  0.40799694  1
  Rh  Rh221  1  -0.00229746  0.59609993  0.60153731  1
  Rh  Rh222  1  -0.00193841  0.39815142  0.40897395  1
  Rh  Rh223  1  0.39592704  0.60398245  0.00112135  1
  Rh  Rh224  1  0.80412393  0.59280870  0.41172268  1
  Rh  Rh225  1  0.81070994  0.00439909  0.40809539  1
  Rh  Rh226  1  0.79941118  0.00340229  0.00745221  1
  Rh  Rh227  1  0.38921059  0.39322920  -0.00703694  1
  Rh  Rh228  1  0.40388646  0.80094703  0.19863162  1
  Rh  Rh229  1  0.20320614  0.00224179  0.79516345  1
  Rh  Rh230  1  0.00825986  0.00438483  0.00712965  1
  Rh  Rh231  1  0.39877859  0.00733373  0.58852542  1
  Rh  Rh232  1  0.20236360  0.59755237  0.40255718  1
  Rh  Rh233  1  0.80114408  -0.00479629  0.79685180  1
  Rh  Rh234  1  0.00118000  0.80161693  0.60171513  1
  Rh  Rh235  1  0.60863398  0.40382488  0.40068156  1
  Rh  Rh236  1  0.40417484  0.20333395  0.80780851  1
  Rh  Rh237  1  0.59676100  0.60509513  0.79591527  1
  Rh  Rh238  1  0.80788834  0.59685330  0.19039593  1
  Rh  Rh239  1  0.00831064  0.40788452  0.18954599  1
  Rh  Rh240  1  0.20593418  0.59840252  -0.00006888  1
  Rh  Rh241  1  0.19279565  -0.00222113  0.41276800  1
  Rh  Rh242  1  0.40666056  0.79592088  0.80363244  1
  Rh  Rh243  1  0.19844964  0.40261461  -0.00322947  1
  Rh  Rh244  1  0.59434796  0.00110820  0.40251416  1
  Rh  Rh245  1  0.38355715  0.00828202  -0.01324350  1
  Rh  Rh246  1  0.19521845  0.19930126  0.78942502  1
  Rh  Rh247  1  0.18998087  0.40148546  0.60084844  1
  Rh  Rh248  1  0.20017745  0.20467224  0.39302344  1
  Rh  Rh249  1  0.40738783  0.00257686  0.21239220  1
