# generated using pymatgen
data_ZrScNbPdRh
_symmetry_space_group_name_H-M   'P 1'
_cell_length_a   16.55750825
_cell_length_b   16.55889828
_cell_length_c   16.55571023
_cell_angle_alpha   90.00156679
_cell_angle_beta   89.97225467
_cell_angle_gamma   89.99221262
_symmetry_Int_Tables_number   1
_chemical_formula_structural   ZrScNbPdRh
_chemical_formula_sum   'Zr50 Sc50 Nb50 Pd50 Rh50'
_cell_volume   4539.14629222
_cell_formula_units_Z   50
loop_
 _symmetry_equiv_pos_site_id
 _symmetry_equiv_pos_as_xyz
  1  'x, y, z'
loop_
 _atom_site_type_symbol
 _atom_site_label
 _atom_site_symmetry_multiplicity
 _atom_site_fract_x
 _atom_site_fract_y
 _atom_site_fract_z
 _atom_site_occupancy
  Zr  Zr0  1  0.29256364  0.50292876  0.29491818  1
  Zr  Zr1  1  0.71301957  0.71101210  0.08654664  1
  Zr  Zr2  1  0.10442366  0.30378077  0.89712697  1
  Zr  Zr3  1  0.89677875  0.30174756  0.50552124  1
  Zr  Zr4  1  0.70279544  0.49500425  0.29716927  1
  Zr  Zr5  1  0.89791084  0.29768539  0.30004104  1
  Zr  Zr6  1  0.89901655  0.09882668  0.90013626  1
  Zr  Zr7  1  0.90185210  0.89869658  0.50366193  1
  Zr  Zr8  1  0.09545490  0.49995834  0.50145592  1
  Zr  Zr9  1  0.10240351  0.69867504  0.30047115  1
  Zr  Zr10  1  0.09906023  0.90717689  0.09537641  1
  Zr  Zr11  1  0.29991738  0.90377019  0.30187930  1
  Zr  Zr12  1  0.89297927  0.29669772  0.89391372  1
  Zr  Zr13  1  0.29607462  0.10088320  0.49914246  1
  Zr  Zr14  1  0.09295139  0.09698192  0.09541460  1
  Zr  Zr15  1  0.50258303  0.70206858  0.30725854  1
  Zr  Zr16  1  0.09624691  0.50711427  0.30655990  1
  Zr  Zr17  1  0.50389421  0.29448525  0.09511374  1
  Zr  Zr18  1  0.90250496  0.90204703  0.30519095  1
  Zr  Zr19  1  0.69189969  0.89096112  0.90070029  1
  Zr  Zr20  1  0.09205218  0.70333093  0.09129761  1
  Zr  Zr21  1  0.30194397  0.69877939  0.90042639  1
  Zr  Zr22  1  0.30454285  0.09827919  0.69884583  1
  Zr  Zr23  1  0.70348674  0.90637948  0.51173630  1
  Zr  Zr24  1  0.49931130  0.50639424  0.50491413  1
  Zr  Zr25  1  0.51102678  0.49656399  0.89735278  1
  Zr  Zr26  1  0.70320805  0.49620824  0.49526399  1
  Zr  Zr27  1  0.10252780  0.89237255  0.90195013  1
  Zr  Zr28  1  0.08868499  0.09331467  0.89982386  1
  Zr  Zr29  1  0.89757647  0.49485678  0.69682215  1
  Zr  Zr30  1  0.30412306  0.70086761  0.29539756  1
  Zr  Zr31  1  0.09948993  0.10442412  0.69711125  1
  Zr  Zr32  1  0.90254769  0.49642601  0.30276683  1
  Zr  Zr33  1  0.30879514  0.08910484  0.09938452  1
  Zr  Zr34  1  0.50119914  0.30926783  0.49711224  1
  Zr  Zr35  1  0.90364623  0.50237702  0.90086856  1
  Zr  Zr36  1  0.90636324  0.70096224  0.29768329  1
  Zr  Zr37  1  0.69902740  0.30054603  0.10613102  1
  Zr  Zr38  1  0.69985198  0.09419818  0.89004382  1
  Zr  Zr39  1  0.29396211  0.50033675  0.09122732  1
  Zr  Zr40  1  0.50614939  0.50973501  0.29575028  1
  Zr  Zr41  1  0.50103447  0.69463969  0.69435646  1
  Zr  Zr42  1  0.50091242  0.89456454  0.50187334  1
  Zr  Zr43  1  0.70648079  0.30159603  0.69610939  1
  Zr  Zr44  1  0.90243862  0.69481380  0.91366858  1
  Zr  Zr45  1  0.30270861  0.50905047  0.70010677  1
  Zr  Zr46  1  0.10001819  0.89953652  0.31457946  1
  Zr  Zr47  1  0.69862842  0.90138095  0.09707906  1
  Zr  Zr48  1  0.09446935  0.50838114  0.70026965  1
  Zr  Zr49  1  0.30019159  0.49810167  0.89496627  1
  Sc  Sc50  1  0.49814475  0.08996529  0.50221861  1
  Sc  Sc51  1  0.09492320  0.30041659  0.30430642  1
  Sc  Sc52  1  0.69514566  0.30023636  0.89363985  1
  Sc  Sc53  1  0.09529657  0.10417688  0.31248713  1
  Sc  Sc54  1  0.90486197  0.90666490  0.89321522  1
  Sc  Sc55  1  0.70213366  0.09291609  0.69486947  1
  Sc  Sc56  1  0.30964350  0.69457855  0.50740809  1
  Sc  Sc57  1  0.89904323  0.29581103  0.69329576  1
  Sc  Sc58  1  0.69272127  0.50138509  0.09841868  1
  Sc  Sc59  1  0.30220367  0.09269048  0.30144952  1
  Sc  Sc60  1  0.10297630  0.10219591  0.49956585  1
  Sc  Sc61  1  0.49178197  0.89886495  0.30493675  1
  Sc  Sc62  1  0.90089932  0.09887237  0.50265748  1
  Sc  Sc63  1  0.09267667  0.29112236  0.49876355  1
  Sc  Sc64  1  0.50001636  0.69224034  0.10487998  1
  Sc  Sc65  1  0.09720370  0.69496073  0.49961161  1
  Sc  Sc66  1  0.49523943  0.09717914  0.90270469  1
  Sc  Sc67  1  0.89724543  0.10921331  0.09808740  1
  Sc  Sc68  1  0.29590690  0.30494438  0.49456996  1
  Sc  Sc69  1  0.50887169  0.28979157  0.89472942  1
  Sc  Sc70  1  0.29560484  0.30462652  0.70958452  1
  Sc  Sc71  1  0.69778350  0.90645235  0.70281138  1
  Sc  Sc72  1  0.30719702  0.90186591  0.69852808  1
  Sc  Sc73  1  0.30471027  0.89806756  0.91053936  1
  Sc  Sc74  1  0.09793080  0.88784593  0.70880066  1
  Sc  Sc75  1  0.10422159  0.50177711  0.90935352  1
  Sc  Sc76  1  0.49432173  0.91094106  0.09141764  1
  Sc  Sc77  1  0.49878521  0.49772480  0.70137669  1
  Sc  Sc78  1  0.30499925  0.30279982  0.10280966  1
  Sc  Sc79  1  0.50888490  0.49598704  0.10292297  1
  Sc  Sc80  1  0.10089430  0.49326203  0.09711697  1
  Sc  Sc81  1  0.30540635  0.69880740  0.09461352  1
  Sc  Sc82  1  0.69238785  0.09982938  0.11065616  1
  Sc  Sc83  1  0.69502091  0.69046854  0.30455930  1
  Sc  Sc84  1  0.29664295  0.30433328  0.30059683  1
  Sc  Sc85  1  0.30242130  0.50209213  0.49838598  1
  Sc  Sc86  1  0.68536966  0.70108093  0.50010148  1
  Sc  Sc87  1  0.89761737  0.09849272  0.70486378  1
  Sc  Sc88  1  0.09509703  0.29692297  0.69797296  1
  Sc  Sc89  1  0.51028320  0.69636565  0.89531923  1
  Sc  Sc90  1  0.30562515  0.91092235  0.49972126  1
  Sc  Sc91  1  0.50116542  0.90515210  0.69542803  1
  Sc  Sc92  1  0.09084651  0.70080864  0.69870393  1
  Sc  Sc93  1  0.29930330  0.30056349  0.89625072  1
  Sc  Sc94  1  0.50204845  0.09437030  0.71036550  1
  Sc  Sc95  1  0.90508270  0.30031416  0.10541730  1
  Sc  Sc96  1  0.71564854  0.91021476  0.28677602  1
  Sc  Sc97  1  0.90172180  0.49691685  0.49578420  1
  Sc  Sc98  1  0.50657962  0.30247114  0.29246154  1
  Sc  Sc99  1  0.69242027  0.49524456  0.70320692  1
  Nb  Nb100  1  0.90079507  0.50662533  0.09253487  1
  Nb  Nb101  1  0.30006651  0.70350413  0.70119194  1
  Nb  Nb102  1  0.50103913  0.90042015  0.89112077  1
  Nb  Nb103  1  0.70251863  0.49975071  0.89927701  1
  Nb  Nb104  1  0.50249148  0.70221270  0.50010723  1
  Nb  Nb105  1  0.50387310  0.10308869  0.29577778  1
  Nb  Nb106  1  0.29900611  0.90359194  0.10719877  1
  Nb  Nb107  1  0.89675987  0.70031098  0.10117356  1
  Nb  Nb108  1  0.70307292  0.69832317  0.89481771  1
  Nb  Nb109  1  0.69835538  0.10469750  0.29922614  1
  Nb  Nb110  1  0.89413588  0.88920810  0.68991754  1
  Nb  Nb111  1  0.49548509  0.10414019  0.10853693  1
  Nb  Nb112  1  0.69634274  0.69851798  0.70569375  1
  Nb  Nb113  1  0.69948217  0.10187794  0.50266708  1
  Nb  Nb114  1  0.30062268  0.09908268  0.89493352  1
  Nb  Nb115  1  0.70079420  0.29762817  0.49684509  1
  Nb  Nb116  1  0.89093636  0.70821261  0.51023218  1
  Nb  Nb117  1  0.70206738  0.29667124  0.30156927  1
  Nb  Nb118  1  0.50730929  0.29749941  0.69604100  1
  Nb  Nb119  1  0.10145015  0.90006289  0.50237864  1
  Nb  Nb120  1  0.89721533  0.70039289  0.69871181  1
  Nb  Nb121  1  0.10312949  0.70358271  0.89519791  1
  Nb  Nb122  1  0.89377635  0.09665369  0.30243114  1
  Nb  Nb123  1  0.10661642  0.29498205  0.09701770  1
  Nb  Nb124  1  0.88411126  0.88902895  0.11245018  1
  Nb  Nb125  1  0.79855165  0.60412262  0.79958404  1
  Nb  Nb126  1  0.40686083  0.19851616  0.40164291  1
  Nb  Nb127  1  0.20141831  0.79931857  0.59983222  1
  Nb  Nb128  1  0.80707264  0.60057414  0.19181826  1
  Nb  Nb129  1  0.59900673  0.20281562  0.59520518  1
  Nb  Nb130  1  0.79613217  0.60719857  0.60550646  1
  Nb  Nb131  1  0.60705072  0.00725557  0.39564879  1
  Nb  Nb132  1  0.20219881  0.80611272  0.19733637  1
  Nb  Nb133  1  0.20148226  0.00052673  0.80403763  1
  Nb  Nb134  1  0.19917010  0.60890348  0.80068468  1
  Nb  Nb135  1  0.40607016  0.20581071  0.59899251  1
  Nb  Nb136  1  0.79993603  0.79268907  0.79628608  1
  Nb  Nb137  1  0.19516784  0.40662100  0.60201070  1
  Nb  Nb138  1  0.60200917  0.80165492  0.19842055  1
  Nb  Nb139  1  0.79105935  0.19740987  0.39847572  1
  Nb  Nb140  1  0.79922392  0.40322513  -0.00056767  1
  Nb  Nb141  1  -0.00881946  -0.00112730  0.20445498  1
  Nb  Nb142  1  0.79671453  -0.00338561  0.00225780  1
  Nb  Nb143  1  0.40404816  0.79855812  0.79967484  1
  Nb  Nb144  1  0.20107854  0.19409855  0.00144996  1
  Nb  Nb145  1  0.40595389  0.39918296  -0.00345648  1
  Nb  Nb146  1  0.00174602  -0.01078971  0.60133252  1
  Nb  Nb147  1  0.80105164  0.80002141  0.40448168  1
  Nb  Nb148  1  -0.00149069  0.40215324  0.80073362  1
  Nb  Nb149  1  0.19617444  0.19594764  0.19223489  1
  Pd  Pd150  1  0.59643065  0.19539583  0.40519976  1
  Pd  Pd151  1  0.19213740  -0.01069029  0.61063591  1
  Pd  Pd152  1  0.20635349  0.00348690  -0.00821054  1
  Pd  Pd153  1  0.40229652  0.40031387  0.38936859  1
  Pd  Pd154  1  0.39771830  0.59356168  0.19505614  1
  Pd  Pd155  1  0.59766507  0.40494346  0.39419058  1
  Pd  Pd156  1  0.40438390  0.80512897  0.19370299  1
  Pd  Pd157  1  0.80409685  0.60904642  0.40369965  1
  Pd  Pd158  1  0.00006056  0.59376352  0.19288290  1
  Pd  Pd159  1  0.19182297  0.39876084  0.40622221  1
  Pd  Pd160  1  -0.01036654  0.80992878  0.00165049  1
  Pd  Pd161  1  0.00806579  0.80881376  0.19816416  1
  Pd  Pd162  1  0.40919935  0.80044373  -0.00234790  1
  Pd  Pd163  1  0.60375452  0.60500400  0.00266032  1
  Pd  Pd164  1  0.78983505  0.19935773  0.00265838  1
  Pd  Pd165  1  0.60497860  0.39983357  0.60010722  1
  Pd  Pd166  1  0.20700755  0.60544215  0.40741219  1
  Pd  Pd167  1  0.79532702  0.00141829  0.40494921  1
  Pd  Pd168  1  0.80151535  0.40668474  0.19098381  1
  Pd  Pd169  1  0.00243924  -0.00532894  0.78772069  1
  Pd  Pd170  1  0.19654654  0.60881377  0.18791691  1
  Pd  Pd171  1  -0.01053500  0.60286481  0.59242333  1
  Pd  Pd172  1  0.21038201  0.79392142  0.40818403  1
  Pd  Pd173  1  0.79531767  0.19542775  0.79343485  1
  Pd  Pd174  1  0.39185058  0.79872825  0.40932522  1
  Pd  Pd175  1  0.19670495  0.19262833  0.80543146  1
  Pd  Pd176  1  0.00203368  0.20909466  -0.00472507  1
  Pd  Pd177  1  0.40956451  0.59093266  -0.00269479  1
  Pd  Pd178  1  0.20765775  0.21325214  0.59976023  1
  Pd  Pd179  1  -0.01039920  0.79477670  0.80318164  1
  Pd  Pd180  1  0.60645915  0.19072342  -0.00012006  1
  Pd  Pd181  1  0.39387643  0.20406830  -0.00427378  1
  Pd  Pd182  1  0.60191378  0.80190504  0.60798085  1
  Pd  Pd183  1  0.59073274  -0.00841915  0.20724382  1
  Pd  Pd184  1  0.39871787  0.59927004  0.39913758  1
  Pd  Pd185  1  0.40995679  0.39221523  0.80366704  1
  Pd  Pd186  1  0.58633345  0.79545109  0.00593441  1
  Pd  Pd187  1  -0.00590428  0.39351707  -0.00293486  1
  Pd  Pd188  1  0.20631659  0.79874968  0.00823262  1
  Pd  Pd189  1  0.18853698  0.00309019  0.20980879  1
  Pd  Pd190  1  0.19284306  0.39467410  0.20220030  1
  Pd  Pd191  1  0.38930500  0.39537234  0.60422703  1
  Pd  Pd192  1  0.61434899  0.81758386  0.38788127  1
  Pd  Pd193  1  -0.00326602  0.79183250  0.40954499  1
  Pd  Pd194  1  0.40257815  0.40545519  0.19573989  1
  Pd  Pd195  1  0.00508857  0.19360959  0.20583836  1
  Pd  Pd196  1  0.39183952  0.19954794  0.20969385  1
  Pd  Pd197  1  0.40400018  0.20364548  0.79514582  1
  Pd  Pd198  1  0.59853793  0.00953204  -0.00186265  1
  Pd  Pd199  1  0.00486407  0.40277428  0.19790819  1
  Rh  Rh200  1  0.00078325  0.39599036  0.40094402  1
  Rh  Rh201  1  0.60151334  0.39634274  0.20332428  1
  Rh  Rh202  1  0.79946432  0.19884802  0.20524918  1
  Rh  Rh203  1  0.59597703  0.80198367  0.79478654  1
  Rh  Rh204  1  0.39798095  0.79898738  0.60257099  1
  Rh  Rh205  1  0.80740977  0.01393135  0.18963629  1
  Rh  Rh206  1  0.79622210  0.40647893  0.59618355  1
  Rh  Rh207  1  0.59618094  0.59504731  0.40632951  1
  Rh  Rh208  1  0.40895595  0.00733593  0.39621334  1
  Rh  Rh209  1  0.60363569  0.59674188  0.59802109  1
  Rh  Rh210  1  0.78571850  0.79357717  0.60234242  1
  Rh  Rh211  1  -0.00448636  0.18850814  0.60048585  1
  Rh  Rh212  1  0.59945789  0.20363577  0.19885973  1
  Rh  Rh213  1  0.79588557  0.19609995  0.59556249  1
  Rh  Rh214  1  0.80175896  0.39036352  0.40006514  1
  Rh  Rh215  1  0.40415390  0.00645530  0.60066027  1
  Rh  Rh216  1  0.59624223  0.00624736  0.59622650  1
  Rh  Rh217  1  0.60484487  0.19642934  0.78721897  1
  Rh  Rh218  1  0.00601125  0.39679697  0.60430533  1
  Rh  Rh219  1  0.19473690  0.60744465  -0.00419120  1
  Rh  Rh220  1  0.21080789  0.80051561  0.79487419  1
  Rh  Rh221  1  0.80986611  0.00547390  0.60475451  1
  Rh  Rh222  1  -0.00277933  0.20863295  0.79866812  1
  Rh  Rh223  1  0.18967831  0.41371549  0.79082219  1
  Rh  Rh224  1  0.79315835  0.59082795  0.00059582  1
  Rh  Rh225  1  0.19739316  0.00332850  0.40168726  1
  Rh  Rh226  1  0.39407530  -0.00933420  0.80696732  1
  Rh  Rh227  1  0.40217199  0.00096298  -0.00428587  1
  Rh  Rh228  1  -0.00853950  0.60545509  0.40743649  1
  Rh  Rh229  1  0.00375212  0.00607434  0.40676915  1
  Rh  Rh230  1  0.01041207  0.80156970  0.59702964  1
  Rh  Rh231  1  0.00188983  0.60011611  0.80759781  1
  Rh  Rh232  1  0.61293679  0.61184415  0.19163854  1
  Rh  Rh233  1  0.60442465  0.59427488  0.79811395  1
  Rh  Rh234  1  0.60322474  0.39471746  -0.00508168  1
  Rh  Rh235  1  0.21138532  0.19807832  0.39009277  1
  Rh  Rh236  1  -0.01363216  0.19975689  0.40246580  1
  Rh  Rh237  1  0.80454115  0.40731117  0.80658254  1
  Rh  Rh238  1  0.40826841  -0.00216589  0.20374062  1
  Rh  Rh239  1  0.79889083  -0.01141816  0.80170500  1
  Rh  Rh240  1  -0.02317695  -0.01071511  0.01732415  1
  Rh  Rh241  1  0.39961139  0.60789341  0.80032274  1
  Rh  Rh242  1  0.59832979  -0.00085884  0.80046156  1
  Rh  Rh243  1  0.40405271  0.60169931  0.60067155  1
  Rh  Rh244  1  0.80932240  0.81166386  -0.01453885  1
  Rh  Rh245  1  0.21058558  0.38884744  0.00175990  1
  Rh  Rh246  1  0.60023727  0.39631642  0.79837334  1
  Rh  Rh247  1  0.00918071  0.60012820  0.00138400  1
  Rh  Rh248  1  0.20182413  0.60358547  0.60710431  1
  Rh  Rh249  1  0.79072859  0.78438883  0.21432408  1
