# generated using pymatgen
data_ZrScNbPdRh
_symmetry_space_group_name_H-M   'P 1'
_cell_length_a   16.55818421
_cell_length_b   16.55764250
_cell_length_c   16.55784317
_cell_angle_alpha   89.99197067
_cell_angle_beta   89.98775974
_cell_angle_gamma   90.02650070
_symmetry_Int_Tables_number   1
_chemical_formula_structural   ZrScNbPdRh
_chemical_formula_sum   'Zr50 Sc50 Nb50 Pd50 Rh50'
_cell_volume   4539.57206981
_cell_formula_units_Z   50
loop_
 _symmetry_equiv_pos_site_id
 _symmetry_equiv_pos_as_xyz
  1  'x, y, z'
loop_
 _atom_site_type_symbol
 _atom_site_label
 _atom_site_symmetry_multiplicity
 _atom_site_fract_x
 _atom_site_fract_y
 _atom_site_fract_z
 _atom_site_occupancy
  Zr  Zr0  1  0.50197220  0.69531447  0.48963204  1
  Zr  Zr1  1  0.90411060  0.49829593  0.30368937  1
  Zr  Zr2  1  0.69517078  0.29694059  0.70767437  1
  Zr  Zr3  1  0.90664848  0.69953316  0.50590798  1
  Zr  Zr4  1  0.68599374  0.10165751  0.30189795  1
  Zr  Zr5  1  0.29688035  0.10219154  0.49755372  1
  Zr  Zr6  1  0.29822491  0.49209061  0.09836561  1
  Zr  Zr7  1  0.89552789  0.69744946  0.70419150  1
  Zr  Zr8  1  0.70343621  0.28537242  0.50051943  1
  Zr  Zr9  1  0.30142001  0.29831729  0.10027231  1
  Zr  Zr10  1  0.89836058  0.09106310  0.09901484  1
  Zr  Zr11  1  0.90098663  0.49686033  0.49818167  1
  Zr  Zr12  1  0.29906351  0.70292757  0.70001485  1
  Zr  Zr13  1  0.90115810  0.09410220  0.70503878  1
  Zr  Zr14  1  0.28566548  0.30628458  0.90329477  1
  Zr  Zr15  1  0.70049965  0.90233877  0.50348776  1
  Zr  Zr16  1  0.30095581  0.70554933  0.90160838  1
  Zr  Zr17  1  0.70036449  0.89846580  0.71001862  1
  Zr  Zr18  1  0.09065283  0.50120041  0.49540055  1
  Zr  Zr19  1  0.90842646  0.10152442  0.90459586  1
  Zr  Zr20  1  0.29999370  0.11123090  0.70036162  1
  Zr  Zr21  1  0.09835615  0.69863368  0.09926986  1
  Zr  Zr22  1  0.49625073  0.70624573  0.09462739  1
  Zr  Zr23  1  0.89980278  0.90904696  0.09856142  1
  Zr  Zr24  1  0.09390024  0.28595147  0.89994849  1
  Zr  Zr25  1  0.50726451  0.29695209  0.29162707  1
  Zr  Zr26  1  0.69924448  0.70020174  0.70307608  1
  Zr  Zr27  1  0.90052770  0.29308417  0.09665621  1
  Zr  Zr28  1  0.09634113  0.09540022  0.71481601  1
  Zr  Zr29  1  0.89749404  0.50597500  0.69855823  1
  Zr  Zr30  1  0.29464819  0.29492906  0.29158159  1
  Zr  Zr31  1  0.49196012  0.90783572  0.29596676  1
  Zr  Zr32  1  0.31019439  0.70229272  0.50374058  1
  Zr  Zr33  1  0.70436004  0.90796800  0.09736515  1
  Zr  Zr34  1  0.30516361  0.30082246  0.50885732  1
  Zr  Zr35  1  0.50472564  0.10376188  0.70808151  1
  Zr  Zr36  1  0.69383122  0.29661270  0.09038693  1
  Zr  Zr37  1  0.30248641  0.50105343  0.29699722  1
  Zr  Zr38  1  0.50440384  0.50172377  0.31030530  1
  Zr  Zr39  1  0.90188649  0.90246394  0.69653050  1
  Zr  Zr40  1  0.50277964  0.30472244  0.49712456  1
  Zr  Zr41  1  0.09769812  0.50215577  0.10325589  1
  Zr  Zr42  1  0.09396329  0.69894563  0.69866284  1
  Zr  Zr43  1  0.49695289  0.29989864  0.68911802  1
  Zr  Zr44  1  0.70069839  0.49406438  0.70012474  1
  Zr  Zr45  1  0.70978208  0.50810203  0.29638997  1
  Zr  Zr46  1  0.10114711  0.70462986  0.29547147  1
  Zr  Zr47  1  0.90244253  0.50289076  0.10535793  1
  Zr  Zr48  1  0.89860245  0.30125074  0.49516560  1
  Zr  Zr49  1  0.70094461  0.09924546  0.68823983  1
  Sc  Sc50  1  0.89622594  0.29683366  0.90197903  1
  Sc  Sc51  1  0.10354382  0.71213079  0.90738151  1
  Sc  Sc52  1  0.89313300  0.69050672  0.30379651  1
  Sc  Sc53  1  0.09575089  0.89486139  0.10030317  1
  Sc  Sc54  1  0.10269452  0.47906667  0.89612242  1
  Sc  Sc55  1  0.68939829  0.90163350  0.30488050  1
  Sc  Sc56  1  0.29815799  0.89934698  0.71860614  1
  Sc  Sc57  1  0.89031482  0.90629758  0.90456401  1
  Sc  Sc58  1  0.50855525  0.10517026  0.50670946  1
  Sc  Sc59  1  0.29710023  0.90343285  0.91056048  1
  Sc  Sc60  1  0.10562236  0.29671577  0.10192030  1
  Sc  Sc61  1  0.09456441  0.50316109  0.29271485  1
  Sc  Sc62  1  0.09648395  0.49765702  0.69865382  1
  Sc  Sc63  1  0.69967205  0.70404387  0.48559586  1
  Sc  Sc64  1  0.89803808  0.49870587  0.90173729  1
  Sc  Sc65  1  0.29939655  0.71381675  0.30274473  1
  Sc  Sc66  1  0.89190680  0.30479525  0.70139030  1
  Sc  Sc67  1  0.10679195  0.29885797  0.71125846  1
  Sc  Sc68  1  0.71167284  0.70692580  0.89284857  1
  Sc  Sc69  1  0.49746366  0.48967696  0.09583749  1
  Sc  Sc70  1  0.49805118  0.49870572  0.50183797  1
  Sc  Sc71  1  0.10074232  0.29205403  0.29143561  1
  Sc  Sc72  1  0.09096537  0.10023893  0.10238566  1
  Sc  Sc73  1  0.69993708  0.11413092  0.89506819  1
  Sc  Sc74  1  0.49244785  0.70156054  0.89550094  1
  Sc  Sc75  1  0.30034916  0.70978943  0.09643932  1
  Sc  Sc76  1  0.90155746  0.89720271  0.50165264  1
  Sc  Sc77  1  0.09345415  0.89657837  0.49059974  1
  Sc  Sc78  1  0.49218640  0.89020443  0.49958423  1
  Sc  Sc79  1  0.10310152  0.09679257  0.49489971  1
  Sc  Sc80  1  0.49259466  0.70047263  0.69619173  1
  Sc  Sc81  1  0.90283492  0.69491148  0.08687785  1
  Sc  Sc82  1  0.30059359  0.89582913  0.48479711  1
  Sc  Sc83  1  0.50298609  0.90084233  0.70641490  1
  Sc  Sc84  1  0.49594806  0.90549927  0.89469311  1
  Sc  Sc85  1  0.71322833  0.49711571  0.09484391  1
  Sc  Sc86  1  0.69589863  0.29871495  0.30108261  1
  Sc  Sc87  1  0.09639387  0.70264236  0.49920697  1
  Sc  Sc88  1  0.10179233  0.09917050  0.29696074  1
  Sc  Sc89  1  0.88982264  0.10051272  0.50694986  1
  Sc  Sc90  1  0.10954370  0.90684896  0.89934940  1
  Sc  Sc91  1  0.30043155  0.49965088  0.68884038  1
  Sc  Sc92  1  0.09952312  0.30344454  0.49988782  1
  Sc  Sc93  1  0.91261294  0.90562579  0.29530978  1
  Sc  Sc94  1  0.49945253  0.10425213  0.10190767  1
  Sc  Sc95  1  0.51763786  0.30060447  0.91373629  1
  Sc  Sc96  1  0.29564104  0.09737716  0.90700781  1
  Sc  Sc97  1  0.29708436  0.30264910  0.69824440  1
  Sc  Sc98  1  0.30778403  0.10128559  0.09551435  1
  Sc  Sc99  1  0.89489473  0.30319897  0.30039936  1
  Nb  Nb100  1  0.90249685  0.10109190  0.29419888  1
  Nb  Nb101  1  0.11120316  0.89785953  0.30170812  1
  Nb  Nb102  1  0.49888049  0.90425965  0.09770087  1
  Nb  Nb103  1  0.70580688  0.30818218  0.90444064  1
  Nb  Nb104  1  0.69205560  0.48510357  0.90263800  1
  Nb  Nb105  1  0.29896079  0.50185691  0.49320614  1
  Nb  Nb106  1  0.50642467  0.49389725  0.69995946  1
  Nb  Nb107  1  0.30306978  0.50013942  0.90137992  1
  Nb  Nb108  1  0.49805992  0.10130544  0.29967748  1
  Nb  Nb109  1  0.69370436  0.89709865  0.90081838  1
  Nb  Nb110  1  0.10025881  0.90139967  0.70343302  1
  Nb  Nb111  1  0.50073257  0.29323078  0.10133001  1
  Nb  Nb112  1  0.69609483  0.70346448  0.29593480  1
  Nb  Nb113  1  0.90453696  0.70223355  0.89126390  1
  Nb  Nb114  1  0.09636273  0.09892928  0.89815634  1
  Nb  Nb115  1  0.30017068  0.09207920  0.30427897  1
  Nb  Nb116  1  0.70124154  0.09608779  0.10085373  1
  Nb  Nb117  1  0.49657173  0.10660474  0.90660235  1
  Nb  Nb118  1  0.31706114  0.90272284  0.10420487  1
  Nb  Nb119  1  0.49829596  0.50305694  0.90057246  1
  Nb  Nb120  1  0.29979006  0.90742119  0.30105402  1
  Nb  Nb121  1  0.51087169  0.69771186  0.30319036  1
  Nb  Nb122  1  0.70025670  0.69907738  0.09935077  1
  Nb  Nb123  1  0.70380977  0.10046486  0.49851095  1
  Nb  Nb124  1  0.69598365  0.49854262  0.50438724  1
  Nb  Nb125  1  0.60106791  0.79743404  0.60033286  1
  Nb  Nb126  1  0.79613587  0.19103276  0.19714396  1
  Nb  Nb127  1  0.20342597  0.40527087  0.39929646  1
  Nb  Nb128  1  -0.00186188  0.19804473  0.60113738  1
  Nb  Nb129  1  0.39253615  0.00079282  0.60383145  1
  Nb  Nb130  1  0.20402384  0.59434726  -0.00515278  1
  Nb  Nb131  1  0.60114560  0.60516901  0.19441157  1
  Nb  Nb132  1  -0.00708877  0.19810760  0.40170430  1
  Nb  Nb133  1  0.60298109  0.60100374  -0.00477660  1
  Nb  Nb134  1  0.20889047  -0.00575792  0.20428705  1
  Nb  Nb135  1  0.40781642  0.60388040  0.20307887  1
  Nb  Nb136  1  0.40384511  0.20882026  0.81109361  1
  Nb  Nb137  1  0.40585403  0.40362870  0.80454908  1
  Nb  Nb138  1  0.79318834  0.79691719  0.19701221  1
  Nb  Nb139  1  0.59670224  0.59005770  0.80395460  1
  Nb  Nb140  1  0.20432123  0.59826045  0.80655033  1
  Nb  Nb141  1  0.19967464  0.80733868  0.60329260  1
  Nb  Nb142  1  0.79774137  0.00689071  0.39870683  1
  Nb  Nb143  1  0.60058510  0.00083949  -0.00144116  1
  Nb  Nb144  1  0.59992896  0.79884178  0.19481001  1
  Nb  Nb145  1  0.20424666  0.59825271  0.40204800  1
  Nb  Nb146  1  0.60314764  0.80305161  -0.00011626  1
  Nb  Nb147  1  0.20120943  -0.00674228  0.60322971  1
  Nb  Nb148  1  -0.00340000  0.80244942  0.79982586  1
  Nb  Nb149  1  0.40094924  0.19672636  0.39369180  1
  Pd  Pd150  1  0.80393061  0.20079244  0.79942560  1
  Pd  Pd151  1  0.19712557  0.20733465  0.39932965  1
  Pd  Pd152  1  -0.00084450  0.39549414  0.00119056  1
  Pd  Pd153  1  -0.00517761  0.00855597  0.40067859  1
  Pd  Pd154  1  0.79818424  0.59991723  0.40805556  1
  Pd  Pd155  1  0.79446888  0.39534294  0.59811983  1
  Pd  Pd156  1  0.39694795  0.19285152  0.20276067  1
  Pd  Pd157  1  0.40441735  0.39002575  -0.00647765  1
  Pd  Pd158  1  0.79083616  0.58963582  0.81059360  1
  Pd  Pd159  1  0.59847945  0.60585386  0.60298338  1
  Pd  Pd160  1  0.39832421  0.59993721  0.00846301  1
  Pd  Pd161  1  0.79418167  0.60347241  0.59031552  1
  Pd  Pd162  1  0.19500853  0.60486229  0.59688173  1
  Pd  Pd163  1  0.19498775  0.40305154  0.59691052  1
  Pd  Pd164  1  0.59029144  -0.00912627  0.59701558  1
  Pd  Pd165  1  0.80770481  0.81195232  0.38815970  1
  Pd  Pd166  1  0.39855131  0.59218986  0.79119850  1
  Pd  Pd167  1  -0.01181529  0.79438249  0.20060512  1
  Pd  Pd168  1  0.79509208  0.00343450  0.80641148  1
  Pd  Pd169  1  0.80135258  0.79733555  0.00174824  1
  Pd  Pd170  1  0.40523044  0.79575087  0.20722578  1
  Pd  Pd171  1  0.60972332  0.40191265  0.40257036  1
  Pd  Pd172  1  0.40654395  0.59256504  0.60137449  1
  Pd  Pd173  1  0.40604620  0.40286902  0.20291544  1
  Pd  Pd174  1  0.00256348  0.39134338  0.60925211  1
  Pd  Pd175  1  0.79384312  0.79723998  0.59936265  1
  Pd  Pd176  1  0.20510508  0.80915578  0.19137538  1
  Pd  Pd177  1  0.79527588  -0.00370622  0.21456201  1
  Pd  Pd178  1  0.19499229  0.19101328  0.00621512  1
  Pd  Pd179  1  -0.00792013  0.39436522  0.79740699  1
  Pd  Pd180  1  0.21190612  0.60553479  0.19840109  1
  Pd  Pd181  1  0.78918516  0.40087573  0.40197541  1
  Pd  Pd182  1  0.40295530  0.80483387  0.80209499  1
  Pd  Pd183  1  0.60427856  0.00806992  0.80909037  1
  Pd  Pd184  1  0.39359711  0.00979202  0.80148346  1
  Pd  Pd185  1  0.39459046  0.38929541  0.39511319  1
  Pd  Pd186  1  0.40855296  0.00801227  0.41131318  1
  Pd  Pd187  1  -0.00619149  0.79630484  0.39059632  1
  Pd  Pd188  1  0.01117928  0.59499359  -0.01320242  1
  Pd  Pd189  1  0.18478962  0.19490906  0.60243905  1
  Pd  Pd190  1  0.59295815  0.39478556  0.80153143  1
  Pd  Pd191  1  0.59432339  -0.00185818  0.40913759  1
  Pd  Pd192  1  0.60618173  0.40899769  0.19354319  1
  Pd  Pd193  1  0.00704337  0.00327180  0.59190922  1
  Pd  Pd194  1  0.79561599  0.59967025  -0.01019826  1
  Pd  Pd195  1  0.00238354  0.39229077  0.20160138  1
  Pd  Pd196  1  0.79605381  0.38917775  0.19617943  1
  Pd  Pd197  1  0.19597583  -0.00012645  0.01530948  1
  Pd  Pd198  1  0.01239736  0.60165285  0.81119252  1
  Pd  Pd199  1  -0.00403837  0.80987111  -0.00929145  1
  Rh  Rh200  1  0.19892548  0.79346975  0.40859991  1
  Rh  Rh201  1  0.80708858  0.39986006  -0.00068567  1
  Rh  Rh202  1  0.39846969  0.00774896  0.19717316  1
  Rh  Rh203  1  -0.00892224  0.60820035  0.20133140  1
  Rh  Rh204  1  0.00185435  0.19767965  0.00351778  1
  Rh  Rh205  1  0.59416619  0.80740151  0.39999310  1
  Rh  Rh206  1  0.60212264  0.20149006  0.59915989  1
  Rh  Rh207  1  0.80258887  0.60688348  0.19598176  1
  Rh  Rh208  1  0.59470724  0.78937620  0.80000275  1
  Rh  Rh209  1  0.60309971  0.19673248  0.19239660  1
  Rh  Rh210  1  0.20449827  0.80453391  0.00866970  1
  Rh  Rh211  1  0.39633094  0.81215803  0.60790385  1
  Rh  Rh212  1  0.59166470  -0.00009645  0.19320202  1
  Rh  Rh213  1  0.20701317  0.19514026  0.80754626  1
  Rh  Rh214  1  -0.00701712  0.20460685  0.79320735  1
  Rh  Rh215  1  0.79723650  0.19639779  0.00414714  1
  Rh  Rh216  1  0.78889245  0.01078361  -0.01250805  1
  Rh  Rh217  1  0.80530311  0.20025811  0.60833145  1
  Rh  Rh218  1  0.01145687  0.38888304  0.38916315  1
  Rh  Rh219  1  0.21150948  0.41009633  0.79200750  1
  Rh  Rh220  1  0.19014326  0.79188960  0.79440943  1
  Rh  Rh221  1  0.80214242  0.40220564  0.80546926  1
  Rh  Rh222  1  0.00681149  -0.00281606  -0.00276526  1
  Rh  Rh223  1  0.80008983  -0.00365649  0.59569769  1
  Rh  Rh224  1  0.19547143  -0.00398228  0.39940377  1
  Rh  Rh225  1  -0.00940799  0.20188617  0.20365360  1
  Rh  Rh226  1  0.40839842  0.00057508  -0.00136807  1
  Rh  Rh227  1  0.01566167  -0.00404104  0.20400808  1
  Rh  Rh228  1  0.20439633  0.00581901  0.80065504  1
  Rh  Rh229  1  0.60330027  0.19101508  0.00301336  1
  Rh  Rh230  1  0.59661357  0.20661190  0.80437084  1
  Rh  Rh231  1  -0.00176695  -0.01111213  0.81185513  1
  Rh  Rh232  1  0.00554144  0.80470119  0.60708181  1
  Rh  Rh233  1  0.61069022  0.59165752  0.39965877  1
  Rh  Rh234  1  0.59870825  0.40561891  0.00883754  1
  Rh  Rh235  1  -0.00282013  0.59558864  0.59884713  1
  Rh  Rh236  1  0.80448260  0.19000200  0.38681415  1
  Rh  Rh237  1  0.19309380  0.39985531  0.20342256  1
  Rh  Rh238  1  0.80914141  0.80756596  0.80219142  1
  Rh  Rh239  1  0.39246375  0.60753630  0.39269942  1
  Rh  Rh240  1  0.59216052  0.19854113  0.40282685  1
  Rh  Rh241  1  0.40119312  0.20829327  -0.00299210  1
  Rh  Rh242  1  0.20555864  0.18448384  0.19366930  1
  Rh  Rh243  1  0.40318609  0.81073999  -0.00736994  1
  Rh  Rh244  1  0.40057470  0.40695637  0.60194804  1
  Rh  Rh245  1  0.00674705  0.60713430  0.39615263  1
  Rh  Rh246  1  0.60705185  0.39549795  0.59360855  1
  Rh  Rh247  1  0.19322433  0.40270006  0.00599808  1
  Rh  Rh248  1  0.40378522  0.19389702  0.59790865  1
  Rh  Rh249  1  0.40607374  0.79747831  0.38913967  1
