# generated using pymatgen
data_ZrScNbPdRh
_symmetry_space_group_name_H-M   'P 1'
_cell_length_a   16.55311025
_cell_length_b   16.55611684
_cell_length_c   16.55687207
_cell_angle_alpha   89.97564585
_cell_angle_beta   89.99766742
_cell_angle_gamma   89.98545807
_symmetry_Int_Tables_number   1
_chemical_formula_structural   ZrScNbPdRh
_chemical_formula_sum   'Zr50 Sc50 Nb50 Pd50 Rh50'
_cell_volume   4537.49677820
_cell_formula_units_Z   50
loop_
 _symmetry_equiv_pos_site_id
 _symmetry_equiv_pos_as_xyz
  1  'x, y, z'
loop_
 _atom_site_type_symbol
 _atom_site_label
 _atom_site_symmetry_multiplicity
 _atom_site_fract_x
 _atom_site_fract_y
 _atom_site_fract_z
 _atom_site_occupancy
  Zr  Zr0  1  0.50329634  0.69825221  0.09394608  1
  Zr  Zr1  1  0.29681934  0.90293295  0.10485556  1
  Zr  Zr2  1  0.50663171  0.69369393  0.90219898  1
  Zr  Zr3  1  0.48849751  0.90618367  0.30315412  1
  Zr  Zr4  1  0.29569516  0.29734651  0.30753698  1
  Zr  Zr5  1  0.30023230  0.89642585  0.90017104  1
  Zr  Zr6  1  0.70526960  0.49820284  0.70224046  1
  Zr  Zr7  1  0.10346123  0.89866688  0.09504109  1
  Zr  Zr8  1  0.89780180  0.29639204  0.49958140  1
  Zr  Zr9  1  0.29202809  0.50034586  0.09494242  1
  Zr  Zr10  1  0.29262391  0.69352929  0.29476776  1
  Zr  Zr11  1  0.89934677  0.49522413  0.90226237  1
  Zr  Zr12  1  0.09348471  0.29955435  0.49648128  1
  Zr  Zr13  1  0.69521725  0.30259840  0.88963856  1
  Zr  Zr14  1  0.90449024  0.70172477  0.29838992  1
  Zr  Zr15  1  0.29681349  0.49876145  0.30061957  1
  Zr  Zr16  1  0.70655952  0.09861291  0.89600575  1
  Zr  Zr17  1  0.50689174  0.90343377  0.10472299  1
  Zr  Zr18  1  0.90563836  0.69424662  0.89713779  1
  Zr  Zr19  1  0.90785248  0.30173231  0.10799895  1
  Zr  Zr20  1  0.90346149  0.89981926  0.70733915  1
  Zr  Zr21  1  0.09007207  0.09649351  0.90035527  1
  Zr  Zr22  1  0.29531400  0.08739151  0.30169732  1
  Zr  Zr23  1  0.70020167  0.11094164  0.50296642  1
  Zr  Zr24  1  0.91275642  0.70492477  0.49775935  1
  Zr  Zr25  1  0.49325040  0.49947808  0.08565775  1
  Zr  Zr26  1  0.50343745  0.10695059  0.10371592  1
  Zr  Zr27  1  0.49421439  0.10561451  0.30062484  1
  Zr  Zr28  1  0.69782771  0.29449297  0.10424731  1
  Zr  Zr29  1  0.70904393  0.50502293  0.09495980  1
  Zr  Zr30  1  0.49869301  0.29984368  0.29825820  1
  Zr  Zr31  1  0.70646637  0.91565594  0.50241475  1
  Zr  Zr32  1  0.49908833  0.69813387  0.30457007  1
  Zr  Zr33  1  0.69820723  0.11177188  0.70076594  1
  Zr  Zr34  1  0.70032855  0.89954113  0.29245657  1
  Zr  Zr35  1  0.70306179  0.69614227  0.50462418  1
  Zr  Zr36  1  0.09872485  0.29667619  0.89602132  1
  Zr  Zr37  1  0.50609438  0.89951699  0.89167038  1
  Zr  Zr38  1  0.70212888  0.29900895  0.30783537  1
  Zr  Zr39  1  0.50369510  0.10643706  0.90708777  1
  Zr  Zr40  1  0.90541389  0.49861358  0.09701466  1
  Zr  Zr41  1  0.29629719  0.29330296  0.70154034  1
  Zr  Zr42  1  0.69752115  0.49944509  0.89754399  1
  Zr  Zr43  1  0.50328721  0.09228720  0.69950804  1
  Zr  Zr44  1  0.30080702  0.09984419  0.69252807  1
  Zr  Zr45  1  0.69796572  0.69774462  0.90925192  1
  Zr  Zr46  1  0.90307650  0.09762140  0.90129356  1
  Zr  Zr47  1  0.69370879  0.91440326  0.70732140  1
  Zr  Zr48  1  0.10067144  0.10563993  0.69748292  1
  Zr  Zr49  1  0.09505992  0.50513805  0.89963692  1
  Sc  Sc50  1  0.89850895  0.29907977  0.69767623  1
  Sc  Sc51  1  0.29720185  0.70085264  0.69574446  1
  Sc  Sc52  1  0.70879317  0.49517755  0.49910705  1
  Sc  Sc53  1  0.09798923  0.49725793  0.71022097  1
  Sc  Sc54  1  0.29970132  0.50434932  0.70594769  1
  Sc  Sc55  1  0.90198545  0.10395737  0.29722525  1
  Sc  Sc56  1  0.49769890  0.30587753  0.90413276  1
  Sc  Sc57  1  0.90249088  0.49936140  0.29286309  1
  Sc  Sc58  1  0.70668695  0.70222772  0.28995243  1
  Sc  Sc59  1  0.50122198  0.29478617  0.09073455  1
  Sc  Sc60  1  0.49774330  0.49787859  0.30569476  1
  Sc  Sc61  1  0.09779761  0.10880331  0.10059559  1
  Sc  Sc62  1  0.10489837  0.89359627  0.70151282  1
  Sc  Sc63  1  0.89710654  0.50238418  0.70437283  1
  Sc  Sc64  1  0.09980929  0.70155048  0.89910916  1
  Sc  Sc65  1  0.49785785  0.29405132  0.71022885  1
  Sc  Sc66  1  0.48956399  0.70073894  0.50682959  1
  Sc  Sc67  1  0.90466205  0.90505648  0.89998727  1
  Sc  Sc68  1  0.30388249  0.10617875  0.10025656  1
  Sc  Sc69  1  0.90072013  0.49226995  0.50010005  1
  Sc  Sc70  1  0.09861116  0.50511079  0.30219671  1
  Sc  Sc71  1  0.70356354  0.10981742  0.29976450  1
  Sc  Sc72  1  0.29153387  0.69901343  0.89564166  1
  Sc  Sc73  1  0.29517094  0.69086333  0.09472167  1
  Sc  Sc74  1  0.70733770  0.69144530  0.70980087  1
  Sc  Sc75  1  0.10046968  0.09475508  0.30043110  1
  Sc  Sc76  1  0.30839097  0.10453576  0.90448317  1
  Sc  Sc77  1  0.09358970  0.88999385  0.89670543  1
  Sc  Sc78  1  0.09834328  0.88730800  0.50527165  1
  Sc  Sc79  1  0.89770693  0.10433706  0.70734758  1
  Sc  Sc80  1  0.90008688  0.89873821  0.09333233  1
  Sc  Sc81  1  0.89972227  0.69403942  0.70342015  1
  Sc  Sc82  1  0.29414827  0.10570569  0.50146883  1
  Sc  Sc83  1  0.49576223  0.50005260  0.49568814  1
  Sc  Sc84  1  0.70838520  0.89703339  0.90224677  1
  Sc  Sc85  1  0.49820587  0.29374637  0.48581683  1
  Sc  Sc86  1  0.49034962  0.50429286  0.70459543  1
  Sc  Sc87  1  0.49659045  0.49786067  0.89902034  1
  Sc  Sc88  1  0.70203353  0.50061022  0.30703162  1
  Sc  Sc89  1  0.49377952  0.69808332  0.70426532  1
  Sc  Sc90  1  0.89015146  0.69312344  0.10406497  1
  Sc  Sc91  1  0.89536717  0.09756113  0.49169110  1
  Sc  Sc92  1  0.10761382  0.70285256  0.70406313  1
  Sc  Sc93  1  0.30330129  0.89724207  0.50486669  1
  Sc  Sc94  1  0.90854721  0.10105457  0.09553003  1
  Sc  Sc95  1  0.30218552  0.30384931  0.90221790  1
  Sc  Sc96  1  0.90588682  0.91096136  0.30340923  1
  Sc  Sc97  1  0.29319839  0.50329083  0.50054150  1
  Sc  Sc98  1  0.09960931  0.10596618  0.49943393  1
  Sc  Sc99  1  0.90019563  0.30066017  0.29917219  1
  Nb  Nb100  1  0.70327563  0.89569738  0.09968051  1
  Nb  Nb101  1  0.10107098  0.69692250  0.09910714  1
  Nb  Nb102  1  0.30178083  0.49712893  0.90069985  1
  Nb  Nb103  1  0.89982040  0.90263939  0.50285003  1
  Nb  Nb104  1  0.09674749  0.69821379  0.30503361  1
  Nb  Nb105  1  0.30139432  0.90119960  0.70350797  1
  Nb  Nb106  1  0.10461239  0.30234866  0.10503647  1
  Nb  Nb107  1  0.50394286  0.89810957  0.50302420  1
  Nb  Nb108  1  0.11341546  0.90081376  0.29154117  1
  Nb  Nb109  1  0.29137110  0.69694664  0.50219996  1
  Nb  Nb110  1  0.09666153  0.49956244  0.09871860  1
  Nb  Nb111  1  0.50558677  0.09420785  0.50038973  1
  Nb  Nb112  1  0.69977538  0.29812483  0.69606076  1
  Nb  Nb113  1  0.10146083  0.29392674  0.69317700  1
  Nb  Nb114  1  0.29292463  0.89971847  0.29848559  1
  Nb  Nb115  1  0.09952635  0.29728620  0.29289097  1
  Nb  Nb116  1  0.49719276  0.90086266  0.69647151  1
  Nb  Nb117  1  0.29643113  0.30405949  0.50029171  1
  Nb  Nb118  1  0.70183553  0.10312723  0.09742901  1
  Nb  Nb119  1  0.70310305  0.29859044  0.50319563  1
  Nb  Nb120  1  0.69891828  0.70687109  0.10079950  1
  Nb  Nb121  1  0.29123672  0.30500868  0.10071067  1
  Nb  Nb122  1  0.89770266  0.29733853  0.90320844  1
  Nb  Nb123  1  0.09839335  0.50353951  0.50011344  1
  Nb  Nb124  1  0.10466693  0.69407052  0.49536880  1
  Nb  Nb125  1  0.01106348  0.79844242  0.20257590  1
  Nb  Nb126  1  0.40289817  0.80018823  0.00236049  1
  Nb  Nb127  1  0.59620108  0.40396597  0.19696636  1
  Nb  Nb128  1  0.19935268  0.79517325  0.39460072  1
  Nb  Nb129  1  0.60136464  0.59659964  0.60118373  1
  Nb  Nb130  1  0.00793924  0.59951732  0.59439507  1
  Nb  Nb131  1  0.79485727  0.00180026  0.18972273  1
  Nb  Nb132  1  0.80170090  0.80367963  0.40505204  1
  Nb  Nb133  1  0.39587339  0.79969283  0.20016470  1
  Nb  Nb134  1  0.20485337  0.00006638  0.80040358  1
  Nb  Nb135  1  0.60070043  0.59788153  0.19418806  1
  Nb  Nb136  1  0.59589654  0.00078036  0.40265259  1
  Nb  Nb137  1  0.19611453  0.39523915  0.59998916  1
  Nb  Nb138  1  0.19846652  -0.00056585  -0.00508410  1
  Nb  Nb139  1  -0.00288093  -0.00277315  0.59943946  1
  Nb  Nb140  1  0.79966176  0.80613181  0.59917177  1
  Nb  Nb141  1  0.59900723  0.39700069  0.60040395  1
  Nb  Nb142  1  0.60869108  0.00010556  0.00664969  1
  Nb  Nb143  1  0.80271175  0.20324322  -0.00179512  1
  Nb  Nb144  1  0.60129477  0.80313656  0.60217013  1
  Nb  Nb145  1  0.80779278  0.60793366  0.40056003  1
  Nb  Nb146  1  0.39527762  0.39350592  0.59716308  1
  Nb  Nb147  1  0.60165748  0.80545515  0.40659620  1
  Nb  Nb148  1  0.38982950  0.60491195  0.40153188  1
  Nb  Nb149  1  0.39509481  0.39706472  0.19437717  1
  Pd  Pd150  1  0.19206456  -0.00587790  0.60084079  1
  Pd  Pd151  1  0.00808771  0.39414952  0.00016862  1
  Pd  Pd152  1  0.60709424  0.01063780  0.20332471  1
  Pd  Pd153  1  -0.00287032  -0.00372533  0.19336690  1
  Pd  Pd154  1  0.39771676  0.00465080  0.79967929  1
  Pd  Pd155  1  0.80939297  0.00638150  0.61042224  1
  Pd  Pd156  1  0.39251003  0.19255655  0.40541435  1
  Pd  Pd157  1  -0.00545620  0.79178322  0.00669506  1
  Pd  Pd158  1  0.79855172  0.39710470  0.60287618  1
  Pd  Pd159  1  0.19920394  0.19315075  0.20513818  1
  Pd  Pd160  1  0.60473121  0.79383685  0.79155880  1
  Pd  Pd161  1  -0.00050666  0.79627878  0.60986816  1
  Pd  Pd162  1  0.39914366  -0.00096533  0.59373591  1
  Pd  Pd163  1  0.60202023  0.60529790  0.40276412  1
  Pd  Pd164  1  0.39883494  0.79956895  0.60423207  1
  Pd  Pd165  1  0.20230096  0.40033815  0.79656516  1
  Pd  Pd166  1  0.20011926  0.79100515  0.19739091  1
  Pd  Pd167  1  0.39833503  0.79307202  0.80248449  1
  Pd  Pd168  1  0.00114699  0.19784160  0.39390241  1
  Pd  Pd169  1  -0.00473133  0.20586379  0.79520006  1
  Pd  Pd170  1  -0.00116821  0.40298789  0.39120787  1
  Pd  Pd171  1  0.19265358  0.39986993  0.40390794  1
  Pd  Pd172  1  0.19645663  0.40471926  0.20320769  1
  Pd  Pd173  1  0.19338849  -0.01014441  0.41292319  1
  Pd  Pd174  1  0.39381403  0.60367116  0.80510200  1
  Pd  Pd175  1  0.39291158  0.20862151  0.19614429  1
  Pd  Pd176  1  0.00440415  0.40618557  0.60749442  1
  Pd  Pd177  1  0.58892607  0.21117432  0.59820013  1
  Pd  Pd178  1  0.19540079  0.60077521  -0.00614179  1
  Pd  Pd179  1  0.40860751  0.20423681  0.59243862  1
  Pd  Pd180  1  0.40603333  0.59627492  0.20320448  1
  Pd  Pd181  1  0.19277505  0.40002245  -0.00601509  1
  Pd  Pd182  1  0.01192681  -0.00473314  0.40703423  1
  Pd  Pd183  1  0.59319254  0.79334477  0.20599924  1
  Pd  Pd184  1  0.80820602  0.79542771  -0.00172253  1
  Pd  Pd185  1  0.20354214  0.19228571  0.80768122  1
  Pd  Pd186  1  0.60241404  0.39944442  0.40451850  1
  Pd  Pd187  1  -0.00493052  0.39245612  0.79633474  1
  Pd  Pd188  1  0.40175220  0.19829119  0.80448846  1
  Pd  Pd189  1  0.00566978  0.81281600  0.39146437  1
  Pd  Pd190  1  0.39354571  0.79419685  0.39822848  1
  Pd  Pd191  1  0.19355250  0.59188151  0.60923466  1
  Pd  Pd192  1  0.20003258  0.19602775  -0.00370151  1
  Pd  Pd193  1  0.00409966  0.60309144  0.19512303  1
  Pd  Pd194  1  0.79596037  0.39077597  -0.00046605  1
  Pd  Pd195  1  0.59118570  0.40474477  0.79140552  1
  Pd  Pd196  1  0.40389907  -0.00361371  0.00409792  1
  Pd  Pd197  1  0.79485481  0.40340523  0.20519589  1
  Pd  Pd198  1  0.79925731  0.80111912  0.79843473  1
  Pd  Pd199  1  0.39793294  0.00305741  0.41098544  1
  Rh  Rh200  1  0.20447789  0.80144367  0.00052256  1
  Rh  Rh201  1  -0.00016696  0.79443503  0.79857931  1
  Rh  Rh202  1  0.00346092  0.60259756  0.79217039  1
  Rh  Rh203  1  0.00072422  0.60224376  0.00419584  1
  Rh  Rh204  1  0.59616677  0.19933199  0.80165338  1
  Rh  Rh205  1  0.79411619  0.00052523  0.38506155  1
  Rh  Rh206  1  0.60163624  0.19524472  0.39963010  1
  Rh  Rh207  1  0.59615624  -0.00181713  0.59796960  1
  Rh  Rh208  1  -0.00192671  0.21098198  0.00269406  1
  Rh  Rh209  1  0.39113346  0.60536557  -0.01185324  1
  Rh  Rh210  1  0.19685658  0.20082601  0.39708443  1
  Rh  Rh211  1  0.80177813  0.59601169  0.81052106  1
  Rh  Rh212  1  0.79234688  0.59528236  0.20523039  1
  Rh  Rh213  1  0.40181370  0.59283354  0.59192846  1
  Rh  Rh214  1  0.59898218  0.00671457  0.80830298  1
  Rh  Rh215  1  -0.00478476  0.59034555  0.40651221  1
  Rh  Rh216  1  0.39356307  0.21035810  0.00448726  1
  Rh  Rh217  1  0.39386386  0.40818293  0.40154640  1
  Rh  Rh218  1  0.80917138  0.19231000  0.19092956  1
  Rh  Rh219  1  0.39379527  -0.00087510  0.19889044  1
  Rh  Rh220  1  0.80276041  -0.00045917  0.80014233  1
  Rh  Rh221  1  0.19933960  0.59667659  0.80336626  1
  Rh  Rh222  1  0.60011679  0.59672403  0.79472771  1
  Rh  Rh223  1  0.79757465  0.00579605  0.00412902  1
  Rh  Rh224  1  0.20635422  0.80016271  0.59576896  1
  Rh  Rh225  1  0.80961949  0.60575997  0.59219207  1
  Rh  Rh226  1  0.81571631  0.81378037  0.20413243  1
  Rh  Rh227  1  0.80278817  0.20765000  0.80418706  1
  Rh  Rh228  1  0.18772043  0.59495155  0.19639953  1
  Rh  Rh229  1  0.01036759  0.40051342  0.20208095  1
  Rh  Rh230  1  0.80623250  0.19904402  0.60034383  1
  Rh  Rh231  1  0.59808388  0.80972104  -0.00163832  1
  Rh  Rh232  1  0.20361261  0.80506796  0.79640377  1
  Rh  Rh233  1  0.60450703  0.40072124  0.00365674  1
  Rh  Rh234  1  0.00382259  0.20162068  0.20307795  1
  Rh  Rh235  1  0.00768699  -0.00370109  0.00249078  1
  Rh  Rh236  1  0.80397553  0.40193543  0.39955075  1
  Rh  Rh237  1  0.00982915  -0.00240428  0.78979252  1
  Rh  Rh238  1  0.60556674  0.59416482  0.00394184  1
  Rh  Rh239  1  0.19970120  0.01060674  0.18930242  1
  Rh  Rh240  1  0.80389543  0.20274070  0.40097493  1
  Rh  Rh241  1  0.19638861  0.20742267  0.59119651  1
  Rh  Rh242  1  0.39157860  0.39644684  0.00362597  1
  Rh  Rh243  1  0.60022910  0.20527899  0.20542968  1
  Rh  Rh244  1  0.20158729  0.60221507  0.39955322  1
  Rh  Rh245  1  0.80274211  0.60519379  -0.00261358  1
  Rh  Rh246  1  0.60995477  0.19801869  -0.00788666  1
  Rh  Rh247  1  0.80504531  0.39604909  0.79713218  1
  Rh  Rh248  1  0.39558951  0.39974116  0.79609066  1
  Rh  Rh249  1  -0.00649181  0.19126474  0.59894646  1
