# generated using pymatgen
data_ZrScNbPdRh
_symmetry_space_group_name_H-M   'P 1'
_cell_length_a   16.56705418
_cell_length_b   16.56279524
_cell_length_c   16.56430128
_cell_angle_alpha   90.00831991
_cell_angle_beta   90.00677258
_cell_angle_gamma   90.01355516
_symmetry_Int_Tables_number   1
_chemical_formula_structural   ZrScNbPdRh
_chemical_formula_sum   'Zr50 Sc50 Nb50 Pd50 Rh50'
_cell_volume   4545.18983556
_cell_formula_units_Z   50
loop_
 _symmetry_equiv_pos_site_id
 _symmetry_equiv_pos_as_xyz
  1  'x, y, z'
loop_
 _atom_site_type_symbol
 _atom_site_label
 _atom_site_symmetry_multiplicity
 _atom_site_fract_x
 _atom_site_fract_y
 _atom_site_fract_z
 _atom_site_occupancy
  Zr  Zr0  1  0.90461526  0.89427243  0.89731565  1
  Zr  Zr1  1  0.29464341  0.49957174  0.70185780  1
  Zr  Zr2  1  0.89868966  0.69424949  0.09779124  1
  Zr  Zr3  1  0.09627691  0.90092128  0.28887980  1
  Zr  Zr4  1  0.50339187  0.30443600  0.89920326  1
  Zr  Zr5  1  0.69751700  0.29261747  0.70044606  1
  Zr  Zr6  1  0.70027267  0.49874767  0.50134685  1
  Zr  Zr7  1  0.29924575  0.09749400  0.09969009  1
  Zr  Zr8  1  0.30144148  0.69268276  0.70710590  1
  Zr  Zr9  1  0.50284686  0.69392315  0.10353747  1
  Zr  Zr10  1  0.50323465  0.50436453  0.09232003  1
  Zr  Zr11  1  0.69444409  0.10705001  0.89746779  1
  Zr  Zr12  1  0.50683059  0.30642964  0.10002246  1
  Zr  Zr13  1  0.70506078  0.09821999  0.29204668  1
  Zr  Zr14  1  0.09568267  0.09956639  0.30833454  1
  Zr  Zr15  1  0.90419194  0.30233127  0.49872524  1
  Zr  Zr16  1  0.49437660  0.69280578  0.69700384  1
  Zr  Zr17  1  0.10115708  0.10595076  0.49366122  1
  Zr  Zr18  1  0.90617378  0.89357901  0.09981279  1
  Zr  Zr19  1  0.30539018  0.90281331  0.49896927  1
  Zr  Zr20  1  0.30326900  0.10078611  0.49455431  1
  Zr  Zr21  1  0.30149349  0.10707228  0.70469096  1
  Zr  Zr22  1  0.10564412  0.50150907  0.89854869  1
  Zr  Zr23  1  0.09839510  0.49502062  0.69484696  1
  Zr  Zr24  1  0.70086308  0.89426094  0.30209526  1
  Zr  Zr25  1  0.10240636  0.90399004  0.09536308  1
  Zr  Zr26  1  0.69637356  0.50173601  0.70322888  1
  Zr  Zr27  1  0.69799966  0.50646350  0.09262198  1
  Zr  Zr28  1  0.11003107  0.10241361  0.90754179  1
  Zr  Zr29  1  0.29389106  0.68810581  0.90136522  1
  Zr  Zr30  1  0.70177626  0.89686589  0.49847660  1
  Zr  Zr31  1  0.90083387  0.30712149  0.70112424  1
  Zr  Zr32  1  0.69000526  0.70532569  0.29281193  1
  Zr  Zr33  1  0.69670675  0.30228960  0.29815187  1
  Zr  Zr34  1  0.29947299  0.69955756  0.09527816  1
  Zr  Zr35  1  0.29831559  0.30255258  0.89894889  1
  Zr  Zr36  1  0.09923580  0.29739508  0.90883838  1
  Zr  Zr37  1  0.10741791  0.10368502  0.09775171  1
  Zr  Zr38  1  0.50042820  0.49796408  0.70152107  1
  Zr  Zr39  1  0.70498601  0.29926917  0.09558497  1
  Zr  Zr40  1  0.29354172  0.68745434  0.28675165  1
  Zr  Zr41  1  0.49359894  0.30159906  0.30061438  1
  Zr  Zr42  1  0.90986991  0.50203116  0.29822559  1
  Zr  Zr43  1  0.10469805  0.10964819  0.70142571  1
  Zr  Zr44  1  0.89994746  0.69440246  0.89480952  1
  Zr  Zr45  1  0.69918718  0.30531019  0.89913772  1
  Zr  Zr46  1  0.29476864  0.90127627  0.10154152  1
  Zr  Zr47  1  0.89377809  0.30751200  0.90309564  1
  Zr  Zr48  1  0.09680138  0.69239513  0.50173216  1
  Zr  Zr49  1  0.70152008  0.90176894  0.69486504  1
  Sc  Sc50  1  0.30161956  0.09960243  0.90224394  1
  Sc  Sc51  1  0.90790643  0.10029250  0.49268641  1
  Sc  Sc52  1  0.31215094  0.90288871  0.90698412  1
  Sc  Sc53  1  0.69951084  0.89147170  0.11294138  1
  Sc  Sc54  1  0.49944702  0.49590728  0.29982966  1
  Sc  Sc55  1  0.30414822  0.30058577  0.70026610  1
  Sc  Sc56  1  0.70529811  0.09832627  0.51521732  1
  Sc  Sc57  1  0.89838461  0.90626786  0.29842558  1
  Sc  Sc58  1  0.89778703  0.50034782  0.89862964  1
  Sc  Sc59  1  0.09841087  0.89621991  0.49891669  1
  Sc  Sc60  1  0.90109636  0.88447117  0.70009644  1
  Sc  Sc61  1  0.88530834  0.09021961  0.90453223  1
  Sc  Sc62  1  0.30247520  0.51056848  0.10775945  1
  Sc  Sc63  1  0.48830267  0.69280233  0.90100791  1
  Sc  Sc64  1  0.90140854  0.30417962  0.09156081  1
  Sc  Sc65  1  0.49867502  0.10025879  0.11117492  1
  Sc  Sc66  1  0.50157574  0.49752568  0.50553685  1
  Sc  Sc67  1  0.10503597  0.30533043  0.70037660  1
  Sc  Sc68  1  0.49294181  0.90214359  0.10116992  1
  Sc  Sc69  1  0.88989001  0.10792086  0.69316319  1
  Sc  Sc70  1  0.10312869  0.70161912  0.10458950  1
  Sc  Sc71  1  0.69806537  0.09918698  0.70350764  1
  Sc  Sc72  1  0.50112549  0.10510883  0.70292511  1
  Sc  Sc73  1  0.89739745  0.89497970  0.49834382  1
  Sc  Sc74  1  0.70162335  0.10749050  0.10152171  1
  Sc  Sc75  1  0.90649074  0.30654732  0.30416802  1
  Sc  Sc76  1  0.69718176  0.69321715  0.10291165  1
  Sc  Sc77  1  0.70025789  0.69242341  0.49541282  1
  Sc  Sc78  1  0.30265264  0.11111089  0.30109937  1
  Sc  Sc79  1  0.90241316  0.69683639  0.29017218  1
  Sc  Sc80  1  0.09759269  0.30129858  0.49807291  1
  Sc  Sc81  1  0.69634923  0.50284882  0.30805215  1
  Sc  Sc82  1  0.90678614  0.50058066  0.49331327  1
  Sc  Sc83  1  0.88953921  0.10305154  0.10176181  1
  Sc  Sc84  1  0.89878036  0.69415609  0.50283454  1
  Sc  Sc85  1  0.10031125  0.51052145  0.29702681  1
  Sc  Sc86  1  0.90309748  0.50209651  0.09267350  1
  Sc  Sc87  1  0.09688722  0.69354886  0.90360717  1
  Sc  Sc88  1  0.30017106  0.29703146  0.11895956  1
  Sc  Sc89  1  0.89967200  0.69256855  0.69801034  1
  Sc  Sc90  1  0.30956610  0.30139144  0.50146322  1
  Sc  Sc91  1  0.10466088  0.30471129  0.30198154  1
  Sc  Sc92  1  0.71201044  0.91146124  0.88628408  1
  Sc  Sc93  1  0.50006507  0.30511760  0.50436362  1
  Sc  Sc94  1  0.70158164  0.68743948  0.69745240  1
  Sc  Sc95  1  0.09336865  0.70135166  0.69515914  1
  Sc  Sc96  1  0.30651823  0.89491896  0.69852042  1
  Sc  Sc97  1  0.29477527  0.91161770  0.29753411  1
  Sc  Sc98  1  0.29654991  0.69508560  0.51691590  1
  Sc  Sc99  1  0.49365758  0.90759544  0.70338490  1
  Nb  Nb100  1  0.50089299  0.09649843  0.30645210  1
  Nb  Nb101  1  0.49595107  0.90262100  0.49726333  1
  Nb  Nb102  1  0.50437021  0.30458558  0.70390914  1
  Nb  Nb103  1  0.30419999  0.31198665  0.30578377  1
  Nb  Nb104  1  0.30124936  0.50070830  0.50432394  1
  Nb  Nb105  1  0.49655037  0.09355879  0.90195658  1
  Nb  Nb106  1  0.49686874  0.70032250  0.49911926  1
  Nb  Nb107  1  0.29644078  0.50042978  0.90125448  1
  Nb  Nb108  1  0.69723107  0.50613543  0.89896053  1
  Nb  Nb109  1  0.10078812  0.70146172  0.29836040  1
  Nb  Nb110  1  0.10030014  0.30043216  0.09709150  1
  Nb  Nb111  1  0.90117257  0.10652393  0.29958022  1
  Nb  Nb112  1  0.09424710  0.90089906  0.89584017  1
  Nb  Nb113  1  0.50091435  0.90478237  0.90085116  1
  Nb  Nb114  1  0.49812456  0.49404755  0.90373518  1
  Nb  Nb115  1  0.10493732  0.50107001  0.49869066  1
  Nb  Nb116  1  0.70027860  0.69505889  0.89937675  1
  Nb  Nb117  1  0.09521424  0.49698956  0.09727338  1
  Nb  Nb118  1  0.89356875  0.49347323  0.69896927  1
  Nb  Nb119  1  0.30343273  0.49883625  0.30295888  1
  Nb  Nb120  1  0.49669225  0.09234621  0.49260458  1
  Nb  Nb121  1  0.50332746  0.89612779  0.30297529  1
  Nb  Nb122  1  0.70084259  0.29940959  0.49685419  1
  Nb  Nb123  1  0.49941288  0.70168343  0.30187346  1
  Nb  Nb124  1  0.09635048  0.89797284  0.70035547  1
  Nb  Nb125  1  0.19754229  0.00144419  0.60386031  1
  Nb  Nb126  1  0.00695795  0.79337279  0.39371354  1
  Nb  Nb127  1  0.60062614  0.19272805  0.40303579  1
  Nb  Nb128  1  0.39675333  0.60291536  0.40134911  1
  Nb  Nb129  1  -0.00204447  0.19740802  0.80588120  1
  Nb  Nb130  1  0.59830877  -0.00466772  -0.00328251  1
  Nb  Nb131  1  0.00347374  0.20243778  0.19734555  1
  Nb  Nb132  1  0.19553901  -0.00783050  0.79714837  1
  Nb  Nb133  1  0.79547830  0.20065228  0.39775661  1
  Nb  Nb134  1  0.00760736  0.00041625  0.60605978  1
  Nb  Nb135  1  0.19563214  0.80491839  0.80251356  1
  Nb  Nb136  1  0.00397283  0.00381664  0.79612427  1
  Nb  Nb137  1  0.60342274  0.80374094  -0.01186885  1
  Nb  Nb138  1  0.39849970  0.79522624  0.39671415  1
  Nb  Nb139  1  0.59650972  0.00027534  0.40019612  1
  Nb  Nb140  1  0.40436066  0.20335322  0.00234823  1
  Nb  Nb141  1  0.59840349  0.79943455  0.80153493  1
  Nb  Nb142  1  0.19929428  0.40095437  0.00800989  1
  Nb  Nb143  1  0.79824489  0.39840622  0.59927112  1
  Nb  Nb144  1  0.59271073  0.79924604  0.59927374  1
  Nb  Nb145  1  0.20926725  0.40989101  0.40005685  1
  Nb  Nb146  1  0.79959258  0.40286673  0.19934009  1
  Nb  Nb147  1  0.20108575  0.79280129  0.39529709  1
  Nb  Nb148  1  0.40112922  0.79753374  0.20885567  1
  Nb  Nb149  1  0.79454178  0.79573430  -0.00527624  1
  Pd  Pd150  1  0.79290039  0.79238028  0.79875473  1
  Pd  Pd151  1  0.59319376  0.19709231  0.59498528  1
  Pd  Pd152  1  0.60437156  0.39677590  0.60038483  1
  Pd  Pd153  1  0.59815588  -0.00211259  0.80077784  1
  Pd  Pd154  1  0.19660696  0.80326828  -0.01004526  1
  Pd  Pd155  1  0.39781725  0.40310312  0.79668971  1
  Pd  Pd156  1  0.19911259  0.80264897  0.60192856  1
  Pd  Pd157  1  0.19729113  0.40877688  0.20210148  1
  Pd  Pd158  1  0.00047989  0.79068111  0.00022580  1
  Pd  Pd159  1  -0.00321189  0.00846322  -0.00211591  1
  Pd  Pd160  1  0.40156838  0.40767511  0.19311866  1
  Pd  Pd161  1  0.59898394  -0.00479732  0.19857282  1
  Pd  Pd162  1  0.59608513  0.80204925  0.40878033  1
  Pd  Pd163  1  0.59193055  0.19097315  0.00239545  1
  Pd  Pd164  1  -0.00344611  0.39451758  0.19560694  1
  Pd  Pd165  1  0.19613783  0.20022211  0.21008556  1
  Pd  Pd166  1  0.80325243  -0.00381845  0.19529287  1
  Pd  Pd167  1  0.40664520  0.79703713  0.00531053  1
  Pd  Pd168  1  0.81166808  0.78920698  0.39360403  1
  Pd  Pd169  1  0.40600834  0.20095554  0.80794313  1
  Pd  Pd170  1  0.59413155  0.19981002  0.20513249  1
  Pd  Pd171  1  0.79250518  0.78911035  0.59962565  1
  Pd  Pd172  1  0.40943212  0.20156929  0.59945437  1
  Pd  Pd173  1  0.00097496  0.59555277  0.79372709  1
  Pd  Pd174  1  0.79735306  0.00876348  0.40394463  1
  Pd  Pd175  1  0.80322801  0.60581667  0.39359471  1
  Pd  Pd176  1  0.40363946  0.20379403  0.40139234  1
  Pd  Pd177  1  0.78684461  -0.01040111  0.01125186  1
  Pd  Pd178  1  0.60679676  0.40887008  0.19956229  1
  Pd  Pd179  1  0.20492816  0.20507494  0.59184582  1
  Pd  Pd180  1  0.81348262  -0.00268260  0.60077074  1
  Pd  Pd181  1  0.20359356  0.39318358  0.59135723  1
  Pd  Pd182  1  -0.00528639  0.59138132  0.60163067  1
  Pd  Pd183  1  0.80544524  0.19920958  0.80445517  1
  Pd  Pd184  1  0.40444672  0.79993281  0.59755075  1
  Pd  Pd185  1  0.39620361  0.00655478  0.60641779  1
  Pd  Pd186  1  0.39863287  0.80067274  0.80510599  1
  Pd  Pd187  1  0.19642875  -0.00671775  0.40315435  1
  Pd  Pd188  1  0.59143121  0.60347955  0.80711704  1
  Pd  Pd189  1  0.00403750  0.39690157  0.80503395  1
  Pd  Pd190  1  0.80091113  0.39845151  0.39833322  1
  Pd  Pd191  1  0.38704396  0.39704672  0.01158316  1
  Pd  Pd192  1  0.79707271  0.59196405  0.20524958  1
  Pd  Pd193  1  0.59457727  -0.00313574  0.59739706  1
  Pd  Pd194  1  0.20555183  0.60039245  0.40366520  1
  Pd  Pd195  1  -0.00171231  0.19879086  0.60562567  1
  Pd  Pd196  1  -0.01221966  0.19222857  0.00089282  1
  Pd  Pd197  1  -0.00425983  0.01158878  0.19377576  1
  Pd  Pd198  1  0.59121444  0.59590174  0.40176015  1
  Pd  Pd199  1  0.39993039  -0.00203577  0.20653477  1
  Rh  Rh200  1  0.19881855  0.39708775  0.80593342  1
  Rh  Rh201  1  0.19640590  0.59823988  0.60796277  1
  Rh  Rh202  1  0.58993493  0.80163558  0.19081293  1
  Rh  Rh203  1  0.41011986  0.59971410  0.20710000  1
  Rh  Rh204  1  0.60332164  0.40157677  0.80222477  1
  Rh  Rh205  1  0.40257225  -0.00598291  0.39086608  1
  Rh  Rh206  1  0.40691764  0.00866927  0.00630132  1
  Rh  Rh207  1  0.19140021  0.59344426  0.19253549  1
  Rh  Rh208  1  0.80030135  0.20063356  -0.00489215  1
  Rh  Rh209  1  0.21695540  0.21223578  0.00814811  1
  Rh  Rh210  1  0.40204215  0.59270008  0.59632388  1
  Rh  Rh211  1  0.80339778  0.58883101  0.59805771  1
  Rh  Rh212  1  0.59362137  0.20084670  0.79982568  1
  Rh  Rh213  1  -0.00387502  0.40533551  0.59539962  1
  Rh  Rh214  1  0.00243730  0.59880222  0.00090102  1
  Rh  Rh215  1  0.40417838  0.20119805  0.20170715  1
  Rh  Rh216  1  0.20874583  0.21643452  0.40000031  1
  Rh  Rh217  1  0.40087758  0.58692886  0.80601407  1
  Rh  Rh218  1  0.01667228  0.40689057  0.40050230  1
  Rh  Rh219  1  0.80013401  0.60245217  -0.00635691  1
  Rh  Rh220  1  0.79087925  0.40521195  0.79564487  1
  Rh  Rh221  1  0.39867307  0.40975171  0.40616678  1
  Rh  Rh222  1  -0.00335851  -0.01161748  0.40667658  1
  Rh  Rh223  1  0.59818230  0.59461743  0.20782129  1
  Rh  Rh224  1  0.81491405  0.21534223  0.20640986  1
  Rh  Rh225  1  0.59373543  0.39452718  0.40284398  1
  Rh  Rh226  1  0.19083887  0.60681049  0.79275484  1
  Rh  Rh227  1  0.00537595  0.79538872  0.79986427  1
  Rh  Rh228  1  0.59720360  0.60600967  0.59422743  1
  Rh  Rh229  1  0.40116618  0.40095724  0.60766763  1
  Rh  Rh230  1  0.00040703  0.60431964  0.39834626  1
  Rh  Rh231  1  0.20356793  -0.00911951  -0.00805058  1
  Rh  Rh232  1  0.79513561  0.40834036  0.00379778  1
  Rh  Rh233  1  0.80263056  0.59482919  0.79988556  1
  Rh  Rh234  1  0.00539664  0.40616287  -0.00413680  1
  Rh  Rh235  1  0.80602002  0.79739199  0.19454156  1
  Rh  Rh236  1  -0.00166059  0.79786619  0.20220985  1
  Rh  Rh237  1  0.19743696  0.20331190  0.80369385  1
  Rh  Rh238  1  -0.00313023  0.80282987  0.58979018  1
  Rh  Rh239  1  0.19897894  0.01035787  0.20405014  1
  Rh  Rh240  1  -0.00495244  0.20500843  0.39119439  1
  Rh  Rh241  1  0.00584548  0.60231478  0.19254516  1
  Rh  Rh242  1  0.20669047  0.80200333  0.20256439  1
  Rh  Rh243  1  0.59583107  0.60471591  -0.00955387  1
  Rh  Rh244  1  0.19657414  0.59105088  0.00798794  1
  Rh  Rh245  1  0.39337253  0.00242846  0.79777946  1
  Rh  Rh246  1  0.39862062  0.59340487  -0.00433159  1
  Rh  Rh247  1  0.80298476  0.20931089  0.59013946  1
  Rh  Rh248  1  0.60642077  0.40556974  -0.00537797  1
  Rh  Rh249  1  0.81267047  -0.00102763  0.78484379  1
