# generated using pymatgen
data_ZrScNbPdRh
_symmetry_space_group_name_H-M   'P 1'
_cell_length_a   16.55642248
_cell_length_b   16.55363030
_cell_length_c   16.55523467
_cell_angle_alpha   90.02148462
_cell_angle_beta   90.04416529
_cell_angle_gamma   90.02198150
_symmetry_Int_Tables_number   1
_chemical_formula_structural   ZrScNbPdRh
_chemical_formula_sum   'Zr50 Sc50 Nb50 Pd50 Rh50'
_cell_volume   4537.27290260
_cell_formula_units_Z   50
loop_
 _symmetry_equiv_pos_site_id
 _symmetry_equiv_pos_as_xyz
  1  'x, y, z'
loop_
 _atom_site_type_symbol
 _atom_site_label
 _atom_site_symmetry_multiplicity
 _atom_site_fract_x
 _atom_site_fract_y
 _atom_site_fract_z
 _atom_site_occupancy
  Zr  Zr0  1  0.10120759  0.90490830  0.29976887  1
  Zr  Zr1  1  0.50040654  0.69632269  0.50140219  1
  Zr  Zr2  1  0.10983061  0.50291599  0.10642238  1
  Zr  Zr3  1  0.89891121  0.10617744  0.89557460  1
  Zr  Zr4  1  0.30194569  0.49946188  0.89012324  1
  Zr  Zr5  1  0.89808578  0.70198777  0.48778031  1
  Zr  Zr6  1  0.50488247  0.49469912  0.50146967  1
  Zr  Zr7  1  0.09949243  0.90294490  0.09837208  1
  Zr  Zr8  1  0.29755435  0.48913564  0.28907190  1
  Zr  Zr9  1  0.49385762  0.49531043  0.29459964  1
  Zr  Zr10  1  0.30049458  0.48420345  0.49589445  1
  Zr  Zr11  1  0.10493789  0.09684916  0.10202671  1
  Zr  Zr12  1  0.69690474  0.90129326  0.89360406  1
  Zr  Zr13  1  0.09923155  0.90221836  0.90119380  1
  Zr  Zr14  1  0.30245301  0.28974124  0.50056590  1
  Zr  Zr15  1  0.49865456  0.29911514  0.28991527  1
  Zr  Zr16  1  0.30323631  0.10992098  0.70848128  1
  Zr  Zr17  1  0.89638914  0.90692196  0.69644033  1
  Zr  Zr18  1  0.29019723  0.90236587  0.10934538  1
  Zr  Zr19  1  0.49153321  0.90733528  0.30401255  1
  Zr  Zr20  1  0.09422375  0.90189581  0.70372489  1
  Zr  Zr21  1  0.69668551  0.69476437  0.89710803  1
  Zr  Zr22  1  0.49906618  0.70630800  0.29540225  1
  Zr  Zr23  1  0.50596736  0.69336246  0.69698912  1
  Zr  Zr24  1  0.10643696  0.29491454  0.10240028  1
  Zr  Zr25  1  0.10509995  0.29472615  0.49742796  1
  Zr  Zr26  1  0.69327253  0.30506206  0.89952564  1
  Zr  Zr27  1  0.90725448  0.11147305  0.69928040  1
  Zr  Zr28  1  0.89914394  0.29869899  0.31129492  1
  Zr  Zr29  1  0.70898607  0.29921628  0.69474755  1
  Zr  Zr30  1  0.70027000  0.70510668  0.70599130  1
  Zr  Zr31  1  0.50118228  0.09737278  0.70722591  1
  Zr  Zr32  1  0.90415670  0.09627225  0.30784320  1
  Zr  Zr33  1  0.89278297  0.69428326  0.89170141  1
  Zr  Zr34  1  0.70715021  0.89937121  0.50668898  1
  Zr  Zr35  1  0.70176185  0.50187991  0.90381493  1
  Zr  Zr36  1  0.69413172  0.70251940  0.09980663  1
  Zr  Zr37  1  0.50148411  0.69304431  0.10522553  1
  Zr  Zr38  1  0.10264443  0.70177987  0.10059403  1
  Zr  Zr39  1  0.68791494  0.09935154  0.29576704  1
  Zr  Zr40  1  0.30165307  0.89394510  0.49293045  1
  Zr  Zr41  1  0.30054388  0.69413954  0.70460638  1
  Zr  Zr42  1  0.10890279  0.69991308  0.50672321  1
  Zr  Zr43  1  0.70193609  0.89991527  0.09359618  1
  Zr  Zr44  1  0.89789006  0.09941180  0.09862117  1
  Zr  Zr45  1  0.89657037  0.70577697  0.09703610  1
  Zr  Zr46  1  0.90333877  0.90414752  0.48923749  1
  Zr  Zr47  1  0.70005219  0.30298074  0.30623241  1
  Zr  Zr48  1  0.10432328  0.30249461  0.89672780  1
  Zr  Zr49  1  0.09930115  0.70329959  0.89136145  1
  Sc  Sc50  1  0.49529703  0.10213525  0.89760773  1
  Sc  Sc51  1  0.10374848  0.50166410  0.89713799  1
  Sc  Sc52  1  0.50655871  0.90117950  0.70621824  1
  Sc  Sc53  1  0.50260586  0.89420028  0.09956725  1
  Sc  Sc54  1  0.88961171  0.30135590  0.89654761  1
  Sc  Sc55  1  0.29968704  0.70589998  0.50861960  1
  Sc  Sc56  1  0.90726955  0.89530413  0.89878460  1
  Sc  Sc57  1  0.09482429  0.10479917  0.29918990  1
  Sc  Sc58  1  0.10324025  0.50271063  0.69369876  1
  Sc  Sc59  1  0.69687905  0.49851111  0.69535925  1
  Sc  Sc60  1  0.69329338  0.49388047  0.31260774  1
  Sc  Sc61  1  0.29878231  0.30243932  0.70694039  1
  Sc  Sc62  1  0.89971072  0.90050199  0.09044103  1
  Sc  Sc63  1  0.50292530  0.89451666  0.50042965  1
  Sc  Sc64  1  0.70269230  0.09875039  0.90286925  1
  Sc  Sc65  1  0.68858343  0.30002529  0.09534116  1
  Sc  Sc66  1  0.89526559  0.29813104  0.50684613  1
  Sc  Sc67  1  0.69735451  0.69602144  0.50433405  1
  Sc  Sc68  1  0.30293612  0.71721256  0.29720223  1
  Sc  Sc69  1  0.30457316  0.89209017  0.70233196  1
  Sc  Sc70  1  0.10668661  0.29653798  0.29929911  1
  Sc  Sc71  1  0.09407140  0.69081650  0.29899332  1
  Sc  Sc72  1  0.51055935  0.50014729  0.89477548  1
  Sc  Sc73  1  0.70049965  0.10022717  0.50559967  1
  Sc  Sc74  1  0.09957081  0.29229833  0.69813079  1
  Sc  Sc75  1  0.70118101  0.09853907  0.69385835  1
  Sc  Sc76  1  0.30356086  0.49572129  0.69889482  1
  Sc  Sc77  1  0.50124184  0.69756477  0.89681010  1
  Sc  Sc78  1  0.70215696  0.30605588  0.50145825  1
  Sc  Sc79  1  0.49735202  0.30405086  0.69387322  1
  Sc  Sc80  1  0.29822310  0.29917780  0.30632393  1
  Sc  Sc81  1  0.90401693  0.10190516  0.50086803  1
  Sc  Sc82  1  0.30869434  0.89679784  0.89787539  1
  Sc  Sc83  1  0.30054096  0.29086267  0.10392643  1
  Sc  Sc84  1  0.29032441  0.10291541  0.10306381  1
  Sc  Sc85  1  0.89615665  0.69159722  0.70027275  1
  Sc  Sc86  1  0.69595942  0.09632131  0.09501247  1
  Sc  Sc87  1  0.30408248  0.70276360  0.10654705  1
  Sc  Sc88  1  0.89400862  0.50383762  0.50550973  1
  Sc  Sc89  1  0.10368864  0.49871389  0.50704253  1
  Sc  Sc90  1  0.49098901  0.10513792  0.49788368  1
  Sc  Sc91  1  0.49732508  0.50075396  0.69531451  1
  Sc  Sc92  1  0.69123041  0.89973170  0.30427799  1
  Sc  Sc93  1  0.50214123  0.90566997  0.89490654  1
  Sc  Sc94  1  0.70047303  0.70665818  0.30291443  1
  Sc  Sc95  1  0.90091774  0.30421618  0.09472108  1
  Sc  Sc96  1  0.10588823  0.10292223  0.90147813  1
  Sc  Sc97  1  0.90037838  0.49828114  0.08884716  1
  Sc  Sc98  1  0.30257292  0.28838794  0.89509722  1
  Sc  Sc99  1  0.69644493  0.89979401  0.69669547  1
  Nb  Nb100  1  0.30193575  0.69550081  0.90105771  1
  Nb  Nb101  1  0.49763346  0.29696261  0.09351352  1
  Nb  Nb102  1  0.89811215  0.89556241  0.30651547  1
  Nb  Nb103  1  0.30256284  0.09850206  0.90276751  1
  Nb  Nb104  1  0.49524201  0.49783499  0.10651975  1
  Nb  Nb105  1  0.30521425  0.49864227  0.10083952  1
  Nb  Nb106  1  0.10099085  0.49816408  0.29881470  1
  Nb  Nb107  1  0.90321696  0.50613334  0.30277212  1
  Nb  Nb108  1  0.49793597  0.10131701  0.29710425  1
  Nb  Nb109  1  0.89765936  0.69940143  0.30094006  1
  Nb  Nb110  1  0.31274178  0.08947208  0.30904943  1
  Nb  Nb111  1  0.10363961  0.10251197  0.50665434  1
  Nb  Nb112  1  0.89792357  0.49524857  0.70158573  1
  Nb  Nb113  1  0.30033018  0.90615561  0.30037324  1
  Nb  Nb114  1  0.10547201  0.70225360  0.69242520  1
  Nb  Nb115  1  0.49538474  0.11471550  0.10829771  1
  Nb  Nb116  1  0.29792087  0.10042883  0.50255711  1
  Nb  Nb117  1  0.69223901  0.50594562  0.09995105  1
  Nb  Nb118  1  0.89890866  0.29965265  0.70127936  1
  Nb  Nb119  1  0.49545837  0.30220541  0.49504767  1
  Nb  Nb120  1  0.90105395  0.50302242  0.89466076  1
  Nb  Nb121  1  0.69554382  0.49268953  0.50166612  1
  Nb  Nb122  1  0.09663825  0.10102220  0.70097923  1
  Nb  Nb123  1  0.50376105  0.29892905  0.91013009  1
  Nb  Nb124  1  0.10472592  0.90069161  0.50192842  1
  Nb  Nb125  1  0.79855106  0.20019448  0.20261810  1
  Nb  Nb126  1  0.59986707  0.20655757  0.80143785  1
  Nb  Nb127  1  0.21081875  0.40362673  0.00147539  1
  Nb  Nb128  1  0.39784865  0.00745614  0.00472654  1
  Nb  Nb129  1  0.20730229  0.59505433  0.39771538  1
  Nb  Nb130  1  0.00428513  0.79968853  0.59565273  1
  Nb  Nb131  1  0.20094923  0.00407727  0.79556383  1
  Nb  Nb132  1  -0.00066379  0.60145533  -0.00611537  1
  Nb  Nb133  1  -0.00805337  0.40317147  0.79518849  1
  Nb  Nb134  1  0.80236273  -0.00083636  0.20465581  1
  Nb  Nb135  1  0.39203215  0.00283233  0.59994375  1
  Nb  Nb136  1  0.00074763  0.40526223  0.39636602  1
  Nb  Nb137  1  0.00226062  0.20221093  -0.00001119  1
  Nb  Nb138  1  0.80205733  0.59451414  0.20343848  1
  Nb  Nb139  1  0.80213404  0.40469413  0.20226244  1
  Nb  Nb140  1  0.40327789  0.39996668  0.00328924  1
  Nb  Nb141  1  0.80532532  0.00226911  0.79834998  1
  Nb  Nb142  1  0.39797228  0.59226465  0.00235406  1
  Nb  Nb143  1  -0.00942543  0.80012906  0.20701340  1
  Nb  Nb144  1  0.20314852  0.79631339  -0.00501165  1
  Nb  Nb145  1  -0.00242552  0.40612850  0.20630208  1
  Nb  Nb146  1  0.59227694  0.20216200  0.39690343  1
  Nb  Nb147  1  0.20332334  0.00206757  0.40655213  1
  Nb  Nb148  1  0.20099750  0.00474265  0.60101803  1
  Nb  Nb149  1  0.39537771  0.59752925  0.39659017  1
  Pd  Pd150  1  0.40916656  0.39469519  0.80645166  1
  Pd  Pd151  1  0.59639652  0.20517897  0.59696365  1
  Pd  Pd152  1  0.40820380  0.79369752  0.79827361  1
  Pd  Pd153  1  0.00919452  0.59354425  0.40880718  1
  Pd  Pd154  1  0.40732835  0.80595989  0.60575396  1
  Pd  Pd155  1  0.80058906  0.80371373  0.20530829  1
  Pd  Pd156  1  0.39620705  0.79872687  0.00262040  1
  Pd  Pd157  1  -0.00901738  -0.00810600  0.20086891  1
  Pd  Pd158  1  0.79074931  0.59615160  0.39645799  1
  Pd  Pd159  1  0.59359220  0.79758646  -0.00660609  1
  Pd  Pd160  1  0.80214829  0.59918217  0.00542339  1
  Pd  Pd161  1  -0.00707055  0.79324310  0.78759289  1
  Pd  Pd162  1  0.60953863  0.59770906  0.21080887  1
  Pd  Pd163  1  0.59527676  0.60061374  0.39551058  1
  Pd  Pd164  1  0.20284349  0.18988372  0.39250081  1
  Pd  Pd165  1  0.40276086  0.00036255  0.18864945  1
  Pd  Pd166  1  -0.00155308  0.00972538  -0.00614863  1
  Pd  Pd167  1  0.39032156  0.20045383  0.20642921  1
  Pd  Pd168  1  0.00680228  0.59525301  0.79651630  1
  Pd  Pd169  1  0.40217437  0.19991427  0.60495375  1
  Pd  Pd170  1  0.00879329  0.40296046  -0.00418461  1
  Pd  Pd171  1  0.60236812  0.79997199  0.40479085  1
  Pd  Pd172  1  0.79417587  0.59841015  0.60173608  1
  Pd  Pd173  1  -0.00926442  0.59926613  0.18987225  1
  Pd  Pd174  1  0.01079911  0.79646596  0.39914042  1
  Pd  Pd175  1  0.39320113  0.59366250  0.59171709  1
  Pd  Pd176  1  0.79492041  0.40028630  0.00543318  1
  Pd  Pd177  1  0.58644102  0.00764665  0.00276153  1
  Pd  Pd178  1  0.21112124  0.60937233  0.20973389  1
  Pd  Pd179  1  0.20402321  0.60155383  -0.00122286  1
  Pd  Pd180  1  0.00215688  -0.00103072  0.59246612  1
  Pd  Pd181  1  0.60575768  0.39885525  0.19463614  1
  Pd  Pd182  1  0.59934579  0.18970236  -0.00502340  1
  Pd  Pd183  1  0.59391707  0.00689045  0.41169477  1
  Pd  Pd184  1  0.19495702  0.79568884  0.39182210  1
  Pd  Pd185  1  0.79802225  0.80202540  -0.01147442  1
  Pd  Pd186  1  0.58969017  -0.00040455  0.59535909  1
  Pd  Pd187  1  0.59637713  0.39632084  0.79112851  1
  Pd  Pd188  1  0.20483179  0.80506002  0.80203948  1
  Pd  Pd189  1  0.59985046  -0.00462147  0.19133125  1
  Pd  Pd190  1  0.20108271  0.39162213  0.60663184  1
  Pd  Pd191  1  0.78959903  0.19221186  0.40215459  1
  Pd  Pd192  1  0.19733837  0.59627818  0.79262966  1
  Pd  Pd193  1  -0.00708197  0.20858425  0.19487607  1
  Pd  Pd194  1  0.79242376  0.00332191  0.39660762  1
  Pd  Pd195  1  0.80848821  0.79551042  0.59848471  1
  Pd  Pd196  1  -0.00202976  0.39484526  0.59938320  1
  Pd  Pd197  1  0.79995897  0.20724773  0.00607314  1
  Pd  Pd198  1  -0.00270449  0.60517709  0.59979850  1
  Pd  Pd199  1  0.79959569  0.40422765  0.79933303  1
  Rh  Rh200  1  0.80481404  0.00624702  0.60330582  1
  Rh  Rh201  1  0.20224001  0.00980722  0.21650707  1
  Rh  Rh202  1  0.19882842  0.39280186  0.19526857  1
  Rh  Rh203  1  0.00396782  0.20363069  0.40824827  1
  Rh  Rh204  1  0.40137829  -0.00149101  0.41032046  1
  Rh  Rh205  1  0.40381104  0.60037445  0.80437914  1
  Rh  Rh206  1  0.80324696  0.19854732  0.59869779  1
  Rh  Rh207  1  0.00100065  0.00858385  0.80712989  1
  Rh  Rh208  1  0.80878584  0.40996603  0.40342545  1
  Rh  Rh209  1  0.60630718  0.59695619  0.60049627  1
  Rh  Rh210  1  0.39576962  0.60486320  0.20319683  1
  Rh  Rh211  1  0.40384869  0.81051916  0.19867773  1
  Rh  Rh212  1  0.19017275  0.40384781  0.39950475  1
  Rh  Rh213  1  0.59940576  0.79888325  0.60010443  1
  Rh  Rh214  1  0.80184793  0.40440586  0.59821505  1
  Rh  Rh215  1  0.00686725  0.79190820  0.00425929  1
  Rh  Rh216  1  0.60212295  0.59691446  0.79435593  1
  Rh  Rh217  1  0.39602187  0.38759924  0.19215421  1
  Rh  Rh218  1  0.39864450  0.39351865  0.59867503  1
  Rh  Rh219  1  0.19571073  0.19361782  0.79904420  1
  Rh  Rh220  1  0.79244593  0.79961443  0.40151596  1
  Rh  Rh221  1  0.19195147  0.40212505  0.79923816  1
  Rh  Rh222  1  0.40407123  0.39913554  0.39745718  1
  Rh  Rh223  1  0.59241934  0.39181410  0.40415544  1
  Rh  Rh224  1  0.19880057  0.20645979  -0.00327167  1
  Rh  Rh225  1  0.19717723  0.80802288  0.61052664  1
  Rh  Rh226  1  0.20045611  0.19990058  0.60609550  1
  Rh  Rh227  1  0.59977918  0.39707776  0.59801704  1
  Rh  Rh228  1  0.41209592  0.20747969  0.80348501  1
  Rh  Rh229  1  0.00135443  0.20577503  0.59630126  1
  Rh  Rh230  1  0.21178061  -0.00976934  -0.01216007  1
  Rh  Rh231  1  0.40330876  0.79475522  0.39938933  1
  Rh  Rh232  1  0.19049244  0.79976973  0.20105670  1
  Rh  Rh233  1  0.80265460  0.80974050  0.80024487  1
  Rh  Rh234  1  0.78914964  0.19385730  0.79472170  1
  Rh  Rh235  1  0.79291806  0.59057016  0.79380001  1
  Rh  Rh236  1  0.59702212  0.79877305  0.80115989  1
  Rh  Rh237  1  0.00223668  0.21041537  0.80675387  1
  Rh  Rh238  1  0.20711688  0.19173131  0.21105181  1
  Rh  Rh239  1  0.61208034  0.01067125  0.79943222  1
  Rh  Rh240  1  0.39886982  0.19607681  0.00036083  1
  Rh  Rh241  1  0.39191101  -0.00020228  0.80107267  1
  Rh  Rh242  1  0.21033233  0.59681374  0.59641719  1
  Rh  Rh243  1  0.59382313  0.41039310  0.00729877  1
  Rh  Rh244  1  0.59928393  0.80636946  0.20162614  1
  Rh  Rh245  1  0.59035302  0.59607107  0.00216935  1
  Rh  Rh246  1  0.60329023  0.20376333  0.19978913  1
  Rh  Rh247  1  0.40541173  0.20232989  0.39566691  1
  Rh  Rh248  1  0.80161292  -0.00789613  -0.00487620  1
  Rh  Rh249  1  0.01149626  0.00477382  0.40491980  1
