# generated using pymatgen
data_ZrScNbPdRh
_symmetry_space_group_name_H-M   'P 1'
_cell_length_a   16.55438603
_cell_length_b   16.55444671
_cell_length_c   16.55046788
_cell_angle_alpha   90.00776018
_cell_angle_beta   90.01803197
_cell_angle_gamma   90.01875027
_symmetry_Int_Tables_number   1
_chemical_formula_structural   ZrScNbPdRh
_chemical_formula_sum   'Zr50 Sc50 Nb50 Pd50 Rh50'
_cell_volume   4535.63372184
_cell_formula_units_Z   50
loop_
 _symmetry_equiv_pos_site_id
 _symmetry_equiv_pos_as_xyz
  1  'x, y, z'
loop_
 _atom_site_type_symbol
 _atom_site_label
 _atom_site_symmetry_multiplicity
 _atom_site_fract_x
 _atom_site_fract_y
 _atom_site_fract_z
 _atom_site_occupancy
  Zr  Zr0  1  0.49717852  0.30203943  0.70351791  1
  Zr  Zr1  1  0.89879548  0.49656333  0.29747808  1
  Zr  Zr2  1  0.29133561  0.30094058  0.29984621  1
  Zr  Zr3  1  0.30402603  0.09309825  0.30501986  1
  Zr  Zr4  1  0.68525576  0.69804873  0.90676095  1
  Zr  Zr5  1  0.10062044  0.69527153  0.70205135  1
  Zr  Zr6  1  0.50066687  0.48770542  0.30092244  1
  Zr  Zr7  1  0.10221098  0.89270295  0.08514228  1
  Zr  Zr8  1  0.30381654  0.29998828  0.09238150  1
  Zr  Zr9  1  0.50477022  0.09529716  0.89535305  1
  Zr  Zr10  1  0.09425350  0.09468257  0.88333576  1
  Zr  Zr11  1  0.90008741  0.10118317  0.49424905  1
  Zr  Zr12  1  0.50732859  0.09010605  0.09984837  1
  Zr  Zr13  1  0.49375727  0.50435553  0.10555155  1
  Zr  Zr14  1  0.30367907  0.89867473  0.90820594  1
  Zr  Zr15  1  0.10250733  0.48864440  0.29462907  1
  Zr  Zr16  1  0.90210096  0.30727764  0.10051229  1
  Zr  Zr17  1  0.30385831  0.50009516  0.69552453  1
  Zr  Zr18  1  0.70011131  0.70310648  0.11343346  1
  Zr  Zr19  1  0.89947729  0.30164018  0.49950748  1
  Zr  Zr20  1  0.10083424  0.90978530  0.70875162  1
  Zr  Zr21  1  0.09339177  0.29899975  0.49443275  1
  Zr  Zr22  1  0.30562725  0.69825052  0.49839059  1
  Zr  Zr23  1  0.30753920  0.50077856  0.50304468  1
  Zr  Zr24  1  0.50438098  0.70156945  0.50368032  1
  Zr  Zr25  1  0.30798163  0.50625779  0.30036483  1
  Zr  Zr26  1  0.69786488  0.10323801  0.49755076  1
  Zr  Zr27  1  0.09910880  0.49584657  0.50473604  1
  Zr  Zr28  1  0.10400071  0.10793360  0.50625778  1
  Zr  Zr29  1  0.09731722  0.70013195  0.90428885  1
  Zr  Zr30  1  0.70328537  0.29789929  0.10440175  1
  Zr  Zr31  1  0.70729740  0.09396956  0.09644394  1
  Zr  Zr32  1  0.29844731  0.51428995  0.09843833  1
  Zr  Zr33  1  0.68998186  0.90127980  0.09824616  1
  Zr  Zr34  1  0.30490799  0.89119388  0.30243386  1
  Zr  Zr35  1  0.49812821  0.30698106  0.10042972  1
  Zr  Zr36  1  0.90016550  0.30251813  0.29954911  1
  Zr  Zr37  1  0.30665532  0.30259500  0.70980344  1
  Zr  Zr38  1  0.69463335  0.31109782  0.69587275  1
  Zr  Zr39  1  0.89191546  0.89730784  0.69889422  1
  Zr  Zr40  1  0.89435792  0.69044462  0.28832464  1
  Zr  Zr41  1  0.50105420  0.10200026  0.30805906  1
  Zr  Zr42  1  0.10055079  0.30195879  0.11109287  1
  Zr  Zr43  1  0.69571912  0.50087073  0.50369932  1
  Zr  Zr44  1  0.10477860  0.28534073  0.70580323  1
  Zr  Zr45  1  0.70142799  0.50745963  0.30614545  1
  Zr  Zr46  1  0.90211831  0.49859108  0.69311897  1
  Zr  Zr47  1  0.09093389  0.09397097  0.10554793  1
  Zr  Zr48  1  0.90180530  0.90263932  0.49449271  1
  Zr  Zr49  1  0.49687240  0.90218679  0.29629932  1
  Sc  Sc50  1  0.31011301  0.09644189  0.89719785  1
  Sc  Sc51  1  0.69147762  0.09389651  0.70217942  1
  Sc  Sc52  1  0.90062064  0.69245616  0.50707588  1
  Sc  Sc53  1  0.91164166  0.90237805  0.89787419  1
  Sc  Sc54  1  0.50012593  0.70351600  0.70526558  1
  Sc  Sc55  1  0.91066068  0.69520634  0.89957463  1
  Sc  Sc56  1  0.50041171  0.51946140  0.90358314  1
  Sc  Sc57  1  0.30322892  0.09446873  0.50546623  1
  Sc  Sc58  1  0.10235542  0.10842226  0.30249024  1
  Sc  Sc59  1  0.09717834  0.89967848  0.30362666  1
  Sc  Sc60  1  0.69885747  0.31039027  0.30444718  1
  Sc  Sc61  1  0.29732595  0.10216650  0.69313953  1
  Sc  Sc62  1  0.29749066  0.91212664  0.69797686  1
  Sc  Sc63  1  0.49942082  0.70119510  0.09706101  1
  Sc  Sc64  1  0.49797878  0.70729277  0.30578268  1
  Sc  Sc65  1  0.10511311  0.50471241  0.69924961  1
  Sc  Sc66  1  0.10232539  0.70367078  0.29673520  1
  Sc  Sc67  1  0.49414239  0.10738389  0.50282577  1
  Sc  Sc68  1  0.69220275  0.90021429  0.69958792  1
  Sc  Sc69  1  0.30461401  0.09245609  0.09241545  1
  Sc  Sc70  1  0.49740701  0.89421437  0.09852960  1
  Sc  Sc71  1  0.29890986  0.69475426  0.70060599  1
  Sc  Sc72  1  0.49234563  0.09733624  0.69856222  1
  Sc  Sc73  1  0.89943471  0.30550533  0.69537417  1
  Sc  Sc74  1  0.68974823  0.90589594  0.89715469  1
  Sc  Sc75  1  0.90098964  0.49261328  0.50528122  1
  Sc  Sc76  1  0.10689411  0.70079350  0.50559176  1
  Sc  Sc77  1  0.69692409  0.89394016  0.29003642  1
  Sc  Sc78  1  0.69644997  0.30177408  0.50176287  1
  Sc  Sc79  1  0.10052801  0.50670285  0.89904928  1
  Sc  Sc80  1  0.49950019  0.90180302  0.49759610  1
  Sc  Sc81  1  0.68756195  0.50530750  0.10899869  1
  Sc  Sc82  1  0.50285453  0.30173646  0.49624781  1
  Sc  Sc83  1  0.49434274  0.50071503  0.49710061  1
  Sc  Sc84  1  0.49443265  0.71099950  0.89966441  1
  Sc  Sc85  1  0.29802584  0.50703845  0.89616047  1
  Sc  Sc86  1  0.91255287  0.30698940  0.89126336  1
  Sc  Sc87  1  0.69084955  0.70387019  0.68788304  1
  Sc  Sc88  1  0.49782844  0.89510856  0.89795451  1
  Sc  Sc89  1  0.90290552  0.10084834  0.70563324  1
  Sc  Sc90  1  0.69057736  0.30881101  0.88609917  1
  Sc  Sc91  1  0.90325401  0.91433794  0.09952032  1
  Sc  Sc92  1  0.91082399  0.49661642  0.89684074  1
  Sc  Sc93  1  0.90582904  0.08757257  0.29036375  1
  Sc  Sc94  1  0.90208635  0.69230712  0.69939995  1
  Sc  Sc95  1  0.70253246  0.89957235  0.50951223  1
  Sc  Sc96  1  0.30214429  0.30146022  0.50960268  1
  Sc  Sc97  1  0.70652751  0.10043091  0.29158569  1
  Sc  Sc98  1  0.30579926  0.69720367  0.90255230  1
  Sc  Sc99  1  0.11031120  0.89747060  0.49642622  1
  Nb  Nb100  1  0.10295104  0.89746801  0.89715465  1
  Nb  Nb101  1  0.69585020  0.49446690  0.70781461  1
  Nb  Nb102  1  0.30434256  0.69876896  0.29545402  1
  Nb  Nb103  1  0.69972791  0.10138331  0.90005172  1
  Nb  Nb104  1  0.69730111  0.69946282  0.49083449  1
  Nb  Nb105  1  0.50115900  0.29770107  0.30215443  1
  Nb  Nb106  1  0.49898670  0.89290646  0.70052224  1
  Nb  Nb107  1  0.29689349  0.70525928  0.10927903  1
  Nb  Nb108  1  0.70409830  0.69961633  0.30374965  1
  Nb  Nb109  1  0.50039312  0.49764307  0.69252827  1
  Nb  Nb110  1  0.30050492  0.30006309  0.90166979  1
  Nb  Nb111  1  0.69828453  0.50248964  0.90313033  1
  Nb  Nb112  1  0.90951492  0.50689575  0.10144588  1
  Nb  Nb113  1  0.09413614  0.50279454  0.09508782  1
  Nb  Nb114  1  0.09827694  0.29969849  0.30389238  1
  Nb  Nb115  1  0.89500651  0.10402968  0.90139575  1
  Nb  Nb116  1  0.30468975  0.90064197  0.49941940  1
  Nb  Nb117  1  0.90309255  0.69539309  0.09715619  1
  Nb  Nb118  1  0.48826526  0.29545287  0.90200529  1
  Nb  Nb119  1  0.29963818  0.89481495  0.10132606  1
  Nb  Nb120  1  0.10468541  0.09446309  0.69751142  1
  Nb  Nb121  1  0.10327949  0.29768559  0.90285640  1
  Nb  Nb122  1  0.89390648  0.10691950  0.09494533  1
  Nb  Nb123  1  0.90814819  0.89076557  0.30412001  1
  Nb  Nb124  1  0.09389443  0.69114332  0.09465362  1
  Nb  Nb125  1  0.59704786  0.39933265  -0.00360680  1
  Nb  Nb126  1  0.19765666  0.80440960  0.80560024  1
  Nb  Nb127  1  0.60232773  0.00280516  0.39862513  1
  Nb  Nb128  1  0.79560947  0.19961418  0.80558890  1
  Nb  Nb129  1  -0.00073037  0.19819375  -0.00200988  1
  Nb  Nb130  1  0.80043567  0.59793214  0.00119072  1
  Nb  Nb131  1  0.19842698  0.39667129  -0.00192666  1
  Nb  Nb132  1  0.79581266  0.79131229  0.80709314  1
  Nb  Nb133  1  0.39773711  0.80488707  0.60007828  1
  Nb  Nb134  1  0.00397066  -0.00086127  0.60113039  1
  Nb  Nb135  1  0.80386717  0.19820497  0.39843190  1
  Nb  Nb136  1  0.79064704  0.59640638  0.80347860  1
  Nb  Nb137  1  0.79540465  0.40648346  -0.00208007  1
  Nb  Nb138  1  0.00081137  0.80759651  0.60211692  1
  Nb  Nb139  1  0.19457903  0.20206008  -0.00511176  1
  Nb  Nb140  1  0.80290021  0.79561097  -0.00012007  1
  Nb  Nb141  1  0.00607957  0.59494076  0.39716300  1
  Nb  Nb142  1  -0.00352905  0.79608005  0.19148367  1
  Nb  Nb143  1  0.59530965  0.20246103  0.19868934  1
  Nb  Nb144  1  0.40425774  0.20096675  0.20241847  1
  Nb  Nb145  1  0.60236254  0.20406628  -0.00349333  1
  Nb  Nb146  1  0.20272526  0.59796072  0.39630322  1
  Nb  Nb147  1  0.79902035  0.79332532  0.39694289  1
  Nb  Nb148  1  0.20330648  -0.00867813  0.19590581  1
  Nb  Nb149  1  0.80060881  0.20532902  -0.00876664  1
  Pd  Pd150  1  0.60034899  0.19871770  0.79872728  1
  Pd  Pd151  1  0.19309194  0.60157818  0.20344526  1
  Pd  Pd152  1  0.59060255  0.60806808  0.21133863  1
  Pd  Pd153  1  -0.00557954  0.78437100  0.40244176  1
  Pd  Pd154  1  0.40310083  0.19134296  0.00265363  1
  Pd  Pd155  1  0.60759667  0.81046834  0.40204768  1
  Pd  Pd156  1  0.20491380  0.79265394  0.39763118  1
  Pd  Pd157  1  0.80882063  0.80937229  0.19698384  1
  Pd  Pd158  1  0.21060849  0.19142762  0.80510427  1
  Pd  Pd159  1  0.40670757  0.41115225  0.80951167  1
  Pd  Pd160  1  0.80333084  -0.01016475  0.20352281  1
  Pd  Pd161  1  0.01319471  0.40286909  0.79138687  1
  Pd  Pd162  1  0.80082319  -0.00754063  -0.00878540  1
  Pd  Pd163  1  0.59047829  0.59819901  0.39578921  1
  Pd  Pd164  1  0.19047036  0.80356865  0.19949299  1
  Pd  Pd165  1  0.39979437  0.41413376  -0.01023878  1
  Pd  Pd166  1  0.20608968  0.40295648  0.40524286  1
  Pd  Pd167  1  -0.00310316  0.19665699  0.60760863  1
  Pd  Pd168  1  0.19665179  0.39280939  0.60463587  1
  Pd  Pd169  1  0.20612038  0.78815098  -0.00359208  1
  Pd  Pd170  1  0.39565145  0.00037995  0.19542409  1
  Pd  Pd171  1  0.59742678  0.59697441  0.60344416  1
  Pd  Pd172  1  0.19820230  0.00820959  -0.00181557  1
  Pd  Pd173  1  0.59528422  0.20008341  0.60533249  1
  Pd  Pd174  1  0.80934135  0.60046009  0.40794767  1
  Pd  Pd175  1  0.39094040  0.20656760  0.40158124  1
  Pd  Pd176  1  0.79680541  0.19691993  0.60497962  1
  Pd  Pd177  1  0.79191148  0.59814333  0.60654999  1
  Pd  Pd178  1  0.40302502  0.60124625  0.79462938  1
  Pd  Pd179  1  0.80369548  0.00872264  0.60523102  1
  Pd  Pd180  1  0.58269332  0.40897374  0.80916173  1
  Pd  Pd181  1  0.19628571  0.40525897  0.80543322  1
  Pd  Pd182  1  0.20757239  0.20063937  0.40870673  1
  Pd  Pd183  1  0.80249379  0.79303567  0.59807924  1
  Pd  Pd184  1  -0.00078532  0.00544105  -0.00568598  1
  Pd  Pd185  1  -0.00682769  0.19926671  0.20129123  1
  Pd  Pd186  1  0.80431941  0.40149635  0.80483720  1
  Pd  Pd187  1  0.01135384  0.00627300  0.40272234  1
  Pd  Pd188  1  0.79532165  0.41041761  0.19351570  1
  Pd  Pd189  1  0.39961000  -0.00325039  0.79608192  1
  Pd  Pd190  1  0.79155017  -0.00650621  0.38914501  1
  Pd  Pd191  1  0.19729397  0.00015913  0.39745896  1
  Pd  Pd192  1  -0.00194817  0.79799977  0.79459055  1
  Pd  Pd193  1  0.39144782  0.39575544  0.20289296  1
  Pd  Pd194  1  0.79890264  -0.00251669  0.80378290  1
  Pd  Pd195  1  0.20331633  0.80547421  0.61032467  1
  Pd  Pd196  1  0.59132969  0.00045272  0.59426077  1
  Pd  Pd197  1  0.20999839  0.18681204  0.19270471  1
  Pd  Pd198  1  0.20723209  0.40618936  0.19136350  1
  Pd  Pd199  1  0.59919353  0.60255794  0.79341409  1
  Rh  Rh200  1  0.40679832  -0.00179062  0.40810595  1
  Rh  Rh201  1  0.40211535  0.60381245  0.39631571  1
  Rh  Rh202  1  0.60227805  0.39662801  0.20076902  1
  Rh  Rh203  1  -0.00850415  0.00121873  0.79564216  1
  Rh  Rh204  1  0.59457105  -0.00165369  -0.00663815  1
  Rh  Rh205  1  0.00923834  0.60286684  0.20501016  1
  Rh  Rh206  1  0.39824588  0.79899707  0.40625060  1
  Rh  Rh207  1  0.00956103  0.39185566  0.60745240  1
  Rh  Rh208  1  0.00707970  0.60566971  0.59364819  1
  Rh  Rh209  1  0.61394693  0.19595584  0.39036511  1
  Rh  Rh210  1  -0.00449051  0.59402619  0.79610707  1
  Rh  Rh211  1  0.39666046  0.60898509  0.00414037  1
  Rh  Rh212  1  0.39785135  0.19693459  0.79868113  1
  Rh  Rh213  1  -0.00792740  0.80160418  0.00470650  1
  Rh  Rh214  1  0.80124176  0.20063784  0.20453514  1
  Rh  Rh215  1  -0.00296116  0.59475696  -0.00485055  1
  Rh  Rh216  1  0.00515880  0.39868444  0.00303937  1
  Rh  Rh217  1  -0.00155451  0.40369546  0.39832390  1
  Rh  Rh218  1  0.20317388  0.59616650  0.59403872  1
  Rh  Rh219  1  0.40293345  -0.00704121  0.59909569  1
  Rh  Rh220  1  0.40258304  0.79525896  0.19661222  1
  Rh  Rh221  1  0.79383516  0.40382538  0.59758374  1
  Rh  Rh222  1  0.59994239  0.40277684  0.40396346  1
  Rh  Rh223  1  0.59432191  0.40508309  0.59631167  1
  Rh  Rh224  1  0.40667178  0.60962644  0.20278892  1
  Rh  Rh225  1  0.40624341  -0.00802808  0.00163273  1
  Rh  Rh226  1  0.60185324  0.80212074  0.00288140  1
  Rh  Rh227  1  -0.00735888  0.19739514  0.39022737  1
  Rh  Rh228  1  0.20090035  0.60803061  0.80303295  1
  Rh  Rh229  1  0.40738649  0.39788034  0.59953722  1
  Rh  Rh230  1  0.00044547  0.40078856  0.20077318  1
  Rh  Rh231  1  0.79701247  0.59156544  0.19147561  1
  Rh  Rh232  1  -0.00619536  0.19988752  0.79937129  1
  Rh  Rh233  1  0.20941406  -0.00169346  0.80783618  1
  Rh  Rh234  1  0.38787843  0.80581953  0.78953374  1
  Rh  Rh235  1  0.20449692  0.20378144  0.60122233  1
  Rh  Rh236  1  0.79697043  0.39584322  0.40758607  1
  Rh  Rh237  1  0.39642215  0.79646056  0.00788464  1
  Rh  Rh238  1  0.59364848  0.79482693  0.20236833  1
  Rh  Rh239  1  0.20001473  0.60123922  0.00118106  1
  Rh  Rh240  1  0.19542126  -0.00039131  0.59264170  1
  Rh  Rh241  1  0.59372443  -0.00359052  0.79560558  1
  Rh  Rh242  1  0.39712029  0.39315123  0.40030740  1
  Rh  Rh243  1  0.59972892  0.59814468  0.00892069  1
  Rh  Rh244  1  0.59356128  0.80318199  0.59663434  1
  Rh  Rh245  1  0.40066690  0.20592097  0.60498277  1
  Rh  Rh246  1  0.60498439  0.80126174  0.79877481  1
  Rh  Rh247  1  0.00848074  -0.01104110  0.20336863  1
  Rh  Rh248  1  0.60034464  0.00374296  0.20838937  1
  Rh  Rh249  1  0.40711499  0.60758205  0.60643954  1
