# generated using pymatgen
data_ZrScNbPdRh
_symmetry_space_group_name_H-M   'P 1'
_cell_length_a   16.54836514
_cell_length_b   16.54891434
_cell_length_c   16.54812315
_cell_angle_alpha   90.01362331
_cell_angle_beta   90.01809962
_cell_angle_gamma   90.00122104
_symmetry_Int_Tables_number   1
_chemical_formula_structural   ZrScNbPdRh
_chemical_formula_sum   'Zr50 Sc50 Nb50 Pd50 Rh50'
_cell_volume   4531.82690194
_cell_formula_units_Z   50
loop_
 _symmetry_equiv_pos_site_id
 _symmetry_equiv_pos_as_xyz
  1  'x, y, z'
loop_
 _atom_site_type_symbol
 _atom_site_label
 _atom_site_symmetry_multiplicity
 _atom_site_fract_x
 _atom_site_fract_y
 _atom_site_fract_z
 _atom_site_occupancy
  Zr  Zr0  1  0.70976982  0.68995735  0.89740586  1
  Zr  Zr1  1  0.10325902  0.50331124  0.30421274  1
  Zr  Zr2  1  0.69591880  0.50530247  0.09615457  1
  Zr  Zr3  1  0.50464937  0.09599247  0.90198310  1
  Zr  Zr4  1  0.29521027  0.89584254  0.09454324  1
  Zr  Zr5  1  0.70092444  0.70397894  0.49853724  1
  Zr  Zr6  1  0.90466487  0.09897864  0.09321002  1
  Zr  Zr7  1  0.70136959  0.49738872  0.29429255  1
  Zr  Zr8  1  0.70031875  0.10669517  0.30154648  1
  Zr  Zr9  1  0.10667860  0.09240570  0.70095627  1
  Zr  Zr10  1  0.11044445  0.89699826  0.89714902  1
  Zr  Zr11  1  0.49046126  0.70264979  0.88756398  1
  Zr  Zr12  1  0.10348607  0.10220925  0.49581951  1
  Zr  Zr13  1  0.69800243  0.90357964  0.50112917  1
  Zr  Zr14  1  0.49421518  0.89400059  0.09541625  1
  Zr  Zr15  1  0.09965314  0.30517341  0.69931627  1
  Zr  Zr16  1  0.49561460  0.49952839  0.49403433  1
  Zr  Zr17  1  0.90734219  0.89603595  0.70160084  1
  Zr  Zr18  1  0.49998440  0.30311355  0.49889662  1
  Zr  Zr19  1  0.89399535  0.89986926  0.30211375  1
  Zr  Zr20  1  0.29241277  0.90261745  0.70976372  1
  Zr  Zr21  1  0.88830062  0.29954149  0.29403306  1
  Zr  Zr22  1  0.89550837  0.70426236  0.90720484  1
  Zr  Zr23  1  0.51597124  0.89750917  0.70248773  1
  Zr  Zr24  1  0.89543873  0.89678247  0.10023002  1
  Zr  Zr25  1  0.69523315  0.10583033  0.10016302  1
  Zr  Zr26  1  0.90997334  0.29254781  0.89048355  1
  Zr  Zr27  1  0.10603531  0.70021865  0.49149543  1
  Zr  Zr28  1  0.29745381  0.29739467  0.50669607  1
  Zr  Zr29  1  0.70707720  0.30110960  0.11329635  1
  Zr  Zr30  1  0.89250103  0.69634357  0.49988749  1
  Zr  Zr31  1  0.49937415  0.88981170  0.30155386  1
  Zr  Zr32  1  0.89616847  0.50731682  0.89871516  1
  Zr  Zr33  1  0.29816804  0.10242431  0.50412374  1
  Zr  Zr34  1  0.09641478  0.89794210  0.70122993  1
  Zr  Zr35  1  0.10423529  0.30721538  0.49840699  1
  Zr  Zr36  1  0.30201656  0.89509922  0.30678510  1
  Zr  Zr37  1  0.30038600  0.30296732  0.88619685  1
  Zr  Zr38  1  0.10581573  0.10802416  0.29942049  1
  Zr  Zr39  1  0.09597243  0.49571746  0.69547887  1
  Zr  Zr40  1  0.70448888  0.29860718  0.69573481  1
  Zr  Zr41  1  0.89289401  0.70082732  0.71057223  1
  Zr  Zr42  1  0.09811407  0.27319877  0.10100610  1
  Zr  Zr43  1  0.29172054  0.10292037  0.10796135  1
  Zr  Zr44  1  0.30398041  0.10896327  0.69678952  1
  Zr  Zr45  1  0.69937793  0.09571303  0.69435828  1
  Zr  Zr46  1  0.89566251  0.49725523  0.30462768  1
  Zr  Zr47  1  0.10151962  0.29741740  0.89199612  1
  Zr  Zr48  1  0.49895961  0.50581357  0.29556655  1
  Zr  Zr49  1  0.49266400  0.09432931  0.50516443  1
  Sc  Sc50  1  0.09389591  0.70302091  0.70893070  1
  Sc  Sc51  1  0.09657586  0.10068969  0.90358760  1
  Sc  Sc52  1  0.50168633  0.30216758  0.29672994  1
  Sc  Sc53  1  0.49785948  0.50677554  0.10101485  1
  Sc  Sc54  1  0.49627381  0.29885826  0.90035666  1
  Sc  Sc55  1  0.90348689  0.11248326  0.69767704  1
  Sc  Sc56  1  0.30252040  0.69611491  0.09188843  1
  Sc  Sc57  1  0.70204881  0.89668620  0.89760901  1
  Sc  Sc58  1  0.89739574  0.89654314  0.90208145  1
  Sc  Sc59  1  0.30812722  0.50548719  0.09909490  1
  Sc  Sc60  1  0.90293871  0.50849184  0.09805965  1
  Sc  Sc61  1  0.50259055  0.09925375  0.69957005  1
  Sc  Sc62  1  0.70314713  0.89786720  0.10173830  1
  Sc  Sc63  1  0.50454583  0.50902372  0.70249641  1
  Sc  Sc64  1  0.50031624  0.29596497  0.09992114  1
  Sc  Sc65  1  0.50157536  0.30157971  0.70651182  1
  Sc  Sc66  1  0.30790905  0.29292199  0.10000449  1
  Sc  Sc67  1  0.30341320  0.29871993  0.29926511  1
  Sc  Sc68  1  0.69303761  0.70494703  0.30499389  1
  Sc  Sc69  1  0.69883328  0.29920028  0.50313980  1
  Sc  Sc70  1  0.30634973  0.50293486  0.29903545  1
  Sc  Sc71  1  0.30149141  0.88622139  0.90533808  1
  Sc  Sc72  1  0.89511364  0.09910397  0.30637109  1
  Sc  Sc73  1  0.30364811  0.69488056  0.71146638  1
  Sc  Sc74  1  0.50702722  0.69514732  0.50077882  1
  Sc  Sc75  1  0.10401048  0.50113560  0.89119683  1
  Sc  Sc76  1  0.29852110  0.49953903  0.49155731  1
  Sc  Sc77  1  0.49616599  0.10733130  0.09408667  1
  Sc  Sc78  1  0.10858046  0.69917678  0.90190743  1
  Sc  Sc79  1  0.30083596  0.50586104  0.90144904  1
  Sc  Sc80  1  0.90278734  0.50395747  0.69140647  1
  Sc  Sc81  1  0.69863061  0.29716174  0.30056687  1
  Sc  Sc82  1  0.70724539  0.50663842  0.49939690  1
  Sc  Sc83  1  0.30283748  0.69836769  0.49356518  1
  Sc  Sc84  1  0.89833795  0.10068930  0.49615663  1
  Sc  Sc85  1  0.30413928  0.90608915  0.49321997  1
  Sc  Sc86  1  0.70670964  0.10420947  0.50209705  1
  Sc  Sc87  1  0.50737250  0.49588890  0.90030941  1
  Sc  Sc88  1  0.69771826  0.50151250  0.70143490  1
  Sc  Sc89  1  0.69310876  0.69888372  0.70057230  1
  Sc  Sc90  1  0.49730795  0.69400237  0.10468591  1
  Sc  Sc91  1  0.30024923  0.10648411  0.89254404  1
  Sc  Sc92  1  0.89861636  0.30170394  0.50376566  1
  Sc  Sc93  1  0.29283280  0.49640842  0.70582498  1
  Sc  Sc94  1  0.68599279  0.30023507  0.89788049  1
  Sc  Sc95  1  0.29653944  0.09609821  0.30869106  1
  Sc  Sc96  1  0.70021878  0.89329979  0.30250266  1
  Sc  Sc97  1  0.69618311  0.69990762  0.09814593  1
  Sc  Sc98  1  0.69277172  0.10039475  0.89960784  1
  Sc  Sc99  1  0.09752537  0.51495262  0.10219061  1
  Nb  Nb100  1  0.49918535  0.90004728  0.89910488  1
  Nb  Nb101  1  0.49873773  0.70358956  0.69724031  1
  Nb  Nb102  1  0.49904032  0.70293030  0.29308553  1
  Nb  Nb103  1  0.70286937  0.90327156  0.69667416  1
  Nb  Nb104  1  0.09411038  0.89832926  0.49981260  1
  Nb  Nb105  1  0.10000605  0.69866575  0.29920530  1
  Nb  Nb106  1  0.90069332  0.29993638  0.09753761  1
  Nb  Nb107  1  0.09863432  0.30154402  0.29911403  1
  Nb  Nb108  1  0.29806512  0.70130568  0.89927323  1
  Nb  Nb109  1  0.09612136  0.49866568  0.50291349  1
  Nb  Nb110  1  0.10124884  0.09076263  0.10194361  1
  Nb  Nb111  1  0.90021296  0.89856581  0.49679362  1
  Nb  Nb112  1  0.89619554  0.10061817  0.89711553  1
  Nb  Nb113  1  0.09295109  0.70092214  0.11056832  1
  Nb  Nb114  1  0.29061650  0.70134002  0.30485340  1
  Nb  Nb115  1  0.10603425  0.90338096  0.09759782  1
  Nb  Nb116  1  0.90602674  0.69985876  0.10595404  1
  Nb  Nb117  1  0.90439751  0.50590743  0.49972900  1
  Nb  Nb118  1  0.29861054  0.29940571  0.69840521  1
  Nb  Nb119  1  0.10281292  0.90064465  0.30546244  1
  Nb  Nb120  1  0.90466713  0.30425751  0.70409340  1
  Nb  Nb121  1  0.50100426  0.90018869  0.50273278  1
  Nb  Nb122  1  0.90393334  0.70087355  0.29726156  1
  Nb  Nb123  1  0.49796339  0.10054176  0.29854160  1
  Nb  Nb124  1  0.70299640  0.49854899  0.89995950  1
  Nb  Nb125  1  0.80353701  0.39632860  -0.00405188  1
  Nb  Nb126  1  0.00986587  -0.00269102  0.19770004  1
  Nb  Nb127  1  0.59310259  -0.00000821  0.39862201  1
  Nb  Nb128  1  0.00255462  0.39416795  0.00402472  1
  Nb  Nb129  1  0.40264061  0.19682437  0.40360352  1
  Nb  Nb130  1  0.00377339  0.39324588  0.19671950  1
  Nb  Nb131  1  0.19420076  0.39580289  0.00644036  1
  Nb  Nb132  1  0.19523868  0.60109097  0.59735579  1
  Nb  Nb133  1  0.80155759  0.39784493  0.80294421  1
  Nb  Nb134  1  0.00122093  0.79958422  0.39577675  1
  Nb  Nb135  1  0.80410880  0.20549720  -0.00292711  1
  Nb  Nb136  1  0.40155417  -0.00248679  0.20154040  1
  Nb  Nb137  1  0.19192870  0.79648548  0.20295970  1
  Nb  Nb138  1  -0.00145764  0.60146655  0.39952102  1
  Nb  Nb139  1  0.80508091  0.60631519  0.20309336  1
  Nb  Nb140  1  0.59347221  0.79901421  -0.00736510  1
  Nb  Nb141  1  0.20212659  0.79892761  0.59774646  1
  Nb  Nb142  1  0.59250960  0.00059406  0.20393742  1
  Nb  Nb143  1  0.40582441  -0.00650744  0.80375424  1
  Nb  Nb144  1  0.80064663  0.00206968  0.79567600  1
  Nb  Nb145  1  0.40355626  0.79991276  0.60554143  1
  Nb  Nb146  1  0.00670604  0.79947173  0.01263305  1
  Nb  Nb147  1  0.80117370  0.80646741  0.60053167  1
  Nb  Nb148  1  0.19202758  0.39499612  0.19429292  1
  Nb  Nb149  1  0.39684827  0.40005809  0.60211401  1
  Pd  Pd150  1  0.60179682  0.39564374  0.00549288  1
  Pd  Pd151  1  0.00112178  0.60152394  0.80467203  1
  Pd  Pd152  1  -0.00512014  0.00671035  0.59710032  1
  Pd  Pd153  1  0.80499757  0.40268343  0.60308293  1
  Pd  Pd154  1  0.81227101  -0.00131874  0.60319825  1
  Pd  Pd155  1  0.00586522  0.60347195  -0.00649046  1
  Pd  Pd156  1  0.39609034  0.39949795  0.19674821  1
  Pd  Pd157  1  0.19863160  0.59837815  0.00221681  1
  Pd  Pd158  1  0.00210354  -0.00175712  0.39554379  1
  Pd  Pd159  1  -0.00020273  0.79159530  0.59386065  1
  Pd  Pd160  1  0.60591404  0.40262170  0.39831375  1
  Pd  Pd161  1  0.39588123  0.19988312  -0.00544230  1
  Pd  Pd162  1  -0.00482163  0.20745802  0.39999036  1
  Pd  Pd163  1  0.40715239  0.79085035  0.41009422  1
  Pd  Pd164  1  0.20308158  -0.00678762  0.20755839  1
  Pd  Pd165  1  0.20738896  0.40002307  0.39263698  1
  Pd  Pd166  1  0.39368377  0.40178491  0.00031271  1
  Pd  Pd167  1  0.20582912  0.20063435  -0.00649007  1
  Pd  Pd168  1  0.00524096  0.81164929  0.20321878  1
  Pd  Pd169  1  0.59280661  0.40033498  0.19592468  1
  Pd  Pd170  1  0.40394628  0.40770354  0.79422020  1
  Pd  Pd171  1  0.00484512  0.60946625  0.59678833  1
  Pd  Pd172  1  0.40012072  0.59116141  0.80070386  1
  Pd  Pd173  1  0.59184734  0.60852810  -0.00878298  1
  Pd  Pd174  1  0.60886810  0.79569227  0.80557246  1
  Pd  Pd175  1  -0.00868761  0.19325023  0.20711302  1
  Pd  Pd176  1  0.79694549  0.00417933  0.20314756  1
  Pd  Pd177  1  0.38860195  0.79472890  0.19742811  1
  Pd  Pd178  1  0.38970866  0.59900208  0.60280004  1
  Pd  Pd179  1  0.20826393  0.00587887  -0.00982359  1
  Pd  Pd180  1  0.40201389  0.60864795  0.39438677  1
  Pd  Pd181  1  0.59486580  0.19514730  0.40334185  1
  Pd  Pd182  1  0.59776320  0.19922347  0.79640464  1
  Pd  Pd183  1  0.00412232  0.20245571  0.59797417  1
  Pd  Pd184  1  0.20036451  -0.00939431  0.59210318  1
  Pd  Pd185  1  0.20933827  0.59996441  0.19804031  1
  Pd  Pd186  1  -0.00601794  0.00270336  0.80480750  1
  Pd  Pd187  1  0.60069075  0.59989204  0.39538295  1
  Pd  Pd188  1  0.79446226  0.39649632  0.40974367  1
  Pd  Pd189  1  -0.00460004  0.39911462  0.39815024  1
  Pd  Pd190  1  0.40020711  -0.01175470  0.61283705  1
  Pd  Pd191  1  0.79274639  0.00543381  -0.00923243  1
  Pd  Pd192  1  0.60352847  0.59693671  0.59927600  1
  Pd  Pd193  1  0.00071960  -0.00859568  -0.00234919  1
  Pd  Pd194  1  0.39015381  0.00411007  -0.00208802  1
  Pd  Pd195  1  0.79160635  0.79124003  0.19948325  1
  Pd  Pd196  1  0.59397954  0.40677578  0.60208367  1
  Pd  Pd197  1  0.60449629  -0.00901398  0.00665323  1
  Pd  Pd198  1  0.59639625  0.19842692  0.60083654  1
  Pd  Pd199  1  0.79356958  0.19950380  0.80284202  1
  Rh  Rh200  1  0.60399558  0.00007120  0.80203794  1
  Rh  Rh201  1  0.20630322  0.20611263  0.39774896  1
  Rh  Rh202  1  0.19955766  0.60177580  0.79426248  1
  Rh  Rh203  1  -0.00691453  0.59112628  0.21019181  1
  Rh  Rh204  1  0.79955723  0.60025050  0.01184037  1
  Rh  Rh205  1  0.79838401  0.79474495  0.00619536  1
  Rh  Rh206  1  0.20087930  0.40261216  0.80431157  1
  Rh  Rh207  1  0.19599087  -0.00165486  0.40574083  1
  Rh  Rh208  1  0.19028392  0.20158799  0.60465897  1
  Rh  Rh209  1  0.80041303  0.20568495  0.40378325  1
  Rh  Rh210  1  0.60110236  0.80205826  0.18991815  1
  Rh  Rh211  1  0.40758568  0.19362441  0.79810636  1
  Rh  Rh212  1  0.40525920  0.78991591  -0.00325759  1
  Rh  Rh213  1  0.80622073  0.18929049  0.19482683  1
  Rh  Rh214  1  0.39710789  0.80669478  0.79440860  1
  Rh  Rh215  1  0.00852075  0.19045677  0.79342148  1
  Rh  Rh216  1  -0.00579702  0.39634132  0.59691141  1
  Rh  Rh217  1  0.80725093  0.41526086  0.18759739  1
  Rh  Rh218  1  0.60028890  0.60137207  0.80301736  1
  Rh  Rh219  1  0.60533900  0.60436662  0.20559110  1
  Rh  Rh220  1  0.40776229  0.21132169  0.60023178  1
  Rh  Rh221  1  0.80147241  0.60170464  0.39149468  1
  Rh  Rh222  1  0.19625457  0.19764939  0.79388289  1
  Rh  Rh223  1  0.79027742  0.00007890  0.40069264  1
  Rh  Rh224  1  0.80519387  0.20506527  0.59985667  1
  Rh  Rh225  1  0.60109681  0.00328208  0.59252986  1
  Rh  Rh226  1  0.60146348  0.79769337  0.59738035  1
  Rh  Rh227  1  0.20628589  0.40794201  0.59968200  1
  Rh  Rh228  1  0.19774336  0.59318533  0.40310580  1
  Rh  Rh229  1  0.20079871  0.79240376  0.79475849  1
  Rh  Rh230  1  0.39697816  0.39123721  0.40451560  1
  Rh  Rh231  1  0.39687992  0.19255991  0.20915310  1
  Rh  Rh232  1  0.40521555  0.00533249  0.39374043  1
  Rh  Rh233  1  0.59390163  0.19795787  0.19828408  1
  Rh  Rh234  1  -0.00779706  0.40971716  0.80160206  1
  Rh  Rh235  1  0.60593542  0.40196437  0.79768430  1
  Rh  Rh236  1  0.00174548  0.79855975  0.81816116  1
  Rh  Rh237  1  0.79734765  0.59021114  0.79121459  1
  Rh  Rh238  1  0.59329061  0.80236216  0.40614815  1
  Rh  Rh239  1  0.40413258  0.60095938  -0.00791445  1
  Rh  Rh240  1  0.19402622  0.78844483  0.00957023  1
  Rh  Rh241  1  0.79514369  0.80899296  0.79169494  1
  Rh  Rh242  1  0.20747102  0.00453772  0.80811613  1
  Rh  Rh243  1  0.39582409  0.60796000  0.20692491  1
  Rh  Rh244  1  0.80537006  0.80116362  0.40414246  1
  Rh  Rh245  1  -0.00310618  0.19603094  -0.00507792  1
  Rh  Rh246  1  0.19638718  0.80647520  0.40157951  1
  Rh  Rh247  1  0.79631220  0.60565654  0.60473104  1
  Rh  Rh248  1  0.20683215  0.20486135  0.20772313  1
  Rh  Rh249  1  0.60607317  0.20888839  0.00479958  1
