# generated using pymatgen
data_ZrScNbPdRh
_symmetry_space_group_name_H-M   'P 1'
_cell_length_a   16.55531464
_cell_length_b   16.55414712
_cell_length_c   16.55612135
_cell_angle_alpha   90.02238422
_cell_angle_beta   89.97204681
_cell_angle_gamma   89.98173461
_symmetry_Int_Tables_number   1
_chemical_formula_structural   ZrScNbPdRh
_chemical_formula_sum   'Zr50 Sc50 Nb50 Pd50 Rh50'
_cell_volume   4537.35483361
_cell_formula_units_Z   50
loop_
 _symmetry_equiv_pos_site_id
 _symmetry_equiv_pos_as_xyz
  1  'x, y, z'
loop_
 _atom_site_type_symbol
 _atom_site_label
 _atom_site_symmetry_multiplicity
 _atom_site_fract_x
 _atom_site_fract_y
 _atom_site_fract_z
 _atom_site_occupancy
  Zr  Zr0  1  0.89325308  0.30327766  0.30236268  1
  Zr  Zr1  1  0.70633328  0.49661220  0.90370249  1
  Zr  Zr2  1  0.48615937  0.89884401  0.09527144  1
  Zr  Zr3  1  0.69546910  0.69949854  0.50421607  1
  Zr  Zr4  1  0.69995593  0.10277760  0.09474065  1
  Zr  Zr5  1  0.89675109  0.51187087  0.09767258  1
  Zr  Zr6  1  0.69875914  0.49798213  0.29626184  1
  Zr  Zr7  1  0.49838421  0.70232257  0.50844284  1
  Zr  Zr8  1  0.30316771  0.89149954  0.91038714  1
  Zr  Zr9  1  0.90717866  0.69426999  0.90688477  1
  Zr  Zr10  1  0.69820577  0.89972947  0.30057371  1
  Zr  Zr11  1  0.49070144  0.90334902  0.29363086  1
  Zr  Zr12  1  0.89887978  0.49448930  0.49950418  1
  Zr  Zr13  1  0.29382835  0.30100345  0.50406076  1
  Zr  Zr14  1  0.49943497  0.50359358  0.90389040  1
  Zr  Zr15  1  0.10638355  0.30256334  0.50052500  1
  Zr  Zr16  1  0.50047876  0.30036028  0.70745278  1
  Zr  Zr17  1  0.70484341  0.69695372  0.09317263  1
  Zr  Zr18  1  0.90826080  0.69636787  0.28828305  1
  Zr  Zr19  1  0.50038037  0.29925094  0.49345540  1
  Zr  Zr20  1  0.29073874  0.10190985  0.69557112  1
  Zr  Zr21  1  0.69333085  0.10208915  0.29466935  1
  Zr  Zr22  1  0.31033643  0.50504617  0.90387733  1
  Zr  Zr23  1  0.91122234  0.70892900  0.50165897  1
  Zr  Zr24  1  0.90712279  0.69578727  0.69926034  1
  Zr  Zr25  1  0.69554358  0.49926086  0.50751373  1
  Zr  Zr26  1  0.49621891  0.30738330  0.89992088  1
  Zr  Zr27  1  0.90236653  0.49965370  0.29771268  1
  Zr  Zr28  1  0.10168022  0.90107533  0.69702369  1
  Zr  Zr29  1  0.49278930  0.11029154  0.70082983  1
  Zr  Zr30  1  0.50238592  0.29575273  0.30287089  1
  Zr  Zr31  1  0.69746014  0.89677365  0.70288759  1
  Zr  Zr32  1  0.10508389  0.90068420  0.10218931  1
  Zr  Zr33  1  0.69644679  0.90206915  0.08863619  1
  Zr  Zr34  1  0.29362731  0.09669665  0.30986113  1
  Zr  Zr35  1  0.09881033  0.30553619  0.90449727  1
  Zr  Zr36  1  0.69464961  0.09895001  0.90449260  1
  Zr  Zr37  1  0.10348144  0.10221407  0.10407932  1
  Zr  Zr38  1  0.90523392  0.09794554  0.89620426  1
  Zr  Zr39  1  0.29997279  0.69785311  0.50000763  1
  Zr  Zr40  1  0.90732397  0.89835804  0.30184603  1
  Zr  Zr41  1  0.90285876  0.09675398  0.70121354  1
  Zr  Zr42  1  0.69561240  0.50361270  0.69617237  1
  Zr  Zr43  1  0.29862509  0.09310387  0.09360767  1
  Zr  Zr44  1  0.11186353  0.29848623  0.30038814  1
  Zr  Zr45  1  0.89576182  0.49450428  0.70174697  1
  Zr  Zr46  1  0.69731312  0.70435343  0.69714765  1
  Zr  Zr47  1  0.70006271  0.29668862  0.29215470  1
  Zr  Zr48  1  0.49509701  0.49250111  0.30523924  1
  Zr  Zr49  1  0.69497771  0.30059148  0.90845029  1
  Sc  Sc50  1  0.10880633  0.29951457  0.09676418  1
  Sc  Sc51  1  0.89857682  0.30914590  0.89881990  1
  Sc  Sc52  1  0.88747996  0.30199483  0.09963278  1
  Sc  Sc53  1  0.49013001  0.30125936  0.10275176  1
  Sc  Sc54  1  0.89416865  0.90109558  0.70157466  1
  Sc  Sc55  1  0.11812804  0.09625960  0.49567766  1
  Sc  Sc56  1  0.30021134  0.49998513  0.10160914  1
  Sc  Sc57  1  0.10261338  0.70432650  0.50065976  1
  Sc  Sc58  1  0.69884398  0.89824021  0.90099622  1
  Sc  Sc59  1  0.10570472  0.50301255  0.09634042  1
  Sc  Sc60  1  0.29903780  0.49983906  0.30153601  1
  Sc  Sc61  1  0.09726128  0.10032958  0.71114651  1
  Sc  Sc62  1  0.70753961  0.09199018  0.49190787  1
  Sc  Sc63  1  0.89798354  0.90177857  0.90490670  1
  Sc  Sc64  1  0.10645710  0.89852816  0.89517588  1
  Sc  Sc65  1  0.70059447  0.30522322  0.49309025  1
  Sc  Sc66  1  0.69435156  0.69596456  0.29774859  1
  Sc  Sc67  1  0.10332504  0.50742437  0.29665695  1
  Sc  Sc68  1  0.49159351  0.69748603  0.90072470  1
  Sc  Sc69  1  0.29888638  0.50067929  0.50075695  1
  Sc  Sc70  1  0.91116718  0.49829171  0.89989078  1
  Sc  Sc71  1  0.49938929  0.69652628  0.70484174  1
  Sc  Sc72  1  0.11117955  0.50092860  0.49692505  1
  Sc  Sc73  1  0.89390596  0.08968507  0.30795064  1
  Sc  Sc74  1  0.50018344  0.11180340  0.90463428  1
  Sc  Sc75  1  0.49149825  0.88285336  0.69832044  1
  Sc  Sc76  1  0.09839302  0.69713950  0.10142453  1
  Sc  Sc77  1  0.29628170  0.70967866  0.09844839  1
  Sc  Sc78  1  0.29340181  0.89271511  0.70504326  1
  Sc  Sc79  1  0.10174438  0.90516410  0.30336539  1
  Sc  Sc80  1  0.29868288  0.29522409  0.69767399  1
  Sc  Sc81  1  0.10448797  0.29223378  0.70046208  1
  Sc  Sc82  1  0.69948048  0.89449598  0.50334124  1
  Sc  Sc83  1  0.90523359  0.29746298  0.70470604  1
  Sc  Sc84  1  0.50382000  0.69639319  0.30641844  1
  Sc  Sc85  1  0.10307650  0.69848999  0.90621835  1
  Sc  Sc86  1  0.10404325  0.69816017  0.69354032  1
  Sc  Sc87  1  0.50003883  0.89365122  0.90251172  1
  Sc  Sc88  1  0.29761345  0.29897409  0.10393417  1
  Sc  Sc89  1  0.90350604  0.09282480  0.09003011  1
  Sc  Sc90  1  0.28308000  0.90810060  0.49792287  1
  Sc  Sc91  1  0.30559407  0.30732563  0.29739527  1
  Sc  Sc92  1  0.49886383  0.09437923  0.10182930  1
  Sc  Sc93  1  0.30648020  0.70240191  0.69825767  1
  Sc  Sc94  1  0.09712523  0.10060199  0.90259933  1
  Sc  Sc95  1  0.10774388  0.69847583  0.29608699  1
  Sc  Sc96  1  0.69761232  0.50477617  0.09177232  1
  Sc  Sc97  1  0.09990209  0.50236666  0.69566261  1
  Sc  Sc98  1  0.69480549  0.70459804  0.89841738  1
  Sc  Sc99  1  0.70168131  0.31018126  0.70271617  1
  Nb  Nb100  1  0.10466511  0.50088471  0.89943361  1
  Nb  Nb101  1  0.49423648  0.89865519  0.50058038  1
  Nb  Nb102  1  0.30303700  0.09677767  0.89948475  1
  Nb  Nb103  1  0.50377486  0.69347009  0.10135204  1
  Nb  Nb104  1  0.90172016  0.70578546  0.09564737  1
  Nb  Nb105  1  0.49301721  0.10353911  0.49656202  1
  Nb  Nb106  1  0.90764949  0.90517983  0.48828999  1
  Nb  Nb107  1  0.90303017  0.09628782  0.49768888  1
  Nb  Nb108  1  0.29918015  0.70233572  0.89688433  1
  Nb  Nb109  1  0.30310974  0.89747223  0.10504237  1
  Nb  Nb110  1  0.50045819  0.10331433  0.30913658  1
  Nb  Nb111  1  0.30051233  0.89050689  0.28855401  1
  Nb  Nb112  1  0.30363245  0.10329759  0.50599576  1
  Nb  Nb113  1  0.50369067  0.50906204  0.10046906  1
  Nb  Nb114  1  0.09804569  0.10477371  0.29974504  1
  Nb  Nb115  1  0.70047131  0.30676032  0.10145433  1
  Nb  Nb116  1  0.49470891  0.49866847  0.70626524  1
  Nb  Nb117  1  0.30084045  0.49791723  0.70230600  1
  Nb  Nb118  1  0.30222498  0.70550312  0.29416996  1
  Nb  Nb119  1  0.69895566  0.09718336  0.69809184  1
  Nb  Nb120  1  0.89647471  0.88783329  0.10257682  1
  Nb  Nb121  1  0.90256852  0.29499589  0.50073825  1
  Nb  Nb122  1  0.50109146  0.49803379  0.50307294  1
  Nb  Nb123  1  0.30181813  0.30615121  0.90530507  1
  Nb  Nb124  1  0.08894449  0.89848937  0.49889620  1
  Nb  Nb125  1  0.79543796  0.19510555  0.79748594  1
  Nb  Nb126  1  0.80025404  -0.00841255  0.19349614  1
  Nb  Nb127  1  0.80218918  0.59975287  0.79744501  1
  Nb  Nb128  1  0.58644327  0.00189590  0.40270657  1
  Nb  Nb129  1  -0.00167706  0.39653660  0.20158436  1
  Nb  Nb130  1  0.40511653  0.40481458  0.60384371  1
  Nb  Nb131  1  0.60451037  0.19345994  0.59805443  1
  Nb  Nb132  1  0.59495084  0.79930054  0.19262954  1
  Nb  Nb133  1  0.00006608  0.20152807  0.20686376  1
  Nb  Nb134  1  0.20528016  0.59544797  0.80336513  1
  Nb  Nb135  1  -0.00121908  -0.00001312  0.59126840  1
  Nb  Nb136  1  0.00083937  0.19800828  0.40033035  1
  Nb  Nb137  1  0.40314102  0.60456673  0.19949009  1
  Nb  Nb138  1  0.00140274  0.79718100  0.79847727  1
  Nb  Nb139  1  0.59934299  0.40094537  0.19553734  1
  Nb  Nb140  1  0.39911221  0.00254587  0.79864134  1
  Nb  Nb141  1  0.39382693  0.80378819  0.39764467  1
  Nb  Nb142  1  0.80151123  0.19601624  0.60050146  1
  Nb  Nb143  1  0.59000949  0.00250690  0.59860657  1
  Nb  Nb144  1  0.39939471  0.00285377  0.59787000  1
  Nb  Nb145  1  -0.00063227  0.39466688  0.59367692  1
  Nb  Nb146  1  0.59230639  0.00331910  0.79226577  1
  Nb  Nb147  1  0.80299287  0.60385822  0.40365396  1
  Nb  Nb148  1  0.20465128  0.40520125  0.80724395  1
  Nb  Nb149  1  0.80689589  0.79527486  0.39875195  1
  Pd  Pd150  1  0.80627947  0.20191337  -0.00746254  1
  Pd  Pd151  1  0.01171016  0.79955178  0.20157071  1
  Pd  Pd152  1  0.20182076  0.79949652  0.59724749  1
  Pd  Pd153  1  0.80759197  0.79184436  0.80829999  1
  Pd  Pd154  1  0.01194876  0.39799101  0.79046675  1
  Pd  Pd155  1  0.20428900  0.19874551  -0.00561887  1
  Pd  Pd156  1  0.19992654  0.80386175  0.39735020  1
  Pd  Pd157  1  0.79987150  0.19789712  0.40418953  1
  Pd  Pd158  1  -0.00490128  0.20822864  0.00688818  1
  Pd  Pd159  1  0.60272452  0.40477842  0.80387047  1
  Pd  Pd160  1  0.59474500  0.80604493  0.39594401  1
  Pd  Pd161  1  0.59994851  -0.00465501  0.20017095  1
  Pd  Pd162  1  0.20286330  0.60138041  0.39665000  1
  Pd  Pd163  1  0.00279938  0.60315933  0.40270632  1
  Pd  Pd164  1  0.20649141  -0.00182381  0.80639101  1
  Pd  Pd165  1  0.59174528  0.20710037  0.01050465  1
  Pd  Pd166  1  0.59375047  0.79471093  0.00096650  1
  Pd  Pd167  1  0.00362583  -0.00973181  0.00055725  1
  Pd  Pd168  1  0.59381890  0.39275785  0.60085946  1
  Pd  Pd169  1  0.79673756  0.60239962  0.20145384  1
  Pd  Pd170  1  0.80736596  0.80603013  0.59354021  1
  Pd  Pd171  1  0.59287466  0.20546787  0.18985796  1
  Pd  Pd172  1  -0.00711818  0.00528101  0.19795130  1
  Pd  Pd173  1  0.60366160  0.60053032  0.80445791  1
  Pd  Pd174  1  0.20286126  -0.00062174  0.20521197  1
  Pd  Pd175  1  0.40079375  0.59356265  0.60394908  1
  Pd  Pd176  1  0.38857866  0.20113939  0.80535837  1
  Pd  Pd177  1  0.79264652  0.00205871  0.80682844  1
  Pd  Pd178  1  -0.00110761  0.40242549  0.01239199  1
  Pd  Pd179  1  0.60171347  0.59529484  0.40427038  1
  Pd  Pd180  1  0.00447778  0.19501038  0.59276754  1
  Pd  Pd181  1  0.20522514  0.60421529  0.00007292  1
  Pd  Pd182  1  0.38920862  0.20578908  0.39801530  1
  Pd  Pd183  1  0.79392700  0.40456963  0.40190804  1
  Pd  Pd184  1  0.39764266  0.60426315  0.39572757  1
  Pd  Pd185  1  0.00725826  0.80606139  -0.00554594  1
  Pd  Pd186  1  0.39728385  0.20057265  0.00221374  1
  Pd  Pd187  1  0.80118676  -0.00174970  0.59380429  1
  Pd  Pd188  1  0.20218239  0.20704583  0.81080117  1
  Pd  Pd189  1  0.00650160  0.59016556  0.59284764  1
  Pd  Pd190  1  0.39400779  -0.00708710  0.40453184  1
  Pd  Pd191  1  0.40006608  0.40332494  0.01036473  1
  Pd  Pd192  1  0.81105724  0.18533094  0.19617180  1
  Pd  Pd193  1  0.80363870  0.60349694  0.59899475  1
  Pd  Pd194  1  0.19800383  -0.00247419  -0.00436030  1
  Pd  Pd195  1  0.79152572  0.79987396  0.20262688  1
  Pd  Pd196  1  0.39401818  0.01150734  0.20291655  1
  Pd  Pd197  1  0.19652760  0.40593134  0.19848332  1
  Pd  Pd198  1  0.39413984  0.19122488  0.20309342  1
  Pd  Pd199  1  0.00848163  0.39578497  0.39825566  1
  Rh  Rh200  1  0.79620623  0.40900805  0.19086048  1
  Rh  Rh201  1  0.19605929  0.00144801  0.60184642  1
  Rh  Rh202  1  0.40375931  0.20701306  0.59510393  1
  Rh  Rh203  1  0.19482459  0.80094499  0.19762154  1
  Rh  Rh204  1  0.19369297  0.78531934  0.80123036  1
  Rh  Rh205  1  0.79184279  -0.01036846  0.39611646  1
  Rh  Rh206  1  0.00523821  0.59747768  0.00461888  1
  Rh  Rh207  1  0.20368710  0.60134074  0.60477079  1
  Rh  Rh208  1  -0.00380514  0.81225434  0.60883300  1
  Rh  Rh209  1  0.80166117  0.60351660  -0.00905625  1
  Rh  Rh210  1  0.59247575  0.39883809  0.00831968  1
  Rh  Rh211  1  0.60900667  0.19265436  0.40813159  1
  Rh  Rh212  1  0.40704934  0.41051806  0.19456998  1
  Rh  Rh213  1  -0.00505074  0.20524685  0.81001055  1
  Rh  Rh214  1  0.19960820  0.40235668  0.61077554  1
  Rh  Rh215  1  0.40782944  0.78936827  0.20183368  1
  Rh  Rh216  1  0.00495843  0.59537486  0.19178092  1
  Rh  Rh217  1  0.60080252  0.60260256  -0.00874493  1
  Rh  Rh218  1  0.59601278  0.59879665  0.20111006  1
  Rh  Rh219  1  0.39493315  0.60580693  0.79760930  1
  Rh  Rh220  1  0.21110422  0.60326532  0.19871157  1
  Rh  Rh221  1  0.58922868  0.00144204  -0.01019478  1
  Rh  Rh222  1  0.59480069  0.80497050  0.79967443  1
  Rh  Rh223  1  0.80383365  -0.00441049  0.00361676  1
  Rh  Rh224  1  0.60325987  0.40203230  0.39376721  1
  Rh  Rh225  1  0.59650317  0.80248306  0.60358769  1
  Rh  Rh226  1  0.39787401  0.80189750  0.80471216  1
  Rh  Rh227  1  0.20441601  0.19625046  0.20010032  1
  Rh  Rh228  1  0.39642027  0.60664585  0.00975454  1
  Rh  Rh229  1  0.19222846  0.19467614  0.60073696  1
  Rh  Rh230  1  0.01281429  0.01089506  0.40548606  1
  Rh  Rh231  1  0.39208960  0.39506527  0.79467318  1
  Rh  Rh232  1  0.38710506  0.80901150  0.58760041  1
  Rh  Rh233  1  0.20551276  0.40115987  -0.00381816  1
  Rh  Rh234  1  0.00345573  0.79334206  0.39119955  1
  Rh  Rh235  1  0.00195496  -0.01181329  0.79420420  1
  Rh  Rh236  1  0.20473139  0.20208102  0.39995847  1
  Rh  Rh237  1  0.80353430  0.40269240  0.00201288  1
  Rh  Rh238  1  0.39862994  0.79090652  0.00243620  1
  Rh  Rh239  1  0.80834280  0.38679079  0.60062635  1
  Rh  Rh240  1  0.39432799  0.39924898  0.41140227  1
  Rh  Rh241  1  0.19891190  -0.00579360  0.39411600  1
  Rh  Rh242  1  0.20487106  0.40441332  0.39550240  1
  Rh  Rh243  1  0.58938415  0.60035050  0.60445761  1
  Rh  Rh244  1  0.40175791  0.00291265  -0.00915448  1
  Rh  Rh245  1  0.19860943  0.80200730  0.00492936  1
  Rh  Rh246  1  0.00551969  0.60612024  0.80317468  1
  Rh  Rh247  1  0.79798374  0.40131561  0.80223377  1
  Rh  Rh248  1  0.61135960  0.19868368  0.79496643  1
  Rh  Rh249  1  0.80170310  0.79768307  -0.00454756  1
