# generated using pymatgen
data_ZrScNbPdRh
_symmetry_space_group_name_H-M   'P 1'
_cell_length_a   16.56122475
_cell_length_b   16.55506279
_cell_length_c   16.55721245
_cell_angle_alpha   89.99116236
_cell_angle_beta   90.02227245
_cell_angle_gamma   89.98622329
_symmetry_Int_Tables_number   1
_chemical_formula_structural   ZrScNbPdRh
_chemical_formula_sum   'Zr50 Sc50 Nb50 Pd50 Rh50'
_cell_volume   4539.52543618
_cell_formula_units_Z   50
loop_
 _symmetry_equiv_pos_site_id
 _symmetry_equiv_pos_as_xyz
  1  'x, y, z'
loop_
 _atom_site_type_symbol
 _atom_site_label
 _atom_site_symmetry_multiplicity
 _atom_site_fract_x
 _atom_site_fract_y
 _atom_site_fract_z
 _atom_site_occupancy
  Zr  Zr0  1  0.49384951  0.90698725  0.09672284  1
  Zr  Zr1  1  0.08176760  0.49556986  0.49927022  1
  Zr  Zr2  1  0.89931914  0.50634733  0.70280278  1
  Zr  Zr3  1  0.90639465  0.91285165  0.29613209  1
  Zr  Zr4  1  0.69998773  0.89776700  0.29717108  1
  Zr  Zr5  1  0.09705811  0.70335718  0.69503912  1
  Zr  Zr6  1  0.49988993  0.49281956  0.49473085  1
  Zr  Zr7  1  0.49469928  0.90222329  0.50409770  1
  Zr  Zr8  1  0.30082858  0.49895535  0.50541001  1
  Zr  Zr9  1  0.30198744  0.30127586  0.89306042  1
  Zr  Zr10  1  0.29015838  0.70276110  0.50093462  1
  Zr  Zr11  1  0.30247489  0.29800137  0.49999891  1
  Zr  Zr12  1  0.10106406  0.10002703  0.89124985  1
  Zr  Zr13  1  0.30539748  0.10573090  0.89762001  1
  Zr  Zr14  1  0.71646908  0.10297365  0.30417303  1
  Zr  Zr15  1  0.50339661  0.89977747  0.90188701  1
  Zr  Zr16  1  0.70201744  0.89482806  0.50382958  1
  Zr  Zr17  1  0.10864933  0.08574299  0.09514799  1
  Zr  Zr18  1  0.09777945  0.90191447  0.49905572  1
  Zr  Zr19  1  0.30598273  0.89544019  0.90074981  1
  Zr  Zr20  1  0.50010625  0.69478305  0.29451636  1
  Zr  Zr21  1  0.70240468  0.89952229  0.89351726  1
  Zr  Zr22  1  0.89894332  0.69278009  0.09477026  1
  Zr  Zr23  1  0.10094979  0.69815865  0.49768231  1
  Zr  Zr24  1  0.30173609  0.89449463  0.69367910  1
  Zr  Zr25  1  0.48616954  0.10638200  0.30115696  1
  Zr  Zr26  1  0.08983286  0.91143864  0.91129799  1
  Zr  Zr27  1  0.30036834  0.90439789  0.30422331  1
  Zr  Zr28  1  0.89614082  0.10071860  0.49716739  1
  Zr  Zr29  1  0.50396105  0.30603254  0.09755124  1
  Zr  Zr30  1  0.09995610  0.48574542  0.90862776  1
  Zr  Zr31  1  0.49949369  0.10185844  0.90472797  1
  Zr  Zr32  1  0.50684208  0.50246457  0.30364077  1
  Zr  Zr33  1  0.92579607  0.89475164  0.09739253  1
  Zr  Zr34  1  0.90824517  0.31528318  0.49808875  1
  Zr  Zr35  1  0.70530315  0.30011753  0.89479911  1
  Zr  Zr36  1  0.89825429  0.48662312  0.32210835  1
  Zr  Zr37  1  0.90107724  0.69988685  0.89447264  1
  Zr  Zr38  1  0.29864025  0.70157237  0.69851710  1
  Zr  Zr39  1  0.90203215  0.09930888  0.11052525  1
  Zr  Zr40  1  0.10007697  0.50382644  0.09601461  1
  Zr  Zr41  1  0.10489061  0.31082563  0.09589600  1
  Zr  Zr42  1  0.70665586  0.10881217  0.09391408  1
  Zr  Zr43  1  0.29437918  0.69088150  0.10160219  1
  Zr  Zr44  1  0.31130174  0.09872983  0.10430453  1
  Zr  Zr45  1  0.09954871  0.29687757  0.70351652  1
  Zr  Zr46  1  0.89797939  0.69877483  0.51019290  1
  Zr  Zr47  1  0.49785229  0.10322348  0.70062748  1
  Zr  Zr48  1  0.49940751  0.89523675  0.69417379  1
  Zr  Zr49  1  0.49674299  0.11444634  0.50317371  1
  Sc  Sc50  1  0.50397326  0.70008890  0.10527359  1
  Sc  Sc51  1  0.49518887  0.29658017  0.89695574  1
  Sc  Sc52  1  0.68515737  0.89380406  0.09763433  1
  Sc  Sc53  1  0.10411662  0.09570249  0.30079206  1
  Sc  Sc54  1  0.50793323  0.69567383  0.50782374  1
  Sc  Sc55  1  0.89975497  0.29778820  0.69636802  1
  Sc  Sc56  1  0.70690178  0.11322298  0.70038341  1
  Sc  Sc57  1  0.10176479  0.89890401  0.29037744  1
  Sc  Sc58  1  0.69908760  0.50118322  0.88528457  1
  Sc  Sc59  1  0.70131128  0.69945658  0.50794526  1
  Sc  Sc60  1  0.89616084  0.89986372  0.50898468  1
  Sc  Sc61  1  0.29926377  0.29822060  0.10293621  1
  Sc  Sc62  1  0.30098554  0.70077348  0.89427551  1
  Sc  Sc63  1  0.70201291  0.68733556  0.89964545  1
  Sc  Sc64  1  0.10094695  0.68819267  0.90732576  1
  Sc  Sc65  1  0.49308752  0.89640885  0.29442232  1
  Sc  Sc66  1  0.10044320  0.09841141  0.50346438  1
  Sc  Sc67  1  0.90371373  0.09918217  0.69529135  1
  Sc  Sc68  1  0.49895262  0.69677759  0.69675970  1
  Sc  Sc69  1  0.90434441  0.30519556  0.89622262  1
  Sc  Sc70  1  0.69700437  0.69030580  0.10006346  1
  Sc  Sc71  1  0.89984976  0.09753969  0.89631090  1
  Sc  Sc72  1  0.29849395  0.90132518  0.50315041  1
  Sc  Sc73  1  0.31002025  0.50971938  0.30725044  1
  Sc  Sc74  1  0.09891452  0.10166798  0.69410066  1
  Sc  Sc75  1  0.89454841  0.69999708  0.30065664  1
  Sc  Sc76  1  0.09973067  0.29546509  0.50705070  1
  Sc  Sc77  1  0.69883464  0.10477413  0.89614218  1
  Sc  Sc78  1  0.71027521  0.89702996  0.69861889  1
  Sc  Sc79  1  0.49763863  0.69867054  0.89775397  1
  Sc  Sc80  1  0.30018530  0.30204609  0.69781685  1
  Sc  Sc81  1  0.68558121  0.29363601  0.49781153  1
  Sc  Sc82  1  0.89804287  0.49884527  0.09512650  1
  Sc  Sc83  1  0.29914907  0.29092742  0.30001887  1
  Sc  Sc84  1  0.49945753  0.49621848  0.89516439  1
  Sc  Sc85  1  0.50040319  0.50008130  0.69578932  1
  Sc  Sc86  1  0.89663021  0.29532404  0.10000143  1
  Sc  Sc87  1  0.09615186  0.90014744  0.69692695  1
  Sc  Sc88  1  0.69804850  0.49710256  0.30342451  1
  Sc  Sc89  1  0.08950513  0.70885843  0.10419900  1
  Sc  Sc90  1  0.69545419  0.69472445  0.29620281  1
  Sc  Sc91  1  0.69456040  0.49983683  0.10191566  1
  Sc  Sc92  1  0.29530904  0.10054987  0.49830394  1
  Sc  Sc93  1  0.29899651  0.70597963  0.30777255  1
  Sc  Sc94  1  0.29098300  0.49236916  0.09837687  1
  Sc  Sc95  1  0.90234112  0.50671175  0.90041753  1
  Sc  Sc96  1  0.11101897  0.29050571  0.29614294  1
  Sc  Sc97  1  0.29758024  0.10700129  0.69141408  1
  Sc  Sc98  1  0.69963320  0.30579765  0.09730203  1
  Sc  Sc99  1  0.29906063  0.90781523  0.10568254  1
  Nb  Nb100  1  0.90196391  0.88689524  0.71536254  1
  Nb  Nb101  1  0.89955594  0.89876732  0.89500479  1
  Nb  Nb102  1  0.10260053  0.49507365  0.69874718  1
  Nb  Nb103  1  0.10420328  0.90028039  0.09742900  1
  Nb  Nb104  1  0.50099896  0.29810692  0.68329296  1
  Nb  Nb105  1  0.49626948  0.50171854  0.10641785  1
  Nb  Nb106  1  0.50153298  0.10291339  0.10092631  1
  Nb  Nb107  1  0.10142708  0.69846669  0.30774040  1
  Nb  Nb108  1  0.10039161  0.29553900  0.90145952  1
  Nb  Nb109  1  0.70203825  0.31492288  0.70371728  1
  Nb  Nb110  1  0.50610866  0.30794965  0.31451218  1
  Nb  Nb111  1  0.29843114  0.49942748  0.70123173  1
  Nb  Nb112  1  0.70149071  0.09383999  0.49984700  1
  Nb  Nb113  1  0.89886109  0.70957169  0.70559017  1
  Nb  Nb114  1  0.29363749  0.10463833  0.29686912  1
  Nb  Nb115  1  0.90284338  0.10569702  0.29883894  1
  Nb  Nb116  1  0.69543279  0.30424793  0.29622602  1
  Nb  Nb117  1  0.69869579  0.50767666  0.50144891  1
  Nb  Nb118  1  0.09863069  0.50114388  0.30824851  1
  Nb  Nb119  1  0.89177255  0.49885991  0.50482615  1
  Nb  Nb120  1  0.69604146  0.69582100  0.70234695  1
  Nb  Nb121  1  0.69638679  0.50054018  0.70137632  1
  Nb  Nb122  1  0.29905383  0.50031524  0.89879850  1
  Nb  Nb123  1  0.49213843  0.30442181  0.49406032  1
  Nb  Nb124  1  0.89815079  0.29669432  0.29961116  1
  Nb  Nb125  1  0.19056260  0.59966302  0.20945665  1
  Nb  Nb126  1  0.80502501  0.80403404  -0.00091349  1
  Nb  Nb127  1  0.19684350  0.80542122  0.00372446  1
  Nb  Nb128  1  0.00038260  0.40114011  0.20816370  1
  Nb  Nb129  1  -0.00011166  0.79956938  0.39999808  1
  Nb  Nb130  1  0.59877619  0.20230404  0.20592090  1
  Nb  Nb131  1  0.60430403  0.00597055  0.59467750  1
  Nb  Nb132  1  0.19775842  0.19941765  -0.00434242  1
  Nb  Nb133  1  -0.00724272  0.19873194  0.39331236  1
  Nb  Nb134  1  0.20052587  0.58763771  0.79541436  1
  Nb  Nb135  1  0.20576726  -0.00278422  0.80036007  1
  Nb  Nb136  1  0.80440198  0.80277196  0.19056647  1
  Nb  Nb137  1  0.40784205  0.40212659  0.20521347  1
  Nb  Nb138  1  0.00826863  0.20010988  -0.00071457  1
  Nb  Nb139  1  0.59777428  0.01335685  0.20249408  1
  Nb  Nb140  1  0.60408446  0.79749670  0.79655083  1
  Nb  Nb141  1  0.60102369  0.00244321  0.40120560  1
  Nb  Nb142  1  0.39933429  -0.00080369  0.79739227  1
  Nb  Nb143  1  0.79708759  0.40094231  -0.00692655  1
  Nb  Nb144  1  0.19857898  0.40473405  0.40200702  1
  Nb  Nb145  1  0.59915531  0.80441850  0.40128032  1
  Nb  Nb146  1  0.80484447  -0.01075808  0.00003796  1
  Nb  Nb147  1  0.39761643  0.59226649  0.00216782  1
  Nb  Nb148  1  0.79138969  0.40839786  0.59954411  1
  Nb  Nb149  1  0.00217684  0.59269101  0.21077128  1
  Pd  Pd150  1  0.40727027  0.79248663  0.40691610  1
  Pd  Pd151  1  0.20157997  0.79440666  0.19835832  1
  Pd  Pd152  1  0.40711420  0.21400457  0.20038973  1
  Pd  Pd153  1  -0.00119518  0.60025877  0.60454253  1
  Pd  Pd154  1  0.19000352  0.80028154  0.81032518  1
  Pd  Pd155  1  0.59704550  0.20998884  0.79487826  1
  Pd  Pd156  1  0.39393106  0.78846620  0.00748934  1
  Pd  Pd157  1  0.01192393  0.20249950  0.19755944  1
  Pd  Pd158  1  0.40197492  0.59998213  0.59719539  1
  Pd  Pd159  1  0.80207309  0.00643488  0.79823148  1
  Pd  Pd160  1  -0.00594089  0.19841795  0.80080220  1
  Pd  Pd161  1  0.79348670  -0.01005375  0.18632263  1
  Pd  Pd162  1  0.79351672  0.21103472  0.19937784  1
  Pd  Pd163  1  0.01446760  0.79918335  0.80860511  1
  Pd  Pd164  1  0.60286659  0.19388977  0.39386306  1
  Pd  Pd165  1  0.59111993  0.59398026  -0.00218934  1
  Pd  Pd166  1  0.20614062  0.40977356  0.21452787  1
  Pd  Pd167  1  -0.00676014  -0.00459780  0.60483961  1
  Pd  Pd168  1  0.60678738  0.78794419  -0.00763018  1
  Pd  Pd169  1  0.80447085  0.59423921  0.20570413  1
  Pd  Pd170  1  0.19407758  0.59432620  0.60237080  1
  Pd  Pd171  1  0.60691296  0.19915017  0.60469274  1
  Pd  Pd172  1  0.80858917  0.20184394  0.80024802  1
  Pd  Pd173  1  0.58916332  0.39440605  0.79935868  1
  Pd  Pd174  1  0.59911980  -0.00356723  0.78763939  1
  Pd  Pd175  1  0.60043186  0.20483324  0.00144348  1
  Pd  Pd176  1  0.80293370  0.21164899  0.40813279  1
  Pd  Pd177  1  0.19795053  0.39775087  0.59508889  1
  Pd  Pd178  1  0.80259377  -0.00596264  0.40207488  1
  Pd  Pd179  1  0.78462861  0.39102901  0.41006148  1
  Pd  Pd180  1  0.80165562  -0.00152006  0.60975401  1
  Pd  Pd181  1  0.19862867  0.00030285  0.39939689  1
  Pd  Pd182  1  0.40636799  0.39781188  0.78957132  1
  Pd  Pd183  1  0.79766705  0.21400718  0.59315933  1
  Pd  Pd184  1  -0.00294525  0.40069936  0.79704175  1
  Pd  Pd185  1  0.01021883  0.59649161  0.79971176  1
  Pd  Pd186  1  0.80109634  0.79895771  0.39303734  1
  Pd  Pd187  1  0.60250778  0.40232895  0.59469092  1
  Pd  Pd188  1  0.80489820  0.40201842  0.19417577  1
  Pd  Pd189  1  0.19977079  0.40021384  0.80031134  1
  Pd  Pd190  1  0.39735556  0.59793688  0.80298818  1
  Pd  Pd191  1  0.79481698  0.60564349  0.39949037  1
  Pd  Pd192  1  0.39870635  0.00584546  0.40350427  1
  Pd  Pd193  1  -0.01069695  0.60776589  0.39976897  1
  Pd  Pd194  1  0.60625406  0.40710306  -0.00864508  1
  Pd  Pd195  1  0.40271300  0.60911257  0.40907795  1
  Pd  Pd196  1  0.39525887  0.79911941  0.19416634  1
  Pd  Pd197  1  0.60847387  0.00595638  0.00403284  1
  Pd  Pd198  1  0.79590128  0.60046418  0.60898968  1
  Pd  Pd199  1  0.39695610  0.40345202  0.00464330  1
  Rh  Rh200  1  0.00369485  -0.00192012  0.79162659  1
  Rh  Rh201  1  -0.01194049  0.01272632  -0.00014629  1
  Rh  Rh202  1  0.40474989  0.20194180  0.79071141  1
  Rh  Rh203  1  0.39560738  0.20526350  0.59974092  1
  Rh  Rh204  1  0.80172692  0.79637543  0.60924427  1
  Rh  Rh205  1  0.20299669  0.59211145  0.40082163  1
  Rh  Rh206  1  0.60742611  0.40395657  0.40658257  1
  Rh  Rh207  1  0.20281707  0.00024151  0.20524915  1
  Rh  Rh208  1  -0.00279273  0.19785324  0.59062509  1
  Rh  Rh209  1  0.40186060  0.39991985  0.60392330  1
  Rh  Rh210  1  0.59428731  0.39737296  0.20389832  1
  Rh  Rh211  1  0.38936740  0.39429688  0.39238273  1
  Rh  Rh212  1  0.59488420  0.60480201  0.79405736  1
  Rh  Rh213  1  0.60042621  0.59303383  0.60240440  1
  Rh  Rh214  1  0.19787407  0.20205874  0.60152754  1
  Rh  Rh215  1  0.20954039  0.39069127  -0.00723466  1
  Rh  Rh216  1  -0.01201303  0.39136537  0.00718090  1
  Rh  Rh217  1  0.40246086  0.00721902  0.60296066  1
  Rh  Rh218  1  0.01055842  0.00670373  0.20287265  1
  Rh  Rh219  1  0.80975945  0.20401618  -0.00760227  1
  Rh  Rh220  1  -0.00477552  0.79010864  0.21382593  1
  Rh  Rh221  1  -0.00107918  0.00266202  0.39946124  1
  Rh  Rh222  1  0.80008191  0.60265278  0.79465166  1
  Rh  Rh223  1  -0.00063897  0.59892151  0.00315108  1
  Rh  Rh224  1  0.60228158  0.80193196  0.20568814  1
  Rh  Rh225  1  0.01542361  0.38159328  0.38989645  1
  Rh  Rh226  1  0.38977681  0.59181616  0.19103037  1
  Rh  Rh227  1  0.19586579  0.80443928  0.59658489  1
  Rh  Rh228  1  0.20801579  0.60548226  -0.00588814  1
  Rh  Rh229  1  0.60351582  0.60696165  0.40361406  1
  Rh  Rh230  1  0.60245360  0.59492477  0.19969018  1
  Rh  Rh231  1  0.19255496  0.80938909  0.40024038  1
  Rh  Rh232  1  0.39652609  0.78921336  0.59364232  1
  Rh  Rh233  1  0.41326813  0.80202716  0.79748081  1
  Rh  Rh234  1  0.39968712  0.00330233  -0.00453570  1
  Rh  Rh235  1  0.20163664  0.19727796  0.79843432  1
  Rh  Rh236  1  0.00338763  0.79254002  -0.00995811  1
  Rh  Rh237  1  0.40231398  0.00016844  0.20546748  1
  Rh  Rh238  1  0.60511226  0.80316232  0.60290232  1
  Rh  Rh239  1  0.79783078  0.59312744  -0.00501483  1
  Rh  Rh240  1  0.21369305  -0.00224098  -0.00659568  1
  Rh  Rh241  1  0.19478442  0.20197346  0.40382889  1
  Rh  Rh242  1  -0.00530894  0.80383024  0.59634133  1
  Rh  Rh243  1  -0.00704555  0.40288098  0.61217244  1
  Rh  Rh244  1  0.79158571  0.78903022  0.80378299  1
  Rh  Rh245  1  0.39220905  0.20247560  0.39970537  1
  Rh  Rh246  1  0.19897455  0.19036590  0.18966322  1
  Rh  Rh247  1  0.39619491  0.20425745  0.00404689  1
  Rh  Rh248  1  0.20128341  -0.00176892  0.60684046  1
  Rh  Rh249  1  0.80562521  0.40379914  0.79760717  1
