# generated using pymatgen
data_ZrScNbPdRh
_symmetry_space_group_name_H-M   'P 1'
_cell_length_a   16.55645141
_cell_length_b   16.55801380
_cell_length_c   16.56014822
_cell_angle_alpha   90.03289122
_cell_angle_beta   89.99055196
_cell_angle_gamma   89.99162948
_symmetry_Int_Tables_number   1
_chemical_formula_structural   ZrScNbPdRh
_chemical_formula_sum   'Zr50 Sc50 Nb50 Pd50 Rh50'
_cell_volume   4539.83048256
_cell_formula_units_Z   50
loop_
 _symmetry_equiv_pos_site_id
 _symmetry_equiv_pos_as_xyz
  1  'x, y, z'
loop_
 _atom_site_type_symbol
 _atom_site_label
 _atom_site_symmetry_multiplicity
 _atom_site_fract_x
 _atom_site_fract_y
 _atom_site_fract_z
 _atom_site_occupancy
  Zr  Zr0  1  0.49237646  0.89804214  0.70871917  1
  Zr  Zr1  1  0.88457659  0.50050259  0.90614778  1
  Zr  Zr2  1  0.29486181  0.69998170  0.89951587  1
  Zr  Zr3  1  0.30080901  0.70037887  0.29304188  1
  Zr  Zr4  1  0.89765530  0.90199264  0.70603548  1
  Zr  Zr5  1  0.89935954  0.09311937  0.10216658  1
  Zr  Zr6  1  0.90271036  0.09808888  0.90209209  1
  Zr  Zr7  1  0.69442554  0.30176277  0.49583603  1
  Zr  Zr8  1  0.50294651  0.10508739  0.10253318  1
  Zr  Zr9  1  0.09669465  0.89530314  0.09183585  1
  Zr  Zr10  1  0.09467430  0.29800563  0.89893063  1
  Zr  Zr11  1  0.89771559  0.09726230  0.29967740  1
  Zr  Zr12  1  0.29467182  0.90769417  0.48756087  1
  Zr  Zr13  1  0.49776954  0.49060928  0.90457238  1
  Zr  Zr14  1  0.49622931  0.49065804  0.29912752  1
  Zr  Zr15  1  0.30397451  0.49953223  0.09613451  1
  Zr  Zr16  1  0.70266933  0.29693094  0.10246503  1
  Zr  Zr17  1  0.29859662  0.10787336  0.50304261  1
  Zr  Zr18  1  0.50516832  0.49990197  0.70786100  1
  Zr  Zr19  1  0.90116851  0.70188182  0.69435366  1
  Zr  Zr20  1  0.69910042  0.69887035  0.49851356  1
  Zr  Zr21  1  0.10780485  0.50242814  0.10536921  1
  Zr  Zr22  1  0.09549671  0.49605642  0.69941389  1
  Zr  Zr23  1  0.51436940  0.70178022  0.29090560  1
  Zr  Zr24  1  0.70185930  0.09667778  0.69859236  1
  Zr  Zr25  1  0.90214052  0.90719583  0.90041034  1
  Zr  Zr26  1  0.50847702  0.10263297  0.30836357  1
  Zr  Zr27  1  0.70342222  0.30129233  0.90278896  1
  Zr  Zr28  1  0.49307300  0.29241034  0.48951070  1
  Zr  Zr29  1  0.10447240  0.70205138  0.90369000  1
  Zr  Zr30  1  0.09642615  0.70040908  0.70801660  1
  Zr  Zr31  1  0.29920934  0.49505618  0.49342641  1
  Zr  Zr32  1  0.49959312  0.89918045  0.50516957  1
  Zr  Zr33  1  0.31006993  0.30882141  0.31067390  1
  Zr  Zr34  1  0.10542927  0.10484405  0.09815089  1
  Zr  Zr35  1  0.69156930  0.70528323  0.10562130  1
  Zr  Zr36  1  0.69478615  0.29417662  0.30117269  1
  Zr  Zr37  1  0.70029694  0.90596877  0.70113792  1
  Zr  Zr38  1  0.69075356  0.49630999  0.88446260  1
  Zr  Zr39  1  0.70170333  0.89975629  0.90074647  1
  Zr  Zr40  1  0.09164063  0.70216178  0.50047337  1
  Zr  Zr41  1  0.10105210  0.50081499  0.29972646  1
  Zr  Zr42  1  0.29486983  0.49632286  0.29324458  1
  Zr  Zr43  1  0.89009428  0.49415442  0.69674529  1
  Zr  Zr44  1  0.10161778  0.09902217  0.89474667  1
  Zr  Zr45  1  0.90235566  0.30422735  0.89786765  1
  Zr  Zr46  1  0.10335975  0.69973602  0.09912932  1
  Zr  Zr47  1  0.29829088  0.10474974  0.10632864  1
  Zr  Zr48  1  0.10712998  0.90133753  0.30996276  1
  Zr  Zr49  1  0.50593835  0.09532586  0.70638638  1
  Sc  Sc50  1  0.29363487  0.69548268  0.09130434  1
  Sc  Sc51  1  0.30543951  0.89337190  0.88758571  1
  Sc  Sc52  1  0.09517226  0.49659398  0.89062290  1
  Sc  Sc53  1  0.50318666  0.49835197  0.49994088  1
  Sc  Sc54  1  0.09094466  0.29711220  0.70250263  1
  Sc  Sc55  1  0.08909091  0.29741484  0.50633869  1
  Sc  Sc56  1  0.30096371  0.70682602  0.50004743  1
  Sc  Sc57  1  0.09373805  0.89845994  0.89781864  1
  Sc  Sc58  1  0.50066014  0.70844549  0.69649270  1
  Sc  Sc59  1  0.30822411  0.89941242  0.11277886  1
  Sc  Sc60  1  0.89576426  0.49305585  0.10436831  1
  Sc  Sc61  1  0.89797372  0.70305021  0.11482933  1
  Sc  Sc62  1  0.70096985  0.69485332  0.69481785  1
  Sc  Sc63  1  0.08766270  0.69446126  0.30437639  1
  Sc  Sc64  1  0.90276808  0.90651274  0.29324861  1
  Sc  Sc65  1  0.09388555  0.10006834  0.50788852  1
  Sc  Sc66  1  0.90148715  0.70257282  0.89205982  1
  Sc  Sc67  1  0.49092807  0.30034635  0.70266214  1
  Sc  Sc68  1  0.29621294  0.30038202  0.10753266  1
  Sc  Sc69  1  0.70477675  0.49781367  0.30625467  1
  Sc  Sc70  1  0.70277803  0.10463793  0.10786761  1
  Sc  Sc71  1  0.69570597  0.90169411  0.50563294  1
  Sc  Sc72  1  0.09166991  0.50210114  0.49242242  1
  Sc  Sc73  1  0.90014582  0.50108867  0.30232343  1
  Sc  Sc74  1  0.70305953  0.68901975  0.90946626  1
  Sc  Sc75  1  0.09998016  0.10657878  0.29482720  1
  Sc  Sc76  1  0.50838558  0.89219967  0.11542832  1
  Sc  Sc77  1  0.49676844  0.10692897  0.89135896  1
  Sc  Sc78  1  0.70751195  0.50129712  0.50111538  1
  Sc  Sc79  1  0.50229075  0.30097695  0.08996418  1
  Sc  Sc80  1  0.30448746  0.48593542  0.70580707  1
  Sc  Sc81  1  0.09682773  0.90026873  0.49625216  1
  Sc  Sc82  1  0.30859232  0.29929152  0.88376509  1
  Sc  Sc83  1  0.69879425  0.10005385  0.89378253  1
  Sc  Sc84  1  0.69325631  0.09392336  0.50954433  1
  Sc  Sc85  1  0.30240544  0.10636002  0.89026156  1
  Sc  Sc86  1  0.69896906  0.90612371  0.10711543  1
  Sc  Sc87  1  0.89646680  0.30261821  0.29280827  1
  Sc  Sc88  1  0.90134479  0.90216214  0.49675705  1
  Sc  Sc89  1  0.90086558  0.30109868  0.51017130  1
  Sc  Sc90  1  0.51147791  0.69413305  0.90494313  1
  Sc  Sc91  1  0.50567985  0.29697385  0.89438627  1
  Sc  Sc92  1  0.90242565  0.69978191  0.49963751  1
  Sc  Sc93  1  0.70037912  0.30018737  0.70108652  1
  Sc  Sc94  1  0.50901579  0.70592132  0.50361998  1
  Sc  Sc95  1  0.09989727  0.30276911  0.29523783  1
  Sc  Sc96  1  0.29890248  0.08768522  0.30448549  1
  Sc  Sc97  1  0.89123603  0.29850017  0.09477335  1
  Sc  Sc98  1  0.70611865  0.50085311  0.08821018  1
  Sc  Sc99  1  0.10265451  0.29569550  0.10180518  1
  Nb  Nb100  1  0.49574002  0.09607459  0.50176293  1
  Nb  Nb101  1  0.70201385  0.09913057  0.29757194  1
  Nb  Nb102  1  0.10206532  0.90961947  0.70064997  1
  Nb  Nb103  1  0.69375129  0.91176716  0.29756261  1
  Nb  Nb104  1  0.70727594  0.70140013  0.29909938  1
  Nb  Nb105  1  0.90033117  0.30061785  0.69817466  1
  Nb  Nb106  1  0.49972556  0.90204616  0.89917369  1
  Nb  Nb107  1  0.30382161  0.70767743  0.70277507  1
  Nb  Nb108  1  0.50413929  0.70218070  0.10233697  1
  Nb  Nb109  1  0.69812649  0.49730806  0.69697525  1
  Nb  Nb110  1  0.10403051  0.09384221  0.69941962  1
  Nb  Nb111  1  0.89654389  0.10332137  0.50292154  1
  Nb  Nb112  1  0.29172843  0.10006614  0.69713184  1
  Nb  Nb113  1  0.30542042  0.89616037  0.69575510  1
  Nb  Nb114  1  0.89940952  0.49705724  0.50572827  1
  Nb  Nb115  1  0.90206260  0.90436168  0.09358117  1
  Nb  Nb116  1  0.49595370  0.90252802  0.30042766  1
  Nb  Nb117  1  0.29977372  0.29473971  0.68439704  1
  Nb  Nb118  1  0.50374792  0.29945274  0.30259859  1
  Nb  Nb119  1  0.90165830  0.10017347  0.69042317  1
  Nb  Nb120  1  0.30236885  0.29817595  0.50662786  1
  Nb  Nb121  1  0.89237920  0.70309820  0.30381749  1
  Nb  Nb122  1  0.49858926  0.49817259  0.09876625  1
  Nb  Nb123  1  0.30445059  0.89856964  0.30056881  1
  Nb  Nb124  1  0.30119055  0.50054826  0.90170052  1
  Nb  Nb125  1  0.59695563  0.39897855  0.19804053  1
  Nb  Nb126  1  0.39690265  0.60081737  0.79981515  1
  Nb  Nb127  1  0.39352421  0.60117630  0.60302451  1
  Nb  Nb128  1  0.40670820  0.20426994  0.20899208  1
  Nb  Nb129  1  0.40439148  0.80252717  0.39041513  1
  Nb  Nb130  1  0.59938603  0.39993183  0.60122160  1
  Nb  Nb131  1  0.80031902  0.19034976  0.40271108  1
  Nb  Nb132  1  0.39353087  0.00255589  0.60351691  1
  Nb  Nb133  1  0.40763623  0.59932319  0.19499140  1
  Nb  Nb134  1  0.20371638  0.40156171  -0.00783659  1
  Nb  Nb135  1  0.40295171  -0.00297373  -0.00038587  1
  Nb  Nb136  1  0.60131373  0.80309449  0.80469409  1
  Nb  Nb137  1  0.19860705  0.80152517  0.20378673  1
  Nb  Nb138  1  0.20510690  0.60121219  0.60594217  1
  Nb  Nb139  1  0.81012432  0.19981983  0.79316925  1
  Nb  Nb140  1  0.20052211  0.80173451  0.60788607  1
  Nb  Nb141  1  -0.00083802  0.59974569  0.00225797  1
  Nb  Nb142  1  0.79288560  0.80092983  0.38900773  1
  Nb  Nb143  1  0.40309642  0.60527702  0.39629247  1
  Nb  Nb144  1  0.59117834  -0.00264424  -0.00126931  1
  Nb  Nb145  1  0.80364460  0.80595350  0.00621953  1
  Nb  Nb146  1  0.20184976  0.39733747  0.59759320  1
  Nb  Nb147  1  0.20460107  0.20560903  0.40796288  1
  Nb  Nb148  1  0.20857431  -0.00018280  -0.00066380  1
  Nb  Nb149  1  0.40993775  0.80192491  0.00252246  1
  Pd  Pd150  1  0.79637774  -0.00184683  0.40618587  1
  Pd  Pd151  1  0.00094580  0.59481603  0.59918322  1
  Pd  Pd152  1  0.60467189  0.19217580  -0.00537817  1
  Pd  Pd153  1  -0.00387627  0.19254607  0.79184274  1
  Pd  Pd154  1  0.40610875  0.60859980  -0.00089061  1
  Pd  Pd155  1  -0.00253926  0.20154367  0.40020059  1
  Pd  Pd156  1  0.00495574  0.80435114  0.20768201  1
  Pd  Pd157  1  0.79745485  0.81181482  0.20077847  1
  Pd  Pd158  1  0.20255148  0.60801799  0.40547872  1
  Pd  Pd159  1  0.60044158  0.59198283  0.00304681  1
  Pd  Pd160  1  0.60279657  0.80621663  0.39427164  1
  Pd  Pd161  1  -0.00593905  0.39607801  0.39876120  1
  Pd  Pd162  1  0.39406485  0.20078454  0.00320508  1
  Pd  Pd163  1  0.80756122  0.39088582  0.40208868  1
  Pd  Pd164  1  0.59480176  0.59552991  0.60025424  1
  Pd  Pd165  1  0.59277491  0.20660753  0.60225971  1
  Pd  Pd166  1  -0.00611081  0.59792313  0.19892254  1
  Pd  Pd167  1  0.60393998  0.58628429  0.19698555  1
  Pd  Pd168  1  0.79869490  0.80275741  0.59047690  1
  Pd  Pd169  1  -0.00034517  0.39666927  0.19484571  1
  Pd  Pd170  1  0.20171810  -0.00523735  0.59683491  1
  Pd  Pd171  1  -0.00304641  0.19887259  0.00677861  1
  Pd  Pd172  1  0.79135527  0.79054587  0.80656283  1
  Pd  Pd173  1  -0.00926827  0.59356005  0.80548634  1
  Pd  Pd174  1  0.20683193  -0.00573758  0.80617713  1
  Pd  Pd175  1  0.20223406  0.79052735  0.39864817  1
  Pd  Pd176  1  0.18773887  0.39004385  0.40898406  1
  Pd  Pd177  1  0.19315916  0.80961753  0.79571600  1
  Pd  Pd178  1  -0.01208355  0.78965054  -0.00097505  1
  Pd  Pd179  1  0.59828588  0.59465173  0.39888665  1
  Pd  Pd180  1  0.20194613  0.39129324  0.79663239  1
  Pd  Pd181  1  0.00534552  0.81073526  0.60388199  1
  Pd  Pd182  1  0.79768140  0.20349631  0.59847131  1
  Pd  Pd183  1  0.79711644  0.60512835  0.79474769  1
  Pd  Pd184  1  0.00345650  0.00638896  0.40070642  1
  Pd  Pd185  1  0.00692615  0.40751759  0.00554484  1
  Pd  Pd186  1  0.20946967  0.20477969  -0.00878466  1
  Pd  Pd187  1  0.40918989  0.19126246  0.60666878  1
  Pd  Pd188  1  0.00958113  -0.00162123  0.19877231  1
  Pd  Pd189  1  0.40762081  0.00760616  0.19985062  1
  Pd  Pd190  1  0.80588656  0.60314062  0.40627940  1
  Pd  Pd191  1  -0.00476092  -0.00333938  0.59953534  1
  Pd  Pd192  1  0.60174059  0.00058870  0.40410450  1
  Pd  Pd193  1  0.20746333  0.59453799  0.79487160  1
  Pd  Pd194  1  0.39353483  0.38690577  -0.00155843  1
  Pd  Pd195  1  0.19388075  -0.00798647  0.19617962  1
  Pd  Pd196  1  0.78855125  0.00209710  0.00507579  1
  Pd  Pd197  1  0.79616172  0.59389343  0.19793275  1
  Pd  Pd198  1  -0.00715168  0.20465158  0.19458138  1
  Pd  Pd199  1  0.19897269  0.20733524  0.79142029  1
  Rh  Rh200  1  0.21720186  0.81688492  0.00833461  1
  Rh  Rh201  1  0.18836008  0.20720732  0.60037530  1
  Rh  Rh202  1  0.41294918  0.78400987  0.81411513  1
  Rh  Rh203  1  0.79973378  -0.00158729  0.19849736  1
  Rh  Rh204  1  0.39152466  0.00799673  0.79585781  1
  Rh  Rh205  1  0.00219040  0.19501828  0.60616689  1
  Rh  Rh206  1  0.60805431  0.80342490  0.61289724  1
  Rh  Rh207  1  0.18760703  0.58629529  -0.01131873  1
  Rh  Rh208  1  0.59983425  0.39131424  0.79242108  1
  Rh  Rh209  1  0.40620657  0.40536817  0.40840776  1
  Rh  Rh210  1  0.79240541  0.39781061  0.59946303  1
  Rh  Rh211  1  0.19779492  0.39516801  0.19475238  1
  Rh  Rh212  1  0.21394535  0.20710842  0.22084942  1
  Rh  Rh213  1  0.18826308  0.01667280  0.40172936  1
  Rh  Rh214  1  0.39632803  0.19749749  0.78839516  1
  Rh  Rh215  1  0.60349541  0.80715520  -0.00270329  1
  Rh  Rh216  1  0.59737884  0.00407488  0.19850274  1
  Rh  Rh217  1  0.81259510  0.61439332  0.00981513  1
  Rh  Rh218  1  0.60232896  -0.00436029  0.80703492  1
  Rh  Rh219  1  0.39357761  0.19244624  0.39363823  1
  Rh  Rh220  1  0.00210490  0.40320490  0.60137438  1
  Rh  Rh221  1  -0.00989842  0.59684961  0.39957439  1
  Rh  Rh222  1  0.80604810  -0.00295251  0.59639062  1
  Rh  Rh223  1  0.40167888  0.40152880  0.80136662  1
  Rh  Rh224  1  0.40723949  -0.00309832  0.40521030  1
  Rh  Rh225  1  0.60878763  0.18926407  0.40680573  1
  Rh  Rh226  1  0.40231782  0.40573700  0.59544313  1
  Rh  Rh227  1  -0.00014684  0.00341421  0.79272376  1
  Rh  Rh228  1  0.79498481  0.39832405  -0.00070496  1
  Rh  Rh229  1  0.01169256  0.00757925  0.00145678  1
  Rh  Rh230  1  0.79933386  0.39284773  0.79482927  1
  Rh  Rh231  1  0.80113390  0.19509256  -0.00833176  1
  Rh  Rh232  1  0.59502141  0.20717552  0.19985764  1
  Rh  Rh233  1  -0.01042413  0.40492848  0.79796591  1
  Rh  Rh234  1  0.80676071  0.01099689  0.79648888  1
  Rh  Rh235  1  0.58911722  -0.00348709  0.60329386  1
  Rh  Rh236  1  0.00230394  0.80606462  0.79754665  1
  Rh  Rh237  1  0.80411252  0.19669056  0.20786719  1
  Rh  Rh238  1  0.39613919  0.79068369  0.19780304  1
  Rh  Rh239  1  0.60985774  0.80631737  0.20862337  1
  Rh  Rh240  1  0.78969167  0.40217292  0.20090315  1
  Rh  Rh241  1  0.60830518  0.20391688  0.79695968  1
  Rh  Rh242  1  0.39110310  0.80442000  0.58640630  1
  Rh  Rh243  1  -0.01427851  0.80185081  0.39422043  1
  Rh  Rh244  1  0.60378909  0.40070592  0.00402104  1
  Rh  Rh245  1  0.59767072  0.60823189  0.79457867  1
  Rh  Rh246  1  0.40950437  0.39537350  0.19046324  1
  Rh  Rh247  1  0.20309363  0.60700241  0.20162096  1
  Rh  Rh248  1  0.80286982  0.59921457  0.59693382  1
  Rh  Rh249  1  0.59948430  0.40435150  0.40228196  1
