# generated using pymatgen
data_ZrScNbPdRh
_symmetry_space_group_name_H-M   'P 1'
_cell_length_a   16.55491273
_cell_length_b   16.55416104
_cell_length_c   16.55284734
_cell_angle_alpha   89.99765938
_cell_angle_beta   90.00706691
_cell_angle_gamma   90.00567097
_symmetry_Int_Tables_number   1
_chemical_formula_structural   ZrScNbPdRh
_chemical_formula_sum   'Zr50 Sc50 Nb50 Pd50 Rh50'
_cell_volume   4536.35230028
_cell_formula_units_Z   50
loop_
 _symmetry_equiv_pos_site_id
 _symmetry_equiv_pos_as_xyz
  1  'x, y, z'
loop_
 _atom_site_type_symbol
 _atom_site_label
 _atom_site_symmetry_multiplicity
 _atom_site_fract_x
 _atom_site_fract_y
 _atom_site_fract_z
 _atom_site_occupancy
  Zr  Zr0  1  0.89666616  0.50141609  0.90235144  1
  Zr  Zr1  1  0.49686592  0.30301972  0.50083946  1
  Zr  Zr2  1  0.29671098  0.09865214  0.10168266  1
  Zr  Zr3  1  0.49470169  0.89311639  0.49792380  1
  Zr  Zr4  1  0.69263805  0.09478302  0.09691323  1
  Zr  Zr5  1  0.29696795  0.49523890  0.70885186  1
  Zr  Zr6  1  0.70725089  0.70620365  0.10389263  1
  Zr  Zr7  1  0.50267917  0.49698510  0.69916145  1
  Zr  Zr8  1  0.88862206  0.49180458  0.70077317  1
  Zr  Zr9  1  0.29338972  0.69370077  0.89910570  1
  Zr  Zr10  1  0.70316812  0.69884126  0.69543636  1
  Zr  Zr11  1  0.69610569  0.29837432  0.29985470  1
  Zr  Zr12  1  0.09953332  0.09433062  0.29717237  1
  Zr  Zr13  1  0.69410690  0.69855233  0.30220756  1
  Zr  Zr14  1  0.09868645  0.49863127  0.50790134  1
  Zr  Zr15  1  0.10298891  0.89730501  0.29754618  1
  Zr  Zr16  1  0.09490075  0.70361626  0.68980517  1
  Zr  Zr17  1  0.09811317  0.49929659  0.10767612  1
  Zr  Zr18  1  0.29780610  0.70679579  0.09193521  1
  Zr  Zr19  1  0.09682178  0.10333454  0.89853656  1
  Zr  Zr20  1  0.89963022  0.69501934  0.90211637  1
  Zr  Zr21  1  0.29465818  0.89949691  0.10346455  1
  Zr  Zr22  1  0.50155105  0.29787980  0.10993883  1
  Zr  Zr23  1  0.30068352  0.29888202  0.30132529  1
  Zr  Zr24  1  0.49784997  0.69628160  0.31254376  1
  Zr  Zr25  1  0.50013311  0.30110675  0.29747126  1
  Zr  Zr26  1  0.30022326  0.30192398  0.89768268  1
  Zr  Zr27  1  0.70073468  0.90675004  0.90858678  1
  Zr  Zr28  1  0.89523513  0.30243245  0.90437394  1
  Zr  Zr29  1  0.90087901  0.30265637  0.10048753  1
  Zr  Zr30  1  0.09804751  0.10605255  0.70080577  1
  Zr  Zr31  1  0.10091633  0.09875475  0.09650017  1
  Zr  Zr32  1  0.89796434  0.49974102  0.29649523  1
  Zr  Zr33  1  0.89129170  0.49075401  0.50202511  1
  Zr  Zr34  1  0.90393496  0.49963933  0.10338007  1
  Zr  Zr35  1  0.50602156  0.69632219  0.49743165  1
  Zr  Zr36  1  0.89921718  0.10187395  0.30394766  1
  Zr  Zr37  1  0.50421524  0.90001000  0.30972014  1
  Zr  Zr38  1  0.50116976  0.49193338  0.09525379  1
  Zr  Zr39  1  0.89259334  0.71669143  0.50893616  1
  Zr  Zr40  1  0.10386657  0.89021537  0.50164514  1
  Zr  Zr41  1  0.89817359  0.90432539  0.30741496  1
  Zr  Zr42  1  0.10667927  0.69930967  0.10133489  1
  Zr  Zr43  1  0.10823643  0.30447822  0.50447763  1
  Zr  Zr44  1  0.11200924  0.50346285  0.89736972  1
  Zr  Zr45  1  0.70160417  0.30170429  0.49626178  1
  Zr  Zr46  1  0.30450441  0.89891982  0.68699929  1
  Zr  Zr47  1  0.09943500  0.69702127  0.89659667  1
  Zr  Zr48  1  0.69803729  0.50904239  0.10662611  1
  Zr  Zr49  1  0.49691986  0.50247637  0.49603187  1
  Sc  Sc50  1  0.30258745  0.70526740  0.49104822  1
  Sc  Sc51  1  0.29827305  0.69521592  0.69664020  1
  Sc  Sc52  1  0.89757845  0.69934624  0.70508472  1
  Sc  Sc53  1  0.29656625  0.48875653  0.49867652  1
  Sc  Sc54  1  0.70664245  0.69596017  0.90135757  1
  Sc  Sc55  1  0.10143110  0.50513205  0.29438660  1
  Sc  Sc56  1  0.10629642  0.70053592  0.29853245  1
  Sc  Sc57  1  0.89006125  0.30042357  0.29509025  1
  Sc  Sc58  1  0.89161855  0.90713824  0.89655407  1
  Sc  Sc59  1  0.70289939  0.09584439  0.90347544  1
  Sc  Sc60  1  0.50544559  0.10465007  0.29858121  1
  Sc  Sc61  1  0.88567073  0.89163286  0.10496823  1
  Sc  Sc62  1  0.10098631  0.30232814  0.09886882  1
  Sc  Sc63  1  0.10175504  0.49938628  0.69266285  1
  Sc  Sc64  1  0.70002565  0.29215722  0.10056247  1
  Sc  Sc65  1  0.90121359  0.89290963  0.70004266  1
  Sc  Sc66  1  0.29553089  0.50333492  0.30299666  1
  Sc  Sc67  1  0.29871596  0.10558282  0.89362269  1
  Sc  Sc68  1  0.50022375  0.90291170  0.70534259  1
  Sc  Sc69  1  0.50147550  0.49678192  0.30455332  1
  Sc  Sc70  1  0.08724182  0.91135065  0.89761833  1
  Sc  Sc71  1  0.89229675  0.29423120  0.51494965  1
  Sc  Sc72  1  0.29286310  0.49419151  0.09833683  1
  Sc  Sc73  1  0.69959331  0.10224642  0.70444203  1
  Sc  Sc74  1  0.70426782  0.11323540  0.49353340  1
  Sc  Sc75  1  0.09882087  0.29982482  0.69795442  1
  Sc  Sc76  1  0.49918756  0.90404597  0.09232489  1
  Sc  Sc77  1  0.10557540  0.29136355  0.89887794  1
  Sc  Sc78  1  0.50005743  0.90667494  0.89822012  1
  Sc  Sc79  1  0.50356694  0.30743460  0.90122718  1
  Sc  Sc80  1  0.70039677  0.10181034  0.29837912  1
  Sc  Sc81  1  0.69820083  0.50543197  0.50611766  1
  Sc  Sc82  1  0.69782733  0.30329709  0.70007415  1
  Sc  Sc83  1  0.89932511  0.11008053  0.09981399  1
  Sc  Sc84  1  0.70711328  0.90347565  0.71409401  1
  Sc  Sc85  1  0.50518086  0.10270960  0.49400425  1
  Sc  Sc86  1  0.10207077  0.30455628  0.29742183  1
  Sc  Sc87  1  0.50818166  0.69820275  0.09792452  1
  Sc  Sc88  1  0.10118482  0.90485733  0.10392476  1
  Sc  Sc89  1  0.49910385  0.70531996  0.69528670  1
  Sc  Sc90  1  0.90013045  0.70063695  0.29591677  1
  Sc  Sc91  1  0.49888121  0.29417813  0.69836877  1
  Sc  Sc92  1  0.70206622  0.29781200  0.90325157  1
  Sc  Sc93  1  0.70336888  0.49528618  0.90036415  1
  Sc  Sc94  1  0.30742906  0.90335392  0.90689364  1
  Sc  Sc95  1  0.89621416  0.69222837  0.10223038  1
  Sc  Sc96  1  0.29407437  0.09018565  0.31071401  1
  Sc  Sc97  1  0.71034064  0.89551268  0.48696996  1
  Sc  Sc98  1  0.30351621  0.30421653  0.10333261  1
  Sc  Sc99  1  0.49508594  0.10515978  0.70832719  1
  Nb  Nb100  1  0.30729286  0.10178932  0.69920977  1
  Nb  Nb101  1  0.30728804  0.49894841  0.89811897  1
  Nb  Nb102  1  0.30601577  0.28523296  0.69855876  1
  Nb  Nb103  1  0.69948092  0.50488903  0.70440892  1
  Nb  Nb104  1  0.09268216  0.69651621  0.49987597  1
  Nb  Nb105  1  0.10390782  0.90077363  0.69486353  1
  Nb  Nb106  1  0.90372484  0.10125344  0.89101258  1
  Nb  Nb107  1  0.29925960  0.70064615  0.29404500  1
  Nb  Nb108  1  0.90147613  0.90726757  0.50050662  1
  Nb  Nb109  1  0.69841608  0.89682924  0.10109834  1
  Nb  Nb110  1  0.49595305  0.10520530  0.10315270  1
  Nb  Nb111  1  0.70163495  0.89988650  0.28436195  1
  Nb  Nb112  1  0.10658838  0.10350419  0.49505970  1
  Nb  Nb113  1  0.69388270  0.70195602  0.50288369  1
  Nb  Nb114  1  0.70786202  0.49733187  0.30489943  1
  Nb  Nb115  1  0.49428906  0.50199668  0.89893053  1
  Nb  Nb116  1  0.90263900  0.29607025  0.69988058  1
  Nb  Nb117  1  0.30110474  0.29511064  0.50095606  1
  Nb  Nb118  1  0.49826630  0.70246431  0.90001032  1
  Nb  Nb119  1  0.29683469  0.09650995  0.49594658  1
  Nb  Nb120  1  0.30409031  0.90608316  0.48956499  1
  Nb  Nb121  1  0.90424807  0.11175649  0.69211806  1
  Nb  Nb122  1  0.49570774  0.09789381  0.90389645  1
  Nb  Nb123  1  0.30109590  0.89555379  0.30967199  1
  Nb  Nb124  1  0.90326035  0.10277625  0.50241716  1
  Nb  Nb125  1  0.40128137  0.59508210  -0.00477185  1
  Nb  Nb126  1  0.00021727  0.00372587  0.59530212  1
  Nb  Nb127  1  0.39511053  0.79720265  0.80331640  1
  Nb  Nb128  1  0.39743141  0.60527219  0.19591830  1
  Nb  Nb129  1  0.60674704  0.80530799  0.59707930  1
  Nb  Nb130  1  0.39883071  -0.00489905  0.20479073  1
  Nb  Nb131  1  0.80571964  0.00442350  0.59589869  1
  Nb  Nb132  1  0.40161104  0.59550239  0.59794753  1
  Nb  Nb133  1  0.40485886  0.19905905  0.00362990  1
  Nb  Nb134  1  0.39904998  0.00446234  0.59233296  1
  Nb  Nb135  1  0.39849952  0.80026521  0.20468983  1
  Nb  Nb136  1  0.00200159  0.20185475  0.40577121  1
  Nb  Nb137  1  0.19889697  0.80815620  0.79463611  1
  Nb  Nb138  1  0.39357824  0.20121091  0.40338268  1
  Nb  Nb139  1  0.60582769  0.80287963  -0.00188504  1
  Nb  Nb140  1  0.80986528  0.19955274  0.79865023  1
  Nb  Nb141  1  0.60359153  -0.00440871  0.59685004  1
  Nb  Nb142  1  -0.00164733  0.59991094  0.40967856  1
  Nb  Nb143  1  -0.00294469  0.79761292  -0.00067994  1
  Nb  Nb144  1  -0.00412480  0.40025366  0.40395160  1
  Nb  Nb145  1  0.20150583  -0.00206308  0.78869875  1
  Nb  Nb146  1  0.20062255  0.19530487  0.20223870  1
  Nb  Nb147  1  0.21015170  0.19465843  0.59721948  1
  Nb  Nb148  1  -0.00492139  0.39859296  0.80031422  1
  Nb  Nb149  1  0.59542773  0.59713280  0.80118232  1
  Pd  Pd150  1  0.19648019  0.60222532  0.40558734  1
  Pd  Pd151  1  0.80872505  0.00615198  0.00716042  1
  Pd  Pd152  1  0.19863268  0.39839114  -0.00065615  1
  Pd  Pd153  1  -0.00295412  0.79885628  0.19284956  1
  Pd  Pd154  1  0.60492879  0.19819102  0.80754977  1
  Pd  Pd155  1  0.59769199  0.00739469  0.79791473  1
  Pd  Pd156  1  0.00237902  0.80351422  0.80422587  1
  Pd  Pd157  1  0.79102979  0.40286030  0.00957847  1
  Pd  Pd158  1  0.60303299  0.40249731  0.80135524  1
  Pd  Pd159  1  0.60360924  0.40484687  0.40122368  1
  Pd  Pd160  1  0.19944358  -0.00127378  -0.01306194  1
  Pd  Pd161  1  0.40524893  0.60693875  0.79604260  1
  Pd  Pd162  1  0.59080061  0.80354197  0.19550256  1
  Pd  Pd163  1  0.19422515  0.40426141  0.39483536  1
  Pd  Pd164  1  -0.01096560  -0.00423395  0.19204721  1
  Pd  Pd165  1  -0.01321812  0.59858089  0.60008120  1
  Pd  Pd166  1  0.59352133  0.19853262  -0.00501954  1
  Pd  Pd167  1  -0.00080425  0.20235330  -0.00121679  1
  Pd  Pd168  1  0.59246553  -0.00049775  0.19805087  1
  Pd  Pd169  1  0.00604757  0.20641825  0.20618910  1
  Pd  Pd170  1  0.39587564  0.41301867  0.20441428  1
  Pd  Pd171  1  0.60991482  -0.00068336  0.40455286  1
  Pd  Pd172  1  0.21024196  0.60276178  0.59344054  1
  Pd  Pd173  1  0.79222749  0.00680713  0.40213839  1
  Pd  Pd174  1  0.60015231  0.60520730  -0.00831469  1
  Pd  Pd175  1  0.80381813  0.00617248  0.19604941  1
  Pd  Pd176  1  0.40315501  0.39003169  0.79571347  1
  Pd  Pd177  1  0.80282956  0.60771555  0.40385333  1
  Pd  Pd178  1  0.20002543  0.00565687  0.59894066  1
  Pd  Pd179  1  0.79286948  0.39815352  0.19386043  1
  Pd  Pd180  1  0.19495029  0.39204438  0.79507684  1
  Pd  Pd181  1  0.80320326  0.60136578  0.59823146  1
  Pd  Pd182  1  0.18608899  0.81447228  -0.01330026  1
  Pd  Pd183  1  -0.00182845  -0.00164880  0.78726301  1
  Pd  Pd184  1  -0.01295175  -0.00785826  0.00972063  1
  Pd  Pd185  1  0.00936426  0.39944462  -0.00889271  1
  Pd  Pd186  1  0.59651133  0.79503386  0.80174658  1
  Pd  Pd187  1  0.00382290  0.60294357  0.00455507  1
  Pd  Pd188  1  0.60369011  0.40038418  0.59990566  1
  Pd  Pd189  1  0.60028885  0.19268729  0.60120386  1
  Pd  Pd190  1  0.60574818  0.39804658  0.00089325  1
  Pd  Pd191  1  0.00009605  0.79351508  0.39805169  1
  Pd  Pd192  1  0.79962538  0.79806788  0.80659194  1
  Pd  Pd193  1  0.00204867  0.58973369  0.79067972  1
  Pd  Pd194  1  0.00789822  0.00236376  0.40682729  1
  Pd  Pd195  1  0.39891296  0.00669216  0.00404576  1
  Pd  Pd196  1  0.79809946  0.79646758  0.39220694  1
  Pd  Pd197  1  0.20704710  0.79235662  0.59504987  1
  Pd  Pd198  1  0.59259158  0.59455735  0.20853053  1
  Pd  Pd199  1  0.39505217  0.40323268  0.60469288  1
  Rh  Rh200  1  0.61064162  0.59088601  0.39726686  1
  Rh  Rh201  1  0.40704575  0.20372862  0.81433010  1
  Rh  Rh202  1  0.40592678  0.00976074  0.39876272  1
  Rh  Rh203  1  0.59207565  0.20522356  0.39772932  1
  Rh  Rh204  1  0.79889632  0.60037646  0.20400356  1
  Rh  Rh205  1  0.80950706  0.01304719  0.78786781  1
  Rh  Rh206  1  0.80005944  0.79898053  -0.00398390  1
  Rh  Rh207  1  0.59585509  -0.00249605  0.00257987  1
  Rh  Rh208  1  0.41157689  0.79220751  0.00009020  1
  Rh  Rh209  1  0.60807571  0.40480316  0.20337439  1
  Rh  Rh210  1  0.19256328  -0.01059922  0.40105484  1
  Rh  Rh211  1  0.19961766  0.39426036  0.20247788  1
  Rh  Rh212  1  0.80273568  0.19337636  -0.00741878  1
  Rh  Rh213  1  0.78914460  0.39539723  0.60541187  1
  Rh  Rh214  1  0.78999786  0.19657529  0.60785535  1
  Rh  Rh215  1  0.80228010  0.39310249  0.40084373  1
  Rh  Rh216  1  0.59560055  0.60574789  0.60869693  1
  Rh  Rh217  1  0.80032974  0.39076043  0.79630633  1
  Rh  Rh218  1  0.40475486  0.79874074  0.60005248  1
  Rh  Rh219  1  0.00359356  0.60461773  0.20765089  1
  Rh  Rh220  1  0.20384011  0.80239452  0.20474584  1
  Rh  Rh221  1  0.38951293  0.18681393  0.20475509  1
  Rh  Rh222  1  0.19324998  0.60518841  0.79056153  1
  Rh  Rh223  1  -0.00496605  0.39900852  0.60336703  1
  Rh  Rh224  1  0.61098372  0.80483383  0.40079208  1
  Rh  Rh225  1  0.20896578  0.20417885  0.00958443  1
  Rh  Rh226  1  -0.00091143  0.39665379  0.20741534  1
  Rh  Rh227  1  0.21169202  0.38814327  0.61201358  1
  Rh  Rh228  1  0.20653496  0.00031545  0.20707918  1
  Rh  Rh229  1  0.39953233  0.19173830  0.58990969  1
  Rh  Rh230  1  0.20712214  0.60115015  0.19425092  1
  Rh  Rh231  1  -0.00531435  0.21000648  0.80666716  1
  Rh  Rh232  1  0.39994750  0.39829600  -0.00150344  1
  Rh  Rh233  1  0.20354738  0.19443307  0.79130130  1
  Rh  Rh234  1  0.39446759  -0.00500825  0.79380589  1
  Rh  Rh235  1  -0.00376333  0.80576619  0.60087917  1
  Rh  Rh236  1  0.39526187  0.79438325  0.39604157  1
  Rh  Rh237  1  0.80126536  0.79822763  0.20754706  1
  Rh  Rh238  1  0.60614201  0.19576684  0.20025578  1
  Rh  Rh239  1  0.19891480  0.79625792  0.40162604  1
  Rh  Rh240  1  0.79321661  0.59914592  0.80068282  1
  Rh  Rh241  1  0.80934616  0.20452573  0.39799905  1
  Rh  Rh242  1  0.20528162  0.59086724  0.00432634  1
  Rh  Rh243  1  0.79428110  0.19552250  0.19804103  1
  Rh  Rh244  1  0.39161674  0.59617904  0.39988358  1
  Rh  Rh245  1  0.79913121  0.59536800  0.00351332  1
  Rh  Rh246  1  0.39734929  0.39523269  0.39749491  1
  Rh  Rh247  1  0.79190332  0.81302392  0.60286652  1
  Rh  Rh248  1  0.01256569  0.19962134  0.59013017  1
  Rh  Rh249  1  0.19982485  0.20351267  0.39870073  1
