# generated using pymatgen
data_ZrScNbPdRh
_symmetry_space_group_name_H-M   'P 1'
_cell_length_a   16.55220591
_cell_length_b   16.55436744
_cell_length_c   16.55349010
_cell_angle_alpha   90.01237194
_cell_angle_beta   90.00404774
_cell_angle_gamma   90.02068901
_symmetry_Int_Tables_number   1
_chemical_formula_structural   ZrScNbPdRh
_chemical_formula_sum   'Zr50 Sc50 Nb50 Pd50 Rh50'
_cell_volume   4535.84290439
_cell_formula_units_Z   50
loop_
 _symmetry_equiv_pos_site_id
 _symmetry_equiv_pos_as_xyz
  1  'x, y, z'
loop_
 _atom_site_type_symbol
 _atom_site_label
 _atom_site_symmetry_multiplicity
 _atom_site_fract_x
 _atom_site_fract_y
 _atom_site_fract_z
 _atom_site_occupancy
  Zr  Zr0  1  0.30583807  0.89813251  0.09462363  1
  Zr  Zr1  1  0.89900569  0.70243346  0.89192590  1
  Zr  Zr2  1  0.90523375  0.90424211  0.50365506  1
  Zr  Zr3  1  0.29590733  0.70266945  0.48635861  1
  Zr  Zr4  1  0.90704700  0.30107073  0.30531034  1
  Zr  Zr5  1  0.70361887  0.90219901  0.50949040  1
  Zr  Zr6  1  0.49984751  0.49438177  0.70911403  1
  Zr  Zr7  1  0.49746897  0.50229730  0.50468789  1
  Zr  Zr8  1  0.89658286  0.09873700  0.50872416  1
  Zr  Zr9  1  0.28886177  0.50654135  0.29913652  1
  Zr  Zr10  1  0.69943480  0.49831308  0.29494553  1
  Zr  Zr11  1  0.70817800  0.30599989  0.89406911  1
  Zr  Zr12  1  0.90455836  0.69137825  0.69557666  1
  Zr  Zr13  1  0.48926028  0.09441621  0.50217285  1
  Zr  Zr14  1  0.09853019  0.50198599  0.50334855  1
  Zr  Zr15  1  0.09539543  0.10437703  0.29527544  1
  Zr  Zr16  1  0.50847582  0.29956590  0.10144267  1
  Zr  Zr17  1  0.50096262  0.09875488  0.89635137  1
  Zr  Zr18  1  0.30659150  0.10099439  0.50359705  1
  Zr  Zr19  1  0.29246198  0.29865842  0.30477110  1
  Zr  Zr20  1  0.90098385  0.49330906  0.89478517  1
  Zr  Zr21  1  0.70482410  0.09874213  0.70250577  1
  Zr  Zr22  1  0.49942672  0.29824369  0.89310132  1
  Zr  Zr23  1  0.30825161  0.89966952  0.89880638  1
  Zr  Zr24  1  0.48837675  0.70228494  0.09985257  1
  Zr  Zr25  1  0.09953723  0.90395990  0.09211848  1
  Zr  Zr26  1  0.30134820  0.09772184  0.89080671  1
  Zr  Zr27  1  0.09163223  0.30542278  0.50171911  1
  Zr  Zr28  1  0.08923704  0.08385307  0.50420498  1
  Zr  Zr29  1  0.10022247  0.30550914  0.30299488  1
  Zr  Zr30  1  0.90341822  0.29881500  0.70128580  1
  Zr  Zr31  1  0.50384598  0.50625190  0.30511282  1
  Zr  Zr32  1  0.29739861  0.10254199  0.69810837  1
  Zr  Zr33  1  0.29783628  0.50525098  0.10236181  1
  Zr  Zr34  1  0.89822951  0.69767442  0.29820933  1
  Zr  Zr35  1  0.89697387  0.09721705  0.10674925  1
  Zr  Zr36  1  0.70558706  0.09628932  0.50413212  1
  Zr  Zr37  1  0.49258725  0.10208905  0.30636858  1
  Zr  Zr38  1  0.48646876  0.69755901  0.50297237  1
  Zr  Zr39  1  0.69829880  0.30202527  0.29267929  1
  Zr  Zr40  1  0.29801521  0.90135575  0.50408599  1
  Zr  Zr41  1  0.70891789  0.09866214  0.29340107  1
  Zr  Zr42  1  0.29636215  0.29087697  0.50482232  1
  Zr  Zr43  1  0.69486040  0.10679529  0.09860348  1
  Zr  Zr44  1  0.10041932  0.09953462  0.09449832  1
  Zr  Zr45  1  0.70405682  0.29985229  0.50582900  1
  Zr  Zr46  1  0.09693276  0.09418784  0.89445174  1
  Zr  Zr47  1  0.89782169  0.49930755  0.30052329  1
  Zr  Zr48  1  0.10196543  0.69680889  0.89085322  1
  Zr  Zr49  1  0.29366871  0.90230280  0.70424250  1
  Sc  Sc50  1  0.90660786  0.89440772  0.69608244  1
  Sc  Sc51  1  0.49685505  0.89534236  0.29803034  1
  Sc  Sc52  1  0.90488537  0.30316527  0.88939402  1
  Sc  Sc53  1  0.09863529  0.70338422  0.70276496  1
  Sc  Sc54  1  0.69645075  0.90048785  0.69996877  1
  Sc  Sc55  1  0.70623250  0.70070011  0.70158635  1
  Sc  Sc56  1  0.09901490  0.90013710  0.89377670  1
  Sc  Sc57  1  0.90162012  0.50289797  0.70020512  1
  Sc  Sc58  1  0.28772143  0.30425824  0.09383342  1
  Sc  Sc59  1  0.29183843  0.09802775  0.08604688  1
  Sc  Sc60  1  0.69403662  0.70481345  0.10754191  1
  Sc  Sc61  1  0.89639671  0.49972281  0.50833399  1
  Sc  Sc62  1  0.08699002  0.69973599  0.10849192  1
  Sc  Sc63  1  0.70072629  0.49912841  0.49915046  1
  Sc  Sc64  1  0.90652665  0.30571756  0.09978736  1
  Sc  Sc65  1  0.10268167  0.49399552  0.89181037  1
  Sc  Sc66  1  0.68656048  0.09899990  0.89692770  1
  Sc  Sc67  1  0.10232471  0.30193623  0.69854806  1
  Sc  Sc68  1  0.49899530  0.10155501  0.70310977  1
  Sc  Sc69  1  0.10492562  0.70016371  0.50720708  1
  Sc  Sc70  1  0.29541665  0.49595888  0.89411566  1
  Sc  Sc71  1  0.09986110  0.30966226  0.90011158  1
  Sc  Sc72  1  0.29531584  0.10179012  0.31117652  1
  Sc  Sc73  1  0.50536721  0.29983353  0.70317206  1
  Sc  Sc74  1  0.71264191  0.69704624  0.50271404  1
  Sc  Sc75  1  0.70173330  0.69596919  0.30140740  1
  Sc  Sc76  1  0.70213880  0.49662316  0.70241034  1
  Sc  Sc77  1  0.50405212  0.89106120  0.09339615  1
  Sc  Sc78  1  0.69904946  0.89630354  0.10046790  1
  Sc  Sc79  1  0.30365424  0.70089366  0.70338797  1
  Sc  Sc80  1  0.10357290  0.69832448  0.30304254  1
  Sc  Sc81  1  0.10433145  0.90621047  0.30958034  1
  Sc  Sc82  1  0.90291374  0.49889616  0.10580038  1
  Sc  Sc83  1  0.29798313  0.90110125  0.30816353  1
  Sc  Sc84  1  0.70179162  0.89013759  0.29307288  1
  Sc  Sc85  1  0.50547299  0.10884291  0.08653729  1
  Sc  Sc86  1  0.90038042  0.10131022  0.30524599  1
  Sc  Sc87  1  0.50099401  0.29368154  0.50463949  1
  Sc  Sc88  1  0.29584420  0.30212005  0.89168121  1
  Sc  Sc89  1  0.30577138  0.70206010  0.89213367  1
  Sc  Sc90  1  0.69831515  0.29923312  0.69954917  1
  Sc  Sc91  1  0.10042378  0.30398981  0.10054108  1
  Sc  Sc92  1  0.89256013  0.89951313  0.29381528  1
  Sc  Sc93  1  0.49841943  0.51048076  0.10529726  1
  Sc  Sc94  1  0.50857171  0.30372380  0.29996623  1
  Sc  Sc95  1  0.50073822  0.89476627  0.69215506  1
  Sc  Sc96  1  0.29738889  0.51482283  0.50416362  1
  Sc  Sc97  1  0.29283252  0.50015036  0.70466655  1
  Sc  Sc98  1  0.90043762  0.70890811  0.10376204  1
  Sc  Sc99  1  0.70299050  0.71009836  0.89038283  1
  Nb  Nb100  1  0.90551312  0.30191374  0.50283164  1
  Nb  Nb101  1  0.69337616  0.30055031  0.09836789  1
  Nb  Nb102  1  0.69991570  0.49785339  0.09536165  1
  Nb  Nb103  1  0.51413844  0.90081260  0.90166295  1
  Nb  Nb104  1  0.50024451  0.69226354  0.70195702  1
  Nb  Nb105  1  0.09606569  0.50481907  0.69997361  1
  Nb  Nb106  1  0.89732227  0.89921225  0.91061668  1
  Nb  Nb107  1  0.90202122  0.69684897  0.50010200  1
  Nb  Nb108  1  0.69879326  0.90575872  0.89983009  1
  Nb  Nb109  1  0.09720241  0.89637076  0.50702531  1
  Nb  Nb110  1  0.49969519  0.90026769  0.49927550  1
  Nb  Nb111  1  0.10434812  0.90436758  0.68623980  1
  Nb  Nb112  1  0.10040963  0.49903462  0.09606192  1
  Nb  Nb113  1  0.90292107  0.89942564  0.09597079  1
  Nb  Nb114  1  0.90160656  0.10020477  0.89718625  1
  Nb  Nb115  1  0.70458689  0.50081171  0.89925088  1
  Nb  Nb116  1  0.30335633  0.29814123  0.69870009  1
  Nb  Nb117  1  0.49777272  0.69969671  0.30155487  1
  Nb  Nb118  1  0.30301773  0.69909951  0.09946906  1
  Nb  Nb119  1  0.30185464  0.69946805  0.29616425  1
  Nb  Nb120  1  0.09575060  0.50059043  0.29873756  1
  Nb  Nb121  1  0.50236807  0.69711750  0.89503271  1
  Nb  Nb122  1  0.90737740  0.10601167  0.71516980  1
  Nb  Nb123  1  0.50451414  0.49740550  0.89718165  1
  Nb  Nb124  1  0.09819782  0.08928981  0.70591040  1
  Nb  Nb125  1  -0.00283335  0.60107025  0.40115710  1
  Nb  Nb126  1  0.20658793  0.79690791  0.19592565  1
  Nb  Nb127  1  0.80144832  -0.00058084  -0.00466567  1
  Nb  Nb128  1  0.19673335  0.60504314  0.00382964  1
  Nb  Nb129  1  0.40193225  0.00666296  0.19656904  1
  Nb  Nb130  1  0.59504979  0.80071242  0.40789075  1
  Nb  Nb131  1  0.80631072  -0.00207900  0.80830049  1
  Nb  Nb132  1  0.80261849  0.19818321  -0.00353479  1
  Nb  Nb133  1  0.40636813  0.40405921  0.00028578  1
  Nb  Nb134  1  -0.00506367  0.19425464  -0.00545082  1
  Nb  Nb135  1  0.59464225  0.00293471  0.20312344  1
  Nb  Nb136  1  0.20301742  0.79224322  0.00425078  1
  Nb  Nb137  1  0.60183633  0.59841031  -0.00886837  1
  Nb  Nb138  1  0.39552509  0.40199308  0.40205187  1
  Nb  Nb139  1  0.60704950  0.19160015  0.40191836  1
  Nb  Nb140  1  0.00006014  -0.00183075  0.19510661  1
  Nb  Nb141  1  0.39707213  0.39918885  0.20165157  1
  Nb  Nb142  1  0.79686418  0.59727704  -0.00221471  1
  Nb  Nb143  1  0.60190651  0.40717365  -0.00240046  1
  Nb  Nb144  1  0.59393339  0.60286609  0.60547197  1
  Nb  Nb145  1  -0.00200332  0.79825098  0.40827026  1
  Nb  Nb146  1  0.39478244  0.39795365  0.60079234  1
  Nb  Nb147  1  -0.00083931  0.59614084  -0.00256505  1
  Nb  Nb148  1  0.39708641  0.20206801  0.19727184  1
  Nb  Nb149  1  0.60060815  -0.00416610  0.40063625  1
  Pd  Pd150  1  0.80398668  0.79904404  0.60517335  1
  Pd  Pd151  1  0.20424210  -0.00411557  0.20154645  1
  Pd  Pd152  1  0.79789647  -0.00906918  0.39629159  1
  Pd  Pd153  1  0.79918573  0.60347479  0.19021816  1
  Pd  Pd154  1  0.18587810  0.19187540  0.41095719  1
  Pd  Pd155  1  0.59991060  0.60392732  0.19484668  1
  Pd  Pd156  1  0.60330321  0.79091730  -0.00412831  1
  Pd  Pd157  1  0.20516515  0.19879996  0.19672769  1
  Pd  Pd158  1  0.19378042  0.20459329  0.79999272  1
  Pd  Pd159  1  0.19147308  0.60712991  0.19528842  1
  Pd  Pd160  1  0.00507535  0.19571305  0.60670317  1
  Pd  Pd161  1  0.79968139  0.80250083  0.40060326  1
  Pd  Pd162  1  0.00865470  0.81141499  0.21333752  1
  Pd  Pd163  1  0.19900518  0.00363689  0.40668804  1
  Pd  Pd164  1  0.80209778  0.39735061  0.00470441  1
  Pd  Pd165  1  0.79916519  0.20560871  0.40131694  1
  Pd  Pd166  1  0.20076604  0.60749359  0.60854616  1
  Pd  Pd167  1  0.60963341  0.60154221  0.79871803  1
  Pd  Pd168  1  0.59692405  0.19358679  0.59807316  1
  Pd  Pd169  1  0.39133048  0.20914672  0.00187790  1
  Pd  Pd170  1  0.41013405  -0.00622822  0.79320529  1
  Pd  Pd171  1  0.80671302  0.21260147  0.19340029  1
  Pd  Pd172  1  0.39389753  0.79983681  0.60337673  1
  Pd  Pd173  1  -0.00486339  -0.01349866  0.79708806  1
  Pd  Pd174  1  0.59649431  0.80336836  0.79592432  1
  Pd  Pd175  1  0.20395018  0.40744206  0.40852976  1
  Pd  Pd176  1  0.80521367  0.20100347  0.60705334  1
  Pd  Pd177  1  0.80153983  0.40148741  0.60460989  1
  Pd  Pd178  1  0.79337799  0.79672878  0.00476567  1
  Pd  Pd179  1  0.59682457  0.39231234  0.40874459  1
  Pd  Pd180  1  0.41232121  0.80471100  0.80035598  1
  Pd  Pd181  1  0.19228299  0.20309197  -0.01152221  1
  Pd  Pd182  1  0.80061375  0.39496395  0.19425042  1
  Pd  Pd183  1  0.60100373  0.78800639  0.59578565  1
  Pd  Pd184  1  0.00523457  0.40163859  0.19850909  1
  Pd  Pd185  1  0.39823950  0.59667041  -0.01209879  1
  Pd  Pd186  1  0.39564079  0.80662793  0.20551726  1
  Pd  Pd187  1  0.00241137  0.80707144  0.79637310  1
  Pd  Pd188  1  0.80307154  0.81016288  0.79238693  1
  Pd  Pd189  1  0.41044409  0.00001751  0.00404895  1
  Pd  Pd190  1  0.20406034  0.40307538  0.60159704  1
  Pd  Pd191  1  0.20451657  0.79246771  0.60521206  1
  Pd  Pd192  1  0.18599129  0.19164866  0.60030323  1
  Pd  Pd193  1  0.60602094  0.61123555  0.41042822  1
  Pd  Pd194  1  0.00095939  0.19644451  0.40544964  1
  Pd  Pd195  1  0.00651840  0.79131249  -0.00490153  1
  Pd  Pd196  1  0.59425193  0.00364143  0.60157713  1
  Pd  Pd197  1  0.39487389  0.59522012  0.80219864  1
  Pd  Pd198  1  0.40198333  0.80400397  0.39662612  1
  Pd  Pd199  1  0.80209878  0.39979841  0.40392631  1
  Rh  Rh200  1  0.40773062  0.21637383  0.39198139  1
  Rh  Rh201  1  0.39747655  -0.00457589  0.60662540  1
  Rh  Rh202  1  0.19737588  -0.00502493  0.80057126  1
  Rh  Rh203  1  0.19667847  0.40083527  0.19924414  1
  Rh  Rh204  1  0.39341031  0.59590229  0.39194572  1
  Rh  Rh205  1  0.00958242  0.20436768  0.80327704  1
  Rh  Rh206  1  0.80058597  0.59920723  0.80293486  1
  Rh  Rh207  1  0.60306004  0.20107992  0.79954638  1
  Rh  Rh208  1  0.00069756  0.19631686  0.19402161  1
  Rh  Rh209  1  0.40203908  0.59882915  0.20992576  1
  Rh  Rh210  1  -0.00451907  0.40994104  0.40531843  1
  Rh  Rh211  1  0.60975066  0.21263563  -0.01422774  1
  Rh  Rh212  1  0.20437974  -0.00809004  -0.01275544  1
  Rh  Rh213  1  0.19776591  0.39803191  0.79035741  1
  Rh  Rh214  1  -0.00184663  0.40236036  0.60338496  1
  Rh  Rh215  1  0.81141936  0.00353240  0.61763548  1
  Rh  Rh216  1  0.79941604  0.79795397  0.19545828  1
  Rh  Rh217  1  0.40224351  0.59262827  0.61328706  1
  Rh  Rh218  1  0.59630573  0.41053251  0.19192070  1
  Rh  Rh219  1  0.79832045  -0.00897045  0.19074050  1
  Rh  Rh220  1  0.59477040  0.40840398  0.60151501  1
  Rh  Rh221  1  -0.00678810  -0.00828599  0.39127416  1
  Rh  Rh222  1  0.19151795  0.60261544  0.39755575  1
  Rh  Rh223  1  0.00334842  0.60055732  0.59692491  1
  Rh  Rh224  1  0.20441085  0.40992011  0.00019216  1
  Rh  Rh225  1  0.79501081  0.19391046  0.80379932  1
  Rh  Rh226  1  0.40510619  0.20645703  0.61017883  1
  Rh  Rh227  1  0.20238831  0.00420396  0.59736119  1
  Rh  Rh228  1  0.59416256  0.79949524  0.21048087  1
  Rh  Rh229  1  0.00511524  0.40131851  0.79005913  1
  Rh  Rh230  1  0.40295886  0.79497917  -0.01250581  1
  Rh  Rh231  1  -0.00711703  0.00497086  0.00375795  1
  Rh  Rh232  1  0.19910047  0.59937340  0.80126812  1
  Rh  Rh233  1  0.19779603  0.80553801  0.80071518  1
  Rh  Rh234  1  0.00135608  0.40195403  -0.00103294  1
  Rh  Rh235  1  0.39456714  0.39649994  0.79815975  1
  Rh  Rh236  1  0.59386921  0.19154033  0.21097597  1
  Rh  Rh237  1  0.40016531  -0.01016529  0.39799393  1
  Rh  Rh238  1  0.60228562  -0.00564522  0.00795393  1
  Rh  Rh239  1  0.19279544  0.79819052  0.39513255  1
  Rh  Rh240  1  -0.00600054  0.00306249  0.61247025  1
  Rh  Rh241  1  0.60620014  0.39683868  0.80257593  1
  Rh  Rh242  1  0.00123943  0.59495252  0.80200753  1
  Rh  Rh243  1  0.80488178  0.59368645  0.40013945  1
  Rh  Rh244  1  0.59988920  -0.00502768  0.79504513  1
  Rh  Rh245  1  0.80218052  0.40174976  0.78962585  1
  Rh  Rh246  1  0.39838864  0.20055024  0.79626568  1
  Rh  Rh247  1  0.79374670  0.59717542  0.60242252  1
  Rh  Rh248  1  0.00026048  0.59431910  0.20216108  1
  Rh  Rh249  1  0.00272717  0.79453178  0.59577489  1
