# generated using pymatgen
data_ZrScNbPdRh
_symmetry_space_group_name_H-M   'P 1'
_cell_length_a   16.56501039
_cell_length_b   16.56151276
_cell_length_c   16.55925898
_cell_angle_alpha   90.00708412
_cell_angle_beta   89.97164975
_cell_angle_gamma   90.02817646
_symmetry_Int_Tables_number   1
_chemical_formula_structural   ZrScNbPdRh
_chemical_formula_sum   'Zr50 Sc50 Nb50 Pd50 Rh50'
_cell_volume   4542.89297542
_cell_formula_units_Z   50
loop_
 _symmetry_equiv_pos_site_id
 _symmetry_equiv_pos_as_xyz
  1  'x, y, z'
loop_
 _atom_site_type_symbol
 _atom_site_label
 _atom_site_symmetry_multiplicity
 _atom_site_fract_x
 _atom_site_fract_y
 _atom_site_fract_z
 _atom_site_occupancy
  Zr  Zr0  1  0.89940172  0.29935468  0.10517017  1
  Zr  Zr1  1  0.10186877  0.90043508  0.09893077  1
  Zr  Zr2  1  0.70696415  0.70170501  0.10848878  1
  Zr  Zr3  1  0.89869178  0.29882913  0.29701523  1
  Zr  Zr4  1  0.31121259  0.09471522  0.70226466  1
  Zr  Zr5  1  0.89840154  0.30723272  0.90906218  1
  Zr  Zr6  1  0.70144801  0.30134960  0.09555386  1
  Zr  Zr7  1  0.89953895  0.10158961  0.10917622  1
  Zr  Zr8  1  0.89956887  0.50347473  0.70239603  1
  Zr  Zr9  1  0.10133793  0.10064891  0.30295165  1
  Zr  Zr10  1  0.90389079  0.10548242  0.68802132  1
  Zr  Zr11  1  0.89412126  0.89692488  0.90013872  1
  Zr  Zr12  1  0.89955095  0.90387225  0.30279854  1
  Zr  Zr13  1  0.50403045  0.49222602  0.10011442  1
  Zr  Zr14  1  0.50396613  0.70383489  0.10312877  1
  Zr  Zr15  1  0.10474805  0.90382912  0.69187041  1
  Zr  Zr16  1  0.89716099  0.90982686  0.50127508  1
  Zr  Zr17  1  0.10003373  0.10605328  0.09878127  1
  Zr  Zr18  1  0.90665655  0.48684345  0.09745436  1
  Zr  Zr19  1  0.50647783  0.30542871  0.90401912  1
  Zr  Zr20  1  0.09755457  0.69474209  0.89969196  1
  Zr  Zr21  1  0.49675989  0.70025761  0.30420608  1
  Zr  Zr22  1  0.49810027  0.29751636  0.30094411  1
  Zr  Zr23  1  0.89489730  0.69990884  0.49370616  1
  Zr  Zr24  1  0.29081600  0.50093128  0.09347239  1
  Zr  Zr25  1  0.50143255  0.69709893  0.69701626  1
  Zr  Zr26  1  0.70685744  0.29660643  0.30632686  1
  Zr  Zr27  1  0.70231394  0.50348545  0.70416623  1
  Zr  Zr28  1  0.30333978  0.70055495  0.49810713  1
  Zr  Zr29  1  0.49942419  0.89728531  0.90493313  1
  Zr  Zr30  1  0.70208728  0.10041819  0.49376077  1
  Zr  Zr31  1  0.50086534  0.49209348  0.30007466  1
  Zr  Zr32  1  0.90277774  0.69545936  0.09822642  1
  Zr  Zr33  1  0.71159001  0.69885405  0.30140900  1
  Zr  Zr34  1  0.29552300  0.91013984  0.90023780  1
  Zr  Zr35  1  0.69647229  0.49953382  0.50577927  1
  Zr  Zr36  1  0.89898961  0.70337059  0.89124492  1
  Zr  Zr37  1  0.90100822  0.50276640  0.29994143  1
  Zr  Zr38  1  0.89216553  0.89424286  0.70503722  1
  Zr  Zr39  1  0.90169213  0.29931100  0.69825141  1
  Zr  Zr40  1  0.29313242  0.49870201  0.29864346  1
  Zr  Zr41  1  0.10446107  0.30356491  0.29675293  1
  Zr  Zr42  1  0.30761003  0.30676875  0.88939884  1
  Zr  Zr43  1  0.90092528  0.69507840  0.29777047  1
  Zr  Zr44  1  0.49664159  0.29393870  0.49717460  1
  Zr  Zr45  1  0.70982534  0.90448863  0.89115789  1
  Zr  Zr46  1  0.49754603  0.29900687  0.09707078  1
  Zr  Zr47  1  0.49958850  0.89735068  0.10572338  1
  Zr  Zr48  1  0.09596741  0.09781844  0.50178010  1
  Zr  Zr49  1  0.08995645  0.30794770  0.09914301  1
  Sc  Sc50  1  0.10001115  0.29512415  0.90176621  1
  Sc  Sc51  1  0.10401045  0.89589806  0.30007864  1
  Sc  Sc52  1  0.10249330  0.90912700  0.49617009  1
  Sc  Sc53  1  0.30672826  0.10456897  0.29822313  1
  Sc  Sc54  1  0.10821208  0.50363003  0.90389163  1
  Sc  Sc55  1  0.10296867  0.10144001  0.90500458  1
  Sc  Sc56  1  0.30102890  0.30120032  0.10070953  1
  Sc  Sc57  1  0.50310543  0.49726634  0.89738723  1
  Sc  Sc58  1  0.09989015  0.50772346  0.69447850  1
  Sc  Sc59  1  0.11002183  0.30427148  0.49060612  1
  Sc  Sc60  1  0.70617238  0.49631288  0.10928328  1
  Sc  Sc61  1  0.70542290  0.69749064  0.90015550  1
  Sc  Sc62  1  0.70032858  0.49534016  0.89377565  1
  Sc  Sc63  1  0.10390551  0.29891326  0.70096954  1
  Sc  Sc64  1  0.30351886  0.10892324  0.09636656  1
  Sc  Sc65  1  0.49850462  0.10959652  0.89269580  1
  Sc  Sc66  1  0.30618254  0.10057099  0.49567337  1
  Sc  Sc67  1  0.90052482  0.89635412  0.09860748  1
  Sc  Sc68  1  0.49734845  0.69790233  0.90840633  1
  Sc  Sc69  1  0.89487617  0.50624204  0.90127251  1
  Sc  Sc70  1  0.49632112  0.09788308  0.69837505  1
  Sc  Sc71  1  0.50119648  0.90798168  0.29998217  1
  Sc  Sc72  1  0.28439234  0.49448004  0.70217364  1
  Sc  Sc73  1  0.28898292  0.70307957  0.68624019  1
  Sc  Sc74  1  0.09653397  0.10481141  0.69691452  1
  Sc  Sc75  1  0.10502391  0.68927205  0.50416319  1
  Sc  Sc76  1  0.29925820  0.30035639  0.30620049  1
  Sc  Sc77  1  0.49754495  0.09337670  0.49527030  1
  Sc  Sc78  1  0.51575144  0.50028562  0.70259317  1
  Sc  Sc79  1  0.28696127  0.49956941  0.49496901  1
  Sc  Sc80  1  0.70144137  0.89415229  0.10383839  1
  Sc  Sc81  1  0.69517885  0.71094203  0.50118100  1
  Sc  Sc82  1  0.29944317  0.89297220  0.30092162  1
  Sc  Sc83  1  0.70572081  0.29997746  0.49812981  1
  Sc  Sc84  1  0.49002903  0.90824406  0.69239366  1
  Sc  Sc85  1  0.69497764  0.69683977  0.70149427  1
  Sc  Sc86  1  0.90817279  0.50756464  0.48913836  1
  Sc  Sc87  1  0.50019351  0.49312341  0.49806294  1
  Sc  Sc88  1  0.49523886  0.10410133  0.10653344  1
  Sc  Sc89  1  0.70548039  0.31315170  0.69963078  1
  Sc  Sc90  1  0.29119807  0.69790221  0.30325265  1
  Sc  Sc91  1  0.09504586  0.90672171  0.90402955  1
  Sc  Sc92  1  0.29934529  0.10527765  0.89958749  1
  Sc  Sc93  1  0.29986260  0.69862423  0.10231679  1
  Sc  Sc94  1  0.69869300  0.90530410  0.30193505  1
  Sc  Sc95  1  0.29933868  0.89468818  0.50958989  1
  Sc  Sc96  1  0.49241038  0.29582839  0.70959356  1
  Sc  Sc97  1  0.09619913  0.69238352  0.69917196  1
  Sc  Sc98  1  0.69717125  0.90400868  0.69314707  1
  Sc  Sc99  1  0.50179469  0.89539669  0.49810038  1
  Nb  Nb100  1  0.69719218  0.09876878  0.10390993  1
  Nb  Nb101  1  0.90179285  0.28698464  0.50388781  1
  Nb  Nb102  1  0.69819628  0.10140640  0.29698145  1
  Nb  Nb103  1  0.10244916  0.50178874  0.11067949  1
  Nb  Nb104  1  0.89673676  0.10296662  0.30069866  1
  Nb  Nb105  1  0.70522470  0.50273841  0.30477995  1
  Nb  Nb106  1  0.09910048  0.69564367  0.28855529  1
  Nb  Nb107  1  0.70341813  0.89939563  0.49618651  1
  Nb  Nb108  1  0.30146111  0.89806592  0.70154370  1
  Nb  Nb109  1  0.10117982  0.69843966  0.10842411  1
  Nb  Nb110  1  0.90471628  0.69567647  0.69971110  1
  Nb  Nb111  1  0.30003363  0.29860345  0.69499032  1
  Nb  Nb112  1  0.10129772  0.50546298  0.30406358  1
  Nb  Nb113  1  0.90661349  0.10371355  0.49995675  1
  Nb  Nb114  1  0.69515370  0.09978691  0.70527285  1
  Nb  Nb115  1  0.69881392  0.29662576  0.90182943  1
  Nb  Nb116  1  0.29930173  0.90117785  0.09988623  1
  Nb  Nb117  1  0.09943893  0.49833864  0.49731685  1
  Nb  Nb118  1  0.29600408  0.51325452  0.89878687  1
  Nb  Nb119  1  0.49672088  0.69391496  0.50243884  1
  Nb  Nb120  1  0.69935564  0.09748542  0.89721499  1
  Nb  Nb121  1  0.51280654  0.09749414  0.30208385  1
  Nb  Nb122  1  0.88937600  0.09292974  0.89630167  1
  Nb  Nb123  1  0.30093713  0.30029624  0.50209903  1
  Nb  Nb124  1  0.29397894  0.69419709  0.90142922  1
  Nb  Nb125  1  0.59239819  0.80191415  0.80018961  1
  Nb  Nb126  1  0.39268055  0.39761829  0.60091900  1
  Nb  Nb127  1  0.60171513  0.00419643  0.00022706  1
  Nb  Nb128  1  0.79297963  0.19141032  -0.00406462  1
  Nb  Nb129  1  0.21037530  0.20437667  0.59883492  1
  Nb  Nb130  1  0.60336701  0.19750467  0.20470920  1
  Nb  Nb131  1  0.60202768  0.59996809  0.00861039  1
  Nb  Nb132  1  0.39120469  0.60348839  0.79780085  1
  Nb  Nb133  1  0.19964367  0.79709565  -0.00072810  1
  Nb  Nb134  1  0.40046694  0.59348195  0.60173843  1
  Nb  Nb135  1  0.40262779  0.59543975  0.20025996  1
  Nb  Nb136  1  0.39255237  0.79685341  0.79938903  1
  Nb  Nb137  1  0.60182072  0.19694259  0.60118789  1
  Nb  Nb138  1  0.20368281  0.80203825  0.80287113  1
  Nb  Nb139  1  -0.00221275  0.40174280  0.79675654  1
  Nb  Nb140  1  -0.00545422  0.19663956  0.39995915  1
  Nb  Nb141  1  -0.00473332  0.79775281  0.59613824  1
  Nb  Nb142  1  0.60016039  0.60024723  0.39816276  1
  Nb  Nb143  1  0.20319173  0.00005427  0.19418614  1
  Nb  Nb144  1  0.80245153  0.60193006  0.60096313  1
  Nb  Nb145  1  -0.00911654  0.00348783  0.79883649  1
  Nb  Nb146  1  0.79511327  0.19616129  0.80476926  1
  Nb  Nb147  1  0.00136674  0.39947342  0.59547713  1
  Nb  Nb148  1  0.40380910  -0.00263648  0.00286927  1
  Nb  Nb149  1  0.00012397  0.79584116  0.40216177  1
  Pd  Pd150  1  0.59944493  0.19143894  0.00608285  1
  Pd  Pd151  1  0.58923144  0.38629191  0.60519732  1
  Pd  Pd152  1  0.39992574  0.41446063  0.79078362  1
  Pd  Pd153  1  0.19079014  0.40080773  0.80290068  1
  Pd  Pd154  1  0.80713914  0.40173751  0.40725105  1
  Pd  Pd155  1  0.39433186  0.00488754  0.19769472  1
  Pd  Pd156  1  0.79364170  0.59474751  0.00361659  1
  Pd  Pd157  1  0.60285520  0.80368123  0.21275604  1
  Pd  Pd158  1  0.01117197  0.80768384  0.79224739  1
  Pd  Pd159  1  0.59179055  -0.00629293  0.80245599  1
  Pd  Pd160  1  0.61355892  0.79980588  -0.00591467  1
  Pd  Pd161  1  0.40633202  0.59470964  0.00189190  1
  Pd  Pd162  1  0.00695698  -0.00156724  0.20366142  1
  Pd  Pd163  1  0.39487875  0.40472675  -0.00486863  1
  Pd  Pd164  1  0.00444513  0.79722843  0.00036866  1
  Pd  Pd165  1  0.59923437  0.79867910  0.39668316  1
  Pd  Pd166  1  0.81327955  0.40869397  0.58790562  1
  Pd  Pd167  1  -0.00320399  0.39136306  0.40247822  1
  Pd  Pd168  1  0.21008914  0.00074047  0.39292164  1
  Pd  Pd169  1  0.20955570  0.00975016  0.59791900  1
  Pd  Pd170  1  0.59817563  0.59797303  0.20353008  1
  Pd  Pd171  1  0.80046007  0.79289828  0.60434276  1
  Pd  Pd172  1  0.60923097  0.39134400  0.20489424  1
  Pd  Pd173  1  0.39271678  0.79295396  0.20625537  1
  Pd  Pd174  1  0.60421393  0.20691413  0.79171174  1
  Pd  Pd175  1  0.40276629  0.59079882  0.40128980  1
  Pd  Pd176  1  0.59853425  0.00434909  0.59294170  1
  Pd  Pd177  1  0.20615489  0.21027601  -0.00081248  1
  Pd  Pd178  1  0.79439367  0.00007875  0.01108495  1
  Pd  Pd179  1  0.38844488  0.80199702  -0.00340572  1
  Pd  Pd180  1  0.79850844  0.00567506  0.39780671  1
  Pd  Pd181  1  -0.00282963  0.80299733  0.20515967  1
  Pd  Pd182  1  0.59492943  0.80479409  0.60423965  1
  Pd  Pd183  1  0.20397378  0.19927803  0.19799510  1
  Pd  Pd184  1  0.60422874  0.40112701  0.40062886  1
  Pd  Pd185  1  -0.00682946  0.19912494  0.80967648  1
  Pd  Pd186  1  0.18996281  0.79510280  0.40598442  1
  Pd  Pd187  1  0.40082134  0.80552116  0.40084292  1
  Pd  Pd188  1  0.39081244  0.40080069  0.19919791  1
  Pd  Pd189  1  0.79734102  -0.00523463  0.19831939  1
  Pd  Pd190  1  -0.00482729  0.00579803  -0.00428076  1
  Pd  Pd191  1  -0.00971995  0.19253788  -0.00497244  1
  Pd  Pd192  1  0.79617524  0.00536753  0.60237536  1
  Pd  Pd193  1  0.20290687  0.19592390  0.79388217  1
  Pd  Pd194  1  0.19856977  0.39425540  -0.00574413  1
  Pd  Pd195  1  0.40021427  0.19618789  0.39650942  1
  Pd  Pd196  1  0.78721612  0.19772571  0.60578486  1
  Pd  Pd197  1  0.00418857  0.59343233  0.00168223  1
  Pd  Pd198  1  0.39647442  -0.00752019  0.40019067  1
  Pd  Pd199  1  0.19002763  0.00356355  0.79778942  1
  Rh  Rh200  1  0.20234564  0.40217827  0.39699059  1
  Rh  Rh201  1  -0.00661759  -0.00976703  0.60811120  1
  Rh  Rh202  1  0.60053049  0.19720689  0.40124589  1
  Rh  Rh203  1  0.40291285  0.79363372  0.60208498  1
  Rh  Rh204  1  0.80274659  0.80714610  0.39802733  1
  Rh  Rh205  1  0.19429349  0.60384066  0.39854983  1
  Rh  Rh206  1  0.78650220  0.59805496  0.41083496  1
  Rh  Rh207  1  0.80137836  0.79764847  0.00092919  1
  Rh  Rh208  1  0.60059363  0.00437482  0.19535694  1
  Rh  Rh209  1  0.60494020  -0.00462686  0.40509771  1
  Rh  Rh210  1  0.40419376  -0.00282812  0.80797608  1
  Rh  Rh211  1  -0.00155433  0.59337821  0.19732880  1
  Rh  Rh212  1  0.39730272  -0.00283980  0.59234917  1
  Rh  Rh213  1  0.20134336  0.80351955  0.19317471  1
  Rh  Rh214  1  0.01267038  0.60892334  0.39582659  1
  Rh  Rh215  1  0.00355068  0.20007281  0.20765081  1
  Rh  Rh216  1  -0.00621900  0.59910050  0.59456304  1
  Rh  Rh217  1  0.20434480  0.59986810  0.19944174  1
  Rh  Rh218  1  0.78875710  0.79234589  0.79295701  1
  Rh  Rh219  1  0.79974522  0.60576939  0.79375203  1
  Rh  Rh220  1  0.01042169  0.40884328  -0.00941288  1
  Rh  Rh221  1  0.19203862  0.60696705  0.01065838  1
  Rh  Rh222  1  0.39281366  0.40273845  0.40778587  1
  Rh  Rh223  1  0.80729050  0.19345399  0.40074873  1
  Rh  Rh224  1  0.60735146  0.40967486  -0.00339815  1
  Rh  Rh225  1  0.01880422  0.21338419  0.58748907  1
  Rh  Rh226  1  0.19778483  0.19497452  0.40710764  1
  Rh  Rh227  1  0.00062948  0.59097173  0.80576381  1
  Rh  Rh228  1  0.00545846  0.40633592  0.20903528  1
  Rh  Rh229  1  0.19006049  0.80005107  0.60033588  1
  Rh  Rh230  1  0.79272298  0.19877332  0.19580838  1
  Rh  Rh231  1  0.20720611  0.00162550  0.00919038  1
  Rh  Rh232  1  0.80910081  0.59190191  0.19403881  1
  Rh  Rh233  1  0.80386475  0.00824060  0.78537426  1
  Rh  Rh234  1  0.80371833  0.39336817  0.80729885  1
  Rh  Rh235  1  0.20210794  0.60644827  0.79235009  1
  Rh  Rh236  1  0.20525259  0.59546737  0.59713899  1
  Rh  Rh237  1  0.39828486  0.20101773  0.80236005  1
  Rh  Rh238  1  0.60130853  0.60265663  0.58824041  1
  Rh  Rh239  1  0.40761273  0.20041980  0.20693780  1
  Rh  Rh240  1  0.79888439  0.40183483  0.20632532  1
  Rh  Rh241  1  -0.00097882  0.00197068  0.39400077  1
  Rh  Rh242  1  0.59396542  0.60946813  0.81627979  1
  Rh  Rh243  1  0.19816583  0.39946830  0.20003658  1
  Rh  Rh244  1  0.19642565  0.39590616  0.59723849  1
  Rh  Rh245  1  0.40308299  0.20334448  0.60053729  1
  Rh  Rh246  1  0.80609402  0.80476166  0.20325888  1
  Rh  Rh247  1  0.39942969  0.19992877  -0.00609349  1
  Rh  Rh248  1  0.60331014  0.39316290  0.79927283  1
  Rh  Rh249  1  0.79425027  0.39895069  -0.00235501  1
