# generated using pymatgen
data_ZrScNbPdRh
_symmetry_space_group_name_H-M   'P 1'
_cell_length_a   16.55973497
_cell_length_b   16.56112614
_cell_length_c   16.56034608
_cell_angle_alpha   90.00072400
_cell_angle_beta   90.02754368
_cell_angle_gamma   90.00458777
_symmetry_Int_Tables_number   1
_chemical_formula_structural   ZrScNbPdRh
_chemical_formula_sum   'Zr50 Sc50 Nb50 Pd50 Rh50'
_cell_volume   4541.63892725
_cell_formula_units_Z   50
loop_
 _symmetry_equiv_pos_site_id
 _symmetry_equiv_pos_as_xyz
  1  'x, y, z'
loop_
 _atom_site_type_symbol
 _atom_site_label
 _atom_site_symmetry_multiplicity
 _atom_site_fract_x
 _atom_site_fract_y
 _atom_site_fract_z
 _atom_site_occupancy
  Zr  Zr0  1  0.70103537  0.29202226  0.70529972  1
  Zr  Zr1  1  0.10670155  0.29929699  0.09862289  1
  Zr  Zr2  1  0.90367703  0.30516579  0.10083189  1
  Zr  Zr3  1  0.49974110  0.09877033  0.70491046  1
  Zr  Zr4  1  0.70346262  0.49575149  0.69893615  1
  Zr  Zr5  1  0.89706026  0.70060699  0.48892586  1
  Zr  Zr6  1  0.10366007  0.71171203  0.70459079  1
  Zr  Zr7  1  0.90027435  0.09325017  0.29463106  1
  Zr  Zr8  1  0.70084570  0.90697747  0.70206646  1
  Zr  Zr9  1  0.29742451  0.29415484  0.90506844  1
  Zr  Zr10  1  0.29960409  0.29807388  0.48768648  1
  Zr  Zr11  1  0.10819556  0.49786592  0.69310219  1
  Zr  Zr12  1  0.71124034  0.69854755  0.49989319  1
  Zr  Zr13  1  0.89754693  0.49419868  0.70165717  1
  Zr  Zr14  1  0.10355989  0.10052362  0.50025756  1
  Zr  Zr15  1  0.30685348  0.29455808  0.09930224  1
  Zr  Zr16  1  0.30719014  0.90771443  0.90442921  1
  Zr  Zr17  1  0.29611134  0.69519289  0.50107616  1
  Zr  Zr18  1  0.88799626  0.29842262  0.69962260  1
  Zr  Zr19  1  0.49739809  0.51059777  0.90240233  1
  Zr  Zr20  1  0.50500587  0.49351206  0.09580372  1
  Zr  Zr21  1  0.69631958  0.70614254  0.89881905  1
  Zr  Zr22  1  0.29154519  0.49867111  0.50396034  1
  Zr  Zr23  1  0.10062110  0.50150876  0.90684259  1
  Zr  Zr24  1  0.50211917  0.69624067  0.72081944  1
  Zr  Zr25  1  0.90272259  0.70309001  0.11257525  1
  Zr  Zr26  1  0.30647625  0.29147875  0.29037822  1
  Zr  Zr27  1  0.89730895  0.10022500  0.49198635  1
  Zr  Zr28  1  0.49908570  0.89907502  0.29932512  1
  Zr  Zr29  1  0.69427281  0.30165240  0.30033615  1
  Zr  Zr30  1  0.50128332  0.49668156  0.48824962  1
  Zr  Zr31  1  0.70248189  0.49851381  0.49795316  1
  Zr  Zr32  1  0.69918278  0.10430677  0.29874757  1
  Zr  Zr33  1  0.10035111  0.70369052  0.09105185  1
  Zr  Zr34  1  0.10007592  0.09805161  0.28930896  1
  Zr  Zr35  1  0.71043008  0.70330878  0.29595350  1
  Zr  Zr36  1  0.10505788  0.10048504  0.69388826  1
  Zr  Zr37  1  0.09268535  0.30001573  0.70391281  1
  Zr  Zr38  1  0.69688298  0.90153340  0.90759375  1
  Zr  Zr39  1  0.30452088  0.49415255  0.89262787  1
  Zr  Zr40  1  0.49628552  0.49740682  0.71086187  1
  Zr  Zr41  1  0.09706111  0.50216086  0.10013906  1
  Zr  Zr42  1  0.69914914  0.49733271  0.10415653  1
  Zr  Zr43  1  0.69741233  0.10229299  0.69687021  1
  Zr  Zr44  1  0.69863749  0.29171361  0.50255720  1
  Zr  Zr45  1  0.49894318  0.89722974  0.09620848  1
  Zr  Zr46  1  0.89316350  0.89897398  0.49451283  1
  Zr  Zr47  1  0.68780035  0.49765551  0.29585113  1
  Zr  Zr48  1  0.10376159  0.10440307  0.90500645  1
  Zr  Zr49  1  0.29924907  0.89527420  0.70452360  1
  Sc  Sc50  1  0.89905148  0.50071334  0.10338726  1
  Sc  Sc51  1  0.09440942  0.90065879  0.29231413  1
  Sc  Sc52  1  0.88870636  0.10079332  0.69976490  1
  Sc  Sc53  1  0.89193430  0.90367194  0.70142578  1
  Sc  Sc54  1  0.49896445  0.28739225  0.90408783  1
  Sc  Sc55  1  0.90665696  0.09150546  0.09565801  1
  Sc  Sc56  1  0.69354286  0.49758504  0.91214480  1
  Sc  Sc57  1  0.50335009  0.91095817  0.50298255  1
  Sc  Sc58  1  0.30982327  0.90313363  0.50185524  1
  Sc  Sc59  1  0.30577443  0.70489239  0.90487149  1
  Sc  Sc60  1  0.10428121  0.30665570  0.49020509  1
  Sc  Sc61  1  0.90219571  0.89544143  0.29451443  1
  Sc  Sc62  1  0.50178155  0.70105879  0.29595603  1
  Sc  Sc63  1  0.90314050  0.10223349  0.90699632  1
  Sc  Sc64  1  0.49856950  0.10504414  0.09333571  1
  Sc  Sc65  1  0.10144488  0.30591163  0.29290234  1
  Sc  Sc66  1  0.50431223  0.09948337  0.49902128  1
  Sc  Sc67  1  0.30388661  0.48373839  0.08898392  1
  Sc  Sc68  1  0.68632441  0.31224160  0.09904194  1
  Sc  Sc69  1  0.90021659  0.49372923  0.90408848  1
  Sc  Sc70  1  0.28958385  0.30084177  0.70921146  1
  Sc  Sc71  1  0.50119996  0.10784028  0.30137748  1
  Sc  Sc72  1  0.30411494  0.10239741  0.90257695  1
  Sc  Sc73  1  0.29099488  0.09868532  0.09536068  1
  Sc  Sc74  1  0.90232875  0.89924434  0.10051065  1
  Sc  Sc75  1  0.29857482  0.49800513  0.30599756  1
  Sc  Sc76  1  0.30047846  0.89693145  0.29348427  1
  Sc  Sc77  1  0.30620488  0.70527869  0.30233853  1
  Sc  Sc78  1  0.90159025  0.71280947  0.91277274  1
  Sc  Sc79  1  0.91265371  0.30162012  0.30087581  1
  Sc  Sc80  1  0.89402933  0.90259544  0.91017894  1
  Sc  Sc81  1  0.10965883  0.50103840  0.49178297  1
  Sc  Sc82  1  0.49946969  0.69777080  0.49101155  1
  Sc  Sc83  1  0.09715875  0.29523915  0.89872592  1
  Sc  Sc84  1  0.69744520  0.09735484  0.50020920  1
  Sc  Sc85  1  0.49854798  0.90875186  0.71090970  1
  Sc  Sc86  1  0.49688354  0.29976553  0.30214907  1
  Sc  Sc87  1  0.10102507  0.09635857  0.09769039  1
  Sc  Sc88  1  0.70269255  0.90559576  0.28620798  1
  Sc  Sc89  1  0.09238283  0.90504011  0.50595227  1
  Sc  Sc90  1  0.10295793  0.69823426  0.49818481  1
  Sc  Sc91  1  0.08909996  0.69859225  0.29902914  1
  Sc  Sc92  1  0.69434872  0.09043982  0.10072944  1
  Sc  Sc93  1  0.70636466  0.70090932  0.10166741  1
  Sc  Sc94  1  0.10103134  0.88434992  0.90386864  1
  Sc  Sc95  1  0.10174747  0.50068526  0.30080105  1
  Sc  Sc96  1  0.90388054  0.29759113  0.89207126  1
  Sc  Sc97  1  0.69627732  0.09347105  0.90472369  1
  Sc  Sc98  1  0.29640759  0.70157399  0.70433308  1
  Sc  Sc99  1  0.50520693  0.28885498  0.70826819  1
  Nb  Nb100  1  0.30487024  0.70982834  0.10636638  1
  Nb  Nb101  1  0.90487905  0.70515318  0.29999247  1
  Nb  Nb102  1  0.91116317  0.50380911  0.30243179  1
  Nb  Nb103  1  0.89663777  0.49967588  0.50180061  1
  Nb  Nb104  1  0.49711873  0.70854105  0.90900621  1
  Nb  Nb105  1  0.09936292  0.89973141  0.70478067  1
  Nb  Nb106  1  0.70476968  0.90351188  0.09837271  1
  Nb  Nb107  1  0.49831196  0.29828214  0.50178313  1
  Nb  Nb108  1  0.29704837  0.10095083  0.69637682  1
  Nb  Nb109  1  0.69978424  0.89716808  0.50385815  1
  Nb  Nb110  1  0.49699069  0.90242637  0.90170234  1
  Nb  Nb111  1  0.48723882  0.30407391  0.10153091  1
  Nb  Nb112  1  0.30204383  0.10240577  0.29913305  1
  Nb  Nb113  1  0.70260826  0.70086504  0.70033730  1
  Nb  Nb114  1  0.29465680  0.89966975  0.10434970  1
  Nb  Nb115  1  0.09942845  0.69676767  0.89796170  1
  Nb  Nb116  1  0.48730073  0.70074618  0.09305776  1
  Nb  Nb117  1  0.11296192  0.90353449  0.10232680  1
  Nb  Nb118  1  0.70159092  0.29437464  0.90228192  1
  Nb  Nb119  1  0.89983854  0.30254738  0.49830713  1
  Nb  Nb120  1  0.30173751  0.49967826  0.69977799  1
  Nb  Nb121  1  0.50223167  0.50123002  0.29433220  1
  Nb  Nb122  1  0.29872956  0.10327194  0.49837768  1
  Nb  Nb123  1  0.89723150  0.69694705  0.69788585  1
  Nb  Nb124  1  0.49232639  0.08380005  0.90041337  1
  Nb  Nb125  1  -0.00505480  0.79661738  0.60518122  1
  Nb  Nb126  1  -0.00511401  0.59987534  0.60184081  1
  Nb  Nb127  1  0.39329234  0.19976928  0.59788235  1
  Nb  Nb128  1  0.20542451  0.00308754  0.39825256  1
  Nb  Nb129  1  0.60954934  0.80500595  0.40472157  1
  Nb  Nb130  1  0.20904313  0.60503342  0.19077432  1
  Nb  Nb131  1  0.19816792  0.80684555  0.40072316  1
  Nb  Nb132  1  0.80688878  0.40337321  0.40019439  1
  Nb  Nb133  1  -0.00020392  0.60587899  0.79877986  1
  Nb  Nb134  1  0.79883406  0.20193109  0.19463474  1
  Nb  Nb135  1  0.59421234  0.39964835  0.59987662  1
  Nb  Nb136  1  0.41052199  0.79252927  0.60436137  1
  Nb  Nb137  1  0.39476619  0.00080014  0.19788110  1
  Nb  Nb138  1  -0.00415810  0.20575194  0.59403239  1
  Nb  Nb139  1  0.80272712  0.60625901  0.79980494  1
  Nb  Nb140  1  0.79566139  0.20501150  0.00662208  1
  Nb  Nb141  1  -0.00599689  0.40076964  0.59401273  1
  Nb  Nb142  1  0.60161473  0.79589508  0.60165887  1
  Nb  Nb143  1  0.19594305  0.60119516  0.80453001  1
  Nb  Nb144  1  0.39976333  0.59795350  0.19270590  1
  Nb  Nb145  1  0.00783980  -0.00309479  0.79823808  1
  Nb  Nb146  1  0.59818965  0.60122073  0.60349012  1
  Nb  Nb147  1  0.40379725  0.59588527  0.60470619  1
  Nb  Nb148  1  0.40114295  0.39660320  0.60093461  1
  Nb  Nb149  1  0.19641621  -0.00143592  0.79670322  1
  Pd  Pd150  1  0.60234022  0.79777608  0.00807700  1
  Pd  Pd151  1  0.20647414  0.79964456  -0.00354858  1
  Pd  Pd152  1  0.19354150  0.40201952  0.80622481  1
  Pd  Pd153  1  0.80583141  0.79853362  0.80324610  1
  Pd  Pd154  1  0.20476936  0.40813764  0.20108832  1
  Pd  Pd155  1  0.60130545  0.19903146  0.00193278  1
  Pd  Pd156  1  0.40325987  0.80340311  0.40732894  1
  Pd  Pd157  1  -0.01121596  0.60262322  -0.00313670  1
  Pd  Pd158  1  0.60239763  0.60906309  0.00802368  1
  Pd  Pd159  1  0.19957315  0.80734136  0.58989942  1
  Pd  Pd160  1  0.39644530  0.59726192  0.39446757  1
  Pd  Pd161  1  0.00476750  0.59761237  0.40593582  1
  Pd  Pd162  1  0.60094028  0.18900822  0.81287824  1
  Pd  Pd163  1  0.19943399  0.21216522  0.59789541  1
  Pd  Pd164  1  0.01007836  -0.01006510  -0.00551653  1
  Pd  Pd165  1  0.60630823  -0.00373077  0.39595519  1
  Pd  Pd166  1  0.21264085  0.60182983  0.00051176  1
  Pd  Pd167  1  -0.01194614  0.80415384  0.79928666  1
  Pd  Pd168  1  0.20556586  -0.00922862  0.59715519  1
  Pd  Pd169  1  0.60368594  0.60993744  0.39922402  1
  Pd  Pd170  1  0.40406137  0.38446438  0.79979780  1
  Pd  Pd171  1  0.79273637  0.40511672  0.81337594  1
  Pd  Pd172  1  0.59843953  0.81016759  0.79873952  1
  Pd  Pd173  1  0.61169949  0.59582294  0.80322162  1
  Pd  Pd174  1  0.59992272  0.39609426  0.80659049  1
  Pd  Pd175  1  0.80110611  0.59149826  0.38586372  1
  Pd  Pd176  1  0.80399945  0.20783097  0.38929547  1
  Pd  Pd177  1  0.79175899  -0.00679664  0.39453886  1
  Pd  Pd178  1  0.00153125  0.39545894  -0.00231949  1
  Pd  Pd179  1  0.39808820  0.40041168  0.39603615  1
  Pd  Pd180  1  0.58956316  0.00309888  0.19753425  1
  Pd  Pd181  1  0.59965532  0.79571277  0.19807847  1
  Pd  Pd182  1  0.39086671  0.59789902  0.00451865  1
  Pd  Pd183  1  0.59261378  0.61006150  0.19048611  1
  Pd  Pd184  1  0.19295519  0.79235538  0.20980494  1
  Pd  Pd185  1  0.00663658  -0.00520294  0.39563366  1
  Pd  Pd186  1  0.59982390  0.20539143  0.19258149  1
  Pd  Pd187  1  -0.01069460  0.00139421  0.60733572  1
  Pd  Pd188  1  0.79968429  0.39384600  -0.00302835  1
  Pd  Pd189  1  0.80172429  0.80324144  0.60422051  1
  Pd  Pd190  1  -0.00344580  0.19809246  0.19344878  1
  Pd  Pd191  1  0.80603974  0.00603268  0.81002204  1
  Pd  Pd192  1  0.80538292  0.59341214  0.20650772  1
  Pd  Pd193  1  0.19335660  0.19802176  0.38871084  1
  Pd  Pd194  1  0.80385598  0.60268325  -0.00536529  1
  Pd  Pd195  1  0.80654082  0.39720274  0.21131892  1
  Pd  Pd196  1  -0.00563780  0.18854425  0.79243700  1
  Pd  Pd197  1  0.40096894  0.00179088  0.60359497  1
  Pd  Pd198  1  0.39644047  0.00482620  0.39270605  1
  Pd  Pd199  1  0.00758096  0.20197368  0.40048649  1
  Rh  Rh200  1  0.80267905  0.80586814  0.19821910  1
  Rh  Rh201  1  0.40502263  0.19402180  0.40634813  1
  Rh  Rh202  1  0.20781364  0.80183116  0.81061966  1
  Rh  Rh203  1  0.20344143  0.19135510  0.80218555  1
  Rh  Rh204  1  0.39501141  0.19382735  0.79562757  1
  Rh  Rh205  1  0.38855522  0.60804760  0.80355928  1
  Rh  Rh206  1  0.40610736  0.80264680  0.19815855  1
  Rh  Rh207  1  0.60175042  -0.00302789  0.60320521  1
  Rh  Rh208  1  0.00485159  0.40687208  0.79623393  1
  Rh  Rh209  1  0.20078545  0.19766008  0.19739680  1
  Rh  Rh210  1  0.39898267  -0.00019522  0.01076073  1
  Rh  Rh211  1  0.59559635  0.20064445  0.40203720  1
  Rh  Rh212  1  0.79609799  0.39190156  0.59117840  1
  Rh  Rh213  1  0.59471265  -0.00387334  -0.00062545  1
  Rh  Rh214  1  0.79762323  0.00542903  0.00520345  1
  Rh  Rh215  1  0.40794011  0.39475258  -0.01203581  1
  Rh  Rh216  1  -0.00123960  0.40697613  0.40397017  1
  Rh  Rh217  1  0.80384673  0.00495669  0.19440848  1
  Rh  Rh218  1  0.60060869  0.00061075  0.80585536  1
  Rh  Rh219  1  0.80515920  0.19404781  0.59329688  1
  Rh  Rh220  1  0.79961272  0.60053443  0.60703461  1
  Rh  Rh221  1  0.19915560  0.20050522  0.00261303  1
  Rh  Rh222  1  0.00468320  0.80363643  0.40756456  1
  Rh  Rh223  1  0.40226322  0.40841937  0.20538577  1
  Rh  Rh224  1  0.20181987  0.39367506  0.59697207  1
  Rh  Rh225  1  0.60222226  0.39350524  0.40236542  1
  Rh  Rh226  1  0.20007923  0.61307284  0.38418403  1
  Rh  Rh227  1  0.79828176  0.00471572  0.59429428  1
  Rh  Rh228  1  0.20667397  0.00283684  0.20567063  1
  Rh  Rh229  1  0.00209786  0.40694957  0.19868134  1
  Rh  Rh230  1  0.79574973  0.80943163  0.38793274  1
  Rh  Rh231  1  0.00571308  0.80210385  0.19379623  1
  Rh  Rh232  1  0.19766672  -0.00452697  -0.00709219  1
  Rh  Rh233  1  0.19809614  0.39403088  -0.00304764  1
  Rh  Rh234  1  -0.00544388  0.20570055  0.00540686  1
  Rh  Rh235  1  0.40198997  0.79948251  0.80263947  1
  Rh  Rh236  1  0.58693162  0.39357611  0.20068405  1
  Rh  Rh237  1  0.00336831  0.80471746  0.00782619  1
  Rh  Rh238  1  0.20138699  0.60317449  0.60901511  1
  Rh  Rh239  1  0.59033278  0.20126797  0.59815933  1
  Rh  Rh240  1  0.40108914  0.19403428  0.00078176  1
  Rh  Rh241  1  0.79563935  0.19293618  0.81619471  1
  Rh  Rh242  1  0.40144915  0.18966009  0.19416956  1
  Rh  Rh243  1  0.59106174  0.39402469  -0.00665574  1
  Rh  Rh244  1  0.00497274  0.59894930  0.20033255  1
  Rh  Rh245  1  0.39710780  0.80882050  -0.00017064  1
  Rh  Rh246  1  0.00271936  -0.00629898  0.19201150  1
  Rh  Rh247  1  0.20260521  0.39474279  0.38903337  1
  Rh  Rh248  1  0.38946082  0.00667883  0.79712779  1
  Rh  Rh249  1  0.79610644  0.80203348  0.00862396  1
