# generated using pymatgen
data_ZrScNbPdRh
_symmetry_space_group_name_H-M   'P 1'
_cell_length_a   16.55854946
_cell_length_b   16.56093888
_cell_length_c   16.55952940
_cell_angle_alpha   89.98508670
_cell_angle_beta   90.01009367
_cell_angle_gamma   89.99062879
_symmetry_Int_Tables_number   1
_chemical_formula_structural   ZrScNbPdRh
_chemical_formula_sum   'Zr50 Sc50 Nb50 Pd50 Rh50'
_cell_volume   4541.03874275
_cell_formula_units_Z   50
loop_
 _symmetry_equiv_pos_site_id
 _symmetry_equiv_pos_as_xyz
  1  'x, y, z'
loop_
 _atom_site_type_symbol
 _atom_site_label
 _atom_site_symmetry_multiplicity
 _atom_site_fract_x
 _atom_site_fract_y
 _atom_site_fract_z
 _atom_site_occupancy
  Zr  Zr0  1  0.49892266  0.29959363  0.70141891  1
  Zr  Zr1  1  0.29898677  0.49287441  0.70666777  1
  Zr  Zr2  1  0.29932552  0.10212331  0.90056253  1
  Zr  Zr3  1  0.29921092  0.29858260  0.69170366  1
  Zr  Zr4  1  0.49994904  0.09903844  0.30442450  1
  Zr  Zr5  1  0.89382631  0.50490242  0.49651923  1
  Zr  Zr6  1  0.29764380  0.30322411  0.08299165  1
  Zr  Zr7  1  0.70422622  0.30068800  0.91210652  1
  Zr  Zr8  1  0.29925479  0.50061908  0.31193533  1
  Zr  Zr9  1  0.10391576  0.50134980  0.89546415  1
  Zr  Zr10  1  0.70077997  0.49465696  0.49739966  1
  Zr  Zr11  1  0.70570221  0.50768466  0.90481606  1
  Zr  Zr12  1  0.09467947  0.49666551  0.09563940  1
  Zr  Zr13  1  0.90154888  0.70455473  0.69010076  1
  Zr  Zr14  1  0.90083391  0.70009244  0.30675170  1
  Zr  Zr15  1  0.90089530  0.08144051  0.49952449  1
  Zr  Zr16  1  0.90976096  0.30131264  0.70735315  1
  Zr  Zr17  1  0.90072689  0.90697679  0.31254143  1
  Zr  Zr18  1  0.69662257  0.30254871  0.50144028  1
  Zr  Zr19  1  0.49791120  0.50951325  0.70091056  1
  Zr  Zr20  1  0.30021342  0.89754872  0.09704469  1
  Zr  Zr21  1  0.89215170  0.90170180  0.89555702  1
  Zr  Zr22  1  0.89391770  0.89137524  0.50117650  1
  Zr  Zr23  1  0.49916213  0.50771572  0.50551191  1
  Zr  Zr24  1  0.29878415  0.69861153  0.09632046  1
  Zr  Zr25  1  0.10142536  0.69461286  0.30355025  1
  Zr  Zr26  1  0.69743633  0.09221474  0.89147572  1
  Zr  Zr27  1  0.91100883  0.70425602  0.50015680  1
  Zr  Zr28  1  0.30979313  0.09290665  0.09366137  1
  Zr  Zr29  1  0.30331761  0.68776877  0.89717583  1
  Zr  Zr30  1  0.10118280  0.30126182  0.69787660  1
  Zr  Zr31  1  0.49571923  0.70037688  0.30328638  1
  Zr  Zr32  1  0.09989524  0.90499778  0.89710248  1
  Zr  Zr33  1  0.10483569  0.89620170  0.09984244  1
  Zr  Zr34  1  0.90705539  0.50768460  0.29540733  1
  Zr  Zr35  1  0.49410385  0.89766192  0.09796389  1
  Zr  Zr36  1  0.29903787  0.70482553  0.30705309  1
  Zr  Zr37  1  0.69293438  0.89154673  0.08831384  1
  Zr  Zr38  1  0.29967070  0.10738670  0.30567213  1
  Zr  Zr39  1  0.69664738  0.09581438  0.50582188  1
  Zr  Zr40  1  0.90525400  0.09902980  0.29678180  1
  Zr  Zr41  1  0.90408458  0.49501490  0.90571032  1
  Zr  Zr42  1  0.49789509  0.90128706  0.50131501  1
  Zr  Zr43  1  0.29438491  0.30620864  0.89143710  1
  Zr  Zr44  1  0.50088405  0.09836136  0.89654792  1
  Zr  Zr45  1  0.09486549  0.09816797  0.70287698  1
  Zr  Zr46  1  0.69868737  0.30553980  0.30026900  1
  Zr  Zr47  1  0.29938513  0.89570692  0.51341414  1
  Zr  Zr48  1  0.90394793  0.29618382  0.08602700  1
  Zr  Zr49  1  0.69890705  0.09918723  0.09682386  1
  Sc  Sc50  1  0.90031529  0.30741152  0.29408427  1
  Sc  Sc51  1  0.30250163  0.49994930  0.50416233  1
  Sc  Sc52  1  0.90786239  0.10427260  0.09947872  1
  Sc  Sc53  1  0.09347207  0.10003287  0.29515997  1
  Sc  Sc54  1  0.68826908  0.69968078  0.29460697  1
  Sc  Sc55  1  0.29931508  0.89298160  0.28908647  1
  Sc  Sc56  1  0.50852316  0.89765807  0.89199297  1
  Sc  Sc57  1  0.29547500  0.90481750  0.89336882  1
  Sc  Sc58  1  0.10207538  0.70063636  0.09247468  1
  Sc  Sc59  1  0.71141156  0.70455953  0.50105973  1
  Sc  Sc60  1  0.69617642  0.09674089  0.69862360  1
  Sc  Sc61  1  0.70217132  0.49783696  0.30176146  1
  Sc  Sc62  1  0.69301330  0.09818162  0.30992214  1
  Sc  Sc63  1  0.69694536  0.51020044  0.69463474  1
  Sc  Sc64  1  0.10429389  0.69183948  0.69870835  1
  Sc  Sc65  1  0.09431440  0.29754639  0.89830778  1
  Sc  Sc66  1  0.90065325  0.50605137  0.09879102  1
  Sc  Sc67  1  0.49718512  0.88756332  0.30157071  1
  Sc  Sc68  1  0.50242132  0.29959597  0.30734117  1
  Sc  Sc69  1  0.70102468  0.90259723  0.49709128  1
  Sc  Sc70  1  0.50804191  0.70256250  0.10618808  1
  Sc  Sc71  1  0.89813577  0.90449647  0.68972702  1
  Sc  Sc72  1  0.30320803  0.49862117  0.90360437  1
  Sc  Sc73  1  0.90557191  0.10149219  0.90408179  1
  Sc  Sc74  1  0.50669449  0.50630110  0.30678697  1
  Sc  Sc75  1  0.89446121  0.69451035  0.90267759  1
  Sc  Sc76  1  0.70019423  0.49621450  0.10237894  1
  Sc  Sc77  1  0.89655012  0.09650299  0.69765872  1
  Sc  Sc78  1  0.50776752  0.30395649  0.10220327  1
  Sc  Sc79  1  0.70152216  0.90126372  0.70580383  1
  Sc  Sc80  1  0.09492987  0.90165602  0.50734979  1
  Sc  Sc81  1  0.30124111  0.29727166  0.32336312  1
  Sc  Sc82  1  0.50372876  0.09630965  0.50691130  1
  Sc  Sc83  1  0.10134393  0.49842853  0.69978481  1
  Sc  Sc84  1  0.49782576  0.30382845  0.89952071  1
  Sc  Sc85  1  0.89346837  0.31066443  0.51226439  1
  Sc  Sc86  1  0.69959591  0.70986515  0.89481502  1
  Sc  Sc87  1  0.10219330  0.29684321  0.30079293  1
  Sc  Sc88  1  0.10003484  0.90727531  0.29494175  1
  Sc  Sc89  1  0.10187699  0.10371983  0.50756256  1
  Sc  Sc90  1  0.69744666  0.69711151  0.09766714  1
  Sc  Sc91  1  0.11022117  0.50648723  0.50693323  1
  Sc  Sc92  1  0.50806749  0.09374554  0.69762050  1
  Sc  Sc93  1  0.69933518  0.70178553  0.70440313  1
  Sc  Sc94  1  0.10855506  0.69800693  0.89516679  1
  Sc  Sc95  1  0.09515558  0.09941608  0.10187380  1
  Sc  Sc96  1  0.90847058  0.50330158  0.69675014  1
  Sc  Sc97  1  0.69337888  0.29099652  0.69639648  1
  Sc  Sc98  1  0.49900763  0.50094214  0.09558854  1
  Sc  Sc99  1  0.90386215  0.90129390  0.08763749  1
  Nb  Nb100  1  0.89843184  0.29874489  0.90018207  1
  Nb  Nb101  1  0.30081633  0.71070443  0.70508551  1
  Nb  Nb102  1  0.50092489  0.70242988  0.70778135  1
  Nb  Nb103  1  0.29631287  0.28356689  0.50411679  1
  Nb  Nb104  1  0.89968649  0.69836990  0.10847731  1
  Nb  Nb105  1  0.70374769  0.29709252  0.10069154  1
  Nb  Nb106  1  0.49641224  0.09713085  0.09968925  1
  Nb  Nb107  1  0.48787392  0.70173380  0.49818194  1
  Nb  Nb108  1  0.11013775  0.70022820  0.49965960  1
  Nb  Nb109  1  0.11220596  0.90248936  0.71024676  1
  Nb  Nb110  1  0.09996797  0.29771734  0.09979877  1
  Nb  Nb111  1  0.10048233  0.09878811  0.89103999  1
  Nb  Nb112  1  0.29956551  0.90319773  0.70128826  1
  Nb  Nb113  1  0.49682623  0.50951662  0.89256220  1
  Nb  Nb114  1  0.30355346  0.09583809  0.69159683  1
  Nb  Nb115  1  0.10067515  0.49711540  0.29725981  1
  Nb  Nb116  1  0.49164705  0.89719683  0.69476081  1
  Nb  Nb117  1  0.49891055  0.69390346  0.88944755  1
  Nb  Nb118  1  0.70009961  0.89985494  0.89719997  1
  Nb  Nb119  1  0.49144369  0.29576526  0.50857650  1
  Nb  Nb120  1  0.29236903  0.69899828  0.49696211  1
  Nb  Nb121  1  0.10735747  0.29685296  0.50177132  1
  Nb  Nb122  1  0.69941489  0.89949865  0.29932373  1
  Nb  Nb123  1  0.30158078  0.11046170  0.50157691  1
  Nb  Nb124  1  0.29838673  0.50096391  0.09738906  1
  Nb  Nb125  1  -0.00514523  0.20734911  0.40725319  1
  Nb  Nb126  1  0.20826234  0.20711811  0.19381927  1
  Nb  Nb127  1  0.00319464  0.80482026  0.79718856  1
  Nb  Nb128  1  0.58756660  0.79703187  0.60430591  1
  Nb  Nb129  1  0.59457755  0.60149834  -0.01050585  1
  Nb  Nb130  1  -0.00665707  0.79643630  0.19955058  1
  Nb  Nb131  1  0.79473447  0.19952726  0.20100806  1
  Nb  Nb132  1  0.20859189  0.00421980  0.40533855  1
  Nb  Nb133  1  0.80221534  0.20519931  0.80530338  1
  Nb  Nb134  1  0.79390807  -0.00309860  0.19977713  1
  Nb  Nb135  1  0.20440438  0.39899736  0.19840765  1
  Nb  Nb136  1  0.39700872  0.20469952  0.19692692  1
  Nb  Nb137  1  0.39046392  0.39955805  0.20086516  1
  Nb  Nb138  1  0.80405536  0.20093197  0.40060870  1
  Nb  Nb139  1  0.20125851  0.59148137  0.20145816  1
  Nb  Nb140  1  0.60112252  0.19665482  0.00390844  1
  Nb  Nb141  1  0.39123397  0.00012893  0.40613733  1
  Nb  Nb142  1  0.40412323  0.79378048  -0.00744595  1
  Nb  Nb143  1  0.39669559  0.19735385  0.79516840  1
  Nb  Nb144  1  0.00563454  0.40117595  0.40287512  1
  Nb  Nb145  1  0.59932269  -0.00312936  0.19774928  1
  Nb  Nb146  1  0.39245766  0.59512800  0.20083605  1
  Nb  Nb147  1  0.79819770  0.39670193  0.80282971  1
  Nb  Nb148  1  0.60295720  0.40769539  0.80451781  1
  Nb  Nb149  1  0.80357654  0.80497816  0.20130703  1
  Pd  Pd150  1  -0.00894483  -0.00432427  0.79539130  1
  Pd  Pd151  1  0.39643864  0.39985337  0.59458793  1
  Pd  Pd152  1  0.19820156  0.00432201  0.59878887  1
  Pd  Pd153  1  0.80698487  0.80096469  0.79202137  1
  Pd  Pd154  1  0.38944005  0.60929816  0.60557873  1
  Pd  Pd155  1  0.60559223  0.60719120  0.40839355  1
  Pd  Pd156  1  0.19006544  0.19269443  0.00150546  1
  Pd  Pd157  1  0.20989026  0.60203890  0.60807774  1
  Pd  Pd158  1  0.39632458  0.80397916  0.80655730  1
  Pd  Pd159  1  0.40690557  0.39904598  0.40608567  1
  Pd  Pd160  1  0.80383411  0.19741192  0.60164106  1
  Pd  Pd161  1  0.01222132  0.80533704  0.39607759  1
  Pd  Pd162  1  0.41027698  0.20497685  -0.00219924  1
  Pd  Pd163  1  -0.00314458  0.60789110  0.79870249  1
  Pd  Pd164  1  -0.00248594  0.79293659  -0.00585269  1
  Pd  Pd165  1  0.00492360  0.00458364  0.00036199  1
  Pd  Pd166  1  0.59745024  0.19507383  0.19617096  1
  Pd  Pd167  1  0.59028930  0.39969427  0.40489698  1
  Pd  Pd168  1  0.80284949  0.00415798  0.00232476  1
  Pd  Pd169  1  0.79168925  0.60449696  0.39374289  1
  Pd  Pd170  1  0.79543204  0.40275650  0.61538602  1
  Pd  Pd171  1  0.40329818  0.00092784  0.21004195  1
  Pd  Pd172  1  0.19472889  0.00553543  -0.00038057  1
  Pd  Pd173  1  0.60154908  0.61471429  0.59184005  1
  Pd  Pd174  1  -0.00658355  0.19865478  0.59428119  1
  Pd  Pd175  1  0.80076279  0.60235441  0.60022629  1
  Pd  Pd176  1  0.40045900  0.00286374  0.79880354  1
  Pd  Pd177  1  0.00345398  0.39428210  0.20093352  1
  Pd  Pd178  1  0.01397378  0.80265088  0.60948384  1
  Pd  Pd179  1  0.79191676  0.60519630  0.20127093  1
  Pd  Pd180  1  0.19452701  0.39952225  0.40582763  1
  Pd  Pd181  1  0.59948076  0.40038969  0.60671340  1
  Pd  Pd182  1  0.80587288  0.39696252  0.19310156  1
  Pd  Pd183  1  0.40006008  0.79091455  0.60149510  1
  Pd  Pd184  1  0.60366387  0.79726192  0.40950413  1
  Pd  Pd185  1  0.59262182  0.40673753  0.20168322  1
  Pd  Pd186  1  0.19380986  0.79701427  0.60764902  1
  Pd  Pd187  1  0.80182622  0.79245396  0.00320777  1
  Pd  Pd188  1  0.00956222  0.59180569  0.40918488  1
  Pd  Pd189  1  0.20229261  0.01013629  0.20401855  1
  Pd  Pd190  1  0.20397967  0.19618816  0.79299002  1
  Pd  Pd191  1  0.00650842  0.40774465  0.59254341  1
  Pd  Pd192  1  0.00132259  0.60805747  -0.00249335  1
  Pd  Pd193  1  0.40596130  0.40327835  -0.00148988  1
  Pd  Pd194  1  0.80565422  0.59558873  0.79491299  1
  Pd  Pd195  1  0.20805773  0.79912235  -0.01204418  1
  Pd  Pd196  1  0.59593340  0.40361132  -0.00373038  1
  Pd  Pd197  1  0.59345835  0.00119435  0.00007911  1
  Pd  Pd198  1  0.19596475  0.81443640  0.39871193  1
  Pd  Pd199  1  0.60072800  0.20295832  0.40794259  1
  Rh  Rh200  1  0.79236512  -0.00414326  0.59989389  1
  Rh  Rh201  1  0.40690250  0.39709598  0.80067601  1
  Rh  Rh202  1  0.39866895  0.60236048  0.40140972  1
  Rh  Rh203  1  0.19351002  0.39963655  0.79974866  1
  Rh  Rh204  1  0.01616628  0.00746712  0.40847919  1
  Rh  Rh205  1  0.60600253  0.80699953  0.20121002  1
  Rh  Rh206  1  0.19905461  0.79791010  0.79963386  1
  Rh  Rh207  1  -0.00482004  0.19484435  0.80348044  1
  Rh  Rh208  1  0.59240784  0.79039132  -0.01357401  1
  Rh  Rh209  1  0.00048264  0.20847109  0.20315401  1
  Rh  Rh210  1  0.60092091  -0.01350244  0.60581053  1
  Rh  Rh211  1  0.59004779  -0.00966463  0.39322876  1
  Rh  Rh212  1  -0.00094819  0.40222843  0.80454128  1
  Rh  Rh213  1  0.19543431  0.59397214  0.00178598  1
  Rh  Rh214  1  0.79386590  0.60391827  0.00568368  1
  Rh  Rh215  1  0.59865679  -0.00931648  0.79302369  1
  Rh  Rh216  1  0.20647642  0.00797231  0.79554802  1
  Rh  Rh217  1  0.39070574  0.80492736  0.40625827  1
  Rh  Rh218  1  0.39769261  0.00437567  0.59677928  1
  Rh  Rh219  1  0.41061835  0.60712886  0.00841152  1
  Rh  Rh220  1  0.20612775  0.59731172  0.79468464  1
  Rh  Rh221  1  0.60637694  0.59723971  0.80377832  1
  Rh  Rh222  1  0.78941968  0.80386708  0.60274073  1
  Rh  Rh223  1  0.60162399  0.20942168  0.81033895  1
  Rh  Rh224  1  0.79688719  0.19210489  0.00022746  1
  Rh  Rh225  1  0.79221067  0.00564605  0.39836350  1
  Rh  Rh226  1  0.00973549  0.60834202  0.19556398  1
  Rh  Rh227  1  0.41170626  0.19659115  0.40522827  1
  Rh  Rh228  1  0.19219060  0.40336154  -0.00331136  1
  Rh  Rh229  1  0.79356850  0.79620149  0.39228044  1
  Rh  Rh230  1  -0.00679874  -0.01547944  0.19097125  1
  Rh  Rh231  1  0.18798493  0.79073213  0.20176059  1
  Rh  Rh232  1  0.40795102  0.19318799  0.60693322  1
  Rh  Rh233  1  0.00529586  -0.00596076  0.60541775  1
  Rh  Rh234  1  0.20336418  0.39656507  0.59475007  1
  Rh  Rh235  1  0.80203039  0.00541421  0.79944865  1
  Rh  Rh236  1  0.40369972  -0.01349229  -0.01034620  1
  Rh  Rh237  1  0.59824993  0.80444595  0.79405049  1
  Rh  Rh238  1  0.00340546  0.39633778  -0.00351748  1
  Rh  Rh239  1  0.81088999  0.39730591  0.39665267  1
  Rh  Rh240  1  0.19842827  0.59833842  0.40170465  1
  Rh  Rh241  1  0.59311112  0.59248322  0.19293711  1
  Rh  Rh242  1  0.39096118  0.59984616  0.78896371  1
  Rh  Rh243  1  0.18449548  0.19166096  0.39666253  1
  Rh  Rh244  1  0.39879438  0.78943554  0.19112551  1
  Rh  Rh245  1  0.80611292  0.40537048  0.00588576  1
  Rh  Rh246  1  0.00927039  0.19692145  -0.00692643  1
  Rh  Rh247  1  0.00442498  0.60192485  0.59393304  1
  Rh  Rh248  1  0.59548782  0.20003786  0.59540286  1
  Rh  Rh249  1  0.19649426  0.19580327  0.60858228  1
