# generated using pymatgen
data_ZrScNbPdRh
_symmetry_space_group_name_H-M   'P 1'
_cell_length_a   16.56384537
_cell_length_b   16.57033152
_cell_length_c   16.56639927
_cell_angle_alpha   90.01356587
_cell_angle_beta   89.96852583
_cell_angle_gamma   89.97976568
_symmetry_Int_Tables_number   1
_chemical_formula_structural   ZrScNbPdRh
_chemical_formula_sum   'Zr50 Sc50 Nb50 Pd50 Rh50'
_cell_volume   4546.95215395
_cell_formula_units_Z   50
loop_
 _symmetry_equiv_pos_site_id
 _symmetry_equiv_pos_as_xyz
  1  'x, y, z'
loop_
 _atom_site_type_symbol
 _atom_site_label
 _atom_site_symmetry_multiplicity
 _atom_site_fract_x
 _atom_site_fract_y
 _atom_site_fract_z
 _atom_site_occupancy
  Zr  Zr0  1  0.29403695  0.09897407  0.10340835  1
  Zr  Zr1  1  0.69995602  0.49069941  0.49407761  1
  Zr  Zr2  1  0.90626038  0.10619140  0.50066398  1
  Zr  Zr3  1  0.09882572  0.49368275  0.29886622  1
  Zr  Zr4  1  0.09947775  0.30456716  0.09905251  1
  Zr  Zr5  1  0.29805240  0.10291245  0.70285954  1
  Zr  Zr6  1  0.69409781  0.90756197  0.89447273  1
  Zr  Zr7  1  0.10016631  0.09753411  0.89657937  1
  Zr  Zr8  1  0.50021892  0.89588871  0.70201654  1
  Zr  Zr9  1  0.30663144  0.30371217  0.90142593  1
  Zr  Zr10  1  0.09310190  0.09773573  0.69064831  1
  Zr  Zr11  1  0.29868118  0.70802746  0.30177607  1
  Zr  Zr12  1  0.29967364  0.50345008  0.29697147  1
  Zr  Zr13  1  0.90114412  0.89064059  0.50321706  1
  Zr  Zr14  1  0.10330995  0.49339126  0.49816641  1
  Zr  Zr15  1  0.90115410  0.90120042  0.10551582  1
  Zr  Zr16  1  0.89729929  0.69571188  0.90377492  1
  Zr  Zr17  1  0.69067978  0.89920329  0.30087771  1
  Zr  Zr18  1  0.29879214  0.49535437  0.50281399  1
  Zr  Zr19  1  0.30186061  0.89297065  0.70653436  1
  Zr  Zr20  1  0.29559659  0.89611123  0.90290141  1
  Zr  Zr21  1  0.70345509  0.49713283  0.90932133  1
  Zr  Zr22  1  0.09858924  0.69716167  0.29784907  1
  Zr  Zr23  1  0.09298602  0.30565100  0.89667698  1
  Zr  Zr24  1  0.89408796  0.11351885  0.89083241  1
  Zr  Zr25  1  0.29777877  0.09180648  0.49234921  1
  Zr  Zr26  1  0.09476968  0.90241386  0.70080108  1
  Zr  Zr27  1  0.10027800  0.10271232  0.50159083  1
  Zr  Zr28  1  0.10189241  0.10418807  0.29548098  1
  Zr  Zr29  1  0.10237301  0.91007216  0.50601262  1
  Zr  Zr30  1  0.30248313  0.10302153  0.90009208  1
  Zr  Zr31  1  0.70263617  0.89685614  0.49751412  1
  Zr  Zr32  1  0.89710343  0.50411930  0.70786253  1
  Zr  Zr33  1  0.29508988  0.90083015  0.10110913  1
  Zr  Zr34  1  0.10365377  0.29900718  0.69427034  1
  Zr  Zr35  1  0.50271619  0.09875283  0.88902381  1
  Zr  Zr36  1  0.70733642  0.69418820  0.70164879  1
  Zr  Zr37  1  0.50641879  0.30574519  0.69882324  1
  Zr  Zr38  1  0.30044360  0.89740952  0.49610438  1
  Zr  Zr39  1  0.30529848  0.90617131  0.30258898  1
  Zr  Zr40  1  0.49628783  0.49311601  0.51044163  1
  Zr  Zr41  1  0.69483347  0.90477363  0.10473343  1
  Zr  Zr42  1  0.89883313  0.88745888  0.29880670  1
  Zr  Zr43  1  0.50187204  0.10514196  0.50380831  1
  Zr  Zr44  1  0.10322609  0.70443327  0.10006947  1
  Zr  Zr45  1  0.10022621  0.29942435  0.49512509  1
  Zr  Zr46  1  0.89692656  0.30365893  0.90347790  1
  Zr  Zr47  1  0.50013184  0.70614449  0.29837361  1
  Zr  Zr48  1  0.89848042  0.70025542  0.10308370  1
  Zr  Zr49  1  0.49823097  0.89724179  0.90219812  1
  Sc  Sc50  1  0.49269896  0.69310800  0.91034443  1
  Sc  Sc51  1  0.89980011  0.10989419  0.28996048  1
  Sc  Sc52  1  0.69539844  0.10690067  0.29342508  1
  Sc  Sc53  1  0.50105109  0.29913766  0.50127463  1
  Sc  Sc54  1  0.50351587  0.09378806  0.30693637  1
  Sc  Sc55  1  0.10195099  0.50366064  0.70111234  1
  Sc  Sc56  1  0.89628434  0.30117664  0.30002636  1
  Sc  Sc57  1  0.49988268  0.49291135  0.90335022  1
  Sc  Sc58  1  0.90299093  0.90149518  0.70300591  1
  Sc  Sc59  1  0.30495920  0.30206151  0.69979681  1
  Sc  Sc60  1  0.08840751  0.69553262  0.49257412  1
  Sc  Sc61  1  0.30316545  0.50705785  0.90541396  1
  Sc  Sc62  1  0.10116755  0.89742153  0.89880932  1
  Sc  Sc63  1  0.49975051  0.30853922  0.09618156  1
  Sc  Sc64  1  0.10199999  0.89859104  0.09571414  1
  Sc  Sc65  1  0.50377587  0.89377445  0.10752791  1
  Sc  Sc66  1  0.11114413  0.69683658  0.90880973  1
  Sc  Sc67  1  0.69570228  0.09844915  0.50336309  1
  Sc  Sc68  1  0.49868445  0.30408698  0.89672219  1
  Sc  Sc69  1  0.09886247  0.69786629  0.70812847  1
  Sc  Sc70  1  0.89851992  0.70126412  0.69439411  1
  Sc  Sc71  1  0.69053751  0.29971665  0.49458566  1
  Sc  Sc72  1  0.30102395  0.30883198  0.50063582  1
  Sc  Sc73  1  0.69249276  0.09865136  0.70726579  1
  Sc  Sc74  1  0.70846555  0.89925330  0.69334522  1
  Sc  Sc75  1  0.88979143  0.49218902  0.30188078  1
  Sc  Sc76  1  0.70084800  0.30503490  0.10075600  1
  Sc  Sc77  1  0.69856601  0.49374806  0.70350679  1
  Sc  Sc78  1  0.50615336  0.09712212  0.10651302  1
  Sc  Sc79  1  0.30655295  0.31078173  0.30128544  1
  Sc  Sc80  1  0.50011972  0.69085558  0.10232602  1
  Sc  Sc81  1  0.90433172  0.29695614  0.48756712  1
  Sc  Sc82  1  0.49915627  0.71089590  0.50259342  1
  Sc  Sc83  1  0.69897498  0.69694850  0.90314144  1
  Sc  Sc84  1  0.89773563  0.29211576  0.09927714  1
  Sc  Sc85  1  0.69634821  0.69026141  0.10058802  1
  Sc  Sc86  1  0.49816942  0.49330196  0.28690123  1
  Sc  Sc87  1  0.09530503  0.10218066  0.10462409  1
  Sc  Sc88  1  0.50980186  0.89931762  0.49371478  1
  Sc  Sc89  1  0.08754691  0.30252794  0.29471498  1
  Sc  Sc90  1  0.90470917  0.29613139  0.72063960  1
  Sc  Sc91  1  0.89995109  0.50822777  0.49597737  1
  Sc  Sc92  1  0.31319206  0.69487458  0.71332169  1
  Sc  Sc93  1  0.10115345  0.89197896  0.29555309  1
  Sc  Sc94  1  0.70293297  0.69951052  0.29922467  1
  Sc  Sc95  1  0.30421221  0.30946425  0.09617530  1
  Sc  Sc96  1  0.11694614  0.50114376  0.09770947  1
  Sc  Sc97  1  0.70795067  0.70226917  0.49904906  1
  Sc  Sc98  1  0.70142348  0.30265386  0.89540163  1
  Sc  Sc99  1  0.30222978  0.69477374  0.09973590  1
  Nb  Nb100  1  0.88459460  0.50806541  0.08921071  1
  Nb  Nb101  1  0.69499887  0.48444144  0.29941871  1
  Nb  Nb102  1  0.50360379  0.50133180  0.09476174  1
  Nb  Nb103  1  0.89851906  0.49910366  0.90350313  1
  Nb  Nb104  1  0.30113404  0.10016547  0.29907775  1
  Nb  Nb105  1  0.10589105  0.50212247  0.90123798  1
  Nb  Nb106  1  0.49673120  0.10359864  0.69799528  1
  Nb  Nb107  1  0.69697567  0.10032088  0.90269826  1
  Nb  Nb108  1  0.50127381  0.69627062  0.70368244  1
  Nb  Nb109  1  0.70448884  0.10211894  0.09688817  1
  Nb  Nb110  1  0.89658559  0.70316099  0.48593568  1
  Nb  Nb111  1  0.89018510  0.10171824  0.09541414  1
  Nb  Nb112  1  0.90159437  0.10295742  0.69764860  1
  Nb  Nb113  1  0.30102247  0.70096112  0.49687635  1
  Nb  Nb114  1  0.90501571  0.70156821  0.30502160  1
  Nb  Nb115  1  0.69513077  0.49790855  0.10234045  1
  Nb  Nb116  1  0.69183161  0.31720054  0.30175321  1
  Nb  Nb117  1  0.49292019  0.50141347  0.70398249  1
  Nb  Nb118  1  0.89782865  0.90422532  0.89950850  1
  Nb  Nb119  1  0.50704874  0.89589331  0.30055037  1
  Nb  Nb120  1  0.69819637  0.30064378  0.69452470  1
  Nb  Nb121  1  0.30433186  0.50156157  0.70187306  1
  Nb  Nb122  1  0.31613238  0.49868026  0.10408006  1
  Nb  Nb123  1  0.50769673  0.29812637  0.29700788  1
  Nb  Nb124  1  0.30046828  0.69641813  0.90181838  1
  Nb  Nb125  1  0.20218478  0.40720031  0.80108295  1
  Nb  Nb126  1  0.40194617  0.60131476  0.40195346  1
  Nb  Nb127  1  0.20882420  0.60517265  0.59879865  1
  Nb  Nb128  1  -0.00462681  -0.00036282  0.39716058  1
  Nb  Nb129  1  0.80507372  0.39163825  0.60143027  1
  Nb  Nb130  1  0.80037703  0.20522723  0.60670771  1
  Nb  Nb131  1  0.40086942  0.19973292  0.20707286  1
  Nb  Nb132  1  0.59502520  0.59368949  0.40216590  1
  Nb  Nb133  1  -0.00126553  0.59444875  0.81234800  1
  Nb  Nb134  1  0.59689921  0.79225171  0.79756675  1
  Nb  Nb135  1  -0.00472033  0.41292267  -0.00175483  1
  Nb  Nb136  1  -0.00778134  0.59720188  0.19647205  1
  Nb  Nb137  1  0.40272265  0.00191655  0.60327297  1
  Nb  Nb138  1  0.59629660  0.59825983  0.60243322  1
  Nb  Nb139  1  0.20540208  0.19774715  0.39259449  1
  Nb  Nb140  1  0.80506239  -0.00046106  0.39722321  1
  Nb  Nb141  1  -0.01272412  0.00378452  -0.00264210  1
  Nb  Nb142  1  0.39877659  0.00045796  0.00038402  1
  Nb  Nb143  1  0.19988692  0.20289761  -0.00142184  1
  Nb  Nb144  1  -0.00572576  0.40009959  0.60325543  1
  Nb  Nb145  1  0.80041233  0.81052214  -0.00087706  1
  Nb  Nb146  1  0.60485452  0.19403403  -0.00186514  1
  Nb  Nb147  1  0.20382014  0.79138637  0.59881789  1
  Nb  Nb148  1  0.59438675  0.59939127  0.79609305  1
  Nb  Nb149  1  0.79927617  0.00470511  -0.00162560  1
  Pd  Pd150  1  0.60121643  0.59475550  0.20726867  1
  Pd  Pd151  1  0.59559950  0.00522602  0.00431994  1
  Pd  Pd152  1  0.20439054  0.60019960  0.40418703  1
  Pd  Pd153  1  0.80080106  0.00534925  0.79839063  1
  Pd  Pd154  1  -0.00445222  0.59095001  0.39007989  1
  Pd  Pd155  1  0.40643939  0.19399418  0.01138181  1
  Pd  Pd156  1  0.19647608  -0.00093753  0.79711047  1
  Pd  Pd157  1  0.79531470  0.39885858  0.79724588  1
  Pd  Pd158  1  0.19357589  -0.00649069  0.20296924  1
  Pd  Pd159  1  0.21066614  0.20213936  0.58967386  1
  Pd  Pd160  1  0.39527113  0.20012409  0.59922360  1
  Pd  Pd161  1  0.39709765  0.80273209  0.59841019  1
  Pd  Pd162  1  0.19820390  0.20967904  0.80414244  1
  Pd  Pd163  1  0.00430470  0.19835410  0.00367016  1
  Pd  Pd164  1  0.78942965  0.19841212  0.40230732  1
  Pd  Pd165  1  0.00487712  0.79095339  0.59950277  1
  Pd  Pd166  1  0.79567234  0.80047687  0.80426977  1
  Pd  Pd167  1  0.00055981  0.00148199  0.19927605  1
  Pd  Pd168  1  0.00467113  0.59922553  0.60517401  1
  Pd  Pd169  1  0.00084788  0.79154840  0.80830300  1
  Pd  Pd170  1  0.60636454  0.79244573  0.60474558  1
  Pd  Pd171  1  0.79651154  0.00371574  0.20558739  1
  Pd  Pd172  1  0.79201256  0.59763536  0.39159600  1
  Pd  Pd173  1  0.39722319  0.80091207  0.00650358  1
  Pd  Pd174  1  0.20532399  0.39593361  0.20122789  1
  Pd  Pd175  1  -0.00261015  0.80767079  -0.00483825  1
  Pd  Pd176  1  0.79126567  0.79429213  0.19573804  1
  Pd  Pd177  1  0.39926469  -0.00129722  0.80015102  1
  Pd  Pd178  1  0.79509938  0.59283296  0.59353924  1
  Pd  Pd179  1  0.40748008  0.40458848  0.39634769  1
  Pd  Pd180  1  0.39673751  0.20459597  0.39424977  1
  Pd  Pd181  1  0.60326998  0.19927582  0.39832585  1
  Pd  Pd182  1  0.00654212  0.59489254  0.00468786  1
  Pd  Pd183  1  -0.01327317  0.41133339  0.18490914  1
  Pd  Pd184  1  0.40000469  0.60613334  0.59519028  1
  Pd  Pd185  1  0.80445485  0.39779967  0.19256617  1
  Pd  Pd186  1  0.60180506  0.20605572  0.80330297  1
  Pd  Pd187  1  0.41070339  -0.00500061  0.40478889  1
  Pd  Pd188  1  0.59608204  -0.00005106  0.60439250  1
  Pd  Pd189  1  0.79220804  0.21035315  0.20336212  1
  Pd  Pd190  1  0.20055649  0.60149055  0.19669756  1
  Pd  Pd191  1  0.19840240  0.79168679  0.79771955  1
  Pd  Pd192  1  0.39852619  0.79986985  0.19490213  1
  Pd  Pd193  1  0.21010932  0.21411921  0.19997782  1
  Pd  Pd194  1  0.80415391  0.00804198  0.59583233  1
  Pd  Pd195  1  0.19006262  0.80088946  0.40646789  1
  Pd  Pd196  1  0.80052420  0.59598124  0.20934019  1
  Pd  Pd197  1  0.60520656  0.79270215  -0.00133710  1
  Pd  Pd198  1  0.59786535  0.20621995  0.19319636  1
  Pd  Pd199  1  0.40838067  0.00331538  0.19816369  1
  Rh  Rh200  1  0.19649750  0.00878716  -0.00027750  1
  Rh  Rh201  1  0.00853996  0.19604631  0.39098914  1
  Rh  Rh202  1  0.60333561  0.79105418  0.39898463  1
  Rh  Rh203  1  0.00854955  0.41222372  0.80168420  1
  Rh  Rh204  1  0.60255833  0.39478514  0.00184630  1
  Rh  Rh205  1  0.21064512  0.59891546  0.00578386  1
  Rh  Rh206  1  0.78983030  0.60582725  -0.00141577  1
  Rh  Rh207  1  0.59884582  -0.00589385  0.79093258  1
  Rh  Rh208  1  0.80122985  0.39595404  0.00606640  1
  Rh  Rh209  1  0.39384623  0.40325207  0.79955575  1
  Rh  Rh210  1  0.80137833  0.39314896  0.40623472  1
  Rh  Rh211  1  0.60139663  0.79342561  0.19719827  1
  Rh  Rh212  1  -0.00350933  0.00409824  0.80342137  1
  Rh  Rh213  1  0.40040738  0.39345041  0.60630442  1
  Rh  Rh214  1  0.79543654  0.80092758  0.39665788  1
  Rh  Rh215  1  0.39859966  0.59579916  0.00232480  1
  Rh  Rh216  1  0.58716569  0.40382829  0.39846795  1
  Rh  Rh217  1  0.20576027  0.79537707  0.00049160  1
  Rh  Rh218  1  0.21211028  -0.00953606  0.61183356  1
  Rh  Rh219  1  0.79934312  0.59835456  0.80710027  1
  Rh  Rh220  1  0.60638545  0.00309489  0.39887597  1
  Rh  Rh221  1  0.00729754  0.19276705  0.79464020  1
  Rh  Rh222  1  0.60527209  0.19987909  0.60264213  1
  Rh  Rh223  1  0.40588531  0.80064062  0.39850228  1
  Rh  Rh224  1  0.40702308  0.20751612  0.79230618  1
  Rh  Rh225  1  0.60110522  0.40588116  0.79889206  1
  Rh  Rh226  1  0.20041269  0.59728349  0.79710628  1
  Rh  Rh227  1  0.40181283  0.59964740  0.20425960  1
  Rh  Rh228  1  -0.00607527  0.20183130  0.19447627  1
  Rh  Rh229  1  0.40714681  0.79125625  0.81116244  1
  Rh  Rh230  1  0.40387566  0.40669676  -0.00013608  1
  Rh  Rh231  1  0.80555137  0.79527704  0.59945310  1
  Rh  Rh232  1  0.59671301  0.40071466  0.19052679  1
  Rh  Rh233  1  -0.01106448  -0.00223999  0.59654964  1
  Rh  Rh234  1  0.19809756  0.39603502  -0.00803950  1
  Rh  Rh235  1  0.00630405  0.80591590  0.40233427  1
  Rh  Rh236  1  0.60414194  0.40470595  0.60371473  1
  Rh  Rh237  1  -0.01106734  0.21356196  0.60843302  1
  Rh  Rh238  1  0.78902658  0.19851427  0.79323441  1
  Rh  Rh239  1  0.78929344  0.20144782  -0.00304395  1
  Rh  Rh240  1  0.19477217  0.38884635  0.38919035  1
  Rh  Rh241  1  0.00445155  0.79158815  0.20014215  1
  Rh  Rh242  1  0.19742716  0.40921420  0.61059329  1
  Rh  Rh243  1  0.40615920  0.39510514  0.19691854  1
  Rh  Rh244  1  0.20415750  0.80132925  0.19878841  1
  Rh  Rh245  1  0.18932358  0.00425033  0.38950200  1
  Rh  Rh246  1  -0.00379896  0.40334165  0.40570634  1
  Rh  Rh247  1  0.40562108  0.59617637  0.80970674  1
  Rh  Rh248  1  0.59920671  0.59360072  -0.00338771  1
  Rh  Rh249  1  0.59911177  0.00247343  0.20349622  1
