# generated using pymatgen
data_ZrScNbPdRh
_symmetry_space_group_name_H-M   'P 1'
_cell_length_a   16.56143929
_cell_length_b   16.56013944
_cell_length_c   16.56009561
_cell_angle_alpha   89.95661993
_cell_angle_beta   90.00293109
_cell_angle_gamma   89.99844647
_symmetry_Int_Tables_number   1
_chemical_formula_structural   ZrScNbPdRh
_chemical_formula_sum   'Zr50 Sc50 Nb50 Pd50 Rh50'
_cell_volume   4541.76627304
_cell_formula_units_Z   50
loop_
 _symmetry_equiv_pos_site_id
 _symmetry_equiv_pos_as_xyz
  1  'x, y, z'
loop_
 _atom_site_type_symbol
 _atom_site_label
 _atom_site_symmetry_multiplicity
 _atom_site_fract_x
 _atom_site_fract_y
 _atom_site_fract_z
 _atom_site_occupancy
  Zr  Zr0  1  0.11152668  0.89588140  0.50345001  1
  Zr  Zr1  1  0.50641978  0.30567568  0.70042197  1
  Zr  Zr2  1  0.70203628  0.90193741  0.69843174  1
  Zr  Zr3  1  0.49668527  0.49903668  0.90376834  1
  Zr  Zr4  1  0.09250522  0.89853600  0.90333705  1
  Zr  Zr5  1  0.49897005  0.70762943  0.30539728  1
  Zr  Zr6  1  0.30404805  0.69468753  0.69911105  1
  Zr  Zr7  1  0.31493872  0.29755462  0.10017620  1
  Zr  Zr8  1  0.50132599  0.69084849  0.09442359  1
  Zr  Zr9  1  0.90032587  0.29199140  0.31154157  1
  Zr  Zr10  1  0.50676596  0.89205316  0.90047061  1
  Zr  Zr11  1  0.29929067  0.71519426  0.50274278  1
  Zr  Zr12  1  0.70027803  0.90086231  0.30925448  1
  Zr  Zr13  1  0.50485310  0.30296978  0.09623262  1
  Zr  Zr14  1  0.71308674  0.10073667  0.29497644  1
  Zr  Zr15  1  0.09195828  0.30526809  0.70014347  1
  Zr  Zr16  1  0.49608671  0.11365684  0.10445948  1
  Zr  Zr17  1  0.89820591  0.10176133  0.88718336  1
  Zr  Zr18  1  0.50576241  0.49639741  0.10182252  1
  Zr  Zr19  1  0.49668772  0.30459956  0.48784125  1
  Zr  Zr20  1  0.29898117  0.88573829  0.68783853  1
  Zr  Zr21  1  0.69830450  0.11195733  0.09951350  1
  Zr  Zr22  1  0.69664030  0.69604790  0.90728785  1
  Zr  Zr23  1  0.49353877  0.69972390  0.69701312  1
  Zr  Zr24  1  0.09745750  0.30056929  0.09399919  1
  Zr  Zr25  1  0.09251880  0.09614737  0.30183235  1
  Zr  Zr26  1  0.50191135  0.69499812  0.49977429  1
  Zr  Zr27  1  0.30995058  0.30100653  0.90229658  1
  Zr  Zr28  1  0.91153557  0.89449685  0.10091635  1
  Zr  Zr29  1  0.69744134  0.50878882  0.28899292  1
  Zr  Zr30  1  0.90442148  0.10259306  0.49275339  1
  Zr  Zr31  1  0.70297649  0.09843714  0.90439388  1
  Zr  Zr32  1  0.89904565  0.90140134  0.90029432  1
  Zr  Zr33  1  0.49557619  0.30060575  0.29029604  1
  Zr  Zr34  1  0.90330031  0.90433890  0.29545380  1
  Zr  Zr35  1  0.10009535  0.49792302  0.70579084  1
  Zr  Zr36  1  0.30561060  0.69034257  0.90005637  1
  Zr  Zr37  1  0.10280037  0.30820920  0.30304323  1
  Zr  Zr38  1  0.89702603  0.50045849  0.70435790  1
  Zr  Zr39  1  0.70666818  0.90568477  0.09818354  1
  Zr  Zr40  1  0.09226954  0.10024691  0.70669685  1
  Zr  Zr41  1  0.90363485  0.69910886  0.29962437  1
  Zr  Zr42  1  0.49628310  0.10599126  0.30514183  1
  Zr  Zr43  1  0.10278882  0.50367662  0.09455436  1
  Zr  Zr44  1  0.90052479  0.10048850  0.30097396  1
  Zr  Zr45  1  0.30101322  0.09580202  0.49366317  1
  Zr  Zr46  1  0.69835755  0.67824812  0.10740782  1
  Zr  Zr47  1  0.30133387  0.30877849  0.49832815  1
  Zr  Zr48  1  0.10066146  0.09060717  0.49917567  1
  Zr  Zr49  1  0.30164582  0.70909235  0.30256667  1
  Sc  Sc50  1  0.09804188  0.89979789  0.70497425  1
  Sc  Sc51  1  0.89216579  0.49737258  0.09271552  1
  Sc  Sc52  1  0.69945922  0.30632642  0.29770626  1
  Sc  Sc53  1  0.89741113  0.30039914  0.09357962  1
  Sc  Sc54  1  0.88840780  0.49818112  0.30143967  1
  Sc  Sc55  1  0.09592331  0.09709292  0.10434222  1
  Sc  Sc56  1  0.50810494  0.09997862  0.69793689  1
  Sc  Sc57  1  0.29660495  0.08827717  0.30393770  1
  Sc  Sc58  1  0.69573674  0.10070639  0.70617417  1
  Sc  Sc59  1  0.29148584  0.88843664  0.11543865  1
  Sc  Sc60  1  0.29038662  0.88805241  0.88926968  1
  Sc  Sc61  1  0.30787481  0.31210333  0.30021397  1
  Sc  Sc62  1  0.49851950  0.49609656  0.30490474  1
  Sc  Sc63  1  0.10504471  0.69226607  0.90317551  1
  Sc  Sc64  1  0.69591581  0.30275091  0.89675136  1
  Sc  Sc65  1  0.10340037  0.69782534  0.30839046  1
  Sc  Sc66  1  0.50616100  0.89842681  0.69613053  1
  Sc  Sc67  1  0.30230880  0.31192784  0.70310989  1
  Sc  Sc68  1  0.70298725  0.90166183  0.90097446  1
  Sc  Sc69  1  0.08967095  0.31084420  0.49683768  1
  Sc  Sc70  1  0.29707078  0.10764222  0.90072119  1
  Sc  Sc71  1  0.29870278  0.10136515  0.10216129  1
  Sc  Sc72  1  0.50394403  0.10545114  0.90319374  1
  Sc  Sc73  1  0.89178438  0.69492621  0.89493777  1
  Sc  Sc74  1  0.29770605  0.50268192  0.10018316  1
  Sc  Sc75  1  0.50651127  0.90408354  0.49244334  1
  Sc  Sc76  1  0.90002206  0.50003386  0.90220018  1
  Sc  Sc77  1  0.70858111  0.70116092  0.70520671  1
  Sc  Sc78  1  0.09663352  0.10095218  0.89647102  1
  Sc  Sc79  1  0.91154389  0.89312771  0.50669939  1
  Sc  Sc80  1  0.89377298  0.10341024  0.10715454  1
  Sc  Sc81  1  0.09080403  0.29551795  0.89823479  1
  Sc  Sc82  1  0.69197671  0.50648397  0.48914245  1
  Sc  Sc83  1  0.08764302  0.69761222  0.69774076  1
  Sc  Sc84  1  0.69494162  0.09442637  0.49951249  1
  Sc  Sc85  1  0.10149777  0.50074972  0.48893879  1
  Sc  Sc86  1  0.69201164  0.30741426  0.50203899  1
  Sc  Sc87  1  0.30210247  0.50206414  0.88881214  1
  Sc  Sc88  1  0.10723149  0.70227774  0.09855559  1
  Sc  Sc89  1  0.70134124  0.49557029  0.70418406  1
  Sc  Sc90  1  0.90103832  0.69638875  0.09680827  1
  Sc  Sc91  1  0.49781027  0.50115557  0.50023921  1
  Sc  Sc92  1  0.70733655  0.49685957  0.89758706  1
  Sc  Sc93  1  0.49335025  0.50034263  0.69481319  1
  Sc  Sc94  1  0.50270805  0.10385277  0.49691431  1
  Sc  Sc95  1  0.29436387  0.10562311  0.70800640  1
  Sc  Sc96  1  0.90267116  0.49202525  0.50070880  1
  Sc  Sc97  1  0.49933181  0.30709776  0.90148232  1
  Sc  Sc98  1  0.50247323  0.89416461  0.09930667  1
  Sc  Sc99  1  0.10163523  0.90199016  0.29092764  1
  Nb  Nb100  1  0.28946989  0.50579852  0.30114067  1
  Nb  Nb101  1  0.29934335  0.90405375  0.49434415  1
  Nb  Nb102  1  0.09842787  0.90205181  0.09955656  1
  Nb  Nb103  1  0.29965777  0.49973038  0.69051010  1
  Nb  Nb104  1  0.10223801  0.49762583  0.90531701  1
  Nb  Nb105  1  0.11240491  0.50177519  0.29198138  1
  Nb  Nb106  1  0.49887657  0.89774217  0.29732523  1
  Nb  Nb107  1  0.69335336  0.30423808  0.10119964  1
  Nb  Nb108  1  0.89755850  0.70520888  0.69010050  1
  Nb  Nb109  1  0.30305938  0.50043990  0.50184808  1
  Nb  Nb110  1  0.70311831  0.89583578  0.50418391  1
  Nb  Nb111  1  0.49957646  0.69223871  0.90154405  1
  Nb  Nb112  1  0.70082667  0.70094634  0.49551728  1
  Nb  Nb113  1  0.09325124  0.70164128  0.50278231  1
  Nb  Nb114  1  0.30264645  0.69767622  0.10248189  1
  Nb  Nb115  1  0.70155585  0.69590809  0.30421362  1
  Nb  Nb116  1  0.90009431  0.29868764  0.89348670  1
  Nb  Nb117  1  0.89541440  0.30505863  0.69629943  1
  Nb  Nb118  1  0.89676735  0.89464170  0.70396696  1
  Nb  Nb119  1  0.90896463  0.70143023  0.50641023  1
  Nb  Nb120  1  0.69780890  0.49251684  0.10132361  1
  Nb  Nb121  1  0.70199134  0.30701507  0.70119525  1
  Nb  Nb122  1  0.30656145  0.89622936  0.30778640  1
  Nb  Nb123  1  0.89691050  0.09896733  0.69925110  1
  Nb  Nb124  1  0.90065741  0.30025767  0.50646961  1
  Nb  Nb125  1  0.59453014  0.60226058  0.80347251  1
  Nb  Nb126  1  0.39434514  0.60359525  0.20375229  1
  Nb  Nb127  1  0.40408717  -0.00769055  0.20129467  1
  Nb  Nb128  1  0.80555460  0.00042533  0.60448757  1
  Nb  Nb129  1  0.39931890  -0.00476939  0.80029296  1
  Nb  Nb130  1  0.80248841  0.20350458  0.60506736  1
  Nb  Nb131  1  0.19915355  -0.00841051  0.00373615  1
  Nb  Nb132  1  0.80165333  0.79315350  0.40533666  1
  Nb  Nb133  1  0.39641076  0.20070919  0.59799685  1
  Nb  Nb134  1  0.39320477  -0.01000032  -0.00092537  1
  Nb  Nb135  1  0.80533469  0.60926556  0.59494605  1
  Nb  Nb136  1  0.59725182  -0.00088096  0.20343086  1
  Nb  Nb137  1  0.20090639  0.59836658  0.59666816  1
  Nb  Nb138  1  0.00344403  0.40579019  0.20112168  1
  Nb  Nb139  1  0.00584731  0.59106779  0.20238029  1
  Nb  Nb140  1  0.19620008  0.20325472  0.59594502  1
  Nb  Nb141  1  0.39839498  0.79565597  -0.00052330  1
  Nb  Nb142  1  -0.00620460  0.20213470  0.60234856  1
  Nb  Nb143  1  0.60655665  0.79960125  0.20430444  1
  Nb  Nb144  1  0.19892146  0.20299072  0.20652555  1
  Nb  Nb145  1  0.60906132  0.79583859  0.59316252  1
  Nb  Nb146  1  0.79441742  0.79541745  0.20577201  1
  Nb  Nb147  1  0.39607486  0.00165254  0.60080869  1
  Nb  Nb148  1  0.19800883  0.20306528  0.40107796  1
  Nb  Nb149  1  0.19894556  0.39958131  -0.00522162  1
  Pd  Pd150  1  0.20441323  -0.00019662  0.80612182  1
  Pd  Pd151  1  -0.00028163  0.79228146  0.80449869  1
  Pd  Pd152  1  0.80714801  0.39404412  0.19952145  1
  Pd  Pd153  1  0.60188715  0.79659893  0.00820688  1
  Pd  Pd154  1  0.60036384  0.20359931  0.80384247  1
  Pd  Pd155  1  -0.00428892  -0.00313424  0.60638632  1
  Pd  Pd156  1  -0.00248758  0.60252081  0.00172951  1
  Pd  Pd157  1  -0.00740602  0.19257860  -0.00163463  1
  Pd  Pd158  1  0.78877705  0.20676707  0.41210334  1
  Pd  Pd159  1  0.19758340  0.21168310  0.79621179  1
  Pd  Pd160  1  0.79358333  0.20622144  0.79518865  1
  Pd  Pd161  1  0.60855052  0.20369079  0.39453204  1
  Pd  Pd162  1  0.79209287  0.40717175  0.59347607  1
  Pd  Pd163  1  0.00136464  0.58937189  0.59802549  1
  Pd  Pd164  1  0.19195265  0.79579366  0.20620561  1
  Pd  Pd165  1  0.20347477  0.60646597  0.40960552  1
  Pd  Pd166  1  0.00039927  0.78693024  -0.00413682  1
  Pd  Pd167  1  0.79672177  0.39348008  -0.00623119  1
  Pd  Pd168  1  -0.00577090  0.40290105  0.80682457  1
  Pd  Pd169  1  0.40766425  0.19510757  0.79429432  1
  Pd  Pd170  1  0.19719087  0.60201888  0.79290666  1
  Pd  Pd171  1  0.19235955  0.40374632  0.59398804  1
  Pd  Pd172  1  0.00346943  0.80507011  0.39780406  1
  Pd  Pd173  1  0.18974007  0.78813502  0.79417057  1
  Pd  Pd174  1  0.80112238  0.20672219  -0.00292238  1
  Pd  Pd175  1  0.00145739  0.20790315  0.19981048  1
  Pd  Pd176  1  0.59075955  0.00507790  0.00815292  1
  Pd  Pd177  1  -0.00140618  0.59188358  0.39446066  1
  Pd  Pd178  1  0.20582059  0.80216282  0.00089710  1
  Pd  Pd179  1  0.59866759  0.00387797  0.39685165  1
  Pd  Pd180  1  0.59515501  0.00138266  0.80324551  1
  Pd  Pd181  1  0.20659656  0.00558634  0.61043223  1
  Pd  Pd182  1  0.40317007  0.80237651  0.80475203  1
  Pd  Pd183  1  0.80829515  0.60154136  0.40905061  1
  Pd  Pd184  1  0.79864520  0.79340996  0.00740733  1
  Pd  Pd185  1  0.20115248  0.39468155  0.80842704  1
  Pd  Pd186  1  0.79805053  0.79894468  0.80507128  1
  Pd  Pd187  1  0.19966648  0.19785818  0.00615680  1
  Pd  Pd188  1  0.20323433  0.39319371  0.18858453  1
  Pd  Pd189  1  0.60206398  0.20134160  0.59866556  1
  Pd  Pd190  1  -0.00281948  0.41085405  0.39019827  1
  Pd  Pd191  1  0.80954460  0.00537487  0.00374980  1
  Pd  Pd192  1  0.79226287  0.39935383  0.40503216  1
  Pd  Pd193  1  0.39567160  0.59769712  0.39765811  1
  Pd  Pd194  1  0.80945137  -0.01009798  0.41292967  1
  Pd  Pd195  1  0.59851943  0.40805394  0.59868220  1
  Pd  Pd196  1  0.61206283  0.60240709  0.61018059  1
  Pd  Pd197  1  0.60287546  0.79154592  0.79295917  1
  Pd  Pd198  1  -0.00040496  0.01055919  0.00144703  1
  Pd  Pd199  1  -0.00369571  0.60303630  0.80452180  1
  Rh  Rh200  1  0.79934764  -0.00266714  0.79589255  1
  Rh  Rh201  1  0.80397060  0.39534896  0.80431419  1
  Rh  Rh202  1  0.41495267  0.81274295  0.58985040  1
  Rh  Rh203  1  0.79664241  0.59386869  0.00156889  1
  Rh  Rh204  1  0.81152722  0.60066053  0.19650285  1
  Rh  Rh205  1  -0.00678567  0.20476907  0.79381381  1
  Rh  Rh206  1  0.60784280  0.58510558  -0.00904732  1
  Rh  Rh207  1  0.39663828  0.41055478  0.39653440  1
  Rh  Rh208  1  0.40595537  0.39498190  0.59901898  1
  Rh  Rh209  1  0.59593919  0.59881229  0.39546325  1
  Rh  Rh210  1  0.79932415  0.80072745  0.59463297  1
  Rh  Rh211  1  0.79861851  0.21201205  0.19831892  1
  Rh  Rh212  1  0.20190875  0.61065418  0.20101432  1
  Rh  Rh213  1  0.60426474  0.79775571  0.40146373  1
  Rh  Rh214  1  0.40587089  0.59273121  0.79438036  1
  Rh  Rh215  1  0.58617013  0.60305631  0.20977846  1
  Rh  Rh216  1  0.20706328  0.59313269  -0.00344367  1
  Rh  Rh217  1  0.59896913  0.40222969  0.39425970  1
  Rh  Rh218  1  0.20740976  0.00279800  0.19605615  1
  Rh  Rh219  1  -0.00343704  0.00244804  0.19535315  1
  Rh  Rh220  1  0.00235522  0.39957003  -0.00173185  1
  Rh  Rh221  1  0.60277813  -0.00556915  0.59735976  1
  Rh  Rh222  1  0.40804195  0.79744399  0.19146855  1
  Rh  Rh223  1  0.39147040  0.40851552  0.00039003  1
  Rh  Rh224  1  0.18902380  0.78864733  0.60527267  1
  Rh  Rh225  1  0.60141505  0.20831311  -0.00466411  1
  Rh  Rh226  1  0.00104557  0.40344506  0.60128126  1
  Rh  Rh227  1  0.00159043  0.78967368  0.19717042  1
  Rh  Rh228  1  0.59759367  0.40863713  0.79881043  1
  Rh  Rh229  1  -0.00518645  -0.00511248  0.79874360  1
  Rh  Rh230  1  0.00817225  0.20171310  0.40893818  1
  Rh  Rh231  1  0.40583789  -0.00635168  0.39973382  1
  Rh  Rh232  1  0.38532783  0.18947738  0.21279029  1
  Rh  Rh233  1  0.40357849  0.19375718  -0.00614977  1
  Rh  Rh234  1  0.19508501  0.80421469  0.39701972  1
  Rh  Rh235  1  0.19479520  -0.00609870  0.39091388  1
  Rh  Rh236  1  0.00247230  -0.01041136  0.39934242  1
  Rh  Rh237  1  0.39401949  0.59815772  0.00706453  1
  Rh  Rh238  1  0.39181242  0.20339748  0.40071526  1
  Rh  Rh239  1  0.79775190  0.59977767  0.79161516  1
  Rh  Rh240  1  0.39135311  0.59923177  0.59413195  1
  Rh  Rh241  1  0.60000518  0.39792433  0.20238985  1
  Rh  Rh242  1  0.80068981  -0.00418211  0.19446573  1
  Rh  Rh243  1  0.20490503  0.40190397  0.40232356  1
  Rh  Rh244  1  0.60691032  0.40067656  -0.00198474  1
  Rh  Rh245  1  0.40405178  0.80737210  0.41005282  1
  Rh  Rh246  1  0.60739382  0.20002381  0.20630464  1
  Rh  Rh247  1  0.39727240  0.41578671  0.20107674  1
  Rh  Rh248  1  0.00595200  0.80716437  0.60627217  1
  Rh  Rh249  1  0.40120605  0.40454418  0.79488325  1
