# generated using pymatgen
data_ZrScNbPdRh
_symmetry_space_group_name_H-M   'P 1'
_cell_length_a   16.55184365
_cell_length_b   16.55503662
_cell_length_c   16.55470327
_cell_angle_alpha   90.01245359
_cell_angle_beta   89.99525139
_cell_angle_gamma   90.01015496
_symmetry_Int_Tables_number   1
_chemical_formula_structural   ZrScNbPdRh
_chemical_formula_sum   'Zr50 Sc50 Nb50 Pd50 Rh50'
_cell_volume   4536.25963211
_cell_formula_units_Z   50
loop_
 _symmetry_equiv_pos_site_id
 _symmetry_equiv_pos_as_xyz
  1  'x, y, z'
loop_
 _atom_site_type_symbol
 _atom_site_label
 _atom_site_symmetry_multiplicity
 _atom_site_fract_x
 _atom_site_fract_y
 _atom_site_fract_z
 _atom_site_occupancy
  Zr  Zr0  1  0.70152993  0.31134457  0.90166632  1
  Zr  Zr1  1  0.49562198  0.29318240  0.50056879  1
  Zr  Zr2  1  0.70536285  0.08484074  0.09910868  1
  Zr  Zr3  1  0.90317023  0.09952078  0.30168074  1
  Zr  Zr4  1  0.48160086  0.29552588  0.70325870  1
  Zr  Zr5  1  0.50502031  0.70055803  0.49232535  1
  Zr  Zr6  1  0.10090392  0.89416682  0.49775674  1
  Zr  Zr7  1  0.10161362  0.70490734  0.11207834  1
  Zr  Zr8  1  0.90374896  0.70219962  0.49871519  1
  Zr  Zr9  1  0.50167378  0.30627666  0.89756986  1
  Zr  Zr10  1  0.69793229  0.88708602  0.28904778  1
  Zr  Zr11  1  0.09987264  0.50111868  0.10276446  1
  Zr  Zr12  1  0.50709895  0.90091590  0.10638405  1
  Zr  Zr13  1  0.09236121  0.90686691  0.09165282  1
  Zr  Zr14  1  0.10232464  0.10518027  0.49298478  1
  Zr  Zr15  1  0.29881101  0.50543853  0.50050487  1
  Zr  Zr16  1  0.49774134  0.89736731  0.50174672  1
  Zr  Zr17  1  0.10061167  0.30405750  0.09768208  1
  Zr  Zr18  1  0.29678969  0.69832055  0.09518254  1
  Zr  Zr19  1  0.11071046  0.10763652  0.09607975  1
  Zr  Zr20  1  0.70097297  0.09221418  0.51358502  1
  Zr  Zr21  1  0.70027750  0.90130061  0.89814428  1
  Zr  Zr22  1  0.90399080  0.70390214  0.10149491  1
  Zr  Zr23  1  0.68878246  0.90431975  0.69417782  1
  Zr  Zr24  1  0.91245127  0.89993377  0.90308432  1
  Zr  Zr25  1  0.89402257  0.90688031  0.10247201  1
  Zr  Zr26  1  0.10300491  0.10341113  0.29849460  1
  Zr  Zr27  1  0.30011087  0.10543489  0.70398010  1
  Zr  Zr28  1  0.90289675  0.10023255  0.49649237  1
  Zr  Zr29  1  0.50892908  0.29040911  0.30133942  1
  Zr  Zr30  1  0.30070276  0.69623667  0.69780209  1
  Zr  Zr31  1  0.30273698  0.09459275  0.29720593  1
  Zr  Zr32  1  0.49885307  0.09659592  0.11169659  1
  Zr  Zr33  1  0.89656708  0.89950349  0.49090822  1
  Zr  Zr34  1  0.10071073  0.49906266  0.90572028  1
  Zr  Zr35  1  0.10025473  0.70839948  0.90435044  1
  Zr  Zr36  1  0.70424064  0.68693965  0.89074020  1
  Zr  Zr37  1  0.70370022  0.49218515  0.09225251  1
  Zr  Zr38  1  0.70007743  0.48668286  0.30585442  1
  Zr  Zr39  1  0.10294110  0.70097312  0.69337398  1
  Zr  Zr40  1  0.30624640  0.29669536  0.88983800  1
  Zr  Zr41  1  0.10062266  0.69640520  0.49891406  1
  Zr  Zr42  1  0.89956165  0.69360681  0.69945316  1
  Zr  Zr43  1  0.30645576  0.89267263  0.69705631  1
  Zr  Zr44  1  0.69838731  0.50037373  0.50445361  1
  Zr  Zr45  1  0.91137139  0.30204763  0.69417766  1
  Zr  Zr46  1  0.69500038  0.50176696  0.70510941  1
  Zr  Zr47  1  0.10629465  0.50103211  0.30329722  1
  Zr  Zr48  1  0.50166718  0.90254348  0.88880899  1
  Zr  Zr49  1  0.90656811  0.30436546  0.49940765  1
  Sc  Sc50  1  0.89925507  0.29728580  0.30566455  1
  Sc  Sc51  1  0.70318775  0.29986459  0.49699183  1
  Sc  Sc52  1  0.30034079  0.29984108  0.29903454  1
  Sc  Sc53  1  0.29113271  0.30625202  0.69985438  1
  Sc  Sc54  1  0.70387591  0.10996899  0.29603922  1
  Sc  Sc55  1  0.88121347  0.49656338  0.91151636  1
  Sc  Sc56  1  0.90609072  0.89828914  0.70744896  1
  Sc  Sc57  1  0.10052747  0.30413758  0.90241718  1
  Sc  Sc58  1  0.90603180  0.48526188  0.30250845  1
  Sc  Sc59  1  0.90088985  0.71904813  0.29964994  1
  Sc  Sc60  1  0.90214021  0.49514772  0.68837259  1
  Sc  Sc61  1  0.29331043  0.29716686  0.10272257  1
  Sc  Sc62  1  0.69772069  0.09149172  0.89852879  1
  Sc  Sc63  1  0.90009736  0.90467453  0.29761675  1
  Sc  Sc64  1  0.30281649  0.90583040  0.89765533  1
  Sc  Sc65  1  0.90517283  0.09665919  0.10351064  1
  Sc  Sc66  1  0.09797619  0.09909037  0.90736926  1
  Sc  Sc67  1  0.29259489  0.30339288  0.50242517  1
  Sc  Sc68  1  0.29458036  0.09832492  0.90430971  1
  Sc  Sc69  1  0.90162394  0.49518092  0.50087251  1
  Sc  Sc70  1  0.71200549  0.29788038  0.69962820  1
  Sc  Sc71  1  0.10131671  0.30438519  0.30480561  1
  Sc  Sc72  1  0.10759195  0.49867339  0.49859561  1
  Sc  Sc73  1  0.89683986  0.11006452  0.70110645  1
  Sc  Sc74  1  0.48974042  0.50039066  0.70713776  1
  Sc  Sc75  1  0.69724069  0.29735048  0.11129228  1
  Sc  Sc76  1  0.30654917  0.69746457  0.29668473  1
  Sc  Sc77  1  0.49629045  0.89741082  0.69392921  1
  Sc  Sc78  1  0.50162455  0.30116731  0.11129803  1
  Sc  Sc79  1  0.09950659  0.90200890  0.28955107  1
  Sc  Sc80  1  0.69951284  0.70560260  0.11011614  1
  Sc  Sc81  1  0.30422272  0.69376431  0.49689039  1
  Sc  Sc82  1  0.69502443  0.89749719  0.49801951  1
  Sc  Sc83  1  0.89860727  0.30073381  0.89524812  1
  Sc  Sc84  1  0.29985230  0.50573202  0.10398189  1
  Sc  Sc85  1  0.49674997  0.70430694  0.70251109  1
  Sc  Sc86  1  0.49265194  0.10189925  0.50138851  1
  Sc  Sc87  1  0.31008810  0.90210105  0.49577945  1
  Sc  Sc88  1  0.49950290  0.09456751  0.69289161  1
  Sc  Sc89  1  0.30171243  0.90994196  0.10854526  1
  Sc  Sc90  1  0.69439360  0.69486627  0.69776116  1
  Sc  Sc91  1  0.49272129  0.89392895  0.29899598  1
  Sc  Sc92  1  0.90471627  0.49404649  0.10314883  1
  Sc  Sc93  1  0.30118922  0.09589810  0.48770476  1
  Sc  Sc94  1  0.09228262  0.11466702  0.70111329  1
  Sc  Sc95  1  0.90658941  0.30256347  0.09919785  1
  Sc  Sc96  1  0.29957568  0.50787580  0.90212513  1
  Sc  Sc97  1  0.30079181  0.69687839  0.89575549  1
  Sc  Sc98  1  0.90347150  0.09959583  0.89441531  1
  Sc  Sc99  1  0.49123408  0.69555267  0.10756045  1
  Nb  Nb100  1  0.09871169  0.49853079  0.70127521  1
  Nb  Nb101  1  0.49732790  0.49944388  0.29982854  1
  Nb  Nb102  1  0.29170268  0.50222942  0.69821798  1
  Nb  Nb103  1  0.70012826  0.09945424  0.70226187  1
  Nb  Nb104  1  0.49869655  0.69633898  0.90408048  1
  Nb  Nb105  1  0.90015094  0.70029264  0.89944362  1
  Nb  Nb106  1  0.70214646  0.89761459  0.09462822  1
  Nb  Nb107  1  0.10115204  0.70384187  0.29732483  1
  Nb  Nb108  1  0.68725400  0.49603705  0.90114299  1
  Nb  Nb109  1  0.50007520  0.10141905  0.89999664  1
  Nb  Nb110  1  0.49852471  0.10143591  0.30611377  1
  Nb  Nb111  1  0.29907673  0.10233856  0.09666574  1
  Nb  Nb112  1  0.09839227  0.30082857  0.50671776  1
  Nb  Nb113  1  0.70047285  0.29896819  0.30226616  1
  Nb  Nb114  1  0.50727940  0.69960960  0.30174310  1
  Nb  Nb115  1  0.30184725  0.49854878  0.31419942  1
  Nb  Nb116  1  0.10275024  0.89917285  0.69915189  1
  Nb  Nb117  1  0.09703774  0.90550987  0.89591038  1
  Nb  Nb118  1  0.49788259  0.50093312  0.09881211  1
  Nb  Nb119  1  0.29757314  0.90062509  0.30627758  1
  Nb  Nb120  1  0.69815239  0.70033014  0.30392217  1
  Nb  Nb121  1  0.09678676  0.31100396  0.69189421  1
  Nb  Nb122  1  0.49936675  0.49895991  0.49668475  1
  Nb  Nb123  1  0.50735251  0.49753341  0.90311394  1
  Nb  Nb124  1  0.69876731  0.70163427  0.49614854  1
  Nb  Nb125  1  -0.00131710  0.59857654  0.80523253  1
  Nb  Nb126  1  0.40609992  0.40176471  0.00129371  1
  Nb  Nb127  1  0.40548533  0.40497210  0.39858565  1
  Nb  Nb128  1  0.79829392  0.79918155  -0.00435370  1
  Nb  Nb129  1  0.40395121  0.80132694  -0.00171940  1
  Nb  Nb130  1  0.59605494  0.00265698  0.39593010  1
  Nb  Nb131  1  0.79670406  -0.00097724  0.79597492  1
  Nb  Nb132  1  0.59103339  0.40031883  0.59892165  1
  Nb  Nb133  1  0.19526802  -0.00087269  0.60424690  1
  Nb  Nb134  1  -0.00018571  0.60489488  0.39492932  1
  Nb  Nb135  1  0.59973845  0.19707676  0.80248352  1
  Nb  Nb136  1  0.19099986  -0.00366201  0.79291393  1
  Nb  Nb137  1  0.60003075  0.79462804  -0.00180225  1
  Nb  Nb138  1  0.20162540  0.79944824  0.39238762  1
  Nb  Nb139  1  0.80040689  0.60496195  0.39610172  1
  Nb  Nb140  1  0.60019528  0.59459066  0.20457506  1
  Nb  Nb141  1  0.00561317  -0.00074308  0.60076899  1
  Nb  Nb142  1  0.40498937  0.19942418  0.00147517  1
  Nb  Nb143  1  0.79290934  0.19695710  -0.00132778  1
  Nb  Nb144  1  -0.00249436  0.60501613  -0.00356101  1
  Nb  Nb145  1  0.59817759  0.19633760  -0.00118385  1
  Nb  Nb146  1  0.79602065  0.59932773  0.21039000  1
  Nb  Nb147  1  0.79813768  0.79697952  0.59812336  1
  Nb  Nb148  1  0.59794363  0.59811198  0.00252414  1
  Nb  Nb149  1  0.20170790  0.80770057  0.00131938  1
  Pd  Pd150  1  0.19261049  0.59967320  0.79863672  1
  Pd  Pd151  1  -0.01133575  0.59747128  0.20630608  1
  Pd  Pd152  1  0.60479425  0.00297711  0.21234867  1
  Pd  Pd153  1  0.59900971  0.79308014  0.80034237  1
  Pd  Pd154  1  0.00209070  0.20567740  0.20237902  1
  Pd  Pd155  1  0.80805943  0.58654578  0.79702107  1
  Pd  Pd156  1  0.00673006  -0.00381678  0.39919881  1
  Pd  Pd157  1  0.80591583  0.39637033  0.19999771  1
  Pd  Pd158  1  0.59380697  -0.00174942  -0.00105185  1
  Pd  Pd159  1  0.39600374  0.80093298  0.19852333  1
  Pd  Pd160  1  0.79945474  0.60302060  0.59361306  1
  Pd  Pd161  1  0.40048429  0.59684218  0.20682241  1
  Pd  Pd162  1  0.20189273  0.40286477  0.80075551  1
  Pd  Pd163  1  0.58958607  0.59705622  0.60467547  1
  Pd  Pd164  1  -0.00823441  0.20021596  -0.00337278  1
  Pd  Pd165  1  0.39624954  0.00420978  0.79611351  1
  Pd  Pd166  1  0.39443808  0.20077837  0.19794196  1
  Pd  Pd167  1  0.39526631  0.40048890  0.20198819  1
  Pd  Pd168  1  0.78530475  -0.00197863  0.39131682  1
  Pd  Pd169  1  0.20782905  0.59738037  0.20731569  1
  Pd  Pd170  1  0.40025712  -0.00093239  0.00236558  1
  Pd  Pd171  1  0.38508756  0.19609709  0.59348587  1
  Pd  Pd172  1  0.20475811  0.80579800  0.80793890  1
  Pd  Pd173  1  0.40188385  0.59720953  0.80340286  1
  Pd  Pd174  1  -0.00811189  0.80599675  0.60219870  1
  Pd  Pd175  1  0.80724156  0.40661050  0.79373871  1
  Pd  Pd176  1  0.19850809  0.00057619  0.19808129  1
  Pd  Pd177  1  0.21357326  0.39880768  -0.00147973  1
  Pd  Pd178  1  -0.00807930  0.40863103  0.80714519  1
  Pd  Pd179  1  0.60186412  0.20781422  0.60963209  1
  Pd  Pd180  1  0.79781916  0.60698101  0.01113034  1
  Pd  Pd181  1  0.18880408  0.19806002  0.80390778  1
  Pd  Pd182  1  0.40690220  0.60173548  0.60004343  1
  Pd  Pd183  1  0.80519799  0.20184078  0.19199519  1
  Pd  Pd184  1  0.00649525  0.20613867  0.80560287  1
  Pd  Pd185  1  0.20217663  0.19519268  0.59824169  1
  Pd  Pd186  1  0.79854149  0.80550509  0.79571044  1
  Pd  Pd187  1  0.79704977  0.19963204  0.40578497  1
  Pd  Pd188  1  0.21215312  0.80323661  0.58746986  1
  Pd  Pd189  1  0.20429275  0.20805216  0.39651754  1
  Pd  Pd190  1  0.81225224  -0.00830744  0.60910007  1
  Pd  Pd191  1  0.59485692  0.39389327  0.40653631  1
  Pd  Pd192  1  0.59691162  0.39084101  0.78429318  1
  Pd  Pd193  1  0.80338913  0.20396849  0.59647620  1
  Pd  Pd194  1  0.20455000  0.40214895  0.20330440  1
  Pd  Pd195  1  0.00188716  0.79272013  0.79484674  1
  Pd  Pd196  1  0.60912940  0.18914749  0.40731612  1
  Pd  Pd197  1  0.60411972  0.59654458  0.39492143  1
  Pd  Pd198  1  0.39763897  0.40356092  0.59607718  1
  Pd  Pd199  1  0.59880677  0.40314145  0.19922062  1
  Rh  Rh200  1  0.20524976  0.39635825  0.40385417  1
  Rh  Rh201  1  0.19683722  0.40618205  0.60168527  1
  Rh  Rh202  1  0.79337294  0.79946609  0.40496384  1
  Rh  Rh203  1  0.60459777  0.19394382  0.19852555  1
  Rh  Rh204  1  0.59355109  0.39765433  0.01123596  1
  Rh  Rh205  1  0.00407446  0.00629187  0.19943766  1
  Rh  Rh206  1  0.39480219  0.20728631  0.39775952  1
  Rh  Rh207  1  0.80152321  0.38646842  0.00733139  1
  Rh  Rh208  1  0.19881587  -0.01030566  0.40328906  1
  Rh  Rh209  1  -0.00421627  0.40723335  -0.00346648  1
  Rh  Rh210  1  0.00076471  0.79782308  0.00389152  1
  Rh  Rh211  1  0.00781984  0.59208218  0.59942375  1
  Rh  Rh212  1  0.20819670  0.20460359  -0.00284228  1
  Rh  Rh213  1  0.00607942  0.39305641  0.20259256  1
  Rh  Rh214  1  0.79190047  0.39989874  0.60040674  1
  Rh  Rh215  1  0.80281549  0.79818805  0.19410256  1
  Rh  Rh216  1  -0.00191925  0.81025562  0.20066012  1
  Rh  Rh217  1  0.79006950  0.19101744  0.80976192  1
  Rh  Rh218  1  0.39828965  -0.00011020  0.20607104  1
  Rh  Rh219  1  0.39112828  0.00378850  0.59956738  1
  Rh  Rh220  1  -0.00129421  0.00967172  0.00117487  1
  Rh  Rh221  1  0.38904538  0.41354055  0.80540779  1
  Rh  Rh222  1  0.39638286  0.79430736  0.39631905  1
  Rh  Rh223  1  0.59159213  0.00114389  0.59359134  1
  Rh  Rh224  1  0.19078943  0.60824575  0.00346301  1
  Rh  Rh225  1  0.39964704  0.79640929  0.80592586  1
  Rh  Rh226  1  0.20211930  -0.00528660  -0.00666706  1
  Rh  Rh227  1  0.79764545  -0.00148428  0.20781403  1
  Rh  Rh228  1  0.00876558  0.40743072  0.59251302  1
  Rh  Rh229  1  0.20661664  0.80509254  0.20011912  1
  Rh  Rh230  1  0.80211193  0.39950891  0.40415203  1
  Rh  Rh231  1  0.00190411  0.00568312  0.79156692  1
  Rh  Rh232  1  0.19836344  0.59568153  0.60290966  1
  Rh  Rh233  1  0.59489328  0.79123387  0.19523451  1
  Rh  Rh234  1  0.00683085  0.40357140  0.40398173  1
  Rh  Rh235  1  0.40935872  -0.00182569  0.39497342  1
  Rh  Rh236  1  0.20103791  0.19977072  0.20260104  1
  Rh  Rh237  1  0.19612603  0.60956545  0.39306561  1
  Rh  Rh238  1  0.40494905  0.59802923  0.39692344  1
  Rh  Rh239  1  0.59774571  0.80795841  0.39906542  1
  Rh  Rh240  1  0.01104782  0.80006983  0.39135056  1
  Rh  Rh241  1  0.40618101  0.59696372  -0.00338455  1
  Rh  Rh242  1  0.40092673  0.79027852  0.59412230  1
  Rh  Rh243  1  0.80923914  -0.00086960  -0.01011803  1
  Rh  Rh244  1  0.60328040  0.79392756  0.59798809  1
  Rh  Rh245  1  0.59155914  0.60089372  0.80269081  1
  Rh  Rh246  1  0.59911027  0.00680997  0.79159849  1
  Rh  Rh247  1  0.00215744  0.20583496  0.40002680  1
  Rh  Rh248  1  0.00030154  0.19769815  0.59584288  1
  Rh  Rh249  1  0.40482642  0.19012929  0.80543541  1
