# generated using pymatgen
data_ZrScNbPdRh
_symmetry_space_group_name_H-M   'P 1'
_cell_length_a   16.55432781
_cell_length_b   16.56103719
_cell_length_c   16.56364280
_cell_angle_alpha   89.99749920
_cell_angle_beta   90.03433319
_cell_angle_gamma   89.97377955
_symmetry_Int_Tables_number   1
_chemical_formula_structural   ZrScNbPdRh
_chemical_formula_sum   'Zr50 Sc50 Nb50 Pd50 Rh50'
_cell_volume   4541.03464896
_cell_formula_units_Z   50
loop_
 _symmetry_equiv_pos_site_id
 _symmetry_equiv_pos_as_xyz
  1  'x, y, z'
loop_
 _atom_site_type_symbol
 _atom_site_label
 _atom_site_symmetry_multiplicity
 _atom_site_fract_x
 _atom_site_fract_y
 _atom_site_fract_z
 _atom_site_occupancy
  Zr  Zr0  1  0.29843695  0.50902265  0.70275154  1
  Zr  Zr1  1  0.89507733  0.71088124  0.09573796  1
  Zr  Zr2  1  0.30129905  0.11442956  0.29936805  1
  Zr  Zr3  1  0.30236730  0.09222331  0.09432147  1
  Zr  Zr4  1  0.89149118  0.90606813  0.29628182  1
  Zr  Zr5  1  0.09761301  0.90815673  0.29973494  1
  Zr  Zr6  1  0.09588486  0.90872895  0.69797667  1
  Zr  Zr7  1  0.10345048  0.70160140  0.70923036  1
  Zr  Zr8  1  0.89554015  0.29373888  0.50703700  1
  Zr  Zr9  1  0.70611208  0.10265186  0.30169995  1
  Zr  Zr10  1  0.30896380  0.49866497  0.90541054  1
  Zr  Zr11  1  0.29165924  0.30253938  0.48859956  1
  Zr  Zr12  1  0.50300165  0.69258065  0.90105835  1
  Zr  Zr13  1  0.90015396  0.10310633  0.10430962  1
  Zr  Zr14  1  0.49736492  0.29477754  0.29416584  1
  Zr  Zr15  1  0.10176969  0.29707954  0.70690540  1
  Zr  Zr16  1  0.90381512  0.10063512  0.29728287  1
  Zr  Zr17  1  0.29605849  0.70011838  0.88941709  1
  Zr  Zr18  1  0.48977881  0.88680101  0.10241329  1
  Zr  Zr19  1  0.70490245  0.30572571  0.69301340  1
  Zr  Zr20  1  0.50208808  0.50974191  0.08917346  1
  Zr  Zr21  1  0.70056921  0.69296397  0.09879847  1
  Zr  Zr22  1  0.69412628  0.90069787  0.70808693  1
  Zr  Zr23  1  0.90451361  0.49953976  0.11283092  1
  Zr  Zr24  1  0.11980874  0.29878175  0.30131815  1
  Zr  Zr25  1  0.70459958  0.49020016  0.29864211  1
  Zr  Zr26  1  0.70297073  0.69813890  0.89610782  1
  Zr  Zr27  1  0.49164082  0.70574636  0.70356032  1
  Zr  Zr28  1  0.11002800  0.90195957  0.09956505  1
  Zr  Zr29  1  0.70414674  0.10533364  0.50086790  1
  Zr  Zr30  1  0.10031314  0.09969012  0.10865440  1
  Zr  Zr31  1  0.29395495  0.48894937  0.29273292  1
  Zr  Zr32  1  0.49612235  0.90377115  0.49228302  1
  Zr  Zr33  1  0.90536659  0.49276794  0.90039927  1
  Zr  Zr34  1  0.90298327  0.09630836  0.70214144  1
  Zr  Zr35  1  0.70108075  0.49042926  0.49965508  1
  Zr  Zr36  1  0.29509447  0.70066087  0.50478975  1
  Zr  Zr37  1  0.29920355  0.90503396  0.70813946  1
  Zr  Zr38  1  0.09226997  0.29948514  0.89778260  1
  Zr  Zr39  1  0.70490735  0.09344254  0.90011353  1
  Zr  Zr40  1  0.10059177  0.90085154  0.49657972  1
  Zr  Zr41  1  0.89933051  0.89884275  0.49737833  1
  Zr  Zr42  1  0.49628184  0.09829567  0.49941118  1
  Zr  Zr43  1  0.30066326  0.31192459  0.70194728  1
  Zr  Zr44  1  0.09853341  0.70487494  0.49903671  1
  Zr  Zr45  1  0.29565306  0.49978402  0.09299064  1
  Zr  Zr46  1  0.49422223  0.70844967  0.49328028  1
  Zr  Zr47  1  0.29912948  0.30379397  0.90002373  1
  Zr  Zr48  1  0.50303236  0.70832890  0.28725501  1
  Zr  Zr49  1  0.70210753  0.49989657  0.70183686  1
  Sc  Sc50  1  0.89825295  0.10568346  0.49598969  1
  Sc  Sc51  1  0.49593747  0.10436668  0.30520969  1
  Sc  Sc52  1  0.69870322  0.90027770  0.48837852  1
  Sc  Sc53  1  0.30298956  0.70988737  0.09716600  1
  Sc  Sc54  1  0.29681186  0.09288647  0.89568055  1
  Sc  Sc55  1  0.70453490  0.29958859  0.10398851  1
  Sc  Sc56  1  0.70740204  0.70270978  0.49951838  1
  Sc  Sc57  1  0.30159881  0.29859736  0.11001213  1
  Sc  Sc58  1  0.89855131  0.29818347  0.09732685  1
  Sc  Sc59  1  0.89596433  0.30080400  0.70628287  1
  Sc  Sc60  1  0.70299525  0.50322835  0.90299692  1
  Sc  Sc61  1  0.90002436  0.89631851  0.70904017  1
  Sc  Sc62  1  0.09072425  0.09556450  0.50538940  1
  Sc  Sc63  1  0.10869095  0.70897554  0.09298455  1
  Sc  Sc64  1  0.29675849  0.90177867  0.49757368  1
  Sc  Sc65  1  0.09927043  0.70366778  0.90140343  1
  Sc  Sc66  1  0.30433129  0.09448569  0.48878498  1
  Sc  Sc67  1  0.69720731  0.70897058  0.29275792  1
  Sc  Sc68  1  0.51000096  0.31236683  0.49951575  1
  Sc  Sc69  1  0.70436740  0.89763502  0.89322122  1
  Sc  Sc70  1  0.29340721  0.90716826  0.30230911  1
  Sc  Sc71  1  0.89665742  0.69797470  0.49233706  1
  Sc  Sc72  1  0.89265571  0.49723105  0.70911458  1
  Sc  Sc73  1  0.50150384  0.08175676  0.70058024  1
  Sc  Sc74  1  0.90446875  0.70374446  0.89481363  1
  Sc  Sc75  1  0.70808624  0.29992329  0.91102261  1
  Sc  Sc76  1  0.49226830  0.49257308  0.69283552  1
  Sc  Sc77  1  0.10590309  0.50445079  0.49168762  1
  Sc  Sc78  1  0.29917423  0.90147013  0.90507728  1
  Sc  Sc79  1  0.70801685  0.69732561  0.70540659  1
  Sc  Sc80  1  0.70483055  0.49826809  0.09980736  1
  Sc  Sc81  1  0.10037612  0.89488447  0.89457648  1
  Sc  Sc82  1  0.89804484  0.29250652  0.29795062  1
  Sc  Sc83  1  0.29832934  0.50137818  0.50609290  1
  Sc  Sc84  1  0.70426466  0.10876459  0.09601012  1
  Sc  Sc85  1  0.70090884  0.09342361  0.70800110  1
  Sc  Sc86  1  0.10281780  0.49638778  0.91106393  1
  Sc  Sc87  1  0.50249235  0.29146296  0.09293726  1
  Sc  Sc88  1  0.70379940  0.30323238  0.49604041  1
  Sc  Sc89  1  0.09205081  0.50051106  0.71348526  1
  Sc  Sc90  1  0.49843239  0.89469956  0.88814967  1
  Sc  Sc91  1  0.09257505  0.30174540  0.10407081  1
  Sc  Sc92  1  0.09845036  0.09691079  0.70973602  1
  Sc  Sc93  1  0.71864824  0.88813616  0.10308412  1
  Sc  Sc94  1  0.50533111  0.50117038  0.28380893  1
  Sc  Sc95  1  0.89899299  0.89327459  0.90139810  1
  Sc  Sc96  1  0.90017118  0.29949894  0.90283360  1
  Sc  Sc97  1  0.09687296  0.69967092  0.31001601  1
  Sc  Sc98  1  0.90310019  0.69552986  0.30254057  1
  Sc  Sc99  1  0.49400552  0.09792924  0.91157795  1
  Nb  Nb100  1  0.50990672  0.89650998  0.29940976  1
  Nb  Nb101  1  0.49945106  0.49210582  0.90455818  1
  Nb  Nb102  1  0.69418927  0.90190793  0.29813156  1
  Nb  Nb103  1  0.90214464  0.09794180  0.90031639  1
  Nb  Nb104  1  0.50894158  0.69931746  0.10335085  1
  Nb  Nb105  1  0.09363583  0.10511176  0.89554044  1
  Nb  Nb106  1  0.10222963  0.09948506  0.29448322  1
  Nb  Nb107  1  0.09237365  0.49963773  0.29235331  1
  Nb  Nb108  1  0.90812600  0.90001550  0.09842833  1
  Nb  Nb109  1  0.90551912  0.69541782  0.70054848  1
  Nb  Nb110  1  0.49925295  0.30058222  0.70024433  1
  Nb  Nb111  1  0.49555378  0.30395705  0.89795102  1
  Nb  Nb112  1  0.50442094  0.89726389  0.69835587  1
  Nb  Nb113  1  0.29737444  0.10679352  0.70143829  1
  Nb  Nb114  1  0.30553063  0.29855219  0.30082968  1
  Nb  Nb115  1  0.09789068  0.30406281  0.50341371  1
  Nb  Nb116  1  0.69328780  0.29797903  0.29988992  1
  Nb  Nb117  1  0.30090049  0.69001988  0.30107466  1
  Nb  Nb118  1  0.89959104  0.49951126  0.49286556  1
  Nb  Nb119  1  0.09845228  0.50232559  0.10524686  1
  Nb  Nb120  1  0.29507601  0.90383390  0.09989196  1
  Nb  Nb121  1  0.49835536  0.09133189  0.09978774  1
  Nb  Nb122  1  0.91095850  0.50260054  0.30686471  1
  Nb  Nb123  1  0.50526781  0.50300152  0.49285401  1
  Nb  Nb124  1  0.29890437  0.70042189  0.70064524  1
  Nb  Nb125  1  0.00083651  0.59871071  0.00890853  1
  Nb  Nb126  1  -0.00174453  0.79407545  0.60132209  1
  Nb  Nb127  1  0.59824721  -0.00516712  0.19741371  1
  Nb  Nb128  1  0.59582664  0.80049115  0.60193176  1
  Nb  Nb129  1  0.59465335  0.20041248  0.60873696  1
  Nb  Nb130  1  0.19563117  0.59693775  0.19956397  1
  Nb  Nb131  1  0.80061573  -0.00257770  0.60050911  1
  Nb  Nb132  1  0.00204795  0.39960470  0.40018582  1
  Nb  Nb133  1  -0.00084821  0.00356190  -0.00082409  1
  Nb  Nb134  1  0.20381156  0.20163101  0.60233454  1
  Nb  Nb135  1  0.40366779  0.20314325  0.79464285  1
  Nb  Nb136  1  0.59837529  -0.01003358  0.00994719  1
  Nb  Nb137  1  0.40209361  0.59768978  0.39448242  1
  Nb  Nb138  1  0.59942802  0.79679309  0.00256184  1
  Nb  Nb139  1  0.59396019  0.39455235  0.80449657  1
  Nb  Nb140  1  0.59600643  0.60330062  0.59408857  1
  Nb  Nb141  1  0.40131159  0.40474756  0.39370744  1
  Nb  Nb142  1  0.39926317  0.20223780  0.60426457  1
  Nb  Nb143  1  -0.00157592  0.40470138  0.59320700  1
  Nb  Nb144  1  -0.00060593  0.80751407  0.19835530  1
  Nb  Nb145  1  0.59303141  0.20551641  0.80065316  1
  Nb  Nb146  1  -0.00503712  0.59926579  0.59968560  1
  Nb  Nb147  1  0.19410939  0.19726760  -0.00364509  1
  Nb  Nb148  1  0.40398539  -0.00422251  0.19812917  1
  Nb  Nb149  1  0.59643828  0.59938752  0.40004998  1
  Pd  Pd150  1  0.59676469  0.39824978  0.18921573  1
  Pd  Pd151  1  0.00809524  0.20557405  0.39561630  1
  Pd  Pd152  1  0.60457020  0.39791082  -0.00052426  1
  Pd  Pd153  1  0.59949281  0.00681117  0.39384113  1
  Pd  Pd154  1  0.00831396  0.61835396  0.19367477  1
  Pd  Pd155  1  0.00072847  0.19638991  0.00201376  1
  Pd  Pd156  1  0.19290738  0.59335825  0.81023479  1
  Pd  Pd157  1  0.80884465  0.39126101  0.39490199  1
  Pd  Pd158  1  0.20387878  0.80134752  0.39309989  1
  Pd  Pd159  1  0.80148116  -0.00459119  0.00236156  1
  Pd  Pd160  1  0.20429080  0.59334221  0.39388649  1
  Pd  Pd161  1  0.39570444  0.61135933  0.00248619  1
  Pd  Pd162  1  0.39224771  -0.00059943  0.60021489  1
  Pd  Pd163  1  -0.00174720  0.38856815  0.20803313  1
  Pd  Pd164  1  -0.00217638  0.00435711  0.40080784  1
  Pd  Pd165  1  0.81127694  0.59692675  -0.00398369  1
  Pd  Pd166  1  0.40852210  0.39894549  0.19333383  1
  Pd  Pd167  1  0.79834746  0.79786519  0.39114612  1
  Pd  Pd168  1  0.79239533  0.00396291  0.19307906  1
  Pd  Pd169  1  0.80670160  0.39449741  0.20398691  1
  Pd  Pd170  1  0.39901483  0.39738968  0.58769776  1
  Pd  Pd171  1  0.59144838  0.58981030  0.79157669  1
  Pd  Pd172  1  0.00559419  0.20382952  0.60738533  1
  Pd  Pd173  1  0.18914922  0.00421254  -0.01122567  1
  Pd  Pd174  1  0.19732190  0.41024365  0.80542389  1
  Pd  Pd175  1  0.79627723  0.20142844  0.80204124  1
  Pd  Pd176  1  0.60203370  0.19427546  -0.00663751  1
  Pd  Pd177  1  0.59943834  0.19162968  0.19773879  1
  Pd  Pd178  1  0.20490589  0.01081960  0.59796452  1
  Pd  Pd179  1  0.39272027  0.60056951  0.19644479  1
  Pd  Pd180  1  0.60867080  -0.00283731  0.59503885  1
  Pd  Pd181  1  0.59873377  0.20447763  0.40801638  1
  Pd  Pd182  1  0.19794031  0.79190437  0.21017654  1
  Pd  Pd183  1  0.39148542  0.20145636  -0.00365940  1
  Pd  Pd184  1  0.40393141  0.59940814  0.59312805  1
  Pd  Pd185  1  0.39699188  0.81051747  0.60304496  1
  Pd  Pd186  1  0.19724872  0.80453053  0.60774556  1
  Pd  Pd187  1  0.38986416  0.80005619  0.38997448  1
  Pd  Pd188  1  0.38583792  0.80605540  0.20916565  1
  Pd  Pd189  1  0.40282412  0.00322326  0.80346323  1
  Pd  Pd190  1  0.80195667  0.59492588  0.59910805  1
  Pd  Pd191  1  0.79893734  0.60231808  0.20914970  1
  Pd  Pd192  1  0.78996980  0.60168757  0.39250936  1
  Pd  Pd193  1  0.18926308  0.18828321  0.41155613  1
  Pd  Pd194  1  0.79962139  0.80627436  0.60628526  1
  Pd  Pd195  1  0.18800475  0.59582087  0.60473994  1
  Pd  Pd196  1  0.18987067  0.40557112  0.60372696  1
  Pd  Pd197  1  0.40115688  0.79576158  -0.00857635  1
  Pd  Pd198  1  0.40823321  0.59344286  0.80009568  1
  Pd  Pd199  1  0.19503649  0.38892767  0.00729012  1
  Rh  Rh200  1  0.20239919  0.80504852  0.79793809  1
  Rh  Rh201  1  0.79709170  0.20592920  0.39365089  1
  Rh  Rh202  1  0.40339606  0.40473798  0.80210735  1
  Rh  Rh203  1  0.60348414  0.60116292  -0.00229351  1
  Rh  Rh204  1  0.60288996  0.40386139  0.60665920  1
  Rh  Rh205  1  -0.00232384  -0.00313424  0.81263369  1
  Rh  Rh206  1  0.19840852  0.40639528  0.39749437  1
  Rh  Rh207  1  0.80837410  0.59983490  0.80478176  1
  Rh  Rh208  1  0.19644431  0.40124271  0.19378386  1
  Rh  Rh209  1  -0.00920095  0.20123396  0.79738191  1
  Rh  Rh210  1  0.79710778  0.20362877  0.20235790  1
  Rh  Rh211  1  0.20699208  0.19716817  0.80433589  1
  Rh  Rh212  1  0.79519185  0.80027905  -0.00885335  1
  Rh  Rh213  1  0.80749525  -0.00283125  0.79642749  1
  Rh  Rh214  1  0.80445230  0.19918323  -0.00017387  1
  Rh  Rh215  1  0.59402508  0.40170233  0.38555994  1
  Rh  Rh216  1  0.60543074  0.79401521  0.40554137  1
  Rh  Rh217  1  0.00380815  0.80196729  0.00605363  1
  Rh  Rh218  1  -0.00291509  0.40739034  0.00672252  1
  Rh  Rh219  1  0.79228784  0.18882492  0.61022798  1
  Rh  Rh220  1  0.19693025  0.00086017  0.80238870  1
  Rh  Rh221  1  0.80976678  0.40551406  0.59731285  1
  Rh  Rh222  1  0.21079447  0.00891754  0.20668336  1
  Rh  Rh223  1  0.40279340  0.39494566  0.00929401  1
  Rh  Rh224  1  0.40503427  -0.01086781  0.00329257  1
  Rh  Rh225  1  0.60082836  0.79483984  0.79925248  1
  Rh  Rh226  1  0.60833344  0.80689154  0.18886553  1
  Rh  Rh227  1  0.00231712  0.59542162  0.40710866  1
  Rh  Rh228  1  0.40223186  -0.00666609  0.38770046  1
  Rh  Rh229  1  0.19689523  0.60384180  0.00412972  1
  Rh  Rh230  1  0.79954431  0.00248211  0.40453343  1
  Rh  Rh231  1  0.59198984  0.00702541  0.81542552  1
  Rh  Rh232  1  0.40089940  0.19274076  0.19148738  1
  Rh  Rh233  1  0.80731720  0.79822692  0.20763102  1
  Rh  Rh234  1  0.20365430  0.19882995  0.19205460  1
  Rh  Rh235  1  -0.00472539  0.80498625  0.39734270  1
  Rh  Rh236  1  0.00084358  -0.00395819  0.19478186  1
  Rh  Rh237  1  0.60947640  0.59594423  0.20381053  1
  Rh  Rh238  1  0.20704295  0.80107491  -0.00764413  1
  Rh  Rh239  1  -0.00240402  0.39572138  0.79598674  1
  Rh  Rh240  1  0.00163369  0.80053587  0.79397519  1
  Rh  Rh241  1  0.80269259  0.79591839  0.79803429  1
  Rh  Rh242  1  0.80472334  0.40262972  0.00584268  1
  Rh  Rh243  1  0.40937946  0.21575867  0.41262203  1
  Rh  Rh244  1  -0.00146769  0.59928326  0.80827665  1
  Rh  Rh245  1  0.78966298  0.39862893  0.80891991  1
  Rh  Rh246  1  -0.01129872  -0.00793128  0.59850125  1
  Rh  Rh247  1  0.39388577  0.80219210  0.79865126  1
  Rh  Rh248  1  0.00396598  0.20441280  0.20768206  1
  Rh  Rh249  1  0.19560567  0.00782883  0.39903647  1
