# generated using pymatgen
data_ZrScNbPdRh
_symmetry_space_group_name_H-M   'P 1'
_cell_length_a   16.54888668
_cell_length_b   16.55619947
_cell_length_c   16.55465791
_cell_angle_alpha   89.98591803
_cell_angle_beta   90.00368779
_cell_angle_gamma   90.03004812
_symmetry_Int_Tables_number   1
_chemical_formula_structural   ZrScNbPdRh
_chemical_formula_sum   'Zr50 Sc50 Nb50 Pd50 Rh50'
_cell_volume   4535.75480650
_cell_formula_units_Z   50
loop_
 _symmetry_equiv_pos_site_id
 _symmetry_equiv_pos_as_xyz
  1  'x, y, z'
loop_
 _atom_site_type_symbol
 _atom_site_label
 _atom_site_symmetry_multiplicity
 _atom_site_fract_x
 _atom_site_fract_y
 _atom_site_fract_z
 _atom_site_occupancy
  Zr  Zr0  1  0.09521661  0.89671185  0.30278622  1
  Zr  Zr1  1  0.51202520  0.70340828  0.90075721  1
  Zr  Zr2  1  0.50461250  0.90057627  0.70413265  1
  Zr  Zr3  1  0.10505743  0.69575262  0.10013729  1
  Zr  Zr4  1  0.90578442  0.49797016  0.29970974  1
  Zr  Zr5  1  0.29949924  0.09933254  0.09506073  1
  Zr  Zr6  1  0.09182243  0.91052401  0.10247144  1
  Zr  Zr7  1  0.30386113  0.70258306  0.29941242  1
  Zr  Zr8  1  0.30548926  0.70610402  0.09757791  1
  Zr  Zr9  1  0.69954204  0.50576599  0.50057449  1
  Zr  Zr10  1  0.69806623  0.10451358  0.29766321  1
  Zr  Zr11  1  0.89489684  0.10081656  0.30048215  1
  Zr  Zr12  1  0.91321718  0.10006019  0.09716354  1
  Zr  Zr13  1  0.29318614  0.10259526  0.70323052  1
  Zr  Zr14  1  0.29337340  0.70470148  0.90711349  1
  Zr  Zr15  1  0.89986494  0.49537270  0.10446106  1
  Zr  Zr16  1  0.90330846  0.70458749  0.50589527  1
  Zr  Zr17  1  0.70663909  0.90453688  0.29697430  1
  Zr  Zr18  1  0.50169806  0.29363566  0.71164308  1
  Zr  Zr19  1  0.29656438  0.49723807  0.70166664  1
  Zr  Zr20  1  0.30833399  0.70351444  0.69079296  1
  Zr  Zr21  1  0.49679004  0.90099961  0.30350675  1
  Zr  Zr22  1  0.10219118  0.49728304  0.10144543  1
  Zr  Zr23  1  0.30307601  0.89788836  0.09658982  1
  Zr  Zr24  1  0.09732516  0.71035255  0.89815186  1
  Zr  Zr25  1  0.09711003  0.09940557  0.89351128  1
  Zr  Zr26  1  0.28836808  0.49284479  0.90734663  1
  Zr  Zr27  1  0.49360651  0.09903170  0.08705919  1
  Zr  Zr28  1  0.89322598  0.30584291  0.88811797  1
  Zr  Zr29  1  0.51770631  0.50240331  0.90141415  1
  Zr  Zr30  1  0.89691043  0.70423480  0.09953108  1
  Zr  Zr31  1  0.49927177  0.88861992  0.09406437  1
  Zr  Zr32  1  0.09723716  0.09242277  0.70302113  1
  Zr  Zr33  1  0.30476664  0.09045676  0.50507902  1
  Zr  Zr34  1  0.70055295  0.29244950  0.28932264  1
  Zr  Zr35  1  0.49478543  0.50196351  0.48990508  1
  Zr  Zr36  1  0.49680905  0.69598080  0.50495155  1
  Zr  Zr37  1  0.89757564  0.90457005  0.50607484  1
  Zr  Zr38  1  0.09590296  0.29923588  0.10316383  1
  Zr  Zr39  1  0.89904562  0.09238889  0.70222446  1
  Zr  Zr40  1  0.69882713  0.50562332  0.30318494  1
  Zr  Zr41  1  0.70145170  0.70027694  0.29828110  1
  Zr  Zr42  1  0.89816174  0.49516169  0.71058091  1
  Zr  Zr43  1  0.29748458  0.90532093  0.69661972  1
  Zr  Zr44  1  0.71020353  0.50021699  0.89849665  1
  Zr  Zr45  1  0.31179982  0.29508993  0.89335568  1
  Zr  Zr46  1  0.50035820  0.30336003  0.29903144  1
  Zr  Zr47  1  0.09949290  0.30018820  0.30630174  1
  Zr  Zr48  1  0.91023054  0.29925261  0.49030331  1
  Zr  Zr49  1  0.31196029  0.48735608  0.30540374  1
  Sc  Sc50  1  0.69878719  0.09379672  0.70347765  1
  Sc  Sc51  1  0.89678921  0.09927729  0.90234779  1
  Sc  Sc52  1  0.89621417  0.90230471  0.10020547  1
  Sc  Sc53  1  0.70148188  0.29366443  0.70753841  1
  Sc  Sc54  1  0.30196163  0.89634886  0.50563079  1
  Sc  Sc55  1  0.09526648  0.70054411  0.49904343  1
  Sc  Sc56  1  0.28880114  0.49763004  0.10322332  1
  Sc  Sc57  1  0.69861199  0.49313218  0.09473581  1
  Sc  Sc58  1  0.69478092  0.70282232  0.10031363  1
  Sc  Sc59  1  0.09429649  0.49618058  0.70144708  1
  Sc  Sc60  1  0.70226113  0.90124199  0.89818990  1
  Sc  Sc61  1  0.89671363  0.49922030  0.50356296  1
  Sc  Sc62  1  0.30166266  0.50095937  0.50236385  1
  Sc  Sc63  1  0.49446403  0.91052017  0.50578544  1
  Sc  Sc64  1  0.50032009  0.28905710  0.50139425  1
  Sc  Sc65  1  0.09882391  0.30250895  0.89191931  1
  Sc  Sc66  1  0.71160613  0.10042724  0.09481180  1
  Sc  Sc67  1  0.50308396  0.09653714  0.50342703  1
  Sc  Sc68  1  0.50571372  0.10274581  0.69877972  1
  Sc  Sc69  1  0.09446075  0.70459812  0.69474368  1
  Sc  Sc70  1  0.89369588  0.29885389  0.10579308  1
  Sc  Sc71  1  0.29617008  0.89256164  0.89933216  1
  Sc  Sc72  1  0.50679326  0.70445452  0.70295656  1
  Sc  Sc73  1  0.70813826  0.29626660  0.49770945  1
  Sc  Sc74  1  0.10091726  0.29354375  0.69683121  1
  Sc  Sc75  1  0.69975688  0.09847811  0.49814313  1
  Sc  Sc76  1  0.89637448  0.10115967  0.50384046  1
  Sc  Sc77  1  0.50234258  0.68597034  0.28822020  1
  Sc  Sc78  1  0.50699459  0.10354424  0.30938015  1
  Sc  Sc79  1  0.70355129  0.89676337  0.09668772  1
  Sc  Sc80  1  0.09471430  0.11055549  0.50363946  1
  Sc  Sc81  1  0.70205760  0.90381083  0.70394655  1
  Sc  Sc82  1  0.89890516  0.29870235  0.69915793  1
  Sc  Sc83  1  0.70396655  0.50825067  0.69738907  1
  Sc  Sc84  1  0.09687844  0.49662451  0.50371206  1
  Sc  Sc85  1  0.09668551  0.10530644  0.28563825  1
  Sc  Sc86  1  0.90914810  0.70020522  0.30344024  1
  Sc  Sc87  1  0.09273204  0.69761886  0.30350264  1
  Sc  Sc88  1  0.70066646  0.90720183  0.50974676  1
  Sc  Sc89  1  0.50813413  0.50727910  0.70517941  1
  Sc  Sc90  1  0.09364472  0.89085357  0.50934447  1
  Sc  Sc91  1  0.70152266  0.69315341  0.50631753  1
  Sc  Sc92  1  0.50973708  0.90254703  0.90227087  1
  Sc  Sc93  1  0.89709030  0.70404752  0.70113854  1
  Sc  Sc94  1  0.50548398  0.30596026  0.10713805  1
  Sc  Sc95  1  0.70214203  0.09218185  0.89618637  1
  Sc  Sc96  1  0.69872856  0.70301374  0.69492774  1
  Sc  Sc97  1  0.28810442  0.30455693  0.49584043  1
  Sc  Sc98  1  0.29106935  0.09836908  0.29922685  1
  Sc  Sc99  1  0.29688899  0.30980072  0.09960652  1
  Nb  Nb100  1  0.50142602  0.50682608  0.10513341  1
  Nb  Nb101  1  0.90119141  0.30155669  0.29523859  1
  Nb  Nb102  1  0.49090169  0.10730511  0.90108139  1
  Nb  Nb103  1  0.30632746  0.09994518  0.90604643  1
  Nb  Nb104  1  0.69917385  0.29308046  0.10181652  1
  Nb  Nb105  1  0.50296350  0.29563371  0.89776813  1
  Nb  Nb106  1  0.49986775  0.69616776  0.09793733  1
  Nb  Nb107  1  0.69279201  0.30142072  0.90242361  1
  Nb  Nb108  1  0.90155568  0.50253977  0.89740066  1
  Nb  Nb109  1  0.09872323  0.10213396  0.09417931  1
  Nb  Nb110  1  0.30614942  0.30330476  0.70186163  1
  Nb  Nb111  1  0.09864258  0.50750460  0.29278351  1
  Nb  Nb112  1  0.09359209  0.29757152  0.49634082  1
  Nb  Nb113  1  0.10208698  0.89868938  0.89097447  1
  Nb  Nb114  1  0.49975840  0.49591028  0.29703854  1
  Nb  Nb115  1  0.09329475  0.90462241  0.71057147  1
  Nb  Nb116  1  0.30293129  0.69609762  0.49818368  1
  Nb  Nb117  1  0.89826250  0.90109994  0.30162218  1
  Nb  Nb118  1  0.30048368  0.90043950  0.30296773  1
  Nb  Nb119  1  0.70125369  0.69697371  0.90004130  1
  Nb  Nb120  1  0.90292665  0.90167839  0.69590678  1
  Nb  Nb121  1  0.30270023  0.30121762  0.30012943  1
  Nb  Nb122  1  0.09675731  0.50404544  0.90109599  1
  Nb  Nb123  1  0.90116312  0.88690052  0.89441738  1
  Nb  Nb124  1  0.89683599  0.69984491  0.90056189  1
  Nb  Nb125  1  0.19333179  -0.00461929  0.40030196  1
  Nb  Nb126  1  -0.00317225  0.40684456  -0.00710810  1
  Nb  Nb127  1  0.59509960  0.00157358  0.19527981  1
  Nb  Nb128  1  0.39400930  0.60094223  0.80973869  1
  Nb  Nb129  1  0.20099567  0.60153682  0.80057505  1
  Nb  Nb130  1  -0.00570280  0.59945491  -0.00784841  1
  Nb  Nb131  1  0.59897017  0.40083630  0.39898635  1
  Nb  Nb132  1  0.20400194  0.59984833  0.39934044  1
  Nb  Nb133  1  0.59941815  0.79863132  0.40059848  1
  Nb  Nb134  1  0.80221360  0.59842623  0.20097345  1
  Nb  Nb135  1  0.19925593  0.19518210  -0.00239469  1
  Nb  Nb136  1  0.40306217  0.39515404  0.60725868  1
  Nb  Nb137  1  0.41154218  0.40686478  -0.00264955  1
  Nb  Nb138  1  0.40231309  0.00166588  0.20095726  1
  Nb  Nb139  1  0.39829353  0.19954580  0.20330892  1
  Nb  Nb140  1  -0.00013113  -0.00108224  0.39742985  1
  Nb  Nb141  1  0.19428499  0.00353457  -0.00573962  1
  Nb  Nb142  1  0.39862460  0.00572607  0.80625442  1
  Nb  Nb143  1  0.59698918  0.39951618  0.59646344  1
  Nb  Nb144  1  0.40254337  0.79611128  0.40107480  1
  Nb  Nb145  1  0.79785490  0.80409643  0.40082687  1
  Nb  Nb146  1  0.60002321  0.20499846  -0.00480272  1
  Nb  Nb147  1  0.39235438  0.20056793  0.39543973  1
  Nb  Nb148  1  0.20131025  0.80443451  0.20253968  1
  Nb  Nb149  1  0.40597293  0.59718530  0.00038831  1
  Pd  Pd150  1  0.20122873  0.20203686  0.80419396  1
  Pd  Pd151  1  0.19996160  0.79499736  0.78643127  1
  Pd  Pd152  1  0.80196565  0.20082955  0.40036135  1
  Pd  Pd153  1  0.79422944  0.39676874  0.60426047  1
  Pd  Pd154  1  0.80024849  0.60093582  0.00688893  1
  Pd  Pd155  1  -0.00203648  -0.00778692  -0.01224805  1
  Pd  Pd156  1  0.00415498  0.60727515  0.80032635  1
  Pd  Pd157  1  0.20246968  0.20478563  0.59724361  1
  Pd  Pd158  1  0.40584061  0.59155387  0.60935390  1
  Pd  Pd159  1  0.40786826  0.41143237  0.80249518  1
  Pd  Pd160  1  0.60939927  0.20373288  0.59812782  1
  Pd  Pd161  1  0.79441255  0.80222066  -0.00298649  1
  Pd  Pd162  1  0.59701658  0.80408501  0.20368900  1
  Pd  Pd163  1  0.00123000  0.21265150  -0.00772910  1
  Pd  Pd164  1  0.60629611  0.40578861  0.20244428  1
  Pd  Pd165  1  0.59975768  0.80498925  0.59405260  1
  Pd  Pd166  1  0.00140759  0.79853620  0.19882381  1
  Pd  Pd167  1  0.20122126  0.19064047  0.40321399  1
  Pd  Pd168  1  0.79713430  0.80059806  0.79449194  1
  Pd  Pd169  1  0.80474478  0.39291868  0.00142787  1
  Pd  Pd170  1  0.79541330  0.39544822  0.39450682  1
  Pd  Pd171  1  0.20258030  -0.00435960  0.19991867  1
  Pd  Pd172  1  0.79776442  0.60780327  0.79485474  1
  Pd  Pd173  1  0.79942180  0.00309466  0.19213894  1
  Pd  Pd174  1  -0.00501573  0.19969380  0.60541213  1
  Pd  Pd175  1  0.60615750  0.00676417  0.00200065  1
  Pd  Pd176  1  0.40256742  0.80273717  0.80495982  1
  Pd  Pd177  1  -0.00370091  0.59588121  0.60306387  1
  Pd  Pd178  1  0.79685218  0.20320775  -0.00475482  1
  Pd  Pd179  1  0.19972348  0.39509614  0.60086689  1
  Pd  Pd180  1  0.39365112  0.20435274  0.59594534  1
  Pd  Pd181  1  0.60890509  0.40260111  0.79046814  1
  Pd  Pd182  1  -0.00135269  0.39578243  0.60288459  1
  Pd  Pd183  1  0.80946686  0.60870547  0.39834923  1
  Pd  Pd184  1  0.18771697  -0.00223219  0.59128147  1
  Pd  Pd185  1  -0.01069422  -0.00327220  0.80814321  1
  Pd  Pd186  1  0.19213605  0.39990969  0.79710755  1
  Pd  Pd187  1  0.19152128  0.40982494  0.39745869  1
  Pd  Pd188  1  0.00538252  0.40723620  0.39827031  1
  Pd  Pd189  1  0.60538618  -0.00498369  0.40022959  1
  Pd  Pd190  1  0.79583643  0.19462944  0.80199639  1
  Pd  Pd191  1  0.19735302  0.79861308  0.60234151  1
  Pd  Pd192  1  0.00162003  0.80063129  0.00217783  1
  Pd  Pd193  1  0.59832585  0.39511125  0.00413242  1
  Pd  Pd194  1  0.20475496  0.79810395  0.40042550  1
  Pd  Pd195  1  0.20807763  0.60324369  0.20856280  1
  Pd  Pd196  1  0.20541775  0.20692075  0.19393998  1
  Pd  Pd197  1  0.39185892  0.59229863  0.19397583  1
  Pd  Pd198  1  0.19486650  0.60182042  0.59825532  1
  Pd  Pd199  1  0.79915300  0.19806571  0.60242545  1
  Rh  Rh200  1  0.60060491  0.00219827  0.60412710  1
  Rh  Rh201  1  0.19558983  0.39832285  0.21122274  1
  Rh  Rh202  1  0.40406608  0.80334049  0.59393421  1
  Rh  Rh203  1  0.79185464  0.39988088  0.79677834  1
  Rh  Rh204  1  0.80685350  0.19587138  0.19609052  1
  Rh  Rh205  1  0.59424883  0.18613484  0.18431645  1
  Rh  Rh206  1  0.60771545  0.79602065  -0.00182556  1
  Rh  Rh207  1  -0.00155084  0.80384845  0.60893305  1
  Rh  Rh208  1  0.39994491  0.19072902  0.79208217  1
  Rh  Rh209  1  0.60844346  0.60679352  0.79838072  1
  Rh  Rh210  1  0.61173901  0.79897935  0.80340287  1
  Rh  Rh211  1  0.80854085  -0.00678802  -0.00569356  1
  Rh  Rh212  1  0.60900215  0.59512687  0.19316809  1
  Rh  Rh213  1  -0.00674467  0.60255649  0.19180925  1
  Rh  Rh214  1  0.60436201  0.60402225  0.00541754  1
  Rh  Rh215  1  0.40568411  0.00111921  0.61540444  1
  Rh  Rh216  1  0.59693089  0.20526389  0.40542567  1
  Rh  Rh217  1  -0.00474238  0.20328044  0.20217549  1
  Rh  Rh218  1  0.00388095  0.00101149  0.59535006  1
  Rh  Rh219  1  0.79343576  0.40250162  0.20397214  1
  Rh  Rh220  1  0.80580860  0.79324832  0.20718058  1
  Rh  Rh221  1  0.80517502  -0.00312794  0.40409006  1
  Rh  Rh222  1  0.38875777  0.00350565  0.39517024  1
  Rh  Rh223  1  0.00451932  0.39515174  0.20101507  1
  Rh  Rh224  1  0.00234646  0.39757533  0.79962112  1
  Rh  Rh225  1  0.19501593  0.60214777  -0.00541178  1
  Rh  Rh226  1  0.59257410  0.60112233  0.39855820  1
  Rh  Rh227  1  0.59688639  0.59482663  0.60004596  1
  Rh  Rh228  1  0.80732806  0.60004643  0.60421133  1
  Rh  Rh229  1  -0.00664040  0.00446929  0.20714862  1
  Rh  Rh230  1  0.40885542  0.79522126  -0.00972940  1
  Rh  Rh231  1  -0.01134150  0.80695800  0.40429499  1
  Rh  Rh232  1  0.79994273  0.80327478  0.59773169  1
  Rh  Rh233  1  0.79696020  0.00434838  0.60574561  1
  Rh  Rh234  1  0.60460832  0.19183937  0.81007000  1
  Rh  Rh235  1  0.39716596  0.60604727  0.39469540  1
  Rh  Rh236  1  0.00833681  0.59369865  0.40567965  1
  Rh  Rh237  1  0.80706401  -0.00834460  0.80291077  1
  Rh  Rh238  1  0.40717757  0.38750151  0.41127955  1
  Rh  Rh239  1  -0.00106148  0.19365626  0.39469297  1
  Rh  Rh240  1  0.39916277  0.80490065  0.20686172  1
  Rh  Rh241  1  0.18562226  0.81408469  0.01101268  1
  Rh  Rh242  1  0.40258629  0.21926943  0.01012513  1
  Rh  Rh243  1  0.20843922  -0.00369712  0.80755681  1
  Rh  Rh244  1  0.39469078  -0.01405812  -0.00833792  1
  Rh  Rh245  1  0.19194937  0.38662308  -0.00473416  1
  Rh  Rh246  1  0.59097436  0.00329201  0.80247760  1
  Rh  Rh247  1  -0.00580724  0.80076199  0.79496355  1
  Rh  Rh248  1  -0.00408669  0.19821306  0.79523114  1
  Rh  Rh249  1  0.39878958  0.40034914  0.18952239  1
