# generated using pymatgen
data_ZrScNbPdRh
_symmetry_space_group_name_H-M   'P 1'
_cell_length_a   16.56036632
_cell_length_b   16.56242396
_cell_length_c   16.56114533
_cell_angle_alpha   90.00687344
_cell_angle_beta   89.99342211
_cell_angle_gamma   89.98998440
_symmetry_Int_Tables_number   1
_chemical_formula_structural   ZrScNbPdRh
_chemical_formula_sum   'Zr50 Sc50 Nb50 Pd50 Rh50'
_cell_volume   4542.38762982
_cell_formula_units_Z   50
loop_
 _symmetry_equiv_pos_site_id
 _symmetry_equiv_pos_as_xyz
  1  'x, y, z'
loop_
 _atom_site_type_symbol
 _atom_site_label
 _atom_site_symmetry_multiplicity
 _atom_site_fract_x
 _atom_site_fract_y
 _atom_site_fract_z
 _atom_site_occupancy
  Zr  Zr0  1  0.90682272  0.29650379  0.31039221  1
  Zr  Zr1  1  0.10514641  0.09874066  0.50161568  1
  Zr  Zr2  1  0.29552701  0.89697991  0.68970299  1
  Zr  Zr3  1  0.71078020  0.29950569  0.49692770  1
  Zr  Zr4  1  0.90272439  0.90914193  0.69993240  1
  Zr  Zr5  1  0.50115307  0.29788694  0.49480161  1
  Zr  Zr6  1  0.69976407  0.70210361  0.30134955  1
  Zr  Zr7  1  0.28780189  0.50252054  0.70503647  1
  Zr  Zr8  1  0.50533237  0.50390795  0.70136643  1
  Zr  Zr9  1  0.09744380  0.50475080  0.09848168  1
  Zr  Zr10  1  0.50238760  0.30011858  0.89713447  1
  Zr  Zr11  1  0.90297437  0.10109332  0.10355942  1
  Zr  Zr12  1  0.90391706  0.49923796  0.29901564  1
  Zr  Zr13  1  0.11294092  0.50425036  0.89972198  1
  Zr  Zr14  1  0.29668410  0.29225017  0.49777499  1
  Zr  Zr15  1  0.30375813  0.49451552  0.29772940  1
  Zr  Zr16  1  0.29046947  0.69949575  0.69585909  1
  Zr  Zr17  1  0.50012863  0.10356896  0.69634585  1
  Zr  Zr18  1  0.71196540  0.70770974  0.89801763  1
  Zr  Zr19  1  0.50832314  0.30016217  0.70535292  1
  Zr  Zr20  1  0.90273435  0.29097071  0.09791308  1
  Zr  Zr21  1  0.70191602  0.30315929  0.09660653  1
  Zr  Zr22  1  0.70819239  0.30857000  0.69752923  1
  Zr  Zr23  1  0.30103624  0.30217854  0.90951781  1
  Zr  Zr24  1  0.10359366  0.90130389  0.10390127  1
  Zr  Zr25  1  0.29280443  0.70294181  0.50206302  1
  Zr  Zr26  1  0.69789763  0.09745653  0.88735556  1
  Zr  Zr27  1  0.90074338  0.69939815  0.70602137  1
  Zr  Zr28  1  0.71159423  0.69138638  0.50270201  1
  Zr  Zr29  1  0.50569796  0.90242500  0.88763674  1
  Zr  Zr30  1  0.90511270  0.49285546  0.70198447  1
  Zr  Zr31  1  0.89928121  0.29606236  0.50548533  1
  Zr  Zr32  1  0.29513634  0.49066739  0.09358335  1
  Zr  Zr33  1  0.49973520  0.30028523  0.09982435  1
  Zr  Zr34  1  0.48933684  0.30162457  0.29975298  1
  Zr  Zr35  1  0.10566928  0.09676808  0.89401077  1
  Zr  Zr36  1  0.50034289  0.09790039  0.29907768  1
  Zr  Zr37  1  0.09277037  0.49842488  0.30538449  1
  Zr  Zr38  1  0.09550993  0.90860152  0.30585258  1
  Zr  Zr39  1  0.69992103  0.09351286  0.29692162  1
  Zr  Zr40  1  0.49647435  0.10430492  0.49716032  1
  Zr  Zr41  1  0.70146040  0.10592930  0.10099417  1
  Zr  Zr42  1  0.49758339  0.49463576  0.30466039  1
  Zr  Zr43  1  0.29421376  0.69521109  0.89190752  1
  Zr  Zr44  1  0.29523912  0.89651923  0.49891242  1
  Zr  Zr45  1  0.29730899  0.09386199  0.50931306  1
  Zr  Zr46  1  0.49380166  0.90229283  0.10304202  1
  Zr  Zr47  1  0.89695883  0.49896830  0.49468772  1
  Zr  Zr48  1  0.69807621  0.09613943  0.49418539  1
  Zr  Zr49  1  0.69665569  0.70150454  0.09599230  1
  Sc  Sc50  1  0.09063593  0.69808423  0.30397534  1
  Sc  Sc51  1  0.89572956  0.50461519  0.09524751  1
  Sc  Sc52  1  0.29986228  0.10084653  0.30074857  1
  Sc  Sc53  1  0.70696177  0.49980304  0.89979119  1
  Sc  Sc54  1  0.90153641  0.69391722  0.08957783  1
  Sc  Sc55  1  0.69672688  0.30615875  0.89805644  1
  Sc  Sc56  1  0.08996834  0.69841213  0.09638554  1
  Sc  Sc57  1  0.89552054  0.30793219  0.89994969  1
  Sc  Sc58  1  0.90339648  0.10126570  0.89786629  1
  Sc  Sc59  1  0.30224800  0.09182916  0.09876248  1
  Sc  Sc60  1  0.09718236  0.29622214  0.49796186  1
  Sc  Sc61  1  0.70403434  0.90853772  0.71566734  1
  Sc  Sc62  1  0.90000223  0.68790290  0.31390299  1
  Sc  Sc63  1  0.48951469  0.70430644  0.30108739  1
  Sc  Sc64  1  0.29594827  0.89677495  0.29406666  1
  Sc  Sc65  1  0.09485058  0.70093157  0.50806245  1
  Sc  Sc66  1  0.70045640  0.30122918  0.29645804  1
  Sc  Sc67  1  0.49732117  0.09682525  0.10440776  1
  Sc  Sc68  1  0.69040639  0.89354357  0.10722495  1
  Sc  Sc69  1  0.30285838  0.70558610  0.11527492  1
  Sc  Sc70  1  0.09320131  0.69967471  0.69625124  1
  Sc  Sc71  1  0.89911605  0.10274634  0.50741071  1
  Sc  Sc72  1  0.29501072  0.90729332  0.89410534  1
  Sc  Sc73  1  0.29770164  0.50368538  0.50820917  1
  Sc  Sc74  1  0.28577721  0.29836212  0.70082819  1
  Sc  Sc75  1  0.90333890  0.90054486  0.09836990  1
  Sc  Sc76  1  0.09655235  0.89678297  0.50199176  1
  Sc  Sc77  1  0.49784897  0.70018140  0.70550872  1
  Sc  Sc78  1  0.08962721  0.70205388  0.90011269  1
  Sc  Sc79  1  0.49678921  0.11078223  0.89439171  1
  Sc  Sc80  1  0.48419431  0.69463391  0.49875406  1
  Sc  Sc81  1  0.30732485  0.70438349  0.30651188  1
  Sc  Sc82  1  0.29583425  0.10863719  0.89753993  1
  Sc  Sc83  1  0.51023016  0.70112179  0.89837481  1
  Sc  Sc84  1  0.70054896  0.90720180  0.30621797  1
  Sc  Sc85  1  0.49935880  0.49485204  0.10508548  1
  Sc  Sc86  1  0.11233173  0.29245648  0.89811894  1
  Sc  Sc87  1  0.70622915  0.09629089  0.69389392  1
  Sc  Sc88  1  0.90001745  0.88921906  0.89095520  1
  Sc  Sc89  1  0.89869861  0.50402722  0.89809006  1
  Sc  Sc90  1  0.70421437  0.49753663  0.09919493  1
  Sc  Sc91  1  0.50578673  0.90117594  0.29522936  1
  Sc  Sc92  1  0.10591872  0.29259530  0.30524532  1
  Sc  Sc93  1  0.90655770  0.69476924  0.50717503  1
  Sc  Sc94  1  0.70824496  0.50927828  0.70231388  1
  Sc  Sc95  1  0.09926247  0.10882787  0.10342317  1
  Sc  Sc96  1  0.70689263  0.49423858  0.29761330  1
  Sc  Sc97  1  0.09908455  0.49779959  0.50800568  1
  Sc  Sc98  1  0.09368084  0.09823745  0.30265400  1
  Sc  Sc99  1  0.50918644  0.50139975  0.89809285  1
  Nb  Nb100  1  0.10440701  0.49067764  0.70077115  1
  Nb  Nb101  1  0.90091558  0.70184722  0.90121839  1
  Nb  Nb102  1  0.49884846  0.90193799  0.69537283  1
  Nb  Nb103  1  0.70240322  0.90510978  0.89944947  1
  Nb  Nb104  1  0.49636881  0.89835808  0.50213211  1
  Nb  Nb105  1  0.70145789  0.50067559  0.50356978  1
  Nb  Nb106  1  0.29058850  0.30121417  0.10504681  1
  Nb  Nb107  1  0.50146898  0.49797668  0.50102653  1
  Nb  Nb108  1  0.10325337  0.30032733  0.09926372  1
  Nb  Nb109  1  0.70768419  0.70149786  0.69405594  1
  Nb  Nb110  1  0.50128564  0.70560986  0.10301489  1
  Nb  Nb111  1  0.09724521  0.30585208  0.69725696  1
  Nb  Nb112  1  0.30173957  0.89831634  0.09785954  1
  Nb  Nb113  1  0.90632055  0.09238000  0.29072497  1
  Nb  Nb114  1  0.30303661  0.30178993  0.29558596  1
  Nb  Nb115  1  0.09459166  0.90051904  0.89947522  1
  Nb  Nb116  1  0.70125119  0.90211267  0.49972912  1
  Nb  Nb117  1  0.09269630  0.90266272  0.70963995  1
  Nb  Nb118  1  0.29946767  0.50187693  0.90041344  1
  Nb  Nb119  1  0.09831221  0.09969569  0.69670259  1
  Nb  Nb120  1  0.90262918  0.29774196  0.69528652  1
  Nb  Nb121  1  0.89277480  0.89712408  0.50031679  1
  Nb  Nb122  1  0.90433066  0.10163003  0.69667353  1
  Nb  Nb123  1  0.29208730  0.09650561  0.69108744  1
  Nb  Nb124  1  0.90164495  0.90482836  0.30053240  1
  Nb  Nb125  1  0.40505446  0.39983051  0.60487333  1
  Nb  Nb126  1  0.80910950  0.20212615  0.79041211  1
  Nb  Nb127  1  0.80854460  0.80060209  0.20696537  1
  Nb  Nb128  1  0.60053304  0.40592751  0.59356668  1
  Nb  Nb129  1  0.00044913  0.20272429  0.78812762  1
  Nb  Nb130  1  0.60439791  0.80276919  0.59890115  1
  Nb  Nb131  1  0.79725441  -0.00303588  -0.00339791  1
  Nb  Nb132  1  -0.00866554  0.80349716  0.20613119  1
  Nb  Nb133  1  0.39538978  0.40325221  0.79973014  1
  Nb  Nb134  1  0.40129057  -0.00295214  0.40590175  1
  Nb  Nb135  1  0.20373977  0.80494664  0.00145395  1
  Nb  Nb136  1  0.79715032  0.80676464  0.60068265  1
  Nb  Nb137  1  0.59854117  0.59777461  0.40214578  1
  Nb  Nb138  1  0.39666932  0.79896411  -0.00001339  1
  Nb  Nb139  1  0.60115750  0.79830870  0.41216132  1
  Nb  Nb140  1  0.00325250  0.39367739  0.19393395  1
  Nb  Nb141  1  0.59692546  -0.00894623  0.59617568  1
  Nb  Nb142  1  0.20081618  0.59915623  0.39823014  1
  Nb  Nb143  1  0.60346485  -0.00137547  -0.00595525  1
  Nb  Nb144  1  0.00796436  0.39725005  0.00384701  1
  Nb  Nb145  1  0.00210689  -0.00250390  -0.00376080  1
  Nb  Nb146  1  0.39960387  0.60632374  0.00213839  1
  Nb  Nb147  1  0.19913904  0.59668030  0.20627216  1
  Nb  Nb148  1  0.39733021  0.00298456  0.78583735  1
  Nb  Nb149  1  0.59634442  0.60380620  0.20318987  1
  Pd  Pd150  1  0.79721988  0.60761548  0.19784256  1
  Pd  Pd151  1  0.80099595  0.79950631  0.40082313  1
  Pd  Pd152  1  0.60059829  0.40677442  0.00111780  1
  Pd  Pd153  1  0.19591367  -0.00031517  0.00101670  1
  Pd  Pd154  1  0.00509116  0.20008085  -0.01222011  1
  Pd  Pd155  1  0.80979422  0.00705646  0.40126505  1
  Pd  Pd156  1  0.19272248  0.79369180  0.39617355  1
  Pd  Pd157  1  0.60892928  0.40288106  0.40095012  1
  Pd  Pd158  1  0.61218802  0.60638999  0.80137898  1
  Pd  Pd159  1  0.00268268  -0.00380145  0.59301614  1
  Pd  Pd160  1  0.20905296  0.61598464  0.01195013  1
  Pd  Pd161  1  0.39668627  0.59733125  0.60348154  1
  Pd  Pd162  1  0.20429103  0.00017337  0.79328246  1
  Pd  Pd163  1  0.80272937  0.20300238  0.20930068  1
  Pd  Pd164  1  0.59408467  0.80789148  -0.00310967  1
  Pd  Pd165  1  0.60019684  0.19416324  -0.00260860  1
  Pd  Pd166  1  0.59627071  0.59450714  0.00670250  1
  Pd  Pd167  1  0.38995696  0.40232388  0.41189572  1
  Pd  Pd168  1  -0.00855900  0.00533285  0.41074878  1
  Pd  Pd169  1  0.81112373  0.39428523  0.19715190  1
  Pd  Pd170  1  0.39974010  0.59676975  0.19475130  1
  Pd  Pd171  1  0.80312593  0.80753416  0.00833722  1
  Pd  Pd172  1  0.40320767  0.59510797  0.80705431  1
  Pd  Pd173  1  0.38738948  0.20218144  0.79117573  1
  Pd  Pd174  1  0.00456737  0.59760297  0.80135694  1
  Pd  Pd175  1  0.00047054  0.39968179  0.59329836  1
  Pd  Pd176  1  0.20178573  0.40394943  0.40604446  1
  Pd  Pd177  1  0.79783470  0.19677401  -0.01410700  1
  Pd  Pd178  1  -0.00478944  0.79817595  0.40015424  1
  Pd  Pd179  1  0.39582000  0.19781970  0.00971765  1
  Pd  Pd180  1  0.19163418  0.40173132  0.20501428  1
  Pd  Pd181  1  0.60863955  0.79621635  0.79032747  1
  Pd  Pd182  1  0.39377721  0.19931582  0.19356480  1
  Pd  Pd183  1  0.79694117  -0.00979313  0.19149453  1
  Pd  Pd184  1  0.80599030  0.18865203  0.39283357  1
  Pd  Pd185  1  0.00603744  0.39330996  0.81126949  1
  Pd  Pd186  1  0.18972140  0.79830027  0.80322642  1
  Pd  Pd187  1  0.20088587  0.00734142  0.20300658  1
  Pd  Pd188  1  0.40591765  -0.00226561  -0.01465362  1
  Pd  Pd189  1  0.39519549  0.21056242  0.60740280  1
  Pd  Pd190  1  0.59780676  0.20403649  0.20404416  1
  Pd  Pd191  1  0.40653608  0.40713770  -0.00557736  1
  Pd  Pd192  1  0.39645677  0.80544777  0.80292419  1
  Pd  Pd193  1  0.60312511  0.20398297  0.39123134  1
  Pd  Pd194  1  0.20204401  0.19394705  0.20049367  1
  Pd  Pd195  1  0.20335672  0.19421142  0.39636461  1
  Pd  Pd196  1  0.59734542  0.60432677  0.59512976  1
  Pd  Pd197  1  0.40431268  0.79318196  0.60341649  1
  Pd  Pd198  1  0.60994045  0.20078928  0.60076602  1
  Pd  Pd199  1  0.18830720  0.79029000  0.20053907  1
  Rh  Rh200  1  0.61420716  0.20227343  0.79391228  1
  Rh  Rh201  1  0.60113766  0.40355349  0.19861926  1
  Rh  Rh202  1  0.20353808  0.39653265  0.80566602  1
  Rh  Rh203  1  0.00399247  -0.00390020  0.19359279  1
  Rh  Rh204  1  0.39282026  0.19429991  0.39554495  1
  Rh  Rh205  1  0.40394938  0.81231700  0.39511225  1
  Rh  Rh206  1  0.60257473  0.00292185  0.19113183  1
  Rh  Rh207  1  0.18568188  -0.00986974  0.60454648  1
  Rh  Rh208  1  0.19462546  0.39506367  -0.00413974  1
  Rh  Rh209  1  0.79946649  0.40802933  0.60031969  1
  Rh  Rh210  1  0.19372661  0.19783679  0.78931752  1
  Rh  Rh211  1  0.79564503  -0.00357208  0.59932270  1
  Rh  Rh212  1  0.18562898  0.80390265  0.60551857  1
  Rh  Rh213  1  0.79902946  0.60189475  -0.00575216  1
  Rh  Rh214  1  0.60326772  0.79460607  0.21097455  1
  Rh  Rh215  1  0.81278611  0.00792209  0.80698214  1
  Rh  Rh216  1  0.20730753  -0.00115739  0.39863263  1
  Rh  Rh217  1  0.80056429  0.79966368  0.79367141  1
  Rh  Rh218  1  -0.00313606  0.19020989  0.40143350  1
  Rh  Rh219  1  0.20221692  0.39494061  0.59548094  1
  Rh  Rh220  1  0.18840226  0.60555070  0.79290230  1
  Rh  Rh221  1  0.00596573  0.80736568  0.00419085  1
  Rh  Rh222  1  0.39850257  0.39366010  0.19342023  1
  Rh  Rh223  1  0.59008941  0.00749709  0.79591443  1
  Rh  Rh224  1  0.80623317  0.39984655  0.00165567  1
  Rh  Rh225  1  0.19108304  0.60075932  0.59834154  1
  Rh  Rh226  1  0.79506279  0.59037350  0.39873458  1
  Rh  Rh227  1  0.80179055  0.60390503  0.80281454  1
  Rh  Rh228  1  0.00152390  0.39642528  0.40122304  1
  Rh  Rh229  1  0.00867003  0.59771764  0.41247428  1
  Rh  Rh230  1  0.81220617  0.59754346  0.60454814  1
  Rh  Rh231  1  0.39557724  -0.00378013  0.21089101  1
  Rh  Rh232  1  0.60240151  0.40660630  0.79490791  1
  Rh  Rh233  1  0.00002238  0.79822196  0.79807360  1
  Rh  Rh234  1  0.19130902  0.20368900  0.60276516  1
  Rh  Rh235  1  0.20624495  0.19644040  0.00965022  1
  Rh  Rh236  1  0.59019852  -0.00626861  0.40531994  1
  Rh  Rh237  1  0.80301967  0.39763609  0.79935442  1
  Rh  Rh238  1  -0.00762795  0.80846486  0.60424919  1
  Rh  Rh239  1  -0.00031035  0.60113445  0.19951652  1
  Rh  Rh240  1  0.79727312  0.19527404  0.60358292  1
  Rh  Rh241  1  0.40515910  0.00127322  0.59924170  1
  Rh  Rh242  1  -0.00146580  0.00626244  0.80548020  1
  Rh  Rh243  1  0.00021937  0.58984833  0.60642260  1
  Rh  Rh244  1  0.00262802  0.20595577  0.20801914  1
  Rh  Rh245  1  -0.00431620  0.59310416  -0.00995321  1
  Rh  Rh246  1  0.79988068  0.40166899  0.39976443  1
  Rh  Rh247  1  0.39595266  0.59364209  0.40251635  1
  Rh  Rh248  1  0.40096234  0.80755896  0.19954459  1
  Rh  Rh249  1  0.00828045  0.20132155  0.60178692  1
