# generated using pymatgen
data_ZrScNbPdRh
_symmetry_space_group_name_H-M   'P 1'
_cell_length_a   16.56241166
_cell_length_b   16.55932925
_cell_length_c   16.56283272
_cell_angle_alpha   90.00582988
_cell_angle_beta   89.99797411
_cell_angle_gamma   90.01163163
_symmetry_Int_Tables_number   1
_chemical_formula_structural   ZrScNbPdRh
_chemical_formula_sum   'Zr50 Sc50 Nb50 Pd50 Rh50'
_cell_volume   4542.56259486
_cell_formula_units_Z   50
loop_
 _symmetry_equiv_pos_site_id
 _symmetry_equiv_pos_as_xyz
  1  'x, y, z'
loop_
 _atom_site_type_symbol
 _atom_site_label
 _atom_site_symmetry_multiplicity
 _atom_site_fract_x
 _atom_site_fract_y
 _atom_site_fract_z
 _atom_site_occupancy
  Zr  Zr0  1  0.89913927  0.50578675  0.50531713  1
  Zr  Zr1  1  0.30412727  0.69992053  0.89913075  1
  Zr  Zr2  1  0.10266400  0.49670134  0.30448713  1
  Zr  Zr3  1  0.90121801  0.50491520  0.70137594  1
  Zr  Zr4  1  0.69890148  0.50787879  0.51356019  1
  Zr  Zr5  1  0.29636043  0.70284471  0.70149831  1
  Zr  Zr6  1  0.30043431  0.70072772  0.50875558  1
  Zr  Zr7  1  0.29814999  0.30274304  0.10764286  1
  Zr  Zr8  1  0.50296324  0.10725097  0.49806967  1
  Zr  Zr9  1  0.28657530  0.50233523  0.90022228  1
  Zr  Zr10  1  0.11088116  0.09781821  0.31093449  1
  Zr  Zr11  1  0.30099587  0.09543818  0.89822275  1
  Zr  Zr12  1  0.69982661  0.70793749  0.50002863  1
  Zr  Zr13  1  0.09156730  0.10250758  0.88910052  1
  Zr  Zr14  1  0.90365072  0.90296729  0.69692053  1
  Zr  Zr15  1  0.10055091  0.30492692  0.10134197  1
  Zr  Zr16  1  0.90076650  0.30084595  0.09957292  1
  Zr  Zr17  1  0.30244829  0.91221137  0.30487004  1
  Zr  Zr18  1  0.10582053  0.29441870  0.49567274  1
  Zr  Zr19  1  0.50519452  0.30125818  0.10220564  1
  Zr  Zr20  1  0.10050842  0.10148682  0.49930288  1
  Zr  Zr21  1  0.70974071  0.90239062  0.49685642  1
  Zr  Zr22  1  0.89933145  0.10597827  0.90000221  1
  Zr  Zr23  1  0.30154575  0.29766686  0.50078970  1
  Zr  Zr24  1  0.10359896  0.70039935  0.90216655  1
  Zr  Zr25  1  0.51018176  0.30158397  0.69917674  1
  Zr  Zr26  1  0.50244392  0.70257361  0.09379459  1
  Zr  Zr27  1  0.89899895  0.09771781  0.50659845  1
  Zr  Zr28  1  0.71596042  0.29844010  0.50166739  1
  Zr  Zr29  1  0.89419034  0.69724501  0.89541431  1
  Zr  Zr30  1  0.69443172  0.30135238  0.10094133  1
  Zr  Zr31  1  0.29412437  0.30619569  0.90016221  1
  Zr  Zr32  1  0.51022057  0.69980857  0.29780548  1
  Zr  Zr33  1  0.50971221  0.50295161  0.90023347  1
  Zr  Zr34  1  0.09845473  0.09368464  0.69682636  1
  Zr  Zr35  1  0.50949433  0.49780753  0.69763076  1
  Zr  Zr36  1  0.49897474  0.89071735  0.89753667  1
  Zr  Zr37  1  0.69756782  0.49805616  0.70094372  1
  Zr  Zr38  1  0.09626397  0.70048200  0.50238160  1
  Zr  Zr39  1  0.30524256  0.90532804  0.09954502  1
  Zr  Zr40  1  0.09912998  0.50103906  0.70427476  1
  Zr  Zr41  1  0.50233498  0.09822449  0.29821317  1
  Zr  Zr42  1  0.49637870  0.89682440  0.50442463  1
  Zr  Zr43  1  0.50055593  0.09515904  0.69602581  1
  Zr  Zr44  1  0.89687065  0.70420612  0.28978650  1
  Zr  Zr45  1  0.89173266  0.30662396  0.30467755  1
  Zr  Zr46  1  0.50261773  0.29679566  0.29935877  1
  Zr  Zr47  1  0.70033574  0.69103194  0.69524360  1
  Zr  Zr48  1  0.69707206  0.29667854  0.30085195  1
  Zr  Zr49  1  0.29576429  0.09480827  0.69388972  1
  Sc  Sc50  1  0.69855341  0.10762964  0.69987421  1
  Sc  Sc51  1  0.69649264  0.69862717  0.90069953  1
  Sc  Sc52  1  0.90697160  0.10529792  0.70386530  1
  Sc  Sc53  1  0.30661676  0.29776398  0.69006930  1
  Sc  Sc54  1  0.70167904  0.89333730  0.68674268  1
  Sc  Sc55  1  0.70188148  0.50390512  0.90160280  1
  Sc  Sc56  1  0.08611953  0.69638380  0.30633994  1
  Sc  Sc57  1  0.89665868  0.70403536  0.70286936  1
  Sc  Sc58  1  0.31565495  0.68758120  0.30479573  1
  Sc  Sc59  1  0.50200801  0.49856873  0.50384545  1
  Sc  Sc60  1  0.29341617  0.69358716  0.08838412  1
  Sc  Sc61  1  0.50460129  0.90621991  0.09618071  1
  Sc  Sc62  1  0.10559568  0.29756082  0.29751173  1
  Sc  Sc63  1  0.29482304  0.10108788  0.49431403  1
  Sc  Sc64  1  0.30722549  0.49388496  0.49800847  1
  Sc  Sc65  1  0.09651881  0.10809850  0.11971818  1
  Sc  Sc66  1  0.09879015  0.89195206  0.09986928  1
  Sc  Sc67  1  0.09345335  0.30244811  0.70317649  1
  Sc  Sc68  1  0.69128325  0.89429930  0.10210561  1
  Sc  Sc69  1  0.70096082  0.50357039  0.29613713  1
  Sc  Sc70  1  0.69328419  0.29478270  0.89927419  1
  Sc  Sc71  1  0.49390135  0.29884085  0.50527074  1
  Sc  Sc72  1  0.89939160  0.89895998  0.30714767  1
  Sc  Sc73  1  0.70866782  0.09932614  0.50401929  1
  Sc  Sc74  1  0.49157254  0.50691427  0.29938266  1
  Sc  Sc75  1  0.09538550  0.89607588  0.89394276  1
  Sc  Sc76  1  0.50049127  0.69825887  0.49137097  1
  Sc  Sc77  1  0.09180376  0.90060323  0.50293352  1
  Sc  Sc78  1  0.68334208  0.09940380  0.09473410  1
  Sc  Sc79  1  0.50515895  0.50113084  0.10185670  1
  Sc  Sc80  1  0.50328029  0.89964947  0.29545621  1
  Sc  Sc81  1  0.10332872  0.70238896  0.69437188  1
  Sc  Sc82  1  0.70212512  0.50003337  0.09084325  1
  Sc  Sc83  1  0.89799400  0.88390223  0.10593534  1
  Sc  Sc84  1  0.09486032  0.90698403  0.30830316  1
  Sc  Sc85  1  0.10367621  0.49881671  0.10123585  1
  Sc  Sc86  1  0.91190006  0.09180085  0.30516574  1
  Sc  Sc87  1  0.09953960  0.69733686  0.10067558  1
  Sc  Sc88  1  0.09425444  0.50973310  0.50743307  1
  Sc  Sc89  1  0.91060947  0.29713124  0.90051396  1
  Sc  Sc90  1  0.69566874  0.10156633  0.30527606  1
  Sc  Sc91  1  0.29676348  0.30994110  0.30498534  1
  Sc  Sc92  1  0.69135621  0.89611153  0.90466070  1
  Sc  Sc93  1  0.49897877  0.70050378  0.89824775  1
  Sc  Sc94  1  0.70248601  0.70163574  0.10091589  1
  Sc  Sc95  1  0.51236115  0.08667755  0.89751201  1
  Sc  Sc96  1  0.89981842  0.50629880  0.29219303  1
  Sc  Sc97  1  0.30212359  0.89384885  0.89463874  1
  Sc  Sc98  1  0.29516776  0.50085270  0.10810490  1
  Sc  Sc99  1  0.90317586  0.88870780  0.89637365  1
  Nb  Nb100  1  0.69606416  0.71379204  0.30164279  1
  Nb  Nb101  1  0.69945736  0.89874812  0.29799733  1
  Nb  Nb102  1  0.49901272  0.70106647  0.70538257  1
  Nb  Nb103  1  0.49613665  0.30408201  0.89985095  1
  Nb  Nb104  1  0.89976090  0.50084336  0.89671400  1
  Nb  Nb105  1  0.89859160  0.10110478  0.10007035  1
  Nb  Nb106  1  0.29834642  0.09677559  0.29034042  1
  Nb  Nb107  1  0.89955586  0.69065609  0.09742030  1
  Nb  Nb108  1  0.10523458  0.30857752  0.89886300  1
  Nb  Nb109  1  0.90793611  0.70315736  0.49222401  1
  Nb  Nb110  1  0.29823229  0.50100210  0.70051018  1
  Nb  Nb111  1  0.29789370  0.49751806  0.30361481  1
  Nb  Nb112  1  0.49491229  0.09787246  0.10158920  1
  Nb  Nb113  1  0.89963260  0.30207677  0.50522074  1
  Nb  Nb114  1  0.49007017  0.89623304  0.69933599  1
  Nb  Nb115  1  0.89490027  0.90343561  0.50265533  1
  Nb  Nb116  1  0.09475880  0.48484382  0.89524758  1
  Nb  Nb117  1  0.70419891  0.30584821  0.70030384  1
  Nb  Nb118  1  0.70526540  0.09275592  0.89838327  1
  Nb  Nb119  1  0.89300362  0.50421979  0.09084195  1
  Nb  Nb120  1  0.30168798  0.89040332  0.50328792  1
  Nb  Nb121  1  0.09920091  0.90364871  0.70094275  1
  Nb  Nb122  1  0.89450861  0.30378351  0.69386988  1
  Nb  Nb123  1  0.29944207  0.09779589  0.10174697  1
  Nb  Nb124  1  0.30338553  0.89535439  0.68590874  1
  Nb  Nb125  1  0.20808611  0.79839681  0.21188895  1
  Nb  Nb126  1  0.40072782  0.60153333  0.60911450  1
  Nb  Nb127  1  0.20074759  0.40239738  0.60066632  1
  Nb  Nb128  1  0.80156671  0.19328580  0.19517210  1
  Nb  Nb129  1  -0.00658736  0.59276330  -0.00483089  1
  Nb  Nb130  1  0.20397158  0.60083149  0.40186428  1
  Nb  Nb131  1  0.39703560  0.19250158  0.19697913  1
  Nb  Nb132  1  0.20467570  0.79736459  0.40049986  1
  Nb  Nb133  1  0.79925968  0.61200445  0.39944049  1
  Nb  Nb134  1  0.79792452  0.00134730  0.80557068  1
  Nb  Nb135  1  0.19319789  0.00778014  0.00125824  1
  Nb  Nb136  1  0.60537341  0.39724140  0.40266104  1
  Nb  Nb137  1  0.60208732  -0.00444654  0.40435721  1
  Nb  Nb138  1  0.39601242  0.79902084  0.19692738  1
  Nb  Nb139  1  0.80329358  0.00180556  0.00169972  1
  Nb  Nb140  1  0.20006987  0.19697087  -0.00146960  1
  Nb  Nb141  1  0.80318095  0.39773159  0.79653342  1
  Nb  Nb142  1  0.40161051  0.40091773  0.80128153  1
  Nb  Nb143  1  -0.00561486  0.39715891  0.40612006  1
  Nb  Nb144  1  0.40122771  0.39753896  -0.00327173  1
  Nb  Nb145  1  0.40239345  0.20154877  0.80424214  1
  Nb  Nb146  1  -0.00400696  0.00376340  0.00437922  1
  Nb  Nb147  1  0.79867342  0.00347668  0.19500542  1
  Nb  Nb148  1  0.20204337  0.20231971  0.80192907  1
  Nb  Nb149  1  0.40047182  0.19823065  0.00092159  1
  Pd  Pd150  1  0.40356130  0.59397479  0.79717001  1
  Pd  Pd151  1  0.39818211  0.60353020  0.19070485  1
  Pd  Pd152  1  0.19940797  0.80659165  0.79469071  1
  Pd  Pd153  1  0.40035429  -0.00243779  0.79689691  1
  Pd  Pd154  1  0.59347490  0.19537667  -0.00764529  1
  Pd  Pd155  1  0.60716231  0.60033554  0.19554862  1
  Pd  Pd156  1  0.80645408  0.79917556  0.39887493  1
  Pd  Pd157  1  0.59675407  0.19811058  0.80426955  1
  Pd  Pd158  1  0.00053113  0.20243204  0.60373972  1
  Pd  Pd159  1  0.60729445  0.20509165  0.59529712  1
  Pd  Pd160  1  0.79082982  0.60390639  0.20184080  1
  Pd  Pd161  1  0.41103005  0.40195837  0.39788152  1
  Pd  Pd162  1  0.79253896  0.19807150  0.00558289  1
  Pd  Pd163  1  0.00173488  0.59344263  0.19072168  1
  Pd  Pd164  1  0.39585651  0.00485200  0.59021917  1
  Pd  Pd165  1  0.19974881  0.60916207  0.21110805  1
  Pd  Pd166  1  0.39176246  0.19790342  0.39045595  1
  Pd  Pd167  1  0.20096732  -0.00680242  0.80238529  1
  Pd  Pd168  1  0.80733405  0.18919281  0.39352375  1
  Pd  Pd169  1  0.80083241  0.20322627  0.79662328  1
  Pd  Pd170  1  -0.00698052  0.20378057  0.21178148  1
  Pd  Pd171  1  -0.00291151  0.79389308  0.00081580  1
  Pd  Pd172  1  0.00606636  0.60697024  0.80229481  1
  Pd  Pd173  1  0.79862632  0.41651495  0.40245117  1
  Pd  Pd174  1  0.19209278  0.60196135  0.80234919  1
  Pd  Pd175  1  0.60729821  0.59276192  0.39946580  1
  Pd  Pd176  1  -0.00190164  0.40543810  0.20436283  1
  Pd  Pd177  1  0.79822635  0.39319383  -0.01195498  1
  Pd  Pd178  1  0.39927635  0.58963127  0.00448421  1
  Pd  Pd179  1  0.39899853  0.79962463  0.39181377  1
  Pd  Pd180  1  -0.00536714  -0.00888322  0.19440100  1
  Pd  Pd181  1  0.19881729  -0.00782105  0.59056306  1
  Pd  Pd182  1  0.00804592  0.80246259  0.20479502  1
  Pd  Pd183  1  0.79781107  0.39967834  0.19457552  1
  Pd  Pd184  1  0.60469931  0.80052032  0.79360731  1
  Pd  Pd185  1  0.40399259  0.00307986  0.40609385  1
  Pd  Pd186  1  0.20292401  0.80734842  0.00430591  1
  Pd  Pd187  1  0.79692769  0.80172457  0.00234577  1
  Pd  Pd188  1  0.60398760  -0.00137772  0.59836006  1
  Pd  Pd189  1  -0.00332428  0.79913348  0.60271195  1
  Pd  Pd190  1  -0.00523699  0.20547410  0.39691683  1
  Pd  Pd191  1  0.60966003  -0.01206412  0.78914784  1
  Pd  Pd192  1  0.19003542  -0.00810299  0.19442922  1
  Pd  Pd193  1  0.00641339  0.39762159  0.59580818  1
  Pd  Pd194  1  0.78873235  0.80734339  0.79839242  1
  Pd  Pd195  1  0.01146458  0.19729441  0.00352241  1
  Pd  Pd196  1  0.59358924  0.79575409  0.59971591  1
  Pd  Pd197  1  0.40088332  -0.00031819  -0.00553843  1
  Pd  Pd198  1  -0.00226792  0.40506202  0.00230883  1
  Pd  Pd199  1  0.59828254  0.41172855  0.20739871  1
  Rh  Rh200  1  0.59911843  0.19365217  0.19763367  1
  Rh  Rh201  1  0.39625096  0.40896800  0.60876890  1
  Rh  Rh202  1  0.20119523  0.40230962  0.00930849  1
  Rh  Rh203  1  0.40011629  0.19063200  0.60570287  1
  Rh  Rh204  1  0.20581455  0.39378382  0.78577376  1
  Rh  Rh205  1  0.59805126  0.81137912  0.39967789  1
  Rh  Rh206  1  -0.01048179  0.39579299  0.79774913  1
  Rh  Rh207  1  0.60350603  0.60558029  0.80154253  1
  Rh  Rh208  1  0.80205417  0.60445273  -0.00296765  1
  Rh  Rh209  1  0.58750613  0.61173842  0.60035635  1
  Rh  Rh210  1  0.40598404  -0.00074139  0.20020079  1
  Rh  Rh211  1  0.60586179  0.39915628  0.80578319  1
  Rh  Rh212  1  0.80932181  0.61406718  0.59300932  1
  Rh  Rh213  1  0.60676255  0.38961638  0.58787098  1
  Rh  Rh214  1  0.80001617  0.40302354  0.60690787  1
  Rh  Rh215  1  0.40783072  0.79082585  0.60544395  1
  Rh  Rh216  1  0.80305413  0.19738904  0.60780293  1
  Rh  Rh217  1  0.20602551  0.20230063  0.20337388  1
  Rh  Rh218  1  0.19988090  0.40273047  0.20342316  1
  Rh  Rh219  1  0.18612291  0.59216707  -0.00606184  1
  Rh  Rh220  1  0.40102330  0.39908251  0.19867985  1
  Rh  Rh221  1  0.19666152  0.20690785  0.60826000  1
  Rh  Rh222  1  0.00359222  0.21036785  0.79560847  1
  Rh  Rh223  1  -0.00602613  0.61109819  0.60872746  1
  Rh  Rh224  1  0.19202962  0.81158366  0.59828447  1
  Rh  Rh225  1  -0.00582396  0.59197569  0.39719408  1
  Rh  Rh226  1  0.21030623  0.58873131  0.59311770  1
  Rh  Rh227  1  0.60596300  0.00146084  0.20602955  1
  Rh  Rh228  1  0.19024780  0.40956823  0.41095668  1
  Rh  Rh229  1  0.40006029  0.79973036  0.00395064  1
  Rh  Rh230  1  0.59383634  0.80040090  0.19641971  1
  Rh  Rh231  1  0.60505386  0.20289051  0.41037797  1
  Rh  Rh232  1  -0.00125786  -0.00016261  0.59813313  1
  Rh  Rh233  1  0.39637273  0.80216337  0.79524125  1
  Rh  Rh234  1  -0.00057086  0.80665993  0.40032545  1
  Rh  Rh235  1  0.80357236  0.00552005  0.61331567  1
  Rh  Rh236  1  0.59793514  0.79724203  -0.00119975  1
  Rh  Rh237  1  0.79509950  0.59336850  0.80083991  1
  Rh  Rh238  1  -0.01046480  -0.00838801  0.80632443  1
  Rh  Rh239  1  0.00743322  0.79743299  0.79215934  1
  Rh  Rh240  1  0.59941514  0.40157849  -0.00212671  1
  Rh  Rh241  1  0.60193123  -0.00255610  -0.00130041  1
  Rh  Rh242  1  0.79510698  0.80400457  0.19866185  1
  Rh  Rh243  1  0.20247497  -0.00786213  0.40966553  1
  Rh  Rh244  1  0.80849573  0.79607037  0.59658231  1
  Rh  Rh245  1  -0.00287801  -0.00080791  0.41110947  1
  Rh  Rh246  1  0.39728508  0.59447588  0.41045603  1
  Rh  Rh247  1  0.20973142  0.19958456  0.39279550  1
  Rh  Rh248  1  0.60343133  0.60386357  0.00133141  1
  Rh  Rh249  1  0.79489870  0.00083954  0.38992175  1
