# generated using pymatgen
data_ZrScNbPdRh
_symmetry_space_group_name_H-M   'P 1'
_cell_length_a   16.56446335
_cell_length_b   16.56489466
_cell_length_c   16.56627195
_cell_angle_alpha   90.00371191
_cell_angle_beta   89.98048427
_cell_angle_gamma   90.01877497
_symmetry_Int_Tables_number   1
_chemical_formula_structural   ZrScNbPdRh
_chemical_formula_sum   'Zr50 Sc50 Nb50 Pd50 Rh50'
_cell_volume   4545.59549317
_cell_formula_units_Z   50
loop_
 _symmetry_equiv_pos_site_id
 _symmetry_equiv_pos_as_xyz
  1  'x, y, z'
loop_
 _atom_site_type_symbol
 _atom_site_label
 _atom_site_symmetry_multiplicity
 _atom_site_fract_x
 _atom_site_fract_y
 _atom_site_fract_z
 _atom_site_occupancy
  Zr  Zr0  1  0.09628984  0.50472634  0.50109945  1
  Zr  Zr1  1  0.69910649  0.09872819  0.69936405  1
  Zr  Zr2  1  0.30243127  0.30362240  0.30235298  1
  Zr  Zr3  1  0.89810100  0.30102543  0.09718885  1
  Zr  Zr4  1  0.70308327  0.49395963  0.09683217  1
  Zr  Zr5  1  0.29358678  0.90724987  0.10145940  1
  Zr  Zr6  1  0.10392044  0.29786175  0.09524705  1
  Zr  Zr7  1  0.09345662  0.69619702  0.69574863  1
  Zr  Zr8  1  0.90481765  0.50283546  0.10019803  1
  Zr  Zr9  1  0.69298456  0.70005942  0.09089222  1
  Zr  Zr10  1  0.49613092  0.09998107  0.50085263  1
  Zr  Zr11  1  0.49538498  0.50636107  0.88609619  1
  Zr  Zr12  1  0.30331117  0.09915994  0.70033798  1
  Zr  Zr13  1  0.50534692  0.89799794  0.48854848  1
  Zr  Zr14  1  0.29929680  0.49589308  0.90061641  1
  Zr  Zr15  1  0.49472551  0.31522874  0.29304478  1
  Zr  Zr16  1  0.50411290  0.10732510  0.69888735  1
  Zr  Zr17  1  0.30712589  0.90515110  0.90101869  1
  Zr  Zr18  1  0.49151051  0.89746060  0.30027698  1
  Zr  Zr19  1  0.49595109  0.89728802  0.90636034  1
  Zr  Zr20  1  0.30144945  0.50169166  0.29960908  1
  Zr  Zr21  1  0.10346703  0.90581385  0.90191530  1
  Zr  Zr22  1  0.29893927  0.09874615  0.49727045  1
  Zr  Zr23  1  0.10530093  0.10054153  0.49483484  1
  Zr  Zr24  1  0.69799471  0.29283581  0.69274523  1
  Zr  Zr25  1  0.70237815  0.50745115  0.50707246  1
  Zr  Zr26  1  0.90275712  0.10102104  0.50047098  1
  Zr  Zr27  1  0.10892801  0.69756544  0.10848947  1
  Zr  Zr28  1  0.10085882  0.30055622  0.89789288  1
  Zr  Zr29  1  0.49712705  0.10659391  0.09868667  1
  Zr  Zr30  1  0.29863013  0.70846652  0.29361773  1
  Zr  Zr31  1  0.90147789  0.89084089  0.90114685  1
  Zr  Zr32  1  0.49122203  0.29750874  0.10208521  1
  Zr  Zr33  1  0.89919613  0.49114637  0.49739260  1
  Zr  Zr34  1  0.69452806  0.90173685  0.30481560  1
  Zr  Zr35  1  0.89586539  0.51348667  0.69434624  1
  Zr  Zr36  1  0.30101662  0.10441843  0.10129774  1
  Zr  Zr37  1  0.90636632  0.29171651  0.90373596  1
  Zr  Zr38  1  0.30361425  0.49725287  0.70989960  1
  Zr  Zr39  1  0.71545049  0.30356369  0.50026874  1
  Zr  Zr40  1  0.30292318  0.90268338  0.70420060  1
  Zr  Zr41  1  0.69792202  0.50387390  0.89960433  1
  Zr  Zr42  1  0.91018865  0.09452485  0.69936530  1
  Zr  Zr43  1  0.10410286  0.09222085  0.10624877  1
  Zr  Zr44  1  0.89392940  0.69759153  0.88767543  1
  Zr  Zr45  1  0.10459317  0.50260374  0.69881538  1
  Zr  Zr46  1  0.50332223  0.50288857  0.50163172  1
  Zr  Zr47  1  0.49967045  0.49525536  0.69851085  1
  Zr  Zr48  1  0.90167783  0.29762757  0.48602683  1
  Zr  Zr49  1  0.70042422  0.89902241  0.91290531  1
  Sc  Sc50  1  0.49831549  0.09057411  0.29732740  1
  Sc  Sc51  1  0.09820527  0.90338993  0.69846105  1
  Sc  Sc52  1  0.49968731  0.29458292  0.90340389  1
  Sc  Sc53  1  0.31648136  0.69460207  0.90875991  1
  Sc  Sc54  1  0.69405903  0.70463063  0.30415154  1
  Sc  Sc55  1  0.49790360  0.09885178  0.90324405  1
  Sc  Sc56  1  0.48905137  0.90665479  0.09910646  1
  Sc  Sc57  1  0.69202799  0.29726227  0.10190597  1
  Sc  Sc58  1  0.10004343  0.09508598  0.29637785  1
  Sc  Sc59  1  0.30603360  0.70081291  0.10327698  1
  Sc  Sc60  1  0.69425842  0.49698840  0.29848505  1
  Sc  Sc61  1  0.69750698  0.30280077  0.91199975  1
  Sc  Sc62  1  0.10361376  0.09778563  0.69531942  1
  Sc  Sc63  1  0.89412967  0.10203913  0.10334252  1
  Sc  Sc64  1  0.71636095  0.69033001  0.69799898  1
  Sc  Sc65  1  0.11088804  0.49998602  0.90157152  1
  Sc  Sc66  1  0.10739924  0.50501202  0.09514502  1
  Sc  Sc67  1  0.50683060  0.69859568  0.48382520  1
  Sc  Sc68  1  0.09843002  0.70304281  0.49311012  1
  Sc  Sc69  1  0.90027327  0.29533276  0.68516408  1
  Sc  Sc70  1  0.89374449  0.49608809  0.90640989  1
  Sc  Sc71  1  0.29962099  0.90171537  0.49170869  1
  Sc  Sc72  1  0.29337803  0.29549967  0.89904874  1
  Sc  Sc73  1  0.29253803  0.70805977  0.49391180  1
  Sc  Sc74  1  0.10345359  0.29891218  0.50093783  1
  Sc  Sc75  1  0.29675030  0.69742525  0.70070509  1
  Sc  Sc76  1  0.29617769  0.49483600  0.49383780  1
  Sc  Sc77  1  0.70445701  0.10924273  0.50230985  1
  Sc  Sc78  1  0.29158303  0.51161059  0.09502874  1
  Sc  Sc79  1  0.09779650  0.10212120  0.89073271  1
  Sc  Sc80  1  0.88863135  0.89631838  0.30084622  1
  Sc  Sc81  1  0.49317471  0.50818263  0.30273522  1
  Sc  Sc82  1  0.69324110  0.09673395  0.90879039  1
  Sc  Sc83  1  0.10639650  0.29417252  0.69862488  1
  Sc  Sc84  1  0.50467411  0.68873116  0.71076439  1
  Sc  Sc85  1  0.49462614  0.30042600  0.70498936  1
  Sc  Sc86  1  0.50297759  0.49623255  0.11753940  1
  Sc  Sc87  1  0.90464121  0.70991107  0.50386940  1
  Sc  Sc88  1  0.89905495  0.11304407  0.29948961  1
  Sc  Sc89  1  0.89378706  0.71153229  0.09608422  1
  Sc  Sc90  1  0.48977892  0.30028739  0.50757651  1
  Sc  Sc91  1  0.09093734  0.70483425  0.89298249  1
  Sc  Sc92  1  0.29473280  0.29694909  0.49496421  1
  Sc  Sc93  1  0.10497980  0.89183062  0.49410244  1
  Sc  Sc94  1  0.09742872  0.28771578  0.30781791  1
  Sc  Sc95  1  0.70035633  0.09661299  0.10300718  1
  Sc  Sc96  1  0.70163694  0.10093195  0.29440118  1
  Sc  Sc97  1  0.69466144  0.50192489  0.69516372  1
  Sc  Sc98  1  0.70846619  0.29626584  0.29876830  1
  Sc  Sc99  1  0.49580314  0.90709221  0.71085091  1
  Nb  Nb100  1  0.09570713  0.70361955  0.30064109  1
  Nb  Nb101  1  0.68948427  0.69641598  0.90219223  1
  Nb  Nb102  1  0.89906956  0.09525885  0.89770136  1
  Nb  Nb103  1  0.29773743  0.90164792  0.29924225  1
  Nb  Nb104  1  0.51175588  0.70329522  0.91172991  1
  Nb  Nb105  1  0.70471837  0.88807484  0.49792997  1
  Nb  Nb106  1  0.89366186  0.89926354  0.09545435  1
  Nb  Nb107  1  0.69864761  0.70188901  0.50122410  1
  Nb  Nb108  1  0.90597992  0.50313198  0.30200894  1
  Nb  Nb109  1  0.90425371  0.70582639  0.70188964  1
  Nb  Nb110  1  0.30088033  0.30128526  0.10249810  1
  Nb  Nb111  1  0.70045945  0.89684136  0.69939079  1
  Nb  Nb112  1  0.89910331  0.30771566  0.30224432  1
  Nb  Nb113  1  0.49849015  0.70549227  0.10036387  1
  Nb  Nb114  1  0.09127030  0.52154543  0.29539269  1
  Nb  Nb115  1  0.89335556  0.88625084  0.69631572  1
  Nb  Nb116  1  0.29893194  0.30375284  0.70407202  1
  Nb  Nb117  1  0.09692142  0.90275415  0.10377036  1
  Nb  Nb118  1  0.49277208  0.70510352  0.28753724  1
  Nb  Nb119  1  0.29567271  0.09164874  0.30782739  1
  Nb  Nb120  1  0.29586386  0.09158864  0.90241424  1
  Nb  Nb121  1  0.89516540  0.89900354  0.49679104  1
  Nb  Nb122  1  0.91653722  0.69150969  0.30059426  1
  Nb  Nb123  1  0.10159240  0.89753964  0.29423692  1
  Nb  Nb124  1  0.71626259  0.89443623  0.10400657  1
  Nb  Nb125  1  0.40919650  0.79604805  0.59920942  1
  Nb  Nb126  1  0.80529940  0.60042307  0.20583847  1
  Nb  Nb127  1  0.80363329  0.19526100  0.80277133  1
  Nb  Nb128  1  0.40115703  0.60268249  0.59732281  1
  Nb  Nb129  1  0.60366847  0.80100991  0.60426469  1
  Nb  Nb130  1  0.80179188  -0.00369588  0.79714004  1
  Nb  Nb131  1  0.00355178  0.40319400  0.20650097  1
  Nb  Nb132  1  0.59672190  0.20777224  0.40029867  1
  Nb  Nb133  1  0.60457139  0.79689138  0.80374535  1
  Nb  Nb134  1  -0.00385933  0.39957958  0.79708642  1
  Nb  Nb135  1  0.81001806  0.40445246  0.20390251  1
  Nb  Nb136  1  0.59993076  0.39595396  0.40394683  1
  Nb  Nb137  1  0.60711529  -0.00945401  0.59725449  1
  Nb  Nb138  1  0.80266227  0.39296277  0.79809938  1
  Nb  Nb139  1  0.79967601  -0.01373734  0.60026885  1
  Nb  Nb140  1  0.59676937  0.80216927  0.19420921  1
  Nb  Nb141  1  0.39557019  0.39915919  0.00316872  1
  Nb  Nb142  1  -0.00030436  0.60595215  0.00093595  1
  Nb  Nb143  1  0.80609982  0.60135714  0.39623292  1
  Nb  Nb144  1  -0.00518752  -0.00419503  0.00441976  1
  Nb  Nb145  1  0.19948095  0.80494695  -0.00062563  1
  Nb  Nb146  1  0.00086272  0.80387404  0.20063294  1
  Nb  Nb147  1  0.19400771  0.40055159  0.20332528  1
  Nb  Nb148  1  -0.00254245  -0.00695961  0.39836970  1
  Nb  Nb149  1  0.20361719  0.80354812  0.80551515  1
  Pd  Pd150  1  0.40743420  -0.00988156  0.59674759  1
  Pd  Pd151  1  -0.01441224  -0.00640700  0.20360021  1
  Pd  Pd152  1  0.01303284  0.40178124  0.39360980  1
  Pd  Pd153  1  0.00720664  0.79682396  0.00831946  1
  Pd  Pd154  1  0.20633150  0.80220721  0.60680928  1
  Pd  Pd155  1  0.39405561  0.60771024  0.40457413  1
  Pd  Pd156  1  0.20874152  0.60076488  0.59429757  1
  Pd  Pd157  1  0.80062439  0.00751614  0.40251676  1
  Pd  Pd158  1  0.40583179  0.19986423  0.39316884  1
  Pd  Pd159  1  0.61012358  0.01281907  0.40661198  1
  Pd  Pd160  1  0.60444307  0.59728198  0.39198200  1
  Pd  Pd161  1  0.39579048  0.19210955  0.21251759  1
  Pd  Pd162  1  0.60050911  0.39092395  0.59472024  1
  Pd  Pd163  1  -0.00431012  -0.00871905  0.80219409  1
  Pd  Pd164  1  0.60661251  0.39242089  0.80089881  1
  Pd  Pd165  1  0.00489870  0.80501262  0.59809656  1
  Pd  Pd166  1  0.80485071  0.60588605  0.00273594  1
  Pd  Pd167  1  0.79331368  0.19500034  -0.00118945  1
  Pd  Pd168  1  0.20370871  0.20357151  0.20821901  1
  Pd  Pd169  1  0.80551120  0.78782366  0.39346884  1
  Pd  Pd170  1  0.60494601  0.60666289  0.20393857  1
  Pd  Pd171  1  0.18740176  0.40353776  0.39049034  1
  Pd  Pd172  1  0.59912306  0.20254265  0.20812975  1
  Pd  Pd173  1  0.60706133  0.20377305  0.81033790  1
  Pd  Pd174  1  0.59969909  -0.00412084  0.01341562  1
  Pd  Pd175  1  0.58468193  0.40495298  -0.00047821  1
  Pd  Pd176  1  0.78931489  0.80013621  0.80460335  1
  Pd  Pd177  1  0.20482214  0.39896557  0.60197729  1
  Pd  Pd178  1  0.00762615  0.20381825  0.59660214  1
  Pd  Pd179  1  0.00446180  0.18340826  0.00351627  1
  Pd  Pd180  1  0.20465902  0.61188663  0.80907620  1
  Pd  Pd181  1  0.00728513  0.40998442  -0.00292020  1
  Pd  Pd182  1  0.80412699  0.00316950  0.20470944  1
  Pd  Pd183  1  0.20204343  0.19544545  0.79667960  1
  Pd  Pd184  1  -0.00070960  0.58743112  0.80846667  1
  Pd  Pd185  1  0.58844826  0.58654704  0.00660147  1
  Pd  Pd186  1  0.39049512  0.40368622  0.59645964  1
  Pd  Pd187  1  0.41285236  0.58977446  0.01002933  1
  Pd  Pd188  1  0.79949275  0.78988627  0.20879589  1
  Pd  Pd189  1  0.60115019  -0.00940332  0.19266487  1
  Pd  Pd190  1  -0.00075454  -0.01213221  0.59026132  1
  Pd  Pd191  1  0.19982502  -0.00465604  0.59673762  1
  Pd  Pd192  1  -0.00142543  0.20546054  0.19981156  1
  Pd  Pd193  1  0.60292681  -0.00571292  0.80032597  1
  Pd  Pd194  1  0.40375726  0.78866293  0.79753017  1
  Pd  Pd195  1  0.39149194  0.20537077  0.60280895  1
  Pd  Pd196  1  0.20055783  0.19333539  -0.00392375  1
  Pd  Pd197  1  0.00214590  0.39783269  0.60601242  1
  Pd  Pd198  1  0.19966233  0.60513410  0.39774697  1
  Pd  Pd199  1  0.39564107  0.19895136  0.80710733  1
  Rh  Rh200  1  -0.00147722  0.80862903  0.39102887  1
  Rh  Rh201  1  0.39700599  0.60483082  0.79597770  1
  Rh  Rh202  1  0.20653291  0.20034707  0.60121183  1
  Rh  Rh203  1  0.39288208  0.00459697  0.20248496  1
  Rh  Rh204  1  0.79643700  0.19663230  0.39449461  1
  Rh  Rh205  1  0.39492071  -0.00217479  0.39816295  1
  Rh  Rh206  1  0.80628418  0.00197711  -0.00238185  1
  Rh  Rh207  1  0.20744916  0.39536161  0.00770218  1
  Rh  Rh208  1  0.79180770  0.41107127  0.39260023  1
  Rh  Rh209  1  0.39527579  0.80088444  0.00675396  1
  Rh  Rh210  1  0.60759516  0.60380236  0.79654550  1
  Rh  Rh211  1  0.59382233  0.20003145  0.59001911  1
  Rh  Rh212  1  0.79807757  0.39543742  0.00083077  1
  Rh  Rh213  1  0.40082376  0.80563761  0.19388795  1
  Rh  Rh214  1  0.39668212  0.79766551  0.40181733  1
  Rh  Rh215  1  0.61099634  0.39469817  0.20761805  1
  Rh  Rh216  1  -0.00425199  0.20612342  0.79454631  1
  Rh  Rh217  1  0.40700137  0.40297626  0.40692670  1
  Rh  Rh218  1  0.00127004  0.19196704  0.40110732  1
  Rh  Rh219  1  0.39806451  0.60120019  0.19681193  1
  Rh  Rh220  1  0.79586968  0.59351727  0.80186313  1
  Rh  Rh221  1  0.79755235  0.79146729  -0.00780085  1
  Rh  Rh222  1  0.20182014  0.19603252  0.39694684  1
  Rh  Rh223  1  0.59841523  0.81016138  0.00659732  1
  Rh  Rh224  1  0.38236348  0.41203480  0.18908316  1
  Rh  Rh225  1  0.20582515  0.00128720  0.20619232  1
  Rh  Rh226  1  0.19278413  0.00302824  0.00019014  1
  Rh  Rh227  1  0.80748621  0.18852370  0.60593114  1
  Rh  Rh228  1  0.80123911  0.20832146  0.19634306  1
  Rh  Rh229  1  0.20301239  0.00005767  0.79620990  1
  Rh  Rh230  1  0.59835701  0.19575556  0.00437942  1
  Rh  Rh231  1  0.00743652  0.80416035  0.78967582  1
  Rh  Rh232  1  0.59768267  0.79687519  0.39247438  1
  Rh  Rh233  1  -0.00382679  0.60478180  0.59505528  1
  Rh  Rh234  1  0.40314848  0.01189759  0.80348887  1
  Rh  Rh235  1  0.20601028  0.59797229  0.20784300  1
  Rh  Rh236  1  0.19176840  0.61908591  -0.00891181  1
  Rh  Rh237  1  0.79685457  0.79474222  0.59805133  1
  Rh  Rh238  1  0.59253150  0.61235459  0.60147315  1
  Rh  Rh239  1  0.39962575  0.00950493  0.00093318  1
  Rh  Rh240  1  0.39811528  0.38841766  0.81106169  1
  Rh  Rh241  1  0.19765437  0.80474864  0.19786001  1
  Rh  Rh242  1  -0.00411060  0.60208248  0.41406702  1
  Rh  Rh243  1  0.19281497  0.39632621  0.79514317  1
  Rh  Rh244  1  0.19165869  -0.00505893  0.39543981  1
  Rh  Rh245  1  -0.00286863  0.60536748  0.18771243  1
  Rh  Rh246  1  0.81001484  0.60989730  0.58815401  1
  Rh  Rh247  1  0.39224869  0.20306001  -0.00538461  1
  Rh  Rh248  1  0.80091863  0.40299774  0.61017587  1
  Rh  Rh249  1  0.19850538  0.80246472  0.38991141  1
