# generated using pymatgen
data_ZrScNbPdRh
_symmetry_space_group_name_H-M   'P 1'
_cell_length_a   16.55321500
_cell_length_b   16.55123527
_cell_length_c   16.55302759
_cell_angle_alpha   90.01568734
_cell_angle_beta   90.00394783
_cell_angle_gamma   90.00681154
_symmetry_Int_Tables_number   1
_chemical_formula_structural   ZrScNbPdRh
_chemical_formula_sum   'Zr50 Sc50 Nb50 Pd50 Rh50'
_cell_volume   4535.13465463
_cell_formula_units_Z   50
loop_
 _symmetry_equiv_pos_site_id
 _symmetry_equiv_pos_as_xyz
  1  'x, y, z'
loop_
 _atom_site_type_symbol
 _atom_site_label
 _atom_site_symmetry_multiplicity
 _atom_site_fract_x
 _atom_site_fract_y
 _atom_site_fract_z
 _atom_site_occupancy
  Zr  Zr0  1  0.68654170  0.29250090  0.70573460  1
  Zr  Zr1  1  0.70379014  0.49894013  0.30757048  1
  Zr  Zr2  1  0.50374728  0.70257617  0.89653249  1
  Zr  Zr3  1  0.29903786  0.09794507  0.30318535  1
  Zr  Zr4  1  0.29459412  0.49057166  0.70146455  1
  Zr  Zr5  1  0.70601589  0.49823457  0.88918597  1
  Zr  Zr6  1  0.50008846  0.69857189  0.49362551  1
  Zr  Zr7  1  0.89910160  0.70293505  0.10078599  1
  Zr  Zr8  1  0.09881925  0.90423176  0.30405729  1
  Zr  Zr9  1  0.29945744  0.29226781  0.70641096  1
  Zr  Zr10  1  0.10030125  0.09739085  0.10547080  1
  Zr  Zr11  1  0.29902599  0.10051209  0.09731161  1
  Zr  Zr12  1  0.49783873  0.90082262  0.10316906  1
  Zr  Zr13  1  0.30143209  0.91051403  0.69742965  1
  Zr  Zr14  1  0.29441807  0.30472509  0.89790434  1
  Zr  Zr15  1  0.29935476  0.30462343  0.29997903  1
  Zr  Zr16  1  0.71341053  0.29307292  0.10351202  1
  Zr  Zr17  1  0.09380837  0.69437564  0.89983406  1
  Zr  Zr18  1  0.29715985  0.70255675  0.69247294  1
  Zr  Zr19  1  0.49335316  0.69932044  0.29867844  1
  Zr  Zr20  1  0.10309348  0.30663593  0.70029701  1
  Zr  Zr21  1  0.90189176  0.50132086  0.29367382  1
  Zr  Zr22  1  0.09843367  0.69948744  0.70056486  1
  Zr  Zr23  1  0.50829072  0.49856184  0.50257311  1
  Zr  Zr24  1  0.50510585  0.09635057  0.49394195  1
  Zr  Zr25  1  0.10290579  0.89841114  0.49677131  1
  Zr  Zr26  1  0.90134489  0.10196456  0.10044621  1
  Zr  Zr27  1  0.70538182  0.90478936  0.69004019  1
  Zr  Zr28  1  0.29664622  0.49650677  0.10749248  1
  Zr  Zr29  1  0.50003667  0.90618135  0.90562327  1
  Zr  Zr30  1  0.69711943  0.31340924  0.49983354  1
  Zr  Zr31  1  0.10745638  0.89084835  0.89856955  1
  Zr  Zr32  1  0.10017455  0.49701844  0.50605984  1
  Zr  Zr33  1  0.89897590  0.30022701  0.90679625  1
  Zr  Zr34  1  0.69875789  0.09958674  0.30113118  1
  Zr  Zr35  1  0.69722589  0.09672331  0.10039104  1
  Zr  Zr36  1  0.10263962  0.50151315  0.30061017  1
  Zr  Zr37  1  0.88360723  0.50295974  0.50444038  1
  Zr  Zr38  1  0.29988528  0.89971398  0.30111729  1
  Zr  Zr39  1  0.70585010  0.70642422  0.89135498  1
  Zr  Zr40  1  0.09703453  0.70231375  0.30852716  1
  Zr  Zr41  1  0.30459796  0.70266250  0.10949880  1
  Zr  Zr42  1  0.70606070  0.08806831  0.49608314  1
  Zr  Zr43  1  0.89625160  0.29859004  0.29299451  1
  Zr  Zr44  1  0.29314751  0.49719512  0.30641942  1
  Zr  Zr45  1  0.10119116  0.30255324  0.30237668  1
  Zr  Zr46  1  0.50295439  0.29897871  0.49477735  1
  Zr  Zr47  1  0.28275729  0.70611561  0.90144767  1
  Zr  Zr48  1  0.49965906  0.69455051  0.10884507  1
  Zr  Zr49  1  0.09685551  0.09159060  0.90549883  1
  Sc  Sc50  1  0.49861556  0.90574297  0.30936085  1
  Sc  Sc51  1  0.09985803  0.69504752  0.09605177  1
  Sc  Sc52  1  0.70280923  0.90074850  0.49144434  1
  Sc  Sc53  1  0.69654049  0.89452124  0.89668289  1
  Sc  Sc54  1  0.10269345  0.70587480  0.50808660  1
  Sc  Sc55  1  0.90235478  0.50033240  0.69947647  1
  Sc  Sc56  1  0.50281174  0.08631125  0.09769202  1
  Sc  Sc57  1  0.91281403  0.29538871  0.70323349  1
  Sc  Sc58  1  0.89804143  0.89678687  0.69386344  1
  Sc  Sc59  1  0.89977205  0.90203652  0.88910752  1
  Sc  Sc60  1  0.69359236  0.90068030  0.09797086  1
  Sc  Sc61  1  0.69267749  0.49281779  0.10643324  1
  Sc  Sc62  1  0.89823226  0.09599406  0.70691228  1
  Sc  Sc63  1  0.70936877  0.50068963  0.68946315  1
  Sc  Sc64  1  0.70336563  0.30370869  0.89996586  1
  Sc  Sc65  1  0.30116854  0.90035972  0.50578683  1
  Sc  Sc66  1  0.09345470  0.50144539  0.10140690  1
  Sc  Sc67  1  0.29819690  0.50186616  0.49541935  1
  Sc  Sc68  1  0.29296212  0.90918370  0.89913476  1
  Sc  Sc69  1  0.90416928  0.30464685  0.09927421  1
  Sc  Sc70  1  0.70218954  0.71135307  0.10235668  1
  Sc  Sc71  1  0.09161852  0.29284830  0.51189716  1
  Sc  Sc72  1  0.49581914  0.69763675  0.68806892  1
  Sc  Sc73  1  0.30300930  0.09883039  0.89178980  1
  Sc  Sc74  1  0.70439521  0.10559194  0.89201160  1
  Sc  Sc75  1  0.29846351  0.90560562  0.09681030  1
  Sc  Sc76  1  0.50814236  0.30099812  0.88373458  1
  Sc  Sc77  1  0.90561488  0.49951327  0.89838606  1
  Sc  Sc78  1  0.49760094  0.09643884  0.89484866  1
  Sc  Sc79  1  0.90004240  0.70745308  0.29860569  1
  Sc  Sc80  1  0.69709990  0.69984653  0.30769516  1
  Sc  Sc81  1  0.50988384  0.31077604  0.10822129  1
  Sc  Sc82  1  0.10716561  0.30207654  0.09783357  1
  Sc  Sc83  1  0.09762913  0.29995083  0.89858277  1
  Sc  Sc84  1  0.30163889  0.30037295  0.49424655  1
  Sc  Sc85  1  0.09545002  0.90735131  0.09896000  1
  Sc  Sc86  1  0.30451136  0.69051409  0.30888310  1
  Sc  Sc87  1  0.69672945  0.29638819  0.29789181  1
  Sc  Sc88  1  0.50514641  0.49088185  0.89739122  1
  Sc  Sc89  1  0.10045647  0.89282953  0.69476626  1
  Sc  Sc90  1  0.91013848  0.49663695  0.09922386  1
  Sc  Sc91  1  0.89629088  0.70274528  0.69853327  1
  Sc  Sc92  1  0.50238495  0.91352676  0.69829828  1
  Sc  Sc93  1  0.90384246  0.29531211  0.50390766  1
  Sc  Sc94  1  0.90480305  0.10577677  0.89737100  1
  Sc  Sc95  1  0.90409733  0.89408665  0.29821133  1
  Sc  Sc96  1  0.29942877  0.09253225  0.50361404  1
  Sc  Sc97  1  0.89115230  0.89456809  0.50152959  1
  Sc  Sc98  1  0.10194150  0.11324625  0.69610488  1
  Sc  Sc99  1  0.50274655  0.50355160  0.11172874  1
  Nb  Nb100  1  0.70215717  0.70388367  0.70063761  1
  Nb  Nb101  1  0.49881404  0.29927451  0.69659654  1
  Nb  Nb102  1  0.09274456  0.09413907  0.30661965  1
  Nb  Nb103  1  0.09634581  0.49701355  0.70056096  1
  Nb  Nb104  1  0.50047345  0.50058867  0.29913704  1
  Nb  Nb105  1  0.30458056  0.69677550  0.50281124  1
  Nb  Nb106  1  0.70399297  0.50824494  0.49511952  1
  Nb  Nb107  1  0.90042498  0.10154443  0.49435217  1
  Nb  Nb108  1  0.89644580  0.70096587  0.49983761  1
  Nb  Nb109  1  0.89109970  0.89635206  0.10216488  1
  Nb  Nb110  1  0.89450621  0.70036303  0.90131981  1
  Nb  Nb111  1  0.10334016  0.50415409  0.89942857  1
  Nb  Nb112  1  0.90080071  0.10039942  0.30784495  1
  Nb  Nb113  1  0.31521304  0.09835139  0.69964996  1
  Nb  Nb114  1  0.49754945  0.49546854  0.70244547  1
  Nb  Nb115  1  0.50163469  0.11056986  0.30641873  1
  Nb  Nb116  1  0.49820791  0.29188333  0.30971514  1
  Nb  Nb117  1  0.30249215  0.29839299  0.10060186  1
  Nb  Nb118  1  0.70513092  0.69115598  0.50184570  1
  Nb  Nb119  1  0.69954080  0.90168374  0.29830633  1
  Nb  Nb120  1  0.29922295  0.50218056  0.90133966  1
  Nb  Nb121  1  0.50939062  0.89661324  0.50135875  1
  Nb  Nb122  1  0.69574668  0.09829715  0.69183986  1
  Nb  Nb123  1  0.50408152  0.10582777  0.69958787  1
  Nb  Nb124  1  0.08854783  0.10166075  0.49175173  1
  Nb  Nb125  1  0.40628777  0.19863863  0.60498043  1
  Nb  Nb126  1  0.80222019  -0.00085122  0.20088052  1
  Nb  Nb127  1  0.60581105  0.79612131  0.59306412  1
  Nb  Nb128  1  0.39789588  0.79575040  -0.00361977  1
  Nb  Nb129  1  0.59612166  0.80348461  0.20809748  1
  Nb  Nb130  1  -0.00417614  0.59913033  0.40635781  1
  Nb  Nb131  1  0.39873761  0.59889149  0.80183425  1
  Nb  Nb132  1  -0.00050470  0.00627153  0.59137500  1
  Nb  Nb133  1  0.59804370  0.59984481  0.79399348  1
  Nb  Nb134  1  0.40392560  0.20243366  0.20161205  1
  Nb  Nb135  1  0.40370182  0.21031906  0.00510097  1
  Nb  Nb136  1  0.39760349  0.79901350  0.80186918  1
  Nb  Nb137  1  -0.00748054  0.79970900  -0.00240465  1
  Nb  Nb138  1  0.80291435  -0.00229474  0.00368125  1
  Nb  Nb139  1  0.19995703  0.80092628  0.20459888  1
  Nb  Nb140  1  0.59730726  0.20154431  0.00116934  1
  Nb  Nb141  1  0.39692769  0.39930538  0.00062690  1
  Nb  Nb142  1  0.79961547  0.60139131  0.19614945  1
  Nb  Nb143  1  0.79717425  0.60266136  0.00037639  1
  Nb  Nb144  1  0.39945600  0.59718037  -0.00653410  1
  Nb  Nb145  1  -0.00273620  0.40554911  0.40173711  1
  Nb  Nb146  1  0.19106198  0.19237969  0.39984571  1
  Nb  Nb147  1  0.00345879  0.19251060  0.20747149  1
  Nb  Nb148  1  0.60374745  0.60083982  -0.00616132  1
  Nb  Nb149  1  0.79443520  0.19353584  0.60100636  1
  Pd  Pd150  1  0.19618369  0.19280253  0.80517488  1
  Pd  Pd151  1  0.21048765  0.79472463  0.40068518  1
  Pd  Pd152  1  -0.00459044  0.79792411  0.80120929  1
  Pd  Pd153  1  0.59496551  0.79597186  0.00864853  1
  Pd  Pd154  1  0.59085211  0.79960029  0.78272843  1
  Pd  Pd155  1  0.60512748  0.00391615  0.80100639  1
  Pd  Pd156  1  0.20025792  0.59796748  0.59845284  1
  Pd  Pd157  1  0.19784422  0.60607947  0.20187164  1
  Pd  Pd158  1  0.60311852  0.40638708  0.60522113  1
  Pd  Pd159  1  0.80499597  0.38536335  0.61037606  1
  Pd  Pd160  1  0.60507820  0.60227511  0.60571344  1
  Pd  Pd161  1  0.59794340  0.39881822  -0.00120961  1
  Pd  Pd162  1  0.59722828  0.59853473  0.39512385  1
  Pd  Pd163  1  0.80212747  0.20378873  0.79306489  1
  Pd  Pd164  1  0.20934181  0.19557698  0.59227642  1
  Pd  Pd165  1  0.79508133  0.20724221  0.40683712  1
  Pd  Pd166  1  0.00255502  0.40197547  0.80506236  1
  Pd  Pd167  1  0.19963637  0.19916999  0.20761647  1
  Pd  Pd168  1  0.60237054  0.39716820  0.21238182  1
  Pd  Pd169  1  0.79485755  -0.00256757  0.80343541  1
  Pd  Pd170  1  0.60159261  0.19695740  0.59008686  1
  Pd  Pd171  1  0.80100140  0.41045722  0.00593138  1
  Pd  Pd172  1  0.39757305  0.59058285  0.60037529  1
  Pd  Pd173  1  0.20468554  0.39343974  0.59538767  1
  Pd  Pd174  1  0.00422398  0.20525459  0.00724263  1
  Pd  Pd175  1  0.00976269  0.79995115  0.19163213  1
  Pd  Pd176  1  -0.00861600  -0.01100794  -0.00280148  1
  Pd  Pd177  1  0.40313284  0.39740086  0.20113489  1
  Pd  Pd178  1  0.80464734  0.39236787  0.79024987  1
  Pd  Pd179  1  0.39956222  0.40119355  0.80418556  1
  Pd  Pd180  1  0.20372838  0.19559851  -0.00712239  1
  Pd  Pd181  1  0.79712685  0.79856326  0.39668598  1
  Pd  Pd182  1  0.40754330  0.80842566  0.60255662  1
  Pd  Pd183  1  0.80578171  0.39357207  0.39801846  1
  Pd  Pd184  1  0.40585986  0.40638626  0.40088092  1
  Pd  Pd185  1  0.19744882  0.40511422  -0.00016325  1
  Pd  Pd186  1  -0.01105870  -0.01312115  0.40607611  1
  Pd  Pd187  1  0.19273081  0.00638191  0.79125691  1
  Pd  Pd188  1  0.20220130  0.59578756  0.00751154  1
  Pd  Pd189  1  0.40425126  0.00605692  0.20497618  1
  Pd  Pd190  1  0.39639567  0.39391373  0.59682771  1
  Pd  Pd191  1  0.39598955  0.80269013  0.40504532  1
  Pd  Pd192  1  0.18996018  0.00849054  0.60060579  1
  Pd  Pd193  1  0.59145529  0.19757967  0.19314724  1
  Pd  Pd194  1  0.00828954  -0.00102856  0.78679166  1
  Pd  Pd195  1  -0.00566712  0.60203975  0.59739862  1
  Pd  Pd196  1  -0.00642459  0.59937175  0.79805845  1
  Pd  Pd197  1  0.20111899  0.59510698  0.79398137  1
  Pd  Pd198  1  0.19874091  -0.00529690  0.20059968  1
  Pd  Pd199  1  0.40044736  -0.00380050  0.40660384  1
  Rh  Rh200  1  0.19576150  0.40177919  0.19512519  1
  Rh  Rh201  1  0.00104775  0.21028755  0.39349610  1
  Rh  Rh202  1  0.40332925  0.59220410  0.40329109  1
  Rh  Rh203  1  0.39366634  0.00161140  -0.00515240  1
  Rh  Rh204  1  0.20038050  0.00434046  0.40614019  1
  Rh  Rh205  1  0.41070919  0.00570232  0.59561641  1
  Rh  Rh206  1  0.80589786  0.80651389  -0.00783214  1
  Rh  Rh207  1  0.20078326  0.00384316  -0.00151433  1
  Rh  Rh208  1  0.79985495  0.60192343  0.79920471  1
  Rh  Rh209  1  0.20638395  0.80521594  0.78744650  1
  Rh  Rh210  1  0.60284784  0.80009556  0.40140885  1
  Rh  Rh211  1  -0.00477050  0.60764104  0.20725379  1
  Rh  Rh212  1  0.79926197  0.60605736  0.60592864  1
  Rh  Rh213  1  0.19078482  0.40653554  0.80335417  1
  Rh  Rh214  1  -0.00554935  0.40590295  0.59698522  1
  Rh  Rh215  1  0.38959823  0.19751745  0.40122135  1
  Rh  Rh216  1  0.19400141  0.80537846  0.01398338  1
  Rh  Rh217  1  0.61070820  0.60712600  0.20057057  1
  Rh  Rh218  1  0.80777395  0.60754973  0.39331375  1
  Rh  Rh219  1  -0.00398795  0.79546025  0.41028870  1
  Rh  Rh220  1  0.78825160  0.80205585  0.20661068  1
  Rh  Rh221  1  0.00470714  0.19897582  0.80399065  1
  Rh  Rh222  1  0.20399894  0.80056191  0.59853159  1
  Rh  Rh223  1  0.79344961  0.79308407  0.59686777  1
  Rh  Rh224  1  0.60557289  0.40788451  0.78896007  1
  Rh  Rh225  1  -0.00268798  0.80644394  0.59577603  1
  Rh  Rh226  1  0.40634817  0.20227653  0.79883153  1
  Rh  Rh227  1  0.39802840  0.81056925  0.19872737  1
  Rh  Rh228  1  0.59924969  -0.00491526  0.21211722  1
  Rh  Rh229  1  0.80631947  -0.00704779  0.38985041  1
  Rh  Rh230  1  0.80883114  0.19093596  0.20312991  1
  Rh  Rh231  1  0.00594917  0.38973862  0.20112376  1
  Rh  Rh232  1  -0.01306435  0.18775598  0.60492121  1
  Rh  Rh233  1  0.59936898  -0.00123711  0.39600545  1
  Rh  Rh234  1  0.18729030  0.38861937  0.41267352  1
  Rh  Rh235  1  0.79884158  0.40769086  0.19496448  1
  Rh  Rh236  1  0.59823331  0.40382034  0.39485812  1
  Rh  Rh237  1  0.39457561  0.58693586  0.20733770  1
  Rh  Rh238  1  0.40333518  -0.00478965  0.79985874  1
  Rh  Rh239  1  0.59760527  0.19382300  0.80509898  1
  Rh  Rh240  1  0.61207900  0.00922834  -0.01224677  1
  Rh  Rh241  1  -0.00732922  0.60271110  -0.00580987  1
  Rh  Rh242  1  0.61107067  0.20161445  0.40514407  1
  Rh  Rh243  1  0.00738070  0.40201433  -0.00542443  1
  Rh  Rh244  1  0.81099170  0.00904346  0.59948301  1
  Rh  Rh245  1  0.19397724  0.60796976  0.41089818  1
  Rh  Rh246  1  0.79410665  0.19430829  -0.00390547  1
  Rh  Rh247  1  -0.01033589  0.00398636  0.20350304  1
  Rh  Rh248  1  0.59899128  -0.00512368  0.59550317  1
  Rh  Rh249  1  0.80388013  0.80579672  0.79446933  1
