# generated using pymatgen
data_ZrScNbPdRh
_symmetry_space_group_name_H-M   'P 1'
_cell_length_a   16.55223539
_cell_length_b   16.55598404
_cell_length_c   16.55054020
_cell_angle_alpha   90.00518657
_cell_angle_beta   90.00797353
_cell_angle_gamma   90.03392690
_symmetry_Int_Tables_number   1
_chemical_formula_structural   ZrScNbPdRh
_chemical_formula_sum   'Zr50 Sc50 Nb50 Pd50 Rh50'
_cell_volume   4535.48509820
_cell_formula_units_Z   50
loop_
 _symmetry_equiv_pos_site_id
 _symmetry_equiv_pos_as_xyz
  1  'x, y, z'
loop_
 _atom_site_type_symbol
 _atom_site_label
 _atom_site_symmetry_multiplicity
 _atom_site_fract_x
 _atom_site_fract_y
 _atom_site_fract_z
 _atom_site_occupancy
  Zr  Zr0  1  0.50168638  0.50799525  0.90266261  1
  Zr  Zr1  1  0.30481592  0.50386669  0.29928509  1
  Zr  Zr2  1  0.10449307  0.49975565  0.09816820  1
  Zr  Zr3  1  0.09875869  0.90091393  0.69613825  1
  Zr  Zr4  1  0.69820656  0.29033702  0.09937560  1
  Zr  Zr5  1  0.50434741  0.09850691  0.49590709  1
  Zr  Zr6  1  0.29965989  0.89866713  0.50083830  1
  Zr  Zr7  1  0.09734838  0.89627101  0.09953347  1
  Zr  Zr8  1  0.70300794  0.90254584  0.29532617  1
  Zr  Zr9  1  0.89254931  0.49442199  0.49759424  1
  Zr  Zr10  1  0.09829301  0.09945896  0.50743730  1
  Zr  Zr11  1  0.50183018  0.10135127  0.90149651  1
  Zr  Zr12  1  0.89243290  0.09944760  0.09392867  1
  Zr  Zr13  1  0.30727885  0.10676962  0.10086282  1
  Zr  Zr14  1  0.49775263  0.89473603  0.90362467  1
  Zr  Zr15  1  0.89646333  0.69656398  0.50363587  1
  Zr  Zr16  1  0.89739883  0.30527555  0.69845060  1
  Zr  Zr17  1  0.69844982  0.69438612  0.29781588  1
  Zr  Zr18  1  0.30108629  0.49560066  0.10627096  1
  Zr  Zr19  1  0.08837264  0.69572891  0.89595309  1
  Zr  Zr20  1  0.69784578  0.08794278  0.69823791  1
  Zr  Zr21  1  0.30212075  0.89919881  0.09517287  1
  Zr  Zr22  1  0.50548573  0.10714393  0.70212609  1
  Zr  Zr23  1  0.69829948  0.68354730  0.50410737  1
  Zr  Zr24  1  0.69748281  0.30178452  0.49082947  1
  Zr  Zr25  1  0.49692583  0.69798886  0.30162761  1
  Zr  Zr26  1  0.90115120  0.29970739  0.89905239  1
  Zr  Zr27  1  0.69435330  0.29989803  0.70283154  1
  Zr  Zr28  1  0.31043957  0.69807509  0.49849021  1
  Zr  Zr29  1  0.10176114  0.49724608  0.89905736  1
  Zr  Zr30  1  0.50256761  0.90573167  0.30094389  1
  Zr  Zr31  1  0.29719412  0.69711092  0.30264460  1
  Zr  Zr32  1  0.89283159  0.09607552  0.89603777  1
  Zr  Zr33  1  0.09781937  0.90139213  0.30614176  1
  Zr  Zr34  1  0.28619755  0.50176564  0.70059642  1
  Zr  Zr35  1  0.50047087  0.69627809  0.70252941  1
  Zr  Zr36  1  0.50746045  0.10205705  0.10125102  1
  Zr  Zr37  1  0.70217422  0.49799200  0.30408412  1
  Zr  Zr38  1  0.09737387  0.10140697  0.30896680  1
  Zr  Zr39  1  0.30680036  0.31093760  0.70463335  1
  Zr  Zr40  1  0.70311166  0.50426569  0.69632474  1
  Zr  Zr41  1  0.29671158  0.89754270  0.70652839  1
  Zr  Zr42  1  0.09872916  0.10084259  0.69429319  1
  Zr  Zr43  1  0.69428209  0.29642266  0.30059827  1
  Zr  Zr44  1  0.69938637  0.89909818  0.89686034  1
  Zr  Zr45  1  0.10450661  0.11482318  0.89069463  1
  Zr  Zr46  1  0.90106463  0.09995766  0.29972729  1
  Zr  Zr47  1  0.30882645  0.30785024  0.31307136  1
  Zr  Zr48  1  0.28399527  0.10313839  0.69579854  1
  Zr  Zr49  1  0.69976597  0.30020441  0.89770938  1
  Sc  Sc50  1  0.90710820  0.30160427  0.10944189  1
  Sc  Sc51  1  0.90116700  0.50043936  0.69289669  1
  Sc  Sc52  1  0.49535903  0.49367974  0.70702334  1
  Sc  Sc53  1  0.29717773  0.10387773  0.49577045  1
  Sc  Sc54  1  0.50592818  0.70325876  0.90209339  1
  Sc  Sc55  1  0.29737951  0.49442828  0.49834107  1
  Sc  Sc56  1  0.70386581  0.49964397  0.49815273  1
  Sc  Sc57  1  0.28874054  0.49536747  0.90183756  1
  Sc  Sc58  1  0.89162354  0.89726131  0.69633056  1
  Sc  Sc59  1  0.30570330  0.90807297  0.30258010  1
  Sc  Sc60  1  0.10426367  0.11019454  0.10603203  1
  Sc  Sc61  1  0.50083797  0.50685798  0.50180403  1
  Sc  Sc62  1  0.70120253  0.09518978  0.91306032  1
  Sc  Sc63  1  0.50142006  0.29573225  0.11442558  1
  Sc  Sc64  1  0.10094777  0.30725562  0.10240472  1
  Sc  Sc65  1  0.50261820  0.89696062  0.09595165  1
  Sc  Sc66  1  0.09891102  0.69974627  0.29827921  1
  Sc  Sc67  1  0.09666883  0.49705501  0.51012277  1
  Sc  Sc68  1  0.70270431  0.50947203  0.89809450  1
  Sc  Sc69  1  0.29833107  0.71428715  0.90429487  1
  Sc  Sc70  1  0.89941874  0.70158100  0.28698004  1
  Sc  Sc71  1  0.10206563  0.28826935  0.69542964  1
  Sc  Sc72  1  0.70274342  0.70199570  0.09487812  1
  Sc  Sc73  1  0.11113691  0.50003178  0.29378876  1
  Sc  Sc74  1  0.49994216  0.90626382  0.49806345  1
  Sc  Sc75  1  0.70284790  0.90953723  0.50826969  1
  Sc  Sc76  1  0.89413289  0.88881375  0.09992334  1
  Sc  Sc77  1  0.69672322  0.69703541  0.90031779  1
  Sc  Sc78  1  0.90758430  0.09831332  0.49677483  1
  Sc  Sc79  1  0.09758475  0.70363649  0.09957202  1
  Sc  Sc80  1  0.89437611  0.50359001  0.89312792  1
  Sc  Sc81  1  0.89190265  0.70114561  0.90227533  1
  Sc  Sc82  1  0.90670548  0.89535772  0.50543925  1
  Sc  Sc83  1  0.50358472  0.69803021  0.09229038  1
  Sc  Sc84  1  0.30193514  0.70185323  0.69553721  1
  Sc  Sc85  1  0.69869605  0.09756747  0.49131090  1
  Sc  Sc86  1  0.89758666  0.89779310  0.29525992  1
  Sc  Sc87  1  0.29838535  0.11668732  0.90605214  1
  Sc  Sc88  1  0.69788652  0.50620773  0.10572445  1
  Sc  Sc89  1  0.50517637  0.89750709  0.70830421  1
  Sc  Sc90  1  0.90706442  0.30229467  0.30419591  1
  Sc  Sc91  1  0.70149127  0.90152245  0.09867820  1
  Sc  Sc92  1  0.10546178  0.88450396  0.89945094  1
  Sc  Sc93  1  0.91016327  0.10208990  0.69503537  1
  Sc  Sc94  1  0.30037380  0.69875797  0.09902646  1
  Sc  Sc95  1  0.50271536  0.29962230  0.30961362  1
  Sc  Sc96  1  0.90686476  0.30747359  0.49826817  1
  Sc  Sc97  1  0.89321790  0.89534514  0.90315332  1
  Sc  Sc98  1  0.09115151  0.70292026  0.49657293  1
  Sc  Sc99  1  0.90272930  0.70025263  0.69595076  1
  Nb  Nb100  1  0.90074324  0.69964133  0.09648233  1
  Nb  Nb101  1  0.09624081  0.90155587  0.50044724  1
  Nb  Nb102  1  0.50256902  0.29864538  0.70444491  1
  Nb  Nb103  1  0.10579932  0.30315303  0.90041027  1
  Nb  Nb104  1  0.30300738  0.29545744  0.09626144  1
  Nb  Nb105  1  0.49530764  0.29833153  0.49891268  1
  Nb  Nb106  1  0.89684419  0.50041410  0.29731525  1
  Nb  Nb107  1  0.29465871  0.30394442  0.90316155  1
  Nb  Nb108  1  0.09668770  0.51279324  0.70766514  1
  Nb  Nb109  1  0.70124032  0.09467670  0.29696803  1
  Nb  Nb110  1  0.49394040  0.49410731  0.28457297  1
  Nb  Nb111  1  0.49568997  0.49533412  0.09477250  1
  Nb  Nb112  1  0.90059664  0.50033128  0.10471339  1
  Nb  Nb113  1  0.70155836  0.10107501  0.10004490  1
  Nb  Nb114  1  0.69721016  0.70251785  0.69752493  1
  Nb  Nb115  1  0.50085835  0.09689985  0.30533656  1
  Nb  Nb116  1  0.30695099  0.09980453  0.29872102  1
  Nb  Nb117  1  0.30735740  0.30373817  0.50035046  1
  Nb  Nb118  1  0.09955155  0.28946711  0.30108861  1
  Nb  Nb119  1  0.30095224  0.90042652  0.90140062  1
  Nb  Nb120  1  0.50344382  0.70271895  0.50547812  1
  Nb  Nb121  1  0.49472197  0.30569602  0.87816350  1
  Nb  Nb122  1  0.69993144  0.89472067  0.69899246  1
  Nb  Nb123  1  0.10649234  0.29361447  0.49191324  1
  Nb  Nb124  1  0.09314814  0.69028241  0.69603691  1
  Nb  Nb125  1  0.79142334  0.79464513  0.40252707  1
  Nb  Nb126  1  0.40346812  0.39457170  -0.00110865  1
  Nb  Nb127  1  0.59568348  0.40009185  -0.00081343  1
  Nb  Nb128  1  0.79695716  0.19737717  0.79424572  1
  Nb  Nb129  1  0.00646361  0.00415876  -0.00319986  1
  Nb  Nb130  1  0.60291733  0.79528139  0.59830760  1
  Nb  Nb131  1  0.79700535  0.20236032  0.60034661  1
  Nb  Nb132  1  0.19859840  0.00196853  -0.00168250  1
  Nb  Nb133  1  0.40295934  0.20673970  0.59946071  1
  Nb  Nb134  1  0.79929121  0.40258145  0.00593932  1
  Nb  Nb135  1  0.20960537  0.20406514  0.21009376  1
  Nb  Nb136  1  0.59416934  0.39186155  0.60110011  1
  Nb  Nb137  1  0.00219133  0.20010208  -0.00371952  1
  Nb  Nb138  1  0.00000104  0.00234359  0.19479651  1
  Nb  Nb139  1  0.20187410  0.80538798  0.20373586  1
  Nb  Nb140  1  0.39284839  0.00171673  0.80269938  1
  Nb  Nb141  1  -0.00757271  0.59522529  0.00609681  1
  Nb  Nb142  1  -0.00808298  0.59194959  0.39391762  1
  Nb  Nb143  1  0.00387175  -0.00121662  0.80460932  1
  Nb  Nb144  1  0.60298509  0.79511162  0.40570663  1
  Nb  Nb145  1  0.00805514  0.40057976  0.79899116  1
  Nb  Nb146  1  0.79504722  0.19378112  0.20292201  1
  Nb  Nb147  1  0.19276978  0.79950981  0.59692640  1
  Nb  Nb148  1  0.39869495  0.00662257  0.60825583  1
  Nb  Nb149  1  0.39523853  0.60031312  0.80305526  1
  Pd  Pd150  1  0.80830495  0.00755504  0.59831776  1
  Pd  Pd151  1  0.19440321  0.40269909  0.40060367  1
  Pd  Pd152  1  0.59744173  -0.00116903  0.80506216  1
  Pd  Pd153  1  0.40364278  0.60604667  0.19326420  1
  Pd  Pd154  1  0.59420494  0.59932076  0.19444404  1
  Pd  Pd155  1  0.60044009  0.40232009  0.19535663  1
  Pd  Pd156  1  0.19850600  0.00073028  0.81205517  1
  Pd  Pd157  1  0.20065977  0.79890734  0.40101146  1
  Pd  Pd158  1  0.60531113  0.41158001  0.80068021  1
  Pd  Pd159  1  0.60028951  0.79837353  0.20097424  1
  Pd  Pd160  1  0.40668429  0.40325402  0.59770849  1
  Pd  Pd161  1  0.19689470  0.00346481  0.19560649  1
  Pd  Pd162  1  0.80382764  0.60774262  0.79227142  1
  Pd  Pd163  1  0.39076613  0.19425678  0.79496749  1
  Pd  Pd164  1  -0.00831643  0.80437351  0.79567873  1
  Pd  Pd165  1  0.80600955  0.20279052  0.40048976  1
  Pd  Pd166  1  0.59133024  0.41049022  0.40496717  1
  Pd  Pd167  1  0.00518149  0.59937280  0.19900030  1
  Pd  Pd168  1  0.59063138  0.59443625  0.39553979  1
  Pd  Pd169  1  0.39680453  0.79826030  0.19782564  1
  Pd  Pd170  1  0.58938246  0.21064679  -0.00737265  1
  Pd  Pd171  1  -0.00695157  0.40236222  -0.00485040  1
  Pd  Pd172  1  0.60042112  0.00103640  0.19496269  1
  Pd  Pd173  1  0.79940345  0.79529657  0.79959355  1
  Pd  Pd174  1  0.80634292  -0.00939822  0.40391717  1
  Pd  Pd175  1  0.01113341  0.39606560  0.60761918  1
  Pd  Pd176  1  0.19605718  0.78807933  0.79073821  1
  Pd  Pd177  1  0.41378950  0.21302894  -0.00402721  1
  Pd  Pd178  1  0.19559084  0.60781189  -0.00031040  1
  Pd  Pd179  1  0.20762403  0.61214103  0.80594942  1
  Pd  Pd180  1  0.79987029  0.60277095  0.19644115  1
  Pd  Pd181  1  0.20580287  0.38962152  0.20365092  1
  Pd  Pd182  1  0.40652062  0.80998428  0.60315662  1
  Pd  Pd183  1  0.01152071  0.40651371  0.39195355  1
  Pd  Pd184  1  0.20644147  0.19861862  0.39922867  1
  Pd  Pd185  1  0.19148587  0.39525591  0.60350005  1
  Pd  Pd186  1  0.60302753  0.20382635  0.59225577  1
  Pd  Pd187  1  0.40741034  0.80345694  0.39913904  1
  Pd  Pd188  1  0.79778953  0.39136244  0.19958250  1
  Pd  Pd189  1  0.40694529  0.59341120  0.40119248  1
  Pd  Pd190  1  0.19672577  0.60897940  0.58977106  1
  Pd  Pd191  1  0.40218235  0.20464297  0.21231642  1
  Pd  Pd192  1  0.18869894  0.59721356  0.40826458  1
  Pd  Pd193  1  0.39135727  0.59836390  -0.00677255  1
  Pd  Pd194  1  -0.01157491  0.79356990  0.39511947  1
  Pd  Pd195  1  0.39555812  0.00293623  -0.00433406  1
  Pd  Pd196  1  0.40020048  0.59056127  0.60726214  1
  Pd  Pd197  1  0.00584273  0.40305843  0.20954270  1
  Pd  Pd198  1  0.20271578  0.00266394  0.40419018  1
  Pd  Pd199  1  0.40729950  -0.00111403  0.19627031  1
  Rh  Rh200  1  0.78944492  0.79662011  0.59371726  1
  Rh  Rh201  1  0.19947282  0.61085200  0.19698225  1
  Rh  Rh202  1  0.80123370  0.39646732  0.39239170  1
  Rh  Rh203  1  0.20202252  -0.00875137  0.59124128  1
  Rh  Rh204  1  0.80537693  0.39758159  0.80613659  1
  Rh  Rh205  1  0.20113434  0.80282095  0.00758980  1
  Rh  Rh206  1  0.80436971  0.59929399  0.60702573  1
  Rh  Rh207  1  0.79495071  0.79771841  -0.00035257  1
  Rh  Rh208  1  0.40199063  0.19408666  0.40307145  1
  Rh  Rh209  1  0.00640731  0.79849747  0.60386484  1
  Rh  Rh210  1  0.39161543  0.41178006  0.80871352  1
  Rh  Rh211  1  0.00033888  0.19634717  0.19751950  1
  Rh  Rh212  1  0.60458466  0.59543501  0.00396705  1
  Rh  Rh213  1  0.60497488  -0.00357868  0.39648844  1
  Rh  Rh214  1  0.39633913  0.00483149  0.40591928  1
  Rh  Rh215  1  0.60211468  -0.00270405  0.00444951  1
  Rh  Rh216  1  0.19104975  0.39459986  0.79221227  1
  Rh  Rh217  1  0.80433534  0.00189751  0.79179887  1
  Rh  Rh218  1  -0.00528378  0.20685072  0.59016944  1
  Rh  Rh219  1  0.20895777  0.21294702  0.59200024  1
  Rh  Rh220  1  -0.00118382  0.20323449  0.40719656  1
  Rh  Rh221  1  0.59767848  0.19310431  0.39554895  1
  Rh  Rh222  1  0.80800018  0.21179923  0.00514972  1
  Rh  Rh223  1  -0.00730468  0.59535853  0.80443629  1
  Rh  Rh224  1  0.59601252  0.60095745  0.79704100  1
  Rh  Rh225  1  0.60208884  0.18974791  0.21138252  1
  Rh  Rh226  1  0.40300168  0.79653527  0.00103912  1
  Rh  Rh227  1  0.20705573  0.39440856  0.00776379  1
  Rh  Rh228  1  0.60540049  0.80171168  -0.00203186  1
  Rh  Rh229  1  -0.00337288  0.59723247  0.59147099  1
  Rh  Rh230  1  0.20729263  0.21212079  0.79547997  1
  Rh  Rh231  1  0.59208436  -0.01130457  0.60402849  1
  Rh  Rh232  1  0.40788290  0.41114247  0.40138286  1
  Rh  Rh233  1  -0.00476570  -0.00458290  0.39659537  1
  Rh  Rh234  1  0.79603796  0.79481235  0.20089690  1
  Rh  Rh235  1  0.80043837  -0.01087097  0.00414372  1
  Rh  Rh236  1  -0.00372001  -0.00547365  0.60561827  1
  Rh  Rh237  1  0.78751143  0.39375479  0.59436048  1
  Rh  Rh238  1  0.60413592  0.79676868  0.79605023  1
  Rh  Rh239  1  0.59642169  0.59434750  0.60687418  1
  Rh  Rh240  1  0.80992376  0.60423359  0.39267856  1
  Rh  Rh241  1  -0.00638448  0.20349296  0.80398841  1
  Rh  Rh242  1  0.40160021  0.79830646  0.80507762  1
  Rh  Rh243  1  0.61042522  0.19035226  0.80875837  1
  Rh  Rh244  1  0.80478548  0.00417960  0.19573617  1
  Rh  Rh245  1  0.00455878  0.80494191  0.20090302  1
  Rh  Rh246  1  -0.00726177  0.79362678  -0.00253402  1
  Rh  Rh247  1  0.39930522  0.39315912  0.19802665  1
  Rh  Rh248  1  0.80498070  0.59349572  0.00630506  1
  Rh  Rh249  1  0.19336922  0.20535221  0.01008602  1
