# generated using pymatgen
data_ZrScNbPdRh
_symmetry_space_group_name_H-M   'P 1'
_cell_length_a   16.55629130
_cell_length_b   16.56081554
_cell_length_c   16.56170961
_cell_angle_alpha   90.00200731
_cell_angle_beta   89.97758509
_cell_angle_gamma   90.02020937
_symmetry_Int_Tables_number   1
_chemical_formula_structural   ZrScNbPdRh
_chemical_formula_sum   'Zr50 Sc50 Nb50 Pd50 Rh50'
_cell_volume   4540.98308285
_cell_formula_units_Z   50
loop_
 _symmetry_equiv_pos_site_id
 _symmetry_equiv_pos_as_xyz
  1  'x, y, z'
loop_
 _atom_site_type_symbol
 _atom_site_label
 _atom_site_symmetry_multiplicity
 _atom_site_fract_x
 _atom_site_fract_y
 _atom_site_fract_z
 _atom_site_occupancy
  Zr  Zr0  1  0.89906450  0.10910827  0.09576386  1
  Zr  Zr1  1  0.30152456  0.30180254  0.89717122  1
  Zr  Zr2  1  0.30803149  0.10106576  0.50213671  1
  Zr  Zr3  1  0.09976184  0.89015765  0.29738709  1
  Zr  Zr4  1  0.69884798  0.09171733  0.90445217  1
  Zr  Zr5  1  0.89764026  0.10036125  0.90011692  1
  Zr  Zr6  1  0.50295445  0.51092675  0.50695750  1
  Zr  Zr7  1  0.49863444  0.70073472  0.49407313  1
  Zr  Zr8  1  0.88398916  0.51256126  0.69896352  1
  Zr  Zr9  1  0.10780959  0.89637339  0.69730920  1
  Zr  Zr10  1  0.09862001  0.09603617  0.50506162  1
  Zr  Zr11  1  0.49830048  0.11664753  0.90185389  1
  Zr  Zr12  1  0.49145201  0.89970833  0.50300293  1
  Zr  Zr13  1  0.30653029  0.70103229  0.90163592  1
  Zr  Zr14  1  0.10179527  0.69859140  0.29444529  1
  Zr  Zr15  1  0.70348947  0.89671094  0.49288261  1
  Zr  Zr16  1  0.10578900  0.90346193  0.91023350  1
  Zr  Zr17  1  0.90879814  0.30021118  0.10415949  1
  Zr  Zr18  1  0.70291626  0.89402329  0.30137126  1
  Zr  Zr19  1  0.69925865  0.69035055  0.09757096  1
  Zr  Zr20  1  0.70320508  0.90505598  0.70684415  1
  Zr  Zr21  1  0.29842757  0.10525927  0.09391206  1
  Zr  Zr22  1  0.10001177  0.50727357  0.90376838  1
  Zr  Zr23  1  0.49846980  0.89365118  0.09913544  1
  Zr  Zr24  1  0.49952243  0.88863977  0.29851554  1
  Zr  Zr25  1  0.10648031  0.51656203  0.69407262  1
  Zr  Zr26  1  0.29662788  0.69758742  0.29318414  1
  Zr  Zr27  1  0.30428399  0.69194158  0.09934580  1
  Zr  Zr28  1  0.89743181  0.30540050  0.48680256  1
  Zr  Zr29  1  0.70833171  0.49563257  0.51762529  1
  Zr  Zr30  1  0.69338258  0.70073253  0.90101634  1
  Zr  Zr31  1  0.90274249  0.50154421  0.09420129  1
  Zr  Zr32  1  0.48590926  0.69775533  0.69671360  1
  Zr  Zr33  1  0.90783424  0.69816193  0.10203506  1
  Zr  Zr34  1  0.29687633  0.51090738  0.90371322  1
  Zr  Zr35  1  0.89930842  0.90161420  0.89754459  1
  Zr  Zr36  1  0.69961962  0.09944747  0.09494025  1
  Zr  Zr37  1  0.90258823  0.30171134  0.90258462  1
  Zr  Zr38  1  0.70001457  0.49991299  0.10470086  1
  Zr  Zr39  1  0.89900474  0.10638646  0.49577362  1
  Zr  Zr40  1  0.90174337  0.48262885  0.29908974  1
  Zr  Zr41  1  0.50157349  0.10374412  0.69271488  1
  Zr  Zr42  1  0.89984490  0.89651120  0.49490890  1
  Zr  Zr43  1  0.49463503  0.09662853  0.50533343  1
  Zr  Zr44  1  0.70494815  0.49883418  0.90091473  1
  Zr  Zr45  1  0.29935070  0.30926447  0.69612287  1
  Zr  Zr46  1  0.30275639  0.30608652  0.30027141  1
  Zr  Zr47  1  0.70929289  0.30230060  0.30219930  1
  Zr  Zr48  1  0.28951931  0.49219657  0.51124849  1
  Zr  Zr49  1  0.50190136  0.50285021  0.30277652  1
  Sc  Sc50  1  0.09488057  0.69304374  0.50046289  1
  Sc  Sc51  1  0.09842013  0.70170077  0.10317295  1
  Sc  Sc52  1  0.29879832  0.09999386  0.30661171  1
  Sc  Sc53  1  0.90489748  0.69818807  0.89880251  1
  Sc  Sc54  1  0.69638921  0.29991670  0.10210163  1
  Sc  Sc55  1  0.69620814  0.90109460  0.08776978  1
  Sc  Sc56  1  0.10532336  0.50044793  0.09699143  1
  Sc  Sc57  1  0.70571669  0.89894643  0.90023336  1
  Sc  Sc58  1  0.10120378  0.89448565  0.50301323  1
  Sc  Sc59  1  0.69845489  0.69444577  0.49173613  1
  Sc  Sc60  1  0.29697323  0.09846236  0.70081414  1
  Sc  Sc61  1  0.29360846  0.10571350  0.89823319  1
  Sc  Sc62  1  0.30348576  0.50124287  0.29005583  1
  Sc  Sc63  1  0.10225858  0.50637807  0.30286553  1
  Sc  Sc64  1  0.08877428  0.30490197  0.29851266  1
  Sc  Sc65  1  0.69127034  0.69830672  0.30485012  1
  Sc  Sc66  1  0.09761459  0.69524393  0.89904430  1
  Sc  Sc67  1  0.91043524  0.69772530  0.30086057  1
  Sc  Sc68  1  0.10523910  0.10640123  0.90218071  1
  Sc  Sc69  1  0.49842170  0.28918982  0.50536358  1
  Sc  Sc70  1  0.70047572  0.10442408  0.51239407  1
  Sc  Sc71  1  0.29138711  0.30915318  0.10053436  1
  Sc  Sc72  1  0.90430405  0.89601743  0.70051670  1
  Sc  Sc73  1  0.68892523  0.30800347  0.89833969  1
  Sc  Sc74  1  0.29713223  0.89006403  0.30178128  1
  Sc  Sc75  1  0.30463020  0.30690096  0.50107170  1
  Sc  Sc76  1  0.10032867  0.29687081  0.89783747  1
  Sc  Sc77  1  0.49803634  0.29898164  0.70888183  1
  Sc  Sc78  1  0.49208563  0.69864643  0.29811486  1
  Sc  Sc79  1  0.50550172  0.29710374  0.09147624  1
  Sc  Sc80  1  0.30698151  0.70255012  0.49882972  1
  Sc  Sc81  1  0.09749461  0.11188036  0.29891301  1
  Sc  Sc82  1  0.50551296  0.10392073  0.08962239  1
  Sc  Sc83  1  0.89874727  0.09864099  0.69309365  1
  Sc  Sc84  1  0.29868534  0.90337604  0.50364977  1
  Sc  Sc85  1  0.09684681  0.29450762  0.70654117  1
  Sc  Sc86  1  0.90509896  0.29196416  0.70320418  1
  Sc  Sc87  1  0.71072030  0.69071066  0.70352148  1
  Sc  Sc88  1  0.49590351  0.10726646  0.30903419  1
  Sc  Sc89  1  0.70618900  0.11179899  0.29970964  1
  Sc  Sc90  1  0.29513897  0.88640888  0.09327847  1
  Sc  Sc91  1  0.90513090  0.69779784  0.49967737  1
  Sc  Sc92  1  0.50509201  0.50471621  0.10369863  1
  Sc  Sc93  1  0.51053581  0.88334865  0.90355314  1
  Sc  Sc94  1  0.89958473  0.89017731  0.30540185  1
  Sc  Sc95  1  0.90983310  0.69998965  0.70082225  1
  Sc  Sc96  1  0.69057767  0.30194291  0.69542913  1
  Sc  Sc97  1  0.50124204  0.29982745  0.30697348  1
  Sc  Sc98  1  0.90837405  0.89499307  0.08939038  1
  Sc  Sc99  1  0.49459013  0.89798873  0.69497553  1
  Nb  Nb100  1  0.49657743  0.70292761  0.08903816  1
  Nb  Nb101  1  0.69969822  0.49828254  0.29899050  1
  Nb  Nb102  1  0.49621435  0.50557147  0.70104862  1
  Nb  Nb103  1  0.50148746  0.49870696  0.90000540  1
  Nb  Nb104  1  0.29800426  0.90128426  0.89809427  1
  Nb  Nb105  1  0.69580224  0.50252259  0.70313214  1
  Nb  Nb106  1  0.09532960  0.10378597  0.70348116  1
  Nb  Nb107  1  0.69639945  0.10215952  0.70668492  1
  Nb  Nb108  1  0.29936884  0.50027083  0.09574249  1
  Nb  Nb109  1  0.10164756  0.29343429  0.09860080  1
  Nb  Nb110  1  0.49980351  0.68837630  0.90660774  1
  Nb  Nb111  1  0.09898986  0.70293263  0.69758307  1
  Nb  Nb112  1  0.49666355  0.30669871  0.90208419  1
  Nb  Nb113  1  0.90047423  0.28560161  0.30070574  1
  Nb  Nb114  1  0.10202801  0.09875725  0.09930846  1
  Nb  Nb115  1  0.90250796  0.11159787  0.29748189  1
  Nb  Nb116  1  0.70051917  0.30419457  0.49874580  1
  Nb  Nb117  1  0.30067373  0.88863139  0.70797470  1
  Nb  Nb118  1  0.29450400  0.69851655  0.70491672  1
  Nb  Nb119  1  0.09914797  0.90370454  0.10122662  1
  Nb  Nb120  1  0.90217090  0.49795658  0.50275438  1
  Nb  Nb121  1  0.30412473  0.50984192  0.70094326  1
  Nb  Nb122  1  0.09516003  0.49438479  0.50303091  1
  Nb  Nb123  1  0.90350561  0.49867490  0.89598190  1
  Nb  Nb124  1  0.10279076  0.30874834  0.50169630  1
  Nb  Nb125  1  0.39993272  -0.00599066  0.80609985  1
  Nb  Nb126  1  0.80396035  -0.00173147  0.19970969  1
  Nb  Nb127  1  0.39716001  -0.00559945  -0.00633124  1
  Nb  Nb128  1  0.59330335  0.00409346  0.79960258  1
  Nb  Nb129  1  -0.00056590  0.00326520  0.20025916  1
  Nb  Nb130  1  0.80149967  0.58482637  0.39885826  1
  Nb  Nb131  1  0.60464715  0.79855301  0.60066130  1
  Nb  Nb132  1  0.59977299  0.00037126  0.20551361  1
  Nb  Nb133  1  -0.00006484  0.41361018  0.79655646  1
  Nb  Nb134  1  0.60075810  -0.00097597  0.39819031  1
  Nb  Nb135  1  0.19664547  -0.00001532  0.19406618  1
  Nb  Nb136  1  -0.00246170  0.00396396  0.39358965  1
  Nb  Nb137  1  0.60890518  0.40360538  0.40710791  1
  Nb  Nb138  1  0.19636059  0.20673440  0.40907645  1
  Nb  Nb139  1  0.79936147  0.79951640  0.19687186  1
  Nb  Nb140  1  0.40189185  0.40568801  -0.00444545  1
  Nb  Nb141  1  0.79601802  0.80082778  0.59661587  1
  Nb  Nb142  1  0.00801358  0.00284042  0.79778292  1
  Nb  Nb143  1  0.59392930  0.59358829  0.79877155  1
  Nb  Nb144  1  0.19494187  0.20159809  0.59714316  1
  Nb  Nb145  1  0.19884186  0.41094093  0.79749740  1
  Nb  Nb146  1  0.39717593  0.19860020  0.19683750  1
  Nb  Nb147  1  0.79219962  0.19627712  0.80083852  1
  Nb  Nb148  1  -0.00017830  0.40722670  0.60043484  1
  Nb  Nb149  1  0.39903027  0.00160615  0.19308300  1
  Pd  Pd150  1  0.80311580  0.39057249  0.79277735  1
  Pd  Pd151  1  0.60564485  0.19833202  0.40817804  1
  Pd  Pd152  1  0.60403368  0.61091155  0.60796083  1
  Pd  Pd153  1  0.60371301  -0.00629856  0.59923790  1
  Pd  Pd154  1  0.80461433  0.79262248  0.79534543  1
  Pd  Pd155  1  0.01009410  0.39714214  -0.00395852  1
  Pd  Pd156  1  0.80062036  0.01090350  0.39201412  1
  Pd  Pd157  1  -0.00440073  0.59349196  0.39802824  1
  Pd  Pd158  1  0.79696499  0.20822953  0.60588817  1
  Pd  Pd159  1  0.59703468  0.40535326  0.79627773  1
  Pd  Pd160  1  0.20485247  0.00210673  0.60643171  1
  Pd  Pd161  1  0.00881311  0.40392205  0.19628352  1
  Pd  Pd162  1  0.79043989  0.21253811  -0.00669922  1
  Pd  Pd163  1  0.80263589  0.39309101  0.19406609  1
  Pd  Pd164  1  0.38746251  0.59158738  0.40198420  1
  Pd  Pd165  1  0.20353407  0.19955377  0.20888823  1
  Pd  Pd166  1  0.59234111  0.19508957  0.20204631  1
  Pd  Pd167  1  0.40572147  0.80135161  0.80628554  1
  Pd  Pd168  1  0.80810312  0.38866837  0.61233432  1
  Pd  Pd169  1  -0.00019123  0.00629248  -0.00235164  1
  Pd  Pd170  1  0.59361187  0.60783447  0.20223752  1
  Pd  Pd171  1  0.00283976  0.20970139  0.59343153  1
  Pd  Pd172  1  0.58943337  0.39469711  0.59997000  1
  Pd  Pd173  1  0.19594863  0.79101077  0.00095730  1
  Pd  Pd174  1  0.40952204  0.40440879  0.40935967  1
  Pd  Pd175  1  -0.00265794  -0.00598017  0.60084914  1
  Pd  Pd176  1  0.20456560  0.61244016  0.59202642  1
  Pd  Pd177  1  0.19824091  0.79254408  0.40891802  1
  Pd  Pd178  1  0.40883537  0.39400605  0.18785948  1
  Pd  Pd179  1  0.39423136  0.19542615  0.79393136  1
  Pd  Pd180  1  0.59710775  0.79387147  0.79088733  1
  Pd  Pd181  1  0.59447361  0.39419660  0.20634349  1
  Pd  Pd182  1  0.80484647  0.60574106  0.21184550  1
  Pd  Pd183  1  0.19172848  0.40420551  0.20277242  1
  Pd  Pd184  1  0.20513579  0.59615742  0.40500708  1
  Pd  Pd185  1  0.00836024  0.80559018  0.80369253  1
  Pd  Pd186  1  0.19680201  0.40081188  0.39188899  1
  Pd  Pd187  1  0.19071291  0.00486376  0.39129863  1
  Pd  Pd188  1  0.20409312  0.79179412  0.59449046  1
  Pd  Pd189  1  0.19919248  0.00324881  0.79767182  1
  Pd  Pd190  1  0.41084920  0.40108843  0.59890950  1
  Pd  Pd191  1  0.39475351  0.41041493  0.80285863  1
  Pd  Pd192  1  0.80257184  -0.00378112  0.60340763  1
  Pd  Pd193  1  0.79731822  0.39621361  0.00556326  1
  Pd  Pd194  1  0.60676804  0.79678686  0.19204032  1
  Pd  Pd195  1  0.80705941  0.60201935  -0.00696634  1
  Pd  Pd196  1  0.40277175  -0.00610169  0.38938866  1
  Pd  Pd197  1  0.19382782  0.79213005  0.80648590  1
  Pd  Pd198  1  0.80130945  0.79655988  0.00354736  1
  Pd  Pd199  1  0.19957624  0.20670671  -0.00207626  1
  Rh  Rh200  1  0.60365043  0.79390227  0.00270853  1
  Rh  Rh201  1  0.00330994  0.40019978  0.40218991  1
  Rh  Rh202  1  0.59578347  0.40624078  0.00302096  1
  Rh  Rh203  1  0.40285251  0.59926369  0.80105185  1
  Rh  Rh204  1  0.00705405  0.19877500  0.40667098  1
  Rh  Rh205  1  0.39474181  0.80107055  0.39784319  1
  Rh  Rh206  1  0.39384772  0.21153588  0.00615858  1
  Rh  Rh207  1  0.60049644  0.20406629  0.59974877  1
  Rh  Rh208  1  0.20752282  -0.00007840  0.00481681  1
  Rh  Rh209  1  0.20211635  0.39811737  -0.00633398  1
  Rh  Rh210  1  0.38990535  0.60082122  0.59733273  1
  Rh  Rh211  1  0.79364850  0.19728365  0.40558857  1
  Rh  Rh212  1  -0.00260161  0.59830292  0.60128531  1
  Rh  Rh213  1  -0.00227273  0.79841089  0.59919518  1
  Rh  Rh214  1  0.80659012  -0.00664502  0.00908555  1
  Rh  Rh215  1  0.00756117  0.20096902  -0.00005830  1
  Rh  Rh216  1  0.20417907  0.20769209  0.78996279  1
  Rh  Rh217  1  0.20091157  0.60574784  0.79938057  1
  Rh  Rh218  1  0.79550478  0.40344413  0.39891310  1
  Rh  Rh219  1  0.40612956  0.59165577  0.00725233  1
  Rh  Rh220  1  0.39444333  0.79768394  0.19742733  1
  Rh  Rh221  1  0.60381905  0.19893696  0.80448476  1
  Rh  Rh222  1  0.00606449  0.19821452  0.19291508  1
  Rh  Rh223  1  -0.00111909  0.60092059  0.00195664  1
  Rh  Rh224  1  0.00226137  0.59158282  0.19872389  1
  Rh  Rh225  1  0.59119764  0.80464960  0.40835575  1
  Rh  Rh226  1  0.60863506  0.58742179  0.40039733  1
  Rh  Rh227  1  0.38957297  0.20616917  0.39526575  1
  Rh  Rh228  1  0.60641175  0.20832599  -0.00561112  1
  Rh  Rh229  1  0.59855382  0.59331475  -0.00241500  1
  Rh  Rh230  1  0.00637844  0.80222611  0.40376041  1
  Rh  Rh231  1  0.40409148  0.59970530  0.19505811  1
  Rh  Rh232  1  0.20151956  0.80093953  0.19424457  1
  Rh  Rh233  1  0.80404278  0.00730292  0.79590715  1
  Rh  Rh234  1  0.40025655  0.80155866  -0.00637092  1
  Rh  Rh235  1  0.19926858  0.59678089  0.19494366  1
  Rh  Rh236  1  0.00689054  0.79665478  -0.00348470  1
  Rh  Rh237  1  0.19723937  0.60677352  0.00591522  1
  Rh  Rh238  1  0.58879124  -0.00236003  -0.00640351  1
  Rh  Rh239  1  -0.00591981  0.80652160  0.19750941  1
  Rh  Rh240  1  0.79616748  0.60302856  0.80982192  1
  Rh  Rh241  1  0.80236876  0.61196827  0.59130537  1
  Rh  Rh242  1  0.80503227  0.77794756  0.39738254  1
  Rh  Rh243  1  0.39507600  0.79941796  0.60107588  1
  Rh  Rh244  1  0.38754869  -0.00749200  0.61462746  1
  Rh  Rh245  1  -0.00871129  0.19358009  0.80499022  1
  Rh  Rh246  1  0.39217288  0.20345065  0.60650131  1
  Rh  Rh247  1  0.79983845  0.20108759  0.19497730  1
  Rh  Rh248  1  0.18932494  0.39578319  0.61245843  1
  Rh  Rh249  1  -0.00010413  0.59846920  0.79609670  1
