# generated using pymatgen
data_ZrScNbPdRh
_symmetry_space_group_name_H-M   'P 1'
_cell_length_a   16.55877312
_cell_length_b   16.56618473
_cell_length_c   16.56862712
_cell_angle_alpha   90.00722214
_cell_angle_beta   89.99351369
_cell_angle_gamma   90.02277590
_symmetry_Int_Tables_number   1
_chemical_formula_structural   ZrScNbPdRh
_chemical_formula_sum   'Zr50 Sc50 Nb50 Pd50 Rh50'
_cell_volume   4545.03403099
_cell_formula_units_Z   50
loop_
 _symmetry_equiv_pos_site_id
 _symmetry_equiv_pos_as_xyz
  1  'x, y, z'
loop_
 _atom_site_type_symbol
 _atom_site_label
 _atom_site_symmetry_multiplicity
 _atom_site_fract_x
 _atom_site_fract_y
 _atom_site_fract_z
 _atom_site_occupancy
  Zr  Zr0  1  0.70505894  0.49954621  0.10574501  1
  Zr  Zr1  1  0.50345715  0.10042236  0.29932632  1
  Zr  Zr2  1  0.50511937  0.10377422  0.90092498  1
  Zr  Zr3  1  0.89980496  0.30637825  0.70927716  1
  Zr  Zr4  1  0.10273424  0.70538164  0.30236288  1
  Zr  Zr5  1  0.90247138  0.50219130  0.50383395  1
  Zr  Zr6  1  0.70604774  0.29427450  0.90165735  1
  Zr  Zr7  1  0.50239541  0.89480315  0.90576148  1
  Zr  Zr8  1  0.09435483  0.89052881  0.29821645  1
  Zr  Zr9  1  0.90666506  0.90011086  0.10138223  1
  Zr  Zr10  1  0.29871988  0.88565177  0.29947409  1
  Zr  Zr11  1  0.49481278  0.09830715  0.49830866  1
  Zr  Zr12  1  0.89218150  0.09866108  0.10158790  1
  Zr  Zr13  1  0.49554488  0.90345419  0.50130534  1
  Zr  Zr14  1  0.49606943  0.89920587  0.30526143  1
  Zr  Zr15  1  0.90440248  0.50918279  0.70247149  1
  Zr  Zr16  1  0.69886648  0.30481831  0.70614230  1
  Zr  Zr17  1  0.28540685  0.09709809  0.90500501  1
  Zr  Zr18  1  0.70520027  0.50270602  0.69954260  1
  Zr  Zr19  1  0.09611327  0.50525309  0.69820000  1
  Zr  Zr20  1  0.49664733  0.89971329  0.10578790  1
  Zr  Zr21  1  0.10159299  0.09956486  0.49967112  1
  Zr  Zr22  1  0.10156887  0.30366106  0.10608108  1
  Zr  Zr23  1  0.50749828  0.30071908  0.29566124  1
  Zr  Zr24  1  0.90242968  0.90059508  0.29871814  1
  Zr  Zr25  1  0.69460169  0.88729744  0.89155145  1
  Zr  Zr26  1  0.70394976  0.69430577  0.30272741  1
  Zr  Zr27  1  0.09758418  0.49723980  0.09821423  1
  Zr  Zr28  1  0.49686429  0.30000497  0.09983282  1
  Zr  Zr29  1  0.30000455  0.09388758  0.49818923  1
  Zr  Zr30  1  0.48966064  0.69795767  0.30054569  1
  Zr  Zr31  1  0.50496032  0.29823883  0.89383692  1
  Zr  Zr32  1  0.70464531  0.70093214  0.90107811  1
  Zr  Zr33  1  0.70101983  0.10452690  0.10158599  1
  Zr  Zr34  1  0.89497126  0.89072460  0.90886550  1
  Zr  Zr35  1  0.89634728  0.30541109  0.49287970  1
  Zr  Zr36  1  0.89467616  0.90009389  0.49266827  1
  Zr  Zr37  1  0.50176131  0.69862017  0.89999951  1
  Zr  Zr38  1  0.49658014  0.70137772  0.50322830  1
  Zr  Zr39  1  0.10182954  0.69695471  0.49482992  1
  Zr  Zr40  1  0.70277316  0.29901740  0.31119879  1
  Zr  Zr41  1  0.09520232  0.10408416  0.30754518  1
  Zr  Zr42  1  0.70399009  0.89680313  0.50122230  1
  Zr  Zr43  1  0.10919672  0.90398901  0.90214261  1
  Zr  Zr44  1  0.09448184  0.29825964  0.29337522  1
  Zr  Zr45  1  0.69753455  0.49881606  0.29496775  1
  Zr  Zr46  1  0.90837884  0.50228026  0.90468443  1
  Zr  Zr47  1  0.09695333  0.90265526  0.69398922  1
  Zr  Zr48  1  0.71051777  0.90174768  0.09973101  1
  Zr  Zr49  1  0.50210261  0.09995873  0.70027622  1
  Sc  Sc50  1  0.09495142  0.30856477  0.48318844  1
  Sc  Sc51  1  0.09820227  0.70251963  0.09767070  1
  Sc  Sc52  1  0.09829719  0.09644047  0.09287561  1
  Sc  Sc53  1  0.30517503  0.89378993  0.09231146  1
  Sc  Sc54  1  0.70221768  0.90350725  0.31140818  1
  Sc  Sc55  1  0.89230964  0.89493070  0.68377326  1
  Sc  Sc56  1  0.31100199  0.49872748  0.70165135  1
  Sc  Sc57  1  0.30020421  0.09925378  0.10309391  1
  Sc  Sc58  1  0.29559535  0.90091822  0.70142862  1
  Sc  Sc59  1  0.30895896  0.50041139  0.89741937  1
  Sc  Sc60  1  0.30296837  0.10379973  0.69776466  1
  Sc  Sc61  1  0.49878090  0.49963021  0.89860223  1
  Sc  Sc62  1  0.49484084  0.68809067  0.69630720  1
  Sc  Sc63  1  0.10804539  0.49070034  0.30110153  1
  Sc  Sc64  1  0.89695182  0.69797268  0.49582152  1
  Sc  Sc65  1  0.90733131  0.29979917  0.10827277  1
  Sc  Sc66  1  0.70485094  0.49544001  0.50015712  1
  Sc  Sc67  1  0.10675670  0.70735235  0.91011113  1
  Sc  Sc68  1  0.49801148  0.50244456  0.51149487  1
  Sc  Sc69  1  0.70213625  0.09939449  0.48677879  1
  Sc  Sc70  1  0.90573155  0.50592484  0.10218967  1
  Sc  Sc71  1  0.70005544  0.68925925  0.09740192  1
  Sc  Sc72  1  0.90068111  0.29547003  0.30061430  1
  Sc  Sc73  1  0.70779567  0.70032360  0.70942289  1
  Sc  Sc74  1  0.69901780  0.50519743  0.90018461  1
  Sc  Sc75  1  0.09679424  0.49611680  0.90189875  1
  Sc  Sc76  1  0.09471592  0.90460674  0.49039170  1
  Sc  Sc77  1  0.69974667  0.11165612  0.90113916  1
  Sc  Sc78  1  0.90590023  0.69626431  0.09474983  1
  Sc  Sc79  1  0.69778938  0.29763986  0.10508792  1
  Sc  Sc80  1  0.89556423  0.69587157  0.90306149  1
  Sc  Sc81  1  0.50665459  0.49415311  0.10590242  1
  Sc  Sc82  1  0.09884313  0.30015638  0.72272282  1
  Sc  Sc83  1  0.49680233  0.49530789  0.70276398  1
  Sc  Sc84  1  0.09973532  0.69838035  0.69273193  1
  Sc  Sc85  1  0.28628794  0.30512679  0.28776699  1
  Sc  Sc86  1  0.49684287  0.69716265  0.09919100  1
  Sc  Sc87  1  0.30190790  0.68787215  0.49091494  1
  Sc  Sc88  1  0.90057396  0.09609013  0.49186435  1
  Sc  Sc89  1  0.30813454  0.49325265  0.09732602  1
  Sc  Sc90  1  0.69580237  0.09733302  0.70633421  1
  Sc  Sc91  1  0.30456188  0.30304507  0.50255814  1
  Sc  Sc92  1  0.10027198  0.50182955  0.49683283  1
  Sc  Sc93  1  0.29696126  0.10231042  0.29892551  1
  Sc  Sc94  1  0.89555558  0.10315401  0.29706921  1
  Sc  Sc95  1  0.49731050  0.10348899  0.11107148  1
  Sc  Sc96  1  0.89139968  0.10677773  0.90122417  1
  Sc  Sc97  1  0.50418504  0.30661547  0.49954206  1
  Sc  Sc98  1  0.30544609  0.69683010  0.69386623  1
  Sc  Sc99  1  0.89690123  0.10149945  0.69963149  1
  Nb  Nb100  1  0.70045863  0.10696160  0.29518272  1
  Nb  Nb101  1  0.90621577  0.30180945  0.89910662  1
  Nb  Nb102  1  0.89906239  0.69763338  0.30059979  1
  Nb  Nb103  1  0.30342152  0.50807781  0.30532935  1
  Nb  Nb104  1  0.09874643  0.10849266  0.88996141  1
  Nb  Nb105  1  0.90424548  0.69780565  0.70446924  1
  Nb  Nb106  1  0.69263794  0.70703591  0.49206486  1
  Nb  Nb107  1  0.29959150  0.90132646  0.49920206  1
  Nb  Nb108  1  0.29163934  0.29643262  0.89193140  1
  Nb  Nb109  1  0.30407966  0.30401144  0.70336342  1
  Nb  Nb110  1  0.70094878  0.29720012  0.49839232  1
  Nb  Nb111  1  0.29923113  0.69355751  0.29478115  1
  Nb  Nb112  1  0.10163761  0.29288579  0.90099328  1
  Nb  Nb113  1  0.69378382  0.89806877  0.70430426  1
  Nb  Nb114  1  0.09087466  0.89562405  0.10100432  1
  Nb  Nb115  1  0.30128877  0.89523016  0.89847861  1
  Nb  Nb116  1  0.29794982  0.69907765  0.09339375  1
  Nb  Nb117  1  0.09510308  0.10496044  0.70221542  1
  Nb  Nb118  1  0.49964973  0.50329427  0.29866637  1
  Nb  Nb119  1  0.29943887  0.70678966  0.90644577  1
  Nb  Nb120  1  0.49144401  0.29847270  0.69779496  1
  Nb  Nb121  1  0.51279937  0.90390314  0.71000787  1
  Nb  Nb122  1  0.88357782  0.51759612  0.30474950  1
  Nb  Nb123  1  0.29766529  0.29486650  0.09581967  1
  Nb  Nb124  1  0.29544189  0.49612424  0.49501960  1
  Nb  Nb125  1  0.80109298  0.79625483  0.20350392  1
  Nb  Nb126  1  -0.00122456  0.80475974  0.79768688  1
  Nb  Nb127  1  0.60350615  0.79860010  0.20609422  1
  Nb  Nb128  1  0.19319305  0.20816299  0.60464450  1
  Nb  Nb129  1  0.59675390  0.60104260  0.39932434  1
  Nb  Nb130  1  0.79758659  0.20641120  0.59664222  1
  Nb  Nb131  1  0.39857549  0.40599038  0.39322520  1
  Nb  Nb132  1  0.19191766  -0.01152458  0.19897994  1
  Nb  Nb133  1  0.20264516  0.38806222  -0.00443947  1
  Nb  Nb134  1  0.20462760  0.60389988  0.80388577  1
  Nb  Nb135  1  0.60079058  0.80447479  0.60434305  1
  Nb  Nb136  1  0.00381315  0.20364444  -0.00647222  1
  Nb  Nb137  1  -0.00243019  -0.00215235  0.80101184  1
  Nb  Nb138  1  0.60084608  -0.00114430  0.00189909  1
  Nb  Nb139  1  0.20469817  0.80377873  0.59019828  1
  Nb  Nb140  1  0.20856615  0.60239419  0.19958404  1
  Nb  Nb141  1  0.80660392  0.39674039  -0.00039062  1
  Nb  Nb142  1  0.39094808  0.20656707  -0.00358674  1
  Nb  Nb143  1  0.40183793  0.20724829  0.39437275  1
  Nb  Nb144  1  0.39922269  0.80355989  0.80488958  1
  Nb  Nb145  1  0.60369668  0.20547926  0.59815930  1
  Nb  Nb146  1  0.79931570  -0.01010764  0.79942159  1
  Nb  Nb147  1  0.00154005  0.20465767  0.60115065  1
  Nb  Nb148  1  0.40157579  -0.00607535  0.80660583  1
  Nb  Nb149  1  0.20207872  0.39485259  0.60596346  1
  Pd  Pd150  1  0.39311009  0.19234005  0.80668038  1
  Pd  Pd151  1  0.20769566  0.59559153  0.60440732  1
  Pd  Pd152  1  0.39814463  -0.00806129  0.61183757  1
  Pd  Pd153  1  0.01002018  0.60005551  0.20650539  1
  Pd  Pd154  1  0.01166091  0.39120481  0.60456115  1
  Pd  Pd155  1  0.00086791  0.00963611  -0.01076237  1
  Pd  Pd156  1  0.79251734  0.01035318  0.60422581  1
  Pd  Pd157  1  0.40402284  0.59674821  0.00324856  1
  Pd  Pd158  1  0.20241128  -0.00768062  0.38956089  1
  Pd  Pd159  1  0.59585070  0.59274683  0.00131502  1
  Pd  Pd160  1  0.19444764  0.18720815  0.19522198  1
  Pd  Pd161  1  0.59696197  0.40399884  0.79949964  1
  Pd  Pd162  1  0.59905534  0.39652761  0.60302721  1
  Pd  Pd163  1  0.20785469  0.21072409  0.40652296  1
  Pd  Pd164  1  0.00477802  0.00853459  0.20275425  1
  Pd  Pd165  1  0.80740333  0.39694498  0.19826553  1
  Pd  Pd166  1  0.40376477  0.00936317  -0.00244512  1
  Pd  Pd167  1  0.60837831  0.00367031  0.59430068  1
  Pd  Pd168  1  0.01197214  0.61435610  0.80978093  1
  Pd  Pd169  1  0.39293846  0.79658795  0.40570754  1
  Pd  Pd170  1  0.00420170  0.79430095  0.59565001  1
  Pd  Pd171  1  0.19876704  -0.00670261  0.01074103  1
  Pd  Pd172  1  0.60259453  0.00236738  0.40045299  1
  Pd  Pd173  1  0.00469192  0.59393253  0.39307148  1
  Pd  Pd174  1  -0.01236942  0.41266670  0.21244877  1
  Pd  Pd175  1  0.40097997  0.20565584  0.59221842  1
  Pd  Pd176  1  0.60386290  0.79996554  0.01472877  1
  Pd  Pd177  1  0.79644553  0.60972382  0.59587956  1
  Pd  Pd178  1  0.38733834  -0.00219790  0.20583190  1
  Pd  Pd179  1  0.20037347  0.41184851  0.80165783  1
  Pd  Pd180  1  0.39661284  0.59833692  0.18857326  1
  Pd  Pd181  1  0.80198603  0.39807952  0.59991856  1
  Pd  Pd182  1  0.60019047  0.59956027  0.79572991  1
  Pd  Pd183  1  -0.01085604  0.41157917  0.38733780  1
  Pd  Pd184  1  0.20202144  0.58867159  -0.00039524  1
  Pd  Pd185  1  0.61002225  0.40076530  -0.00018493  1
  Pd  Pd186  1  0.59414020  0.41124559  0.40500126  1
  Pd  Pd187  1  0.20003184  0.00483197  0.79262970  1
  Pd  Pd188  1  0.39612493  0.39236100  -0.00884955  1
  Pd  Pd189  1  0.20078130  0.79051801  0.78916855  1
  Pd  Pd190  1  0.39526064  0.39814159  0.20601885  1
  Pd  Pd191  1  0.40121850  0.80875360  0.61037526  1
  Pd  Pd192  1  -0.00613196  0.00839582  0.60150207  1
  Pd  Pd193  1  0.60744805  -0.00636544  0.19899717  1
  Pd  Pd194  1  0.79266827  0.78955234  0.60210145  1
  Pd  Pd195  1  0.20215268  0.79756715  0.18853261  1
  Pd  Pd196  1  0.79022500  0.00229007  -0.01315643  1
  Pd  Pd197  1  0.80219345  0.41026027  0.81033440  1
  Pd  Pd198  1  0.20040972  0.00173679  0.60330052  1
  Pd  Pd199  1  0.61011819  0.60764297  0.59868244  1
  Rh  Rh200  1  0.19507546  0.59778665  0.39086710  1
  Rh  Rh201  1  0.80743995  0.79750777  0.39405462  1
  Rh  Rh202  1  0.58890169  0.78239597  0.78826079  1
  Rh  Rh203  1  0.60288815  0.39673052  0.20025157  1
  Rh  Rh204  1  0.20785476  0.39700581  0.40352779  1
  Rh  Rh205  1  0.00242726  0.79861290  -0.00597691  1
  Rh  Rh206  1  0.79653147  -0.00363667  0.20876960  1
  Rh  Rh207  1  0.20751323  0.41285599  0.18962707  1
  Rh  Rh208  1  0.79993622  0.00470222  0.39290045  1
  Rh  Rh209  1  -0.00339330  0.00104647  0.39497236  1
  Rh  Rh210  1  0.59361135  0.19612428  0.40534385  1
  Rh  Rh211  1  -0.00415038  0.60552767  0.59454895  1
  Rh  Rh212  1  0.40486455  0.39469603  0.80241028  1
  Rh  Rh213  1  0.79759396  0.20390830  0.20227620  1
  Rh  Rh214  1  0.80307638  0.40541220  0.39588597  1
  Rh  Rh215  1  -0.00592359  0.79723828  0.40433121  1
  Rh  Rh216  1  0.20730556  0.19632975  0.78900296  1
  Rh  Rh217  1  0.40718418  0.59122413  0.40668967  1
  Rh  Rh218  1  0.39227942  0.00501219  0.39215611  1
  Rh  Rh219  1  -0.00490390  0.19883442  0.40487629  1
  Rh  Rh220  1  0.79873811  0.78965404  0.01197997  1
  Rh  Rh221  1  0.39376166  0.40304848  0.59536192  1
  Rh  Rh222  1  0.60509721  0.20364106  0.20033084  1
  Rh  Rh223  1  0.40068809  0.79486800  -0.00105105  1
  Rh  Rh224  1  0.39370408  0.59057134  0.59553220  1
  Rh  Rh225  1  0.80110030  0.59014138  0.00130247  1
  Rh  Rh226  1  0.59173385  0.79598940  0.40026112  1
  Rh  Rh227  1  0.59477370  0.60627561  0.20700175  1
  Rh  Rh228  1  -0.00913709  0.79057477  0.19911342  1
  Rh  Rh229  1  0.80341781  0.19508172  0.79268886  1
  Rh  Rh230  1  0.19778716  0.80813367  0.00821545  1
  Rh  Rh231  1  0.80236780  0.19694146  0.40129121  1
  Rh  Rh232  1  0.20754169  0.79700402  0.40926895  1
  Rh  Rh233  1  0.40188087  0.79390987  0.19403314  1
  Rh  Rh234  1  0.80308452  0.59723200  0.80305877  1
  Rh  Rh235  1  0.60519008  0.00550711  0.81274203  1
  Rh  Rh236  1  0.00207129  0.39085657  -0.00155982  1
  Rh  Rh237  1  0.81309107  0.80409652  0.79186255  1
  Rh  Rh238  1  0.00348540  0.40471517  0.80252082  1
  Rh  Rh239  1  0.79086706  0.59979328  0.41077462  1
  Rh  Rh240  1  0.00165377  0.19267118  0.19207348  1
  Rh  Rh241  1  0.80652477  0.60825927  0.19313307  1
  Rh  Rh242  1  0.39254590  0.61122728  0.80756061  1
  Rh  Rh243  1  -0.01139282  0.19269946  0.80167931  1
  Rh  Rh244  1  0.19745505  0.20259778  0.00317957  1
  Rh  Rh245  1  0.59958292  0.20440182  0.78773508  1
  Rh  Rh246  1  0.81269382  0.21321889  0.00718267  1
  Rh  Rh247  1  0.00676449  0.60467638  -0.00319332  1
  Rh  Rh248  1  0.39663844  0.20578885  0.20113580  1
  Rh  Rh249  1  0.58879604  0.19436625  0.01103318  1
