# generated using pymatgen
data_ZrScNbPdRh
_symmetry_space_group_name_H-M   'P 1'
_cell_length_a   16.56367645
_cell_length_b   16.56256940
_cell_length_c   16.56294917
_cell_angle_alpha   89.94393696
_cell_angle_beta   89.98484846
_cell_angle_gamma   89.98694325
_symmetry_Int_Tables_number   1
_chemical_formula_structural   ZrScNbPdRh
_chemical_formula_sum   'Zr50 Sc50 Nb50 Pd50 Rh50'
_cell_volume   4543.82800972
_cell_formula_units_Z   50
loop_
 _symmetry_equiv_pos_site_id
 _symmetry_equiv_pos_as_xyz
  1  'x, y, z'
loop_
 _atom_site_type_symbol
 _atom_site_label
 _atom_site_symmetry_multiplicity
 _atom_site_fract_x
 _atom_site_fract_y
 _atom_site_fract_z
 _atom_site_occupancy
  Zr  Zr0  1  0.09709563  0.69486695  0.71096353  1
  Zr  Zr1  1  0.10162103  0.10237592  0.09921321  1
  Zr  Zr2  1  0.50182963  0.29890582  0.10806857  1
  Zr  Zr3  1  0.49939324  0.49824778  0.50790136  1
  Zr  Zr4  1  0.70282720  0.10769618  0.29907699  1
  Zr  Zr5  1  0.90189453  0.29895516  0.30223054  1
  Zr  Zr6  1  0.09230257  0.49239358  0.29913628  1
  Zr  Zr7  1  0.89280160  0.09846618  0.29935307  1
  Zr  Zr8  1  0.50353640  0.70021815  0.89856547  1
  Zr  Zr9  1  0.29301449  0.90476831  0.70533281  1
  Zr  Zr10  1  0.69850424  0.09948707  0.49517044  1
  Zr  Zr11  1  0.51124881  0.69886995  0.70477814  1
  Zr  Zr12  1  0.30112812  0.29681132  0.10590119  1
  Zr  Zr13  1  0.09559573  0.51672844  0.90248463  1
  Zr  Zr14  1  0.29629898  0.70087303  0.10305279  1
  Zr  Zr15  1  0.10073655  0.70131053  0.29285569  1
  Zr  Zr16  1  0.09724360  0.89354325  0.10356431  1
  Zr  Zr17  1  0.69958742  0.29538946  0.50605885  1
  Zr  Zr18  1  0.69551907  0.89885594  0.50818226  1
  Zr  Zr19  1  0.10019943  0.49936403  0.10245938  1
  Zr  Zr20  1  0.29964795  0.70304715  0.30201876  1
  Zr  Zr21  1  0.90112571  0.10193580  0.48961772  1
  Zr  Zr22  1  0.28606669  0.10179155  0.70420304  1
  Zr  Zr23  1  0.90243543  0.50227788  0.09662678  1
  Zr  Zr24  1  0.49808028  0.70425282  0.29945350  1
  Zr  Zr25  1  0.09885651  0.70119963  0.51267754  1
  Zr  Zr26  1  0.29963005  0.49979048  0.09342478  1
  Zr  Zr27  1  0.49838637  0.90720833  0.29924259  1
  Zr  Zr28  1  0.50048392  0.10321132  0.89518153  1
  Zr  Zr29  1  0.50086892  0.29476390  0.70012130  1
  Zr  Zr30  1  0.89909054  0.29947471  0.49907655  1
  Zr  Zr31  1  0.49751677  0.10257433  0.50122242  1
  Zr  Zr32  1  0.51546068  0.48809259  0.30508592  1
  Zr  Zr33  1  0.90312730  0.70081268  0.29536391  1
  Zr  Zr34  1  0.89201356  0.89584380  0.70054604  1
  Zr  Zr35  1  0.69020856  0.49821200  0.49347588  1
  Zr  Zr36  1  0.49871681  0.09633938  0.70466283  1
  Zr  Zr37  1  0.50449004  0.70020002  0.09249586  1
  Zr  Zr38  1  0.70905250  0.68631069  0.29971069  1
  Zr  Zr39  1  0.71880472  0.29916772  0.89841672  1
  Zr  Zr40  1  0.49692335  0.49749171  0.09477953  1
  Zr  Zr41  1  0.10169276  0.29976960  0.10378706  1
  Zr  Zr42  1  0.89987808  0.10240905  0.90073268  1
  Zr  Zr43  1  0.49385699  0.29125707  0.30002962  1
  Zr  Zr44  1  0.69865376  0.51086471  0.69877604  1
  Zr  Zr45  1  0.29810518  0.10205949  0.08431777  1
  Zr  Zr46  1  0.29553456  0.48666074  0.50403389  1
  Zr  Zr47  1  0.50832938  0.09704001  0.30402567  1
  Zr  Zr48  1  0.89969974  0.50772960  0.29582349  1
  Zr  Zr49  1  0.68189345  0.30231394  0.29096524  1
  Sc  Sc50  1  0.49480559  0.50952767  0.89573634  1
  Sc  Sc51  1  0.90747702  0.69710980  0.50474695  1
  Sc  Sc52  1  0.29110441  0.90361600  0.49538202  1
  Sc  Sc53  1  0.10268657  0.29331872  0.70271514  1
  Sc  Sc54  1  0.30114633  0.89615911  0.30223298  1
  Sc  Sc55  1  0.90913236  0.89546526  0.50105377  1
  Sc  Sc56  1  0.50679948  0.90683788  0.89113044  1
  Sc  Sc57  1  0.09936601  0.90263005  0.50253382  1
  Sc  Sc58  1  0.49587752  0.29819170  0.89320888  1
  Sc  Sc59  1  0.29730548  0.90160760  0.09654085  1
  Sc  Sc60  1  0.89614764  0.29916040  0.69736540  1
  Sc  Sc61  1  0.69878252  0.69393437  0.50488507  1
  Sc  Sc62  1  0.49594516  0.29949868  0.50455191  1
  Sc  Sc63  1  0.68803303  0.10405258  0.69833826  1
  Sc  Sc64  1  0.28490445  0.70178015  0.69948285  1
  Sc  Sc65  1  0.29266090  0.90699907  0.90130388  1
  Sc  Sc66  1  0.89819334  0.29863803  0.08932161  1
  Sc  Sc67  1  0.08683335  0.10006522  0.30187379  1
  Sc  Sc68  1  0.09671315  0.89853944  0.30049408  1
  Sc  Sc69  1  0.91209317  0.49710660  0.50325754  1
  Sc  Sc70  1  0.90980042  0.90531685  0.29217546  1
  Sc  Sc71  1  0.30769235  0.50400728  0.89710435  1
  Sc  Sc72  1  0.70698980  0.10188034  0.89256549  1
  Sc  Sc73  1  0.08934853  0.29071576  0.90287420  1
  Sc  Sc74  1  0.28978451  0.69634288  0.89748446  1
  Sc  Sc75  1  0.71421328  0.10338876  0.10551027  1
  Sc  Sc76  1  0.10125040  0.30332528  0.29620335  1
  Sc  Sc77  1  0.90958021  0.70049020  0.89777418  1
  Sc  Sc78  1  0.89878821  0.09670810  0.10713147  1
  Sc  Sc79  1  0.88934409  0.89864320  0.89946749  1
  Sc  Sc80  1  0.09774845  0.89815581  0.69886535  1
  Sc  Sc81  1  0.29135305  0.48668235  0.29886420  1
  Sc  Sc82  1  0.50546513  0.90590671  0.49936357  1
  Sc  Sc83  1  0.89119117  0.50304433  0.90378268  1
  Sc  Sc84  1  0.30768944  0.29459357  0.89872583  1
  Sc  Sc85  1  0.09883001  0.10137504  0.89148714  1
  Sc  Sc86  1  0.69661759  0.70336830  0.90608747  1
  Sc  Sc87  1  0.30996224  0.09328114  0.31201112  1
  Sc  Sc88  1  0.71040809  0.50716338  0.08836434  1
  Sc  Sc89  1  0.30498676  0.50166427  0.69973988  1
  Sc  Sc90  1  0.50230873  0.90352253  0.10031457  1
  Sc  Sc91  1  0.10282065  0.70442538  0.09081714  1
  Sc  Sc92  1  0.29752247  0.70363663  0.50448888  1
  Sc  Sc93  1  0.50134243  0.69868336  0.50032829  1
  Sc  Sc94  1  0.70316191  0.91807251  0.29687534  1
  Sc  Sc95  1  0.91225154  0.09242075  0.70901468  1
  Sc  Sc96  1  0.90075572  0.50886285  0.70007932  1
  Sc  Sc97  1  0.49349219  0.10055085  0.10310923  1
  Sc  Sc98  1  0.70031467  0.29943225  0.69536473  1
  Sc  Sc99  1  0.89774539  0.69869342  0.69758114  1
  Nb  Nb100  1  0.30073977  0.30446248  0.69815280  1
  Nb  Nb101  1  0.50576660  0.90218627  0.69870675  1
  Nb  Nb102  1  0.69687412  0.71177160  0.70027494  1
  Nb  Nb103  1  0.70077513  0.49847434  0.30106406  1
  Nb  Nb104  1  0.68957179  0.89426284  0.70230911  1
  Nb  Nb105  1  0.29763663  0.09931049  0.50915400  1
  Nb  Nb106  1  0.50354782  0.49884025  0.70683507  1
  Nb  Nb107  1  0.29524798  0.29854917  0.30753495  1
  Nb  Nb108  1  0.10231508  0.31123317  0.50128194  1
  Nb  Nb109  1  0.09892851  0.09719258  0.69583157  1
  Nb  Nb110  1  0.71446322  0.89326031  0.08496759  1
  Nb  Nb111  1  0.10286629  0.70524054  0.89879758  1
  Nb  Nb112  1  0.10175585  0.49081318  0.50409295  1
  Nb  Nb113  1  0.10167217  0.49811718  0.70102548  1
  Nb  Nb114  1  0.30623393  0.09467291  0.89880116  1
  Nb  Nb115  1  0.90198439  0.29886549  0.89327594  1
  Nb  Nb116  1  0.29658444  0.29870543  0.50554315  1
  Nb  Nb117  1  0.70017228  0.90263920  0.90284029  1
  Nb  Nb118  1  0.70073787  0.29951347  0.09874374  1
  Nb  Nb119  1  0.88132103  0.70803968  0.10300127  1
  Nb  Nb120  1  0.09441521  0.87753957  0.91159764  1
  Nb  Nb121  1  0.10616546  0.09764386  0.50596232  1
  Nb  Nb122  1  0.70141512  0.70671950  0.09927399  1
  Nb  Nb123  1  0.70377415  0.49696148  0.89751826  1
  Nb  Nb124  1  0.89845315  0.89800024  0.09630131  1
  Nb  Nb125  1  0.79489994  0.40213161  0.39455967  1
  Nb  Nb126  1  0.40440621  0.59612611  0.20564363  1
  Nb  Nb127  1  0.19828166  0.00437413  0.19759582  1
  Nb  Nb128  1  0.60303653  0.60129276  0.19667246  1
  Nb  Nb129  1  0.39620874  0.00082222  0.60474891  1
  Nb  Nb130  1  0.00163338  0.40212380  0.80181301  1
  Nb  Nb131  1  0.39485820  0.59328144  0.39750480  1
  Nb  Nb132  1  0.19732267  0.39931226  -0.00525662  1
  Nb  Nb133  1  0.19602000  0.40098825  0.80269664  1
  Nb  Nb134  1  0.61109019  0.79884481  0.19702624  1
  Nb  Nb135  1  0.20202010  0.20220393  0.41234216  1
  Nb  Nb136  1  0.61107601  0.00305727  -0.00143074  1
  Nb  Nb137  1  0.79785516  0.79825376  0.39758596  1
  Nb  Nb138  1  0.40099042  0.80360038  0.79687735  1
  Nb  Nb139  1  -0.00122119  -0.00833003  0.00110427  1
  Nb  Nb140  1  0.79561362  0.40146557  0.20072890  1
  Nb  Nb141  1  0.60406321  0.40648802  0.80206242  1
  Nb  Nb142  1  0.60605226  0.39627952  -0.00654916  1
  Nb  Nb143  1  0.79683411  -0.00332004  0.60268474  1
  Nb  Nb144  1  0.60583628  0.20266514  0.00122459  1
  Nb  Nb145  1  0.40340093  0.80829635  0.60986108  1
  Nb  Nb146  1  0.00979294  0.19490481  0.59491432  1
  Nb  Nb147  1  0.60787372  0.80039492  0.39132199  1
  Nb  Nb148  1  0.40231910  0.79902592  -0.00824712  1
  Nb  Nb149  1  0.19613505  0.59358666  0.40454596  1
  Pd  Pd150  1  0.19367343  0.00665650  0.39198758  1
  Pd  Pd151  1  0.19937682  0.59389517  0.59787446  1
  Pd  Pd152  1  0.80854221  0.59722768  0.41314614  1
  Pd  Pd153  1  0.20405399  0.59518157  0.20697379  1
  Pd  Pd154  1  -0.00166528  0.79974925  0.39970876  1
  Pd  Pd155  1  0.00253716  0.40032144  -0.00890424  1
  Pd  Pd156  1  0.40481364  0.80350523  0.41418628  1
  Pd  Pd157  1  -0.00587426  0.61345074  0.00714139  1
  Pd  Pd158  1  0.40175400  0.39304976  -0.00762821  1
  Pd  Pd159  1  0.39106544  0.18962734  0.20470353  1
  Pd  Pd160  1  0.00144974  0.39244227  0.61185158  1
  Pd  Pd161  1  0.20108549  0.20595412  0.80778132  1
  Pd  Pd162  1  0.18486245  -0.00719162  0.81046411  1
  Pd  Pd163  1  0.39620037  0.40293458  0.20735486  1
  Pd  Pd164  1  0.39352916  0.20078282  0.40635858  1
  Pd  Pd165  1  0.19576183  0.20671198  0.59878606  1
  Pd  Pd166  1  0.38862814  0.00271979  0.19709318  1
  Pd  Pd167  1  -0.00304583  0.80334605  0.79609932  1
  Pd  Pd168  1  0.79134466  0.00260303  0.78942860  1
  Pd  Pd169  1  0.80421325  0.40479546  0.79010255  1
  Pd  Pd170  1  0.59896951  0.60285917  0.60012764  1
  Pd  Pd171  1  0.18749691  -0.00225368  -0.00408206  1
  Pd  Pd172  1  0.80403068  0.19253495  0.78741969  1
  Pd  Pd173  1  -0.00618274  0.00313226  0.59666614  1
  Pd  Pd174  1  0.01356110  0.20496920  0.40648366  1
  Pd  Pd175  1  0.20180254  0.20574531  -0.01202622  1
  Pd  Pd176  1  -0.00626995  0.20347925  0.19654543  1
  Pd  Pd177  1  0.79644485  0.61137467  0.80555036  1
  Pd  Pd178  1  0.61112428  -0.00108309  0.18499411  1
  Pd  Pd179  1  0.81124906  0.18352054  0.60883690  1
  Pd  Pd180  1  0.40985761  -0.00693123  -0.00594609  1
  Pd  Pd181  1  0.79513640  0.79273849  0.80623824  1
  Pd  Pd182  1  0.39163026  0.19738150  0.79520013  1
  Pd  Pd183  1  0.20767790  0.18875545  0.21666706  1
  Pd  Pd184  1  0.80604203  -0.01248153  0.40707298  1
  Pd  Pd185  1  0.79660402  0.81237022  0.21046976  1
  Pd  Pd186  1  0.40362163  0.39821083  0.60777537  1
  Pd  Pd187  1  0.80116655  0.59857514  0.59336701  1
  Pd  Pd188  1  0.39330551  0.61127626  0.79098741  1
  Pd  Pd189  1  0.79933812  0.41020007  0.59558234  1
  Pd  Pd190  1  0.40140068  0.40022940  0.39937174  1
  Pd  Pd191  1  0.39812794  0.60910924  0.60085162  1
  Pd  Pd192  1  0.60532295  0.59194936  -0.00287474  1
  Pd  Pd193  1  0.00908597  0.59933009  0.40629880  1
  Pd  Pd194  1  0.80177642  0.80024722  0.59331528  1
  Pd  Pd195  1  0.00133661  0.61083480  0.18697706  1
  Pd  Pd196  1  0.00674248  -0.01387753  0.81164060  1
  Pd  Pd197  1  -0.00552518  0.19186207  0.00321015  1
  Pd  Pd198  1  0.19288631  0.79432937  0.40277067  1
  Pd  Pd199  1  0.40382489  0.80150451  0.18967133  1
  Rh  Rh200  1  -0.00308053  0.20633442  0.78940748  1
  Rh  Rh201  1  0.39253532  0.61134856  0.00386506  1
  Rh  Rh202  1  0.20227352  0.80673277  0.59994497  1
  Rh  Rh203  1  0.61190942  0.41412478  0.18010280  1
  Rh  Rh204  1  -0.01117352  0.79730042  0.00543058  1
  Rh  Rh205  1  0.80316180  0.00483545  0.00073811  1
  Rh  Rh206  1  0.19972949  0.81128111  0.20343639  1
  Rh  Rh207  1  0.60067899  0.38723856  0.40921513  1
  Rh  Rh208  1  0.39994504  -0.00487766  0.41168182  1
  Rh  Rh209  1  0.40758484  0.19986041  -0.00117835  1
  Rh  Rh210  1  0.00310399  -0.00037287  0.40270952  1
  Rh  Rh211  1  0.80190607  -0.00500141  0.19487649  1
  Rh  Rh212  1  0.59891190  0.20335479  0.40439258  1
  Rh  Rh213  1  0.59599489  0.81488183  0.00175558  1
  Rh  Rh214  1  0.79731759  0.59270291  0.19091711  1
  Rh  Rh215  1  0.59502059  0.19921272  0.59743801  1
  Rh  Rh216  1  0.19901965  0.39805223  0.61317648  1
  Rh  Rh217  1  0.60891485  0.59735885  0.80437488  1
  Rh  Rh218  1  0.80204761  0.60957302  -0.00563177  1
  Rh  Rh219  1  0.20216977  0.39731509  0.19290130  1
  Rh  Rh220  1  0.60056700  0.80337355  0.80544206  1
  Rh  Rh221  1  0.80343463  0.19672937  -0.00027859  1
  Rh  Rh222  1  -0.00440668  0.40005327  0.39836730  1
  Rh  Rh223  1  0.20182665  0.59779418  -0.00244403  1
  Rh  Rh224  1  -0.00269173  0.59655798  0.79844231  1
  Rh  Rh225  1  0.59396043  0.79550035  0.59353979  1
  Rh  Rh226  1  0.20109911  0.59197012  0.80151240  1
  Rh  Rh227  1  0.60907536  -0.00131890  0.80400784  1
  Rh  Rh228  1  0.80177757  0.39674265  0.00382050  1
  Rh  Rh229  1  0.39800171  -0.00142115  0.79636679  1
  Rh  Rh230  1  0.19609358  0.39583617  0.39918392  1
  Rh  Rh231  1  0.80364213  0.21137589  0.20241786  1
  Rh  Rh232  1  -0.00177274  0.79418321  0.19281302  1
  Rh  Rh233  1  0.00374809  -0.00025112  0.19246610  1
  Rh  Rh234  1  0.20035054  0.80406382  0.80477995  1
  Rh  Rh235  1  0.59840448  0.18858829  0.19043649  1
  Rh  Rh236  1  0.20121555  -0.00531765  0.60032816  1
  Rh  Rh237  1  0.39496337  0.19435682  0.60694390  1
  Rh  Rh238  1  0.60006554  -0.00158963  0.40059164  1
  Rh  Rh239  1  0.21147279  0.79808592  -0.00230523  1
  Rh  Rh240  1  0.59771570  0.40050795  0.61011259  1
  Rh  Rh241  1  0.78885918  0.21379301  0.39160730  1
  Rh  Rh242  1  0.80582044  0.79322567  -0.01068306  1
  Rh  Rh243  1  0.00170763  0.79807021  0.60820517  1
  Rh  Rh244  1  0.58994617  0.60638972  0.39440913  1
  Rh  Rh245  1  -0.01057940  0.39471299  0.19652436  1
  Rh  Rh246  1  0.40130478  0.40104711  0.79511985  1
  Rh  Rh247  1  0.59973462  0.00492576  0.60246958  1
  Rh  Rh248  1  0.00607812  0.59752684  0.60502865  1
  Rh  Rh249  1  0.60712935  0.21386927  0.80867285  1
