# generated using pymatgen
data_ZrScNbPdRh
_symmetry_space_group_name_H-M   'P 1'
_cell_length_a   16.56794194
_cell_length_b   16.55847547
_cell_length_c   16.56140064
_cell_angle_alpha   89.95698931
_cell_angle_beta   90.00440835
_cell_angle_gamma   90.00621768
_symmetry_Int_Tables_number   1
_chemical_formula_structural   ZrScNbPdRh
_chemical_formula_sum   'Zr50 Sc50 Nb50 Pd50 Rh50'
_cell_volume   4543.45101830
_cell_formula_units_Z   50
loop_
 _symmetry_equiv_pos_site_id
 _symmetry_equiv_pos_as_xyz
  1  'x, y, z'
loop_
 _atom_site_type_symbol
 _atom_site_label
 _atom_site_symmetry_multiplicity
 _atom_site_fract_x
 _atom_site_fract_y
 _atom_site_fract_z
 _atom_site_occupancy
  Zr  Zr0  1  0.09596326  0.10965359  0.70113791  1
  Zr  Zr1  1  0.69632849  0.90348014  0.10429154  1
  Zr  Zr2  1  0.50335392  0.49425077  0.70567211  1
  Zr  Zr3  1  0.10082600  0.28793295  0.30664545  1
  Zr  Zr4  1  0.09348384  0.09937801  0.10175835  1
  Zr  Zr5  1  0.89125745  0.89860784  0.29738923  1
  Zr  Zr6  1  0.09907348  0.10966330  0.49484517  1
  Zr  Zr7  1  0.29998327  0.70061461  0.70213126  1
  Zr  Zr8  1  0.10363462  0.89817195  0.49633454  1
  Zr  Zr9  1  0.29191143  0.69455620  0.09749058  1
  Zr  Zr10  1  0.10624726  0.50889211  0.09932593  1
  Zr  Zr11  1  0.09578986  0.90563480  0.09870626  1
  Zr  Zr12  1  0.49387254  0.70132305  0.10439036  1
  Zr  Zr13  1  0.90024114  0.50038436  0.71460593  1
  Zr  Zr14  1  0.70060617  0.69579294  0.50748714  1
  Zr  Zr15  1  0.50467794  0.91305377  0.69558215  1
  Zr  Zr16  1  0.90050572  0.68802019  0.90337027  1
  Zr  Zr17  1  0.30335389  0.90621529  0.49509532  1
  Zr  Zr18  1  0.90378367  0.90279200  0.89875044  1
  Zr  Zr19  1  0.29532167  0.89438596  0.70201058  1
  Zr  Zr20  1  0.50498282  0.30359545  0.89198465  1
  Zr  Zr21  1  0.70867922  0.50138040  0.30361577  1
  Zr  Zr22  1  0.70246708  0.89592530  0.70635580  1
  Zr  Zr23  1  0.09405900  0.70203655  0.50463354  1
  Zr  Zr24  1  0.70170771  0.50465708  0.70145198  1
  Zr  Zr25  1  0.69961335  0.28506079  0.69796238  1
  Zr  Zr26  1  0.50161437  0.70297737  0.49777953  1
  Zr  Zr27  1  0.70408120  0.09693664  0.89613998  1
  Zr  Zr28  1  0.69911541  0.09469727  0.70031763  1
  Zr  Zr29  1  0.49633611  0.29736916  0.49863385  1
  Zr  Zr30  1  0.51364902  0.49358880  0.89845114  1
  Zr  Zr31  1  0.70747495  0.89967555  0.29648456  1
  Zr  Zr32  1  0.50317481  0.50192982  0.09880089  1
  Zr  Zr33  1  0.89608504  0.89797289  0.49739468  1
  Zr  Zr34  1  0.30402499  0.29820733  0.90097886  1
  Zr  Zr35  1  0.09489939  0.29301547  0.89301022  1
  Zr  Zr36  1  0.29938904  0.09724004  0.90514291  1
  Zr  Zr37  1  0.09699759  0.69962916  0.91465161  1
  Zr  Zr38  1  0.29728500  0.50185488  0.10162275  1
  Zr  Zr39  1  0.29135202  0.90570928  0.29784275  1
  Zr  Zr40  1  0.89993600  0.70249355  0.70206730  1
  Zr  Zr41  1  0.89899269  0.89821660  0.70475994  1
  Zr  Zr42  1  0.70417222  0.10037957  0.28429890  1
  Zr  Zr43  1  0.30209418  0.10110523  0.49888583  1
  Zr  Zr44  1  0.89494310  0.70412007  0.50009359  1
  Zr  Zr45  1  0.89017883  0.29825388  0.49973735  1
  Zr  Zr46  1  0.10148975  0.70296427  0.69694934  1
  Zr  Zr47  1  0.50609289  0.11111143  0.69911954  1
  Zr  Zr48  1  0.70621349  0.49829106  0.50081915  1
  Zr  Zr49  1  0.10028787  0.30235370  0.49857042  1
  Sc  Sc50  1  0.69335992  0.70754846  0.10991800  1
  Sc  Sc51  1  0.69164461  0.89379549  0.89531141  1
  Sc  Sc52  1  0.70695813  0.29340355  0.10670501  1
  Sc  Sc53  1  0.50279927  0.70029502  0.29814988  1
  Sc  Sc54  1  0.50215932  0.90256563  0.49851263  1
  Sc  Sc55  1  0.29837413  0.70291653  0.29016018  1
  Sc  Sc56  1  0.30069112  0.50404345  0.29978186  1
  Sc  Sc57  1  0.88929433  0.50048951  0.49936785  1
  Sc  Sc58  1  0.50156675  0.90056683  0.09858247  1
  Sc  Sc59  1  0.90041922  0.10583666  0.09869969  1
  Sc  Sc60  1  0.90107453  0.10068027  0.50250464  1
  Sc  Sc61  1  0.29780385  0.30065455  0.49235455  1
  Sc  Sc62  1  0.09256279  0.50314209  0.89732190  1
  Sc  Sc63  1  0.49179403  0.50383081  0.49788971  1
  Sc  Sc64  1  0.89986038  0.09763430  0.70886269  1
  Sc  Sc65  1  0.30271066  0.90037385  0.90713528  1
  Sc  Sc66  1  0.29262692  0.69863250  0.50863291  1
  Sc  Sc67  1  0.30127920  0.49539866  0.49703388  1
  Sc  Sc68  1  0.49106177  0.29748799  0.29804811  1
  Sc  Sc69  1  0.30949495  0.50472373  0.69272304  1
  Sc  Sc70  1  0.49370700  0.50872200  0.30411755  1
  Sc  Sc71  1  0.09931487  0.90627991  0.90886394  1
  Sc  Sc72  1  0.49105466  0.09418323  0.89911201  1
  Sc  Sc73  1  0.89555052  0.09486746  0.29465595  1
  Sc  Sc74  1  0.09504936  0.09880203  0.90486049  1
  Sc  Sc75  1  0.09333252  0.49015984  0.29099695  1
  Sc  Sc76  1  0.90734316  0.50681142  0.10482504  1
  Sc  Sc77  1  0.69854137  0.89530213  0.50168274  1
  Sc  Sc78  1  0.31581951  0.09687471  0.10213867  1
  Sc  Sc79  1  0.70058436  0.30128536  0.89551417  1
  Sc  Sc80  1  0.89859877  0.29951761  0.71226411  1
  Sc  Sc81  1  0.50090327  0.70365469  0.90013767  1
  Sc  Sc82  1  0.10115629  0.30250126  0.11186009  1
  Sc  Sc83  1  0.50159786  0.29955236  0.09266677  1
  Sc  Sc84  1  0.30545063  0.29824525  0.69432080  1
  Sc  Sc85  1  0.30118524  0.29203177  0.29969174  1
  Sc  Sc86  1  0.70972769  0.10646251  0.50456421  1
  Sc  Sc87  1  0.50153334  0.68683722  0.70251615  1
  Sc  Sc88  1  0.30152657  0.49910658  0.90935675  1
  Sc  Sc89  1  0.49100519  0.89372668  0.30199468  1
  Sc  Sc90  1  0.90590323  0.10787264  0.90140117  1
  Sc  Sc91  1  0.09448168  0.50694997  0.69621349  1
  Sc  Sc92  1  0.49188360  0.10221170  0.28124875  1
  Sc  Sc93  1  0.49910998  0.09448369  0.51235359  1
  Sc  Sc94  1  0.09132001  0.89650078  0.70148966  1
  Sc  Sc95  1  0.29897377  0.09796309  0.29793483  1
  Sc  Sc96  1  0.31371526  0.10541260  0.70049156  1
  Sc  Sc97  1  0.30627306  0.70911403  0.90292005  1
  Sc  Sc98  1  0.89335163  0.30457776  0.29262920  1
  Sc  Sc99  1  0.70562681  0.49979465  0.89374390  1
  Nb  Nb100  1  0.49759644  0.89809949  0.90606884  1
  Nb  Nb101  1  0.50575014  0.29729269  0.70020568  1
  Nb  Nb102  1  0.69912048  0.49848080  0.09863552  1
  Nb  Nb103  1  0.09817411  0.70262453  0.29602265  1
  Nb  Nb104  1  0.90600084  0.70124341  0.09890040  1
  Nb  Nb105  1  0.10186957  0.90367364  0.29682639  1
  Nb  Nb106  1  0.70494235  0.70351850  0.30163900  1
  Nb  Nb107  1  0.89848258  0.50825672  0.30071803  1
  Nb  Nb108  1  0.10077455  0.30487864  0.69962109  1
  Nb  Nb109  1  0.89790666  0.89765431  0.10029105  1
  Nb  Nb110  1  0.09221488  0.69486641  0.10329588  1
  Nb  Nb111  1  0.70207353  0.69895472  0.89935109  1
  Nb  Nb112  1  0.50838679  0.09459957  0.09561541  1
  Nb  Nb113  1  0.70050934  0.30021136  0.30121601  1
  Nb  Nb114  1  0.09949960  0.09093625  0.29716550  1
  Nb  Nb115  1  0.90107664  0.30369891  0.90233958  1
  Nb  Nb116  1  0.90085295  0.29872262  0.09093671  1
  Nb  Nb117  1  0.29950177  0.30348262  0.09790720  1
  Nb  Nb118  1  0.09465699  0.49918371  0.49450952  1
  Nb  Nb119  1  0.70263103  0.29954133  0.49748758  1
  Nb  Nb120  1  0.70387001  0.70037347  0.70755200  1
  Nb  Nb121  1  0.89739171  0.70317179  0.29862418  1
  Nb  Nb122  1  0.30037253  0.90168024  0.09635649  1
  Nb  Nb123  1  0.69282181  0.09487775  0.09842313  1
  Nb  Nb124  1  0.89874854  0.49472670  0.89874994  1
  Nb  Nb125  1  0.18478632  0.60079304  0.39851232  1
  Nb  Nb126  1  0.40062173  0.40085080  0.19358822  1
  Nb  Nb127  1  0.60264514  0.39351198  0.59620116  1
  Nb  Nb128  1  0.80659910  0.40177648  0.00175177  1
  Nb  Nb129  1  0.20088571  0.60158741  0.80089409  1
  Nb  Nb130  1  0.19779355  0.40184868  0.79505308  1
  Nb  Nb131  1  0.60455892  0.20012024  0.39532040  1
  Nb  Nb132  1  0.00107860  0.79871437  0.19956627  1
  Nb  Nb133  1  -0.00099670  0.60216379  0.39376372  1
  Nb  Nb134  1  0.60448882  0.39373649  0.39896452  1
  Nb  Nb135  1  0.80097450  -0.00531006  0.60602367  1
  Nb  Nb136  1  0.60168220  0.19195935  0.00139019  1
  Nb  Nb137  1  0.00158936  0.39788547  0.59841194  1
  Nb  Nb138  1  0.20402215  0.20366604  0.00590996  1
  Nb  Nb139  1  0.79678246  -0.00469495  0.00295116  1
  Nb  Nb140  1  0.19810808  0.00446671  0.60336019  1
  Nb  Nb141  1  0.60223879  0.40117114  0.20482693  1
  Nb  Nb142  1  0.60550359  0.00922733  0.39418150  1
  Nb  Nb143  1  -0.00492262  0.39762984  -0.00125716  1
  Nb  Nb144  1  0.80224300  0.60535421  0.20204435  1
  Nb  Nb145  1  0.00541263  -0.00337119  0.39247731  1
  Nb  Nb146  1  0.19959303  0.00293789  0.79574303  1
  Nb  Nb147  1  0.60684297  0.60031678  0.00116191  1
  Nb  Nb148  1  0.40180008  0.80072544  0.60277270  1
  Nb  Nb149  1  0.80207857  0.79823011  0.00236366  1
  Pd  Pd150  1  0.80117297  0.40564857  0.19309906  1
  Pd  Pd151  1  0.20562325  0.19928183  0.80268772  1
  Pd  Pd152  1  0.60189285  0.59594785  0.39988843  1
  Pd  Pd153  1  -0.00708746  0.20202724  0.20513121  1
  Pd  Pd154  1  0.39558165  -0.00374862  0.79988161  1
  Pd  Pd155  1  0.41083873  0.80509782  0.79458613  1
  Pd  Pd156  1  -0.00001389  0.80243316  0.39188757  1
  Pd  Pd157  1  -0.00058153  -0.00204618  0.59364512  1
  Pd  Pd158  1  0.40538080  0.39637041  0.59850519  1
  Pd  Pd159  1  0.58958406  -0.00935320  0.20908984  1
  Pd  Pd160  1  0.80187903  0.39618137  0.61106223  1
  Pd  Pd161  1  0.60621297  0.59718936  0.20012984  1
  Pd  Pd162  1  0.39080759  0.40090860  0.79653556  1
  Pd  Pd163  1  0.79266504  0.19972021  -0.00136105  1
  Pd  Pd164  1  0.20112345  0.59000224  0.59844866  1
  Pd  Pd165  1  0.38570225  0.61020961  0.40148016  1
  Pd  Pd166  1  0.59097694  0.79414714  0.79457142  1
  Pd  Pd167  1  0.60496008  0.80648578  0.39456216  1
  Pd  Pd168  1  0.40365867  0.40144023  0.00339442  1
  Pd  Pd169  1  0.19184841  0.80204876  0.81187452  1
  Pd  Pd170  1  0.41222504  0.00881258  0.39403467  1
  Pd  Pd171  1  0.19343094  0.80093216  0.19078579  1
  Pd  Pd172  1  -0.00528334  0.39772162  0.19475768  1
  Pd  Pd173  1  0.40485484  0.19956538  0.00229451  1
  Pd  Pd174  1  0.79513026  0.59980484  0.00914319  1
  Pd  Pd175  1  0.19993273  0.80220210  0.00482527  1
  Pd  Pd176  1  0.20624569  0.19149143  0.19522819  1
  Pd  Pd177  1  0.00505075  0.79623437  0.80846106  1
  Pd  Pd178  1  0.59612979  0.59174328  0.59886624  1
  Pd  Pd179  1  0.80069506  0.19502900  0.39218361  1
  Pd  Pd180  1  -0.01176423  0.19299596  0.39038443  1
  Pd  Pd181  1  -0.01151726  0.40401518  0.40298514  1
  Pd  Pd182  1  -0.01104252  0.59181726  0.59342686  1
  Pd  Pd183  1  0.18788900  0.39408738  -0.00832715  1
  Pd  Pd184  1  0.20604001  0.19905058  0.60036059  1
  Pd  Pd185  1  -0.00872246  0.21010403  0.60654056  1
  Pd  Pd186  1  0.59408213  0.00172248  0.80831636  1
  Pd  Pd187  1  0.59501406  0.20878873  0.19677021  1
  Pd  Pd188  1  0.39007329  0.79209619  0.40424301  1
  Pd  Pd189  1  0.60266183  0.79355368  0.00125127  1
  Pd  Pd190  1  0.40844746  0.60054064  -0.00694195  1
  Pd  Pd191  1  0.20652959  0.00668345  0.18988413  1
  Pd  Pd192  1  0.59398082  0.79726930  0.60809998  1
  Pd  Pd193  1  0.40727130  0.19031195  0.39881315  1
  Pd  Pd194  1  0.19538410  0.40719553  0.60432820  1
  Pd  Pd195  1  0.39542800  0.80390716  0.19614106  1
  Pd  Pd196  1  0.20597945  0.79138329  0.39904438  1
  Pd  Pd197  1  0.20283116  0.40544678  0.39171943  1
  Pd  Pd198  1  0.20728281  0.39773407  0.20955670  1
  Pd  Pd199  1  0.39465372  0.59519866  0.81065335  1
  Rh  Rh200  1  0.80090622  0.00254357  0.41182712  1
  Rh  Rh201  1  0.40419357  -0.00814042  0.00400776  1
  Rh  Rh202  1  -0.01216643  0.00321338  0.00194468  1
  Rh  Rh203  1  0.59545961  0.80406907  0.20792141  1
  Rh  Rh204  1  -0.00384045  0.20022348  0.79782788  1
  Rh  Rh205  1  0.01037989  0.20872073  0.00572692  1
  Rh  Rh206  1  0.40487045  0.20437286  0.79984906  1
  Rh  Rh207  1  0.59603605  0.19408644  0.81231047  1
  Rh  Rh208  1  0.80277621  0.79509352  0.81034003  1
  Rh  Rh209  1  0.20247262  0.00824736  0.00195512  1
  Rh  Rh210  1  -0.00647040  -0.00699349  0.20417048  1
  Rh  Rh211  1  0.40400076  0.60738362  0.59247800  1
  Rh  Rh212  1  0.19721157  0.60028154  0.20747122  1
  Rh  Rh213  1  0.39907065  -0.00878101  0.19665386  1
  Rh  Rh214  1  0.59854942  0.20397115  0.58825027  1
  Rh  Rh215  1  0.79486017  0.39470299  0.80335232  1
  Rh  Rh216  1  0.61097046  0.39483249  0.78605067  1
  Rh  Rh217  1  0.00880165  0.00405384  0.80379410  1
  Rh  Rh218  1  0.00767019  0.60630607  0.80233955  1
  Rh  Rh219  1  0.20159989  0.60202858  -0.00712342  1
  Rh  Rh220  1  0.80363306  0.19984159  0.80333489  1
  Rh  Rh221  1  0.39649102  0.59702809  0.20017547  1
  Rh  Rh222  1  -0.00378120  0.60619965  0.20636011  1
  Rh  Rh223  1  0.79050016  0.79472716  0.40492356  1
  Rh  Rh224  1  0.60528129  0.60431616  0.80939498  1
  Rh  Rh225  1  -0.00356343  0.80335972  0.00546009  1
  Rh  Rh226  1  0.00744526  0.39981901  0.79910282  1
  Rh  Rh227  1  0.61450206  0.00346630  0.58865924  1
  Rh  Rh228  1  0.39103932  -0.00758714  0.60536622  1
  Rh  Rh229  1  0.39952044  0.20661310  0.59778929  1
  Rh  Rh230  1  -0.00346359  0.80290160  0.60182988  1
  Rh  Rh231  1  0.39973296  0.20855027  0.18851053  1
  Rh  Rh232  1  0.60060144  0.00254310  -0.00830554  1
  Rh  Rh233  1  0.80266644  -0.00203393  0.80345714  1
  Rh  Rh234  1  0.80471055  0.60378306  0.60873767  1
  Rh  Rh235  1  0.20335898  0.19447180  0.39441188  1
  Rh  Rh236  1  0.20523032  0.81105410  0.59438983  1
  Rh  Rh237  1  0.80756624  0.19146148  0.60804358  1
  Rh  Rh238  1  0.79779435  0.60323327  0.80012763  1
  Rh  Rh239  1  0.80624345  0.00630670  0.18580275  1
  Rh  Rh240  1  0.61618616  0.39486024  0.00875455  1
  Rh  Rh241  1  0.80346814  0.19881720  0.19474927  1
  Rh  Rh242  1  0.40173086  0.40017566  0.38900244  1
  Rh  Rh243  1  0.80268814  0.39739521  0.39605847  1
  Rh  Rh244  1  0.19274992  0.00707328  0.40496088  1
  Rh  Rh245  1  0.80541686  0.79082441  0.19168645  1
  Rh  Rh246  1  0.80403796  0.61005521  0.39564450  1
  Rh  Rh247  1  0.40044937  0.80323674  0.00593639  1
  Rh  Rh248  1  0.79687980  0.80193742  0.60357905  1
  Rh  Rh249  1  -0.00200601  0.58849770  -0.00029664  1
