# generated using pymatgen
data_ZrScNbPdRh
_symmetry_space_group_name_H-M   'P 1'
_cell_length_a   16.55356741
_cell_length_b   16.55700580
_cell_length_c   16.55294902
_cell_angle_alpha   89.98350220
_cell_angle_beta   89.99020333
_cell_angle_gamma   89.98403048
_symmetry_Int_Tables_number   1
_chemical_formula_structural   ZrScNbPdRh
_chemical_formula_sum   'Zr50 Sc50 Nb50 Pd50 Rh50'
_cell_volume   4536.79064778
_cell_formula_units_Z   50
loop_
 _symmetry_equiv_pos_site_id
 _symmetry_equiv_pos_as_xyz
  1  'x, y, z'
loop_
 _atom_site_type_symbol
 _atom_site_label
 _atom_site_symmetry_multiplicity
 _atom_site_fract_x
 _atom_site_fract_y
 _atom_site_fract_z
 _atom_site_occupancy
  Zr  Zr0  1  0.29779030  0.90029003  0.49800951  1
  Zr  Zr1  1  0.29984350  0.30198303  0.70325756  1
  Zr  Zr2  1  0.50359524  0.10568637  0.29677165  1
  Zr  Zr3  1  0.09057585  0.90557966  0.90223547  1
  Zr  Zr4  1  0.49986361  0.30240142  0.30159847  1
  Zr  Zr5  1  0.10289353  0.31335759  0.70666238  1
  Zr  Zr6  1  0.29757583  0.10869872  0.70091071  1
  Zr  Zr7  1  0.29739156  0.90440540  0.90260524  1
  Zr  Zr8  1  0.69206180  0.90110850  0.89935893  1
  Zr  Zr9  1  0.90561979  0.89474083  0.49387457  1
  Zr  Zr10  1  0.49762245  0.89591018  0.49952669  1
  Zr  Zr11  1  0.90572159  0.90676422  0.09971910  1
  Zr  Zr12  1  0.49366951  0.50383769  0.70360510  1
  Zr  Zr13  1  0.50329083  0.09951868  0.90390286  1
  Zr  Zr14  1  0.10570418  0.68947659  0.69758707  1
  Zr  Zr15  1  0.49915206  0.89538559  0.29913956  1
  Zr  Zr16  1  0.30147059  0.69515822  0.70402626  1
  Zr  Zr17  1  0.70213443  0.50293177  0.10347282  1
  Zr  Zr18  1  0.69995771  0.50183288  0.90891691  1
  Zr  Zr19  1  0.69713311  0.89736271  0.10322886  1
  Zr  Zr20  1  0.49513967  0.30018398  0.10869132  1
  Zr  Zr21  1  0.09536565  0.69791072  0.29552514  1
  Zr  Zr22  1  0.70518810  0.09846822  0.10078587  1
  Zr  Zr23  1  0.49441771  0.69935464  0.89218327  1
  Zr  Zr24  1  0.30089366  0.69305654  0.10157870  1
  Zr  Zr25  1  0.09135094  0.50125413  0.88790395  1
  Zr  Zr26  1  0.70394913  0.10255536  0.50018464  1
  Zr  Zr27  1  0.50466572  0.10445391  0.10496756  1
  Zr  Zr28  1  0.89289747  0.50319442  0.89668911  1
  Zr  Zr29  1  0.90253574  0.30578178  0.90765658  1
  Zr  Zr30  1  0.29187948  0.10575393  0.90646109  1
  Zr  Zr31  1  0.70325019  0.69997372  0.49603163  1
  Zr  Zr32  1  0.29778034  0.49592237  0.69337173  1
  Zr  Zr33  1  0.70110356  0.10080624  0.90293061  1
  Zr  Zr34  1  0.70907802  0.90163735  0.70342284  1
  Zr  Zr35  1  0.10636908  0.09899188  0.49639351  1
  Zr  Zr36  1  0.49225937  0.49451164  0.29847561  1
  Zr  Zr37  1  0.10154325  0.69511376  0.10166574  1
  Zr  Zr38  1  0.90299751  0.09565073  0.90568044  1
  Zr  Zr39  1  0.90466522  0.70583925  0.50062171  1
  Zr  Zr40  1  0.68903116  0.29972290  0.30285828  1
  Zr  Zr41  1  0.10291367  0.69524227  0.50282421  1
  Zr  Zr42  1  0.28971810  0.30212588  0.09848894  1
  Zr  Zr43  1  0.69624339  0.69475505  0.09890300  1
  Zr  Zr44  1  0.70408888  0.30837158  0.49736791  1
  Zr  Zr45  1  0.30255053  0.89474888  0.29735001  1
  Zr  Zr46  1  0.89818682  0.31228595  0.50404699  1
  Zr  Zr47  1  0.49595675  0.69662867  0.69436185  1
  Zr  Zr48  1  0.90179895  0.89848257  0.88972941  1
  Zr  Zr49  1  0.70126503  0.09851694  0.29331386  1
  Sc  Sc50  1  0.10472049  0.69731533  0.89347939  1
  Sc  Sc51  1  0.50024099  0.49728131  0.90181631  1
  Sc  Sc52  1  0.71354311  0.30523448  0.69087809  1
  Sc  Sc53  1  0.29185325  0.88860859  0.69300967  1
  Sc  Sc54  1  0.49682867  0.69833283  0.49654969  1
  Sc  Sc55  1  0.90753518  0.49987641  0.29361052  1
  Sc  Sc56  1  0.90131127  0.49731387  0.09990209  1
  Sc  Sc57  1  0.29868328  0.70627555  0.50743881  1
  Sc  Sc58  1  0.50564125  0.89307531  0.10179749  1
  Sc  Sc59  1  0.70085804  0.69148431  0.89487456  1
  Sc  Sc60  1  0.70067246  0.29025227  0.09483855  1
  Sc  Sc61  1  0.49771479  0.49940388  0.09988779  1
  Sc  Sc62  1  0.69444142  0.49744967  0.29943855  1
  Sc  Sc63  1  0.29937699  0.69852749  0.29824252  1
  Sc  Sc64  1  0.49282840  0.50365794  0.49102989  1
  Sc  Sc65  1  0.10438302  0.10605910  0.29978362  1
  Sc  Sc66  1  0.29098734  0.09885505  0.10541113  1
  Sc  Sc67  1  0.49989485  0.10201116  0.69511829  1
  Sc  Sc68  1  0.50072962  0.69755162  0.10799055  1
  Sc  Sc69  1  0.70345701  0.90199576  0.30051247  1
  Sc  Sc70  1  0.49399186  0.70172549  0.29890008  1
  Sc  Sc71  1  0.29251848  0.10388775  0.30104877  1
  Sc  Sc72  1  0.10241067  0.90023549  0.50555102  1
  Sc  Sc73  1  0.70079630  0.50644585  0.71053606  1
  Sc  Sc74  1  0.29832855  0.30218698  0.89761398  1
  Sc  Sc75  1  0.70436057  0.90258215  0.49347790  1
  Sc  Sc76  1  0.89678114  0.08749180  0.69526088  1
  Sc  Sc77  1  0.10566673  0.49745431  0.10563570  1
  Sc  Sc78  1  0.90243719  0.09545258  0.49751468  1
  Sc  Sc79  1  0.49809905  0.30835194  0.90319543  1
  Sc  Sc80  1  0.90747044  0.69017056  0.11020587  1
  Sc  Sc81  1  0.90986090  0.49327220  0.70451753  1
  Sc  Sc82  1  0.70077116  0.69701240  0.29664130  1
  Sc  Sc83  1  0.30455241  0.30661112  0.50013326  1
  Sc  Sc84  1  0.50641708  0.09327295  0.50002837  1
  Sc  Sc85  1  0.30482292  0.50589493  0.91320691  1
  Sc  Sc86  1  0.70000147  0.30718252  0.90553259  1
  Sc  Sc87  1  0.29635981  0.29874647  0.29804427  1
  Sc  Sc88  1  0.90376123  0.70098677  0.29785123  1
  Sc  Sc89  1  0.48572378  0.30840915  0.70230839  1
  Sc  Sc90  1  0.10282735  0.90448372  0.10580113  1
  Sc  Sc91  1  0.09563503  0.09209582  0.69288937  1
  Sc  Sc92  1  0.09762097  0.89851935  0.29715967  1
  Sc  Sc93  1  0.09957548  0.30282198  0.30776607  1
  Sc  Sc94  1  0.50612332  0.89858142  0.70232272  1
  Sc  Sc95  1  0.89583883  0.09309682  0.29701418  1
  Sc  Sc96  1  0.10580338  0.29918519  0.90697301  1
  Sc  Sc97  1  0.10569017  0.10123326  0.09910244  1
  Sc  Sc98  1  0.90260324  0.89864750  0.30222601  1
  Sc  Sc99  1  0.70286176  0.09289415  0.69166065  1
  Nb  Nb100  1  0.29900897  0.70404688  0.90227629  1
  Nb  Nb101  1  0.10224667  0.10235076  0.89470662  1
  Nb  Nb102  1  0.09833369  0.49457947  0.50316293  1
  Nb  Nb103  1  0.90039013  0.49864666  0.50319732  1
  Nb  Nb104  1  0.89470847  0.70564665  0.70528070  1
  Nb  Nb105  1  0.89959325  0.29965436  0.30090187  1
  Nb  Nb106  1  0.90203805  0.29599756  0.69795243  1
  Nb  Nb107  1  0.89940446  0.29748434  0.09957551  1
  Nb  Nb108  1  0.29471140  0.49694438  0.30816250  1
  Nb  Nb109  1  0.50716856  0.30139015  0.49238452  1
  Nb  Nb110  1  0.30079329  0.90268584  0.09823127  1
  Nb  Nb111  1  0.10147100  0.50113926  0.69559385  1
  Nb  Nb112  1  0.30100584  0.50341254  0.10308454  1
  Nb  Nb113  1  0.28699697  0.50136948  0.48346057  1
  Nb  Nb114  1  0.09491328  0.29910692  0.10259472  1
  Nb  Nb115  1  0.88822818  0.11102712  0.10156760  1
  Nb  Nb116  1  0.90571212  0.69949348  0.89686419  1
  Nb  Nb117  1  0.49662257  0.90105363  0.89888861  1
  Nb  Nb118  1  0.29746423  0.09987508  0.50177185  1
  Nb  Nb119  1  0.70165861  0.69919638  0.69507834  1
  Nb  Nb120  1  0.09518489  0.90707608  0.69960275  1
  Nb  Nb121  1  0.10785425  0.49926515  0.31681678  1
  Nb  Nb122  1  0.09474991  0.29907917  0.49823323  1
  Nb  Nb123  1  0.70684334  0.49871419  0.50360264  1
  Nb  Nb124  1  0.90821660  0.89818769  0.70223940  1
  Nb  Nb125  1  0.59909431  0.40345695  0.59561822  1
  Nb  Nb126  1  0.39896818  -0.00287496  0.19979140  1
  Nb  Nb127  1  0.80655175  0.59438474  0.40707726  1
  Nb  Nb128  1  -0.00794047  0.20683245  0.19468002  1
  Nb  Nb129  1  0.80124615  0.20625630  0.39808159  1
  Nb  Nb130  1  0.20563701  0.79946158  -0.00016244  1
  Nb  Nb131  1  0.40352695  0.19920529  0.40394235  1
  Nb  Nb132  1  0.80412543  0.19976008  0.79885345  1
  Nb  Nb133  1  0.00247681  0.59211661  0.40792090  1
  Nb  Nb134  1  0.39383170  0.00026205  0.60092377  1
  Nb  Nb135  1  0.80434141  0.60274164  0.60109429  1
  Nb  Nb136  1  0.60616793  0.20461054  0.79311415  1
  Nb  Nb137  1  0.19805580  0.00117147  0.79967871  1
  Nb  Nb138  1  0.00129421  0.20713134  0.59965034  1
  Nb  Nb139  1  0.00056488  0.60056837  -0.00602779  1
  Nb  Nb140  1  0.59915752  0.21230217  0.59822754  1
  Nb  Nb141  1  0.19496661  0.20464229  0.59585385  1
  Nb  Nb142  1  0.39678988  0.80216292  -0.00445505  1
  Nb  Nb143  1  -0.00296910  0.20035449  0.79632511  1
  Nb  Nb144  1  0.60734363  0.79459072  0.60215402  1
  Nb  Nb145  1  0.80632781  0.79585188  -0.00041933  1
  Nb  Nb146  1  0.80071079  0.79959185  0.19026585  1
  Nb  Nb147  1  0.39543159  -0.00019509  0.80007090  1
  Nb  Nb148  1  0.80393565  0.38955530  0.19976172  1
  Nb  Nb149  1  0.39774104  0.20011913  0.00629202  1
  Pd  Pd150  1  0.00603431  0.19523593  0.00130972  1
  Pd  Pd151  1  0.60294943  0.79502637  0.79483311  1
  Pd  Pd152  1  0.39096166  0.59420370  0.58952114  1
  Pd  Pd153  1  0.60176392  0.79797228  0.40045161  1
  Pd  Pd154  1  0.19678006  -0.00404255  0.39287307  1
  Pd  Pd155  1  0.59825235  0.59965271  0.80250981  1
  Pd  Pd156  1  0.80035147  -0.00887294  -0.00238140  1
  Pd  Pd157  1  0.40747839  0.60505813  0.00257679  1
  Pd  Pd158  1  0.38883234  0.40333821  0.20043923  1
  Pd  Pd159  1  0.20169125  0.59180387  0.20648376  1
  Pd  Pd160  1  0.79842976  0.80273284  0.59932705  1
  Pd  Pd161  1  0.40394759  0.19697328  0.58998108  1
  Pd  Pd162  1  0.00385809  0.01089202  0.01015266  1
  Pd  Pd163  1  0.19936105  0.39652555  0.59162002  1
  Pd  Pd164  1  0.40486168  0.00174473  0.00541493  1
  Pd  Pd165  1  0.79919648  0.39581437  0.79872150  1
  Pd  Pd166  1  0.20058149  0.80102237  0.19395972  1
  Pd  Pd167  1  0.59680350  -0.00242601  0.00716802  1
  Pd  Pd168  1  0.39747807  0.00830933  0.39806691  1
  Pd  Pd169  1  0.00240724  0.79128170  0.00442423  1
  Pd  Pd170  1  0.59294654  0.59829020  0.20631508  1
  Pd  Pd171  1  0.39171027  0.60649324  0.39848107  1
  Pd  Pd172  1  0.79537612  0.79573409  0.80749001  1
  Pd  Pd173  1  0.19786078  0.40089821  0.20540642  1
  Pd  Pd174  1  -0.00624752  0.59695331  0.60354424  1
  Pd  Pd175  1  0.20764712  0.41028206  0.81024699  1
  Pd  Pd176  1  0.80924774  0.60758995  0.00352813  1
  Pd  Pd177  1  0.20972476  0.59108633  0.80490662  1
  Pd  Pd178  1  0.19714484  0.79789940  0.39948440  1
  Pd  Pd179  1  0.00976483  0.79306368  0.79203030  1
  Pd  Pd180  1  0.40922102  0.19844092  0.81012324  1
  Pd  Pd181  1  0.59796501  0.39801057  0.00831444  1
  Pd  Pd182  1  0.00098550  0.01274744  0.19880276  1
  Pd  Pd183  1  0.00683609  0.80142938  0.60746747  1
  Pd  Pd184  1  0.59553821  0.00839226  0.79223657  1
  Pd  Pd185  1  0.39868692  0.80777798  0.79737155  1
  Pd  Pd186  1  0.59706011  0.79126080  -0.00503034  1
  Pd  Pd187  1  0.60457101  0.59719542  0.59722043  1
  Pd  Pd188  1  0.80343146  0.40567365  0.38711237  1
  Pd  Pd189  1  0.00660708  -0.00008862  0.39647246  1
  Pd  Pd190  1  0.60344993  -0.00091648  0.39802724  1
  Pd  Pd191  1  -0.00848979  0.19788609  0.39867829  1
  Pd  Pd192  1  0.19693127  0.40784881  -0.00323927  1
  Pd  Pd193  1  0.60360607  0.59652601  0.39683891  1
  Pd  Pd194  1  0.00422235  0.40938929  0.00132061  1
  Pd  Pd195  1  0.00165542  0.39760589  0.20391286  1
  Pd  Pd196  1  0.19117357  0.80690168  0.80169621  1
  Pd  Pd197  1  0.40414158  0.40747422  0.58838324  1
  Pd  Pd198  1  0.60341132  0.39342726  0.78968174  1
  Pd  Pd199  1  0.80761056  -0.00968115  0.59331615  1
  Rh  Rh200  1  0.20722740  0.00367622  0.60757386  1
  Rh  Rh201  1  0.80016076  0.59547687  0.20896530  1
  Rh  Rh202  1  0.19309490  0.60239592  -0.00231986  1
  Rh  Rh203  1  0.19179550  0.79804749  0.60347844  1
  Rh  Rh204  1  0.39371749  0.40821893  0.80724287  1
  Rh  Rh205  1  0.80115539  0.00576835  0.39830144  1
  Rh  Rh206  1  0.80441059  0.19549695  0.59683167  1
  Rh  Rh207  1  0.79949273  0.20342140  -0.00977986  1
  Rh  Rh208  1  0.60691363  0.20424531  0.19503693  1
  Rh  Rh209  1  0.18715256  0.20669129  0.20002990  1
  Rh  Rh210  1  0.00911220  0.58861170  0.20421454  1
  Rh  Rh211  1  0.59367757  -0.00938694  0.60004016  1
  Rh  Rh212  1  0.19874604  0.39003599  0.40455380  1
  Rh  Rh213  1  -0.00197763  0.39397738  0.80269678  1
  Rh  Rh214  1  0.39572752  0.79247232  0.40164869  1
  Rh  Rh215  1  0.59279523  0.60110898  -0.00386391  1
  Rh  Rh216  1  0.80319842  0.00297459  0.80172609  1
  Rh  Rh217  1  0.60709171  0.79668877  0.20766690  1
  Rh  Rh218  1  0.00040555  0.40534889  0.40048195  1
  Rh  Rh219  1  0.00779466  0.79447690  0.39809458  1
  Rh  Rh220  1  0.60127149  0.19212012  0.40719647  1
  Rh  Rh221  1  0.80164383  0.79364422  0.38564235  1
  Rh  Rh222  1  0.80180461  0.20573129  0.20893535  1
  Rh  Rh223  1  0.59445748  -0.00390094  0.20028148  1
  Rh  Rh224  1  0.39638016  0.39321055  0.39804671  1
  Rh  Rh225  1  0.39223374  0.19104164  0.20216678  1
  Rh  Rh226  1  0.40791550  0.80485674  0.60220258  1
  Rh  Rh227  1  0.20904499  0.20664091  0.40853825  1
  Rh  Rh228  1  0.79667671  0.40055042  0.01062859  1
  Rh  Rh229  1  0.18469027  0.19424098  0.78836907  1
  Rh  Rh230  1  0.60800412  0.39831930  0.19264649  1
  Rh  Rh231  1  0.39453877  0.39477127  0.00618433  1
  Rh  Rh232  1  0.00514672  0.39874423  0.60120701  1
  Rh  Rh233  1  0.39332626  0.59412317  0.80347283  1
  Rh  Rh234  1  0.00182960  0.00722903  0.79506820  1
  Rh  Rh235  1  0.80551707  0.60293004  0.79324988  1
  Rh  Rh236  1  -0.00504607  -0.00137412  0.59396985  1
  Rh  Rh237  1  0.39873182  0.80473133  0.19128094  1
  Rh  Rh238  1  -0.00526996  0.60395195  0.79547297  1
  Rh  Rh239  1  0.80367706  -0.00816027  0.19886033  1
  Rh  Rh240  1  -0.00608300  0.80444321  0.19803383  1
  Rh  Rh241  1  0.79788370  0.41619925  0.61220289  1
  Rh  Rh242  1  0.20604697  -0.00243941  0.20567519  1
  Rh  Rh243  1  0.20663735  0.59262855  0.59529795  1
  Rh  Rh244  1  0.59215439  0.20655435  -0.00611914  1
  Rh  Rh245  1  0.19978021  0.20277282  0.00425966  1
  Rh  Rh246  1  0.39516909  0.59234434  0.20487466  1
  Rh  Rh247  1  0.59664053  0.41373626  0.40597955  1
  Rh  Rh248  1  0.19679016  0.60805786  0.40128279  1
  Rh  Rh249  1  0.19064439  -0.00398743  -0.00326982  1
