# generated using pymatgen
data_ZrScNbPdRh
_symmetry_space_group_name_H-M   'P 1'
_cell_length_a   16.55502779
_cell_length_b   16.55469942
_cell_length_c   16.55412019
_cell_angle_alpha   89.95424889
_cell_angle_beta   89.98837614
_cell_angle_gamma   90.02457686
_symmetry_Int_Tables_number   1
_chemical_formula_structural   ZrScNbPdRh
_chemical_formula_sum   'Zr50 Sc50 Nb50 Pd50 Rh50'
_cell_volume   4536.87831141
_cell_formula_units_Z   50
loop_
 _symmetry_equiv_pos_site_id
 _symmetry_equiv_pos_as_xyz
  1  'x, y, z'
loop_
 _atom_site_type_symbol
 _atom_site_label
 _atom_site_symmetry_multiplicity
 _atom_site_fract_x
 _atom_site_fract_y
 _atom_site_fract_z
 _atom_site_occupancy
  Zr  Zr0  1  0.70262085  0.09712785  0.30051820  1
  Zr  Zr1  1  0.69833763  0.30081250  0.49728966  1
  Zr  Zr2  1  0.29793026  0.90445549  0.29065330  1
  Zr  Zr3  1  0.89737790  0.29475305  0.50746881  1
  Zr  Zr4  1  0.88817189  0.30690208  0.29558649  1
  Zr  Zr5  1  0.91169199  0.30389705  0.70583309  1
  Zr  Zr6  1  0.30561792  0.70107756  0.90269235  1
  Zr  Zr7  1  0.69369500  0.30055237  0.29322506  1
  Zr  Zr8  1  0.69724973  0.89254972  0.10806656  1
  Zr  Zr9  1  0.09912793  0.30339934  0.89933205  1
  Zr  Zr10  1  0.10121897  0.69999039  0.50286824  1
  Zr  Zr11  1  0.69279768  0.30615544  0.69739303  1
  Zr  Zr12  1  0.49393009  0.10299051  0.90285427  1
  Zr  Zr13  1  0.50135009  0.28917562  0.50606268  1
  Zr  Zr14  1  0.70640416  0.89864098  0.49910314  1
  Zr  Zr15  1  0.09859824  0.50348283  0.29142640  1
  Zr  Zr16  1  0.30693011  0.29513128  0.70290337  1
  Zr  Zr17  1  0.30164092  0.50011931  0.90095748  1
  Zr  Zr18  1  0.50630010  0.70120414  0.70553576  1
  Zr  Zr19  1  0.10928228  0.29417978  0.71053279  1
  Zr  Zr20  1  0.10462092  0.09772861  0.29655074  1
  Zr  Zr21  1  0.90043449  0.69290318  0.70135455  1
  Zr  Zr22  1  0.09618886  0.89803763  0.50026149  1
  Zr  Zr23  1  0.09393782  0.09928411  0.90231991  1
  Zr  Zr24  1  0.29463131  0.70705290  0.10121793  1
  Zr  Zr25  1  0.50363859  0.29872544  0.10182803  1
  Zr  Zr26  1  0.49193544  0.10797945  0.69596221  1
  Zr  Zr27  1  0.50228204  0.49939418  0.49959387  1
  Zr  Zr28  1  0.90292901  0.89675943  0.10695143  1
  Zr  Zr29  1  0.90459826  0.49950135  0.10858479  1
  Zr  Zr30  1  0.49918170  0.89982725  0.49809627  1
  Zr  Zr31  1  0.10233388  0.90475383  0.90038657  1
  Zr  Zr32  1  0.29822887  0.09900569  0.10532502  1
  Zr  Zr33  1  0.30146804  0.70727871  0.29604049  1
  Zr  Zr34  1  0.49842511  0.50593936  0.90324552  1
  Zr  Zr35  1  0.30022876  0.68828634  0.50369583  1
  Zr  Zr36  1  0.69492273  0.69400322  0.90516885  1
  Zr  Zr37  1  0.48941706  0.90007292  0.90025756  1
  Zr  Zr38  1  0.11673815  0.49801005  0.50131774  1
  Zr  Zr39  1  0.09986125  0.89497260  0.71237196  1
  Zr  Zr40  1  0.90378642  0.29345599  0.90678033  1
  Zr  Zr41  1  0.49672762  0.31070409  0.89665055  1
  Zr  Zr42  1  0.30232852  0.49855388  0.49692267  1
  Zr  Zr43  1  0.09851343  0.70147783  0.10689190  1
  Zr  Zr44  1  0.09317964  0.09274835  0.49713166  1
  Zr  Zr45  1  0.50161272  0.69955423  0.90226633  1
  Zr  Zr46  1  0.30453568  0.89234207  0.49267936  1
  Zr  Zr47  1  0.30229290  0.49290416  0.30136193  1
  Zr  Zr48  1  0.29269950  0.49836551  0.69274879  1
  Zr  Zr49  1  0.89249070  0.50117164  0.49886425  1
  Sc  Sc50  1  0.08719578  0.30281288  0.09479294  1
  Sc  Sc51  1  0.30561450  0.09313532  0.90395228  1
  Sc  Sc52  1  0.70865551  0.89442027  0.30118185  1
  Sc  Sc53  1  0.90076002  0.70277292  0.29249313  1
  Sc  Sc54  1  0.29910555  0.10758614  0.70881793  1
  Sc  Sc55  1  0.10135263  0.89854163  0.09607020  1
  Sc  Sc56  1  0.69591354  0.50272882  0.49466227  1
  Sc  Sc57  1  0.51564432  0.49278006  0.70650875  1
  Sc  Sc58  1  0.70496262  0.30094750  0.91265118  1
  Sc  Sc59  1  0.49668979  0.69672939  0.49524979  1
  Sc  Sc60  1  0.30768931  0.29753446  0.10136797  1
  Sc  Sc61  1  0.70468955  0.69880699  0.49626427  1
  Sc  Sc62  1  0.49188011  0.11021099  0.30131342  1
  Sc  Sc63  1  0.69936718  0.49928946  0.89785472  1
  Sc  Sc64  1  0.50333186  0.49475338  0.29585796  1
  Sc  Sc65  1  0.49582537  0.30543764  0.28940566  1
  Sc  Sc66  1  0.70362261  0.30080382  0.10369028  1
  Sc  Sc67  1  0.70120432  0.50892216  0.10023539  1
  Sc  Sc68  1  0.09575973  0.09964516  0.70627517  1
  Sc  Sc69  1  0.10266917  0.29415699  0.29514646  1
  Sc  Sc70  1  0.89988537  0.89704298  0.70188957  1
  Sc  Sc71  1  0.49997769  0.49656895  0.09893316  1
  Sc  Sc72  1  0.89259124  0.50346892  0.29533164  1
  Sc  Sc73  1  0.70360522  0.89668444  0.70294181  1
  Sc  Sc74  1  0.70126822  0.69988061  0.29313690  1
  Sc  Sc75  1  0.29450976  0.30475213  0.49244319  1
  Sc  Sc76  1  0.69939550  0.89137588  0.89231450  1
  Sc  Sc77  1  0.48837916  0.10571309  0.09688894  1
  Sc  Sc78  1  0.90313142  0.10128616  0.10074650  1
  Sc  Sc79  1  0.30150569  0.10753401  0.48490443  1
  Sc  Sc80  1  0.49687011  0.90135777  0.70307955  1
  Sc  Sc81  1  0.90353619  0.09671290  0.89993260  1
  Sc  Sc82  1  0.29602039  0.50804356  0.08902981  1
  Sc  Sc83  1  0.09639082  0.09843971  0.10494519  1
  Sc  Sc84  1  0.09663587  0.89963732  0.30008089  1
  Sc  Sc85  1  0.90196364  0.69280094  0.89484899  1
  Sc  Sc86  1  0.48926322  0.89197623  0.30124510  1
  Sc  Sc87  1  0.10119621  0.71620812  0.89779586  1
  Sc  Sc88  1  0.09632651  0.48713693  0.70372746  1
  Sc  Sc89  1  0.29833646  0.30482757  0.89533908  1
  Sc  Sc90  1  0.10291321  0.70394157  0.29243210  1
  Sc  Sc91  1  0.89261280  0.70908737  0.50314284  1
  Sc  Sc92  1  0.70821502  0.69903310  0.70162431  1
  Sc  Sc93  1  0.50621059  0.70336524  0.29747577  1
  Sc  Sc94  1  0.69736844  0.11340001  0.10001734  1
  Sc  Sc95  1  0.89844013  0.49556881  0.89087761  1
  Sc  Sc96  1  0.90870038  0.90216784  0.89812955  1
  Sc  Sc97  1  0.30406086  0.69822281  0.69991221  1
  Sc  Sc98  1  0.90289981  0.90193377  0.49275740  1
  Sc  Sc99  1  0.10310699  0.30241816  0.50924767  1
  Nb  Nb100  1  0.70662362  0.49011957  0.29891992  1
  Nb  Nb101  1  0.89319572  0.90620369  0.30077276  1
  Nb  Nb102  1  0.70096504  0.09807300  0.90032544  1
  Nb  Nb103  1  0.30740008  0.90318284  0.09712155  1
  Nb  Nb104  1  0.89791615  0.10020592  0.50201231  1
  Nb  Nb105  1  0.10408370  0.50221819  0.09803603  1
  Nb  Nb106  1  0.89778075  0.69547889  0.10313427  1
  Nb  Nb107  1  0.69597177  0.10111430  0.50430700  1
  Nb  Nb108  1  0.70082013  0.70088795  0.10095339  1
  Nb  Nb109  1  0.70881919  0.49888362  0.69721530  1
  Nb  Nb110  1  0.69894245  0.09973649  0.70108796  1
  Nb  Nb111  1  0.11074212  0.49353477  0.90943458  1
  Nb  Nb112  1  0.50258833  0.09655223  0.50172643  1
  Nb  Nb113  1  0.89498824  0.10680493  0.69475349  1
  Nb  Nb114  1  0.49834691  0.30153110  0.70270248  1
  Nb  Nb115  1  0.09841031  0.70024213  0.70539049  1
  Nb  Nb116  1  0.49947441  0.90158002  0.10334296  1
  Nb  Nb117  1  0.29547283  0.89780235  0.89853343  1
  Nb  Nb118  1  0.29630258  0.29771575  0.29231376  1
  Nb  Nb119  1  0.29781719  0.90392412  0.70026133  1
  Nb  Nb120  1  0.28837609  0.11339928  0.28993796  1
  Nb  Nb121  1  0.89392598  0.29758581  0.09548687  1
  Nb  Nb122  1  0.90122369  0.09005166  0.30850345  1
  Nb  Nb123  1  0.51280839  0.70544732  0.10192811  1
  Nb  Nb124  1  0.89574957  0.50304615  0.70164980  1
  Nb  Nb125  1  0.00704899  0.59578291  0.00305939  1
  Nb  Nb126  1  0.60020287  0.80048829  0.59815896  1
  Nb  Nb127  1  0.79889240  0.01104469  0.59988170  1
  Nb  Nb128  1  0.19962880  0.80243141  0.60504461  1
  Nb  Nb129  1  0.80085425  0.40274756  0.60478158  1
  Nb  Nb130  1  0.59431977  -0.00155572  0.20000180  1
  Nb  Nb131  1  0.39508495  0.00342723  0.59592570  1
  Nb  Nb132  1  0.20573119  -0.00598596  0.59951840  1
  Nb  Nb133  1  -0.00882952  0.19901355  0.39919877  1
  Nb  Nb134  1  0.59847499  0.00417567  0.40197311  1
  Nb  Nb135  1  0.60037827  -0.00202394  0.00105066  1
  Nb  Nb136  1  0.79197834  -0.00525397  0.00013091  1
  Nb  Nb137  1  0.60243818  0.19949802  0.80039683  1
  Nb  Nb138  1  0.19526885  0.59935294  0.80333188  1
  Nb  Nb139  1  0.00099289  0.59698408  0.40510741  1
  Nb  Nb140  1  0.79536313  0.19500161  0.79541602  1
  Nb  Nb141  1  0.20025037  0.40128116  0.19450106  1
  Nb  Nb142  1  0.19740379  0.19998682  0.00009977  1
  Nb  Nb143  1  0.80055251  0.19233935  0.40367060  1
  Nb  Nb144  1  0.40613485  0.39547264  0.60179859  1
  Nb  Nb145  1  0.79955653  0.79542419  0.00658830  1
  Nb  Nb146  1  0.60100520  0.00859115  0.80304342  1
  Nb  Nb147  1  0.00062509  0.59750832  0.60144906  1
  Nb  Nb148  1  0.40085144  0.60553328  0.19491509  1
  Nb  Nb149  1  -0.00089294  0.40093923  0.40057185  1
  Pd  Pd150  1  0.40386640  0.00709679  0.20681522  1
  Pd  Pd151  1  0.01152942  0.59130533  0.80458124  1
  Pd  Pd152  1  -0.00629059  0.79484985  0.39244908  1
  Pd  Pd153  1  0.79367140  0.00626017  0.19013030  1
  Pd  Pd154  1  0.59890859  0.59446045  0.20141509  1
  Pd  Pd155  1  0.20408951  0.00655206  0.79910838  1
  Pd  Pd156  1  -0.00593263  0.40818909  -0.00299700  1
  Pd  Pd157  1  0.20140709  0.00264776  0.00523359  1
  Pd  Pd158  1  0.40076526  0.00675238  0.39543465  1
  Pd  Pd159  1  0.80127928  0.00195786  0.79996203  1
  Pd  Pd160  1  0.20353660  0.19062576  0.59593840  1
  Pd  Pd161  1  0.20390742  -0.00159843  0.39962193  1
  Pd  Pd162  1  -0.00835917  0.79187085  -0.00151123  1
  Pd  Pd163  1  0.60094682  0.19678295  0.39300919  1
  Pd  Pd164  1  -0.00394645  -0.00249899  0.60818492  1
  Pd  Pd165  1  -0.00185803  0.40781271  0.59550017  1
  Pd  Pd166  1  0.40103579  0.79872059  0.00669101  1
  Pd  Pd167  1  0.80948109  0.59996366  -0.00246132  1
  Pd  Pd168  1  0.60344738  0.80474221  0.40013152  1
  Pd  Pd169  1  0.80527004  0.79429966  0.80824925  1
  Pd  Pd170  1  0.18856723  0.20582962  0.40351299  1
  Pd  Pd171  1  0.79750093  0.39136431  0.79949062  1
  Pd  Pd172  1  0.00360241  -0.00481824  0.20098567  1
  Pd  Pd173  1  0.39511925  0.39917403  0.00569856  1
  Pd  Pd174  1  0.40759841  0.39088235  0.40338240  1
  Pd  Pd175  1  -0.00009256  0.79639393  0.60470470  1
  Pd  Pd176  1  0.60277764  0.80602650  -0.00287047  1
  Pd  Pd177  1  0.39500242  0.80243714  0.79584000  1
  Pd  Pd178  1  0.19630931  0.60514157  0.38915740  1
  Pd  Pd179  1  0.39880389  0.20751815  0.39521015  1
  Pd  Pd180  1  0.00284419  0.39394725  0.20414004  1
  Pd  Pd181  1  0.20075988  0.79683096  0.40109337  1
  Pd  Pd182  1  0.80303664  0.60688735  0.39217085  1
  Pd  Pd183  1  0.60599782  0.60673093  0.60040113  1
  Pd  Pd184  1  0.59930636  -0.00733782  0.60429487  1
  Pd  Pd185  1  0.41147351  0.58971752  0.60971367  1
  Pd  Pd186  1  0.59379677  0.39738274  0.39714545  1
  Pd  Pd187  1  0.80654605  0.19287735  0.20299974  1
  Pd  Pd188  1  0.59907173  0.19974680  -0.00346196  1
  Pd  Pd189  1  0.40189884  0.80181877  0.60266685  1
  Pd  Pd190  1  0.40634780  0.60195908  0.38694546  1
  Pd  Pd191  1  0.80131824  0.40758851  0.00502114  1
  Pd  Pd192  1  0.60554769  0.40570497  0.00317153  1
  Pd  Pd193  1  0.60123229  0.19930903  0.60604734  1
  Pd  Pd194  1  0.19115113  0.61314824  -0.00784655  1
  Pd  Pd195  1  0.60339193  0.59916702  0.39119232  1
  Pd  Pd196  1  0.39759573  0.59267680  0.79145430  1
  Pd  Pd197  1  -0.00696550  0.20240007  0.20509397  1
  Pd  Pd198  1  0.00957841  0.19695974  0.59989842  1
  Pd  Pd199  1  0.60846494  0.59623972  0.79766145  1
  Rh  Rh200  1  0.19920552  -0.00420537  0.19636018  1
  Rh  Rh201  1  0.60622973  0.40484869  0.19591327  1
  Rh  Rh202  1  0.39962246  0.20071575  0.20236374  1
  Rh  Rh203  1  0.19091324  0.39352865  0.38632742  1
  Rh  Rh204  1  -0.00641506  0.80068514  0.80282626  1
  Rh  Rh205  1  0.20357284  0.38823634  0.00949158  1
  Rh  Rh206  1  -0.00617487  0.19454293  0.80046573  1
  Rh  Rh207  1  0.80639816  0.19196842  -0.00419561  1
  Rh  Rh208  1  0.20133389  0.19356960  0.81487181  1
  Rh  Rh209  1  0.80591923  0.79787319  0.39351590  1
  Rh  Rh210  1  0.39856060  0.40716371  0.79220020  1
  Rh  Rh211  1  0.80137137  0.39459993  0.40516357  1
  Rh  Rh212  1  0.59661896  0.80672174  0.20791665  1
  Rh  Rh213  1  0.39829036  0.79030979  0.39978057  1
  Rh  Rh214  1  0.40492741  0.79429588  0.19144180  1
  Rh  Rh215  1  0.21182722  0.59233020  0.20275337  1
  Rh  Rh216  1  0.60577851  0.39736965  0.80739307  1
  Rh  Rh217  1  -0.00022609  0.60359027  0.19903036  1
  Rh  Rh218  1  0.40354120  0.20407967  0.81004801  1
  Rh  Rh219  1  -0.00004302  -0.00049443  0.39625466  1
  Rh  Rh220  1  0.00251684  0.40435773  0.80707325  1
  Rh  Rh221  1  0.79479243  0.00357365  0.40832769  1
  Rh  Rh222  1  0.20944540  0.38715070  0.60663682  1
  Rh  Rh223  1  0.59904532  0.80555826  0.79288717  1
  Rh  Rh224  1  0.00204697  0.19621805  0.00360310  1
  Rh  Rh225  1  0.39234479  0.19986855  0.59159510  1
  Rh  Rh226  1  0.19044770  0.60761333  0.61383677  1
  Rh  Rh227  1  0.79451631  0.40379071  0.19005041  1
  Rh  Rh228  1  0.20249895  0.40590277  0.80000732  1
  Rh  Rh229  1  0.19768465  0.81210991  0.19526351  1
  Rh  Rh230  1  0.59282986  0.19566990  0.19842470  1
  Rh  Rh231  1  0.39072104  0.20704352  -0.00519061  1
  Rh  Rh232  1  -0.00229079  0.80389009  0.20421565  1
  Rh  Rh233  1  0.41199344  0.61097408  0.01264399  1
  Rh  Rh234  1  0.79662693  0.80831626  0.60007220  1
  Rh  Rh235  1  0.79426774  0.60005960  0.20320658  1
  Rh  Rh236  1  0.20403132  0.80669395  0.00130825  1
  Rh  Rh237  1  0.40011147  -0.00292845  0.79394701  1
  Rh  Rh238  1  0.80168392  0.59537533  0.60007471  1
  Rh  Rh239  1  0.19663789  0.20968748  0.18619169  1
  Rh  Rh240  1  0.79451290  0.20205755  0.60233849  1
  Rh  Rh241  1  0.59993648  0.40407661  0.59626455  1
  Rh  Rh242  1  0.21010632  0.79221690  0.79711552  1
  Rh  Rh243  1  0.39963281  -0.00471014  0.00164156  1
  Rh  Rh244  1  -0.00510096  0.00313790  0.79456539  1
  Rh  Rh245  1  0.59686469  0.59707997  0.00363953  1
  Rh  Rh246  1  -0.00743741  -0.00058865  0.00399419  1
  Rh  Rh247  1  0.39083773  0.40864497  0.19353607  1
  Rh  Rh248  1  0.80488610  0.79428080  0.19812541  1
  Rh  Rh249  1  0.79446479  0.59913104  0.80271832  1
