# generated using pymatgen
data_ZrScNbPdRh
_symmetry_space_group_name_H-M   'P 1'
_cell_length_a   16.55737320
_cell_length_b   16.56376411
_cell_length_c   16.56242264
_cell_angle_alpha   90.00543521
_cell_angle_beta   90.03272576
_cell_angle_gamma   89.98065410
_symmetry_Int_Tables_number   1
_chemical_formula_structural   ZrScNbPdRh
_chemical_formula_sum   'Zr50 Sc50 Nb50 Pd50 Rh50'
_cell_volume   4542.28353738
_cell_formula_units_Z   50
loop_
 _symmetry_equiv_pos_site_id
 _symmetry_equiv_pos_as_xyz
  1  'x, y, z'
loop_
 _atom_site_type_symbol
 _atom_site_label
 _atom_site_symmetry_multiplicity
 _atom_site_fract_x
 _atom_site_fract_y
 _atom_site_fract_z
 _atom_site_occupancy
  Zr  Zr0  1  0.90264590  0.50127084  0.90052478  1
  Zr  Zr1  1  0.29618469  0.89766717  0.68936828  1
  Zr  Zr2  1  0.29632481  0.08697183  0.50175492  1
  Zr  Zr3  1  0.69972762  0.69736697  0.89973017  1
  Zr  Zr4  1  0.90194839  0.49233773  0.70205356  1
  Zr  Zr5  1  0.90964359  0.90009070  0.29813689  1
  Zr  Zr6  1  0.89284956  0.89384280  0.70186574  1
  Zr  Zr7  1  0.30331706  0.30035753  0.89437337  1
  Zr  Zr8  1  0.10134652  0.70204861  0.90529223  1
  Zr  Zr9  1  0.30218449  0.10283382  0.90164496  1
  Zr  Zr10  1  0.69530293  0.28841693  0.88836813  1
  Zr  Zr11  1  0.09804897  0.70768479  0.49568039  1
  Zr  Zr12  1  0.49396004  0.10683409  0.29830899  1
  Zr  Zr13  1  0.29715651  0.10466634  0.70527793  1
  Zr  Zr14  1  0.29637794  0.70609642  0.50549083  1
  Zr  Zr15  1  0.50736871  0.30045086  0.70125240  1
  Zr  Zr16  1  0.10383553  0.48522934  0.09779854  1
  Zr  Zr17  1  0.89708449  0.10247733  0.10545918  1
  Zr  Zr18  1  0.29868623  0.71249399  0.28725927  1
  Zr  Zr19  1  0.50423097  0.69616024  0.30198185  1
  Zr  Zr20  1  0.49120781  0.30786726  0.49808562  1
  Zr  Zr21  1  0.49992918  0.50442716  0.50209362  1
  Zr  Zr22  1  0.49892460  0.89418304  0.90278874  1
  Zr  Zr23  1  0.70330848  0.89275829  0.70404224  1
  Zr  Zr24  1  0.09574124  0.71082227  0.29368603  1
  Zr  Zr25  1  0.09121587  0.90046473  0.70382373  1
  Zr  Zr26  1  0.69844512  0.70111717  0.09246867  1
  Zr  Zr27  1  0.49362932  0.89206709  0.30932697  1
  Zr  Zr28  1  0.50176291  0.70360429  0.49734736  1
  Zr  Zr29  1  0.10086319  0.70142721  0.69854862  1
  Zr  Zr30  1  0.09991674  0.09780192  0.69846024  1
  Zr  Zr31  1  0.10961743  0.90515814  0.49993754  1
  Zr  Zr32  1  0.70417195  0.89234127  0.90447461  1
  Zr  Zr33  1  0.70073987  0.89471586  0.50212630  1
  Zr  Zr34  1  0.70834518  0.09603726  0.49682670  1
  Zr  Zr35  1  0.30210064  0.49321239  0.50559286  1
  Zr  Zr36  1  0.89721422  0.50546053  0.29034619  1
  Zr  Zr37  1  0.49880032  0.29722348  0.11272196  1
  Zr  Zr38  1  0.89817145  0.68841361  0.69821758  1
  Zr  Zr39  1  0.69581793  0.30279883  0.29683633  1
  Zr  Zr40  1  0.89627983  0.50906911  0.51194109  1
  Zr  Zr41  1  0.10381560  0.49169850  0.50120427  1
  Zr  Zr42  1  0.50187215  0.30729733  0.89451099  1
  Zr  Zr43  1  0.10872583  0.10648247  0.90209656  1
  Zr  Zr44  1  0.50468624  0.09955425  0.90509875  1
  Zr  Zr45  1  0.50191825  0.69864636  0.89569752  1
  Zr  Zr46  1  0.09932327  0.50399023  0.69895599  1
  Zr  Zr47  1  0.70603206  0.49788309  0.69754080  1
  Zr  Zr48  1  0.10365100  0.90072956  0.09114885  1
  Zr  Zr49  1  0.49454489  0.89565431  0.49959402  1
  Sc  Sc50  1  0.50170499  0.69527218  0.69890949  1
  Sc  Sc51  1  0.10429949  0.70323569  0.10196666  1
  Sc  Sc52  1  0.29957892  0.50057495  0.09817596  1
  Sc  Sc53  1  0.50574941  0.09575159  0.10016698  1
  Sc  Sc54  1  0.90439854  0.49480856  0.09778960  1
  Sc  Sc55  1  0.49068610  0.10398873  0.50370900  1
  Sc  Sc56  1  0.89622091  0.69826840  0.90689149  1
  Sc  Sc57  1  0.69454522  0.50152726  0.09963041  1
  Sc  Sc58  1  0.70390261  0.90436374  0.09521866  1
  Sc  Sc59  1  0.30196488  0.89508188  0.08993495  1
  Sc  Sc60  1  0.30082547  0.11098161  0.30749963  1
  Sc  Sc61  1  0.10298666  0.89250157  0.30042138  1
  Sc  Sc62  1  0.70793372  0.90911483  0.30045006  1
  Sc  Sc63  1  0.50667812  0.90501391  0.09321025  1
  Sc  Sc64  1  0.10506478  0.30135659  0.90863977  1
  Sc  Sc65  1  0.30175540  0.10025918  0.09604098  1
  Sc  Sc66  1  0.90027536  0.89955083  0.89858151  1
  Sc  Sc67  1  0.69240817  0.30677826  0.50974085  1
  Sc  Sc68  1  0.71008793  0.09821754  0.28998526  1
  Sc  Sc69  1  0.50034950  0.49431953  0.29472715  1
  Sc  Sc70  1  0.10930925  0.29996984  0.29703817  1
  Sc  Sc71  1  0.90098435  0.09683404  0.30036760  1
  Sc  Sc72  1  0.09509761  0.10630689  0.30255971  1
  Sc  Sc73  1  0.49742009  0.49786947  0.69774822  1
  Sc  Sc74  1  0.68923978  0.50255019  0.89845710  1
  Sc  Sc75  1  0.10019055  0.30282402  0.49626057  1
  Sc  Sc76  1  0.49465108  0.69157325  0.10188514  1
  Sc  Sc77  1  0.90135827  0.09029988  0.70223898  1
  Sc  Sc78  1  0.09964915  0.50226999  0.90809878  1
  Sc  Sc79  1  0.89920828  0.30386129  0.10191388  1
  Sc  Sc80  1  0.70375537  0.10632461  0.70881447  1
  Sc  Sc81  1  0.89039818  0.09902294  0.90122569  1
  Sc  Sc82  1  0.10157894  0.49591922  0.28872485  1
  Sc  Sc83  1  0.49426978  0.10944200  0.69796773  1
  Sc  Sc84  1  0.49588909  0.49840294  0.09642246  1
  Sc  Sc85  1  0.89276590  0.30479859  0.90300024  1
  Sc  Sc86  1  0.09729244  0.10867592  0.09765347  1
  Sc  Sc87  1  0.29758307  0.30489347  0.11040273  1
  Sc  Sc88  1  0.69666276  0.69909952  0.70957649  1
  Sc  Sc89  1  0.70343152  0.09477610  0.09609432  1
  Sc  Sc90  1  0.29703947  0.48895605  0.29618456  1
  Sc  Sc91  1  0.68995297  0.69276668  0.49255569  1
  Sc  Sc92  1  0.90875151  0.30457825  0.50917355  1
  Sc  Sc93  1  0.69295142  0.51107692  0.29970271  1
  Sc  Sc94  1  0.70432352  0.29732893  0.09930737  1
  Sc  Sc95  1  0.90277675  0.90570998  0.09358385  1
  Sc  Sc96  1  0.50180548  0.88283953  0.70228063  1
  Sc  Sc97  1  0.29823401  0.69625097  0.69932839  1
  Sc  Sc98  1  0.09674652  0.30935196  0.69229960  1
  Sc  Sc99  1  0.30842354  0.29934086  0.70139453  1
  Nb  Nb100  1  0.48881918  0.29530216  0.30056686  1
  Nb  Nb101  1  0.49162762  0.49528324  0.89540801  1
  Nb  Nb102  1  0.89308433  0.30499644  0.29939805  1
  Nb  Nb103  1  0.70005983  0.69988809  0.29809910  1
  Nb  Nb104  1  0.30029689  0.69824287  0.09436205  1
  Nb  Nb105  1  0.29982085  0.90401224  0.30309243  1
  Nb  Nb106  1  0.70792447  0.29912184  0.70272509  1
  Nb  Nb107  1  0.69889149  0.09586315  0.89676989  1
  Nb  Nb108  1  0.30331527  0.89824131  0.90264613  1
  Nb  Nb109  1  0.90356810  0.70111139  0.29631597  1
  Nb  Nb110  1  0.29801475  0.50129007  0.69897051  1
  Nb  Nb111  1  0.09474838  0.10517271  0.50480533  1
  Nb  Nb112  1  0.30121543  0.90071602  0.49032813  1
  Nb  Nb113  1  0.29442544  0.30806827  0.49018659  1
  Nb  Nb114  1  0.09677231  0.30528746  0.10088459  1
  Nb  Nb115  1  0.90369225  0.10110952  0.49752015  1
  Nb  Nb116  1  0.89351525  0.90284027  0.49622517  1
  Nb  Nb117  1  0.30501894  0.70088619  0.90670241  1
  Nb  Nb118  1  0.90287930  0.70057308  0.49590181  1
  Nb  Nb119  1  0.31387054  0.30068776  0.30688567  1
  Nb  Nb120  1  0.89392329  0.30323651  0.70557955  1
  Nb  Nb121  1  0.90005538  0.70141524  0.10686288  1
  Nb  Nb122  1  0.30400321  0.49767163  0.90135998  1
  Nb  Nb123  1  0.70025231  0.49707199  0.49667007  1
  Nb  Nb124  1  0.10571672  0.89984604  0.90369604  1
  Nb  Nb125  1  0.80213380  0.79372030  0.20305362  1
  Nb  Nb126  1  0.60104256  0.20084171  0.39852876  1
  Nb  Nb127  1  0.40455251  0.20603391  -0.00081959  1
  Nb  Nb128  1  0.79979516  0.40311847  0.40313119  1
  Nb  Nb129  1  -0.00288897  0.20449506  0.79794949  1
  Nb  Nb130  1  0.39871303  -0.00709271  0.80293547  1
  Nb  Nb131  1  0.60075402  -0.00153243  0.60226501  1
  Nb  Nb132  1  0.80571202  0.20302603  0.60117524  1
  Nb  Nb133  1  0.60647471  0.79733808  0.20365310  1
  Nb  Nb134  1  -0.00939687  0.40620326  0.39362421  1
  Nb  Nb135  1  0.20683998  0.40879270  0.79958189  1
  Nb  Nb136  1  0.19878141  0.19815423  0.59305530  1
  Nb  Nb137  1  0.19946192  0.60236379  0.39597210  1
  Nb  Nb138  1  0.20321838  0.80323785  0.80998108  1
  Nb  Nb139  1  0.80251778  0.20792297  0.40512781  1
  Nb  Nb140  1  0.80635155  0.79244393  0.39520916  1
  Nb  Nb141  1  0.39443867  -0.00361382  0.20509591  1
  Nb  Nb142  1  0.20299692  -0.00845384  0.80708635  1
  Nb  Nb143  1  -0.00949038  0.80266319  0.59368372  1
  Nb  Nb144  1  0.59783709  0.00518897  0.40374869  1
  Nb  Nb145  1  -0.00011715  0.60115951  0.39645304  1
  Nb  Nb146  1  0.39306792  0.59371849  0.80582712  1
  Nb  Nb147  1  0.59752533  -0.00212404  0.79971492  1
  Nb  Nb148  1  0.20615203  -0.00222595  0.20163221  1
  Nb  Nb149  1  0.39229652  0.60182939  0.39926944  1
  Pd  Pd150  1  0.59994136  0.39807845  0.39675954  1
  Pd  Pd151  1  0.60274916  0.39579883  0.00198051  1
  Pd  Pd152  1  -0.00010893  0.60240795  0.80464047  1
  Pd  Pd153  1  0.19199717  0.00580829  0.39007802  1
  Pd  Pd154  1  0.01047499  0.39376786  0.80870781  1
  Pd  Pd155  1  0.59962873  0.40270908  0.19796420  1
  Pd  Pd156  1  -0.00075947  0.00832608  -0.00575584  1
  Pd  Pd157  1  0.00119788  0.60178857  0.01133769  1
  Pd  Pd158  1  0.79213246  0.40623091  0.20096439  1
  Pd  Pd159  1  0.40018276  0.79512342  0.60276420  1
  Pd  Pd160  1  0.20550469  0.60172375  0.80769302  1
  Pd  Pd161  1  -0.00634106  0.21087462  0.39598465  1
  Pd  Pd162  1  -0.00759201  0.20459974  -0.00650042  1
  Pd  Pd163  1  0.20007942  0.20022446  0.40601555  1
  Pd  Pd164  1  -0.00287296  0.20857020  0.20402906  1
  Pd  Pd165  1  0.59258833  -0.00885302  0.20943243  1
  Pd  Pd166  1  0.60839203  0.19329548  0.59733726  1
  Pd  Pd167  1  0.20502979  0.19611276  0.19863116  1
  Pd  Pd168  1  0.39426504  0.59241241  0.20573100  1
  Pd  Pd169  1  -0.00160069  0.20256401  0.60731517  1
  Pd  Pd170  1  0.60670372  0.19532081  0.20226306  1
  Pd  Pd171  1  0.79929160  0.19950818  0.00096965  1
  Pd  Pd172  1  -0.00177423  0.79321501  0.80059818  1
  Pd  Pd173  1  0.78992947  0.40379389  -0.00530825  1
  Pd  Pd174  1  0.39725004  0.39396427  0.00883239  1
  Pd  Pd175  1  0.79841577  0.78596873  0.59252769  1
  Pd  Pd176  1  0.59949362  0.20245938  0.00581485  1
  Pd  Pd177  1  0.60496779  0.60053165  0.60383875  1
  Pd  Pd178  1  0.40766090  0.80833576  0.18891797  1
  Pd  Pd179  1  0.59058688  0.59669364  -0.00086848  1
  Pd  Pd180  1  0.79576456  0.60143846  0.19117312  1
  Pd  Pd181  1  0.20095220  0.59931810  0.20067769  1
  Pd  Pd182  1  0.00293264  0.00871602  0.81342357  1
  Pd  Pd183  1  -0.00608901  -0.00668067  0.59313891  1
  Pd  Pd184  1  0.20747455  0.20936864  0.01134580  1
  Pd  Pd185  1  0.79281754  0.40552737  0.81075289  1
  Pd  Pd186  1  0.19674845  0.60043356  0.59312514  1
  Pd  Pd187  1  0.38700426  0.20764506  0.59099311  1
  Pd  Pd188  1  0.80377795  0.60023698  0.39928546  1
  Pd  Pd189  1  0.40713863  0.79543061  0.00820887  1
  Pd  Pd190  1  -0.00487149  0.79878552  0.00257648  1
  Pd  Pd191  1  0.20116017  0.59811976  0.00424417  1
  Pd  Pd192  1  0.01296185  0.00019785  0.19729283  1
  Pd  Pd193  1  0.78691522  0.60925643  0.59819111  1
  Pd  Pd194  1  0.79709783  0.00660236  0.60681399  1
  Pd  Pd195  1  0.80202538  0.59358774  0.00391337  1
  Pd  Pd196  1  0.00586422  -0.00056356  0.40189173  1
  Pd  Pd197  1  0.59996320  0.40319736  0.60528203  1
  Pd  Pd198  1  0.40881500  -0.00460319  0.60981928  1
  Pd  Pd199  1  0.00889336  0.59800570  0.19496389  1
  Rh  Rh200  1  0.00794619  0.60513393  0.59386788  1
  Rh  Rh201  1  0.39383590  0.19373887  0.19211036  1
  Rh  Rh202  1  0.18452246  0.21052871  0.78580633  1
  Rh  Rh203  1  -0.00156860  0.39516753  -0.00077455  1
  Rh  Rh204  1  0.80014979  0.59587757  0.80432494  1
  Rh  Rh205  1  0.61410640  0.81090443  0.39035507  1
  Rh  Rh206  1  0.39909962  0.00699989  0.00237614  1
  Rh  Rh207  1  0.38972801  0.79224373  0.79749197  1
  Rh  Rh208  1  0.20286302  0.39190670  0.20175100  1
  Rh  Rh209  1  0.80626651  0.79106778  0.80519817  1
  Rh  Rh210  1  0.40064276  0.59883350  -0.00518700  1
  Rh  Rh211  1  0.39999502  0.19966415  0.40990977  1
  Rh  Rh212  1  0.20119874  0.00249662  0.00208984  1
  Rh  Rh213  1  0.40066090  0.40159304  0.20030201  1
  Rh  Rh214  1  0.20698874  0.79765733  0.39766931  1
  Rh  Rh215  1  0.60464783  0.40360771  0.79411285  1
  Rh  Rh216  1  0.41142072  0.19567642  0.80866280  1
  Rh  Rh217  1  0.60950095  -0.00175492  -0.00817947  1
  Rh  Rh218  1  0.60280193  0.79860643  0.60030388  1
  Rh  Rh219  1  0.19270563  0.80468943  0.60416049  1
  Rh  Rh220  1  0.79248573  -0.00354731  0.80287601  1
  Rh  Rh221  1  0.00125930  0.39244339  0.20326531  1
  Rh  Rh222  1  0.20978389  0.38924086  0.60842815  1
  Rh  Rh223  1  0.59851308  0.60394578  0.19592725  1
  Rh  Rh224  1  0.58967488  0.59210405  0.79803125  1
  Rh  Rh225  1  0.80915326  0.19622663  0.79617923  1
  Rh  Rh226  1  0.38913736  0.79120478  0.40161993  1
  Rh  Rh227  1  0.79998186  0.39391966  0.59538727  1
  Rh  Rh228  1  0.80062040  0.00165508  -0.00184558  1
  Rh  Rh229  1  0.80264818  0.19947037  0.20179641  1
  Rh  Rh230  1  0.19844067  0.00269527  0.60285173  1
  Rh  Rh231  1  0.60337442  0.80030482  0.80303366  1
  Rh  Rh232  1  0.80331684  0.00144585  0.39626535  1
  Rh  Rh233  1  0.20392287  0.81023967  0.18956585  1
  Rh  Rh234  1  0.59544238  0.79590006  0.00694537  1
  Rh  Rh235  1  0.20410394  0.79396193  -0.00115599  1
  Rh  Rh236  1  0.59211031  0.59242969  0.39833295  1
  Rh  Rh237  1  0.40343719  0.00399294  0.39575275  1
  Rh  Rh238  1  0.80831527  -0.00669693  0.19450111  1
  Rh  Rh239  1  0.40281660  0.40978133  0.39716828  1
  Rh  Rh240  1  0.19398526  0.40365421  0.39129142  1
  Rh  Rh241  1  -0.00719109  0.80234501  0.40748389  1
  Rh  Rh242  1  0.80823690  0.79934251  0.00720409  1
  Rh  Rh243  1  0.39589094  0.40736023  0.79102546  1
  Rh  Rh244  1  0.40010280  0.60134857  0.60054783  1
  Rh  Rh245  1  0.20527213  0.39695344  -0.00388778  1
  Rh  Rh246  1  -0.00326501  0.40341146  0.59763490  1
  Rh  Rh247  1  0.39791424  0.39670141  0.60381467  1
  Rh  Rh248  1  0.59648365  0.19419659  0.79508816  1
  Rh  Rh249  1  -0.00467737  0.80572350  0.18869773  1
