# generated using pymatgen
data_ZrScNbPdRh
_symmetry_space_group_name_H-M   'P 1'
_cell_length_a   16.56490001
_cell_length_b   16.56403323
_cell_length_c   16.56246223
_cell_angle_alpha   89.99835749
_cell_angle_beta   90.02072484
_cell_angle_gamma   89.98246683
_symmetry_Int_Tables_number   1
_chemical_formula_structural   ZrScNbPdRh
_chemical_formula_sum   'Zr50 Sc50 Nb50 Pd50 Rh50'
_cell_volume   4544.43361751
_cell_formula_units_Z   50
loop_
 _symmetry_equiv_pos_site_id
 _symmetry_equiv_pos_as_xyz
  1  'x, y, z'
loop_
 _atom_site_type_symbol
 _atom_site_label
 _atom_site_symmetry_multiplicity
 _atom_site_fract_x
 _atom_site_fract_y
 _atom_site_fract_z
 _atom_site_occupancy
  Zr  Zr0  1  0.70091514  0.09354205  0.49465076  1
  Zr  Zr1  1  0.69770942  0.70365593  0.49781346  1
  Zr  Zr2  1  0.10019507  0.69932995  0.30373704  1
  Zr  Zr3  1  0.10212024  0.50210097  0.10254313  1
  Zr  Zr4  1  0.69814892  0.50569112  0.51212303  1
  Zr  Zr5  1  0.70393974  0.49144546  0.29211643  1
  Zr  Zr6  1  0.50367801  0.30712609  0.70052914  1
  Zr  Zr7  1  0.89859013  0.09375786  0.50378534  1
  Zr  Zr8  1  0.49325282  0.09338291  0.90380218  1
  Zr  Zr9  1  0.50651631  0.70267767  0.70178022  1
  Zr  Zr10  1  0.70349099  0.31287067  0.70215564  1
  Zr  Zr11  1  0.50384320  0.70615774  0.29826490  1
  Zr  Zr12  1  0.49956537  0.90245256  0.29605203  1
  Zr  Zr13  1  0.89116798  0.50793374  0.69595032  1
  Zr  Zr14  1  0.30554585  0.90365461  0.69911128  1
  Zr  Zr15  1  0.69481989  0.09985541  0.11141061  1
  Zr  Zr16  1  0.69808636  0.09708744  0.89941672  1
  Zr  Zr17  1  0.69293907  0.89609054  0.90385634  1
  Zr  Zr18  1  0.49901182  0.30695792  0.89939225  1
  Zr  Zr19  1  0.10120404  0.90623466  0.90414621  1
  Zr  Zr20  1  0.10024531  0.30090826  0.30870097  1
  Zr  Zr21  1  0.50804653  0.49481046  0.70003388  1
  Zr  Zr22  1  0.89513457  0.10093023  0.30895398  1
  Zr  Zr23  1  0.69477046  0.09823559  0.30014322  1
  Zr  Zr24  1  0.09153353  0.49714938  0.69227534  1
  Zr  Zr25  1  0.90179076  0.69799397  0.28825137  1
  Zr  Zr26  1  0.29763686  0.50761816  0.90762105  1
  Zr  Zr27  1  0.89871241  0.70612922  0.90648369  1
  Zr  Zr28  1  0.49699856  0.69998848  0.10223206  1
  Zr  Zr29  1  0.90079788  0.88835897  0.09991672  1
  Zr  Zr30  1  0.10016732  0.89352820  0.29788592  1
  Zr  Zr31  1  0.50573611  0.69559487  0.49452636  1
  Zr  Zr32  1  0.30180003  0.30538520  0.30413348  1
  Zr  Zr33  1  0.89835890  0.30923406  0.30219579  1
  Zr  Zr34  1  0.89399926  0.70852578  0.50602995  1
  Zr  Zr35  1  0.30467585  0.50607155  0.10298108  1
  Zr  Zr36  1  0.49668489  0.49993382  0.29206687  1
  Zr  Zr37  1  0.29875248  0.09988861  0.91447425  1
  Zr  Zr38  1  0.31162781  0.09942135  0.49897870  1
  Zr  Zr39  1  0.29341198  0.70756184  0.70692427  1
  Zr  Zr40  1  0.10517023  0.29823514  0.69433902  1
  Zr  Zr41  1  0.29995786  0.50381623  0.48878487  1
  Zr  Zr42  1  0.90670631  0.09869649  0.90019305  1
  Zr  Zr43  1  0.50624342  0.50575519  0.09696190  1
  Zr  Zr44  1  0.70448816  0.09871136  0.70343560  1
  Zr  Zr45  1  0.90247905  0.89697453  0.29793638  1
  Zr  Zr46  1  0.68538919  0.89780342  0.70324127  1
  Zr  Zr47  1  0.30720365  0.09357079  0.30063780  1
  Zr  Zr48  1  0.09565300  0.30594655  0.50010588  1
  Zr  Zr49  1  0.90578532  0.29224436  0.49650723  1
  Sc  Sc50  1  0.90336964  0.89719965  0.68795487  1
  Sc  Sc51  1  0.08902471  0.89218531  0.49904432  1
  Sc  Sc52  1  0.90628921  0.49702127  0.50265727  1
  Sc  Sc53  1  0.50697616  0.50202848  0.49611582  1
  Sc  Sc54  1  0.09627432  0.31016409  0.10148528  1
  Sc  Sc55  1  0.69654252  0.70673294  0.29288318  1
  Sc  Sc56  1  0.08849736  0.69743593  0.10107463  1
  Sc  Sc57  1  0.90339630  0.50068778  0.11284381  1
  Sc  Sc58  1  0.49838676  0.29389225  0.49294858  1
  Sc  Sc59  1  0.89811128  0.29850520  0.89744925  1
  Sc  Sc60  1  0.29315140  0.29842517  0.89902168  1
  Sc  Sc61  1  0.90704881  0.09297297  0.10574956  1
  Sc  Sc62  1  0.70306698  0.89979798  0.49700338  1
  Sc  Sc63  1  0.71038151  0.30877272  0.89712924  1
  Sc  Sc64  1  0.10037335  0.09628614  0.90079562  1
  Sc  Sc65  1  0.89750624  0.89979343  0.49609659  1
  Sc  Sc66  1  0.10799870  0.69896846  0.49650063  1
  Sc  Sc67  1  0.09539779  0.49983700  0.30524623  1
  Sc  Sc68  1  0.90765243  0.09997492  0.70003347  1
  Sc  Sc69  1  0.50186684  0.09593895  0.49131248  1
  Sc  Sc70  1  0.10301373  0.08763012  0.09255387  1
  Sc  Sc71  1  0.69931046  0.30592161  0.10920364  1
  Sc  Sc72  1  0.09678890  0.29580299  0.90148584  1
  Sc  Sc73  1  0.10105928  0.50110364  0.49760019  1
  Sc  Sc74  1  0.49397814  0.09334877  0.09571254  1
  Sc  Sc75  1  0.69935122  0.70980226  0.90039663  1
  Sc  Sc76  1  0.70092261  0.29152295  0.29857906  1
  Sc  Sc77  1  0.29706955  0.30085703  0.09476370  1
  Sc  Sc78  1  0.89565692  0.50147339  0.89800487  1
  Sc  Sc79  1  0.50101457  0.70694602  0.91305583  1
  Sc  Sc80  1  0.30169538  0.89049307  0.49059152  1
  Sc  Sc81  1  0.10232483  0.69740507  0.69982569  1
  Sc  Sc82  1  0.29684349  0.29379519  0.49650776  1
  Sc  Sc83  1  0.09673494  0.09828556  0.69782568  1
  Sc  Sc84  1  0.50795262  0.29903215  0.29895274  1
  Sc  Sc85  1  0.90439408  0.30804470  0.09970119  1
  Sc  Sc86  1  0.50937942  0.90459757  0.50309979  1
  Sc  Sc87  1  0.49657135  0.89580196  0.09378852  1
  Sc  Sc88  1  0.69801913  0.50155331  0.10288094  1
  Sc  Sc89  1  0.10145827  0.50684261  0.90314841  1
  Sc  Sc90  1  0.30362750  0.90190989  0.89225175  1
  Sc  Sc91  1  0.10555180  0.89789295  0.70176336  1
  Sc  Sc92  1  0.70773484  0.69959231  0.69441348  1
  Sc  Sc93  1  0.08974652  0.11044304  0.49820516  1
  Sc  Sc94  1  0.09822168  0.90216310  0.10497647  1
  Sc  Sc95  1  0.28902577  0.49531871  0.70520433  1
  Sc  Sc96  1  0.69793563  0.30383977  0.49184015  1
  Sc  Sc97  1  0.49473700  0.08386290  0.69322919  1
  Sc  Sc98  1  0.69078388  0.70516098  0.10282396  1
  Sc  Sc99  1  0.30218488  0.10039594  0.69521512  1
  Nb  Nb100  1  0.29291166  0.69567261  0.90397661  1
  Nb  Nb101  1  0.69691056  0.50538195  0.90547631  1
  Nb  Nb102  1  0.49366286  0.89990271  0.70687047  1
  Nb  Nb103  1  0.90007266  0.69901309  0.70504152  1
  Nb  Nb104  1  0.29787938  0.50182790  0.29825652  1
  Nb  Nb105  1  0.30228186  0.29870618  0.69924146  1
  Nb  Nb106  1  0.89655498  0.30323268  0.70335555  1
  Nb  Nb107  1  0.50316993  0.90535185  0.88791812  1
  Nb  Nb108  1  0.30434244  0.69777053  0.49909880  1
  Nb  Nb109  1  0.69755889  0.90292550  0.29137836  1
  Nb  Nb110  1  0.29848024  0.71034286  0.30971292  1
  Nb  Nb111  1  0.30215559  0.09928379  0.09748098  1
  Nb  Nb112  1  0.49941276  0.29630447  0.09802833  1
  Nb  Nb113  1  0.69916547  0.90010977  0.10625211  1
  Nb  Nb114  1  0.10434362  0.70107971  0.90162115  1
  Nb  Nb115  1  0.30651798  0.70111367  0.09488603  1
  Nb  Nb116  1  0.69874031  0.50081597  0.70228852  1
  Nb  Nb117  1  0.50357823  0.10301207  0.29857027  1
  Nb  Nb118  1  0.89284813  0.69694095  0.10216750  1
  Nb  Nb119  1  0.89748817  0.50470464  0.29864270  1
  Nb  Nb120  1  0.89597092  0.89738779  0.90555488  1
  Nb  Nb121  1  0.29985124  0.89904552  0.10470090  1
  Nb  Nb122  1  0.09912399  0.09569488  0.29649451  1
  Nb  Nb123  1  0.50460240  0.50245278  0.90026283  1
  Nb  Nb124  1  0.29699018  0.89096851  0.29314353  1
  Nb  Nb125  1  0.20175731  -0.00016599  0.58739753  1
  Nb  Nb126  1  0.40467961  0.40547848  -0.00046712  1
  Nb  Nb127  1  0.39648299  0.19673648  0.19698059  1
  Nb  Nb128  1  0.80174895  0.59873253  0.39586341  1
  Nb  Nb129  1  0.60501649  0.19855471  0.60477237  1
  Nb  Nb130  1  0.80029319  0.60611723  0.00580365  1
  Nb  Nb131  1  0.40148949  0.20291780  0.79832327  1
  Nb  Nb132  1  0.60094003  0.59573808  0.80348752  1
  Nb  Nb133  1  0.40146449  0.79360286  0.60020152  1
  Nb  Nb134  1  0.39696852  0.60161634  0.60458619  1
  Nb  Nb135  1  0.20119406  0.19339826  0.20122883  1
  Nb  Nb136  1  0.79673696  0.19245952  0.00277149  1
  Nb  Nb137  1  0.21005987  0.60510305  0.20522756  1
  Nb  Nb138  1  -0.00277220  0.40082022  0.79150960  1
  Nb  Nb139  1  -0.00298403  0.79597340  0.80606921  1
  Nb  Nb140  1  0.80379373  -0.00698745  0.80666885  1
  Nb  Nb141  1  0.79845885  0.20286826  0.60324809  1
  Nb  Nb142  1  0.79903813  -0.00348639  0.00048180  1
  Nb  Nb143  1  0.60123547  0.20229969  -0.00231289  1
  Nb  Nb144  1  0.40296638  0.60011666  0.80309039  1
  Nb  Nb145  1  0.00802914  0.19689434  0.20731774  1
  Nb  Nb146  1  0.39683867  0.40193402  0.60128751  1
  Nb  Nb147  1  0.19936888  -0.00195246  0.39615297  1
  Nb  Nb148  1  0.59614828  0.20025107  0.80004992  1
  Nb  Nb149  1  0.20597479  0.79507782  0.00122691  1
  Pd  Pd150  1  0.39491648  0.80793673  -0.00753553  1
  Pd  Pd151  1  0.80333811  0.40592011  0.00623106  1
  Pd  Pd152  1  0.18838364  0.20294643  0.00949258  1
  Pd  Pd153  1  0.79094041  0.60215442  0.80868354  1
  Pd  Pd154  1  0.00411159  0.79315766  0.60704863  1
  Pd  Pd155  1  0.39943473  -0.01034944  0.40050318  1
  Pd  Pd156  1  0.00037739  0.60883863  0.59275769  1
  Pd  Pd157  1  0.79729745  0.79709935  0.39100987  1
  Pd  Pd158  1  0.40290544  -0.00018300  0.19602335  1
  Pd  Pd159  1  0.80617656  -0.00259610  0.19780390  1
  Pd  Pd160  1  0.79907390  -0.00247033  0.60723274  1
  Pd  Pd161  1  0.20270389  0.39912549  -0.00295202  1
  Pd  Pd162  1  -0.00385623  0.40605722  -0.01093637  1
  Pd  Pd163  1  -0.00797238  0.60387093  0.40613004  1
  Pd  Pd164  1  0.80415810  0.39556914  0.59197334  1
  Pd  Pd165  1  0.19736720  0.59670433  0.79684563  1
  Pd  Pd166  1  0.81283437  0.20491727  0.19273782  1
  Pd  Pd167  1  0.00186274  0.60214446  0.80450383  1
  Pd  Pd168  1  0.40889415  0.80526292  0.40429199  1
  Pd  Pd169  1  0.60093626  -0.00099684  0.00792621  1
  Pd  Pd170  1  0.19996072  0.19222828  0.59594252  1
  Pd  Pd171  1  -0.00162703  0.19868416  0.01194304  1
  Pd  Pd172  1  0.20512920  0.19263161  0.79908438  1
  Pd  Pd173  1  0.19836356  0.40178853  0.20312563  1
  Pd  Pd174  1  0.60110812  0.39472438  0.00301485  1
  Pd  Pd175  1  0.61139363  0.59570790  0.38745831  1
  Pd  Pd176  1  0.00541532  -0.00122679  0.40226755  1
  Pd  Pd177  1  0.40478005  0.39940065  0.40508962  1
  Pd  Pd178  1  0.59672318  0.80216976  0.59703943  1
  Pd  Pd179  1  0.20079987  0.19061234  0.39817712  1
  Pd  Pd180  1  0.20198318  0.00153049  0.20098334  1
  Pd  Pd181  1  0.18996179  0.40051801  0.80652240  1
  Pd  Pd182  1  0.80545450  0.80716842  0.79142211  1
  Pd  Pd183  1  0.19811655  0.78971532  0.18932678  1
  Pd  Pd184  1  0.40276285  0.39132109  0.19248736  1
  Pd  Pd185  1  0.39495743  0.61105831  0.21008320  1
  Pd  Pd186  1  0.59957755  0.40224110  0.39727848  1
  Pd  Pd187  1  0.20882592  0.40095245  0.59180416  1
  Pd  Pd188  1  0.39040798  0.40290713  0.80216072  1
  Pd  Pd189  1  0.41047069  0.20551135  0.60496751  1
  Pd  Pd190  1  0.00240604  0.20680198  0.79651195  1
  Pd  Pd191  1  -0.00488197  -0.01216509  0.79518566  1
  Pd  Pd192  1  0.40330185  0.79265520  0.80503094  1
  Pd  Pd193  1  0.20548096  0.59832540  0.59972087  1
  Pd  Pd194  1  0.40126610  0.60199753  0.39557309  1
  Pd  Pd195  1  0.20418516  0.00772340  0.79329888  1
  Pd  Pd196  1  -0.00784314  0.59498283  0.00026394  1
  Pd  Pd197  1  0.00942215  0.80098322  -0.00054194  1
  Pd  Pd198  1  0.20312965  0.80702098  0.59300332  1
  Pd  Pd199  1  0.80023626  0.40719101  0.40606743  1
  Rh  Rh200  1  0.60111687  0.60004657  0.20293100  1
  Rh  Rh201  1  -0.00612161  -0.00326300  0.00285147  1
  Rh  Rh202  1  0.59726727  0.39788018  0.20107669  1
  Rh  Rh203  1  0.60406125  0.80945346  0.39539703  1
  Rh  Rh204  1  0.59143464  -0.00230572  0.19808242  1
  Rh  Rh205  1  0.40581849  0.20302796  0.38813871  1
  Rh  Rh206  1  0.59941764  0.60177912  0.60868050  1
  Rh  Rh207  1  0.80376246  0.41252923  0.80163424  1
  Rh  Rh208  1  0.19804840  0.80407689  0.40416480  1
  Rh  Rh209  1  0.20292428  0.60064744  0.39296183  1
  Rh  Rh210  1  0.59892042  0.00416011  0.79490525  1
  Rh  Rh211  1  0.79619780  -0.00862282  0.39331247  1
  Rh  Rh212  1  -0.00174503  0.19791947  0.39280978  1
  Rh  Rh213  1  0.59447523  0.79391696  0.80424005  1
  Rh  Rh214  1  0.79064257  0.79957780  0.01143948  1
  Rh  Rh215  1  -0.00698481  0.20416242  0.60733355  1
  Rh  Rh216  1  0.79603417  0.79884366  0.19857855  1
  Rh  Rh217  1  0.00986373  -0.00139867  0.59619482  1
  Rh  Rh218  1  -0.00537789  0.39481477  0.60506553  1
  Rh  Rh219  1  0.39409705  0.00991011  0.80270472  1
  Rh  Rh220  1  0.59323052  0.39226645  0.58649956  1
  Rh  Rh221  1  0.39528283  -0.01334010  0.59015164  1
  Rh  Rh222  1  0.61390070  0.40416499  0.80956440  1
  Rh  Rh223  1  0.40396385  0.20981950  -0.00042166  1
  Rh  Rh224  1  0.60133473  0.19531939  0.40437731  1
  Rh  Rh225  1  -0.00279111  0.00075556  0.20259280  1
  Rh  Rh226  1  0.79761333  0.80311734  0.60467101  1
  Rh  Rh227  1  0.19075347  0.80247404  0.81014355  1
  Rh  Rh228  1  0.79285862  0.60195061  0.19909916  1
  Rh  Rh229  1  0.19918671  0.40484551  0.40220535  1
  Rh  Rh230  1  0.00708525  0.59667332  0.20104760  1
  Rh  Rh231  1  0.39401351  -0.01328349  -0.00076570  1
  Rh  Rh232  1  0.00194503  0.79740012  0.19756708  1
  Rh  Rh233  1  0.00241238  0.39818186  0.20787431  1
  Rh  Rh234  1  0.39853454  0.79813208  0.20193865  1
  Rh  Rh235  1  0.80015651  0.19200006  0.80089903  1
  Rh  Rh236  1  0.58799705  0.19808676  0.19339986  1
  Rh  Rh237  1  -0.00358367  0.79315840  0.39869983  1
  Rh  Rh238  1  0.60744602  0.60695097  -0.00320898  1
  Rh  Rh239  1  0.60210003  -0.00374581  0.39220934  1
  Rh  Rh240  1  0.79661888  0.19894688  0.40725247  1
  Rh  Rh241  1  -0.00246185  0.40607739  0.40036731  1
  Rh  Rh242  1  0.80075883  0.60419495  0.59510138  1
  Rh  Rh243  1  0.59578136  0.80748666  0.19567755  1
  Rh  Rh244  1  0.40638801  0.59729825  -0.00705658  1
  Rh  Rh245  1  0.80273176  0.39764487  0.19799466  1
  Rh  Rh246  1  0.59952246  0.00170998  0.60165189  1
  Rh  Rh247  1  0.59639698  0.80519878  0.00358536  1
  Rh  Rh248  1  0.20845608  -0.01169363  0.00409343  1
  Rh  Rh249  1  0.19472108  0.60915358  0.01429737  1
