# generated using pymatgen
data_ZrScNbPdRh
_symmetry_space_group_name_H-M   'P 1'
_cell_length_a   16.55682425
_cell_length_b   16.55901087
_cell_length_c   16.56056529
_cell_angle_alpha   90.00985143
_cell_angle_beta   89.95819543
_cell_angle_gamma   90.02118279
_symmetry_Int_Tables_number   1
_chemical_formula_structural   ZrScNbPdRh
_chemical_formula_sum   'Zr50 Sc50 Nb50 Pd50 Rh50'
_cell_volume   4540.31971700
_cell_formula_units_Z   50
loop_
 _symmetry_equiv_pos_site_id
 _symmetry_equiv_pos_as_xyz
  1  'x, y, z'
loop_
 _atom_site_type_symbol
 _atom_site_label
 _atom_site_symmetry_multiplicity
 _atom_site_fract_x
 _atom_site_fract_y
 _atom_site_fract_z
 _atom_site_occupancy
  Zr  Zr0  1  0.10003612  0.09970783  0.50785666  1
  Zr  Zr1  1  0.30190049  0.69761963  0.30063200  1
  Zr  Zr2  1  0.69437490  0.09343826  0.69416319  1
  Zr  Zr3  1  0.30029265  0.29917190  0.10207195  1
  Zr  Zr4  1  0.29158482  0.69561201  0.09446026  1
  Zr  Zr5  1  0.50889601  0.09643496  0.50825811  1
  Zr  Zr6  1  0.29551304  0.89510164  0.31205698  1
  Zr  Zr7  1  0.09578963  0.29473687  0.30096547  1
  Zr  Zr8  1  0.50269177  0.90051942  0.10463879  1
  Zr  Zr9  1  0.08897991  0.70154351  0.49417138  1
  Zr  Zr10  1  0.89327651  0.30706342  0.89213991  1
  Zr  Zr11  1  0.09687235  0.69830038  0.70308172  1
  Zr  Zr12  1  0.49840167  0.30330380  0.49994099  1
  Zr  Zr13  1  0.29159324  0.89218744  0.90207812  1
  Zr  Zr14  1  0.50197699  0.49960144  0.49537420  1
  Zr  Zr15  1  0.90064405  0.09685146  0.89552547  1
  Zr  Zr16  1  0.50039504  0.11009879  0.89352280  1
  Zr  Zr17  1  0.29508959  0.70267486  0.90301052  1
  Zr  Zr18  1  0.29254886  0.29446197  0.50864500  1
  Zr  Zr19  1  0.70838053  0.31053545  0.10132165  1
  Zr  Zr20  1  0.09564414  0.29867097  0.50101852  1
  Zr  Zr21  1  0.69395350  0.29923949  0.88799014  1
  Zr  Zr22  1  0.50436923  0.31336676  0.30009295  1
  Zr  Zr23  1  0.89317629  0.50598369  0.90144922  1
  Zr  Zr24  1  0.10576495  0.70616964  0.90243989  1
  Zr  Zr25  1  0.89798496  0.49522353  0.49742567  1
  Zr  Zr26  1  0.50062271  0.09854155  0.10251893  1
  Zr  Zr27  1  0.09967571  0.09791853  0.70342891  1
  Zr  Zr28  1  0.10361009  0.29272491  0.89312182  1
  Zr  Zr29  1  0.69771641  0.89810117  0.70437286  1
  Zr  Zr30  1  0.69566422  0.50487784  0.90190068  1
  Zr  Zr31  1  0.71264800  0.09739064  0.31413215  1
  Zr  Zr32  1  0.50812071  0.89898218  0.29961847  1
  Zr  Zr33  1  0.29908071  0.10253406  0.69414693  1
  Zr  Zr34  1  0.49406199  0.08816943  0.70056488  1
  Zr  Zr35  1  0.09716176  0.69747242  0.29522823  1
  Zr  Zr36  1  0.49771798  0.29224262  0.71147364  1
  Zr  Zr37  1  0.89395888  0.90103585  0.10330090  1
  Zr  Zr38  1  0.10440754  0.90197120  0.49833908  1
  Zr  Zr39  1  0.50379131  0.50396039  0.29969081  1
  Zr  Zr40  1  0.70359471  0.09909022  0.89503416  1
  Zr  Zr41  1  0.50474122  0.49730938  0.10817297  1
  Zr  Zr42  1  0.90615179  0.69906433  0.30696700  1
  Zr  Zr43  1  0.09958195  0.70141215  0.09631004  1
  Zr  Zr44  1  0.70551216  0.49471677  0.50123703  1
  Zr  Zr45  1  0.09656385  0.29743399  0.10363848  1
  Zr  Zr46  1  0.50230732  0.69657981  0.49820562  1
  Zr  Zr47  1  0.89962136  0.30671541  0.69626373  1
  Zr  Zr48  1  0.51217783  0.70878472  0.69605176  1
  Zr  Zr49  1  0.30112448  0.29814116  0.88820148  1
  Sc  Sc50  1  0.50896169  0.30031550  0.10602125  1
  Sc  Sc51  1  0.29748348  0.70112873  0.71614038  1
  Sc  Sc52  1  0.50232104  0.50864964  0.71301747  1
  Sc  Sc53  1  0.09684277  0.09848749  0.09757925  1
  Sc  Sc54  1  0.30522750  0.90640663  0.70404829  1
  Sc  Sc55  1  0.30034290  0.50430916  0.88195268  1
  Sc  Sc56  1  0.09889986  0.90670454  0.69881071  1
  Sc  Sc57  1  0.49707994  0.89060540  0.50852377  1
  Sc  Sc58  1  0.70606227  0.50771892  0.10096993  1
  Sc  Sc59  1  0.90168548  0.89794576  0.50085831  1
  Sc  Sc60  1  0.70073821  0.69646543  0.50326263  1
  Sc  Sc61  1  0.71148429  0.69536655  0.90192485  1
  Sc  Sc62  1  0.89776806  0.90034659  0.29718425  1
  Sc  Sc63  1  0.08668271  0.90185171  0.09281531  1
  Sc  Sc64  1  0.70249564  0.69715013  0.10036562  1
  Sc  Sc65  1  0.30985778  0.50328554  0.29462681  1
  Sc  Sc66  1  0.09591777  0.51539208  0.89593991  1
  Sc  Sc67  1  0.69885216  0.70432083  0.29873111  1
  Sc  Sc68  1  0.28941099  0.09624174  0.89265700  1
  Sc  Sc69  1  0.89815285  0.09609843  0.49692157  1
  Sc  Sc70  1  0.50389892  0.69895288  0.30602496  1
  Sc  Sc71  1  0.08775588  0.50288619  0.29901886  1
  Sc  Sc72  1  0.30048800  0.48361859  0.50222377  1
  Sc  Sc73  1  0.89205722  0.90531993  0.91089682  1
  Sc  Sc74  1  0.89922409  0.70386474  0.09505719  1
  Sc  Sc75  1  0.29432709  0.09971860  0.30127104  1
  Sc  Sc76  1  0.10059776  0.51326099  0.10201630  1
  Sc  Sc77  1  0.29443690  0.09818869  0.10089819  1
  Sc  Sc78  1  0.50353471  0.69375157  0.89359076  1
  Sc  Sc79  1  0.51131582  0.69704563  0.10192187  1
  Sc  Sc80  1  0.09461554  0.49237672  0.50119700  1
  Sc  Sc81  1  0.09853820  0.29736275  0.69346062  1
  Sc  Sc82  1  0.70534202  0.49890336  0.29753861  1
  Sc  Sc83  1  0.90372552  0.29762514  0.29392180  1
  Sc  Sc84  1  0.70318948  0.90033653  0.30048865  1
  Sc  Sc85  1  0.09927103  0.49949955  0.69795605  1
  Sc  Sc86  1  0.90267828  0.09762074  0.69550167  1
  Sc  Sc87  1  0.70054466  0.50145930  0.70331091  1
  Sc  Sc88  1  0.89079372  0.90042084  0.69262727  1
  Sc  Sc89  1  0.69962351  0.29725834  0.48944081  1
  Sc  Sc90  1  0.31238689  0.71404121  0.48731281  1
  Sc  Sc91  1  0.29298670  0.29995099  0.30617061  1
  Sc  Sc92  1  0.90125496  0.49914215  0.69919351  1
  Sc  Sc93  1  0.49422886  0.89700609  0.88829318  1
  Sc  Sc94  1  0.89746629  0.69822059  0.50642725  1
  Sc  Sc95  1  0.90577525  0.09461012  0.10917608  1
  Sc  Sc96  1  0.70130890  0.10542777  0.11107633  1
  Sc  Sc97  1  0.08906055  0.89439219  0.30723408  1
  Sc  Sc98  1  0.70394791  0.29736625  0.30033019  1
  Sc  Sc99  1  0.51214302  0.09170015  0.30073216  1
  Nb  Nb100  1  0.50361077  0.50108460  0.90090530  1
  Nb  Nb101  1  0.90001480  0.50009617  0.29247872  1
  Nb  Nb102  1  0.70626423  0.92033140  0.49894793  1
  Nb  Nb103  1  0.89637978  0.70614440  0.70526632  1
  Nb  Nb104  1  0.90193328  0.30533623  0.09583354  1
  Nb  Nb105  1  0.90544829  0.09741007  0.29802570  1
  Nb  Nb106  1  0.29594051  0.90218064  0.50048301  1
  Nb  Nb107  1  0.70275806  0.09729411  0.49867904  1
  Nb  Nb108  1  0.29790845  0.50346460  0.69454020  1
  Nb  Nb109  1  0.70529771  0.89497780  0.09617006  1
  Nb  Nb110  1  0.70536005  0.90496892  0.90788624  1
  Nb  Nb111  1  0.29473726  0.30694190  0.69828806  1
  Nb  Nb112  1  0.30102184  0.09246750  0.50546774  1
  Nb  Nb113  1  0.30291796  0.89721026  0.10038805  1
  Nb  Nb114  1  0.09653934  0.09185077  0.89664094  1
  Nb  Nb115  1  0.89259500  0.48344406  0.10221528  1
  Nb  Nb116  1  0.90490380  0.69741748  0.89502277  1
  Nb  Nb117  1  0.70663037  0.70393873  0.70102769  1
  Nb  Nb118  1  0.50158809  0.90211764  0.69932556  1
  Nb  Nb119  1  0.49911456  0.30161632  0.89916723  1
  Nb  Nb120  1  0.70113241  0.30416034  0.69786747  1
  Nb  Nb121  1  0.30060776  0.49917454  0.09974379  1
  Nb  Nb122  1  0.09914231  0.90891981  0.89523265  1
  Nb  Nb123  1  0.89786190  0.29909191  0.50624924  1
  Nb  Nb124  1  0.08804558  0.09914582  0.29545127  1
  Nb  Nb125  1  0.40200649  0.20178823  0.00052394  1
  Nb  Nb126  1  0.19502742  -0.00822601  0.20310158  1
  Nb  Nb127  1  0.20147826  0.40306393  0.00006991  1
  Nb  Nb128  1  0.39447415  0.60170451  0.60298433  1
  Nb  Nb129  1  0.20116996  0.80448154  0.19655799  1
  Nb  Nb130  1  -0.00454464  0.20310335  -0.00543341  1
  Nb  Nb131  1  0.40190865  0.59047697  -0.00066854  1
  Nb  Nb132  1  0.39511444  0.80185757  0.19796364  1
  Nb  Nb133  1  0.80628346  0.20529817  0.00075057  1
  Nb  Nb134  1  0.19997388  0.60033579  0.40556765  1
  Nb  Nb135  1  0.60789172  0.80870580  -0.00283130  1
  Nb  Nb136  1  0.60091750  -0.00349569  -0.00078462  1
  Nb  Nb137  1  0.59524372  0.40146116  -0.00566000  1
  Nb  Nb138  1  0.39760528  0.00124913  0.40811535  1
  Nb  Nb139  1  0.40099494  0.19392923  0.40357522  1
  Nb  Nb140  1  0.40275740  0.19970495  0.20429712  1
  Nb  Nb141  1  0.59987397  0.39648860  0.60353426  1
  Nb  Nb142  1  0.40147135  0.00028852  -0.00029748  1
  Nb  Nb143  1  0.00187883  0.39858063  0.00110881  1
  Nb  Nb144  1  0.19838529  0.40380112  0.19514488  1
  Nb  Nb145  1  0.20690082  0.60567350  0.59320618  1
  Nb  Nb146  1  0.40179701  0.40024103  -0.00433763  1
  Nb  Nb147  1  0.79549842  0.20239037  0.59548919  1
  Nb  Nb148  1  -0.00638933  0.79916339  0.80375480  1
  Nb  Nb149  1  0.20232403  0.79707513  0.59664349  1
  Pd  Pd150  1  0.79597408  0.01522630  0.01223648  1
  Pd  Pd151  1  0.39050055  0.79526338  0.61093058  1
  Pd  Pd152  1  0.20033304  0.19442439  0.20405210  1
  Pd  Pd153  1  -0.00643733  0.19754616  0.40426798  1
  Pd  Pd154  1  0.80023747  0.60170602  0.39677439  1
  Pd  Pd155  1  0.20037879  0.18972779  0.40273957  1
  Pd  Pd156  1  -0.01081862  -0.01255691  0.79676239  1
  Pd  Pd157  1  -0.00858572  0.59321462  0.00740239  1
  Pd  Pd158  1  0.60607326  0.20714765  0.60261070  1
  Pd  Pd159  1  0.79914880  0.59776779  0.79252333  1
  Pd  Pd160  1  0.80182235  0.79406776  0.20270554  1
  Pd  Pd161  1  0.80916150  0.19919569  0.19739037  1
  Pd  Pd162  1  0.79957045  0.19590948  0.78877474  1
  Pd  Pd163  1  -0.00440711  -0.00162754  0.40350416  1
  Pd  Pd164  1  0.80296691  0.60016019  0.60681604  1
  Pd  Pd165  1  0.60891669  0.79662465  0.81025498  1
  Pd  Pd166  1  -0.00116350  0.19972813  0.79799109  1
  Pd  Pd167  1  0.59850178  -0.00398839  0.80704233  1
  Pd  Pd168  1  0.59937611  0.20125038  0.21027796  1
  Pd  Pd169  1  0.39212702  0.39606598  0.39600079  1
  Pd  Pd170  1  0.80593113  0.39312486  0.39234103  1
  Pd  Pd171  1  0.40181803  0.40510622  0.79593419  1
  Pd  Pd172  1  0.19946209  0.19921108  -0.00439115  1
  Pd  Pd173  1  0.19648630  0.00875514  0.39517906  1
  Pd  Pd174  1  0.60519356  0.20289093  0.00291009  1
  Pd  Pd175  1  0.80472637  0.80624721  0.80892097  1
  Pd  Pd176  1  0.20074170  -0.00355845  0.00627518  1
  Pd  Pd177  1  0.38957077  0.00144157  0.20572941  1
  Pd  Pd178  1  0.60801097  0.80594952  0.40966165  1
  Pd  Pd179  1  0.79250218  0.80188760  0.59162322  1
  Pd  Pd180  1  0.19153256  0.40542819  0.79901568  1
  Pd  Pd181  1  0.00388881  0.80564786  0.60770750  1
  Pd  Pd182  1  0.61242105  0.80729806  0.59154065  1
  Pd  Pd183  1  0.00669724  0.40630264  0.80410296  1
  Pd  Pd184  1  0.19697325  0.41118382  0.38900683  1
  Pd  Pd185  1  0.40230293  0.79724665  0.79566596  1
  Pd  Pd186  1  0.61620673  -0.00228105  0.19798086  1
  Pd  Pd187  1  0.40052885  0.20113280  0.59968876  1
  Pd  Pd188  1  -0.00352794  0.80515512  -0.00847112  1
  Pd  Pd189  1  0.59844245  0.59252320  0.60522901  1
  Pd  Pd190  1  0.80540797  0.60545924  0.19923392  1
  Pd  Pd191  1  -0.01207074  0.59998054  0.19018618  1
  Pd  Pd192  1  0.40513929  0.61006273  0.19165808  1
  Pd  Pd193  1  0.41022148  0.40680220  0.61312481  1
  Pd  Pd194  1  -0.00167227  0.59621443  0.60135742  1
  Pd  Pd195  1  0.41357629  0.79470727  0.00395931  1
  Pd  Pd196  1  0.79850893  0.80229839  0.40638591  1
  Pd  Pd197  1  0.59533765  0.19909983  0.39508311  1
  Pd  Pd198  1  0.61139377  0.59840379  0.39566160  1
  Pd  Pd199  1  -0.00753892  0.39821049  0.39585452  1
  Rh  Rh200  1  0.39130803  0.19570059  0.79868025  1
  Rh  Rh201  1  0.20010540  0.59665310  0.21218270  1
  Rh  Rh202  1  -0.00114682  -0.00092165  0.59753698  1
  Rh  Rh203  1  0.79335061  0.39431595  0.59926750  1
  Rh  Rh204  1  0.60292864  0.19579450  0.79097357  1
  Rh  Rh205  1  0.79483718  0.39877151  -0.00865728  1
  Rh  Rh206  1  0.79892459  0.79243286  -0.00280812  1
  Rh  Rh207  1  -0.00834599  0.19815554  0.59874390  1
  Rh  Rh208  1  0.19708820  0.59835243  0.79408523  1
  Rh  Rh209  1  0.80111689  0.39821513  0.20891523  1
  Rh  Rh210  1  0.19935944  0.19665260  0.79125849  1
  Rh  Rh211  1  0.59885661  -0.01040704  0.59809896  1
  Rh  Rh212  1  0.41185855  0.81072116  0.39315661  1
  Rh  Rh213  1  0.59609365  0.60033350  -0.00130814  1
  Rh  Rh214  1  0.80187870  -0.00370800  0.79361360  1
  Rh  Rh215  1  0.00408284  -0.00485929  0.20331201  1
  Rh  Rh216  1  0.20183052  -0.00194851  0.79629328  1
  Rh  Rh217  1  0.60017989  0.40092612  0.79771818  1
  Rh  Rh218  1  0.40116311  -0.00754495  0.59637550  1
  Rh  Rh219  1  0.19712158  0.19993100  0.60330142  1
  Rh  Rh220  1  0.19467765  0.40150713  0.60485796  1
  Rh  Rh221  1  0.59391408  -0.00575632  0.40768322  1
  Rh  Rh222  1  0.19195960  0.79034482  0.40155489  1
  Rh  Rh223  1  0.79893202  0.00051407  0.20261600  1
  Rh  Rh224  1  0.21137221  0.58789095  -0.01074185  1
  Rh  Rh225  1  0.39583716  0.00051517  0.80615612  1
  Rh  Rh226  1  0.60483176  0.60105624  0.20664862  1
  Rh  Rh227  1  0.00533323  0.40431920  0.19586889  1
  Rh  Rh228  1  -0.00876193  0.80144723  0.40102399  1
  Rh  Rh229  1  0.00092972  0.40046379  0.59909154  1
  Rh  Rh230  1  0.39086117  0.59024284  0.41463449  1
  Rh  Rh231  1  0.80790709  0.60107975  0.00552612  1
  Rh  Rh232  1  0.80208301  0.00631730  0.59999552  1
  Rh  Rh233  1  0.79544400  0.40938119  0.79777610  1
  Rh  Rh234  1  0.60858014  0.61109353  0.79786328  1
  Rh  Rh235  1  0.80910980  0.20016687  0.40489072  1
  Rh  Rh236  1  0.18922743  0.81117051  0.00593816  1
  Rh  Rh237  1  -0.00392974  0.19733169  0.19516799  1
  Rh  Rh238  1  -0.00173748  0.00758776  -0.00220118  1
  Rh  Rh239  1  0.40161997  0.60523149  0.79934082  1
  Rh  Rh240  1  0.39247284  0.39080395  0.20264204  1
  Rh  Rh241  1  -0.00423101  0.60625435  0.79513340  1
  Rh  Rh242  1  0.81082122  -0.00254226  0.39777389  1
  Rh  Rh243  1  0.60850000  0.40457481  0.40239251  1
  Rh  Rh244  1  0.20135802  -0.00687952  0.60461880  1
  Rh  Rh245  1  -0.00335162  0.59298454  0.40411222  1
  Rh  Rh246  1  0.60029079  0.79795302  0.19438196  1
  Rh  Rh247  1  0.61257071  0.40564638  0.19692834  1
  Rh  Rh248  1  0.18774164  0.80975529  0.79297313  1
  Rh  Rh249  1  0.00082778  0.80035606  0.19880666  1
