# generated using pymatgen
data_ZrScNbPdRh
_symmetry_space_group_name_H-M   'P 1'
_cell_length_a   16.55368677
_cell_length_b   16.55515079
_cell_length_c   16.55363789
_cell_angle_alpha   90.00024119
_cell_angle_beta   90.02929100
_cell_angle_gamma   90.00566896
_symmetry_Int_Tables_number   1
_chemical_formula_structural   ZrScNbPdRh
_chemical_formula_sum   'Zr50 Sc50 Nb50 Pd50 Rh50'
_cell_volume   4536.50366320
_cell_formula_units_Z   50
loop_
 _symmetry_equiv_pos_site_id
 _symmetry_equiv_pos_as_xyz
  1  'x, y, z'
loop_
 _atom_site_type_symbol
 _atom_site_label
 _atom_site_symmetry_multiplicity
 _atom_site_fract_x
 _atom_site_fract_y
 _atom_site_fract_z
 _atom_site_occupancy
  Zr  Zr0  1  0.89332804  0.30285553  0.91150953  1
  Zr  Zr1  1  0.89802333  0.30925903  0.29726853  1
  Zr  Zr2  1  0.69826741  0.69051766  0.69427908  1
  Zr  Zr3  1  0.29398181  0.29888799  0.09922648  1
  Zr  Zr4  1  0.70827111  0.09497734  0.69688848  1
  Zr  Zr5  1  0.30201745  0.68882131  0.29870809  1
  Zr  Zr6  1  0.69339209  0.89706356  0.50693876  1
  Zr  Zr7  1  0.90343494  0.70132627  0.90470417  1
  Zr  Zr8  1  0.10998525  0.10052656  0.50636498  1
  Zr  Zr9  1  0.70158901  0.49989743  0.70517754  1
  Zr  Zr10  1  0.49587779  0.89715896  0.49476317  1
  Zr  Zr11  1  0.50553642  0.70623192  0.30484161  1
  Zr  Zr12  1  0.89433518  0.51271718  0.29565837  1
  Zr  Zr13  1  0.89452898  0.48998937  0.10000336  1
  Zr  Zr14  1  0.71082357  0.69549478  0.30593439  1
  Zr  Zr15  1  0.29675973  0.89818173  0.10039298  1
  Zr  Zr16  1  0.10025734  0.70097597  0.70936632  1
  Zr  Zr17  1  0.29801189  0.69317334  0.70624306  1
  Zr  Zr18  1  0.30775291  0.29851489  0.29793213  1
  Zr  Zr19  1  0.49836544  0.90325653  0.90035677  1
  Zr  Zr20  1  0.30707475  0.89376559  0.70096456  1
  Zr  Zr21  1  0.69995507  0.29834917  0.49748525  1
  Zr  Zr22  1  0.90058684  0.30088451  0.51519220  1
  Zr  Zr23  1  0.50386268  0.90121595  0.10084787  1
  Zr  Zr24  1  0.10165896  0.30084857  0.69938235  1
  Zr  Zr25  1  0.72128124  0.30430134  0.09674002  1
  Zr  Zr26  1  0.50011822  0.10663347  0.69946197  1
  Zr  Zr27  1  0.10817326  0.10029042  0.70638189  1
  Zr  Zr28  1  0.89603722  0.89243021  0.29499937  1
  Zr  Zr29  1  0.70765493  0.29772254  0.70758879  1
  Zr  Zr30  1  0.69903283  0.90086939  0.09474475  1
  Zr  Zr31  1  0.29362283  0.10154652  0.88646697  1
  Zr  Zr32  1  0.70490654  0.89984110  0.90368701  1
  Zr  Zr33  1  0.10672734  0.50484494  0.70828449  1
  Zr  Zr34  1  0.89379399  0.48975059  0.69957333  1
  Zr  Zr35  1  0.48567194  0.70471243  0.69810161  1
  Zr  Zr36  1  0.49996671  0.10175189  0.89629663  1
  Zr  Zr37  1  0.10588254  0.09922560  0.10929445  1
  Zr  Zr38  1  0.69329082  0.10100564  0.29845413  1
  Zr  Zr39  1  0.90231358  0.48900493  0.50056982  1
  Zr  Zr40  1  0.09688309  0.50556754  0.90120148  1
  Zr  Zr41  1  0.10133447  0.89857766  0.49843780  1
  Zr  Zr42  1  0.30595494  0.89251270  0.30559639  1
  Zr  Zr43  1  0.10361322  0.30268723  0.30074786  1
  Zr  Zr44  1  0.50180214  0.70022122  0.09980138  1
  Zr  Zr45  1  0.50379083  0.09905503  0.10519066  1
  Zr  Zr46  1  0.90088269  0.10404132  0.09469013  1
  Zr  Zr47  1  0.50323159  0.09767081  0.30050891  1
  Zr  Zr48  1  0.09051137  0.69551459  0.29447811  1
  Zr  Zr49  1  0.48958242  0.50657142  0.70547990  1
  Sc  Sc50  1  0.90312354  0.70128828  0.10715828  1
  Sc  Sc51  1  0.09794388  0.90221834  0.09471505  1
  Sc  Sc52  1  0.30718202  0.30105525  0.49899859  1
  Sc  Sc53  1  0.30435268  0.49479145  0.90342925  1
  Sc  Sc54  1  0.50454055  0.28335393  0.30071597  1
  Sc  Sc55  1  0.88969447  0.90130550  0.50074113  1
  Sc  Sc56  1  0.50156085  0.50099868  0.50554875  1
  Sc  Sc57  1  0.90123285  0.09210972  0.90088818  1
  Sc  Sc58  1  0.69767445  0.89430933  0.30994319  1
  Sc  Sc59  1  0.09783205  0.69676555  0.08862200  1
  Sc  Sc60  1  0.49784703  0.89783625  0.68999508  1
  Sc  Sc61  1  0.29965490  0.29365454  0.70091429  1
  Sc  Sc62  1  0.70359394  0.08786678  0.50206430  1
  Sc  Sc63  1  0.89439440  0.69872980  0.50303292  1
  Sc  Sc64  1  0.29575776  0.90451931  0.89774693  1
  Sc  Sc65  1  0.70357928  0.70283258  0.08563592  1
  Sc  Sc66  1  0.69834334  0.09776410  0.88740103  1
  Sc  Sc67  1  0.10105362  0.69576809  0.50008175  1
  Sc  Sc68  1  0.49054291  0.50666109  0.09310266  1
  Sc  Sc69  1  0.70081243  0.29119548  0.29381883  1
  Sc  Sc70  1  0.89838574  0.50047177  0.90012955  1
  Sc  Sc71  1  0.29796017  0.10237969  0.69041632  1
  Sc  Sc72  1  0.09630141  0.30999610  0.50025312  1
  Sc  Sc73  1  0.10502428  0.90627559  0.29473779  1
  Sc  Sc74  1  0.29620346  0.68801862  0.09933321  1
  Sc  Sc75  1  0.49559406  0.30697819  0.88431500  1
  Sc  Sc76  1  0.49644006  0.09869482  0.49425253  1
  Sc  Sc77  1  0.49713332  0.68786007  0.89838467  1
  Sc  Sc78  1  0.30351206  0.90670262  0.49776658  1
  Sc  Sc79  1  0.69867542  0.10546990  0.10427810  1
  Sc  Sc80  1  0.50207840  0.90090731  0.30002534  1
  Sc  Sc81  1  0.09169715  0.50265841  0.09606185  1
  Sc  Sc82  1  0.90486098  0.90536913  0.90712599  1
  Sc  Sc83  1  0.09615581  0.89883369  0.89474894  1
  Sc  Sc84  1  0.49209311  0.50869757  0.30037829  1
  Sc  Sc85  1  0.29589995  0.09988606  0.10080911  1
  Sc  Sc86  1  0.49344025  0.30039898  0.10678762  1
  Sc  Sc87  1  0.30180520  0.50582213  0.49062454  1
  Sc  Sc88  1  0.30022641  0.09648628  0.29354429  1
  Sc  Sc89  1  0.30189697  0.70138892  0.49998286  1
  Sc  Sc90  1  0.70117741  0.50731518  0.50685174  1
  Sc  Sc91  1  0.90207488  0.69554114  0.70335315  1
  Sc  Sc92  1  0.69154144  0.69615604  0.49989356  1
  Sc  Sc93  1  0.91213612  0.89642378  0.71017072  1
  Sc  Sc94  1  0.10524108  0.30735273  0.90478470  1
  Sc  Sc95  1  0.50289001  0.69881384  0.50449593  1
  Sc  Sc96  1  0.09314123  0.50200169  0.31275537  1
  Sc  Sc97  1  0.49620737  0.29509608  0.49512061  1
  Sc  Sc98  1  0.09749691  0.09155637  0.89916687  1
  Sc  Sc99  1  0.49946422  0.30815546  0.69460083  1
  Nb  Nb100  1  0.69551906  0.30522876  0.89879157  1
  Nb  Nb101  1  0.10623658  0.69869334  0.90235198  1
  Nb  Nb102  1  0.09836739  0.49837829  0.50609497  1
  Nb  Nb103  1  0.29909523  0.29623205  0.90648486  1
  Nb  Nb104  1  0.70105240  0.50300383  0.29762896  1
  Nb  Nb105  1  0.30408170  0.10539641  0.50132874  1
  Nb  Nb106  1  0.29380778  0.70912744  0.90075831  1
  Nb  Nb107  1  0.70347002  0.69417555  0.89517014  1
  Nb  Nb108  1  0.89318636  0.90504839  0.09556244  1
  Nb  Nb109  1  0.89708370  0.29730040  0.70226783  1
  Nb  Nb110  1  0.90000550  0.10662555  0.69226301  1
  Nb  Nb111  1  0.90651923  0.30002497  0.10033667  1
  Nb  Nb112  1  0.90135871  0.09910735  0.29894860  1
  Nb  Nb113  1  0.29549707  0.51107917  0.69423893  1
  Nb  Nb114  1  0.69620379  0.50926439  0.90257684  1
  Nb  Nb115  1  0.89928085  0.09866255  0.50484071  1
  Nb  Nb116  1  0.50418754  0.49911395  0.90138688  1
  Nb  Nb117  1  0.69991478  0.50306318  0.10023460  1
  Nb  Nb118  1  0.30476816  0.49662291  0.11300751  1
  Nb  Nb119  1  0.89924239  0.70296620  0.30050862  1
  Nb  Nb120  1  0.29750209  0.50158071  0.29132156  1
  Nb  Nb121  1  0.09648915  0.30025284  0.10250954  1
  Nb  Nb122  1  0.09706350  0.89948791  0.69929935  1
  Nb  Nb123  1  0.69950519  0.89852512  0.69951223  1
  Nb  Nb124  1  0.09847781  0.10258883  0.29926025  1
  Nb  Nb125  1  0.20203569  0.40505472  0.19983927  1
  Nb  Nb126  1  -0.00122125  0.19432712  0.39889149  1
  Nb  Nb127  1  -0.00701651  0.20380507  0.79640750  1
  Nb  Nb128  1  0.60501400  0.40771892  0.19727887  1
  Nb  Nb129  1  0.19848816  0.19734636  0.39929223  1
  Nb  Nb130  1  -0.00080731  0.20385188  0.19951048  1
  Nb  Nb131  1  0.79360105  0.79712359  0.80179412  1
  Nb  Nb132  1  0.19597622  0.80062958  0.60607821  1
  Nb  Nb133  1  -0.00283092  0.00401740  0.40144347  1
  Nb  Nb134  1  0.60455369  0.19902938  0.60238448  1
  Nb  Nb135  1  0.80378194  -0.00154389  0.19949818  1
  Nb  Nb136  1  0.00079436  0.00335150  0.59950383  1
  Nb  Nb137  1  0.60569904  0.79746926  0.79864141  1
  Nb  Nb138  1  0.60734451  0.59731941  0.19862166  1
  Nb  Nb139  1  0.20049700  0.79431525  0.20083813  1
  Nb  Nb140  1  0.39973329  0.20075529  -0.00689323  1
  Nb  Nb141  1  0.39640643  0.79942433  -0.00117139  1
  Nb  Nb142  1  0.80983516  0.19384392  0.40185313  1
  Nb  Nb143  1  0.00437848  0.59216496  0.60249367  1
  Nb  Nb144  1  0.20156736  0.41104475  0.60143454  1
  Nb  Nb145  1  0.59801755  0.21118940  -0.00637179  1
  Nb  Nb146  1  0.60242913  0.40331933  -0.00165677  1
  Nb  Nb147  1  0.79476765  0.80187301  0.61022142  1
  Nb  Nb148  1  0.60416546  0.40456391  0.39102209  1
  Nb  Nb149  1  -0.00445315  0.80188936  0.39504588  1
  Pd  Pd150  1  0.39892322  0.00066472  0.20151759  1
  Pd  Pd151  1  -0.00014107  0.80309448  0.00072459  1
  Pd  Pd152  1  0.00745663  0.19740276  0.60116958  1
  Pd  Pd153  1  0.81004011  -0.00706223  0.79481956  1
  Pd  Pd154  1  0.20755160  0.59094223  -0.00018700  1
  Pd  Pd155  1  0.60725315  0.01318837  -0.00169895  1
  Pd  Pd156  1  0.18715449  0.59591265  0.19744845  1
  Pd  Pd157  1  0.39993255  0.00115890  0.79127590  1
  Pd  Pd158  1  0.00713065  0.80393818  0.19674336  1
  Pd  Pd159  1  0.79083606  0.19015599  -0.01014250  1
  Pd  Pd160  1  0.19771116  0.59996511  0.40126520  1
  Pd  Pd161  1  0.80090270  0.00190345  0.39339746  1
  Pd  Pd162  1  0.60106986  0.40451559  0.80095034  1
  Pd  Pd163  1  0.39763211  0.20457304  0.79847382  1
  Pd  Pd164  1  0.19656386  0.19510716  -0.00485621  1
  Pd  Pd165  1  0.40702151  0.39297577  -0.00100437  1
  Pd  Pd166  1  -0.00537226  0.59990735  0.79928517  1
  Pd  Pd167  1  0.38914652  0.40275010  0.79626264  1
  Pd  Pd168  1  0.59608496  -0.00843270  0.79337221  1
  Pd  Pd169  1  0.79256657  0.79940180  0.19324132  1
  Pd  Pd170  1  0.39129915  0.60292894  -0.00526760  1
  Pd  Pd171  1  0.39285332  0.79231447  0.19303329  1
  Pd  Pd172  1  0.19418257  0.79214967  0.39791385  1
  Pd  Pd173  1  0.59352219  0.60470728  0.79501415  1
  Pd  Pd174  1  0.80752771  0.19679458  0.80894181  1
  Pd  Pd175  1  -0.00335450  0.39270752  0.80510990  1
  Pd  Pd176  1  -0.00217614  0.79779934  0.59280163  1
  Pd  Pd177  1  0.00762999  0.40464767  0.20317946  1
  Pd  Pd178  1  0.20414378  -0.00874166  0.60563572  1
  Pd  Pd179  1  0.39038022  0.40451493  0.60044131  1
  Pd  Pd180  1  0.19727826  -0.00027941  -0.00332524  1
  Pd  Pd181  1  0.19765865  0.80717589  0.79856792  1
  Pd  Pd182  1  -0.00455084  0.00085469  0.19833225  1
  Pd  Pd183  1  0.61161133  0.79465911  0.20354540  1
  Pd  Pd184  1  0.60231223  0.39672939  0.59347196  1
  Pd  Pd185  1  0.20274750  0.00664348  0.39458057  1
  Pd  Pd186  1  0.21114801  0.39941858  0.79699624  1
  Pd  Pd187  1  0.80692225  0.60014901  0.00518749  1
  Pd  Pd188  1  0.40786355  0.40082817  0.20664194  1
  Pd  Pd189  1  0.59236358  0.79194578  -0.01258586  1
  Pd  Pd190  1  0.20550902  0.39890823  0.40243659  1
  Pd  Pd191  1  0.79311843  0.39758120  0.39694353  1
  Pd  Pd192  1  0.80225865  0.59908485  0.41062000  1
  Pd  Pd193  1  0.41080156  0.40175678  0.39459208  1
  Pd  Pd194  1  0.40609480  0.60218736  0.40485161  1
  Pd  Pd195  1  0.59115445  0.00563801  0.59866556  1
  Pd  Pd196  1  0.19796975  0.40892199  0.00875332  1
  Pd  Pd197  1  0.00957342  0.19838667  -0.00341574  1
  Pd  Pd198  1  -0.00673669  0.60557309  0.40935708  1
  Pd  Pd199  1  0.39345867  0.00299633  0.00043679  1
  Rh  Rh200  1  0.59722324  -0.00156510  0.40066041  1
  Rh  Rh201  1  0.39760133  0.59965079  0.59464691  1
  Rh  Rh202  1  0.00121475  0.40046504  -0.00164614  1
  Rh  Rh203  1  0.60070891  0.79843235  0.40344277  1
  Rh  Rh204  1  0.80408346  0.59999994  0.80218099  1
  Rh  Rh205  1  0.20452892  0.21649502  0.58791702  1
  Rh  Rh206  1  0.19804512  0.20840153  0.20498445  1
  Rh  Rh207  1  0.60963080  -0.01042934  0.20467899  1
  Rh  Rh208  1  0.79388729  0.40981879  -0.00849405  1
  Rh  Rh209  1  -0.00349699  0.59659132  0.19594959  1
  Rh  Rh210  1  0.59763037  0.59435928  0.39480229  1
  Rh  Rh211  1  0.79107312  0.39973680  0.60274526  1
  Rh  Rh212  1  0.00804947  0.40699358  0.61315713  1
  Rh  Rh213  1  0.19092002  0.20662129  0.80867058  1
  Rh  Rh214  1  0.79535593  0.00634036  0.00585961  1
  Rh  Rh215  1  0.59948826  0.59597287  0.00415840  1
  Rh  Rh216  1  0.81242048  -0.01139240  0.61216613  1
  Rh  Rh217  1  0.40822341  0.19943032  0.59789219  1
  Rh  Rh218  1  0.80946039  0.19418053  0.20511787  1
  Rh  Rh219  1  0.79818338  0.40240595  0.80867615  1
  Rh  Rh220  1  0.80615105  0.79862598  -0.00523357  1
  Rh  Rh221  1  0.40196690  0.79580564  0.40267506  1
  Rh  Rh222  1  0.39994699  0.00385122  0.59742347  1
  Rh  Rh223  1  0.60174841  0.79502617  0.60572081  1
  Rh  Rh224  1  0.20496156  -0.00936721  0.20325093  1
  Rh  Rh225  1  0.39762024  0.19236238  0.19265666  1
  Rh  Rh226  1  0.00355157  -0.00013503  0.00570412  1
  Rh  Rh227  1  0.40886378  0.60357508  0.20050326  1
  Rh  Rh228  1  -0.00459336  0.60010671  0.00026303  1
  Rh  Rh229  1  -0.00459029  0.39904548  0.39938278  1
  Rh  Rh230  1  0.60828916  0.19930207  0.41050479  1
  Rh  Rh231  1  0.20337135  0.79961934  0.00380888  1
  Rh  Rh232  1  0.80079977  0.79457410  0.41353633  1
  Rh  Rh233  1  0.60421100  0.21472228  0.18352663  1
  Rh  Rh234  1  0.20790888  0.59845621  0.81588400  1
  Rh  Rh235  1  0.79110077  0.20136284  0.59371546  1
  Rh  Rh236  1  0.80888576  0.60173644  0.60016119  1
  Rh  Rh237  1  -0.00104980  0.79613579  0.81006515  1
  Rh  Rh238  1  0.60030455  0.20354461  0.79478169  1
  Rh  Rh239  1  0.39855763  0.00381443  0.39763926  1
  Rh  Rh240  1  0.19723668  0.60202367  0.59397864  1
  Rh  Rh241  1  0.20048824  -0.00648215  0.79444607  1
  Rh  Rh242  1  0.39219555  0.59583458  0.80952119  1
  Rh  Rh243  1  0.79736701  0.40332862  0.20413167  1
  Rh  Rh244  1  0.59037977  0.59698546  0.60621106  1
  Rh  Rh245  1  0.39218642  0.19275204  0.39626136  1
  Rh  Rh246  1  0.38968063  0.80055633  0.59151085  1
  Rh  Rh247  1  0.40777546  0.79811170  0.81365820  1
  Rh  Rh248  1  -0.00266416  0.01071923  0.79080230  1
  Rh  Rh249  1  0.79720400  0.60704468  0.19282986  1
