# generated using pymatgen
data_ZrScNbPdRh
_symmetry_space_group_name_H-M   'P 1'
_cell_length_a   16.56504265
_cell_length_b   16.55990254
_cell_length_c   16.56641476
_cell_angle_alpha   89.99661204
_cell_angle_beta   89.98939793
_cell_angle_gamma   90.01231875
_symmetry_Int_Tables_number   1
_chemical_formula_structural   ZrScNbPdRh
_chemical_formula_sum   'Zr50 Sc50 Nb50 Pd50 Rh50'
_cell_volume   4544.42402314
_cell_formula_units_Z   50
loop_
 _symmetry_equiv_pos_site_id
 _symmetry_equiv_pos_as_xyz
  1  'x, y, z'
loop_
 _atom_site_type_symbol
 _atom_site_label
 _atom_site_symmetry_multiplicity
 _atom_site_fract_x
 _atom_site_fract_y
 _atom_site_fract_z
 _atom_site_occupancy
  Zr  Zr0  1  0.30282118  0.50903676  0.50954136  1
  Zr  Zr1  1  0.69685016  0.89073800  0.70364932  1
  Zr  Zr2  1  0.70726281  0.89444161  0.90127730  1
  Zr  Zr3  1  0.09676814  0.09837286  0.30209867  1
  Zr  Zr4  1  0.70161706  0.50070492  0.70104686  1
  Zr  Zr5  1  0.70241704  0.69787365  0.89886607  1
  Zr  Zr6  1  0.29742944  0.50047197  0.29461907  1
  Zr  Zr7  1  0.30044103  0.49861267  0.09827618  1
  Zr  Zr8  1  0.70099155  0.70017081  0.50020517  1
  Zr  Zr9  1  0.49349939  0.50695195  0.10103139  1
  Zr  Zr10  1  0.90576430  0.30760281  0.50338644  1
  Zr  Zr11  1  0.70474216  0.69351915  0.69788071  1
  Zr  Zr12  1  0.49900552  0.51045522  0.29912271  1
  Zr  Zr13  1  0.30363266  0.89925656  0.49605073  1
  Zr  Zr14  1  0.11024327  0.50975439  0.70398392  1
  Zr  Zr15  1  0.09595234  0.70847193  0.89608173  1
  Zr  Zr16  1  0.70143717  0.50452180  0.89020261  1
  Zr  Zr17  1  0.90743219  0.71173058  0.29061326  1
  Zr  Zr18  1  0.90434538  0.50129475  0.10009466  1
  Zr  Zr19  1  0.29010062  0.69283162  0.69659306  1
  Zr  Zr20  1  0.49719780  0.10018374  0.69886229  1
  Zr  Zr21  1  0.29692376  0.09523301  0.50397781  1
  Zr  Zr22  1  0.49256898  0.30073110  0.90004023  1
  Zr  Zr23  1  0.50313771  0.70040885  0.10482890  1
  Zr  Zr24  1  0.90232331  0.89260503  0.10447541  1
  Zr  Zr25  1  0.09840585  0.10146672  0.09431556  1
  Zr  Zr26  1  0.48878594  0.69758679  0.49091996  1
  Zr  Zr27  1  0.50409953  0.49606600  0.90418817  1
  Zr  Zr28  1  0.49152472  0.10071369  0.50148399  1
  Zr  Zr29  1  0.71172707  0.08766096  0.89743838  1
  Zr  Zr30  1  0.09604437  0.09186738  0.50486881  1
  Zr  Zr31  1  0.30093862  0.09398100  0.09457186  1
  Zr  Zr32  1  0.10189548  0.70040234  0.49507955  1
  Zr  Zr33  1  0.70493403  0.70071343  0.09625035  1
  Zr  Zr34  1  0.90447955  0.10138841  0.30167176  1
  Zr  Zr35  1  0.29888239  0.70598529  0.31094826  1
  Zr  Zr36  1  0.09304426  0.50790545  0.10047869  1
  Zr  Zr37  1  0.89410317  0.30168140  0.10399177  1
  Zr  Zr38  1  0.49896897  0.49972069  0.69651170  1
  Zr  Zr39  1  0.29478580  0.30044204  0.08865463  1
  Zr  Zr40  1  0.69724583  0.29703157  0.10188589  1
  Zr  Zr41  1  0.90048081  0.10156314  0.50665645  1
  Zr  Zr42  1  0.49688055  0.70346308  0.29436703  1
  Zr  Zr43  1  0.09339347  0.49860512  0.49811412  1
  Zr  Zr44  1  0.89969284  0.49721531  0.49668893  1
  Zr  Zr45  1  0.09942813  0.29899507  0.50915142  1
  Zr  Zr46  1  0.69133594  0.90265994  0.30801484  1
  Zr  Zr47  1  0.49212770  0.90569439  0.10204807  1
  Zr  Zr48  1  0.71143040  0.49918600  0.50312531  1
  Zr  Zr49  1  0.68800355  0.69930553  0.29942033  1
  Sc  Sc50  1  0.10042564  0.29923784  0.09182002  1
  Sc  Sc51  1  0.51963898  0.89832370  0.90329661  1
  Sc  Sc52  1  0.09599368  0.50363443  0.29888587  1
  Sc  Sc53  1  0.30097850  0.90213775  0.69487966  1
  Sc  Sc54  1  0.29121547  0.90324721  0.90020016  1
  Sc  Sc55  1  0.90924657  0.89898787  0.50821622  1
  Sc  Sc56  1  0.89785270  0.50406900  0.90257447  1
  Sc  Sc57  1  0.70979268  0.30219208  0.70409277  1
  Sc  Sc58  1  0.49303309  0.29227263  0.69654476  1
  Sc  Sc59  1  0.69682658  0.89907510  0.50335343  1
  Sc  Sc60  1  0.09959965  0.69933293  0.30163772  1
  Sc  Sc61  1  0.30048762  0.70279164  0.90358224  1
  Sc  Sc62  1  0.29383843  0.09365745  0.70009898  1
  Sc  Sc63  1  0.90371866  0.10083915  0.70783140  1
  Sc  Sc64  1  0.49533646  0.30971461  0.09092662  1
  Sc  Sc65  1  0.51192122  0.70270341  0.69397873  1
  Sc  Sc66  1  0.28703844  0.50180183  0.90133533  1
  Sc  Sc67  1  0.89675809  0.30297222  0.30247744  1
  Sc  Sc68  1  0.29408984  0.30117889  0.29332200  1
  Sc  Sc69  1  0.90390796  0.69981744  0.51309991  1
  Sc  Sc70  1  0.30462879  0.09353504  0.30196616  1
  Sc  Sc71  1  0.10023525  0.09967632  0.70303793  1
  Sc  Sc72  1  0.90797816  0.30218227  0.88664385  1
  Sc  Sc73  1  0.49514009  0.89839260  0.50028029  1
  Sc  Sc74  1  0.30420830  0.90188221  0.09036520  1
  Sc  Sc75  1  0.29800507  0.09952553  0.90192385  1
  Sc  Sc76  1  0.70550377  0.89634116  0.08997457  1
  Sc  Sc77  1  0.71247824  0.10155365  0.70065535  1
  Sc  Sc78  1  0.31360854  0.70277860  0.10008253  1
  Sc  Sc79  1  0.70314608  0.10139393  0.10768078  1
  Sc  Sc80  1  0.90185107  0.90976051  0.90607410  1
  Sc  Sc81  1  0.28718924  0.28677720  0.70821084  1
  Sc  Sc82  1  0.50597431  0.69648330  0.90800248  1
  Sc  Sc83  1  0.90898453  0.09963897  0.09796504  1
  Sc  Sc84  1  0.09760181  0.49546841  0.90063252  1
  Sc  Sc85  1  0.49995633  0.90193931  0.30242225  1
  Sc  Sc86  1  0.70404339  0.50489048  0.31032025  1
  Sc  Sc87  1  0.70250285  0.31264558  0.89453811  1
  Sc  Sc88  1  0.50427681  0.09155691  0.29539311  1
  Sc  Sc89  1  0.69301726  0.10400156  0.29836827  1
  Sc  Sc90  1  0.70522164  0.29170019  0.29432158  1
  Sc  Sc91  1  0.70565822  0.49596320  0.08848250  1
  Sc  Sc92  1  0.09962875  0.30431667  0.30183309  1
  Sc  Sc93  1  0.08635034  0.89498259  0.31199818  1
  Sc  Sc94  1  0.71651252  0.29897851  0.50364401  1
  Sc  Sc95  1  0.30612858  0.90089233  0.29918200  1
  Sc  Sc96  1  0.90776994  0.70045402  0.09228376  1
  Sc  Sc97  1  0.50132596  0.28972881  0.29530331  1
  Sc  Sc98  1  0.09037729  0.70194959  0.70268661  1
  Sc  Sc99  1  0.09569388  0.89951376  0.70923915  1
  Nb  Nb100  1  0.90223223  0.88394507  0.69284543  1
  Nb  Nb101  1  0.08391479  0.08972501  0.89769113  1
  Nb  Nb102  1  0.90072815  0.10432698  0.90088362  1
  Nb  Nb103  1  0.10064755  0.89963448  0.09069591  1
  Nb  Nb104  1  0.50310730  0.09662691  0.90224625  1
  Nb  Nb105  1  0.09762355  0.30089345  0.70845297  1
  Nb  Nb106  1  0.50032775  0.89732973  0.70102338  1
  Nb  Nb107  1  0.49305571  0.29618985  0.50138988  1
  Nb  Nb108  1  0.09423621  0.70368327  0.10147460  1
  Nb  Nb109  1  0.10255281  0.90942831  0.90357213  1
  Nb  Nb110  1  0.10970266  0.30233628  0.88769670  1
  Nb  Nb111  1  0.49330163  0.49188490  0.50043957  1
  Nb  Nb112  1  0.29743402  0.50298881  0.70236995  1
  Nb  Nb113  1  0.29874703  0.29742723  0.49934980  1
  Nb  Nb114  1  0.90456954  0.30442813  0.70251888  1
  Nb  Nb115  1  0.90033766  0.50122545  0.29949017  1
  Nb  Nb116  1  0.90458242  0.70250420  0.70294789  1
  Nb  Nb117  1  0.89754780  0.90152191  0.30486674  1
  Nb  Nb118  1  0.29952250  0.70727195  0.49974716  1
  Nb  Nb119  1  0.49706250  0.09970974  0.09578199  1
  Nb  Nb120  1  0.89810419  0.50654472  0.69346951  1
  Nb  Nb121  1  0.29105717  0.30707737  0.90138989  1
  Nb  Nb122  1  0.09910011  0.89766254  0.50121400  1
  Nb  Nb123  1  0.69940586  0.09798326  0.50439600  1
  Nb  Nb124  1  0.89948396  0.69818941  0.89386504  1
  Nb  Nb125  1  0.59846653  0.40498075  0.20437884  1
  Nb  Nb126  1  0.59413098  0.39536799  0.59018639  1
  Nb  Nb127  1  0.40189924  0.39699814  0.40533552  1
  Nb  Nb128  1  0.80801983  0.79531450  0.79821568  1
  Nb  Nb129  1  0.59790086  0.20283607  0.41503729  1
  Nb  Nb130  1  0.38920056  0.40250150  0.79774367  1
  Nb  Nb131  1  0.80274536  0.80464215  0.39838342  1
  Nb  Nb132  1  0.59892999  0.00305627  0.60367544  1
  Nb  Nb133  1  0.20234026  0.39908747  0.60530088  1
  Nb  Nb134  1  0.60030207  0.19427643  0.80760379  1
  Nb  Nb135  1  0.80104538  -0.00008444  0.40118632  1
  Nb  Nb136  1  0.39971156  0.59839227  0.79798899  1
  Nb  Nb137  1  0.40571583  0.80115488  0.79554465  1
  Nb  Nb138  1  0.19957940  0.79897901  0.59207636  1
  Nb  Nb139  1  0.80506734  0.60073393  0.20188809  1
  Nb  Nb140  1  0.39938752  0.19543724  0.18914670  1
  Nb  Nb141  1  0.40916529  -0.00491127  0.80223162  1
  Nb  Nb142  1  0.80467172  -0.00506328  0.20917934  1
  Nb  Nb143  1  0.59457058  0.39426178  0.40471703  1
  Nb  Nb144  1  0.20133767  0.19812463  0.40723540  1
  Nb  Nb145  1  0.19162333  0.60809798  0.00691168  1
  Nb  Nb146  1  0.80099373  0.19841116  -0.00739552  1
  Nb  Nb147  1  0.19167653  -0.00739792  0.19525879  1
  Nb  Nb148  1  0.19424351  0.80554146  0.19370120  1
  Nb  Nb149  1  0.60142639  0.19537286  -0.00625342  1
  Pd  Pd150  1  0.60036812  0.00441743  0.79250309  1
  Pd  Pd151  1  0.40723255  0.80699466  -0.01303008  1
  Pd  Pd152  1  -0.00149006  0.59249588  0.80269408  1
  Pd  Pd153  1  0.20248860  0.79431047  0.00582195  1
  Pd  Pd154  1  0.00515696  0.39675307  0.20233241  1
  Pd  Pd155  1  0.60714366  -0.00478760  0.19149882  1
  Pd  Pd156  1  0.39155386  0.38969102  0.60600495  1
  Pd  Pd157  1  0.81280000  -0.01252297  0.78974886  1
  Pd  Pd158  1  0.60667568  0.00370252  0.00883241  1
  Pd  Pd159  1  0.38603488  0.20013460  0.60677427  1
  Pd  Pd160  1  0.19236368  0.19420807  -0.01327074  1
  Pd  Pd161  1  0.59709225  0.59253024  0.58959067  1
  Pd  Pd162  1  0.00696030  0.40715697  0.61288333  1
  Pd  Pd163  1  0.60812759  0.20257450  0.60406689  1
  Pd  Pd164  1  0.00076691  0.39259312  -0.00521681  1
  Pd  Pd165  1  0.20514084  0.19072065  0.20755631  1
  Pd  Pd166  1  0.79393450  0.19408870  0.39965979  1
  Pd  Pd167  1  0.19003506  0.39903599  0.19259069  1
  Pd  Pd168  1  -0.00212433  0.20982152  -0.00996169  1
  Pd  Pd169  1  0.60403783  0.59677371  0.00340630  1
  Pd  Pd170  1  0.59680946  0.59384189  0.40999703  1
  Pd  Pd171  1  -0.00155801  0.19717433  0.61134302  1
  Pd  Pd172  1  0.60132311  0.81073425  0.19333250  1
  Pd  Pd173  1  0.00031516  0.20910682  0.20097174  1
  Pd  Pd174  1  0.40047973  0.19938681  -0.00043032  1
  Pd  Pd175  1  0.79787901  -0.00752790  0.59965134  1
  Pd  Pd176  1  -0.00769585  -0.00567509  0.79522247  1
  Pd  Pd177  1  0.20397495  0.61305155  0.19398385  1
  Pd  Pd178  1  0.59552547  0.80342877  0.59077670  1
  Pd  Pd179  1  0.19892107  -0.00248463  0.39183354  1
  Pd  Pd180  1  0.20500678  0.39822635  0.40678649  1
  Pd  Pd181  1  0.79153745  0.80116219  0.20538244  1
  Pd  Pd182  1  0.00303718  -0.00751381  0.19802289  1
  Pd  Pd183  1  -0.00661679  0.60597005  0.39737762  1
  Pd  Pd184  1  0.59125742  0.38877289  0.78777826  1
  Pd  Pd185  1  0.39634212  0.20208301  0.38792538  1
  Pd  Pd186  1  0.20558075  0.80399587  0.79289856  1
  Pd  Pd187  1  0.40560092  0.39088171  0.20687425  1
  Pd  Pd188  1  0.81251143  0.61408277  0.39327918  1
  Pd  Pd189  1  0.20205118  0.59453225  0.40208253  1
  Pd  Pd190  1  -0.00388418  0.80380390  -0.00783984  1
  Pd  Pd191  1  0.79118940  0.40981609  0.20763566  1
  Pd  Pd192  1  0.00674332  0.20611386  0.40121503  1
  Pd  Pd193  1  0.80578168  0.39405642  -0.00832367  1
  Pd  Pd194  1  0.19137283  -0.01138764  0.60592810  1
  Pd  Pd195  1  0.40462657  0.60991153  0.60655699  1
  Pd  Pd196  1  0.39784581  0.19642248  0.80374332  1
  Pd  Pd197  1  -0.00162687  0.41076726  0.79546831  1
  Pd  Pd198  1  0.19400411  0.18632321  0.80874101  1
  Pd  Pd199  1  0.80813792  0.20425437  0.60732444  1
  Rh  Rh200  1  0.81197213  0.18910073  0.19384901  1
  Rh  Rh201  1  -0.00358460  -0.00205803  0.00224313  1
  Rh  Rh202  1  0.60254696  0.79090807  0.80233237  1
  Rh  Rh203  1  -0.00330987  0.39890623  0.39397537  1
  Rh  Rh204  1  0.19896845  0.20372784  0.59693022  1
  Rh  Rh205  1  0.81120363  0.40814245  0.79495442  1
  Rh  Rh206  1  0.60297815  0.39816255  0.00632374  1
  Rh  Rh207  1  0.20299767  0.39943933  0.79300003  1
  Rh  Rh208  1  0.58598380  0.20766128  0.18711737  1
  Rh  Rh209  1  0.39460094  0.00440286  0.19845848  1
  Rh  Rh210  1  0.19149260  0.40733227  0.00328642  1
  Rh  Rh211  1  0.59163508  0.60418189  0.80181378  1
  Rh  Rh212  1  0.01315772  0.79872534  0.59839835  1
  Rh  Rh213  1  0.40389879  -0.00251569  0.39951134  1
  Rh  Rh214  1  0.80187113  0.39829620  0.60813893  1
  Rh  Rh215  1  -0.00832549  0.79600540  0.40868785  1
  Rh  Rh216  1  0.79888073  0.20472011  0.80582376  1
  Rh  Rh217  1  -0.00669435  0.60040016  0.20423993  1
  Rh  Rh218  1  0.40474612  -0.00722881  -0.01267146  1
  Rh  Rh219  1  0.00432288  0.60495038  -0.00841801  1
  Rh  Rh220  1  0.39423667  0.80368892  0.20242152  1
  Rh  Rh221  1  0.39273756  0.59478466  0.39710341  1
  Rh  Rh222  1  0.60042008  0.01089573  0.41252881  1
  Rh  Rh223  1  0.00140578  0.59810146  0.60123888  1
  Rh  Rh224  1  -0.00728507  0.80959275  0.80894381  1
  Rh  Rh225  1  0.20198214  0.60817513  0.81350468  1
  Rh  Rh226  1  0.79879132  0.39635806  0.39533246  1
  Rh  Rh227  1  0.00550766  0.20067057  0.80103805  1
  Rh  Rh228  1  0.00092768  -0.00367186  0.60812822  1
  Rh  Rh229  1  0.38991941  0.60820841  0.20638884  1
  Rh  Rh230  1  0.80933997  0.79378240  -0.01110739  1
  Rh  Rh231  1  -0.00666915  -0.00088601  0.41041200  1
  Rh  Rh232  1  0.80624619  0.60279155  0.00481689  1
  Rh  Rh233  1  0.19467873  0.00610161  -0.00096963  1
  Rh  Rh234  1  0.19268379  0.60326495  0.59290890  1
  Rh  Rh235  1  0.79918822  0.79706162  0.59999630  1
  Rh  Rh236  1  0.80750496  0.60170230  0.79602252  1
  Rh  Rh237  1  0.80649539  0.60254789  0.60180361  1
  Rh  Rh238  1  0.59747186  0.79853690  0.00707411  1
  Rh  Rh239  1  0.01089289  0.80707849  0.19886062  1
  Rh  Rh240  1  0.80678151  0.00959970  0.01456983  1
  Rh  Rh241  1  0.20219573  0.00194583  0.80468441  1
  Rh  Rh242  1  0.40468654  0.80475883  0.39625228  1
  Rh  Rh243  1  0.40571628  -0.00338825  0.60682458  1
  Rh  Rh244  1  0.59857253  0.79684656  0.40514607  1
  Rh  Rh245  1  0.61659413  0.58799776  0.19023138  1
  Rh  Rh246  1  0.39287422  0.79581705  0.60649044  1
  Rh  Rh247  1  0.19766667  0.80800699  0.39979080  1
  Rh  Rh248  1  0.39057147  0.40758985  -0.01141169  1
  Rh  Rh249  1  0.39097278  0.59395813  -0.00945847  1
