# generated using pymatgen
data_ZrScNbPdRh
_symmetry_space_group_name_H-M   'P 1'
_cell_length_a   16.56423332
_cell_length_b   16.56508330
_cell_length_c   16.56605987
_cell_angle_alpha   89.98373623
_cell_angle_beta   90.01745021
_cell_angle_gamma   89.99742054
_symmetry_Int_Tables_number   1
_chemical_formula_structural   ZrScNbPdRh
_chemical_formula_sum   'Zr50 Sc50 Nb50 Pd50 Rh50'
_cell_volume   4545.52605907
_cell_formula_units_Z   50
loop_
 _symmetry_equiv_pos_site_id
 _symmetry_equiv_pos_as_xyz
  1  'x, y, z'
loop_
 _atom_site_type_symbol
 _atom_site_label
 _atom_site_symmetry_multiplicity
 _atom_site_fract_x
 _atom_site_fract_y
 _atom_site_fract_z
 _atom_site_occupancy
  Zr  Zr0  1  0.69836765  0.70264212  0.89245284  1
  Zr  Zr1  1  0.70019581  0.88771931  0.49961678  1
  Zr  Zr2  1  0.29881691  0.89840289  0.48515548  1
  Zr  Zr3  1  0.49650056  0.49644017  0.90086094  1
  Zr  Zr4  1  0.10468110  0.50679851  0.29566158  1
  Zr  Zr5  1  0.89984369  0.29642268  0.68914971  1
  Zr  Zr6  1  0.10058990  0.49754767  0.90381416  1
  Zr  Zr7  1  0.70048356  0.50197198  0.70414253  1
  Zr  Zr8  1  0.49587133  0.30138826  0.29746580  1
  Zr  Zr9  1  0.30398050  0.09961494  0.10179262  1
  Zr  Zr10  1  0.69444535  0.49221700  0.90328198  1
  Zr  Zr11  1  0.28280890  0.70237557  0.70747436  1
  Zr  Zr12  1  0.29875782  0.49910213  0.10267478  1
  Zr  Zr13  1  0.10110911  0.10051293  0.89449904  1
  Zr  Zr14  1  0.49377754  0.30282874  0.09619753  1
  Zr  Zr15  1  0.50294709  0.09181504  0.69428797  1
  Zr  Zr16  1  0.89973359  0.50159383  0.31109730  1
  Zr  Zr17  1  0.90603030  0.30419505  0.10094589  1
  Zr  Zr18  1  0.89470191  0.90428610  0.08945764  1
  Zr  Zr19  1  0.89341971  0.71210949  0.89998717  1
  Zr  Zr20  1  0.89987437  0.49960079  0.68640424  1
  Zr  Zr21  1  0.90399516  0.29994535  0.30427524  1
  Zr  Zr22  1  0.49768510  0.29791831  0.69483918  1
  Zr  Zr23  1  0.10237754  0.89795282  0.30120510  1
  Zr  Zr24  1  0.10596242  0.30586608  0.89675624  1
  Zr  Zr25  1  0.29702410  0.88925124  0.90566277  1
  Zr  Zr26  1  0.50787879  0.89542421  0.89186687  1
  Zr  Zr27  1  0.49285467  0.90354183  0.29622329  1
  Zr  Zr28  1  0.90274421  0.07917648  0.90100884  1
  Zr  Zr29  1  0.30010245  0.90279659  0.29671846  1
  Zr  Zr30  1  0.69838456  0.30403583  0.89784069  1
  Zr  Zr31  1  0.29667679  0.49597436  0.49789116  1
  Zr  Zr32  1  0.28874197  0.10165747  0.70048077  1
  Zr  Zr33  1  0.91234157  0.29881766  0.49533761  1
  Zr  Zr34  1  0.09704514  0.29094719  0.69778484  1
  Zr  Zr35  1  0.70574867  0.51702435  0.49718533  1
  Zr  Zr36  1  0.69766358  0.30675913  0.09029149  1
  Zr  Zr37  1  0.90081805  0.10741350  0.70448140  1
  Zr  Zr38  1  0.69863900  0.89340129  0.10164017  1
  Zr  Zr39  1  0.29322018  0.70653146  0.09850302  1
  Zr  Zr40  1  0.10096174  0.50239133  0.09129145  1
  Zr  Zr41  1  0.70427416  0.10446969  0.69393767  1
  Zr  Zr42  1  0.30183534  0.09482920  0.29257219  1
  Zr  Zr43  1  0.29625127  0.09554550  0.90352656  1
  Zr  Zr44  1  0.70189084  0.90277857  0.29149869  1
  Zr  Zr45  1  0.10351937  0.49896998  0.70263074  1
  Zr  Zr46  1  0.30017484  0.30028543  0.50587807  1
  Zr  Zr47  1  0.09937310  0.49624291  0.49952200  1
  Zr  Zr48  1  0.71004497  0.30015581  0.70075505  1
  Zr  Zr49  1  0.30372988  0.29961566  0.90455885  1
  Sc  Sc50  1  0.29195432  0.89877500  0.10593441  1
  Sc  Sc51  1  0.69830592  0.08624503  0.10630802  1
  Sc  Sc52  1  0.28799621  0.71169801  0.29897346  1
  Sc  Sc53  1  0.51169896  0.70253309  0.70695099  1
  Sc  Sc54  1  0.50038524  0.50383529  0.71021643  1
  Sc  Sc55  1  0.10087558  0.90230007  0.49473251  1
  Sc  Sc56  1  0.90685614  0.70481093  0.10051810  1
  Sc  Sc57  1  0.70963801  0.51713814  0.30539402  1
  Sc  Sc58  1  0.50373958  0.09621551  0.90462593  1
  Sc  Sc59  1  0.49879994  0.09815659  0.50029338  1
  Sc  Sc60  1  0.50108208  0.30376078  0.90708822  1
  Sc  Sc61  1  0.70920020  0.70316942  0.30174898  1
  Sc  Sc62  1  0.49984409  0.09657909  0.29537739  1
  Sc  Sc63  1  0.09924062  0.69810214  0.10452027  1
  Sc  Sc64  1  0.29518858  0.89708671  0.71325811  1
  Sc  Sc65  1  0.30046276  0.30738223  0.28987167  1
  Sc  Sc66  1  0.90320787  0.50079006  0.90457231  1
  Sc  Sc67  1  0.49646445  0.70478186  0.29056020  1
  Sc  Sc68  1  0.50077611  0.70378462  0.89674333  1
  Sc  Sc69  1  0.51307871  0.70365269  0.49990851  1
  Sc  Sc70  1  0.68961769  0.89873293  0.69886866  1
  Sc  Sc71  1  0.69411379  0.09875322  0.50008475  1
  Sc  Sc72  1  0.09958133  0.89394514  0.70541675  1
  Sc  Sc73  1  0.69564088  0.09754467  0.29734332  1
  Sc  Sc74  1  0.70875869  0.29092685  0.49904891  1
  Sc  Sc75  1  0.69875545  0.29292304  0.30448893  1
  Sc  Sc76  1  0.91074387  0.10193966  0.30528272  1
  Sc  Sc77  1  0.90126951  0.71207891  0.51146631  1
  Sc  Sc78  1  0.90564793  0.50096796  0.09490778  1
  Sc  Sc79  1  0.49061934  0.30378729  0.50154363  1
  Sc  Sc80  1  0.29599518  0.30044344  0.69599714  1
  Sc  Sc81  1  0.49744073  0.50421355  0.49886919  1
  Sc  Sc82  1  0.70545114  0.09054993  0.89409168  1
  Sc  Sc83  1  0.08884110  0.90677419  0.90970826  1
  Sc  Sc84  1  0.29473744  0.49808776  0.89338802  1
  Sc  Sc85  1  0.50178655  0.10336337  0.10220495  1
  Sc  Sc86  1  0.10129880  0.09675236  0.49798633  1
  Sc  Sc87  1  0.11262758  0.09774901  0.09965866  1
  Sc  Sc88  1  0.89767403  0.30418352  0.89514880  1
  Sc  Sc89  1  0.48542778  0.50249790  0.29902746  1
  Sc  Sc90  1  0.29474681  0.09424823  0.50509075  1
  Sc  Sc91  1  0.70657031  0.69833013  0.69701826  1
  Sc  Sc92  1  0.90762415  0.88755116  0.71042926  1
  Sc  Sc93  1  0.10153773  0.69744227  0.91545505  1
  Sc  Sc94  1  0.09475480  0.29939655  0.29312142  1
  Sc  Sc95  1  0.10341454  0.10017209  0.29842696  1
  Sc  Sc96  1  0.29631362  0.49940930  0.29778380  1
  Sc  Sc97  1  0.90399728  0.89090074  0.29790779  1
  Sc  Sc98  1  0.50731073  0.89995064  0.49511987  1
  Sc  Sc99  1  0.30103484  0.29471573  0.09836065  1
  Nb  Nb100  1  0.70008667  0.70141209  0.49864634  1
  Nb  Nb101  1  0.49698834  0.50774901  0.10643213  1
  Nb  Nb102  1  0.10721900  0.70239452  0.50485567  1
  Nb  Nb103  1  0.29946369  0.50644640  0.70203565  1
  Nb  Nb104  1  0.90396126  0.90662195  0.50146052  1
  Nb  Nb105  1  0.49721379  0.89721333  0.69556701  1
  Nb  Nb106  1  0.89719759  0.09599072  0.10051384  1
  Nb  Nb107  1  0.50145382  0.70139723  0.10275913  1
  Nb  Nb108  1  0.08968261  0.70384797  0.29930934  1
  Nb  Nb109  1  0.50215844  0.89147165  0.10154081  1
  Nb  Nb110  1  0.69361809  0.69596811  0.10633329  1
  Nb  Nb111  1  0.91092092  0.69724983  0.30213880  1
  Nb  Nb112  1  0.09764129  0.30180843  0.09579953  1
  Nb  Nb113  1  0.90930265  0.70180474  0.70442142  1
  Nb  Nb114  1  0.69932516  0.50143223  0.10209023  1
  Nb  Nb115  1  0.90586532  0.09792512  0.49920442  1
  Nb  Nb116  1  0.09572721  0.89789605  0.10014157  1
  Nb  Nb117  1  0.09648373  0.09951641  0.70193913  1
  Nb  Nb118  1  0.90394673  0.49831482  0.49329955  1
  Nb  Nb119  1  0.89156182  0.89647207  0.90689616  1
  Nb  Nb120  1  0.71439816  0.89340762  0.90255303  1
  Nb  Nb121  1  0.29486381  0.70253800  0.50381216  1
  Nb  Nb122  1  0.29917823  0.69916232  0.90849331  1
  Nb  Nb123  1  0.10157202  0.29884589  0.49920023  1
  Nb  Nb124  1  0.08897921  0.70218871  0.69151798  1
  Nb  Nb125  1  0.39067831  0.60839943  0.60202139  1
  Nb  Nb126  1  0.60602313  0.40429647  0.59577274  1
  Nb  Nb127  1  0.39663187  0.79790936  0.60070717  1
  Nb  Nb128  1  0.59755780  0.60154375  0.00958751  1
  Nb  Nb129  1  -0.00079282  -0.00337531  0.19372649  1
  Nb  Nb130  1  0.38977306  0.60945556  0.40869070  1
  Nb  Nb131  1  0.40330476  -0.01064373  0.00120360  1
  Nb  Nb132  1  -0.00040021  0.60691479  0.79413145  1
  Nb  Nb133  1  0.60366084  0.40856932  0.20146632  1
  Nb  Nb134  1  0.39125310  0.19968811  0.39882617  1
  Nb  Nb135  1  0.40291756  0.19512303  0.79819820  1
  Nb  Nb136  1  0.80597752  -0.00455253  0.40613714  1
  Nb  Nb137  1  0.79617646  0.40065268  0.20059859  1
  Nb  Nb138  1  0.39810601  -0.01160174  0.60427745  1
  Nb  Nb139  1  0.80573373  0.19420788  0.00362235  1
  Nb  Nb140  1  0.80853852  -0.00271902  0.59552930  1
  Nb  Nb141  1  0.60165652  0.40492122  0.39981827  1
  Nb  Nb142  1  0.00310699  0.60759966  0.40510170  1
  Nb  Nb143  1  0.78875668  0.60266372  0.00532770  1
  Nb  Nb144  1  0.20432979  0.20483680  0.40065576  1
  Nb  Nb145  1  0.59869620  0.19985961  0.79633021  1
  Nb  Nb146  1  0.80521462  0.20266681  0.19407890  1
  Nb  Nb147  1  0.40207320  0.60478874  0.00441888  1
  Nb  Nb148  1  -0.00320886  0.00212593  0.60429466  1
  Nb  Nb149  1  -0.00165391  0.19724640  0.00222022  1
  Pd  Pd150  1  0.40347369  0.79999642  0.00405781  1
  Pd  Pd151  1  0.61086026  0.18983147  -0.00666664  1
  Pd  Pd152  1  0.59943469  0.79650836  0.38774558  1
  Pd  Pd153  1  0.19651744  -0.00953370  0.60340490  1
  Pd  Pd154  1  0.19703889  0.39912413  0.60650513  1
  Pd  Pd155  1  0.00300853  0.18907192  0.19244899  1
  Pd  Pd156  1  0.19849428  0.60826267  0.39647974  1
  Pd  Pd157  1  0.80029139  -0.01209918  0.78675433  1
  Pd  Pd158  1  0.00975377  0.79667869  0.81400168  1
  Pd  Pd159  1  0.00282151  0.79723845  0.40931511  1
  Pd  Pd160  1  0.19633647  0.39072847  0.39294540  1
  Pd  Pd161  1  0.80583775  0.80058252  0.39837990  1
  Pd  Pd162  1  0.80839169  0.59619966  0.80571060  1
  Pd  Pd163  1  -0.00120066  0.60052942  0.59475234  1
  Pd  Pd164  1  0.19273190  -0.00806467  0.80377962  1
  Pd  Pd165  1  0.39953597  0.79105871  0.79392881  1
  Pd  Pd166  1  0.60421148  0.79504870  -0.00217778  1
  Pd  Pd167  1  0.19617791  0.39567600  0.19276857  1
  Pd  Pd168  1  0.39549136  0.39207344  0.79572422  1
  Pd  Pd169  1  0.20085820  0.59773828  0.60092058  1
  Pd  Pd170  1  0.59346622  0.59837520  0.60382348  1
  Pd  Pd171  1  0.58890602  0.60035856  0.38954316  1
  Pd  Pd172  1  0.19543447  0.20259449  0.00277546  1
  Pd  Pd173  1  0.40629954  0.79247955  0.40422125  1
  Pd  Pd174  1  -0.00553648  0.20156323  0.81010756  1
  Pd  Pd175  1  0.39743490  0.60916789  0.80186438  1
  Pd  Pd176  1  0.59927425  0.59769784  0.20883636  1
  Pd  Pd177  1  -0.00241773  0.41050968  0.20218394  1
  Pd  Pd178  1  0.60521696  -0.00059535  0.79936569  1
  Pd  Pd179  1  -0.00578447  0.40565312  0.79546706  1
  Pd  Pd180  1  0.18513759  0.79547741  0.81306890  1
  Pd  Pd181  1  0.40077926  0.00329934  0.80244729  1
  Pd  Pd182  1  0.58763429  0.20618683  0.40513587  1
  Pd  Pd183  1  0.38643474  0.61093836  0.20463512  1
  Pd  Pd184  1  0.79629686  0.40121922  0.58399138  1
  Pd  Pd185  1  0.80680562  0.79310182  0.19692115  1
  Pd  Pd186  1  0.18885782  0.60669494  0.80622622  1
  Pd  Pd187  1  0.81041534  0.59909278  0.19398251  1
  Pd  Pd188  1  0.60080454  -0.00444626  0.00048525  1
  Pd  Pd189  1  0.40570042  0.41484062  0.60692878  1
  Pd  Pd190  1  0.80673095  0.60830021  0.59615408  1
  Pd  Pd191  1  0.78952769  0.39877572  0.39877422  1
  Pd  Pd192  1  0.59979746  0.20799670  0.59659380  1
  Pd  Pd193  1  0.80955117  0.40679703  0.79987036  1
  Pd  Pd194  1  -0.00355462  0.59524403  0.20010559  1
  Pd  Pd195  1  0.20073629  0.81195855  0.59865158  1
  Pd  Pd196  1  0.80075560  0.18695496  0.39546126  1
  Pd  Pd197  1  0.80090879  0.80533776  0.60863962  1
  Pd  Pd198  1  0.60573893  -0.00145404  0.40018580  1
  Pd  Pd199  1  0.60675968  0.20511252  0.19534362  1
  Rh  Rh200  1  0.40336359  0.39908239  0.19523662  1
  Rh  Rh201  1  0.39835998  0.00905152  0.40876375  1
  Rh  Rh202  1  -0.00122360  0.80733545  0.19442899  1
  Rh  Rh203  1  0.60224304  0.59719308  0.80796164  1
  Rh  Rh204  1  0.00740295  0.00740547  0.00937867  1
  Rh  Rh205  1  0.80687994  0.40392428  0.00461158  1
  Rh  Rh206  1  0.19146637  0.80412072  0.00283214  1
  Rh  Rh207  1  0.00217996  0.39268160  -0.00423187  1
  Rh  Rh208  1  0.81547594  0.61824806  0.41063335  1
  Rh  Rh209  1  0.79173004  0.79100081  0.01010100  1
  Rh  Rh210  1  0.40203898  0.40119101  0.39844515  1
  Rh  Rh211  1  0.00366794  0.39790007  0.59812544  1
  Rh  Rh212  1  0.00710812  0.80977488  0.59559833  1
  Rh  Rh213  1  0.60014224  -0.00679934  0.59433908  1
  Rh  Rh214  1  0.01385122  0.19883749  0.40434831  1
  Rh  Rh215  1  0.19101113  0.79993678  0.19977752  1
  Rh  Rh216  1  0.79573478  0.20150362  0.81344447  1
  Rh  Rh217  1  0.79582662  0.80401516  0.79113144  1
  Rh  Rh218  1  0.21044497  0.59524718  -0.00077390  1
  Rh  Rh219  1  0.20409095  0.39913488  0.00319642  1
  Rh  Rh220  1  0.59825296  0.79565495  0.60210889  1
  Rh  Rh221  1  -0.01240653  0.60815507  -0.00973601  1
  Rh  Rh222  1  0.80644507  0.19320651  0.58785563  1
  Rh  Rh223  1  0.20568597  0.39721216  0.79453928  1
  Rh  Rh224  1  0.39438578  0.18299467  0.60070406  1
  Rh  Rh225  1  0.78910052  0.00210163  0.00012870  1
  Rh  Rh226  1  0.59936403  0.80102091  0.20519685  1
  Rh  Rh227  1  0.19132547  0.19894785  0.59330649  1
  Rh  Rh228  1  0.81184611  0.00950064  0.21769154  1
  Rh  Rh229  1  0.00921365  0.40547900  0.39668902  1
  Rh  Rh230  1  0.59811189  0.39059149  0.78719656  1
  Rh  Rh231  1  0.40699854  -0.00524977  0.18554839  1
  Rh  Rh232  1  0.39672807  0.41051804  0.00414238  1
  Rh  Rh233  1  0.00608901  0.19168453  0.59411338  1
  Rh  Rh234  1  0.20468516  -0.00679909  0.00189540  1
  Rh  Rh235  1  0.19863683  0.20556913  0.20242574  1
  Rh  Rh236  1  0.19206223  -0.00390462  0.20000741  1
  Rh  Rh237  1  0.39668122  0.80147663  0.19670365  1
  Rh  Rh238  1  0.58634232  0.41082250  0.01098842  1
  Rh  Rh239  1  0.00102732  0.79986619  0.00299222  1
  Rh  Rh240  1  0.19840298  0.60631363  0.20093041  1
  Rh  Rh241  1  0.19187884  0.79617136  0.39900799  1
  Rh  Rh242  1  0.39995153  0.20025649  0.20534089  1
  Rh  Rh243  1  0.59178238  -0.00463044  0.19799905  1
  Rh  Rh244  1  0.60654691  0.80370321  0.79719213  1
  Rh  Rh245  1  0.40011537  0.18747819  -0.00794541  1
  Rh  Rh246  1  -0.00094339  -0.00088791  0.39562207  1
  Rh  Rh247  1  0.00087901  -0.00461231  0.79269289  1
  Rh  Rh248  1  0.20614337  0.20486273  0.79955233  1
  Rh  Rh249  1  0.20074804  0.00774365  0.39406144  1
