# generated using pymatgen
data_ZrScNbPdRh
_symmetry_space_group_name_H-M   'P 1'
_cell_length_a   16.55901879
_cell_length_b   16.55383391
_cell_length_c   16.56143212
_cell_angle_alpha   89.97595888
_cell_angle_beta   90.03628085
_cell_angle_gamma   89.99528454
_symmetry_Int_Tables_number   1
_chemical_formula_structural   ZrScNbPdRh
_chemical_formula_sum   'Zr50 Sc50 Nb50 Pd50 Rh50'
_cell_volume   4539.73972740
_cell_formula_units_Z   50
loop_
 _symmetry_equiv_pos_site_id
 _symmetry_equiv_pos_as_xyz
  1  'x, y, z'
loop_
 _atom_site_type_symbol
 _atom_site_label
 _atom_site_symmetry_multiplicity
 _atom_site_fract_x
 _atom_site_fract_y
 _atom_site_fract_z
 _atom_site_occupancy
  Zr  Zr0  1  0.70335184  0.29905173  0.09770385  1
  Zr  Zr1  1  0.89805444  0.71205515  0.69306344  1
  Zr  Zr2  1  0.90599826  0.30376831  0.29798305  1
  Zr  Zr3  1  0.69573519  0.70224935  0.69539154  1
  Zr  Zr4  1  0.50549139  0.30010033  0.50542194  1
  Zr  Zr5  1  0.30247402  0.88396643  0.09952077  1
  Zr  Zr6  1  0.09434567  0.89992221  0.71237565  1
  Zr  Zr7  1  0.70782441  0.89795656  0.30527319  1
  Zr  Zr8  1  0.90626494  0.10423304  0.29962298  1
  Zr  Zr9  1  0.90811736  0.89032182  0.50402171  1
  Zr  Zr10  1  0.09012006  0.50811638  0.90364970  1
  Zr  Zr11  1  0.90186943  0.89747583  0.30028040  1
  Zr  Zr12  1  0.09554237  0.70574930  0.50021862  1
  Zr  Zr13  1  0.29243447  0.09546342  0.49971423  1
  Zr  Zr14  1  0.70040732  0.69228154  0.09699657  1
  Zr  Zr15  1  0.49671048  0.70151652  0.70038229  1
  Zr  Zr16  1  0.70104595  0.90485444  0.90004993  1
  Zr  Zr17  1  0.50444722  0.09499450  0.90736280  1
  Zr  Zr18  1  0.49530807  0.09627020  0.70385031  1
  Zr  Zr19  1  0.50343737  0.29893271  0.70188649  1
  Zr  Zr20  1  0.48545662  0.29751621  0.89814460  1
  Zr  Zr21  1  0.29512683  0.89832828  0.49553537  1
  Zr  Zr22  1  0.28723665  0.09945671  0.70620065  1
  Zr  Zr23  1  0.50047830  0.50790713  0.29920243  1
  Zr  Zr24  1  0.49825216  0.49983583  0.71294608  1
  Zr  Zr25  1  0.09985773  0.10014939  0.29883715  1
  Zr  Zr26  1  0.89832681  0.69071833  0.49579671  1
  Zr  Zr27  1  0.29603812  0.69739223  0.51089063  1
  Zr  Zr28  1  0.69759166  0.29783879  0.89965963  1
  Zr  Zr29  1  0.11031947  0.69284335  0.70446490  1
  Zr  Zr30  1  0.69995211  0.49812379  0.70397800  1
  Zr  Zr31  1  0.50720460  0.30033104  0.29567859  1
  Zr  Zr32  1  0.91142470  0.50453505  0.30948409  1
  Zr  Zr33  1  0.70473176  0.09279812  0.31285505  1
  Zr  Zr34  1  0.50571649  0.89271412  0.70438557  1
  Zr  Zr35  1  0.90116679  0.70070488  0.30199659  1
  Zr  Zr36  1  0.28777022  0.50948439  0.69676905  1
  Zr  Zr37  1  0.09630907  0.90173781  0.90727220  1
  Zr  Zr38  1  0.50558023  0.69747615  0.29458219  1
  Zr  Zr39  1  0.69761736  0.09980399  0.08443585  1
  Zr  Zr40  1  0.29984378  0.10563351  0.28941011  1
  Zr  Zr41  1  0.10117248  0.10077505  0.09768537  1
  Zr  Zr42  1  0.88950396  0.90224395  0.70246224  1
  Zr  Zr43  1  0.70280415  0.50625804  0.49942003  1
  Zr  Zr44  1  0.09850017  0.70221948  0.89985127  1
  Zr  Zr45  1  0.50523108  0.89875480  0.29854591  1
  Zr  Zr46  1  0.10074689  0.09714464  0.89109686  1
  Zr  Zr47  1  0.29412423  0.29345863  0.90299060  1
  Zr  Zr48  1  0.90229401  0.10290521  0.10083360  1
  Zr  Zr49  1  0.10287774  0.70166298  0.09547638  1
  Sc  Sc50  1  0.49992546  0.10138098  0.29248182  1
  Sc  Sc51  1  0.50119900  0.51582695  0.09927740  1
  Sc  Sc52  1  0.49590599  0.69286960  0.89473016  1
  Sc  Sc53  1  0.89967373  0.50028812  0.09145246  1
  Sc  Sc54  1  0.10255538  0.49214484  0.49961634  1
  Sc  Sc55  1  0.29265944  0.89968546  0.29422592  1
  Sc  Sc56  1  0.69714854  0.50087723  0.30206073  1
  Sc  Sc57  1  0.29692911  0.30666214  0.50843372  1
  Sc  Sc58  1  0.88590796  0.50090898  0.69919652  1
  Sc  Sc59  1  0.09824467  0.10161115  0.49719153  1
  Sc  Sc60  1  0.29922402  0.29843329  0.70476572  1
  Sc  Sc61  1  0.89255629  0.49655350  0.49822247  1
  Sc  Sc62  1  0.51215962  0.09238306  0.50724263  1
  Sc  Sc63  1  0.89302688  0.09715142  0.90194906  1
  Sc  Sc64  1  0.90493875  0.10569460  0.70729163  1
  Sc  Sc65  1  0.09284274  0.29565425  0.49817565  1
  Sc  Sc66  1  0.89608944  0.70279547  0.10278186  1
  Sc  Sc67  1  0.30773488  0.50250069  0.90057316  1
  Sc  Sc68  1  0.70102062  0.50413467  0.09819894  1
  Sc  Sc69  1  0.29884852  0.70040978  0.90016726  1
  Sc  Sc70  1  0.89732737  0.90021438  0.90180063  1
  Sc  Sc71  1  0.90266273  0.70420125  0.91042874  1
  Sc  Sc72  1  0.70759641  0.89378513  0.09369229  1
  Sc  Sc73  1  0.70073279  0.30800151  0.70104693  1
  Sc  Sc74  1  0.91039909  0.10913406  0.49063585  1
  Sc  Sc75  1  0.70154840  0.09161926  0.69543450  1
  Sc  Sc76  1  0.70929186  0.69819996  0.29519003  1
  Sc  Sc77  1  0.50328391  0.69092798  0.50529082  1
  Sc  Sc78  1  0.29923480  0.10288045  0.10108870  1
  Sc  Sc79  1  0.50350727  0.90189857  0.51049075  1
  Sc  Sc80  1  0.29298710  0.29113763  0.09579001  1
  Sc  Sc81  1  0.30899642  0.69843623  0.29276227  1
  Sc  Sc82  1  0.10091086  0.89820382  0.30097589  1
  Sc  Sc83  1  0.69958522  0.31289738  0.50193649  1
  Sc  Sc84  1  0.70622257  0.30737014  0.29622278  1
  Sc  Sc85  1  0.30158703  0.50027166  0.50726142  1
  Sc  Sc86  1  0.30602594  0.50669888  0.09512850  1
  Sc  Sc87  1  0.50202343  0.10700478  0.10143264  1
  Sc  Sc88  1  0.30431912  0.89694859  0.69944649  1
  Sc  Sc89  1  0.88715126  0.30007511  0.89676652  1
  Sc  Sc90  1  0.09624500  0.27979811  0.70243727  1
  Sc  Sc91  1  0.10390202  0.90143408  0.49203617  1
  Sc  Sc92  1  0.10264368  0.89860311  0.09750245  1
  Sc  Sc93  1  0.69607691  0.50426166  0.90339436  1
  Sc  Sc94  1  0.90312546  0.30230883  0.49310768  1
  Sc  Sc95  1  0.09356643  0.49278339  0.09234429  1
  Sc  Sc96  1  0.30171354  0.10336791  0.90120200  1
  Sc  Sc97  1  0.49798023  0.89420209  0.89395419  1
  Sc  Sc98  1  0.08864305  0.69988387  0.29802971  1
  Sc  Sc99  1  0.29812364  0.89343078  0.90021045  1
  Nb  Nb100  1  0.30190069  0.69189785  0.70093905  1
  Nb  Nb101  1  0.30543209  0.70261706  0.10184738  1
  Nb  Nb102  1  0.89969589  0.29976395  0.09787903  1
  Nb  Nb103  1  0.69964243  0.91459155  0.49972642  1
  Nb  Nb104  1  0.50129556  0.89228124  0.10025497  1
  Nb  Nb105  1  0.70461878  0.70174010  0.90747769  1
  Nb  Nb106  1  0.50133044  0.49508595  0.90076932  1
  Nb  Nb107  1  0.09621885  0.30317187  0.09142528  1
  Nb  Nb108  1  0.09568794  0.09583631  0.70091150  1
  Nb  Nb109  1  0.69973725  0.10202133  0.50258904  1
  Nb  Nb110  1  0.09869141  0.30658835  0.90863225  1
  Nb  Nb111  1  0.90049458  0.90380283  0.09369775  1
  Nb  Nb112  1  0.10580040  0.49599126  0.29909698  1
  Nb  Nb113  1  0.89870618  0.50517295  0.89813582  1
  Nb  Nb114  1  0.50649316  0.49530913  0.48571641  1
  Nb  Nb115  1  0.29842530  0.49544523  0.29823340  1
  Nb  Nb116  1  0.50236264  0.29719179  0.10168736  1
  Nb  Nb117  1  0.89491615  0.30177354  0.69914232  1
  Nb  Nb118  1  0.49465518  0.70814908  0.10428295  1
  Nb  Nb119  1  0.09664167  0.50227501  0.70591973  1
  Nb  Nb120  1  0.70523226  0.89140298  0.69856288  1
  Nb  Nb121  1  0.30114024  0.30318687  0.29496867  1
  Nb  Nb122  1  0.10777638  0.31513337  0.29169019  1
  Nb  Nb123  1  0.69660491  0.69627235  0.50056633  1
  Nb  Nb124  1  0.69403967  0.10290302  0.90646273  1
  Nb  Nb125  1  0.19866161  0.59449234  0.20271894  1
  Nb  Nb126  1  -0.00239888  0.40033319  0.79938043  1
  Nb  Nb127  1  0.79984890  0.20173378  0.59775972  1
  Nb  Nb128  1  0.00229779  0.00104119  0.60615241  1
  Nb  Nb129  1  0.40011649  0.39873868  0.20097401  1
  Nb  Nb130  1  0.18730677  0.40136508  0.80367568  1
  Nb  Nb131  1  0.20542755  0.20927355  0.38976311  1
  Nb  Nb132  1  0.40505647  -0.00786333  0.00668481  1
  Nb  Nb133  1  0.39996214  0.39877612  0.39508766  1
  Nb  Nb134  1  0.59638358  0.79337971  0.00231113  1
  Nb  Nb135  1  0.60104481  0.19915885  0.40387938  1
  Nb  Nb136  1  0.40543765  0.80166958  0.40221015  1
  Nb  Nb137  1  0.00049975  0.20810825  0.00136503  1
  Nb  Nb138  1  0.40043613  0.20123114  0.40331527  1
  Nb  Nb139  1  0.58960652  0.39889582  -0.00106847  1
  Nb  Nb140  1  0.60749777  -0.00426252  0.19588201  1
  Nb  Nb141  1  0.00134161  0.59469929  0.60493416  1
  Nb  Nb142  1  0.39930666  0.00041556  0.39940149  1
  Nb  Nb143  1  0.59969142  0.19506502  0.80255097  1
  Nb  Nb144  1  0.19989899  0.59449308  0.39185457  1
  Nb  Nb145  1  0.79761295  0.60858654  0.80421460  1
  Nb  Nb146  1  -0.00233840  0.39934500  0.61297750  1
  Nb  Nb147  1  0.60491767  0.80054955  0.40747250  1
  Nb  Nb148  1  0.40008215  0.19546795  0.59824005  1
  Nb  Nb149  1  0.80158311  0.00040056  0.19757370  1
  Pd  Pd150  1  0.79077537  0.80059158  0.58740425  1
  Pd  Pd151  1  0.59605938  0.40995217  0.18884555  1
  Pd  Pd152  1  0.19860280  -0.00528475  0.19438345  1
  Pd  Pd153  1  0.78832241  0.19308743  0.79223288  1
  Pd  Pd154  1  0.00815839  0.20970337  0.19689952  1
  Pd  Pd155  1  0.40231599  0.39780377  0.01146982  1
  Pd  Pd156  1  0.59839684  0.40981390  0.60144109  1
  Pd  Pd157  1  0.39253246  -0.00293298  0.80942577  1
  Pd  Pd158  1  0.18597599  0.39015060  0.61286706  1
  Pd  Pd159  1  0.19589544  0.80566734  0.60877299  1
  Pd  Pd160  1  0.60556710  0.60520263  0.80620286  1
  Pd  Pd161  1  0.00527328  0.59455529  0.19166766  1
  Pd  Pd162  1  0.40476588  0.60853025  -0.00208002  1
  Pd  Pd163  1  0.20143194  0.59938290  0.00238315  1
  Pd  Pd164  1  0.39192134  0.60118518  0.40437514  1
  Pd  Pd165  1  0.20666830  0.78628810  0.38867574  1
  Pd  Pd166  1  0.41004039  0.58950969  0.59905018  1
  Pd  Pd167  1  0.18933169  -0.00856208  0.60517874  1
  Pd  Pd168  1  -0.00123272  -0.00801117  0.19800675  1
  Pd  Pd169  1  0.79589268  0.00597662  0.80234087  1
  Pd  Pd170  1  -0.01505525  0.60170019  0.79275194  1
  Pd  Pd171  1  0.20001469  0.20246920  0.59409116  1
  Pd  Pd172  1  0.00024311  0.80422493  0.19381579  1
  Pd  Pd173  1  0.40110809  0.79936791  0.59643364  1
  Pd  Pd174  1  0.20641169  0.80089790  0.79849557  1
  Pd  Pd175  1  0.20788459  0.40564979  0.18209589  1
  Pd  Pd176  1  0.60451267  -0.00626267  0.61067700  1
  Pd  Pd177  1  -0.00801921  0.79951343  0.80582743  1
  Pd  Pd178  1  0.38563442  0.40331478  0.79640461  1
  Pd  Pd179  1  0.81457806  0.01165919  0.59065617  1
  Pd  Pd180  1  0.61302120  0.80121631  0.19826997  1
  Pd  Pd181  1  0.80792368  0.41028525  0.20146959  1
  Pd  Pd182  1  0.81569844  0.00111726  0.40724988  1
  Pd  Pd183  1  0.79361587  0.19437717  0.19894247  1
  Pd  Pd184  1  0.20759590  0.40863964  -0.00194457  1
  Pd  Pd185  1  -0.00281749  0.20636517  0.81104637  1
  Pd  Pd186  1  0.39776673  0.00312570  0.59655564  1
  Pd  Pd187  1  0.79263829  0.21036234  0.40728602  1
  Pd  Pd188  1  0.40353857  0.40210854  0.59993673  1
  Pd  Pd189  1  0.21146554  0.00053142  0.00099375  1
  Pd  Pd190  1  0.80527633  0.59174526  0.20203383  1
  Pd  Pd191  1  0.79372921  0.40468697  -0.00432597  1
  Pd  Pd192  1  -0.00493482  0.40507960  0.19513704  1
  Pd  Pd193  1  0.79495215  0.79616406  0.40982985  1
  Pd  Pd194  1  0.61339909  0.19094323  0.20703465  1
  Pd  Pd195  1  0.60383744  0.79373056  0.80950845  1
  Pd  Pd196  1  0.59262063  0.58951036  0.60131424  1
  Pd  Pd197  1  0.20525919  0.39868355  0.40583191  1
  Pd  Pd198  1  0.40582659  -0.00613156  0.19662890  1
  Pd  Pd199  1  0.60655039  0.00160237  0.79570497  1
  Rh  Rh200  1  0.59780308  0.39279297  0.81064635  1
  Rh  Rh201  1  0.80717921  0.39281873  0.59475890  1
  Rh  Rh202  1  0.00238256  0.40034395  0.40429609  1
  Rh  Rh203  1  0.20327936  -0.00462859  0.80251058  1
  Rh  Rh204  1  0.20295160  0.00931807  0.39012176  1
  Rh  Rh205  1  0.60382080  0.60226875  0.19896806  1
  Rh  Rh206  1  0.00140089  -0.00437899  0.40621642  1
  Rh  Rh207  1  0.60661493  0.60819894  0.39669575  1
  Rh  Rh208  1  0.39494671  0.79334272  0.79654826  1
  Rh  Rh209  1  0.40610215  0.79857351  -0.00558317  1
  Rh  Rh210  1  0.39579456  0.59844681  0.80007027  1
  Rh  Rh211  1  0.80138048  0.40169402  0.39424647  1
  Rh  Rh212  1  0.59303409  -0.01389506  0.00596352  1
  Rh  Rh213  1  -0.00081765  0.00637891  -0.00261755  1
  Rh  Rh214  1  0.79698183  0.79519697  0.80668828  1
  Rh  Rh215  1  0.80239436  0.60521293  0.60506786  1
  Rh  Rh216  1  0.80187462  0.41085365  0.80667429  1
  Rh  Rh217  1  0.39443747  0.59692626  0.19624765  1
  Rh  Rh218  1  0.79537121  0.59915954  0.39500397  1
  Rh  Rh219  1  0.18880695  0.59903504  0.58957506  1
  Rh  Rh220  1  0.19722235  0.78862585  0.20168916  1
  Rh  Rh221  1  0.39802809  0.80305330  0.20997133  1
  Rh  Rh222  1  0.60050890  0.39635626  0.39689060  1
  Rh  Rh223  1  0.01416268  0.21229279  0.38436483  1
  Rh  Rh224  1  0.59151721  0.21276845  -0.00738531  1
  Rh  Rh225  1  0.60855209  0.80689353  0.59153043  1
  Rh  Rh226  1  -0.00961368  0.19787898  0.60309124  1
  Rh  Rh227  1  -0.01501466  0.39272362  -0.00855687  1
  Rh  Rh228  1  0.01008932  0.80298529  0.60535020  1
  Rh  Rh229  1  0.40177759  0.19530442  0.79284730  1
  Rh  Rh230  1  0.39851012  0.21022116  0.19556049  1
  Rh  Rh231  1  0.79896569  0.80015809  0.00061075  1
  Rh  Rh232  1  0.20442422  0.59486958  0.81192407  1
  Rh  Rh233  1  0.60646787  0.20035229  0.60243480  1
  Rh  Rh234  1  0.19437601  0.20368367  0.80522279  1
  Rh  Rh235  1  0.80472614  0.59886144  -0.00516618  1
  Rh  Rh236  1  0.80676458  0.80637466  0.19203436  1
  Rh  Rh237  1  0.40074794  0.19123600  0.00729163  1
  Rh  Rh238  1  -0.00424142  0.60707894  0.00561905  1
  Rh  Rh239  1  0.80819974  0.19988628  0.00085804  1
  Rh  Rh240  1  0.19095522  0.20723682  0.20098754  1
  Rh  Rh241  1  0.20034811  0.79549694  -0.00189921  1
  Rh  Rh242  1  0.19037156  0.19414240  -0.00334306  1
  Rh  Rh243  1  0.59194737  0.00193599  0.39533519  1
  Rh  Rh244  1  0.59335291  0.60314943  -0.00122341  1
  Rh  Rh245  1  0.00059728  0.80146335  0.39573581  1
  Rh  Rh246  1  0.01063510  0.59233371  0.41146428  1
  Rh  Rh247  1  0.80304455  0.00037301  0.00103949  1
  Rh  Rh248  1  -0.00159303  0.80372618  0.00431595  1
  Rh  Rh249  1  -0.00760206  -0.00108666  0.79935029  1
