# generated using pymatgen
data_ZrScNbPdRh
_symmetry_space_group_name_H-M   'P 1'
_cell_length_a   16.55982332
_cell_length_b   16.56188766
_cell_length_c   16.55425213
_cell_angle_alpha   90.02560680
_cell_angle_beta   89.95506582
_cell_angle_gamma   90.00034846
_symmetry_Int_Tables_number   1
_chemical_formula_structural   ZrScNbPdRh
_chemical_formula_sum   'Zr50 Sc50 Nb50 Pd50 Rh50'
_cell_volume   4540.19934909
_cell_formula_units_Z   50
loop_
 _symmetry_equiv_pos_site_id
 _symmetry_equiv_pos_as_xyz
  1  'x, y, z'
loop_
 _atom_site_type_symbol
 _atom_site_label
 _atom_site_symmetry_multiplicity
 _atom_site_fract_x
 _atom_site_fract_y
 _atom_site_fract_z
 _atom_site_occupancy
  Zr  Zr0  1  0.09956019  0.09389162  0.10428997  1
  Zr  Zr1  1  0.69955757  0.10096642  0.30346149  1
  Zr  Zr2  1  0.49565453  0.70329886  0.50054603  1
  Zr  Zr3  1  0.09677124  0.70067128  0.91037876  1
  Zr  Zr4  1  0.90853175  0.90077762  0.90033069  1
  Zr  Zr5  1  0.90447713  0.29505073  0.69384143  1
  Zr  Zr6  1  0.89685942  0.48941689  0.69299706  1
  Zr  Zr7  1  0.50090776  0.49392968  0.89012385  1
  Zr  Zr8  1  0.10032073  0.29943566  0.10595681  1
  Zr  Zr9  1  0.68963907  0.89600715  0.90228189  1
  Zr  Zr10  1  0.90101621  0.30584751  0.50704747  1
  Zr  Zr11  1  0.09959882  0.89953959  0.70124557  1
  Zr  Zr12  1  0.89562318  0.89549690  0.49363587  1
  Zr  Zr13  1  0.90004890  0.29415804  0.11024759  1
  Zr  Zr14  1  0.69177490  0.10778204  0.50578961  1
  Zr  Zr15  1  0.90525941  0.70584337  0.30613513  1
  Zr  Zr16  1  0.29887575  0.69135262  0.70087817  1
  Zr  Zr17  1  0.10883602  0.50331684  0.10008263  1
  Zr  Zr18  1  0.69948367  0.29357933  0.10458813  1
  Zr  Zr19  1  0.50615710  0.29900729  0.49629228  1
  Zr  Zr20  1  0.48607765  0.29838678  0.69863139  1
  Zr  Zr21  1  0.90387506  0.09866429  0.10241750  1
  Zr  Zr22  1  0.69728485  0.49877237  0.89974324  1
  Zr  Zr23  1  0.08768965  0.30169121  0.49896463  1
  Zr  Zr24  1  0.49218870  0.89174676  0.30844318  1
  Zr  Zr25  1  0.68620834  0.29587184  0.90238380  1
  Zr  Zr26  1  0.10737725  0.50047265  0.89717674  1
  Zr  Zr27  1  0.89904560  0.90306502  0.70234558  1
  Zr  Zr28  1  0.29748065  0.08969495  0.09322819  1
  Zr  Zr29  1  0.49400108  0.69333384  0.90073898  1
  Zr  Zr30  1  0.90454428  0.90967489  0.10501223  1
  Zr  Zr31  1  0.29654534  0.89499604  0.10038614  1
  Zr  Zr32  1  0.30201945  0.09613284  0.90195049  1
  Zr  Zr33  1  0.51161724  0.89488273  0.09491619  1
  Zr  Zr34  1  0.09919928  0.31278776  0.70277936  1
  Zr  Zr35  1  0.30567435  0.50969525  0.89304256  1
  Zr  Zr36  1  0.69591784  0.90127892  0.49993320  1
  Zr  Zr37  1  0.69442446  0.69920016  0.68917576  1
  Zr  Zr38  1  0.90225506  0.09582088  0.90388356  1
  Zr  Zr39  1  0.49598744  0.09911672  0.69757524  1
  Zr  Zr40  1  0.69951148  0.50277221  0.69863222  1
  Zr  Zr41  1  0.70687971  0.68890164  0.90107140  1
  Zr  Zr42  1  0.68784920  0.69281510  0.10324373  1
  Zr  Zr43  1  0.49775997  0.51579962  0.09997710  1
  Zr  Zr44  1  0.29843505  0.70135315  0.30054458  1
  Zr  Zr45  1  0.30359618  0.69443697  0.10567337  1
  Zr  Zr46  1  0.89978979  0.29423077  0.89052243  1
  Zr  Zr47  1  0.69234622  0.90047800  0.70014050  1
  Zr  Zr48  1  0.70242028  0.90118295  0.30819095  1
  Zr  Zr49  1  0.70103064  0.50508034  0.50164516  1
  Sc  Sc50  1  0.91097720  0.69625499  0.09861218  1
  Sc  Sc51  1  0.31170755  0.31688488  0.51271430  1
  Sc  Sc52  1  0.29568909  0.08038629  0.30806153  1
  Sc  Sc53  1  0.89925225  0.50051889  0.10929113  1
  Sc  Sc54  1  0.90094385  0.09958273  0.29263889  1
  Sc  Sc55  1  0.10061223  0.10381867  0.49518561  1
  Sc  Sc56  1  0.50651039  0.09699812  0.30178217  1
  Sc  Sc57  1  0.11164349  0.89134645  0.49878354  1
  Sc  Sc58  1  0.69508423  0.10033681  0.69987027  1
  Sc  Sc59  1  0.49571512  0.70522488  0.69486056  1
  Sc  Sc60  1  0.29843090  0.69815428  0.90013096  1
  Sc  Sc61  1  0.30567506  0.10049472  0.70061621  1
  Sc  Sc62  1  0.09843390  0.50524129  0.50331643  1
  Sc  Sc63  1  0.30450312  0.08828536  0.50213944  1
  Sc  Sc64  1  0.30397325  0.90759076  0.69557770  1
  Sc  Sc65  1  0.10736951  0.10034213  0.70045862  1
  Sc  Sc66  1  0.90411975  0.50358111  0.49723035  1
  Sc  Sc67  1  0.69077207  0.69607246  0.49454259  1
  Sc  Sc68  1  0.29834800  0.49303758  0.69172772  1
  Sc  Sc69  1  0.30579059  0.32281249  0.28791746  1
  Sc  Sc70  1  0.69144641  0.29573468  0.29961431  1
  Sc  Sc71  1  0.91322134  0.29929951  0.30110063  1
  Sc  Sc72  1  0.09554253  0.50227388  0.30061650  1
  Sc  Sc73  1  0.29368842  0.30087773  0.88966507  1
  Sc  Sc74  1  0.10358379  0.89712998  0.10022367  1
  Sc  Sc75  1  0.49564432  0.10205787  0.50380822  1
  Sc  Sc76  1  0.51095759  0.29367216  0.09798729  1
  Sc  Sc77  1  0.10394295  0.69906984  0.68637952  1
  Sc  Sc78  1  0.09878269  0.70505117  0.29985442  1
  Sc  Sc79  1  0.49432378  0.89689045  0.50386884  1
  Sc  Sc80  1  0.29443095  0.31025220  0.09985892  1
  Sc  Sc81  1  0.90165433  0.50773359  0.30495334  1
  Sc  Sc82  1  0.88823474  0.50839141  0.90052143  1
  Sc  Sc83  1  0.10500632  0.89585978  0.29498686  1
  Sc  Sc84  1  0.50779854  0.09818457  0.09705344  1
  Sc  Sc85  1  0.49597616  0.50361555  0.49698494  1
  Sc  Sc86  1  0.70769450  0.29191283  0.69865873  1
  Sc  Sc87  1  0.10483914  0.10196761  0.90588651  1
  Sc  Sc88  1  0.50118615  0.70167174  0.29666243  1
  Sc  Sc89  1  0.90529700  0.11278034  0.50744663  1
  Sc  Sc90  1  0.48857893  0.49903027  0.30086977  1
  Sc  Sc91  1  0.70463741  0.51487972  0.29835440  1
  Sc  Sc92  1  0.50164946  0.09599348  0.89530946  1
  Sc  Sc93  1  0.30289352  0.90713459  0.90503539  1
  Sc  Sc94  1  0.89282244  0.10502923  0.70482708  1
  Sc  Sc95  1  0.69982981  0.09583576  0.10708873  1
  Sc  Sc96  1  0.69469815  0.10164836  0.89189897  1
  Sc  Sc97  1  0.90593178  0.70006849  0.69306499  1
  Sc  Sc98  1  0.10020531  0.09543822  0.30422686  1
  Sc  Sc99  1  0.29576563  0.89359982  0.30353569  1
  Nb  Nb100  1  0.49682769  0.29917238  0.90165061  1
  Nb  Nb101  1  0.89908185  0.70179469  0.90132515  1
  Nb  Nb102  1  0.29655260  0.50696288  0.49336237  1
  Nb  Nb103  1  0.49676440  0.70347056  0.10132746  1
  Nb  Nb104  1  0.29982496  0.29991416  0.69180380  1
  Nb  Nb105  1  0.28937774  0.69625625  0.50188342  1
  Nb  Nb106  1  0.50074652  0.49529626  0.70073862  1
  Nb  Nb107  1  0.49879223  0.89792436  0.70946139  1
  Nb  Nb108  1  0.30205784  0.49905011  0.11325194  1
  Nb  Nb109  1  0.09643229  0.30472129  0.90323381  1
  Nb  Nb110  1  0.10096148  0.89418805  0.89920894  1
  Nb  Nb111  1  0.90351754  0.89600583  0.30184934  1
  Nb  Nb112  1  0.69684305  0.30140361  0.49930791  1
  Nb  Nb113  1  0.70212352  0.49848505  0.10068346  1
  Nb  Nb114  1  0.10164813  0.50468514  0.70304539  1
  Nb  Nb115  1  0.10746489  0.70460627  0.10043287  1
  Nb  Nb116  1  0.50069360  0.29876847  0.29902595  1
  Nb  Nb117  1  0.10262909  0.69979319  0.49790043  1
  Nb  Nb118  1  0.29538997  0.50557252  0.28995095  1
  Nb  Nb119  1  0.70257282  0.70002347  0.29966458  1
  Nb  Nb120  1  0.49896365  0.89745116  0.89668295  1
  Nb  Nb121  1  0.10258636  0.29849679  0.30675899  1
  Nb  Nb122  1  0.70293628  0.88976732  0.09748356  1
  Nb  Nb123  1  0.91038697  0.70203520  0.49363515  1
  Nb  Nb124  1  0.30396320  0.90017298  0.48951470  1
  Nb  Nb125  1  0.20389582  0.21053681  0.59668351  1
  Nb  Nb126  1  0.79869436  0.20762985  0.40393620  1
  Nb  Nb127  1  0.00062681  -0.00368137  0.59769220  1
  Nb  Nb128  1  0.79650214  0.39504145  0.40263175  1
  Nb  Nb129  1  0.21202733  0.21387010  0.39945110  1
  Nb  Nb130  1  0.40310864  -0.00368870  0.19659779  1
  Nb  Nb131  1  0.79860596  0.80141800  0.19971067  1
  Nb  Nb132  1  -0.00482151  -0.00856123  0.40241982  1
  Nb  Nb133  1  0.80017846  0.79897468  0.00247514  1
  Nb  Nb134  1  0.39419018  0.20662753  0.39078557  1
  Nb  Nb135  1  0.60182254  0.40719219  0.19812221  1
  Nb  Nb136  1  0.80124223  0.20153489  0.00036991  1
  Nb  Nb137  1  -0.00124778  0.39646694  -0.00286254  1
  Nb  Nb138  1  0.20711640  0.20071866  0.20891130  1
  Nb  Nb139  1  0.00194713  0.59902451  0.79916237  1
  Nb  Nb140  1  0.80201687  0.79737591  0.80208050  1
  Nb  Nb141  1  0.20367521  0.40359401  0.40135894  1
  Nb  Nb142  1  0.79970050  0.80012563  0.59811196  1
  Nb  Nb143  1  0.40251270  0.40066996  -0.00253106  1
  Nb  Nb144  1  0.79882349  0.39507695  0.00470606  1
  Nb  Nb145  1  0.19544186  0.80276194  0.80229952  1
  Nb  Nb146  1  0.60012449  0.39960780  0.59971975  1
  Nb  Nb147  1  0.39962541  0.20524829  0.00041241  1
  Nb  Nb148  1  0.40694633  0.79968096  0.00240326  1
  Nb  Nb149  1  0.39530418  0.19543772  0.20053181  1
  Pd  Pd150  1  0.59285747  0.60739427  0.79234448  1
  Pd  Pd151  1  0.59370015  0.59873240  0.39257798  1
  Pd  Pd152  1  0.19275640  0.59689623  0.39434587  1
  Pd  Pd153  1  0.79158280  0.00199635  -0.00339277  1
  Pd  Pd154  1  0.79417145  0.78956244  0.40304598  1
  Pd  Pd155  1  0.00634246  0.00992327  0.79648648  1
  Pd  Pd156  1  0.60213701  0.78891469  0.80324438  1
  Pd  Pd157  1  -0.00176922  0.20352937  0.00032240  1
  Pd  Pd158  1  0.59038590  0.00134408  0.40748892  1
  Pd  Pd159  1  0.38904241  0.80332485  0.80619722  1
  Pd  Pd160  1  -0.00167187  0.80540640  0.59322223  1
  Pd  Pd161  1  0.79339719  0.39973670  0.20991722  1
  Pd  Pd162  1  0.79352283  -0.00333113  0.80524296  1
  Pd  Pd163  1  0.80853834  0.61056913  0.59075455  1
  Pd  Pd164  1  0.20606970  0.20619522  0.00493497  1
  Pd  Pd165  1  0.80909883  0.60653192  0.78813888  1
  Pd  Pd166  1  0.39475775  0.40125105  0.39983688  1
  Pd  Pd167  1  0.59690401  0.40520474  0.00924596  1
  Pd  Pd168  1  0.79457603  0.39425532  0.80400774  1
  Pd  Pd169  1  0.20697988  0.40110441  0.79695969  1
  Pd  Pd170  1  0.80526065  0.61046811  0.19700939  1
  Pd  Pd171  1  0.60226688  0.38895477  0.78692292  1
  Pd  Pd172  1  0.59777413  0.59834790  -0.00318197  1
  Pd  Pd173  1  0.00324229  0.78768330  0.79632266  1
  Pd  Pd174  1  0.00395550  0.40498985  0.20040269  1
  Pd  Pd175  1  -0.00034473  0.59666997  0.60212561  1
  Pd  Pd176  1  0.58967017  -0.00473541  0.60123842  1
  Pd  Pd177  1  0.60658671  0.41006858  0.39387408  1
  Pd  Pd178  1  0.40028590  0.59435621  0.60205560  1
  Pd  Pd179  1  0.20918049  0.60038156  0.00432447  1
  Pd  Pd180  1  0.79640652  -0.00505362  0.20298298  1
  Pd  Pd181  1  -0.00640476  0.41120106  0.80802240  1
  Pd  Pd182  1  -0.00456072  0.58880116  -0.00312481  1
  Pd  Pd183  1  0.60422663  0.80133609  0.20996602  1
  Pd  Pd184  1  0.41509733  0.39423811  0.18584759  1
  Pd  Pd185  1  0.20165394  -0.00464014  0.80464705  1
  Pd  Pd186  1  0.80473211  0.00282412  0.59588204  1
  Pd  Pd187  1  0.20479238  0.40079531  -0.00321050  1
  Pd  Pd188  1  -0.00375324  0.80476869  0.00918220  1
  Pd  Pd189  1  0.00688007  0.60469785  0.20171833  1
  Pd  Pd190  1  0.59834881  -0.00800938  0.20335246  1
  Pd  Pd191  1  0.60394565  0.00488896  -0.00247572  1
  Pd  Pd192  1  0.21101521  0.80307858  0.60363493  1
  Pd  Pd193  1  0.39757336  0.19923617  0.80654838  1
  Pd  Pd194  1  0.00973774  0.19318861  0.79704613  1
  Pd  Pd195  1  0.19600377  0.00559450  0.59279871  1
  Pd  Pd196  1  0.80948471  0.01659918  0.40606608  1
  Pd  Pd197  1  0.19794844  0.20273616  0.79377298  1
  Pd  Pd198  1  0.39811598  0.60557667  0.39603611  1
  Pd  Pd199  1  0.39045652  0.80396464  0.59766399  1
  Rh  Rh200  1  0.20038926  0.59419396  0.59749929  1
  Rh  Rh201  1  0.19014534  -0.00793594  -0.00551226  1
  Rh  Rh202  1  -0.00115907  0.80002936  0.19551487  1
  Rh  Rh203  1  0.40282132  -0.00186956  0.79955432  1
  Rh  Rh204  1  0.18883616  0.61190299  0.79619210  1
  Rh  Rh205  1  0.39326150  0.39934698  0.80149674  1
  Rh  Rh206  1  0.20829835  0.79982350  -0.00507840  1
  Rh  Rh207  1  0.40463783  0.00177325  0.39575047  1
  Rh  Rh208  1  0.19372289  0.40311848  0.59411629  1
  Rh  Rh209  1  0.39449677  0.59903567  0.00296201  1
  Rh  Rh210  1  0.20229520  0.79567151  0.40197442  1
  Rh  Rh211  1  0.59901128  0.79641236  0.40069295  1
  Rh  Rh212  1  0.40319591  -0.00760605  0.60068519  1
  Rh  Rh213  1  0.01199095  0.80414160  0.40173350  1
  Rh  Rh214  1  0.40883354  0.41129723  0.59828023  1
  Rh  Rh215  1  0.19841312  0.79556677  0.20037936  1
  Rh  Rh216  1  0.59750972  0.19604358  0.39800384  1
  Rh  Rh217  1  0.18952838  0.40123323  0.20860756  1
  Rh  Rh218  1  0.00555483  0.60532257  0.40175594  1
  Rh  Rh219  1  0.79686210  0.19703545  0.80553104  1
  Rh  Rh220  1  -0.00085408  0.40676141  0.39866164  1
  Rh  Rh221  1  0.39221080  0.79093137  0.40733933  1
  Rh  Rh222  1  0.01144390  0.19217856  0.61204169  1
  Rh  Rh223  1  0.19027491  -0.00351003  0.40459400  1
  Rh  Rh224  1  0.59654029  0.20887803  0.60798390  1
  Rh  Rh225  1  0.80483946  0.60065819  0.40393622  1
  Rh  Rh226  1  0.01366102  0.19396778  0.20686182  1
  Rh  Rh227  1  0.59310797  0.20108286  0.79368659  1
  Rh  Rh228  1  0.59374937  0.00046744  0.79624764  1
  Rh  Rh229  1  0.40209234  0.80572878  0.19312942  1
  Rh  Rh230  1  0.59964008  0.80519309  0.59684518  1
  Rh  Rh231  1  0.80394075  0.59879869  0.01125261  1
  Rh  Rh232  1  0.01008607  -0.00427304  -0.00219009  1
  Rh  Rh233  1  0.00652735  0.40934306  0.59990873  1
  Rh  Rh234  1  0.79127738  0.39932999  0.59343656  1
  Rh  Rh235  1  0.00589357  -0.00437757  0.21023881  1
  Rh  Rh236  1  0.40488918  0.59628682  0.78723071  1
  Rh  Rh237  1  0.39060602  0.19546708  0.58848311  1
  Rh  Rh238  1  0.59529601  0.59596451  0.20637876  1
  Rh  Rh239  1  0.58784324  0.59157819  0.60176048  1
  Rh  Rh240  1  0.79620717  0.19871898  0.59638999  1
  Rh  Rh241  1  0.59842996  0.78929414  -0.00809706  1
  Rh  Rh242  1  -0.00538493  0.19002744  0.39317905  1
  Rh  Rh243  1  0.19403193  0.60432247  0.20156852  1
  Rh  Rh244  1  0.40249011  0.60491684  0.20818308  1
  Rh  Rh245  1  0.41243928  -0.00386655  0.00390413  1
  Rh  Rh246  1  0.59377883  0.20124106  0.20567159  1
  Rh  Rh247  1  0.20441009  0.00045302  0.20051406  1
  Rh  Rh248  1  0.79879037  0.19770008  0.20548830  1
  Rh  Rh249  1  0.59913873  0.19019388  -0.00382585  1
