# generated using pymatgen
data_ZrScNbPdRh
_symmetry_space_group_name_H-M   'P 1'
_cell_length_a   16.56982162
_cell_length_b   16.56205944
_cell_length_c   16.56795580
_cell_angle_alpha   90.02430702
_cell_angle_beta   90.03280573
_cell_angle_gamma   89.98871830
_symmetry_Int_Tables_number   1
_chemical_formula_structural   ZrScNbPdRh
_chemical_formula_sum   'Zr50 Sc50 Nb50 Pd50 Rh50'
_cell_volume   4546.74900968
_cell_formula_units_Z   50
loop_
 _symmetry_equiv_pos_site_id
 _symmetry_equiv_pos_as_xyz
  1  'x, y, z'
loop_
 _atom_site_type_symbol
 _atom_site_label
 _atom_site_symmetry_multiplicity
 _atom_site_fract_x
 _atom_site_fract_y
 _atom_site_fract_z
 _atom_site_occupancy
  Zr  Zr0  1  0.09900723  0.30212569  0.09235928  1
  Zr  Zr1  1  0.49088821  0.30469525  0.10153757  1
  Zr  Zr2  1  0.49748901  0.70385583  0.89681392  1
  Zr  Zr3  1  0.29796655  0.09860576  0.90175052  1
  Zr  Zr4  1  0.30851558  0.50710652  0.30516036  1
  Zr  Zr5  1  0.49682930  0.49796340  0.09563467  1
  Zr  Zr6  1  0.89294214  0.09760840  0.09839566  1
  Zr  Zr7  1  0.50158661  0.71035052  0.50504408  1
  Zr  Zr8  1  0.50519631  0.09606458  0.29794110  1
  Zr  Zr9  1  0.09730919  0.70099438  0.51398887  1
  Zr  Zr10  1  0.29350930  0.70847610  0.10091775  1
  Zr  Zr11  1  0.70109248  0.90369512  0.50077306  1
  Zr  Zr12  1  0.90218082  0.50566793  0.29661798  1
  Zr  Zr13  1  0.30481623  0.30236319  0.49967566  1
  Zr  Zr14  1  0.90740878  0.30747403  0.89663156  1
  Zr  Zr15  1  0.50349104  0.29692619  0.70231846  1
  Zr  Zr16  1  0.09329941  0.29463159  0.71064773  1
  Zr  Zr17  1  0.70338623  0.71551003  0.70502002  1
  Zr  Zr18  1  0.90771437  0.69965552  0.09705009  1
  Zr  Zr19  1  0.50017754  0.49875982  0.69911474  1
  Zr  Zr20  1  0.49865020  0.90551570  0.09309762  1
  Zr  Zr21  1  0.29895854  0.89926556  0.50530451  1
  Zr  Zr22  1  0.30233953  0.69743259  0.49549440  1
  Zr  Zr23  1  0.50428712  0.90248990  0.69908897  1
  Zr  Zr24  1  0.09634390  0.08486196  0.50624716  1
  Zr  Zr25  1  0.09541226  0.50067851  0.29722866  1
  Zr  Zr26  1  0.50342496  0.30034570  0.49729772  1
  Zr  Zr27  1  0.50585304  0.09661658  0.70764033  1
  Zr  Zr28  1  0.09565867  0.29473487  0.29654126  1
  Zr  Zr29  1  0.70461089  0.09717751  0.50552389  1
  Zr  Zr30  1  0.28379941  0.30533934  0.90633849  1
  Zr  Zr31  1  0.29922118  0.70401090  0.29750205  1
  Zr  Zr32  1  0.69999734  0.69731028  0.89963818  1
  Zr  Zr33  1  0.50299641  0.09522590  0.09589398  1
  Zr  Zr34  1  0.49906133  0.69778896  0.09299512  1
  Zr  Zr35  1  0.70722348  0.70420761  0.09220831  1
  Zr  Zr36  1  0.51080829  0.08887616  0.50124749  1
  Zr  Zr37  1  0.29300498  0.90374934  0.10293888  1
  Zr  Zr38  1  0.29893464  0.69665915  0.89838100  1
  Zr  Zr39  1  0.50191670  0.50316818  0.90462969  1
  Zr  Zr40  1  0.30135177  0.49881177  0.50289113  1
  Zr  Zr41  1  0.69938529  0.30101935  0.30695687  1
  Zr  Zr42  1  0.90310962  0.50133587  0.70734870  1
  Zr  Zr43  1  0.29651789  0.29074049  0.29681806  1
  Zr  Zr44  1  0.70291732  0.70189543  0.30593532  1
  Zr  Zr45  1  0.50272226  0.09272922  0.89831195  1
  Zr  Zr46  1  0.89164442  0.30226160  0.70167392  1
  Zr  Zr47  1  0.30742625  0.49298117  0.09274337  1
  Zr  Zr48  1  0.90430189  0.09338263  0.30065979  1
  Zr  Zr49  1  0.09468989  0.91254605  0.29957939  1
  Sc  Sc50  1  0.70152001  0.50619865  0.31523532  1
  Sc  Sc51  1  0.29552423  0.09825490  0.10250067  1
  Sc  Sc52  1  0.70241052  0.70194329  0.50382532  1
  Sc  Sc53  1  0.29877637  0.89838655  0.90532959  1
  Sc  Sc54  1  0.90559924  0.09219497  0.50062075  1
  Sc  Sc55  1  0.29945390  0.50323587  0.89938532  1
  Sc  Sc56  1  0.89701113  0.90183623  0.30057349  1
  Sc  Sc57  1  0.28399681  0.09591525  0.50494360  1
  Sc  Sc58  1  0.70535785  0.50586148  0.50045784  1
  Sc  Sc59  1  0.28630466  0.09313413  0.29333419  1
  Sc  Sc60  1  0.89938415  0.89439870  0.69864769  1
  Sc  Sc61  1  0.90542893  0.09958212  0.69555616  1
  Sc  Sc62  1  0.10383103  0.09204512  0.09672152  1
  Sc  Sc63  1  0.69945538  0.50369829  0.07878252  1
  Sc  Sc64  1  0.10039950  0.10040360  0.30936789  1
  Sc  Sc65  1  0.10072777  0.69631924  0.28711320  1
  Sc  Sc66  1  0.09714846  0.71115321  0.89663539  1
  Sc  Sc67  1  0.89187832  0.50949762  0.50835763  1
  Sc  Sc68  1  0.89336666  0.69827319  0.89623399  1
  Sc  Sc69  1  0.70411966  0.50692115  0.70385553  1
  Sc  Sc70  1  0.50742757  0.70382894  0.70311063  1
  Sc  Sc71  1  0.29117951  0.69753381  0.71059858  1
  Sc  Sc72  1  0.70912456  0.29889234  0.89173096  1
  Sc  Sc73  1  0.49604866  0.30418869  0.30299926  1
  Sc  Sc74  1  0.30095430  0.09693066  0.70342950  1
  Sc  Sc75  1  0.30069187  0.90126875  0.70292132  1
  Sc  Sc76  1  0.09752662  0.51571142  0.70410964  1
  Sc  Sc77  1  0.29537436  0.29659222  0.09861549  1
  Sc  Sc78  1  0.70780130  0.90374355  0.09354208  1
  Sc  Sc79  1  0.70890672  0.29333486  0.08785005  1
  Sc  Sc80  1  0.29772863  0.50311545  0.70627458  1
  Sc  Sc81  1  0.89594764  0.49832588  0.89604316  1
  Sc  Sc82  1  0.70428833  0.09729704  0.08899314  1
  Sc  Sc83  1  0.90294099  0.49938755  0.09100693  1
  Sc  Sc84  1  0.50556106  0.90148717  0.29939318  1
  Sc  Sc85  1  0.70002375  0.89330431  0.90017226  1
  Sc  Sc86  1  0.90060139  0.30272341  0.29725844  1
  Sc  Sc87  1  0.49403406  0.69756828  0.30588033  1
  Sc  Sc88  1  0.09962626  0.27479433  0.49399800  1
  Sc  Sc89  1  0.51339568  0.29461016  0.89597663  1
  Sc  Sc90  1  0.90497737  0.09748679  0.90298779  1
  Sc  Sc91  1  0.30054565  0.30189657  0.69983974  1
  Sc  Sc92  1  0.70382231  0.08663222  0.30602853  1
  Sc  Sc93  1  0.08585157  0.50487852  0.10476783  1
  Sc  Sc94  1  0.90553208  0.90423414  0.10172230  1
  Sc  Sc95  1  0.90496084  0.90790996  0.89871265  1
  Sc  Sc96  1  0.89809792  0.71147192  0.29960217  1
  Sc  Sc97  1  0.49318770  0.49435119  0.49220946  1
  Sc  Sc98  1  0.89843414  0.30232247  0.09114984  1
  Sc  Sc99  1  0.90296967  0.70134077  0.70098810  1
  Nb  Nb100  1  0.09883361  0.50435113  0.50214311  1
  Nb  Nb101  1  0.09924188  0.10191145  0.89787216  1
  Nb  Nb102  1  0.70073022  0.09986992  0.89995925  1
  Nb  Nb103  1  0.10100012  0.89491530  0.08810762  1
  Nb  Nb104  1  0.89584388  0.29925087  0.50315340  1
  Nb  Nb105  1  0.10314901  0.48907755  0.89966649  1
  Nb  Nb106  1  0.09459426  0.89828479  0.70246929  1
  Nb  Nb107  1  0.70385342  0.90082308  0.69900610  1
  Nb  Nb108  1  0.70370255  0.89308723  0.29857252  1
  Nb  Nb109  1  0.49804473  0.90019280  0.50517385  1
  Nb  Nb110  1  0.29408472  0.89994560  0.30237475  1
  Nb  Nb111  1  0.90407930  0.70606080  0.50355061  1
  Nb  Nb112  1  0.09895975  0.89823458  0.50562825  1
  Nb  Nb113  1  0.70436454  0.50171669  0.89720452  1
  Nb  Nb114  1  0.09738710  0.09255282  0.69955775  1
  Nb  Nb115  1  0.09727678  0.70627939  0.70251283  1
  Nb  Nb116  1  0.91072055  0.89160403  0.49993169  1
  Nb  Nb117  1  0.49469335  0.90511462  0.89784043  1
  Nb  Nb118  1  0.09510045  0.91349259  0.90342987  1
  Nb  Nb119  1  0.70448473  0.28896336  0.69398193  1
  Nb  Nb120  1  0.70338871  0.09997850  0.69950073  1
  Nb  Nb121  1  0.10014839  0.70213426  0.09305552  1
  Nb  Nb122  1  0.70651333  0.29837378  0.50492867  1
  Nb  Nb123  1  0.10013760  0.29879876  0.90376423  1
  Nb  Nb124  1  0.49978167  0.49798213  0.29342869  1
  Nb  Nb125  1  0.60296925  0.59775333  0.19912089  1
  Nb  Nb126  1  -0.00284326  0.19519222  0.19604125  1
  Nb  Nb127  1  0.18600720  0.39932505  0.59449081  1
  Nb  Nb128  1  0.80096623  0.20187507  0.40686318  1
  Nb  Nb129  1  0.00271305  0.39820079  0.59572079  1
  Nb  Nb130  1  0.19368352  0.40117969  0.40152174  1
  Nb  Nb131  1  0.40043989  0.60186020  0.60017573  1
  Nb  Nb132  1  0.19174495  0.60368785  0.00255249  1
  Nb  Nb133  1  0.40064140  0.19786889  -0.00406555  1
  Nb  Nb134  1  0.79277275  0.00320667  0.79495705  1
  Nb  Nb135  1  0.18671894  0.00074646  0.80215875  1
  Nb  Nb136  1  0.60629636  0.40393678  0.19934411  1
  Nb  Nb137  1  0.79184483  0.40789981  0.19830136  1
  Nb  Nb138  1  0.60560590  0.79645425  0.19820150  1
  Nb  Nb139  1  0.60285340  0.20365639  0.19910592  1
  Nb  Nb140  1  0.00191855  0.40302789  0.41263311  1
  Nb  Nb141  1  0.40507199  0.19676839  0.59579222  1
  Nb  Nb142  1  0.40010585  0.18797611  0.40391640  1
  Nb  Nb143  1  0.39792055  -0.00242513  0.40244117  1
  Nb  Nb144  1  0.19587915  0.80465637  0.40112662  1
  Nb  Nb145  1  -0.00018283  0.60269523  0.40726840  1
  Nb  Nb146  1  0.79499654  0.59955318  0.19663730  1
  Nb  Nb147  1  0.19956469  0.40274077  0.20422553  1
  Nb  Nb148  1  0.60916526  0.39229371  0.60024607  1
  Nb  Nb149  1  0.40377371  0.39914042  0.80393827  1
  Pd  Pd150  1  0.19143817  0.60573559  0.39905387  1
  Pd  Pd151  1  -0.00526133  0.80292374  -0.00728878  1
  Pd  Pd152  1  0.59814625  0.20155862  0.00373239  1
  Pd  Pd153  1  0.60934981  -0.00663473  0.80428389  1
  Pd  Pd154  1  0.40968066  0.80622495  0.20256039  1
  Pd  Pd155  1  0.80685126  0.19184845  0.80434076  1
  Pd  Pd156  1  0.60221337  0.60233121  0.80056958  1
  Pd  Pd157  1  0.00489133  0.59660333  -0.01363231  1
  Pd  Pd158  1  0.40269430  0.60337107  0.19543030  1
  Pd  Pd159  1  0.39565443  0.20672786  0.80298337  1
  Pd  Pd160  1  0.79600026  -0.00376821  0.19982603  1
  Pd  Pd161  1  0.59178634  0.59915010  0.40228259  1
  Pd  Pd162  1  0.80799674  0.39884356  0.39846546  1
  Pd  Pd163  1  0.00438725  0.80504000  0.19944867  1
  Pd  Pd164  1  0.20570769  0.59794140  0.60721322  1
  Pd  Pd165  1  0.39739617  0.00748013  0.59861096  1
  Pd  Pd166  1  -0.00644992  0.80270253  0.80398694  1
  Pd  Pd167  1  0.20280643  0.80123520  0.60302616  1
  Pd  Pd168  1  0.59934189  0.80600880  0.00056027  1
  Pd  Pd169  1  0.81236035  0.80740328  -0.00505457  1
  Pd  Pd170  1  0.59763829  0.19921987  0.60125540  1
  Pd  Pd171  1  0.39557419  -0.00235434  0.20649558  1
  Pd  Pd172  1  0.39998633  0.80399752  0.79552588  1
  Pd  Pd173  1  0.00336426  0.60379140  0.80879995  1
  Pd  Pd174  1  0.81016641  -0.00381532  0.60337268  1
  Pd  Pd175  1  0.60445026  0.19468993  0.39554864  1
  Pd  Pd176  1  0.39608446  0.80294327  -0.00078607  1
  Pd  Pd177  1  0.59914272  0.80422139  0.39800268  1
  Pd  Pd178  1  0.79875490  0.20494627  0.20664692  1
  Pd  Pd179  1  0.19977620  0.19373919  0.79587989  1
  Pd  Pd180  1  0.40482175  0.19187933  0.19929917  1
  Pd  Pd181  1  0.80143743  0.61050106  0.60742329  1
  Pd  Pd182  1  -0.00650124  0.19422087  0.80185125  1
  Pd  Pd183  1  -0.00394839  0.20281512  0.60053939  1
  Pd  Pd184  1  0.79890876  0.40589113  0.60515767  1
  Pd  Pd185  1  0.61261089  -0.00291120  0.19604456  1
  Pd  Pd186  1  0.60314754  0.40663166  0.40446771  1
  Pd  Pd187  1  0.00937125  0.79472671  0.39491310  1
  Pd  Pd188  1  0.39770274  0.80916268  0.39625174  1
  Pd  Pd189  1  0.18897180  0.80803328  0.20480307  1
  Pd  Pd190  1  0.60701947  0.39916018  0.79331230  1
  Pd  Pd191  1  0.60563071  0.39236679  0.00066019  1
  Pd  Pd192  1  0.80211883  0.80328422  0.40808692  1
  Pd  Pd193  1  -0.00086652  0.19456160  0.00423901  1
  Pd  Pd194  1  0.20333794  0.20285550  0.60808385  1
  Pd  Pd195  1  0.20349171  0.59157462  0.18815272  1
  Pd  Pd196  1  0.19924238  0.40330293  0.79036856  1
  Pd  Pd197  1  0.59446108  0.59236771  0.59350032  1
  Pd  Pd198  1  0.39490172  0.79145388  0.61340911  1
  Pd  Pd199  1  0.19632735  0.81003153  0.80569243  1
  Rh  Rh200  1  -0.01088427  0.61180835  0.20307996  1
  Rh  Rh201  1  0.40423263  0.38455492  -0.01664269  1
  Rh  Rh202  1  -0.00371529  0.38728283  0.19513659  1
  Rh  Rh203  1  0.39282984  0.39312987  0.38867795  1
  Rh  Rh204  1  0.20827859  0.19585950  0.40031539  1
  Rh  Rh205  1  0.59982027  0.60314406  -0.00444065  1
  Rh  Rh206  1  -0.00058850  0.80137928  0.60819374  1
  Rh  Rh207  1  0.79739477  0.60250744  0.79942632  1
  Rh  Rh208  1  0.79538011  0.79883340  0.19609926  1
  Rh  Rh209  1  0.39511100  0.00427816  -0.00047939  1
  Rh  Rh210  1  0.19933344  0.00021181  -0.00510985  1
  Rh  Rh211  1  0.61085345  0.19501997  0.79841303  1
  Rh  Rh212  1  0.79311887  0.40122449  0.79697056  1
  Rh  Rh213  1  0.00092874  0.40481366  -0.00552687  1
  Rh  Rh214  1  0.60494450  0.80807242  0.60062210  1
  Rh  Rh215  1  0.19161259  -0.00507272  0.19619249  1
  Rh  Rh216  1  0.80328640  0.80806279  0.80295269  1
  Rh  Rh217  1  0.59926493  -0.01140063  0.40086023  1
  Rh  Rh218  1  -0.00566224  0.60040283  0.60069767  1
  Rh  Rh219  1  0.40589663  0.59446353  0.79445951  1
  Rh  Rh220  1  0.18803532  0.60209234  0.81100538  1
  Rh  Rh221  1  0.80163915  0.79940091  0.59640173  1
  Rh  Rh222  1  0.80042094  0.40139383  -0.00400744  1
  Rh  Rh223  1  0.18748167  0.20297319  0.19246466  1
  Rh  Rh224  1  0.00381765  0.00390320  0.19340307  1
  Rh  Rh225  1  0.81199896  0.61154497  0.39908679  1
  Rh  Rh226  1  0.19632474  0.79945469  -0.00623544  1
  Rh  Rh227  1  -0.01379548  0.20224904  0.39312316  1
  Rh  Rh228  1  0.39207024  -0.00648256  0.80340522  1
  Rh  Rh229  1  0.80594025  0.19864291  -0.01203684  1
  Rh  Rh230  1  -0.00371410  -0.00603971  0.40605297  1
  Rh  Rh231  1  0.60465543  -0.00602414  -0.00731717  1
  Rh  Rh232  1  0.40829211  0.60179157  0.40605411  1
  Rh  Rh233  1  0.60483332  -0.00461778  0.60527225  1
  Rh  Rh234  1  0.20193826  0.19344418  0.00163965  1
  Rh  Rh235  1  0.00041258  0.00389383  0.00602438  1
  Rh  Rh236  1  -0.00248419  -0.01033132  0.60306715  1
  Rh  Rh237  1  0.79982289  -0.00062177  -0.01204362  1
  Rh  Rh238  1  0.19456971  -0.00817008  0.61355370  1
  Rh  Rh239  1  0.80572975  0.59840182  -0.00164202  1
  Rh  Rh240  1  0.40442116  0.39997722  0.61402038  1
  Rh  Rh241  1  0.20218115  -0.00741346  0.40446233  1
  Rh  Rh242  1  -0.00081524  0.00102536  0.79446424  1
  Rh  Rh243  1  0.38987872  0.60801667  0.00094258  1
  Rh  Rh244  1  0.00596434  0.40266602  0.79666109  1
  Rh  Rh245  1  0.80582147  -0.00366683  0.40347889  1
  Rh  Rh246  1  0.18904587  0.41366772  0.01143434  1
  Rh  Rh247  1  0.59767670  0.80714129  0.80325707  1
  Rh  Rh248  1  0.80633800  0.19278719  0.59566497  1
  Rh  Rh249  1  0.39457019  0.39993657  0.20657841  1
