# generated using pymatgen
data_ZrScNbPdRh
_symmetry_space_group_name_H-M   'P 1'
_cell_length_a   16.57018054
_cell_length_b   16.56519495
_cell_length_c   16.55757428
_cell_angle_alpha   90.00762419
_cell_angle_beta   90.04876461
_cell_angle_gamma   89.99998064
_symmetry_Int_Tables_number   1
_chemical_formula_structural   ZrScNbPdRh
_chemical_formula_sum   'Zr50 Sc50 Nb50 Pd50 Rh50'
_cell_volume   4544.85824883
_cell_formula_units_Z   50
loop_
 _symmetry_equiv_pos_site_id
 _symmetry_equiv_pos_as_xyz
  1  'x, y, z'
loop_
 _atom_site_type_symbol
 _atom_site_label
 _atom_site_symmetry_multiplicity
 _atom_site_fract_x
 _atom_site_fract_y
 _atom_site_fract_z
 _atom_site_occupancy
  Zr  Zr0  1  0.89778723  0.09302732  0.50133726  1
  Zr  Zr1  1  0.70245851  0.49636220  0.69597057  1
  Zr  Zr2  1  0.50283550  0.29320398  0.10094793  1
  Zr  Zr3  1  0.89521402  0.29988216  0.69761652  1
  Zr  Zr4  1  0.90078286  0.49772875  0.71156387  1
  Zr  Zr5  1  0.49410473  0.69524113  0.89867155  1
  Zr  Zr6  1  0.10091513  0.10806062  0.29071752  1
  Zr  Zr7  1  0.29268966  0.10100557  0.89560863  1
  Zr  Zr8  1  0.90696304  0.30594738  0.49727339  1
  Zr  Zr9  1  0.10024293  0.10083611  0.70100161  1
  Zr  Zr10  1  0.10899721  0.69643768  0.70940453  1
  Zr  Zr11  1  0.89376064  0.49802293  0.10737165  1
  Zr  Zr12  1  0.09915888  0.10692186  0.08484090  1
  Zr  Zr13  1  0.50969936  0.69677817  0.10415434  1
  Zr  Zr14  1  0.89854196  0.69911403  0.50239433  1
  Zr  Zr15  1  0.49666024  0.69434798  0.30094763  1
  Zr  Zr16  1  0.29773347  0.09654939  0.09743283  1
  Zr  Zr17  1  0.30470686  0.09658792  0.30145717  1
  Zr  Zr18  1  0.90182094  0.10759995  0.29971280  1
  Zr  Zr19  1  0.50083321  0.09873060  0.71019291  1
  Zr  Zr20  1  0.09827154  0.30407019  0.30500908  1
  Zr  Zr21  1  0.89423220  0.10144311  0.69284634  1
  Zr  Zr22  1  0.29951732  0.09955056  0.49358979  1
  Zr  Zr23  1  0.29764582  0.70055432  0.89544530  1
  Zr  Zr24  1  0.90007383  0.50124805  0.31041685  1
  Zr  Zr25  1  0.89936669  0.69970425  0.09995117  1
  Zr  Zr26  1  0.69694953  0.89529732  0.89193436  1
  Zr  Zr27  1  0.69626227  0.10441316  0.09592876  1
  Zr  Zr28  1  0.50366208  0.50143455  0.70396649  1
  Zr  Zr29  1  0.89963218  0.30622606  0.30048863  1
  Zr  Zr30  1  0.30225056  0.69446914  0.70362599  1
  Zr  Zr31  1  0.50096914  0.90035588  0.09941947  1
  Zr  Zr32  1  0.50177808  0.49316112  0.50839299  1
  Zr  Zr33  1  0.89791722  0.71223387  0.70783328  1
  Zr  Zr34  1  0.49396054  0.09901939  0.49350827  1
  Zr  Zr35  1  0.49913519  0.09771486  0.10163372  1
  Zr  Zr36  1  0.49443667  0.69412781  0.50063070  1
  Zr  Zr37  1  0.70728443  0.29871173  0.30245829  1
  Zr  Zr38  1  0.29524468  0.30881252  0.08990676  1
  Zr  Zr39  1  0.30821152  0.30188727  0.50260214  1
  Zr  Zr40  1  0.71370736  0.49916113  0.29890626  1
  Zr  Zr41  1  0.90024936  0.89617946  0.09263982  1
  Zr  Zr42  1  0.09399320  0.89991812  0.49285011  1
  Zr  Zr43  1  0.10579250  0.49755732  0.09420356  1
  Zr  Zr44  1  0.49681267  0.49708300  0.09874518  1
  Zr  Zr45  1  0.49827538  0.49906576  0.90107987  1
  Zr  Zr46  1  0.30256383  0.10305513  0.70838418  1
  Zr  Zr47  1  0.70739100  0.49834231  0.89368726  1
  Zr  Zr48  1  0.70094269  0.29557604  0.70433831  1
  Zr  Zr49  1  0.29958312  0.49441273  0.09905606  1
  Sc  Sc50  1  0.49655869  0.90608416  0.90300452  1
  Sc  Sc51  1  0.90310655  0.69345267  0.30539968  1
  Sc  Sc52  1  0.09487657  0.10059535  0.49351119  1
  Sc  Sc53  1  0.70771253  0.30946231  0.50708864  1
  Sc  Sc54  1  0.68547388  0.10521450  0.89233202  1
  Sc  Sc55  1  0.70481504  0.08685024  0.30813757  1
  Sc  Sc56  1  0.90045167  0.10882082  0.91014573  1
  Sc  Sc57  1  0.51256460  0.90044114  0.30158130  1
  Sc  Sc58  1  0.29806432  0.89951664  0.71618217  1
  Sc  Sc59  1  0.10442943  0.29792549  0.10080825  1
  Sc  Sc60  1  0.50279827  0.90364351  0.70148178  1
  Sc  Sc61  1  0.69779397  0.29507741  0.09488005  1
  Sc  Sc62  1  0.69756039  0.69849872  0.50979306  1
  Sc  Sc63  1  0.29415323  0.90168293  0.47904415  1
  Sc  Sc64  1  0.70830676  0.50523303  0.50848737  1
  Sc  Sc65  1  0.30005654  0.90202162  0.90687793  1
  Sc  Sc66  1  0.09389120  0.89262638  0.70501519  1
  Sc  Sc67  1  0.28998697  0.89892037  0.29538426  1
  Sc  Sc68  1  0.70008591  0.29466894  0.90210596  1
  Sc  Sc69  1  0.30275886  0.49690070  0.90242400  1
  Sc  Sc70  1  0.30677712  0.49466820  0.29506082  1
  Sc  Sc71  1  0.10276905  0.31671879  0.69795097  1
  Sc  Sc72  1  0.29748994  0.90250608  0.09780537  1
  Sc  Sc73  1  0.69819492  0.69924627  0.29552210  1
  Sc  Sc74  1  0.89999595  0.29624573  0.08859655  1
  Sc  Sc75  1  0.89547005  0.90593533  0.29882886  1
  Sc  Sc76  1  0.10028929  0.89795445  0.90421126  1
  Sc  Sc77  1  0.29093522  0.49648737  0.70432634  1
  Sc  Sc78  1  0.10135268  0.89793086  0.29929885  1
  Sc  Sc79  1  0.50456512  0.30428355  0.89423459  1
  Sc  Sc80  1  0.10673708  0.69907710  0.90061128  1
  Sc  Sc81  1  0.70220784  0.69105671  0.69737195  1
  Sc  Sc82  1  0.90328110  0.10675723  0.09397052  1
  Sc  Sc83  1  0.69520317  0.89721736  0.11204095  1
  Sc  Sc84  1  0.69964682  0.69810910  0.10548503  1
  Sc  Sc85  1  0.09609113  0.70742115  0.49517805  1
  Sc  Sc86  1  0.49034803  0.50142927  0.29171750  1
  Sc  Sc87  1  0.51618094  0.89734027  0.50038384  1
  Sc  Sc88  1  0.09868774  0.49997653  0.30413685  1
  Sc  Sc89  1  0.70722605  0.69662487  0.89939259  1
  Sc  Sc90  1  0.29074927  0.70446485  0.09082272  1
  Sc  Sc91  1  0.30138170  0.30191210  0.29625251  1
  Sc  Sc92  1  0.70112364  0.50500400  0.10199268  1
  Sc  Sc93  1  0.30513817  0.50059948  0.50423228  1
  Sc  Sc94  1  0.69149318  0.90421403  0.68376942  1
  Sc  Sc95  1  0.09969389  0.70321865  0.09872434  1
  Sc  Sc96  1  0.09426295  0.70946967  0.30038325  1
  Sc  Sc97  1  0.10493766  0.89411922  0.09752590  1
  Sc  Sc98  1  0.10652597  0.30464865  0.90639305  1
  Sc  Sc99  1  0.10804706  0.48846648  0.50818928  1
  Nb  Nb100  1  0.10893247  0.30219885  0.50260265  1
  Nb  Nb101  1  0.69936357  0.91176607  0.49093516  1
  Nb  Nb102  1  0.30349159  0.70155566  0.30610058  1
  Nb  Nb103  1  0.09569538  0.10319467  0.89761785  1
  Nb  Nb104  1  0.10062663  0.50638472  0.70635711  1
  Nb  Nb105  1  0.50149918  0.29832595  0.50123718  1
  Nb  Nb106  1  0.09768982  0.50174088  0.89102802  1
  Nb  Nb107  1  0.89928316  0.50644018  0.50180900  1
  Nb  Nb108  1  0.69566192  0.08589144  0.50713192  1
  Nb  Nb109  1  0.89373138  0.70583121  0.89847039  1
  Nb  Nb110  1  0.49861386  0.11306188  0.29720118  1
  Nb  Nb111  1  0.30570671  0.29800016  0.70976888  1
  Nb  Nb112  1  0.30276209  0.70263231  0.49468885  1
  Nb  Nb113  1  0.49965067  0.70013856  0.69864933  1
  Nb  Nb114  1  0.50390000  0.29329752  0.29898447  1
  Nb  Nb115  1  0.49909021  0.30125014  0.69244163  1
  Nb  Nb116  1  0.30448640  0.30241669  0.89224836  1
  Nb  Nb117  1  0.90097704  0.49749999  0.90263152  1
  Nb  Nb118  1  0.89327491  0.88782796  0.89052270  1
  Nb  Nb119  1  0.49318295  0.10011398  0.89905675  1
  Nb  Nb120  1  0.89796014  0.89965360  0.70400471  1
  Nb  Nb121  1  0.89875039  0.89767822  0.50918176  1
  Nb  Nb122  1  0.69622429  0.09810299  0.69680612  1
  Nb  Nb123  1  0.70148140  0.89905038  0.31026239  1
  Nb  Nb124  1  0.89719438  0.30519004  0.89788813  1
  Nb  Nb125  1  0.60029849  0.39536866  0.20658732  1
  Nb  Nb126  1  0.59745703  0.59094367  0.39985729  1
  Nb  Nb127  1  0.20386455  0.20270350  0.60087405  1
  Nb  Nb128  1  0.39218054  -0.00545864  0.59825770  1
  Nb  Nb129  1  0.40110170  0.79624176  0.20166706  1
  Nb  Nb130  1  -0.01021755  0.00131823  0.80497293  1
  Nb  Nb131  1  -0.00708580  0.59513596  -0.00963726  1
  Nb  Nb132  1  0.20356066  -0.00114763  0.59949770  1
  Nb  Nb133  1  0.39775812  0.19939557  -0.00723156  1
  Nb  Nb134  1  0.79870380  -0.00511325  -0.00851103  1
  Nb  Nb135  1  0.80054454  0.19835245  0.20065901  1
  Nb  Nb136  1  0.79653901  0.80843686  0.40672322  1
  Nb  Nb137  1  0.20835530  0.80268568  0.59640246  1
  Nb  Nb138  1  0.80167357  -0.00102763  0.79801480  1
  Nb  Nb139  1  0.20288528  0.60360255  0.20629259  1
  Nb  Nb140  1  0.00299805  0.59662029  0.60896192  1
  Nb  Nb141  1  0.59759350  0.39806454  0.39795380  1
  Nb  Nb142  1  0.59822471  0.19830548  0.59849799  1
  Nb  Nb143  1  0.59555417  0.79322292  0.79637904  1
  Nb  Nb144  1  0.39418936  0.80238321  0.59751050  1
  Nb  Nb145  1  -0.00102071  0.20086593  0.80247419  1
  Nb  Nb146  1  0.00084246  0.00509369  0.19273539  1
  Nb  Nb147  1  0.59919921  0.20191696  0.40536426  1
  Nb  Nb148  1  0.20810176  0.60643646  0.39772372  1
  Nb  Nb149  1  -0.00267825  0.40006473  0.20081048  1
  Pd  Pd150  1  0.38921389  0.20543718  0.19200665  1
  Pd  Pd151  1  0.60291157  0.39707395  0.79915063  1
  Pd  Pd152  1  0.01035394  0.20691508  0.60213446  1
  Pd  Pd153  1  0.60361449  0.79533688  -0.00586241  1
  Pd  Pd154  1  -0.00433756  0.80832991  0.20390523  1
  Pd  Pd155  1  0.20589102  0.20438159  0.19813289  1
  Pd  Pd156  1  0.79187822  0.19772032  0.58832530  1
  Pd  Pd157  1  -0.00598179  0.60998111  0.80377223  1
  Pd  Pd158  1  0.80332290  0.19285045  0.80821469  1
  Pd  Pd159  1  0.00178231  0.20267539  0.40541683  1
  Pd  Pd160  1  0.40004346  0.79889755  0.00748404  1
  Pd  Pd161  1  -0.00233739  0.40765525  0.59906727  1
  Pd  Pd162  1  0.39729393  0.59867787  0.60549620  1
  Pd  Pd163  1  0.80347488  0.79647550  0.21046868  1
  Pd  Pd164  1  0.40655073  0.80524666  0.79745692  1
  Pd  Pd165  1  0.18846075  0.21216638  0.79585295  1
  Pd  Pd166  1  0.19045399  -0.00047695  0.19482976  1
  Pd  Pd167  1  0.60799538  0.78708514  0.40204218  1
  Pd  Pd168  1  0.40078647  0.19355724  0.60417900  1
  Pd  Pd169  1  0.19295355  0.60796219  0.58915115  1
  Pd  Pd170  1  0.79085298  0.80586529  0.59807436  1
  Pd  Pd171  1  0.01424315  0.59258401  0.41320268  1
  Pd  Pd172  1  0.80548058  0.00614246  0.18858011  1
  Pd  Pd173  1  0.20737932  0.40833654  0.39875382  1
  Pd  Pd174  1  -0.00121634  -0.00274489  0.38953114  1
  Pd  Pd175  1  0.40917748  -0.01098708  0.39546289  1
  Pd  Pd176  1  0.18914310  -0.00806079  0.80008852  1
  Pd  Pd177  1  0.60503956  0.00102553  -0.00423795  1
  Pd  Pd178  1  0.00225954  0.40068944  0.00325325  1
  Pd  Pd179  1  0.40511604  0.39896933  0.39594826  1
  Pd  Pd180  1  0.79396795  0.39733042  0.00136626  1
  Pd  Pd181  1  0.60104353  0.00466268  0.20702294  1
  Pd  Pd182  1  0.40271399  -0.01066560  0.20719520  1
  Pd  Pd183  1  0.60571523  0.40159438  0.00469556  1
  Pd  Pd184  1  0.40556817  0.81079075  0.39729360  1
  Pd  Pd185  1  0.00811164  0.59405361  0.19397183  1
  Pd  Pd186  1  0.39483466  0.40350974  0.61045855  1
  Pd  Pd187  1  0.20235701  0.20255326  0.40210364  1
  Pd  Pd188  1  0.38820539  0.60977603  0.18878195  1
  Pd  Pd189  1  0.00361712  0.79130801  -0.00764630  1
  Pd  Pd190  1  0.60367920  0.60481237  0.80123835  1
  Pd  Pd191  1  0.00811924  0.79410420  0.60483084  1
  Pd  Pd192  1  0.78834986  0.80233080  0.00604279  1
  Pd  Pd193  1  0.79282545  0.19460065  0.40680065  1
  Pd  Pd194  1  0.00614689  -0.00498196  0.60675201  1
  Pd  Pd195  1  -0.00546863  -0.00530238  -0.00447533  1
  Pd  Pd196  1  0.60551206  0.59843226  -0.00223211  1
  Pd  Pd197  1  0.80372707  0.60063287  -0.00012442  1
  Pd  Pd198  1  0.00301862  0.39149651  0.80440611  1
  Pd  Pd199  1  0.39511807  0.60325086  0.00603054  1
  Rh  Rh200  1  0.79732934  0.39613118  0.80230279  1
  Rh  Rh201  1  0.20753457  0.79200046  0.20218162  1
  Rh  Rh202  1  0.19624305  0.00038113  -0.00274757  1
  Rh  Rh203  1  -0.00725834  0.20465559  0.19443372  1
  Rh  Rh204  1  0.59273058  0.01075336  0.39250459  1
  Rh  Rh205  1  0.58635454  0.00769531  0.59988327  1
  Rh  Rh206  1  0.58803834  0.19692632  -0.00827334  1
  Rh  Rh207  1  0.59686722  0.59878548  0.59722248  1
  Rh  Rh208  1  0.19010369  0.00665780  0.39720141  1
  Rh  Rh209  1  0.19462033  0.59585179  -0.00108012  1
  Rh  Rh210  1  0.80916774  -0.00447065  0.40552725  1
  Rh  Rh211  1  0.19620373  0.79401371  0.40010114  1
  Rh  Rh212  1  0.20051541  0.80310507  -0.00413025  1
  Rh  Rh213  1  -0.01548509  0.80816914  0.39781807  1
  Rh  Rh214  1  0.61346201  0.19759105  0.21205686  1
  Rh  Rh215  1  0.80859879  0.40447744  0.60166542  1
  Rh  Rh216  1  0.79984228  0.40732513  0.41361236  1
  Rh  Rh217  1  0.80350471  0.60931021  0.20266308  1
  Rh  Rh218  1  0.39650317  0.00812618  -0.00282194  1
  Rh  Rh219  1  0.79046475  0.61109059  0.40367559  1
  Rh  Rh220  1  0.21022215  0.39209505  0.60411754  1
  Rh  Rh221  1  0.59638343  0.80133929  0.20334606  1
  Rh  Rh222  1  0.40049708  0.20698939  0.39344140  1
  Rh  Rh223  1  0.60509085  0.58618379  0.20778720  1
  Rh  Rh224  1  0.00590307  0.80038101  0.80702415  1
  Rh  Rh225  1  0.60221130  0.39373411  0.59951589  1
  Rh  Rh226  1  0.00400658  0.40419464  0.40375141  1
  Rh  Rh227  1  0.20013751  0.40541770  -0.01145399  1
  Rh  Rh228  1  0.40384260  0.39093320  -0.00506388  1
  Rh  Rh229  1  0.81409157  0.59832884  0.60890238  1
  Rh  Rh230  1  0.20674573  0.20207782  -0.00677367  1
  Rh  Rh231  1  0.00288906  0.21204379  -0.00947030  1
  Rh  Rh232  1  0.80381234  0.59922650  0.79991585  1
  Rh  Rh233  1  0.80050092  0.38630437  0.18769906  1
  Rh  Rh234  1  0.40834668  0.39019426  0.19766932  1
  Rh  Rh235  1  0.60370845  -0.00684511  0.79970862  1
  Rh  Rh236  1  0.20654500  0.59229919  0.81011652  1
  Rh  Rh237  1  0.59381762  0.20435974  0.79481662  1
  Rh  Rh238  1  0.20067282  0.40110891  0.80293457  1
  Rh  Rh239  1  0.19965266  0.80302916  0.80194500  1
  Rh  Rh240  1  0.39803717  0.59201376  0.79704421  1
  Rh  Rh241  1  0.39965225  0.59007400  0.40291204  1
  Rh  Rh242  1  0.78278610  0.80532012  0.78555288  1
  Rh  Rh243  1  0.40299500  0.40124733  0.79556026  1
  Rh  Rh244  1  0.59299577  0.79384114  0.60458087  1
  Rh  Rh245  1  0.40046091  -0.00512908  0.80053089  1
  Rh  Rh246  1  0.19071528  0.40709722  0.20636434  1
  Rh  Rh247  1  0.40871216  0.20776366  0.80683162  1
  Rh  Rh248  1  0.79535665  0.19558827  -0.00186470  1
  Rh  Rh249  1  0.80078664  -0.00541454  0.60371144  1
