# generated using pymatgen
data_ZrScNbPdRh
_symmetry_space_group_name_H-M   'P 1'
_cell_length_a   16.55393752
_cell_length_b   16.56063276
_cell_length_c   16.55304194
_cell_angle_alpha   90.01348617
_cell_angle_beta   90.01855000
_cell_angle_gamma   89.99596305
_symmetry_Int_Tables_number   1
_chemical_formula_structural   ZrScNbPdRh
_chemical_formula_sum   'Zr50 Sc50 Nb50 Pd50 Rh50'
_cell_volume   4537.91145627
_cell_formula_units_Z   50
loop_
 _symmetry_equiv_pos_site_id
 _symmetry_equiv_pos_as_xyz
  1  'x, y, z'
loop_
 _atom_site_type_symbol
 _atom_site_label
 _atom_site_symmetry_multiplicity
 _atom_site_fract_x
 _atom_site_fract_y
 _atom_site_fract_z
 _atom_site_occupancy
  Zr  Zr0  1  0.90789412  0.30286083  0.90534630  1
  Zr  Zr1  1  0.70703608  0.48781291  0.70183131  1
  Zr  Zr2  1  0.10736523  0.50631214  0.11444439  1
  Zr  Zr3  1  0.90134370  0.09873157  0.49646733  1
  Zr  Zr4  1  0.70581275  0.89496582  0.89614470  1
  Zr  Zr5  1  0.09757267  0.69657278  0.50693345  1
  Zr  Zr6  1  0.90277516  0.09742776  0.89653024  1
  Zr  Zr7  1  0.69965451  0.69667697  0.30395408  1
  Zr  Zr8  1  0.70251667  0.90023498  0.09588509  1
  Zr  Zr9  1  0.49471047  0.91012461  0.90331860  1
  Zr  Zr10  1  0.30317218  0.49655900  0.09707983  1
  Zr  Zr11  1  0.50124752  0.50346955  0.08059884  1
  Zr  Zr12  1  0.30343454  0.29962498  0.11297217  1
  Zr  Zr13  1  0.30639373  0.08921505  0.89949428  1
  Zr  Zr14  1  0.90521950  0.50387730  0.30253561  1
  Zr  Zr15  1  0.90524422  0.29475760  0.50253014  1
  Zr  Zr16  1  0.09723100  0.10358652  0.51249904  1
  Zr  Zr17  1  0.09499343  0.71593626  0.89056396  1
  Zr  Zr18  1  0.10016574  0.89810212  0.70014197  1
  Zr  Zr19  1  0.10604584  0.30123674  0.30656287  1
  Zr  Zr20  1  0.49754822  0.50526153  0.71046461  1
  Zr  Zr21  1  0.49555340  0.08525536  0.09624147  1
  Zr  Zr22  1  0.69105601  0.30166456  0.29196832  1
  Zr  Zr23  1  0.90011708  0.89180345  0.90838159  1
  Zr  Zr24  1  0.70391358  0.70247066  0.50216103  1
  Zr  Zr25  1  0.30372567  0.29720100  0.49060537  1
  Zr  Zr26  1  0.10475511  0.29818778  0.70367014  1
  Zr  Zr27  1  0.89478778  0.31225873  0.70314232  1
  Zr  Zr28  1  0.69693126  0.09766015  0.30308834  1
  Zr  Zr29  1  0.90398211  0.29169214  0.30592428  1
  Zr  Zr30  1  0.70318393  0.30442071  0.89437064  1
  Zr  Zr31  1  0.10667983  0.90486007  0.30880185  1
  Zr  Zr32  1  0.89226509  0.69985562  0.30137478  1
  Zr  Zr33  1  0.69872947  0.69535378  0.10167052  1
  Zr  Zr34  1  0.89768604  0.70213028  0.09421903  1
  Zr  Zr35  1  0.50175252  0.10465480  0.49559965  1
  Zr  Zr36  1  0.10297755  0.09975964  0.69588173  1
  Zr  Zr37  1  0.31320966  0.50302257  0.89722731  1
  Zr  Zr38  1  0.70256974  0.70744533  0.69988889  1
  Zr  Zr39  1  0.10173012  0.50307372  0.49435716  1
  Zr  Zr40  1  0.29891374  0.50556880  0.50467354  1
  Zr  Zr41  1  0.09063974  0.68446174  0.29992648  1
  Zr  Zr42  1  0.48917244  0.90196287  0.30285898  1
  Zr  Zr43  1  0.89904926  0.30358525  0.09837171  1
  Zr  Zr44  1  0.89422797  0.91508428  0.30197237  1
  Zr  Zr45  1  0.49920693  0.69106504  0.50480121  1
  Zr  Zr46  1  0.49821643  0.68211467  0.90214463  1
  Zr  Zr47  1  0.50354384  0.89646168  0.69529150  1
  Zr  Zr48  1  0.89901182  0.69949386  0.89431420  1
  Zr  Zr49  1  0.50401739  0.70370930  0.29784538  1
  Sc  Sc50  1  0.49772667  0.29989367  0.30175787  1
  Sc  Sc51  1  0.29506423  0.89540746  0.90020185  1
  Sc  Sc52  1  0.50249170  0.50281953  0.49774753  1
  Sc  Sc53  1  0.70041305  0.50273669  0.29918101  1
  Sc  Sc54  1  0.89689309  0.90276529  0.69656552  1
  Sc  Sc55  1  0.70354132  0.08852536  0.90508561  1
  Sc  Sc56  1  0.49918152  0.31575755  0.89990003  1
  Sc  Sc57  1  0.49486627  0.89716478  0.10812672  1
  Sc  Sc58  1  0.89385955  0.49954671  0.09299919  1
  Sc  Sc59  1  0.50944941  0.49865717  0.30305735  1
  Sc  Sc60  1  0.69291799  0.50146471  0.90045215  1
  Sc  Sc61  1  0.10678262  0.48243209  0.89736851  1
  Sc  Sc62  1  0.50293535  0.09153088  0.30234410  1
  Sc  Sc63  1  0.09870885  0.30012990  0.50326978  1
  Sc  Sc64  1  0.09570501  0.50090214  0.68913821  1
  Sc  Sc65  1  0.49987462  0.29291250  0.49586959  1
  Sc  Sc66  1  0.09811609  0.70203818  0.10645911  1
  Sc  Sc67  1  0.30336494  0.69377143  0.50124851  1
  Sc  Sc68  1  0.50596398  0.29587483  0.68972961  1
  Sc  Sc69  1  0.30038558  0.90844296  0.10313344  1
  Sc  Sc70  1  0.30490084  0.71133772  0.09722202  1
  Sc  Sc71  1  0.90094420  0.49583455  0.51735564  1
  Sc  Sc72  1  0.29189673  0.31100286  0.89233184  1
  Sc  Sc73  1  0.30225041  0.69730343  0.69346533  1
  Sc  Sc74  1  0.70666481  0.09635739  0.70078266  1
  Sc  Sc75  1  0.89212376  0.50034673  0.89535926  1
  Sc  Sc76  1  0.09569017  0.29844373  0.09330688  1
  Sc  Sc77  1  0.30814434  0.71040005  0.30859636  1
  Sc  Sc78  1  0.29919692  0.70731160  0.89744595  1
  Sc  Sc79  1  0.89158793  0.70173454  0.51229753  1
  Sc  Sc80  1  0.70124013  0.90636389  0.30003972  1
  Sc  Sc81  1  0.30149569  0.10180722  0.50375994  1
  Sc  Sc82  1  0.69464320  0.09717053  0.49753030  1
  Sc  Sc83  1  0.49187587  0.09481647  0.68728211  1
  Sc  Sc84  1  0.09806775  0.90087860  0.90008008  1
  Sc  Sc85  1  0.09825367  0.10225918  0.29328813  1
  Sc  Sc86  1  0.69958763  0.49107676  0.09548472  1
  Sc  Sc87  1  0.70017594  0.50307080  0.50515679  1
  Sc  Sc88  1  0.50368858  0.31117445  0.10455597  1
  Sc  Sc89  1  0.29521363  0.50127565  0.70077616  1
  Sc  Sc90  1  0.28958321  0.49130915  0.29290132  1
  Sc  Sc91  1  0.09763130  0.91236641  0.50309883  1
  Sc  Sc92  1  0.70779984  0.69680199  0.89600686  1
  Sc  Sc93  1  0.91890174  0.09863013  0.10243858  1
  Sc  Sc94  1  0.49605889  0.91255137  0.49843672  1
  Sc  Sc95  1  0.68972547  0.09164592  0.10509532  1
  Sc  Sc96  1  0.68913793  0.29619384  0.50719398  1
  Sc  Sc97  1  0.10156179  0.90992930  0.09671057  1
  Sc  Sc98  1  0.29459683  0.29547400  0.69759587  1
  Sc  Sc99  1  0.30543314  0.90368874  0.69589482  1
  Nb  Nb100  1  0.09632166  0.70553698  0.70311729  1
  Nb  Nb101  1  0.11356256  0.09957975  0.09379656  1
  Nb  Nb102  1  0.70956731  0.89518499  0.50511479  1
  Nb  Nb103  1  0.49867790  0.70148342  0.69945474  1
  Nb  Nb104  1  0.89450121  0.10573238  0.30323128  1
  Nb  Nb105  1  0.10290091  0.10108493  0.90127927  1
  Nb  Nb106  1  0.29016614  0.90024833  0.48760175  1
  Nb  Nb107  1  0.29536593  0.10502839  0.28406866  1
  Nb  Nb108  1  0.30009782  0.90507942  0.30690051  1
  Nb  Nb109  1  0.09519860  0.50154419  0.29909673  1
  Nb  Nb110  1  0.70048070  0.29831335  0.09687746  1
  Nb  Nb111  1  0.29350399  0.10229700  0.10372069  1
  Nb  Nb112  1  0.69905011  0.29652265  0.70219674  1
  Nb  Nb113  1  0.89678248  0.50604429  0.69906127  1
  Nb  Nb114  1  0.29886851  0.29073122  0.29550716  1
  Nb  Nb115  1  0.50003368  0.09731592  0.90037184  1
  Nb  Nb116  1  0.90606563  0.10418409  0.69654211  1
  Nb  Nb117  1  0.10194937  0.29109852  0.89576079  1
  Nb  Nb118  1  0.50142093  0.70027394  0.10204629  1
  Nb  Nb119  1  0.89007547  0.89794925  0.49584634  1
  Nb  Nb120  1  0.90129430  0.89132188  0.10082489  1
  Nb  Nb121  1  0.29606045  0.10401294  0.70038509  1
  Nb  Nb122  1  0.90843848  0.69191330  0.70481583  1
  Nb  Nb123  1  0.69774899  0.89567019  0.69686749  1
  Nb  Nb124  1  0.49752976  0.50040469  0.89930888  1
  Nb  Nb125  1  -0.00651787  0.80247658  0.40006498  1
  Nb  Nb126  1  0.40942645  0.79672066  0.79507204  1
  Nb  Nb127  1  0.19659568  0.60255833  -0.00555119  1
  Nb  Nb128  1  0.00865098  0.60109274  -0.00589563  1
  Nb  Nb129  1  -0.00194795  0.80795001  0.20660209  1
  Nb  Nb130  1  0.59621924  0.19292491  0.80374513  1
  Nb  Nb131  1  0.79667113  0.20041008  0.00665040  1
  Nb  Nb132  1  0.19684250  0.80652421  0.21065158  1
  Nb  Nb133  1  0.60269985  0.80061259  0.40500911  1
  Nb  Nb134  1  0.19893794  0.80150926  0.59651858  1
  Nb  Nb135  1  0.59636198  0.79494269  0.00098419  1
  Nb  Nb136  1  0.19327609  0.60627658  0.80212446  1
  Nb  Nb137  1  0.80080635  0.19904122  0.19793582  1
  Nb  Nb138  1  0.19982671  0.00531119  0.79563780  1
  Nb  Nb139  1  0.00285760  0.40369334  0.20638611  1
  Nb  Nb140  1  0.39982943  0.19924374  -0.00216146  1
  Nb  Nb141  1  0.59833749  -0.00189017  0.79658840  1
  Nb  Nb142  1  0.80281544  0.20153711  0.60600240  1
  Nb  Nb143  1  0.59734730  0.19957752  -0.00423870  1
  Nb  Nb144  1  0.39895351  0.40117313  0.59575986  1
  Nb  Nb145  1  0.40357587  0.19480838  0.80359453  1
  Nb  Nb146  1  0.20476890  0.19628359  -0.00197800  1
  Nb  Nb147  1  0.80094283  0.39511590  0.40179775  1
  Nb  Nb148  1  0.00256844  0.19822581  0.80090375  1
  Nb  Nb149  1  0.40645646  0.60393392  0.19535886  1
  Pd  Pd150  1  0.60807067  0.59937898  0.79571084  1
  Pd  Pd151  1  0.60320074  0.80804392  0.20199222  1
  Pd  Pd152  1  0.80044366  0.19666255  0.80219250  1
  Pd  Pd153  1  0.19756455  0.19286521  0.40374089  1
  Pd  Pd154  1  0.20421488  0.01883351  0.39902782  1
  Pd  Pd155  1  0.00455136  -0.00051411  0.79997178  1
  Pd  Pd156  1  0.40213289  0.38804344  0.78718373  1
  Pd  Pd157  1  0.20343690  0.39569709  0.59759609  1
  Pd  Pd158  1  0.78660798  0.20588915  0.40422722  1
  Pd  Pd159  1  0.39687914  0.59085340  0.38697948  1
  Pd  Pd160  1  0.40891934  0.41115836  0.20744457  1
  Pd  Pd161  1  0.00019996  -0.00184514  0.00032947  1
  Pd  Pd162  1  -0.00179757  0.80648767  0.59474381  1
  Pd  Pd163  1  0.00005137  0.00310406  0.40222985  1
  Pd  Pd164  1  0.00255101  0.40214728  0.79619847  1
  Pd  Pd165  1  0.39342960  0.80290930  0.59462318  1
  Pd  Pd166  1  0.20078034  0.39610323  0.00436125  1
  Pd  Pd167  1  0.00545746  -0.00164627  0.19945524  1
  Pd  Pd168  1  0.39722286  0.40554436  0.39859114  1
  Pd  Pd169  1  0.20800949  0.60243320  0.39260228  1
  Pd  Pd170  1  0.00400593  0.20383323  0.19968216  1
  Pd  Pd171  1  0.00911304  0.58671377  0.80618759  1
  Pd  Pd172  1  0.39193926  -0.00057113  0.59282335  1
  Pd  Pd173  1  0.00688420  0.41152264  0.00748249  1
  Pd  Pd174  1  0.59643103  0.58965482  0.19539157  1
  Pd  Pd175  1  0.80495639  0.39652477  0.20823582  1
  Pd  Pd176  1  0.60593302  0.00326099  0.60206448  1
  Pd  Pd177  1  0.59269934  0.40355450  0.59975682  1
  Pd  Pd178  1  -0.01409179  0.60489587  0.41602051  1
  Pd  Pd179  1  0.80031383  0.59266447  0.19409254  1
  Pd  Pd180  1  0.40845308  0.80119954  0.41322114  1
  Pd  Pd181  1  0.39954263  0.19167097  0.38874763  1
  Pd  Pd182  1  0.59629908  0.80177871  0.58907463  1
  Pd  Pd183  1  0.80109927  0.00556157  0.59835656  1
  Pd  Pd184  1  0.40605754  0.80128596  -0.00532219  1
  Pd  Pd185  1  0.80035298  0.80367437  0.20441940  1
  Pd  Pd186  1  0.60675964  0.39968101  0.40442101  1
  Pd  Pd187  1  0.80504651  0.01174712  0.19002772  1
  Pd  Pd188  1  0.79865470  -0.00463015  0.79436707  1
  Pd  Pd189  1  -0.00395603  0.40205659  0.40286703  1
  Pd  Pd190  1  0.19342733  0.79993400  0.01146579  1
  Pd  Pd191  1  0.59339350  0.80149598  0.81061222  1
  Pd  Pd192  1  0.60522911  0.59513614  0.60791810  1
  Pd  Pd193  1  0.21787167  0.61513083  0.20003743  1
  Pd  Pd194  1  0.20397562  0.40192181  0.39932768  1
  Pd  Pd195  1  0.81006263  0.00822849  0.01116912  1
  Pd  Pd196  1  0.19055836  0.79156185  0.40384502  1
  Pd  Pd197  1  0.59530865  0.19720992  0.19229027  1
  Pd  Pd198  1  0.80451962  0.58854983  0.41106273  1
  Pd  Pd199  1  0.41407657  0.19382210  0.19664082  1
  Rh  Rh200  1  0.60301870  -0.00786024  -0.00470049  1
  Rh  Rh201  1  0.39599980  0.20847826  0.60580704  1
  Rh  Rh202  1  0.00621233  0.79710922  0.00979200  1
  Rh  Rh203  1  0.20738703  -0.00682649  0.60355200  1
  Rh  Rh204  1  0.39319256  0.00258824  0.20497526  1
  Rh  Rh205  1  -0.01005879  -0.00533736  0.59663750  1
  Rh  Rh206  1  0.79743490  0.60302761  0.60830109  1
  Rh  Rh207  1  0.79539988  0.39733345  -0.00708109  1
  Rh  Rh208  1  0.60616857  -0.01184871  0.40413369  1
  Rh  Rh209  1  -0.00488594  0.20818701  0.61097441  1
  Rh  Rh210  1  0.19078999  0.20704291  0.19329159  1
  Rh  Rh211  1  0.59784091  0.20121086  0.39568556  1
  Rh  Rh212  1  0.60240440  0.60558282  0.40310705  1
  Rh  Rh213  1  0.19962522  0.40763215  0.79299463  1
  Rh  Rh214  1  0.20145728  -0.00546627  0.20355178  1
  Rh  Rh215  1  0.20402721  0.19153758  0.80821719  1
  Rh  Rh216  1  0.60215465  0.39602247  -0.00409867  1
  Rh  Rh217  1  0.80280396  0.59886454  -0.00298093  1
  Rh  Rh218  1  0.79736419  0.80464535  0.39624904  1
  Rh  Rh219  1  0.00335645  0.19407796  -0.00668518  1
  Rh  Rh220  1  -0.01178484  0.80932213  0.79418097  1
  Rh  Rh221  1  0.39955323  -0.00173358  0.79165918  1
  Rh  Rh222  1  0.79135013  0.79422924  0.00124051  1
  Rh  Rh223  1  0.59594367  0.39588861  0.79732900  1
  Rh  Rh224  1  0.59772709  0.40501845  0.19641324  1
  Rh  Rh225  1  0.59446943  -0.00818543  0.20386827  1
  Rh  Rh226  1  -0.01200997  0.59590329  0.18881635  1
  Rh  Rh227  1  0.80697087  0.80060042  0.79294808  1
  Rh  Rh228  1  0.40400681  0.59044297  0.60484085  1
  Rh  Rh229  1  0.38831455  0.00970579  0.39770206  1
  Rh  Rh230  1  0.01088846  0.19072342  0.39960124  1
  Rh  Rh231  1  0.80731320  0.79866504  0.61108180  1
  Rh  Rh232  1  0.60712473  0.60387188  -0.00138692  1
  Rh  Rh233  1  0.38982337  0.60472233  0.00599910  1
  Rh  Rh234  1  -0.00049626  0.59935285  0.60205437  1
  Rh  Rh235  1  0.20350200  0.00139989  -0.00780944  1
  Rh  Rh236  1  0.19327646  0.60962754  0.60919367  1
  Rh  Rh237  1  0.39598191  0.39127674  -0.00108661  1
  Rh  Rh238  1  0.79668011  0.59775877  0.79368880  1
  Rh  Rh239  1  0.80047162  0.40375087  0.80455746  1
  Rh  Rh240  1  0.39193789  0.60922602  0.79503821  1
  Rh  Rh241  1  0.60854080  0.19051327  0.61004332  1
  Rh  Rh242  1  0.21324111  0.80378128  0.78468587  1
  Rh  Rh243  1  0.79436489  0.00324880  0.40568080  1
  Rh  Rh244  1  0.79479641  0.38950362  0.59313967  1
  Rh  Rh245  1  0.00306222  0.39955793  0.60287250  1
  Rh  Rh246  1  0.39160840  -0.00155938  0.00715898  1
  Rh  Rh247  1  0.19221754  0.39085365  0.20179392  1
  Rh  Rh248  1  0.39034011  0.79925199  0.20166321  1
  Rh  Rh249  1  0.20498526  0.20649548  0.59226326  1
