# generated using pymatgen
data_ZrScNbPdRh
_symmetry_space_group_name_H-M   'P 1'
_cell_length_a   16.56269632
_cell_length_b   16.55946375
_cell_length_c   16.56030405
_cell_angle_alpha   90.00520874
_cell_angle_beta   90.00004782
_cell_angle_gamma   90.02182560
_symmetry_Int_Tables_number   1
_chemical_formula_structural   ZrScNbPdRh
_chemical_formula_sum   'Zr50 Sc50 Nb50 Pd50 Rh50'
_cell_volume   4541.98379666
_cell_formula_units_Z   50
loop_
 _symmetry_equiv_pos_site_id
 _symmetry_equiv_pos_as_xyz
  1  'x, y, z'
loop_
 _atom_site_type_symbol
 _atom_site_label
 _atom_site_symmetry_multiplicity
 _atom_site_fract_x
 _atom_site_fract_y
 _atom_site_fract_z
 _atom_site_occupancy
  Zr  Zr0  1  0.29678263  0.69651489  0.69958629  1
  Zr  Zr1  1  0.10017043  0.30080250  0.30327717  1
  Zr  Zr2  1  0.29500556  0.11063646  0.09463069  1
  Zr  Zr3  1  0.87542179  0.30054245  0.90518259  1
  Zr  Zr4  1  0.70069153  0.50445761  0.71198173  1
  Zr  Zr5  1  0.49976799  0.29113921  0.30531650  1
  Zr  Zr6  1  0.50144537  0.90232170  0.90566018  1
  Zr  Zr7  1  0.69892303  0.70522851  0.10398243  1
  Zr  Zr8  1  0.70651152  0.11447201  0.89338022  1
  Zr  Zr9  1  0.89507742  0.09804386  0.70680998  1
  Zr  Zr10  1  0.70399482  0.89797478  0.69995941  1
  Zr  Zr11  1  0.51048764  0.68840195  0.50964231  1
  Zr  Zr12  1  0.90412914  0.89957940  0.71167029  1
  Zr  Zr13  1  0.69714995  0.89918038  0.10932348  1
  Zr  Zr14  1  0.69549729  0.49872306  0.10960270  1
  Zr  Zr15  1  0.89620244  0.89572172  0.50015436  1
  Zr  Zr16  1  0.29634858  0.89832431  0.69693012  1
  Zr  Zr17  1  0.89791031  0.09509784  0.90481017  1
  Zr  Zr18  1  0.09748067  0.70224076  0.30545792  1
  Zr  Zr19  1  0.70411473  0.90292305  0.30303480  1
  Zr  Zr20  1  0.70303910  0.29439958  0.29891824  1
  Zr  Zr21  1  0.89534843  0.49360090  0.10172347  1
  Zr  Zr22  1  0.11461133  0.29843116  0.10190810  1
  Zr  Zr23  1  0.49280299  0.49929210  0.11050711  1
  Zr  Zr24  1  0.70430367  0.89510756  0.50138204  1
  Zr  Zr25  1  0.30442999  0.30030167  0.90067415  1
  Zr  Zr26  1  0.49437313  0.49589953  0.89106827  1
  Zr  Zr27  1  0.29271574  0.29726971  0.29467452  1
  Zr  Zr28  1  0.11029906  0.70215190  0.08839722  1
  Zr  Zr29  1  0.89998561  0.49534323  0.30015474  1
  Zr  Zr30  1  0.49982549  0.70318703  0.30091603  1
  Zr  Zr31  1  0.30967086  0.49628951  0.28673582  1
  Zr  Zr32  1  0.50749785  0.90098871  0.09952468  1
  Zr  Zr33  1  0.70449167  0.69196198  0.89761668  1
  Zr  Zr34  1  0.10456989  0.50204983  0.08653855  1
  Zr  Zr35  1  0.50556626  0.70957428  0.89797899  1
  Zr  Zr36  1  0.49871155  0.29817247  0.88854534  1
  Zr  Zr37  1  0.29925057  0.29400371  0.49644505  1
  Zr  Zr38  1  0.90247206  0.70147442  0.49310871  1
  Zr  Zr39  1  0.09709830  0.49920421  0.49982803  1
  Zr  Zr40  1  0.49209954  0.10069465  0.90127962  1
  Zr  Zr41  1  0.90116769  0.30290096  0.49469457  1
  Zr  Zr42  1  0.10099072  0.10209525  0.50102947  1
  Zr  Zr43  1  0.10401590  0.10391422  0.70218845  1
  Zr  Zr44  1  0.68374604  0.50839485  0.49373356  1
  Zr  Zr45  1  0.89241108  0.50857364  0.89340432  1
  Zr  Zr46  1  0.49967382  0.09244764  0.10226145  1
  Zr  Zr47  1  0.09798595  0.29812085  0.69370219  1
  Zr  Zr48  1  0.30701463  0.89886194  0.89286799  1
  Zr  Zr49  1  0.50364079  0.30593540  0.10184890  1
  Sc  Sc50  1  0.10648621  0.90409914  0.89820356  1
  Sc  Sc51  1  0.70111929  0.88999734  0.90830618  1
  Sc  Sc52  1  0.30263252  0.90799018  0.49654051  1
  Sc  Sc53  1  0.70563041  0.69915931  0.29778431  1
  Sc  Sc54  1  0.11448444  0.30332781  0.89802545  1
  Sc  Sc55  1  0.10344667  0.50751611  0.89746323  1
  Sc  Sc56  1  0.89436647  0.10380215  0.50250490  1
  Sc  Sc57  1  0.70416025  0.10868890  0.69500498  1
  Sc  Sc58  1  0.30070167  0.50285466  0.52114459  1
  Sc  Sc59  1  0.29788711  0.09883269  0.69479324  1
  Sc  Sc60  1  0.89096096  0.69378407  0.09719361  1
  Sc  Sc61  1  0.09960564  0.90287559  0.30482074  1
  Sc  Sc62  1  0.70213369  0.49043168  0.89797101  1
  Sc  Sc63  1  0.10363866  0.70170281  0.70100429  1
  Sc  Sc64  1  0.49881909  0.70767022  0.10597566  1
  Sc  Sc65  1  0.30523203  0.90314925  0.30532463  1
  Sc  Sc66  1  0.50209312  0.09447414  0.30218830  1
  Sc  Sc67  1  0.09760042  0.49141985  0.30214766  1
  Sc  Sc68  1  0.69817425  0.29394594  0.50056896  1
  Sc  Sc69  1  0.69097862  0.70102264  0.70254839  1
  Sc  Sc70  1  0.90671286  0.50047496  0.49444181  1
  Sc  Sc71  1  0.70103202  0.09805378  0.49331778  1
  Sc  Sc72  1  0.09944607  0.09694916  0.09513994  1
  Sc  Sc73  1  0.30359861  0.09388881  0.49455235  1
  Sc  Sc74  1  0.49828833  0.90555355  0.29842355  1
  Sc  Sc75  1  0.10136760  0.89604083  0.49380545  1
  Sc  Sc76  1  0.90752542  0.69996347  0.70901943  1
  Sc  Sc77  1  0.29820972  0.70275579  0.50205842  1
  Sc  Sc78  1  0.49716851  0.10340108  0.70124460  1
  Sc  Sc79  1  0.29986891  0.88815731  0.09619707  1
  Sc  Sc80  1  0.50890041  0.30316502  0.50311619  1
  Sc  Sc81  1  0.11192921  0.10006503  0.90507179  1
  Sc  Sc82  1  0.89715270  0.89880391  0.30191367  1
  Sc  Sc83  1  0.30571829  0.70911459  0.29537071  1
  Sc  Sc84  1  0.09920931  0.30045803  0.50064886  1
  Sc  Sc85  1  0.70508503  0.09839870  0.10786823  1
  Sc  Sc86  1  0.29400909  0.30070049  0.70577605  1
  Sc  Sc87  1  0.50275061  0.69416944  0.70721738  1
  Sc  Sc88  1  0.49412035  0.89472215  0.71062140  1
  Sc  Sc89  1  0.89412150  0.09474672  0.29883798  1
  Sc  Sc90  1  0.28722377  0.70056671  0.89890546  1
  Sc  Sc91  1  0.89446048  0.29694586  0.68899256  1
  Sc  Sc92  1  0.70893841  0.30073418  0.10063480  1
  Sc  Sc93  1  0.10356771  0.50212230  0.69224699  1
  Sc  Sc94  1  0.49758694  0.09912129  0.49000593  1
  Sc  Sc95  1  0.09959777  0.09878816  0.30274056  1
  Sc  Sc96  1  0.51319868  0.49873985  0.29761263  1
  Sc  Sc97  1  0.89426939  0.91655755  0.10168321  1
  Sc  Sc98  1  0.09552009  0.69744736  0.50227433  1
  Sc  Sc99  1  0.89595729  0.69931812  0.30004557  1
  Nb  Nb100  1  0.89882960  0.10818654  0.09914066  1
  Nb  Nb101  1  0.90358930  0.89414462  0.90013074  1
  Nb  Nb102  1  0.10104209  0.89792944  0.10040604  1
  Nb  Nb103  1  0.29844089  0.30943911  0.10400196  1
  Nb  Nb104  1  0.30600951  0.50740959  0.71037699  1
  Nb  Nb105  1  0.89692932  0.29970444  0.10410679  1
  Nb  Nb106  1  0.30555329  0.09848750  0.29621261  1
  Nb  Nb107  1  0.30202289  0.49551202  0.09841285  1
  Nb  Nb108  1  0.70338544  0.50075656  0.29859806  1
  Nb  Nb109  1  0.50077465  0.29758652  0.69755541  1
  Nb  Nb110  1  0.49677757  0.50161791  0.50197615  1
  Nb  Nb111  1  0.30467267  0.10784757  0.89701720  1
  Nb  Nb112  1  0.69553481  0.09689882  0.30325800  1
  Nb  Nb113  1  0.48713168  0.50207294  0.68782822  1
  Nb  Nb114  1  0.29750844  0.69166690  0.09804677  1
  Nb  Nb115  1  0.90664352  0.70135689  0.90273169  1
  Nb  Nb116  1  0.69197112  0.29803424  0.70533335  1
  Nb  Nb117  1  0.09977800  0.90592040  0.69816516  1
  Nb  Nb118  1  0.89580730  0.49495391  0.69818810  1
  Nb  Nb119  1  0.09228472  0.69105233  0.90827370  1
  Nb  Nb120  1  0.70016791  0.69956023  0.50404292  1
  Nb  Nb121  1  0.49898384  0.90415711  0.50202156  1
  Nb  Nb122  1  0.90031626  0.30486356  0.29148622  1
  Nb  Nb123  1  0.69300272  0.30074393  0.89384153  1
  Nb  Nb124  1  0.30022258  0.49685264  0.89391114  1
  Nb  Nb125  1  0.40157858  0.59401836  0.40289286  1
  Nb  Nb126  1  -0.00557013  0.20388579  0.19552754  1
  Nb  Nb127  1  0.39792248  0.59693898  0.00102360  1
  Nb  Nb128  1  0.00374348  0.79981517  0.18920879  1
  Nb  Nb129  1  0.59719856  -0.00477955  0.60248245  1
  Nb  Nb130  1  0.60151838  0.79889780  0.40924555  1
  Nb  Nb131  1  0.79915324  0.59802571  0.59888569  1
  Nb  Nb132  1  0.00167277  -0.00393050  0.60629077  1
  Nb  Nb133  1  0.59349987  0.59688618  0.00098397  1
  Nb  Nb134  1  0.40209278  0.40581689  0.40462891  1
  Nb  Nb135  1  0.00631212  0.60316032  0.19497511  1
  Nb  Nb136  1  0.60113832  0.20431666  -0.00410895  1
  Nb  Nb137  1  0.40344288  0.80162536  0.59963955  1
  Nb  Nb138  1  -0.00575289  0.39409538  -0.00573981  1
  Nb  Nb139  1  0.20820657  0.59579597  0.39492557  1
  Nb  Nb140  1  0.40257137  0.20421045  0.59906506  1
  Nb  Nb141  1  -0.00153318  0.80209799  -0.00175123  1
  Nb  Nb142  1  -0.00361557  0.20638402  0.80900950  1
  Nb  Nb143  1  -0.00618404  0.39625587  0.80076653  1
  Nb  Nb144  1  0.79285329  0.40752402  0.59997433  1
  Nb  Nb145  1  -0.00562670  0.20755210  0.00134157  1
  Nb  Nb146  1  0.39459910  0.20100038  0.19824279  1
  Nb  Nb147  1  0.60297458  0.00184321  0.79953187  1
  Nb  Nb148  1  0.20283826  -0.00087967  0.19691964  1
  Nb  Nb149  1  0.20098641  0.60047554  0.19826408  1
  Pd  Pd150  1  0.40841071  0.79438066  0.41150993  1
  Pd  Pd151  1  0.59721957  0.19632636  0.19410558  1
  Pd  Pd152  1  0.20408109  0.39994616  0.60407292  1
  Pd  Pd153  1  0.39603554  0.39100349  0.60058677  1
  Pd  Pd154  1  0.19408056  0.40789122  0.79578158  1
  Pd  Pd155  1  0.20197949  0.80335616  0.59368225  1
  Pd  Pd156  1  0.79850225  0.79336454  0.79913606  1
  Pd  Pd157  1  0.60421491  0.40689323  0.60691871  1
  Pd  Pd158  1  0.19123854  0.79633904  0.80448223  1
  Pd  Pd159  1  0.80046440  0.00281305  0.59758773  1
  Pd  Pd160  1  0.00903026  0.40045593  0.19105985  1
  Pd  Pd161  1  0.59457967  0.18828633  0.59446876  1
  Pd  Pd162  1  0.80747062  0.78652638  0.60948858  1
  Pd  Pd163  1  0.38885695  -0.00340724  0.00614888  1
  Pd  Pd164  1  0.79113144  0.59409319  0.00201753  1
  Pd  Pd165  1  0.00710200  0.00750191  0.80365819  1
  Pd  Pd166  1  0.40129316  0.00443516  0.79281430  1
  Pd  Pd167  1  -0.00578188  0.59962622  0.60482610  1
  Pd  Pd168  1  0.79291533  -0.00055890  -0.00256125  1
  Pd  Pd169  1  0.59153372  0.80575605  0.60240754  1
  Pd  Pd170  1  0.80451609  0.19776778  0.39551683  1
  Pd  Pd171  1  0.00532337  0.00202667  0.19863710  1
  Pd  Pd172  1  0.39940411  0.60959795  0.80885975  1
  Pd  Pd173  1  0.79892476  0.59946459  0.40368634  1
  Pd  Pd174  1  0.39692338  0.79077850  0.00037539  1
  Pd  Pd175  1  0.40511686  0.20759893  0.00743669  1
  Pd  Pd176  1  0.20724956  0.00531770  0.80109500  1
  Pd  Pd177  1  0.20995777  0.40936595  0.40504100  1
  Pd  Pd178  1  -0.00526281  0.00052720  0.40903038  1
  Pd  Pd179  1  0.79385180  0.40227901  0.40500734  1
  Pd  Pd180  1  0.20102515  0.19193715  0.39909191  1
  Pd  Pd181  1  0.19847602  0.80323223  0.20494301  1
  Pd  Pd182  1  0.61314201  0.01143767  -0.00767140  1
  Pd  Pd183  1  0.00040803  0.80501048  0.60177226  1
  Pd  Pd184  1  0.00437190  0.59206142  0.79366452  1
  Pd  Pd185  1  0.39821708  0.40228905  -0.00229477  1
  Pd  Pd186  1  0.59859022  0.39656153  0.39612060  1
  Pd  Pd187  1  0.19520204  -0.00180313  0.59312465  1
  Pd  Pd188  1  0.39902644  0.80521554  0.19582837  1
  Pd  Pd189  1  -0.00445932  0.19245494  0.60380237  1
  Pd  Pd190  1  0.59128133  0.40549393  0.78896469  1
  Pd  Pd191  1  0.79039116  -0.00680246  0.81017516  1
  Pd  Pd192  1  0.01374932  0.79930179  0.80856918  1
  Pd  Pd193  1  0.60001134  0.60580536  0.19964750  1
  Pd  Pd194  1  0.80778830  0.80394933  0.00623246  1
  Pd  Pd195  1  -0.00790061  0.19872918  0.39091079  1
  Pd  Pd196  1  0.20262655  0.79593541  0.40263443  1
  Pd  Pd197  1  0.60371167  0.39979281  -0.00033198  1
  Pd  Pd198  1  0.21024987  -0.00576636  0.00400040  1
  Pd  Pd199  1  0.00119456  -0.00067737  -0.00153053  1
  Rh  Rh200  1  0.19370988  0.41104386  0.19764151  1
  Rh  Rh201  1  0.79436020  0.79434451  0.39830647  1
  Rh  Rh202  1  0.60323692  0.79168465  0.00251046  1
  Rh  Rh203  1  0.19738728  0.18890357  0.20414853  1
  Rh  Rh204  1  0.79252239  0.39968001  0.20494734  1
  Rh  Rh205  1  0.00023513  0.39544853  0.40235277  1
  Rh  Rh206  1  0.80355987  0.19560880  0.20688635  1
  Rh  Rh207  1  0.80170591  0.38996667  0.78784961  1
  Rh  Rh208  1  0.39447898  0.20159907  0.78857458  1
  Rh  Rh209  1  0.21451033  0.59106164  -0.00384023  1
  Rh  Rh210  1  0.60512420  0.80857416  0.80309387  1
  Rh  Rh211  1  0.00736748  0.59638453  0.39045646  1
  Rh  Rh212  1  0.40158555  0.00106027  0.39744044  1
  Rh  Rh213  1  0.19823776  0.60136035  0.59734592  1
  Rh  Rh214  1  0.60035937  0.80504552  0.21293966  1
  Rh  Rh215  1  0.80845663  0.80390079  0.19700758  1
  Rh  Rh216  1  0.39962209  0.39604026  0.78736157  1
  Rh  Rh217  1  0.39539097  0.60781899  0.19986764  1
  Rh  Rh218  1  -0.01141843  0.59811527  0.00393919  1
  Rh  Rh219  1  0.80080657  0.00313245  0.40079405  1
  Rh  Rh220  1  0.80581364  0.59612152  0.20489828  1
  Rh  Rh221  1  0.79391279  0.20869525  0.59836429  1
  Rh  Rh222  1  0.79494919  0.40496612  0.00380992  1
  Rh  Rh223  1  0.59786514  0.60752995  0.39039319  1
  Rh  Rh224  1  0.19680232  0.80506244  -0.01115241  1
  Rh  Rh225  1  0.80338621  0.20881892  0.78932513  1
  Rh  Rh226  1  0.20308552  0.40342710  -0.00615495  1
  Rh  Rh227  1  0.39615995  0.60914890  0.59839411  1
  Rh  Rh228  1  0.60390856  0.19623625  0.40199958  1
  Rh  Rh229  1  0.60175350  -0.00745114  0.40514273  1
  Rh  Rh230  1  0.20215720  0.00255837  0.39054978  1
  Rh  Rh231  1  -0.00623262  0.40176597  0.60080781  1
  Rh  Rh232  1  0.79859359  0.00516702  0.20392095  1
  Rh  Rh233  1  0.60223991  0.00055915  0.20647231  1
  Rh  Rh234  1  0.59343217  0.59330379  0.80437604  1
  Rh  Rh235  1  -0.00423049  0.80277694  0.39261618  1
  Rh  Rh236  1  0.40591326  0.38737839  0.20864309  1
  Rh  Rh237  1  0.20157747  0.20536245  -0.00582766  1
  Rh  Rh238  1  0.19532986  0.59927334  0.79948540  1
  Rh  Rh239  1  0.39895694  0.20359776  0.39907763  1
  Rh  Rh240  1  0.40856883  0.00097545  0.60079995  1
  Rh  Rh241  1  0.59557820  0.19412468  0.80130658  1
  Rh  Rh242  1  0.20924230  0.19825979  0.59486646  1
  Rh  Rh243  1  0.39143286  0.00433647  0.19404868  1
  Rh  Rh244  1  0.60676130  0.39458657  0.20804418  1
  Rh  Rh245  1  0.80501505  0.61045992  0.79373491  1
  Rh  Rh246  1  0.79273949  0.19862805  0.00790660  1
  Rh  Rh247  1  0.39423473  0.79375556  0.79473426  1
  Rh  Rh248  1  0.20002519  0.19631791  0.80274949  1
  Rh  Rh249  1  0.60531277  0.59214524  0.61187400  1
