# generated using pymatgen
data_ZrScNbPdRh
_symmetry_space_group_name_H-M   'P 1'
_cell_length_a   16.56431812
_cell_length_b   16.56280080
_cell_length_c   16.56149458
_cell_angle_alpha   90.01014074
_cell_angle_beta   89.99225254
_cell_angle_gamma   89.97227053
_symmetry_Int_Tables_number   1
_chemical_formula_structural   ZrScNbPdRh
_chemical_formula_sum   'Zr50 Sc50 Nb50 Pd50 Rh50'
_cell_volume   4543.67025907
_cell_formula_units_Z   50
loop_
 _symmetry_equiv_pos_site_id
 _symmetry_equiv_pos_as_xyz
  1  'x, y, z'
loop_
 _atom_site_type_symbol
 _atom_site_label
 _atom_site_symmetry_multiplicity
 _atom_site_fract_x
 _atom_site_fract_y
 _atom_site_fract_z
 _atom_site_occupancy
  Zr  Zr0  1  0.70646054  0.70134509  0.69632422  1
  Zr  Zr1  1  0.50112778  0.30097798  0.50713073  1
  Zr  Zr2  1  0.09741465  0.90270941  0.29848216  1
  Zr  Zr3  1  0.49650621  0.10885672  0.09446833  1
  Zr  Zr4  1  0.50049795  0.71003803  0.49621260  1
  Zr  Zr5  1  0.27904583  0.69141082  0.69966406  1
  Zr  Zr6  1  0.90245798  0.29694324  0.90576636  1
  Zr  Zr7  1  0.50186565  0.48725269  0.70321234  1
  Zr  Zr8  1  0.89607228  0.29579400  0.70354093  1
  Zr  Zr9  1  0.89981589  0.89993529  0.70240607  1
  Zr  Zr10  1  0.50913067  0.50181195  0.10204325  1
  Zr  Zr11  1  0.90452615  0.49737015  0.90090670  1
  Zr  Zr12  1  0.09659970  0.89683641  0.69943172  1
  Zr  Zr13  1  0.89600555  0.09382832  0.30124471  1
  Zr  Zr14  1  0.89653306  0.29784228  0.50414715  1
  Zr  Zr15  1  0.90068296  0.90181600  0.08894102  1
  Zr  Zr16  1  0.09609701  0.30333782  0.09923967  1
  Zr  Zr17  1  0.49833546  0.49466653  0.50485231  1
  Zr  Zr18  1  0.10101191  0.09302165  0.30393151  1
  Zr  Zr19  1  0.29906747  0.31073573  0.89575432  1
  Zr  Zr20  1  0.69926493  0.88831088  0.49635055  1
  Zr  Zr21  1  0.70594256  0.09069669  0.29342514  1
  Zr  Zr22  1  0.28998069  0.90125765  0.09831331  1
  Zr  Zr23  1  0.28969214  0.10521126  0.69664979  1
  Zr  Zr24  1  0.70448797  0.10180815  0.69659366  1
  Zr  Zr25  1  0.30493978  0.09965992  0.90771007  1
  Zr  Zr26  1  0.30502906  0.49707776  0.29867382  1
  Zr  Zr27  1  0.49378765  0.49361170  0.90618487  1
  Zr  Zr28  1  0.50161858  0.69920910  0.10619482  1
  Zr  Zr29  1  0.11111725  0.09728775  0.09844274  1
  Zr  Zr30  1  0.91081542  0.09908507  0.70185450  1
  Zr  Zr31  1  0.10131854  0.10467002  0.51273725  1
  Zr  Zr32  1  0.10137049  0.69567336  0.89271214  1
  Zr  Zr33  1  0.69642197  0.49419613  0.89880213  1
  Zr  Zr34  1  0.89191852  0.09459647  0.90014853  1
  Zr  Zr35  1  0.69897509  0.70618508  0.89537990  1
  Zr  Zr36  1  0.10176830  0.89482012  0.90974261  1
  Zr  Zr37  1  0.49794374  0.30060355  0.29413459  1
  Zr  Zr38  1  0.90727016  0.69076776  0.29818294  1
  Zr  Zr39  1  0.50065371  0.89845760  0.51218378  1
  Zr  Zr40  1  0.10273827  0.30165348  0.90699524  1
  Zr  Zr41  1  0.49758787  0.29056890  0.90108334  1
  Zr  Zr42  1  0.50077793  0.69811589  0.29572847  1
  Zr  Zr43  1  0.10165529  0.69779128  0.50263400  1
  Zr  Zr44  1  0.89306025  0.30250909  0.29775297  1
  Zr  Zr45  1  0.88763368  0.49813754  0.49260149  1
  Zr  Zr46  1  0.10630795  0.28379509  0.70284554  1
  Zr  Zr47  1  0.31448841  0.70083578  0.29823107  1
  Zr  Zr48  1  0.49344583  0.70704574  0.90189583  1
  Zr  Zr49  1  0.90267965  0.50405890  0.29878996  1
  Sc  Sc50  1  0.29552123  0.10326708  0.49745200  1
  Sc  Sc51  1  0.10181439  0.89683986  0.49467127  1
  Sc  Sc52  1  0.29870684  0.49359585  0.50252813  1
  Sc  Sc53  1  0.30260880  0.70680906  0.49890628  1
  Sc  Sc54  1  0.70502643  0.89870211  0.10984409  1
  Sc  Sc55  1  0.50545211  0.70985574  0.70632190  1
  Sc  Sc56  1  0.89476733  0.89804270  0.89864343  1
  Sc  Sc57  1  0.91114793  0.50389980  0.10228385  1
  Sc  Sc58  1  0.29689273  0.48794593  0.70547356  1
  Sc  Sc59  1  0.09328620  0.70471362  0.29915039  1
  Sc  Sc60  1  0.69945086  0.10807388  0.90495692  1
  Sc  Sc61  1  0.30317124  0.89869283  0.69768187  1
  Sc  Sc62  1  0.69241618  0.30109440  0.70498923  1
  Sc  Sc63  1  0.90303036  0.70335835  0.10114835  1
  Sc  Sc64  1  0.69865374  0.49348982  0.70532659  1
  Sc  Sc65  1  0.11172643  0.31019097  0.29413028  1
  Sc  Sc66  1  0.89521130  0.90179139  0.30359132  1
  Sc  Sc67  1  0.70737442  0.89423455  0.70077604  1
  Sc  Sc68  1  0.10827613  0.29883655  0.49909379  1
  Sc  Sc69  1  0.69767458  0.30097995  0.29013907  1
  Sc  Sc70  1  0.70264119  0.09923463  0.10051575  1
  Sc  Sc71  1  0.70266700  0.30403928  0.51101081  1
  Sc  Sc72  1  0.29940391  0.30477256  0.49063042  1
  Sc  Sc73  1  0.30215568  0.09635329  0.10481746  1
  Sc  Sc74  1  0.10078523  0.49535093  0.09806789  1
  Sc  Sc75  1  0.50237934  0.89130220  0.29502894  1
  Sc  Sc76  1  0.09332738  0.10695355  0.90132814  1
  Sc  Sc77  1  0.30656626  0.89397543  0.90210725  1
  Sc  Sc78  1  0.30758047  0.70328897  0.09058100  1
  Sc  Sc79  1  0.30216270  0.10673671  0.29647905  1
  Sc  Sc80  1  0.50390088  0.10008209  0.69611683  1
  Sc  Sc81  1  0.70522268  0.30016725  0.89814953  1
  Sc  Sc82  1  0.08930515  0.70595233  0.69754905  1
  Sc  Sc83  1  0.09955485  0.70895563  0.09661080  1
  Sc  Sc84  1  0.30216934  0.89477346  0.50081613  1
  Sc  Sc85  1  0.11083846  0.51363033  0.69655804  1
  Sc  Sc86  1  0.09587342  0.49929186  0.29224341  1
  Sc  Sc87  1  0.69639298  0.29579044  0.09385827  1
  Sc  Sc88  1  0.89051825  0.10038577  0.09986341  1
  Sc  Sc89  1  0.89805141  0.69065624  0.50215199  1
  Sc  Sc90  1  0.69944354  0.71258504  0.29368794  1
  Sc  Sc91  1  0.10442688  0.49973479  0.49810383  1
  Sc  Sc92  1  0.49396303  0.10344880  0.28566458  1
  Sc  Sc93  1  0.30256386  0.90267844  0.29685861  1
  Sc  Sc94  1  0.89471969  0.50617736  0.69567941  1
  Sc  Sc95  1  0.48932808  0.89859304  0.10611517  1
  Sc  Sc96  1  0.10257873  0.90032361  0.09997231  1
  Sc  Sc97  1  0.29002009  0.30080398  0.09720998  1
  Sc  Sc98  1  0.89547259  0.09735513  0.51129238  1
  Sc  Sc99  1  0.70445522  0.50457160  0.29631399  1
  Nb  Nb100  1  0.50358643  0.50376302  0.29668284  1
  Nb  Nb101  1  0.30569680  0.29775697  0.70498125  1
  Nb  Nb102  1  0.30761218  0.50222192  0.09143229  1
  Nb  Nb103  1  0.69323939  0.69773094  0.50193803  1
  Nb  Nb104  1  0.89980016  0.70269310  0.70856003  1
  Nb  Nb105  1  0.29632615  0.50166537  0.90738981  1
  Nb  Nb106  1  0.70221590  0.90526920  0.90164281  1
  Nb  Nb107  1  0.90318028  0.69919083  0.89934393  1
  Nb  Nb108  1  0.50021112  0.09381651  0.90494830  1
  Nb  Nb109  1  0.10549638  0.49503764  0.89818486  1
  Nb  Nb110  1  0.49357321  0.30387689  0.70052310  1
  Nb  Nb111  1  0.69306055  0.10208720  0.50198609  1
  Nb  Nb112  1  0.90072648  0.30223417  0.10162816  1
  Nb  Nb113  1  0.89253968  0.90294463  0.49564310  1
  Nb  Nb114  1  0.50558278  0.10081088  0.50461976  1
  Nb  Nb115  1  0.30327446  0.30599045  0.29532799  1
  Nb  Nb116  1  0.69502386  0.69788446  0.09771515  1
  Nb  Nb117  1  0.49996318  0.30311540  0.10314836  1
  Nb  Nb118  1  0.49796692  0.90436163  0.70606548  1
  Nb  Nb119  1  0.09938947  0.09598638  0.70125148  1
  Nb  Nb120  1  0.70112075  0.50411911  0.49993148  1
  Nb  Nb121  1  0.30039734  0.69259678  0.90182380  1
  Nb  Nb122  1  0.49826501  0.90011559  0.89278664  1
  Nb  Nb123  1  0.69649248  0.50328552  0.09735980  1
  Nb  Nb124  1  0.69967109  0.90393988  0.30537537  1
  Nb  Nb125  1  0.80355949  0.60550067  0.80691684  1
  Nb  Nb126  1  0.79570041  0.60172293  -0.00051323  1
  Nb  Nb127  1  0.60187634  0.19630715  0.40182051  1
  Nb  Nb128  1  0.40057956  0.20532783  0.60212953  1
  Nb  Nb129  1  0.59677748  -0.00328971  0.80525360  1
  Nb  Nb130  1  0.00678948  0.40064010  0.79571228  1
  Nb  Nb131  1  0.59997369  0.60025265  0.59567191  1
  Nb  Nb132  1  0.39425735  0.59844534  0.80245217  1
  Nb  Nb133  1  0.79462944  0.19573831  0.40165919  1
  Nb  Nb134  1  0.41248392  0.00392203  0.40516871  1
  Nb  Nb135  1  0.19608303  0.00266139  0.79896744  1
  Nb  Nb136  1  0.59912604  0.00295051  0.40112993  1
  Nb  Nb137  1  -0.00044900  0.20020379  0.20279356  1
  Nb  Nb138  1  0.59991497  0.59784062  0.40300282  1
  Nb  Nb139  1  0.59500213  -0.00598896  -0.00599324  1
  Nb  Nb140  1  0.60032979  0.80806015  -0.00240660  1
  Nb  Nb141  1  -0.00285343  0.20153792  0.39657202  1
  Nb  Nb142  1  0.79915731  0.40460750  0.19065896  1
  Nb  Nb143  1  0.20812772  0.60056735  0.19872113  1
  Nb  Nb144  1  0.00089932  0.39771689  0.60248050  1
  Nb  Nb145  1  0.40320907  0.40139235  0.19567807  1
  Nb  Nb146  1  0.20399119  0.60158859  0.39151494  1
  Nb  Nb147  1  0.40385327  0.59918576  0.60872942  1
  Nb  Nb148  1  -0.00482187  0.39621843  0.40354086  1
  Nb  Nb149  1  0.60166215  0.40342931  0.39927078  1
  Pd  Pd150  1  0.40621199  0.40009564  0.39456451  1
  Pd  Pd151  1  0.00239295  0.60277967  0.00321525  1
  Pd  Pd152  1  0.59990615  0.38970880  -0.00255186  1
  Pd  Pd153  1  0.39715384  0.00741517  0.79437803  1
  Pd  Pd154  1  0.80580879  0.80216231  0.20126062  1
  Pd  Pd155  1  0.81050501  0.79541533  0.59438878  1
  Pd  Pd156  1  0.59516778  -0.00498798  0.19524942  1
  Pd  Pd157  1  -0.00461368  0.19203068  0.01024131  1
  Pd  Pd158  1  0.79533844  -0.00329324  0.59818514  1
  Pd  Pd159  1  -0.00388529  0.00303405  0.19191569  1
  Pd  Pd160  1  0.20350994  0.80690161  0.80362569  1
  Pd  Pd161  1  0.21211405  -0.00188778  0.39968727  1
  Pd  Pd162  1  0.20119072  -0.00903286  0.60130565  1
  Pd  Pd163  1  0.79586259  0.79561747  0.00170751  1
  Pd  Pd164  1  0.39491694  0.00931687  0.59764626  1
  Pd  Pd165  1  -0.00200681  0.00596121  0.41186210  1
  Pd  Pd166  1  0.40033756  0.59747940  0.41136814  1
  Pd  Pd167  1  0.00573614  -0.00539780  0.80957097  1
  Pd  Pd168  1  0.78935001  0.61140220  0.39275649  1
  Pd  Pd169  1  0.38737281  0.79169509  0.79269674  1
  Pd  Pd170  1  0.60751872  -0.00960215  0.60574365  1
  Pd  Pd171  1  0.19560826  0.20340048  0.39305041  1
  Pd  Pd172  1  0.20314828  0.79268315  0.20243664  1
  Pd  Pd173  1  0.79627475  0.59934037  0.19113659  1
  Pd  Pd174  1  0.59610068  0.19561473  0.79867802  1
  Pd  Pd175  1  0.40596863  0.19446589  0.40393659  1
  Pd  Pd176  1  0.80223752  0.40506759  0.00772210  1
  Pd  Pd177  1  0.79897100  0.40179230  0.60903630  1
  Pd  Pd178  1  0.19619551  0.39412403  0.60628587  1
  Pd  Pd179  1  -0.00877358  0.80323294  0.59046250  1
  Pd  Pd180  1  0.40482601  0.19120922  0.79455620  1
  Pd  Pd181  1  0.20167789  0.19340812  0.81126438  1
  Pd  Pd182  1  -0.00587349  0.80728232  0.19762626  1
  Pd  Pd183  1  0.00129014  0.00551683  -0.00002031  1
  Pd  Pd184  1  -0.00118789  0.59258035  0.79433053  1
  Pd  Pd185  1  0.20261394  0.79466519  0.39341022  1
  Pd  Pd186  1  0.39183426  0.20856594  0.00570601  1
  Pd  Pd187  1  0.59755226  0.59771531  0.79433843  1
  Pd  Pd188  1  0.79891259  0.19725409  0.80053095  1
  Pd  Pd189  1  -0.00839484  0.79973810  0.40588625  1
  Pd  Pd190  1  0.80550293  0.79058926  0.39852645  1
  Pd  Pd191  1  0.59950089  0.60791493  -0.00655241  1
  Pd  Pd192  1  0.39598809  0.79078819  0.61213517  1
  Pd  Pd193  1  0.00107200  -0.00933696  0.59199958  1
  Pd  Pd194  1  0.60451821  0.19608132  0.19952274  1
  Pd  Pd195  1  0.40236254  -0.00820512  0.00471128  1
  Pd  Pd196  1  0.19786936  0.19976919  0.20276111  1
  Pd  Pd197  1  -0.00386026  0.59282535  0.59870839  1
  Pd  Pd198  1  0.60428355  0.80894557  0.79944530  1
  Pd  Pd199  1  0.19339991  0.60235962  0.00742287  1
  Rh  Rh200  1  0.80283460  0.20859779  0.19754331  1
  Rh  Rh201  1  0.80581244  0.79819776  0.80301891  1
  Rh  Rh202  1  0.20393807  0.59333140  0.80856713  1
  Rh  Rh203  1  0.60401544  0.80291125  0.19397402  1
  Rh  Rh204  1  0.79186908  0.39375716  0.38988347  1
  Rh  Rh205  1  0.60253028  0.40440087  0.20172114  1
  Rh  Rh206  1  0.39346885  0.80316060  0.19494894  1
  Rh  Rh207  1  0.21166135  0.20926803  0.59454655  1
  Rh  Rh208  1  0.00246679  0.20439686  0.59872026  1
  Rh  Rh209  1  0.19456785  0.40765622  0.39373851  1
  Rh  Rh210  1  0.59884952  0.80121388  0.39423821  1
  Rh  Rh211  1  0.59599412  0.20748695  0.60369670  1
  Rh  Rh212  1  0.39740141  0.59324251  0.19064721  1
  Rh  Rh213  1  0.79098565  0.00268487  0.41046983  1
  Rh  Rh214  1  0.59951891  0.19796749  0.00070028  1
  Rh  Rh215  1  0.21286486  0.41112580  0.19214120  1
  Rh  Rh216  1  0.40555980  0.60153089  -0.00385812  1
  Rh  Rh217  1  0.79325014  0.00422668  0.79925104  1
  Rh  Rh218  1  0.80059876  0.20113150  0.00225796  1
  Rh  Rh219  1  0.01414210  0.60596953  0.19400015  1
  Rh  Rh220  1  0.20013747  0.40455588  0.00372159  1
  Rh  Rh221  1  0.20449167  0.19870123  -0.00249028  1
  Rh  Rh222  1  0.40235233  0.80334913  0.00173301  1
  Rh  Rh223  1  0.79044315  0.00093887  0.00096434  1
  Rh  Rh224  1  0.80629861  -0.01072387  0.19583794  1
  Rh  Rh225  1  -0.00384557  0.80364427  0.80610763  1
  Rh  Rh226  1  0.80827147  0.40512537  0.79820633  1
  Rh  Rh227  1  0.38812670  0.39522571  0.60373035  1
  Rh  Rh228  1  0.39179697  0.21171184  0.19173865  1
  Rh  Rh229  1  0.59503591  0.38897663  0.80856650  1
  Rh  Rh230  1  0.00170740  0.40202122  -0.00444379  1
  Rh  Rh231  1  0.20118814  0.00178324  -0.00900222  1
  Rh  Rh232  1  0.01122420  0.59231025  0.40292826  1
  Rh  Rh233  1  0.20118933  -0.00088165  0.20546292  1
  Rh  Rh234  1  0.00058407  0.79662822  -0.00416089  1
  Rh  Rh235  1  0.59976246  0.80043001  0.60955663  1
  Rh  Rh236  1  -0.00760907  0.39386573  0.20389373  1
  Rh  Rh237  1  0.19551114  0.80265821  0.59919801  1
  Rh  Rh238  1  0.79543147  0.60161970  0.60676669  1
  Rh  Rh239  1  -0.00208955  0.20204585  0.80222486  1
  Rh  Rh240  1  0.60855839  0.40390752  0.59770558  1
  Rh  Rh241  1  0.40006657  0.39330853  0.00650352  1
  Rh  Rh242  1  0.79511559  0.19809298  0.60079694  1
  Rh  Rh243  1  0.19373013  0.40099057  0.79723900  1
  Rh  Rh244  1  0.20277353  0.79301377  -0.00485926  1
  Rh  Rh245  1  0.39723537  -0.00042405  0.20530831  1
  Rh  Rh246  1  0.39900029  0.40502702  0.80544172  1
  Rh  Rh247  1  0.60869742  0.60346601  0.20881289  1
  Rh  Rh248  1  0.21076287  0.60106500  0.58323489  1
  Rh  Rh249  1  0.40331883  0.81346631  0.39680970  1
