# generated using pymatgen
data_ZrScNbPdRh
_symmetry_space_group_name_H-M   'P 1'
_cell_length_a   16.55843997
_cell_length_b   16.56219765
_cell_length_c   16.55994278
_cell_angle_alpha   89.98771128
_cell_angle_beta   90.03369996
_cell_angle_gamma   89.95620909
_symmetry_Int_Tables_number   1
_chemical_formula_structural   ZrScNbPdRh
_chemical_formula_sum   'Zr50 Sc50 Nb50 Pd50 Rh50'
_cell_volume   4541.46530701
_cell_formula_units_Z   50
loop_
 _symmetry_equiv_pos_site_id
 _symmetry_equiv_pos_as_xyz
  1  'x, y, z'
loop_
 _atom_site_type_symbol
 _atom_site_label
 _atom_site_symmetry_multiplicity
 _atom_site_fract_x
 _atom_site_fract_y
 _atom_site_fract_z
 _atom_site_occupancy
  Zr  Zr0  1  0.30064695  0.30402864  0.49512132  1
  Zr  Zr1  1  0.70501586  0.10215157  0.10420264  1
  Zr  Zr2  1  0.30400854  0.69909996  0.29439079  1
  Zr  Zr3  1  0.89875499  0.29350138  0.50349599  1
  Zr  Zr4  1  0.50331683  0.30056292  0.69592290  1
  Zr  Zr5  1  0.10339563  0.10913253  0.70115923  1
  Zr  Zr6  1  0.70292381  0.90653779  0.09750153  1
  Zr  Zr7  1  0.29332175  0.49364530  0.49606401  1
  Zr  Zr8  1  0.69252415  0.50132790  0.29620619  1
  Zr  Zr9  1  0.29974089  0.10334979  0.90135337  1
  Zr  Zr10  1  0.10020776  0.69095941  0.70588581  1
  Zr  Zr11  1  0.09794025  0.69644801  0.50267502  1
  Zr  Zr12  1  0.72280848  0.69818174  0.10075954  1
  Zr  Zr13  1  0.69779556  0.49781887  0.49811455  1
  Zr  Zr14  1  0.49846126  0.10331929  0.69916292  1
  Zr  Zr15  1  0.89937267  0.69602063  0.70650023  1
  Zr  Zr16  1  0.30364806  0.29769877  0.28999160  1
  Zr  Zr17  1  0.10549311  0.70185536  0.29918169  1
  Zr  Zr18  1  0.29839965  0.89980605  0.90862512  1
  Zr  Zr19  1  0.89664788  0.89354404  0.09910609  1
  Zr  Zr20  1  0.69762568  0.70349289  0.49484677  1
  Zr  Zr21  1  0.09611685  0.31448977  0.49236921  1
  Zr  Zr22  1  0.10506087  0.50461233  0.49854611  1
  Zr  Zr23  1  0.50466300  0.69167588  0.30266363  1
  Zr  Zr24  1  0.89960756  0.89790525  0.69423783  1
  Zr  Zr25  1  0.30593841  0.50379090  0.09978766  1
  Zr  Zr26  1  0.09365423  0.10338737  0.10386629  1
  Zr  Zr27  1  0.30278820  0.29642416  0.89836352  1
  Zr  Zr28  1  0.30515872  0.10757514  0.70439052  1
  Zr  Zr29  1  0.70917426  0.10164810  0.30369833  1
  Zr  Zr30  1  0.09831389  0.29949745  0.11206562  1
  Zr  Zr31  1  0.49398210  0.49792987  0.49886499  1
  Zr  Zr32  1  0.30070743  0.89648665  0.29648277  1
  Zr  Zr33  1  0.49124920  0.89423103  0.29945450  1
  Zr  Zr34  1  0.70278683  0.49751813  0.70060926  1
  Zr  Zr35  1  0.09782280  0.10304028  0.90792150  1
  Zr  Zr36  1  0.50565317  0.49677192  0.69326669  1
  Zr  Zr37  1  0.09377327  0.89142860  0.50223118  1
  Zr  Zr38  1  0.09780277  0.30126616  0.89490113  1
  Zr  Zr39  1  0.09762883  0.48697022  0.29813059  1
  Zr  Zr40  1  0.69867239  0.29167074  0.48947979  1
  Zr  Zr41  1  0.49634367  0.89422990  0.10148169  1
  Zr  Zr42  1  0.69835637  0.70365164  0.69507158  1
  Zr  Zr43  1  0.89417920  0.09245726  0.10460974  1
  Zr  Zr44  1  0.89457207  0.50198814  0.09664743  1
  Zr  Zr45  1  0.70387953  0.70322511  0.89720718  1
  Zr  Zr46  1  0.49881508  0.70367084  0.90274360  1
  Zr  Zr47  1  0.50449275  0.89609535  0.90170495  1
  Zr  Zr48  1  0.50133923  0.30025548  0.49553541  1
  Zr  Zr49  1  0.30295077  0.90226419  0.10538337  1
  Sc  Sc50  1  0.90760405  0.49546399  0.49892992  1
  Sc  Sc51  1  0.69875612  0.29667679  0.08918853  1
  Sc  Sc52  1  0.29201720  0.90664022  0.49950323  1
  Sc  Sc53  1  0.49996677  0.10424087  0.89895658  1
  Sc  Sc54  1  0.90832290  0.29671094  0.30732730  1
  Sc  Sc55  1  0.90095507  0.49805786  0.89862345  1
  Sc  Sc56  1  0.89947331  0.90037379  0.30278259  1
  Sc  Sc57  1  0.69384709  0.49970162  0.09537105  1
  Sc  Sc58  1  0.69599682  0.89996552  0.69649733  1
  Sc  Sc59  1  0.90394021  0.50337751  0.70593168  1
  Sc  Sc60  1  0.30361501  0.11231646  0.10386748  1
  Sc  Sc61  1  0.70239659  0.48928540  0.89894576  1
  Sc  Sc62  1  0.90365986  0.30890178  0.89730688  1
  Sc  Sc63  1  0.29726823  0.50248197  0.29621961  1
  Sc  Sc64  1  0.50109032  0.69477250  0.49808129  1
  Sc  Sc65  1  0.69769794  0.30800272  0.69732756  1
  Sc  Sc66  1  0.10295671  0.90011568  0.31214506  1
  Sc  Sc67  1  0.09899274  0.09005845  0.49875126  1
  Sc  Sc68  1  0.09866402  0.90044930  0.10025629  1
  Sc  Sc69  1  0.28985130  0.50499222  0.89906237  1
  Sc  Sc70  1  0.30632907  0.10379287  0.29436185  1
  Sc  Sc71  1  0.89945670  0.90358155  0.49807173  1
  Sc  Sc72  1  0.49308773  0.69237985  0.09459090  1
  Sc  Sc73  1  0.30136649  0.90861005  0.70300753  1
  Sc  Sc74  1  0.28962537  0.69585394  0.90686408  1
  Sc  Sc75  1  0.70146923  0.10146215  0.91820955  1
  Sc  Sc76  1  0.70258739  0.09866540  0.49734804  1
  Sc  Sc77  1  0.09812653  0.50121530  0.70392272  1
  Sc  Sc78  1  0.49432305  0.10662636  0.30179810  1
  Sc  Sc79  1  0.30274322  0.68012834  0.49643452  1
  Sc  Sc80  1  0.69841330  0.90523611  0.50261056  1
  Sc  Sc81  1  0.90406287  0.30306977  0.10091235  1
  Sc  Sc82  1  0.90193703  0.70780901  0.50845522  1
  Sc  Sc83  1  0.70582689  0.90077708  0.31449788  1
  Sc  Sc84  1  0.50689744  0.10590098  0.50631237  1
  Sc  Sc85  1  0.50651164  0.50061416  0.91360395  1
  Sc  Sc86  1  0.69659349  0.89758050  0.89897018  1
  Sc  Sc87  1  0.09864239  0.50007359  0.89468173  1
  Sc  Sc88  1  0.69828844  0.09576645  0.68329615  1
  Sc  Sc89  1  0.29002808  0.50224000  0.69533507  1
  Sc  Sc90  1  0.29199491  0.29368448  0.70205223  1
  Sc  Sc91  1  0.90129984  0.10794748  0.68184878  1
  Sc  Sc92  1  0.49659161  0.30809098  0.09810728  1
  Sc  Sc93  1  0.09877910  0.89692024  0.69999930  1
  Sc  Sc94  1  0.29851650  0.69525241  0.10067204  1
  Sc  Sc95  1  0.50545168  0.30273836  0.90620194  1
  Sc  Sc96  1  0.09608630  0.49388979  0.09956586  1
  Sc  Sc97  1  0.10637656  0.89982742  0.91208530  1
  Sc  Sc98  1  0.29943041  0.10317381  0.51095787  1
  Sc  Sc99  1  0.51082303  0.90551910  0.70086209  1
  Nb  Nb100  1  0.69902389  0.30064903  0.89288141  1
  Nb  Nb101  1  0.90168939  0.29910239  0.69741435  1
  Nb  Nb102  1  0.29866298  0.30373684  0.09947835  1
  Nb  Nb103  1  0.70315679  0.69736895  0.30077330  1
  Nb  Nb104  1  0.89828672  0.09673096  0.90264600  1
  Nb  Nb105  1  0.69199618  0.30463370  0.30170721  1
  Nb  Nb106  1  0.89919643  0.70150486  0.91186922  1
  Nb  Nb107  1  0.09902582  0.29573993  0.29533457  1
  Nb  Nb108  1  0.50172287  0.50040055  0.10392199  1
  Nb  Nb109  1  0.09875538  0.69551273  0.90392230  1
  Nb  Nb110  1  0.49972624  0.89684912  0.49926876  1
  Nb  Nb111  1  0.51059782  0.49360859  0.28576999  1
  Nb  Nb112  1  0.09545435  0.10832080  0.29404616  1
  Nb  Nb113  1  0.90203336  0.69987416  0.09827999  1
  Nb  Nb114  1  0.50479828  0.09979332  0.10570232  1
  Nb  Nb115  1  0.88950290  0.69970462  0.28959214  1
  Nb  Nb116  1  0.09051723  0.69689140  0.09413576  1
  Nb  Nb117  1  0.88987144  0.10398282  0.49465233  1
  Nb  Nb118  1  0.89946303  0.90178997  0.89739293  1
  Nb  Nb119  1  0.90263972  0.09938458  0.30057432  1
  Nb  Nb120  1  0.89706670  0.50120108  0.29516822  1
  Nb  Nb121  1  0.49775123  0.70020952  0.69729665  1
  Nb  Nb122  1  0.50900730  0.30171415  0.30023155  1
  Nb  Nb123  1  0.30109057  0.69754369  0.70297602  1
  Nb  Nb124  1  0.09093942  0.30062452  0.70672862  1
  Nb  Nb125  1  0.40103233  0.40577220  0.79959524  1
  Nb  Nb126  1  0.80331716  0.39597284  0.59913072  1
  Nb  Nb127  1  0.40430910  0.00193678  0.00613626  1
  Nb  Nb128  1  0.79868527  0.19887431  0.79958785  1
  Nb  Nb129  1  0.40223029  -0.00305179  0.40237326  1
  Nb  Nb130  1  0.60605449  0.79840018  0.20307360  1
  Nb  Nb131  1  0.39827952  0.79488906  0.79548268  1
  Nb  Nb132  1  -0.00689399  0.60230733  0.38833429  1
  Nb  Nb133  1  0.19359683  0.20222983  0.39210440  1
  Nb  Nb134  1  0.80310560  0.60296255  0.39311506  1
  Nb  Nb135  1  0.80694033  0.00788710  0.80120175  1
  Nb  Nb136  1  0.59672125  0.60309733  0.79693247  1
  Nb  Nb137  1  0.79489727  0.39938624  0.20683707  1
  Nb  Nb138  1  0.59861865  -0.00000956  0.20326897  1
  Nb  Nb139  1  0.39810657  0.79700988  0.60389478  1
  Nb  Nb140  1  0.20270797  0.39249015  0.00425302  1
  Nb  Nb141  1  -0.00301927  0.00023110  0.80396754  1
  Nb  Nb142  1  0.60977437  0.20152564  0.80136668  1
  Nb  Nb143  1  0.40449885  0.60047637  0.79665244  1
  Nb  Nb144  1  -0.00657108  0.60670698  0.19814774  1
  Nb  Nb145  1  0.19652128  0.00659819  0.20263861  1
  Nb  Nb146  1  -0.00174647  0.79816569  0.81167317  1
  Nb  Nb147  1  0.60052838  0.20085923  0.20174841  1
  Nb  Nb148  1  0.20775052  0.79201604  0.60514085  1
  Nb  Nb149  1  0.19505165  0.00660127  0.80453320  1
  Pd  Pd150  1  0.59930588  0.60267040  0.59916770  1
  Pd  Pd151  1  0.19885262  0.80674585  0.79800081  1
  Pd  Pd152  1  0.79645462  0.80544879  0.59512464  1
  Pd  Pd153  1  0.80601953  0.40289295  0.39941430  1
  Pd  Pd154  1  0.00577486  0.19365318  0.40754384  1
  Pd  Pd155  1  0.61495701  0.01397176  0.80340340  1
  Pd  Pd156  1  0.39420700  0.40772101  -0.00770101  1
  Pd  Pd157  1  -0.00275432  0.40640375  0.60679357  1
  Pd  Pd158  1  0.39451843  0.19291016  0.40581770  1
  Pd  Pd159  1  0.60872516  0.60402266  -0.00206207  1
  Pd  Pd160  1  0.80921464  0.20926373  -0.00698364  1
  Pd  Pd161  1  0.40573138  -0.00499793  0.59429794  1
  Pd  Pd162  1  0.19640580  -0.00586154  0.60916147  1
  Pd  Pd163  1  0.79830814  0.39724167  0.00392787  1
  Pd  Pd164  1  0.40900752  0.19741378  0.00577999  1
  Pd  Pd165  1  0.59103712  0.00492940  0.39682331  1
  Pd  Pd166  1  0.40355524  0.58727355  0.38978090  1
  Pd  Pd167  1  -0.00859902  0.20526546  0.00329954  1
  Pd  Pd168  1  0.19484548  0.39345734  0.61051525  1
  Pd  Pd169  1  0.00084582  0.59168618  -0.00054156  1
  Pd  Pd170  1  -0.00392722  -0.00434834  0.00049192  1
  Pd  Pd171  1  0.79380647  0.81125639  0.20628500  1
  Pd  Pd172  1  0.00062770  0.80473786  -0.00358597  1
  Pd  Pd173  1  0.60253229  0.60983273  0.18833574  1
  Pd  Pd174  1  0.39038963  0.80100644  0.41466997  1
  Pd  Pd175  1  0.21062333  0.79167902  0.41177886  1
  Pd  Pd176  1  -0.00421098  0.00516620  0.39932655  1
  Pd  Pd177  1  0.00996503  0.19961364  0.58947162  1
  Pd  Pd178  1  0.40401962  0.40587356  0.38578281  1
  Pd  Pd179  1  0.00401210  0.80073440  0.20466226  1
  Pd  Pd180  1  0.20059864  0.79282014  0.01085380  1
  Pd  Pd181  1  -0.01233326  0.19383183  0.80136544  1
  Pd  Pd182  1  -0.00085898  0.00330070  0.60139383  1
  Pd  Pd183  1  0.80014261  0.21255537  0.20637635  1
  Pd  Pd184  1  0.80213337  0.80767398  0.80148181  1
  Pd  Pd185  1  0.19302067  0.80444818  0.19331809  1
  Pd  Pd186  1  0.60776769  0.79083876  0.01282784  1
  Pd  Pd187  1  0.59455574  0.00309422  0.00309624  1
  Pd  Pd188  1  -0.00999901  0.79206533  0.39394569  1
  Pd  Pd189  1  0.19774104  0.20515161  0.00619089  1
  Pd  Pd190  1  0.60133388  0.80189673  0.39743796  1
  Pd  Pd191  1  0.00457755  -0.00922683  0.20639514  1
  Pd  Pd192  1  0.38946190  0.39714536  0.60877826  1
  Pd  Pd193  1  0.80833010  0.59302289  0.59018188  1
  Pd  Pd194  1  0.18975516  0.59571310  0.19371556  1
  Pd  Pd195  1  0.20736433  0.01321890  0.39185156  1
  Pd  Pd196  1  0.39807254  -0.00653564  0.80843094  1
  Pd  Pd197  1  0.79572219  0.59627691  0.80792415  1
  Pd  Pd198  1  0.19118737  0.20932866  0.58917173  1
  Pd  Pd199  1  0.40211885  0.40121445  0.20206307  1
  Rh  Rh200  1  0.59718774  0.20311164  0.00114512  1
  Rh  Rh201  1  0.79404738  0.20732590  0.60302653  1
  Rh  Rh202  1  0.20156593  0.19615357  0.20310558  1
  Rh  Rh203  1  0.80346237  0.20065655  0.39292121  1
  Rh  Rh204  1  0.20005825  0.60220174  0.60207016  1
  Rh  Rh205  1  0.39291432  0.80036247  -0.00285464  1
  Rh  Rh206  1  0.21110752  0.00891825  0.00776710  1
  Rh  Rh207  1  0.39610768  0.59837396  0.60290718  1
  Rh  Rh208  1  0.60890806  0.39356177  0.58700691  1
  Rh  Rh209  1  0.20566868  0.40161946  0.19554416  1
  Rh  Rh210  1  0.80325182  -0.00111045  0.60036227  1
  Rh  Rh211  1  0.80045625  0.80587863  -0.00570765  1
  Rh  Rh212  1  0.19450865  0.59885006  0.39238787  1
  Rh  Rh213  1  0.80171597  -0.00731043  -0.00575830  1
  Rh  Rh214  1  0.19600781  0.19938882  0.80124521  1
  Rh  Rh215  1  0.59324860  0.80166937  0.59582664  1
  Rh  Rh216  1  0.00957940  0.40019041  -0.00150948  1
  Rh  Rh217  1  0.80716109  0.39298275  0.79083522  1
  Rh  Rh218  1  0.00790252  0.79402767  0.61252054  1
  Rh  Rh219  1  0.39874262  0.00610556  0.20043158  1
  Rh  Rh220  1  -0.00417976  0.40372933  0.39577859  1
  Rh  Rh221  1  -0.01139628  0.40225812  0.20063926  1
  Rh  Rh222  1  0.60154719  0.59341451  0.40100422  1
  Rh  Rh223  1  0.59563029  -0.00227801  0.59388937  1
  Rh  Rh224  1  0.59090981  0.40216427  0.80608834  1
  Rh  Rh225  1  0.40013083  0.20491688  0.59794419  1
  Rh  Rh226  1  -0.00215701  0.59781999  0.59465860  1
  Rh  Rh227  1  0.60545856  0.39080655  0.18982431  1
  Rh  Rh228  1  0.20233909  0.59975312  0.80265612  1
  Rh  Rh229  1  0.41380382  0.21291863  0.80017409  1
  Rh  Rh230  1  0.19137635  0.59376695  0.00528912  1
  Rh  Rh231  1  0.59636595  0.79410977  0.79337935  1
  Rh  Rh232  1  0.20469889  0.39178275  0.38751167  1
  Rh  Rh233  1  0.59220660  0.40575889  0.40334192  1
  Rh  Rh234  1  0.39742295  0.59525653  -0.00517174  1
  Rh  Rh235  1  0.80067887  0.59089746  0.20032883  1
  Rh  Rh236  1  0.80358316  0.79431640  0.40451106  1
  Rh  Rh237  1  0.79909661  -0.00404827  0.20805170  1
  Rh  Rh238  1  0.59928673  0.19303440  0.39205676  1
  Rh  Rh239  1  0.80670904  0.00019001  0.40304223  1
  Rh  Rh240  1  0.60439641  0.20381159  0.60364385  1
  Rh  Rh241  1  0.79886558  0.59495716  -0.00764842  1
  Rh  Rh242  1  0.41112273  0.20853997  0.19421076  1
  Rh  Rh243  1  0.40641701  0.59749559  0.20206863  1
  Rh  Rh244  1  -0.01328304  0.19889044  0.19854002  1
  Rh  Rh245  1  -0.00334303  0.60671988  0.81101496  1
  Rh  Rh246  1  0.20251184  0.39590868  0.80289722  1
  Rh  Rh247  1  0.40680569  0.78417002  0.19643740  1
  Rh  Rh248  1  -0.00136567  0.40244770  0.79619822  1
  Rh  Rh249  1  0.60307031  0.39817329  0.00313285  1
