# generated using pymatgen
data_ZrScNbPdRh
_symmetry_space_group_name_H-M   'P 1'
_cell_length_a   16.55420598
_cell_length_b   16.55582726
_cell_length_c   16.55701765
_cell_angle_alpha   90.01279925
_cell_angle_beta   89.97764193
_cell_angle_gamma   90.00684584
_symmetry_Int_Tables_number   1
_chemical_formula_structural   ZrScNbPdRh
_chemical_formula_sum   'Zr50 Sc50 Nb50 Pd50 Rh50'
_cell_volume   4537.75773357
_cell_formula_units_Z   50
loop_
 _symmetry_equiv_pos_site_id
 _symmetry_equiv_pos_as_xyz
  1  'x, y, z'
loop_
 _atom_site_type_symbol
 _atom_site_label
 _atom_site_symmetry_multiplicity
 _atom_site_fract_x
 _atom_site_fract_y
 _atom_site_fract_z
 _atom_site_occupancy
  Zr  Zr0  1  0.30422566  0.09708110  0.29943937  1
  Zr  Zr1  1  0.30359491  0.89968492  0.48765777  1
  Zr  Zr2  1  0.69468217  0.50135845  0.10313287  1
  Zr  Zr3  1  0.90192995  0.31019745  0.30209194  1
  Zr  Zr4  1  0.49551970  0.90663558  0.90377913  1
  Zr  Zr5  1  0.89380208  0.09831892  0.90586979  1
  Zr  Zr6  1  0.29986295  0.50950043  0.50361380  1
  Zr  Zr7  1  0.09734571  0.09832513  0.10309326  1
  Zr  Zr8  1  0.50160922  0.09537308  0.49796006  1
  Zr  Zr9  1  0.68447562  0.90057702  0.49527081  1
  Zr  Zr10  1  0.70491842  0.90766305  0.29904329  1
  Zr  Zr11  1  0.69356169  0.29856342  0.90093216  1
  Zr  Zr12  1  0.29875768  0.29168364  0.29849207  1
  Zr  Zr13  1  0.71588994  0.69881067  0.90171648  1
  Zr  Zr14  1  0.29567825  0.49652999  0.69401734  1
  Zr  Zr15  1  0.90327493  0.30179387  0.90111659  1
  Zr  Zr16  1  0.09935935  0.30613504  0.89915197  1
  Zr  Zr17  1  0.49201688  0.29305194  0.70466343  1
  Zr  Zr18  1  0.09943847  0.30180845  0.50587305  1
  Zr  Zr19  1  0.90957198  0.49055342  0.49206261  1
  Zr  Zr20  1  0.89110663  0.29650430  0.49506552  1
  Zr  Zr21  1  0.70086293  0.49623524  0.70466322  1
  Zr  Zr22  1  0.09991079  0.89682119  0.89914003  1
  Zr  Zr23  1  0.50518473  0.90284999  0.09767673  1
  Zr  Zr24  1  0.49769263  0.49950565  0.10753128  1
  Zr  Zr25  1  0.90083901  0.89963628  0.48704632  1
  Zr  Zr26  1  0.29589760  0.88860906  0.69746260  1
  Zr  Zr27  1  0.50955564  0.30295075  0.09686401  1
  Zr  Zr28  1  0.10039246  0.30734024  0.70267656  1
  Zr  Zr29  1  0.29244153  0.70352012  0.90830984  1
  Zr  Zr30  1  0.29990017  0.69635177  0.10823851  1
  Zr  Zr31  1  0.09481973  0.71486392  0.69643338  1
  Zr  Zr32  1  0.50019401  0.29653887  0.50705890  1
  Zr  Zr33  1  0.70402266  0.10761644  0.10581875  1
  Zr  Zr34  1  0.49677473  0.69936677  0.29186177  1
  Zr  Zr35  1  0.31046026  0.50064661  0.29882277  1
  Zr  Zr36  1  0.09705638  0.10173725  0.69068757  1
  Zr  Zr37  1  0.50352982  0.70415940  0.49069655  1
  Zr  Zr38  1  0.10563290  0.68987140  0.10601845  1
  Zr  Zr39  1  0.89902453  0.29745022  0.10447328  1
  Zr  Zr40  1  0.10449003  0.29621845  0.29716485  1
  Zr  Zr41  1  0.29793572  0.70216254  0.30524300  1
  Zr  Zr42  1  0.49833019  0.48812180  0.90273140  1
  Zr  Zr43  1  0.90535459  0.70195689  0.50066846  1
  Zr  Zr44  1  0.89725205  0.90370098  0.11317484  1
  Zr  Zr45  1  0.10020608  0.49993239  0.50822047  1
  Zr  Zr46  1  0.09341762  0.69471835  0.90162137  1
  Zr  Zr47  1  0.89830836  0.29471792  0.70087605  1
  Zr  Zr48  1  0.29861254  0.50576221  0.09909905  1
  Zr  Zr49  1  0.30076948  0.89810031  0.29374851  1
  Sc  Sc50  1  0.10289629  0.69928949  0.49676106  1
  Sc  Sc51  1  0.10731815  0.70022539  0.29691076  1
  Sc  Sc52  1  0.70029407  0.10165329  0.90354115  1
  Sc  Sc53  1  0.70329149  0.09959153  0.70837507  1
  Sc  Sc54  1  0.89409052  0.09576116  0.29935035  1
  Sc  Sc55  1  0.90004608  0.90446863  0.90140721  1
  Sc  Sc56  1  0.30863307  0.10160678  0.10371663  1
  Sc  Sc57  1  0.29656770  0.29937204  0.89335770  1
  Sc  Sc58  1  0.50118170  0.10808801  0.70326708  1
  Sc  Sc59  1  0.09617547  0.30073830  0.10244780  1
  Sc  Sc60  1  0.29753061  0.10124321  0.90526711  1
  Sc  Sc61  1  0.09771506  0.10074275  0.91029174  1
  Sc  Sc62  1  0.90145644  0.70525686  0.70949538  1
  Sc  Sc63  1  0.91648022  0.90018305  0.70235351  1
  Sc  Sc64  1  0.89983816  0.09681673  0.10034432  1
  Sc  Sc65  1  0.89955874  0.09961667  0.70215854  1
  Sc  Sc66  1  0.09498695  0.90266470  0.10001301  1
  Sc  Sc67  1  0.30195930  0.30172296  0.50879382  1
  Sc  Sc68  1  0.09095454  0.89595675  0.50367380  1
  Sc  Sc69  1  0.69194686  0.49804136  0.48500542  1
  Sc  Sc70  1  0.29306250  0.10512893  0.49406026  1
  Sc  Sc71  1  0.70253037  0.90641794  0.90325981  1
  Sc  Sc72  1  0.91218678  0.70724591  0.29567430  1
  Sc  Sc73  1  0.29944478  0.30280413  0.11057426  1
  Sc  Sc74  1  0.09200377  0.50550186  0.29868216  1
  Sc  Sc75  1  0.10992715  0.10368372  0.30366278  1
  Sc  Sc76  1  0.91026206  0.49745542  0.10370562  1
  Sc  Sc77  1  0.70140879  0.71467163  0.09879304  1
  Sc  Sc78  1  0.09171196  0.89670338  0.29755884  1
  Sc  Sc79  1  0.70539676  0.70064977  0.70307209  1
  Sc  Sc80  1  0.50511638  0.09773088  0.10100463  1
  Sc  Sc81  1  0.68694350  0.70231879  0.30068568  1
  Sc  Sc82  1  0.49718675  0.90549878  0.30454907  1
  Sc  Sc83  1  0.48724862  0.49862835  0.69925719  1
  Sc  Sc84  1  0.49158086  0.69385188  0.69954865  1
  Sc  Sc85  1  0.49950845  0.09354676  0.28808934  1
  Sc  Sc86  1  0.69438863  0.70473458  0.49063256  1
  Sc  Sc87  1  0.70081535  0.28968355  0.70684817  1
  Sc  Sc88  1  0.70506905  0.10354735  0.50094318  1
  Sc  Sc89  1  0.49693034  0.31330171  0.29193306  1
  Sc  Sc90  1  0.30010311  0.69387357  0.69696824  1
  Sc  Sc91  1  0.29552024  0.49709784  0.90395981  1
  Sc  Sc92  1  0.29696336  0.29211513  0.69775014  1
  Sc  Sc93  1  0.71245916  0.30410852  0.29579746  1
  Sc  Sc94  1  0.10300670  0.49627842  0.09918276  1
  Sc  Sc95  1  0.49446814  0.49554743  0.49169147  1
  Sc  Sc96  1  0.49164489  0.70455622  0.90116266  1
  Sc  Sc97  1  0.30275107  0.89952944  0.09016981  1
  Sc  Sc98  1  0.90723539  0.49649021  0.70353686  1
  Sc  Sc99  1  0.90050738  0.09794401  0.50471791  1
  Nb  Nb100  1  0.51714230  0.50501617  0.29218274  1
  Nb  Nb101  1  0.70149270  0.90887656  0.10285175  1
  Nb  Nb102  1  0.69291682  0.89838947  0.69649944  1
  Nb  Nb103  1  0.90197578  0.90337661  0.29914345  1
  Nb  Nb104  1  0.69726693  0.50469500  0.29655282  1
  Nb  Nb105  1  0.30153724  0.90118798  0.89740168  1
  Nb  Nb106  1  0.29995039  0.09633527  0.69803027  1
  Nb  Nb107  1  0.10174077  0.90084292  0.69828052  1
  Nb  Nb108  1  0.49998113  0.29138542  0.89706313  1
  Nb  Nb109  1  0.89610941  0.49825755  0.29949004  1
  Nb  Nb110  1  0.50428269  0.69652262  0.09947621  1
  Nb  Nb111  1  0.70348105  0.29666635  0.49864259  1
  Nb  Nb112  1  0.70476513  0.29582773  0.09561190  1
  Nb  Nb113  1  0.50165393  0.90300048  0.50375381  1
  Nb  Nb114  1  0.30149532  0.70193267  0.49796609  1
  Nb  Nb115  1  0.89572230  0.69468958  0.09637629  1
  Nb  Nb116  1  0.49673580  0.10467024  0.89963456  1
  Nb  Nb117  1  0.89819037  0.69354759  0.90966396  1
  Nb  Nb118  1  0.09186048  0.49393677  0.89400310  1
  Nb  Nb119  1  0.69706159  0.10421265  0.30135604  1
  Nb  Nb120  1  0.50328035  0.90007137  0.69545168  1
  Nb  Nb121  1  0.70314115  0.50287530  0.90026153  1
  Nb  Nb122  1  0.10113122  0.49566734  0.70355222  1
  Nb  Nb123  1  0.89600310  0.50749035  0.90630376  1
  Nb  Nb124  1  0.10146070  0.10289893  0.50013445  1
  Nb  Nb125  1  0.40807105  0.20460062  -0.00336491  1
  Nb  Nb126  1  0.20274430  -0.00149677  0.20032963  1
  Nb  Nb127  1  0.79835785  0.59689029  0.59155064  1
  Nb  Nb128  1  0.60368233  0.59391449  0.60164406  1
  Nb  Nb129  1  0.18932548  0.59586387  0.79963717  1
  Nb  Nb130  1  0.79388300  0.40036749  0.59516364  1
  Nb  Nb131  1  -0.00845953  0.78980390  0.00339636  1
  Nb  Nb132  1  0.59947328  0.80216472  0.79757894  1
  Nb  Nb133  1  0.19912476  -0.00215523  0.60101664  1
  Nb  Nb134  1  0.40333418  0.80331615  0.59177672  1
  Nb  Nb135  1  0.80211243  0.60040869  0.20390902  1
  Nb  Nb136  1  0.60125570  0.60135879  -0.00433112  1
  Nb  Nb137  1  0.80353076  0.59712584  0.39303540  1
  Nb  Nb138  1  0.60090825  0.20215467  0.39605286  1
  Nb  Nb139  1  0.79662591  0.80482677  0.59783636  1
  Nb  Nb140  1  0.79796727  0.40433123  -0.00264133  1
  Nb  Nb141  1  0.60377527  0.39721179  0.60037572  1
  Nb  Nb142  1  0.79617714  -0.01366538  0.60154377  1
  Nb  Nb143  1  0.60179012  0.59998266  0.80502758  1
  Nb  Nb144  1  0.20278417  -0.00406906  0.79550497  1
  Nb  Nb145  1  0.39824084  -0.00423826  0.60281148  1
  Nb  Nb146  1  0.40747586  0.20026128  0.39719878  1
  Nb  Nb147  1  0.20144897  0.40392490  0.40218223  1
  Nb  Nb148  1  0.39595390  -0.00331297  0.79726760  1
  Nb  Nb149  1  0.00250919  0.20105914  0.40338418  1
  Pd  Pd150  1  0.80401212  0.59809782  0.79145706  1
  Pd  Pd151  1  0.79682193  0.00601511  0.40573683  1
  Pd  Pd152  1  0.39194070  0.38896884  0.00246940  1
  Pd  Pd153  1  -0.00035748  0.20098110  0.00208696  1
  Pd  Pd154  1  -0.00446866  0.60184864  0.60739137  1
  Pd  Pd155  1  0.19044901  -0.00781238  0.39871673  1
  Pd  Pd156  1  -0.00514455  0.19357645  0.21031489  1
  Pd  Pd157  1  0.60226889  0.79638486  -0.00982237  1
  Pd  Pd158  1  0.59420990  -0.00031568  0.80100386  1
  Pd  Pd159  1  0.60820158  0.19896760  0.59897194  1
  Pd  Pd160  1  0.60536956  0.40348035  -0.00039454  1
  Pd  Pd161  1  0.80183996  -0.00690386  0.79204407  1
  Pd  Pd162  1  0.19806862  0.19085203  0.80017382  1
  Pd  Pd163  1  0.80085168  0.81121488  0.79590763  1
  Pd  Pd164  1  0.79835094  0.40587594  0.19140548  1
  Pd  Pd165  1  0.60217635  0.01228819  0.60624777  1
  Pd  Pd166  1  0.20375324  0.00001439  0.00138041  1
  Pd  Pd167  1  0.20856008  0.20640517  0.00732261  1
  Pd  Pd168  1  0.80659535  0.81302209  0.00335586  1
  Pd  Pd169  1  0.40660428  0.59984076  0.39652916  1
  Pd  Pd170  1  0.19665771  0.40715308  0.20733783  1
  Pd  Pd171  1  0.20041943  0.39677998  0.00047377  1
  Pd  Pd172  1  0.59822016  0.78547858  0.60705443  1
  Pd  Pd173  1  0.39281338  0.59669887  0.80945533  1
  Pd  Pd174  1  0.00373756  0.79627233  0.19263127  1
  Pd  Pd175  1  0.80022345  0.79252918  0.39494411  1
  Pd  Pd176  1  0.00453909  0.59492979  0.00748020  1
  Pd  Pd177  1  0.00051847  0.60471672  0.39490360  1
  Pd  Pd178  1  0.00767038  0.00650285  0.80435691  1
  Pd  Pd179  1  0.00036728  0.60076749  0.79467537  1
  Pd  Pd180  1  0.00554832  0.00912087  0.39523349  1
  Pd  Pd181  1  0.80538657  0.39869032  0.80230343  1
  Pd  Pd182  1  0.40314447  0.80398610  0.19186903  1
  Pd  Pd183  1  0.59920914  0.80866800  0.20264830  1
  Pd  Pd184  1  0.59423743  0.40046696  0.79325021  1
  Pd  Pd185  1  0.39528394  0.39388594  0.40121166  1
  Pd  Pd186  1  0.40520358  0.80174252  0.79471148  1
  Pd  Pd187  1  0.40060881  0.79732774  0.00696602  1
  Pd  Pd188  1  0.19328135  0.60935823  0.60634979  1
  Pd  Pd189  1  0.00381959  0.19249819  0.80440288  1
  Pd  Pd190  1  0.39118297  0.39645479  0.79790013  1
  Pd  Pd191  1  0.40564856  0.60121512  -0.00273408  1
  Pd  Pd192  1  0.19881020  0.79508777  0.80213187  1
  Pd  Pd193  1  0.19138888  0.80426044  0.40095716  1
  Pd  Pd194  1  -0.00497983  0.20240697  0.59476547  1
  Pd  Pd195  1  0.19174532  0.80097793  0.00827467  1
  Pd  Pd196  1  0.59882824  0.20736110  0.20859838  1
  Pd  Pd197  1  0.60364285  0.39021379  0.39706972  1
  Pd  Pd198  1  0.60592123  0.00823488  0.00131440  1
  Pd  Pd199  1  0.79877431  0.79375897  0.20890133  1
  Rh  Rh200  1  0.01322117  0.39332874  0.39308947  1
  Rh  Rh201  1  0.79813765  -0.00003980  0.00750571  1
  Rh  Rh202  1  0.60181436  0.19484713  0.80485182  1
  Rh  Rh203  1  0.40330051  0.39828335  0.60443335  1
  Rh  Rh204  1  0.80089122  0.20578477  -0.00142425  1
  Rh  Rh205  1  0.20041464  0.59390574  0.39900897  1
  Rh  Rh206  1  0.20351003  0.59361419  0.20854334  1
  Rh  Rh207  1  0.40877578  0.20336467  0.19688113  1
  Rh  Rh208  1  -0.00626287  -0.00819021  0.00350923  1
  Rh  Rh209  1  0.39333296  0.18966825  0.59313916  1
  Rh  Rh210  1  0.60895742  0.39308416  0.20299723  1
  Rh  Rh211  1  0.20194451  0.19584722  0.59977205  1
  Rh  Rh212  1  0.40281945  0.00680318  0.40279029  1
  Rh  Rh213  1  0.40835381  0.60889707  0.58737599  1
  Rh  Rh214  1  0.59342265  0.80922564  0.38851218  1
  Rh  Rh215  1  0.60487793  -0.00300053  0.20011579  1
  Rh  Rh216  1  0.60091363  0.00794591  0.39411660  1
  Rh  Rh217  1  0.39284166  0.19276233  0.80725124  1
  Rh  Rh218  1  0.59600047  0.19458398  -0.00083735  1
  Rh  Rh219  1  0.20068452  0.18876112  0.19043489  1
  Rh  Rh220  1  0.40084984  0.40385386  0.19845908  1
  Rh  Rh221  1  0.00355192  0.79814024  0.39627905  1
  Rh  Rh222  1  -0.00678919  0.40189541  0.80217894  1
  Rh  Rh223  1  0.20288498  0.40566370  0.79922846  1
  Rh  Rh224  1  0.40162853  0.59981391  0.20233109  1
  Rh  Rh225  1  0.39961481  0.00927291  -0.00483770  1
  Rh  Rh226  1  0.19952722  0.80791809  0.19508321  1
  Rh  Rh227  1  0.20502323  0.79987188  0.58965247  1
  Rh  Rh228  1  -0.00648496  0.79964519  0.81378252  1
  Rh  Rh229  1  0.20195943  0.39909493  0.59824516  1
  Rh  Rh230  1  -0.00477849  0.60043970  0.19945427  1
  Rh  Rh231  1  0.39588484  -0.00742605  0.19207019  1
  Rh  Rh232  1  0.79690199  0.00573538  0.20118827  1
  Rh  Rh233  1  0.60751067  0.61000629  0.19011162  1
  Rh  Rh234  1  0.00558755  0.00537823  0.20710219  1
  Rh  Rh235  1  0.40522013  0.80005625  0.40068371  1
  Rh  Rh236  1  0.80067714  0.19493264  0.39418129  1
  Rh  Rh237  1  0.80443791  0.19882609  0.20325369  1
  Rh  Rh238  1  -0.00769603  0.39603431  0.60747157  1
  Rh  Rh239  1  0.79862157  0.19643291  0.60561553  1
  Rh  Rh240  1  0.19295047  0.59145083  -0.00961014  1
  Rh  Rh241  1  -0.00552258  0.40287022  -0.00207821  1
  Rh  Rh242  1  0.79544933  0.59210112  0.01224865  1
  Rh  Rh243  1  0.00465045  0.40167969  0.20117766  1
  Rh  Rh244  1  0.79316462  0.40789753  0.40270193  1
  Rh  Rh245  1  -0.00111020  -0.00192401  0.59576499  1
  Rh  Rh246  1  -0.00630059  0.80262801  0.59691384  1
  Rh  Rh247  1  0.20144391  0.21275366  0.40953196  1
  Rh  Rh248  1  0.59842755  0.59982403  0.40119118  1
  Rh  Rh249  1  0.80053994  0.19700719  0.80717402  1
