# generated using pymatgen
data_ZrScNbPdRh
_symmetry_space_group_name_H-M   'P 1'
_cell_length_a   16.55149415
_cell_length_b   16.55366354
_cell_length_c   16.55706894
_cell_angle_alpha   89.99969319
_cell_angle_beta   90.03159962
_cell_angle_gamma   90.01474652
_symmetry_Int_Tables_number   1
_chemical_formula_structural   ZrScNbPdRh
_chemical_formula_sum   'Zr50 Sc50 Nb50 Pd50 Rh50'
_cell_volume   4536.43513170
_cell_formula_units_Z   50
loop_
 _symmetry_equiv_pos_site_id
 _symmetry_equiv_pos_as_xyz
  1  'x, y, z'
loop_
 _atom_site_type_symbol
 _atom_site_label
 _atom_site_symmetry_multiplicity
 _atom_site_fract_x
 _atom_site_fract_y
 _atom_site_fract_z
 _atom_site_occupancy
  Zr  Zr0  1  0.09657212  0.50450161  0.29512394  1
  Zr  Zr1  1  0.10041033  0.50361898  0.90556621  1
  Zr  Zr2  1  0.69730129  0.10459252  0.49720118  1
  Zr  Zr3  1  0.09687257  0.29767060  0.30416136  1
  Zr  Zr4  1  0.29737848  0.70274607  0.30446014  1
  Zr  Zr5  1  0.29721853  0.90469821  0.30121345  1
  Zr  Zr6  1  0.90908379  0.89551129  0.49781285  1
  Zr  Zr7  1  0.50974343  0.49147714  0.29415086  1
  Zr  Zr8  1  0.91269904  0.69783848  0.89099088  1
  Zr  Zr9  1  0.50669777  0.10145075  0.50436224  1
  Zr  Zr10  1  0.69675508  0.69593145  0.90339336  1
  Zr  Zr11  1  0.89757048  0.89956946  0.90196155  1
  Zr  Zr12  1  0.09337475  0.10141277  0.70365540  1
  Zr  Zr13  1  0.49919516  0.10308843  0.30570550  1
  Zr  Zr14  1  0.50313278  0.89843950  0.70132688  1
  Zr  Zr15  1  0.70146123  0.10074259  0.68856905  1
  Zr  Zr16  1  0.49788809  0.29565686  0.49210444  1
  Zr  Zr17  1  0.29656602  0.49422984  0.90048431  1
  Zr  Zr18  1  0.69851379  0.90033677  0.70385485  1
  Zr  Zr19  1  0.29844092  0.51059860  0.29579090  1
  Zr  Zr20  1  0.70974860  0.09793547  0.10856191  1
  Zr  Zr21  1  0.30834147  0.49731503  0.09735739  1
  Zr  Zr22  1  0.69965841  0.70700767  0.69630895  1
  Zr  Zr23  1  0.69889689  0.30932044  0.30353818  1
  Zr  Zr24  1  0.08931728  0.69405678  0.70890290  1
  Zr  Zr25  1  0.89194548  0.88459991  0.69561082  1
  Zr  Zr26  1  0.50202047  0.68616134  0.09679252  1
  Zr  Zr27  1  0.48863042  0.69464180  0.69107453  1
  Zr  Zr28  1  0.90421587  0.09750693  0.89834256  1
  Zr  Zr29  1  0.90211149  0.49918346  0.69853331  1
  Zr  Zr30  1  0.28809395  0.70006651  0.89205928  1
  Zr  Zr31  1  0.29670476  0.30154470  0.50165895  1
  Zr  Zr32  1  0.10397883  0.08967650  0.09749908  1
  Zr  Zr33  1  0.49822597  0.10450461  0.89807027  1
  Zr  Zr34  1  0.30344876  0.30310757  0.09904373  1
  Zr  Zr35  1  0.89175468  0.71345680  0.09358985  1
  Zr  Zr36  1  0.49423605  0.70310873  0.50431867  1
  Zr  Zr37  1  0.69789860  0.10222322  0.30291216  1
  Zr  Zr38  1  0.71051097  0.89411955  0.09695075  1
  Zr  Zr39  1  0.50194628  0.50069307  0.90596949  1
  Zr  Zr40  1  0.90281536  0.91260175  0.09662971  1
  Zr  Zr41  1  0.88284045  0.29531037  0.90430560  1
  Zr  Zr42  1  0.10097262  0.69676280  0.30223934  1
  Zr  Zr43  1  0.69270749  0.50486395  0.10725263  1
  Zr  Zr44  1  0.30125247  0.70303652  0.49253153  1
  Zr  Zr45  1  0.10025344  0.49217860  0.50007711  1
  Zr  Zr46  1  0.49471856  0.49649371  0.10211825  1
  Zr  Zr47  1  0.69838518  0.48298180  0.89661063  1
  Zr  Zr48  1  0.90232751  0.70444140  0.29831881  1
  Zr  Zr49  1  0.50423360  0.90228829  0.90355314  1
  Sc  Sc50  1  0.90148488  0.29256493  0.69180195  1
  Sc  Sc51  1  0.11335166  0.30269258  0.90713767  1
  Sc  Sc52  1  0.89495324  0.49899205  0.89395701  1
  Sc  Sc53  1  0.30480924  0.69688590  0.09300718  1
  Sc  Sc54  1  0.09796129  0.91458132  0.70155774  1
  Sc  Sc55  1  0.71686202  0.30401887  0.09793236  1
  Sc  Sc56  1  0.50977768  0.30511155  0.89039156  1
  Sc  Sc57  1  0.49968156  0.89970493  0.50049509  1
  Sc  Sc58  1  0.29775222  0.90058017  0.49449973  1
  Sc  Sc59  1  0.10289883  0.48940109  0.69649224  1
  Sc  Sc60  1  0.29781490  0.09919146  0.90399402  1
  Sc  Sc61  1  0.09592998  0.69238017  0.08653494  1
  Sc  Sc62  1  0.49999961  0.90771897  0.30447194  1
  Sc  Sc63  1  0.90364482  0.49740123  0.29430498  1
  Sc  Sc64  1  0.70814726  0.30328656  0.50087619  1
  Sc  Sc65  1  0.31044541  0.10451476  0.70025514  1
  Sc  Sc66  1  0.30244021  0.09025289  0.09964506  1
  Sc  Sc67  1  0.89979614  0.10566419  0.50146685  1
  Sc  Sc68  1  0.29879853  0.49982152  0.49336230  1
  Sc  Sc69  1  0.10138242  0.90711013  0.90001914  1
  Sc  Sc70  1  0.90160156  0.90599783  0.30133514  1
  Sc  Sc71  1  0.10042393  0.29631520  0.10318072  1
  Sc  Sc72  1  0.89778016  0.48773013  0.50236364  1
  Sc  Sc73  1  0.90124332  0.29817345  0.29425962  1
  Sc  Sc74  1  0.90017250  0.10399614  0.70286114  1
  Sc  Sc75  1  0.30093291  0.90667133  0.09506128  1
  Sc  Sc76  1  0.68303804  0.70160506  0.50079133  1
  Sc  Sc77  1  0.49951203  0.69624310  0.31040091  1
  Sc  Sc78  1  0.09624381  0.09825294  0.31051211  1
  Sc  Sc79  1  0.31347311  0.29749561  0.30933386  1
  Sc  Sc80  1  0.49826524  0.28697798  0.69846713  1
  Sc  Sc81  1  0.50265761  0.10375555  0.69235521  1
  Sc  Sc82  1  0.90720480  0.70378498  0.50571663  1
  Sc  Sc83  1  0.70280058  0.69838017  0.10386239  1
  Sc  Sc84  1  0.09331516  0.29953812  0.49940100  1
  Sc  Sc85  1  0.30715670  0.10195997  0.49841457  1
  Sc  Sc86  1  0.09522202  0.70362705  0.49058382  1
  Sc  Sc87  1  0.49758911  0.08798210  0.10428991  1
  Sc  Sc88  1  0.49742475  0.90004451  0.09118235  1
  Sc  Sc89  1  0.10006370  0.90810695  0.31122516  1
  Sc  Sc90  1  0.70067699  0.29902606  0.70458305  1
  Sc  Sc91  1  0.69766544  0.90149115  0.50858616  1
  Sc  Sc92  1  0.89820960  0.10186053  0.30078143  1
  Sc  Sc93  1  0.29398786  0.90302879  0.70726112  1
  Sc  Sc94  1  0.30304994  0.30189721  0.90102753  1
  Sc  Sc95  1  0.70658395  0.10078710  0.89304403  1
  Sc  Sc96  1  0.49154024  0.70318530  0.90446631  1
  Sc  Sc97  1  0.29868304  0.89602486  0.90395271  1
  Sc  Sc98  1  0.70239005  0.90922119  0.29923978  1
  Sc  Sc99  1  0.89982792  0.29976212  0.50012937  1
  Nb  Nb100  1  0.70508211  0.70050674  0.29451114  1
  Nb  Nb101  1  0.49809621  0.50467396  0.69753490  1
  Nb  Nb102  1  0.50775588  0.51007920  0.50853683  1
  Nb  Nb103  1  0.70206387  0.50439102  0.30378230  1
  Nb  Nb104  1  0.49511730  0.30643980  0.10957313  1
  Nb  Nb105  1  0.30178947  0.09685261  0.29431675  1
  Nb  Nb106  1  0.10318803  0.30078969  0.69879790  1
  Nb  Nb107  1  0.50242335  0.29854588  0.29555451  1
  Nb  Nb108  1  0.09455794  0.09583115  0.50701434  1
  Nb  Nb109  1  0.09687293  0.49320518  0.10406056  1
  Nb  Nb110  1  0.89733741  0.69439169  0.69886816  1
  Nb  Nb111  1  0.09982069  0.90459066  0.50253731  1
  Nb  Nb112  1  0.69942033  0.29683840  0.90377468  1
  Nb  Nb113  1  0.10347907  0.90390349  0.10562796  1
  Nb  Nb114  1  0.30080394  0.50100327  0.69689154  1
  Nb  Nb115  1  0.69533646  0.89676240  0.89823886  1
  Nb  Nb116  1  0.69889869  0.49968630  0.69754651  1
  Nb  Nb117  1  0.09913479  0.09648367  0.89448145  1
  Nb  Nb118  1  0.29639536  0.30468497  0.70003370  1
  Nb  Nb119  1  0.29574536  0.69722783  0.69638079  1
  Nb  Nb120  1  0.70195643  0.49951388  0.50111508  1
  Nb  Nb121  1  0.90147176  0.49177836  0.09928927  1
  Nb  Nb122  1  0.09882537  0.69632027  0.89833200  1
  Nb  Nb123  1  0.90132409  0.29403316  0.10013130  1
  Nb  Nb124  1  0.89988655  0.10709524  0.09946607  1
  Nb  Nb125  1  0.40043323  0.79833129  0.20145041  1
  Nb  Nb126  1  0.19821017  0.20136322  0.79463177  1
  Nb  Nb127  1  0.80164644  0.59481052  0.00084888  1
  Nb  Nb128  1  0.79655951  0.79351038  0.39881149  1
  Nb  Nb129  1  0.40373666  0.40516731  0.60196667  1
  Nb  Nb130  1  0.59646123  0.20748921  0.19675655  1
  Nb  Nb131  1  0.20575481  0.19693634  0.20642464  1
  Nb  Nb132  1  0.19669634  0.80205159  0.19698409  1
  Nb  Nb133  1  0.20075657  0.39756237  0.20159658  1
  Nb  Nb134  1  0.19574578  0.20033093  0.60405960  1
  Nb  Nb135  1  0.59806384  0.59474544  0.79390618  1
  Nb  Nb136  1  0.41139044  0.20542596  0.00530186  1
  Nb  Nb137  1  0.19614757  0.79641579  0.60224715  1
  Nb  Nb138  1  0.79387579  0.60093563  0.40161881  1
  Nb  Nb139  1  0.59642284  0.40837875  0.60088795  1
  Nb  Nb140  1  0.59893324  0.79723432  0.20213252  1
  Nb  Nb141  1  0.60139930  0.20383589  0.00731272  1
  Nb  Nb142  1  0.40547106  -0.00008177  0.80271450  1
  Nb  Nb143  1  -0.00584237  0.39452803  0.00269686  1
  Nb  Nb144  1  -0.00146309  0.19683393  0.00057731  1
  Nb  Nb145  1  0.20241739  0.60482561  0.60207949  1
  Nb  Nb146  1  0.40002364  0.40459320  0.78933324  1
  Nb  Nb147  1  0.79658655  0.60003659  0.59894605  1
  Nb  Nb148  1  0.00308480  0.39174148  0.80524089  1
  Nb  Nb149  1  0.00789645  0.80556378  0.19470506  1
  Pd  Pd150  1  0.40619096  0.59134764  0.40010980  1
  Pd  Pd151  1  0.00661716  0.21065547  0.81188853  1
  Pd  Pd152  1  0.20063820  0.40189810  0.39015455  1
  Pd  Pd153  1  0.39790513  0.80483863  0.80057171  1
  Pd  Pd154  1  0.79445507  0.00409540  -0.00606438  1
  Pd  Pd155  1  0.39600794  -0.00520867  0.60572262  1
  Pd  Pd156  1  0.00674089  0.80978366  0.79889128  1
  Pd  Pd157  1  0.19897100  0.60293066  0.18688391  1
  Pd  Pd158  1  0.80826077  0.59573246  0.19746629  1
  Pd  Pd159  1  0.60743409  0.19612712  0.80048238  1
  Pd  Pd160  1  0.20087199  0.00858459  0.40618402  1
  Pd  Pd161  1  -0.00749409  0.39846636  0.39635348  1
  Pd  Pd162  1  0.60283249  0.60058560  0.39639000  1
  Pd  Pd163  1  0.40009810  0.19339552  0.19578187  1
  Pd  Pd164  1  0.40125969  0.59711381  0.80555690  1
  Pd  Pd165  1  0.59801926  -0.00597496  0.19780585  1
  Pd  Pd166  1  0.00822570  0.19258240  0.19764220  1
  Pd  Pd167  1  -0.00692823  0.60946558  0.18919232  1
  Pd  Pd168  1  0.80632469  0.39098335  0.78903692  1
  Pd  Pd169  1  0.61046778  0.00799419  0.00000109  1
  Pd  Pd170  1  0.18872020  0.80489133  0.79334796  1
  Pd  Pd171  1  0.00976635  0.80763867  0.00034380  1
  Pd  Pd172  1  0.40212245  0.00210467  0.40381777  1
  Pd  Pd173  1  0.38786841  0.81093454  0.60210149  1
  Pd  Pd174  1  0.59954237  0.39108972  0.01082112  1
  Pd  Pd175  1  0.80252678  -0.00086369  0.79650798  1
  Pd  Pd176  1  0.59960426  0.39999518  0.40831513  1
  Pd  Pd177  1  0.19503671  0.80233290  0.00492103  1
  Pd  Pd178  1  0.20699990  0.00327557  0.59901433  1
  Pd  Pd179  1  0.60069217  0.79689047  0.00868415  1
  Pd  Pd180  1  -0.01203576  0.00179273  0.60438044  1
  Pd  Pd181  1  0.20326982  0.59684869  0.00531683  1
  Pd  Pd182  1  0.00135117  0.59540698  0.59447151  1
  Pd  Pd183  1  0.59738943  0.00863902  0.79742570  1
  Pd  Pd184  1  0.80632979  -0.00024679  0.59567427  1
  Pd  Pd185  1  -0.00974390  0.59160570  0.00188891  1
  Pd  Pd186  1  0.79337105  0.60084371  0.79910963  1
  Pd  Pd187  1  0.20218133  0.19402144  0.00209384  1
  Pd  Pd188  1  -0.00058441  0.00258583  0.20621001  1
  Pd  Pd189  1  0.80521340  0.20588181  0.39679206  1
  Pd  Pd190  1  0.19971340  0.19231314  0.40328325  1
  Pd  Pd191  1  0.40664249  0.40942807  0.40170286  1
  Pd  Pd192  1  0.59244423  0.78814695  0.80028678  1
  Pd  Pd193  1  0.80150394  -0.00671401  0.40653552  1
  Pd  Pd194  1  0.79908863  0.79575494  0.80714589  1
  Pd  Pd195  1  0.19405985  0.59090106  0.79295350  1
  Pd  Pd196  1  -0.01164305  0.59302033  0.40730164  1
  Pd  Pd197  1  0.60484906  0.80792717  0.39271674  1
  Pd  Pd198  1  0.80113177  0.40134565  0.20287760  1
  Pd  Pd199  1  0.01122963  0.80089199  0.60592971  1
  Rh  Rh200  1  0.00337552  0.00442950  -0.00182614  1
  Rh  Rh201  1  0.60807490  0.59489387  -0.00644618  1
  Rh  Rh202  1  0.80759633  0.00162931  0.20284837  1
  Rh  Rh203  1  -0.00335348  0.19798885  0.40393830  1
  Rh  Rh204  1  0.80359547  0.40656657  0.39487183  1
  Rh  Rh205  1  0.39312769  0.20739770  0.59651620  1
  Rh  Rh206  1  0.39753987  0.79663828  0.00496260  1
  Rh  Rh207  1  0.60659232  0.21182661  0.59515268  1
  Rh  Rh208  1  0.80274182  0.40695167  0.00426612  1
  Rh  Rh209  1  0.79562529  0.19994018  0.79504145  1
  Rh  Rh210  1  0.40688418  0.60484178  0.20633203  1
  Rh  Rh211  1  0.39171907  0.20184866  0.80841080  1
  Rh  Rh212  1  0.79496334  0.40203257  0.60237373  1
  Rh  Rh213  1  0.60120350  -0.00140804  0.40708239  1
  Rh  Rh214  1  0.39909769  0.00560448  -0.00853584  1
  Rh  Rh215  1  0.00490153  0.39433915  0.19514146  1
  Rh  Rh216  1  0.20036131  0.00130938  0.20546678  1
  Rh  Rh217  1  0.00323160  0.58766800  0.79982074  1
  Rh  Rh218  1  0.00563768  0.20049461  0.59430098  1
  Rh  Rh219  1  0.59379377  0.40258150  0.78841645  1
  Rh  Rh220  1  0.60264581  0.20556461  0.39551008  1
  Rh  Rh221  1  0.38996796  0.60438031  -0.01136618  1
  Rh  Rh222  1  0.60819563  0.59951939  0.60647797  1
  Rh  Rh223  1  -0.00087930  0.80636277  0.39177359  1
  Rh  Rh224  1  -0.00181221  0.39434118  0.60669932  1
  Rh  Rh225  1  0.19452433  0.40308708  0.01141151  1
  Rh  Rh226  1  0.40012806  -0.00993691  0.20175120  1
  Rh  Rh227  1  0.19104691  0.80527058  0.40305254  1
  Rh  Rh228  1  0.19886792  -0.00340440  -0.00576427  1
  Rh  Rh229  1  0.79766035  0.78951701  0.58845195  1
  Rh  Rh230  1  0.40952590  0.39050730  -0.01237362  1
  Rh  Rh231  1  -0.00195169  0.00545886  0.40780695  1
  Rh  Rh232  1  0.59583743  0.60639624  0.20869906  1
  Rh  Rh233  1  0.59967106  -0.00298931  0.59919664  1
  Rh  Rh234  1  0.40076041  0.19474802  0.40077187  1
  Rh  Rh235  1  0.79839415  0.20116640  0.59990418  1
  Rh  Rh236  1  0.40314536  0.80579503  0.39403110  1
  Rh  Rh237  1  0.20090765  0.39787752  0.79915627  1
  Rh  Rh238  1  0.79716993  0.19134323  0.00123791  1
  Rh  Rh239  1  0.19281485  0.59609463  0.41045399  1
  Rh  Rh240  1  0.79556690  0.20186333  0.20734062  1
  Rh  Rh241  1  0.20977989  0.01027115  0.80286592  1
  Rh  Rh242  1  0.80074840  0.81143570  0.20999064  1
  Rh  Rh243  1  0.38778335  0.59482783  0.59091720  1
  Rh  Rh244  1  0.60758810  0.39441653  0.19531744  1
  Rh  Rh245  1  0.20424994  0.40134693  0.59672634  1
  Rh  Rh246  1  0.79710374  0.79508029  -0.01315860  1
  Rh  Rh247  1  0.59479381  0.80433416  0.60118199  1
  Rh  Rh248  1  -0.01092846  -0.00731186  0.79628221  1
  Rh  Rh249  1  0.39151723  0.40268759  0.21237447  1
