# generated using pymatgen
data_ZrScNbPdRh
_symmetry_space_group_name_H-M   'P 1'
_cell_length_a   16.55269088
_cell_length_b   16.55249118
_cell_length_c   16.55484790
_cell_angle_alpha   90.02839158
_cell_angle_beta   90.00942367
_cell_angle_gamma   89.96058944
_symmetry_Int_Tables_number   1
_chemical_formula_structural   ZrScNbPdRh
_chemical_formula_sum   'Zr50 Sc50 Nb50 Pd50 Rh50'
_cell_volume   4535.83244441
_cell_formula_units_Z   50
loop_
 _symmetry_equiv_pos_site_id
 _symmetry_equiv_pos_as_xyz
  1  'x, y, z'
loop_
 _atom_site_type_symbol
 _atom_site_label
 _atom_site_symmetry_multiplicity
 _atom_site_fract_x
 _atom_site_fract_y
 _atom_site_fract_z
 _atom_site_occupancy
  Zr  Zr0  1  0.32316275  0.30179277  0.09770279  1
  Zr  Zr1  1  0.50239872  0.89905955  0.70537778  1
  Zr  Zr2  1  0.30095528  0.49485847  0.50376185  1
  Zr  Zr3  1  0.10313114  0.89361668  0.70752827  1
  Zr  Zr4  1  0.69371820  0.89911875  0.29636327  1
  Zr  Zr5  1  0.09110654  0.89998362  0.09959281  1
  Zr  Zr6  1  0.90213165  0.08981567  0.51153162  1
  Zr  Zr7  1  0.48628809  0.70030802  0.29836479  1
  Zr  Zr8  1  0.50097811  0.68932675  0.10191196  1
  Zr  Zr9  1  0.69873673  0.10510747  0.70879990  1
  Zr  Zr10  1  0.69626863  0.49822289  0.68997158  1
  Zr  Zr11  1  0.90137492  0.50253932  0.89383457  1
  Zr  Zr12  1  0.69858985  0.09963319  0.30035460  1
  Zr  Zr13  1  0.31538138  0.10181703  0.90083929  1
  Zr  Zr14  1  0.89837872  0.70837953  0.50090880  1
  Zr  Zr15  1  0.50424608  0.50706352  0.29621182  1
  Zr  Zr16  1  0.89425012  0.89446813  0.09858472  1
  Zr  Zr17  1  0.10034684  0.69178971  0.69907677  1
  Zr  Zr18  1  0.30179060  0.10755789  0.50350743  1
  Zr  Zr19  1  0.49358153  0.09647184  0.09451914  1
  Zr  Zr20  1  0.69345084  0.50557861  0.10120484  1
  Zr  Zr21  1  0.30058211  0.10029812  0.69521583  1
  Zr  Zr22  1  0.50326500  0.50163558  0.50853707  1
  Zr  Zr23  1  0.09744475  0.50198953  0.50415711  1
  Zr  Zr24  1  0.08590737  0.30024402  0.09740135  1
  Zr  Zr25  1  0.70561489  0.69665546  0.89501844  1
  Zr  Zr26  1  0.89677861  0.29799084  0.90626940  1
  Zr  Zr27  1  0.30373668  0.09936890  0.09863966  1
  Zr  Zr28  1  0.70523042  0.10516140  0.49714039  1
  Zr  Zr29  1  0.90232627  0.10626199  0.69858174  1
  Zr  Zr30  1  0.09104733  0.50685757  0.29625920  1
  Zr  Zr31  1  0.29592935  0.88746473  0.29865040  1
  Zr  Zr32  1  0.89879276  0.69328291  0.89748618  1
  Zr  Zr33  1  0.70473407  0.30599606  0.09315990  1
  Zr  Zr34  1  0.09961712  0.50291654  0.10139503  1
  Zr  Zr35  1  0.49954731  0.30611368  0.29361413  1
  Zr  Zr36  1  0.09706599  0.90368797  0.30367602  1
  Zr  Zr37  1  0.90206660  0.50429760  0.69250427  1
  Zr  Zr38  1  0.49555126  0.90039052  0.10564070  1
  Zr  Zr39  1  0.09966775  0.68893671  0.09672723  1
  Zr  Zr40  1  0.29858956  0.50520795  0.70258070  1
  Zr  Zr41  1  0.29428104  0.09915579  0.31077586  1
  Zr  Zr42  1  0.49376604  0.90437106  0.49940103  1
  Zr  Zr43  1  0.08917181  0.89867029  0.49779673  1
  Zr  Zr44  1  0.49727973  0.09963820  0.70486169  1
  Zr  Zr45  1  0.09824333  0.10193200  0.69511923  1
  Zr  Zr46  1  0.49677942  0.29817686  0.49892914  1
  Zr  Zr47  1  0.50445122  0.09882519  0.30733898  1
  Zr  Zr48  1  0.50107784  0.48435806  0.10185445  1
  Zr  Zr49  1  0.29511646  0.50241676  0.30295266  1
  Sc  Sc50  1  0.30236893  0.30693083  0.69994328  1
  Sc  Sc51  1  0.50493336  0.30533340  0.70366841  1
  Sc  Sc52  1  0.49232354  0.30196700  0.90119523  1
  Sc  Sc53  1  0.90013627  0.87792349  0.90143769  1
  Sc  Sc54  1  0.91042116  0.50888261  0.09835383  1
  Sc  Sc55  1  0.49405537  0.90274336  0.29896319  1
  Sc  Sc56  1  0.89675570  0.50121301  0.49717777  1
  Sc  Sc57  1  0.70928217  0.29916239  0.50193357  1
  Sc  Sc58  1  0.49511033  0.68830159  0.49618905  1
  Sc  Sc59  1  0.48855813  0.10030993  0.49811523  1
  Sc  Sc60  1  0.70832254  0.49793035  0.89890064  1
  Sc  Sc61  1  0.30504832  0.30257555  0.30973148  1
  Sc  Sc62  1  0.09993331  0.70129315  0.50076426  1
  Sc  Sc63  1  0.09293462  0.11004035  0.89911914  1
  Sc  Sc64  1  0.70348225  0.30522450  0.69750611  1
  Sc  Sc65  1  0.29997056  0.49983358  0.89484382  1
  Sc  Sc66  1  0.70572299  0.29925764  0.89257424  1
  Sc  Sc67  1  0.29882131  0.90526691  0.70365729  1
  Sc  Sc68  1  0.50360378  0.50649211  0.89737091  1
  Sc  Sc69  1  0.08482611  0.10315306  0.10414760  1
  Sc  Sc70  1  0.90422147  0.29840107  0.69885063  1
  Sc  Sc71  1  0.30230165  0.50621076  0.09104128  1
  Sc  Sc72  1  0.69156882  0.89517081  0.89416751  1
  Sc  Sc73  1  0.89445644  0.68889020  0.30306469  1
  Sc  Sc74  1  0.89681323  0.89687822  0.68795983  1
  Sc  Sc75  1  0.71824011  0.89868901  0.49972179  1
  Sc  Sc76  1  0.29481597  0.90635072  0.49481711  1
  Sc  Sc77  1  0.10115642  0.49819719  0.69955706  1
  Sc  Sc78  1  0.09374541  0.70218483  0.89369805  1
  Sc  Sc79  1  0.08725262  0.30578078  0.89519635  1
  Sc  Sc80  1  0.10861079  0.09639608  0.50362607  1
  Sc  Sc81  1  0.29576935  0.69684215  0.49532037  1
  Sc  Sc82  1  0.70923754  0.69284066  0.49389097  1
  Sc  Sc83  1  0.89744373  0.29865281  0.30600464  1
  Sc  Sc84  1  0.10672285  0.30046962  0.50959612  1
  Sc  Sc85  1  0.70569808  0.89606867  0.70152471  1
  Sc  Sc86  1  0.70839622  0.51006243  0.30300153  1
  Sc  Sc87  1  0.70525089  0.29030895  0.31160049  1
  Sc  Sc88  1  0.50472961  0.69176040  0.70844604  1
  Sc  Sc89  1  0.30505820  0.69382573  0.90352888  1
  Sc  Sc90  1  0.30163870  0.70115988  0.10500375  1
  Sc  Sc91  1  0.89830893  0.11376845  0.10136113  1
  Sc  Sc92  1  0.29261043  0.69894105  0.70127378  1
  Sc  Sc93  1  0.89934720  0.69986864  0.70516995  1
  Sc  Sc94  1  0.09319663  0.30923358  0.30426764  1
  Sc  Sc95  1  0.70246916  0.69810097  0.29504311  1
  Sc  Sc96  1  0.90329233  0.90026477  0.30934077  1
  Sc  Sc97  1  0.49714104  0.90235302  0.89602057  1
  Sc  Sc98  1  0.90378498  0.09608087  0.29661514  1
  Sc  Sc99  1  0.30485318  0.90218829  0.89473376  1
  Nb  Nb100  1  0.29039743  0.69955994  0.30001222  1
  Nb  Nb101  1  0.29860369  0.90634727  0.09609033  1
  Nb  Nb102  1  0.50631410  0.30030858  0.10106576  1
  Nb  Nb103  1  0.90138210  0.89889710  0.50064799  1
  Nb  Nb104  1  0.70249595  0.70673533  0.70319468  1
  Nb  Nb105  1  0.10363444  0.50952557  0.90412964  1
  Nb  Nb106  1  0.90500203  0.49485954  0.29668389  1
  Nb  Nb107  1  0.89732632  0.30725690  0.10026035  1
  Nb  Nb108  1  0.11185975  0.69941234  0.29254797  1
  Nb  Nb109  1  0.51184779  0.09962868  0.89301715  1
  Nb  Nb110  1  0.89855155  0.70817217  0.09208408  1
  Nb  Nb111  1  0.09871169  0.29073027  0.70279749  1
  Nb  Nb112  1  0.69662604  0.10069088  0.89765148  1
  Nb  Nb113  1  0.50667111  0.70699845  0.90220122  1
  Nb  Nb114  1  0.50357413  0.49795193  0.69341280  1
  Nb  Nb115  1  0.30446965  0.29494212  0.50202436  1
  Nb  Nb116  1  0.09733868  0.90009728  0.90041692  1
  Nb  Nb117  1  0.69597609  0.89665648  0.10126684  1
  Nb  Nb118  1  0.29715976  0.30149215  0.90292981  1
  Nb  Nb119  1  0.89455454  0.10347541  0.89807868  1
  Nb  Nb120  1  0.09752017  0.09803932  0.29951286  1
  Nb  Nb121  1  0.69847072  0.49457168  0.50331720  1
  Nb  Nb122  1  0.70667102  0.70864931  0.10017759  1
  Nb  Nb123  1  0.69422274  0.09456759  0.09775407  1
  Nb  Nb124  1  0.89591781  0.28905304  0.50291267  1
  Nb  Nb125  1  0.60264384  0.00058497  0.59956266  1
  Nb  Nb126  1  0.20231904  0.20587056  0.80335175  1
  Nb  Nb127  1  0.79518015  0.00133608  -0.00204644  1
  Nb  Nb128  1  0.59880324  0.19566454  0.59926567  1
  Nb  Nb129  1  0.59955310  0.20023918  0.19037221  1
  Nb  Nb130  1  0.80595558  0.00290658  0.80865268  1
  Nb  Nb131  1  0.19397443  0.00194764  0.00090205  1
  Nb  Nb132  1  0.20270207  0.20462192  0.00143163  1
  Nb  Nb133  1  -0.00503389  -0.00272417  0.80490063  1
  Nb  Nb134  1  0.40456046  0.79975278  0.60096667  1
  Nb  Nb135  1  0.79266873  -0.00147714  0.19168372  1
  Nb  Nb136  1  0.19922685  0.39443297  -0.00085386  1
  Nb  Nb137  1  0.80718917  0.40274995  0.19892934  1
  Nb  Nb138  1  0.00067147  0.79039964  0.20025125  1
  Nb  Nb139  1  -0.00873506  -0.00036597  -0.00803286  1
  Nb  Nb140  1  0.59935441  0.19546058  -0.00133237  1
  Nb  Nb141  1  0.59895225  0.79962465  0.59476563  1
  Nb  Nb142  1  0.59974024  0.79451026  0.00498934  1
  Nb  Nb143  1  0.00126286  0.19530934  0.40676310  1
  Nb  Nb144  1  0.19866946  0.80796322  0.00051437  1
  Nb  Nb145  1  0.59825661  0.79934892  0.40363066  1
  Nb  Nb146  1  0.60361993  0.40580156  0.40559711  1
  Nb  Nb147  1  0.20141876  0.39538775  0.19201029  1
  Nb  Nb148  1  0.19656762  0.00378279  0.19719460  1
  Nb  Nb149  1  0.19887926  0.20224017  0.19810421  1
  Pd  Pd150  1  0.79376972  0.19558204  0.00114656  1
  Pd  Pd151  1  0.20822456  0.80345828  0.59518542  1
  Pd  Pd152  1  0.40016163  0.80201343  0.00248811  1
  Pd  Pd153  1  0.59914860  -0.00633908  -0.00398284  1
  Pd  Pd154  1  0.40082371  0.39720935  0.60565896  1
  Pd  Pd155  1  0.60451253  -0.00782740  0.41076050  1
  Pd  Pd156  1  0.60099526  0.39396567  -0.01341758  1
  Pd  Pd157  1  0.40420153  0.59552598  -0.00378997  1
  Pd  Pd158  1  0.40785100  0.40716690  0.40025730  1
  Pd  Pd159  1  0.80174034  0.59676286  0.00629809  1
  Pd  Pd160  1  0.20672361  0.79345270  0.81082223  1
  Pd  Pd161  1  0.39981680  0.79659010  0.40725063  1
  Pd  Pd162  1  0.40481881  0.40630038  0.80151749  1
  Pd  Pd163  1  0.59301736  0.79274862  0.20293615  1
  Pd  Pd164  1  0.40147691  0.19644282  0.20956723  1
  Pd  Pd165  1  0.19753520  -0.00789645  0.59761399  1
  Pd  Pd166  1  -0.00402466  0.39195636  0.41233508  1
  Pd  Pd167  1  0.59975826  0.40132269  0.80497919  1
  Pd  Pd168  1  0.20052638  0.39713548  0.60513837  1
  Pd  Pd169  1  0.60556205  0.59504396  0.79882661  1
  Pd  Pd170  1  0.60682076  0.61187280  0.60169501  1
  Pd  Pd171  1  -0.00428613  0.39377981  0.59604009  1
  Pd  Pd172  1  -0.00084548  0.20796977  0.21230109  1
  Pd  Pd173  1  0.80806521  0.80335179  0.21131286  1
  Pd  Pd174  1  0.19312030  0.39680574  0.80443500  1
  Pd  Pd175  1  0.80531086  0.39991598  0.79100117  1
  Pd  Pd176  1  0.39647094  0.79248824  0.79397711  1
  Pd  Pd177  1  0.61901120  0.39441769  0.21394134  1
  Pd  Pd178  1  0.40338126  0.60141856  0.79969972  1
  Pd  Pd179  1  0.39241750  0.00056832  0.21010840  1
  Pd  Pd180  1  0.79879070  0.40432864  0.39758306  1
  Pd  Pd181  1  -0.00079685  0.60637803  0.40128604  1
  Pd  Pd182  1  0.19359339  0.01246522  0.81082176  1
  Pd  Pd183  1  0.80445985  0.00168120  0.39258497  1
  Pd  Pd184  1  0.19608683  0.80447418  0.19010896  1
  Pd  Pd185  1  0.19574058  0.60020371  0.40528225  1
  Pd  Pd186  1  0.19078617  0.20882166  0.39624153  1
  Pd  Pd187  1  0.19647128  0.39674067  0.39802716  1
  Pd  Pd188  1  -0.00027845  0.79613171  0.60663144  1
  Pd  Pd189  1  0.39854218  0.20682725  0.79670945  1
  Pd  Pd190  1  0.80654389  0.59605211  0.19282077  1
  Pd  Pd191  1  0.79502605  0.20118682  0.19919135  1
  Pd  Pd192  1  0.79967963  0.60478935  0.60020612  1
  Pd  Pd193  1  -0.00054489  0.40847932  -0.00455549  1
  Pd  Pd194  1  0.60494504  0.60283920  0.39808918  1
  Pd  Pd195  1  0.39261591  0.59446912  0.19813169  1
  Pd  Pd196  1  0.00182792  0.40559959  0.79647999  1
  Pd  Pd197  1  0.00162101  0.78819474  0.38964353  1
  Pd  Pd198  1  0.60336690  0.60417263  -0.00201595  1
  Pd  Pd199  1  0.39603594  0.60838441  0.60587682  1
  Rh  Rh200  1  0.80645516  0.39787392  0.59795249  1
  Rh  Rh201  1  0.59211246  0.21008267  0.40136256  1
  Rh  Rh202  1  0.40036572  0.40732838  -0.00754754  1
  Rh  Rh203  1  0.80194503  0.20294334  0.79786909  1
  Rh  Rh204  1  0.39501116  0.79852390  0.19597410  1
  Rh  Rh205  1  0.40084234  0.20013158  0.39722971  1
  Rh  Rh206  1  0.19744252  0.60163590  0.80391686  1
  Rh  Rh207  1  -0.00816761  -0.00652543  0.19348362  1
  Rh  Rh208  1  0.80446067  0.59346865  0.40335458  1
  Rh  Rh209  1  0.40163274  -0.00695217  0.60484552  1
  Rh  Rh210  1  0.00092989  0.19895420  0.80094102  1
  Rh  Rh211  1  0.20683882  0.59132639  0.19753634  1
  Rh  Rh212  1  0.81658595  0.18906680  0.40247251  1
  Rh  Rh213  1  0.60818053  -0.00572716  0.79354647  1
  Rh  Rh214  1  0.79607555  0.79431251  0.59946352  1
  Rh  Rh215  1  -0.00168656  0.60346996  -0.00642190  1
  Rh  Rh216  1  -0.00649681  0.61003085  0.20209728  1
  Rh  Rh217  1  0.20226986  0.60410264  -0.00535769  1
  Rh  Rh218  1  0.20652373  0.20732627  0.60847367  1
  Rh  Rh219  1  0.00402593  0.20370702  0.59080327  1
  Rh  Rh220  1  -0.00280839  0.80220753  0.79340395  1
  Rh  Rh221  1  0.60039440  0.38994237  0.59285655  1
  Rh  Rh222  1  0.00458930  0.59432606  0.79782890  1
  Rh  Rh223  1  0.20124668  0.59629541  0.59716973  1
  Rh  Rh224  1  -0.00445915  0.39632012  0.20225981  1
  Rh  Rh225  1  0.80304142  0.80386697  0.79853032  1
  Rh  Rh226  1  0.40452767  -0.00504945  -0.00838492  1
  Rh  Rh227  1  0.19753500  -0.00310774  0.39780357  1
  Rh  Rh228  1  0.19440138  0.79754160  0.40394167  1
  Rh  Rh229  1  0.80700750  0.41067734  0.00672469  1
  Rh  Rh230  1  0.79662897  0.80021644  0.39619482  1
  Rh  Rh231  1  0.79389292  0.59490875  0.78790860  1
  Rh  Rh232  1  0.60336440  0.60596000  0.20008079  1
  Rh  Rh233  1  0.00596806  -0.00859287  0.60713020  1
  Rh  Rh234  1  -0.00031357  0.00884337  0.40778128  1
  Rh  Rh235  1  0.00740398  0.79318140  0.00224017  1
  Rh  Rh236  1  -0.00193035  0.60332317  0.59684425  1
  Rh  Rh237  1  0.79420259  0.20156242  0.60543970  1
  Rh  Rh238  1  0.60031519  0.79582775  0.80109278  1
  Rh  Rh239  1  0.79428716  0.00149924  0.61073744  1
  Rh  Rh240  1  0.40954488  0.19996026  -0.00688267  1
  Rh  Rh241  1  -0.00405169  0.19768327  -0.00254106  1
  Rh  Rh242  1  0.39215620  0.40869960  0.20323322  1
  Rh  Rh243  1  0.40406281  0.20773068  0.60585975  1
  Rh  Rh244  1  0.59896297  0.21007612  0.80193917  1
  Rh  Rh245  1  0.39211134  -0.00145124  0.39578187  1
  Rh  Rh246  1  0.60079888  0.00543528  0.20073034  1
  Rh  Rh247  1  0.39099672  0.59627365  0.39843007  1
  Rh  Rh248  1  0.40134623  0.00070292  0.80019298  1
  Rh  Rh249  1  0.78643890  0.80206117  -0.00800295  1
