# generated using pymatgen
data_ZrScNbPdRh
_symmetry_space_group_name_H-M   'P 1'
_cell_length_a   16.56273414
_cell_length_b   16.55257980
_cell_length_c   16.56157563
_cell_angle_alpha   89.98523024
_cell_angle_beta   89.98765398
_cell_angle_gamma   90.01191807
_symmetry_Int_Tables_number   1
_chemical_formula_structural   ZrScNbPdRh
_chemical_formula_sum   'Zr50 Sc50 Nb50 Pd50 Rh50'
_cell_volume   4540.45461850
_cell_formula_units_Z   50
loop_
 _symmetry_equiv_pos_site_id
 _symmetry_equiv_pos_as_xyz
  1  'x, y, z'
loop_
 _atom_site_type_symbol
 _atom_site_label
 _atom_site_symmetry_multiplicity
 _atom_site_fract_x
 _atom_site_fract_y
 _atom_site_fract_z
 _atom_site_occupancy
  Zr  Zr0  1  0.49416176  0.09214351  0.69515003  1
  Zr  Zr1  1  0.30597158  0.88744661  0.49377858  1
  Zr  Zr2  1  0.48962305  0.88854856  0.89547881  1
  Zr  Zr3  1  0.29532044  0.70252082  0.10517219  1
  Zr  Zr4  1  0.30791475  0.90651940  0.70028862  1
  Zr  Zr5  1  0.50230631  0.90647192  0.50740042  1
  Zr  Zr6  1  0.70005181  0.28344878  0.70312290  1
  Zr  Zr7  1  0.30078708  0.49450079  0.50728039  1
  Zr  Zr8  1  0.29628495  0.29255802  0.30385453  1
  Zr  Zr9  1  0.09868454  0.50078202  0.90051793  1
  Zr  Zr10  1  0.10198241  0.70738191  0.10120434  1
  Zr  Zr11  1  0.10713331  0.10352277  0.89954712  1
  Zr  Zr12  1  0.29147055  0.30337504  0.10650352  1
  Zr  Zr13  1  0.70557940  0.50053229  0.49446367  1
  Zr  Zr14  1  0.49520229  0.30268408  0.30217931  1
  Zr  Zr15  1  0.89765610  0.89917543  0.90204802  1
  Zr  Zr16  1  0.89831168  0.90322531  0.09589307  1
  Zr  Zr17  1  0.10341427  0.70625562  0.49813001  1
  Zr  Zr18  1  0.50412934  0.70421804  0.71012033  1
  Zr  Zr19  1  0.70897111  0.30052805  0.30230878  1
  Zr  Zr20  1  0.31590021  0.70640396  0.90754461  1
  Zr  Zr21  1  0.90392380  0.70652821  0.89992819  1
  Zr  Zr22  1  0.90932083  0.49804625  0.31013453  1
  Zr  Zr23  1  0.09847360  0.29303118  0.10590925  1
  Zr  Zr24  1  0.70169006  0.90920546  0.89653365  1
  Zr  Zr25  1  0.89574991  0.50851108  0.50715367  1
  Zr  Zr26  1  0.30115713  0.09483242  0.30439960  1
  Zr  Zr27  1  0.90684063  0.09309357  0.49439944  1
  Zr  Zr28  1  0.09541615  0.50006491  0.70275313  1
  Zr  Zr29  1  0.50106950  0.29989407  0.09979266  1
  Zr  Zr30  1  0.30897835  0.50767663  0.89639765  1
  Zr  Zr31  1  0.49521489  0.90226219  0.31183879  1
  Zr  Zr32  1  0.90179328  0.89956923  0.69634057  1
  Zr  Zr33  1  0.11300342  0.09286203  0.69092831  1
  Zr  Zr34  1  0.69706372  0.70390045  0.70394078  1
  Zr  Zr35  1  0.49523394  0.29732193  0.69590161  1
  Zr  Zr36  1  0.29826788  0.50064813  0.29546954  1
  Zr  Zr37  1  0.71029685  0.50432585  0.69696432  1
  Zr  Zr38  1  0.10008191  0.69672362  0.30264434  1
  Zr  Zr39  1  0.28836212  0.89278423  0.09325140  1
  Zr  Zr40  1  0.90583529  0.50624049  0.89824221  1
  Zr  Zr41  1  0.48792722  0.10281431  0.90181728  1
  Zr  Zr42  1  0.89785814  0.89899426  0.49240735  1
  Zr  Zr43  1  0.09758214  0.90359940  0.09943825  1
  Zr  Zr44  1  0.09956752  0.10176593  0.09921714  1
  Zr  Zr45  1  0.70444282  0.29807721  0.50115293  1
  Zr  Zr46  1  0.09084695  0.50120637  0.49666495  1
  Zr  Zr47  1  0.70501920  0.50092485  0.30555029  1
  Zr  Zr48  1  0.70082148  0.89831097  0.50678784  1
  Zr  Zr49  1  0.11369247  0.30140846  0.70240824  1
  Sc  Sc50  1  0.90043350  0.29568661  0.89844719  1
  Sc  Sc51  1  0.90039940  0.69571426  0.09213431  1
  Sc  Sc52  1  0.50151201  0.90289853  0.10400545  1
  Sc  Sc53  1  0.69511005  0.69183810  0.30218182  1
  Sc  Sc54  1  0.50690940  0.69933701  0.29857947  1
  Sc  Sc55  1  0.10473729  0.29518438  0.90368567  1
  Sc  Sc56  1  0.70126482  0.50422327  0.89619150  1
  Sc  Sc57  1  0.09774121  0.90183903  0.29609600  1
  Sc  Sc58  1  0.10214667  0.29349460  0.49328451  1
  Sc  Sc59  1  0.09464923  0.89192377  0.90350575  1
  Sc  Sc60  1  0.70069691  0.10619245  0.11796616  1
  Sc  Sc61  1  0.89670823  0.50231736  0.09965276  1
  Sc  Sc62  1  0.90546320  0.68848251  0.70055824  1
  Sc  Sc63  1  0.31261663  0.70345245  0.68497099  1
  Sc  Sc64  1  0.10232600  0.50181856  0.10588699  1
  Sc  Sc65  1  0.89527091  0.09751927  0.30102887  1
  Sc  Sc66  1  0.69437286  0.90485674  0.30877505  1
  Sc  Sc67  1  0.50324735  0.70551304  0.10331635  1
  Sc  Sc68  1  0.49651177  0.30405510  0.88571376  1
  Sc  Sc69  1  0.48929034  0.29819988  0.49949683  1
  Sc  Sc70  1  0.89784974  0.29469382  0.49200630  1
  Sc  Sc71  1  0.49901143  0.50406991  0.11424072  1
  Sc  Sc72  1  0.90211883  0.90555290  0.29945576  1
  Sc  Sc73  1  0.29491698  0.50521969  0.09985368  1
  Sc  Sc74  1  0.89353683  0.09649685  0.90052052  1
  Sc  Sc75  1  0.88581113  0.10013568  0.69856470  1
  Sc  Sc76  1  0.90296287  0.09959767  0.10502725  1
  Sc  Sc77  1  0.50612829  0.50106246  0.30367116  1
  Sc  Sc78  1  0.70633637  0.30729078  0.11027438  1
  Sc  Sc79  1  0.10143475  0.10311345  0.30460172  1
  Sc  Sc80  1  0.70818002  0.09915216  0.50547237  1
  Sc  Sc81  1  0.48736364  0.50198398  0.71014716  1
  Sc  Sc82  1  0.50347595  0.08799971  0.29549800  1
  Sc  Sc83  1  0.69587914  0.70645540  0.89992135  1
  Sc  Sc84  1  0.29791987  0.29505938  0.89219034  1
  Sc  Sc85  1  0.70772425  0.50465827  0.10732399  1
  Sc  Sc86  1  0.30466681  0.29907324  0.49971726  1
  Sc  Sc87  1  0.90666283  0.29525107  0.30075734  1
  Sc  Sc88  1  0.10765169  0.89929203  0.69254100  1
  Sc  Sc89  1  0.89511864  0.29357215  0.69842258  1
  Sc  Sc90  1  0.08847925  0.69959703  0.90104919  1
  Sc  Sc91  1  0.90537884  0.70510630  0.30647439  1
  Sc  Sc92  1  0.48728713  0.70465245  0.51100125  1
  Sc  Sc93  1  0.71265012  0.69695570  0.49662707  1
  Sc  Sc94  1  0.29794144  0.10416810  0.49726503  1
  Sc  Sc95  1  0.29685913  0.09136322  0.09208835  1
  Sc  Sc96  1  0.49212080  0.10230381  0.50223299  1
  Sc  Sc97  1  0.30000648  0.08880481  0.89309067  1
  Sc  Sc98  1  0.49443737  0.49453303  0.49814502  1
  Sc  Sc99  1  0.69876456  0.89591409  0.09025919  1
  Nb  Nb100  1  0.29916335  0.10247903  0.69868148  1
  Nb  Nb101  1  0.69879203  0.70155382  0.10292310  1
  Nb  Nb102  1  0.69039560  0.90460944  0.70007147  1
  Nb  Nb103  1  0.09589549  0.09470619  0.49820139  1
  Nb  Nb104  1  0.69774790  0.09229404  0.70979401  1
  Nb  Nb105  1  0.29972337  0.31034229  0.69223679  1
  Nb  Nb106  1  0.50156829  0.10399357  0.09707760  1
  Nb  Nb107  1  0.70057129  0.10502502  0.88988825  1
  Nb  Nb108  1  0.10235231  0.30328721  0.29742567  1
  Nb  Nb109  1  0.30465308  0.89944972  0.30015622  1
  Nb  Nb110  1  0.10232386  0.70286274  0.69875848  1
  Nb  Nb111  1  0.90280063  0.29326265  0.09356088  1
  Nb  Nb112  1  0.49785150  0.50577460  0.89929391  1
  Nb  Nb113  1  0.09465491  0.49341855  0.30365274  1
  Nb  Nb114  1  0.50060032  0.69138514  0.89540913  1
  Nb  Nb115  1  0.69753279  0.30026226  0.89652182  1
  Nb  Nb116  1  0.29734451  0.70036348  0.49789009  1
  Nb  Nb117  1  0.70333816  0.10579358  0.30407497  1
  Nb  Nb118  1  0.50803786  0.89911152  0.69643879  1
  Nb  Nb119  1  0.90323546  0.49759726  0.70057312  1
  Nb  Nb120  1  0.29512023  0.70937066  0.30943318  1
  Nb  Nb121  1  0.90702789  0.70156460  0.49965018  1
  Nb  Nb122  1  0.29942442  0.89299993  0.90140518  1
  Nb  Nb123  1  0.29423871  0.49534737  0.69614358  1
  Nb  Nb124  1  0.09150622  0.90943894  0.50383606  1
  Nb  Nb125  1  0.20512596  0.79410323  0.79819338  1
  Nb  Nb126  1  0.39180080  0.80367174  0.20812634  1
  Nb  Nb127  1  0.59536897  0.59865267  -0.00161972  1
  Nb  Nb128  1  0.60392638  0.19878725  0.39543709  1
  Nb  Nb129  1  0.79837317  0.80656187  0.79601101  1
  Nb  Nb130  1  0.20417145  0.60715388  0.79290509  1
  Nb  Nb131  1  0.79479984  0.79700974  0.19587985  1
  Nb  Nb132  1  0.60069167  0.59448397  0.60302532  1
  Nb  Nb133  1  0.40510781  0.40355414  -0.00178184  1
  Nb  Nb134  1  0.40103582  0.19448087  0.19530126  1
  Nb  Nb135  1  0.20019589  0.60113027  0.60135309  1
  Nb  Nb136  1  -0.00234590  0.39594878  0.60278636  1
  Nb  Nb137  1  0.80124327  0.39930532  0.79873809  1
  Nb  Nb138  1  0.79048100  0.20282303  -0.00190686  1
  Nb  Nb139  1  0.59716703  0.40280066  -0.00431527  1
  Nb  Nb140  1  0.60375680  0.20270634  -0.00369848  1
  Nb  Nb141  1  0.60355145  0.40165628  0.60499212  1
  Nb  Nb142  1  0.19498157  0.40143129  0.39331859  1
  Nb  Nb143  1  -0.00083049  0.39400279  0.00354539  1
  Nb  Nb144  1  0.00575705  0.19172223  0.79277567  1
  Nb  Nb145  1  0.38977143  0.60668819  0.40079866  1
  Nb  Nb146  1  0.00209864  0.00318914  0.79506300  1
  Nb  Nb147  1  0.59784299  0.01465435  -0.00317025  1
  Nb  Nb148  1  0.00510074  0.19519035  0.60155773  1
  Nb  Nb149  1  0.00156417  0.79894887  0.59429888  1
  Pd  Pd150  1  0.00252529  0.00604791  -0.00814330  1
  Pd  Pd151  1  0.40203298  -0.00879523  0.00350505  1
  Pd  Pd152  1  0.59847786  0.19670740  0.59206647  1
  Pd  Pd153  1  0.60597673  0.40834836  0.79639585  1
  Pd  Pd154  1  0.58651306  0.00042826  0.80699925  1
  Pd  Pd155  1  0.19011496  0.81276574  0.39697159  1
  Pd  Pd156  1  0.19555777  0.60118712  0.20479938  1
  Pd  Pd157  1  0.79784633  0.00118980  0.60062549  1
  Pd  Pd158  1  0.81328304  0.39823175  0.20538038  1
  Pd  Pd159  1  0.79238625  -0.00875131  0.20095471  1
  Pd  Pd160  1  -0.00486776  0.39945493  0.19113097  1
  Pd  Pd161  1  0.59773466  0.39123855  0.40910150  1
  Pd  Pd162  1  0.20300448  0.59235728  0.40503122  1
  Pd  Pd163  1  0.80217984  0.39246614  0.60494203  1
  Pd  Pd164  1  0.39707018  0.39776842  0.19756466  1
  Pd  Pd165  1  0.59491528  0.79892384  -0.00472024  1
  Pd  Pd166  1  0.60166705  0.80738908  0.20547049  1
  Pd  Pd167  1  0.39077369  0.20112130  0.79125905  1
  Pd  Pd168  1  0.59074465  0.19331574  0.80114300  1
  Pd  Pd169  1  0.78732647  0.01563676  0.01005180  1
  Pd  Pd170  1  0.20115724  0.40109983  -0.00311556  1
  Pd  Pd171  1  0.80681778  0.79232504  0.60714384  1
  Pd  Pd172  1  -0.00294039  0.60219024  0.19827531  1
  Pd  Pd173  1  0.20610557  0.40585831  0.80895587  1
  Pd  Pd174  1  0.59536796  0.20192675  0.20529601  1
  Pd  Pd175  1  -0.00634195  0.38718386  0.80008059  1
  Pd  Pd176  1  0.80726272  0.60950077  0.20821375  1
  Pd  Pd177  1  0.21128389  0.19819424  -0.00081211  1
  Pd  Pd178  1  0.19519509  -0.01324961  0.80670150  1
  Pd  Pd179  1  0.20210883  0.20304342  0.59162533  1
  Pd  Pd180  1  0.60685806  -0.00515798  0.19535123  1
  Pd  Pd181  1  0.58663652  0.60751067  0.41473444  1
  Pd  Pd182  1  -0.01061111  0.79999230  0.19712194  1
  Pd  Pd183  1  0.80249363  0.60443170  0.80454115  1
  Pd  Pd184  1  0.59828557  0.79174577  0.40964845  1
  Pd  Pd185  1  0.39894990  0.61147219  0.20880636  1
  Pd  Pd186  1  0.19875100  -0.00574121  0.40519715  1
  Pd  Pd187  1  0.80103670  0.39521804  -0.00683564  1
  Pd  Pd188  1  0.39564388  0.20929582  0.00297205  1
  Pd  Pd189  1  0.19582061  0.60758784  -0.00813253  1
  Pd  Pd190  1  -0.00286599  0.19330191  0.20839720  1
  Pd  Pd191  1  0.60389657  0.01175009  0.41041262  1
  Pd  Pd192  1  0.79050843  0.60607059  -0.00475447  1
  Pd  Pd193  1  0.79627648  0.79894297  0.38831378  1
  Pd  Pd194  1  0.60248978  0.78969956  0.59214179  1
  Pd  Pd195  1  0.19850742  0.00185359  0.20167735  1
  Pd  Pd196  1  0.60495822  0.40633273  0.19806131  1
  Pd  Pd197  1  0.39656360  -0.00177709  0.19151898  1
  Pd  Pd198  1  0.40868057  0.59776069  0.01413629  1
  Pd  Pd199  1  0.21330321  -0.00584853  0.58619689  1
  Rh  Rh200  1  0.19600301  -0.00510447  -0.00710305  1
  Rh  Rh201  1  0.60553654  0.59728066  0.19366671  1
  Rh  Rh202  1  0.39228025  0.39812690  0.80133985  1
  Rh  Rh203  1  0.00339061  0.00523383  0.20174568  1
  Rh  Rh204  1  0.20551760  0.18963693  0.20107634  1
  Rh  Rh205  1  0.19539414  0.40453851  0.20546099  1
  Rh  Rh206  1  -0.00159321  0.60603101  0.39979348  1
  Rh  Rh207  1  0.41146069  0.18959439  0.38781740  1
  Rh  Rh208  1  0.40716052  0.80211078  0.01401490  1
  Rh  Rh209  1  0.39615733  0.79930075  0.79129605  1
  Rh  Rh210  1  0.19385619  0.79422703  -0.01231397  1
  Rh  Rh211  1  0.80062681  0.79467665  -0.00076373  1
  Rh  Rh212  1  0.80558852  0.19365552  0.59590331  1
  Rh  Rh213  1  0.00344453  -0.00054564  0.39145626  1
  Rh  Rh214  1  0.19056820  0.40210511  0.58884494  1
  Rh  Rh215  1  0.81011952  0.60406621  0.39527624  1
  Rh  Rh216  1  0.79985391  0.60828292  0.60095587  1
  Rh  Rh217  1  0.79855670  0.19602432  0.40054702  1
  Rh  Rh218  1  0.00235832  0.80725686  0.78724780  1
  Rh  Rh219  1  0.00465779  0.59060746  0.00707883  1
  Rh  Rh220  1  0.60363337  0.00818088  0.59995040  1
  Rh  Rh221  1  0.19546866  0.20251746  0.40010955  1
  Rh  Rh222  1  0.80774439  0.20269626  0.19713261  1
  Rh  Rh223  1  0.39715167  0.00228430  0.40810937  1
  Rh  Rh224  1  0.38993868  0.19996937  0.60544153  1
  Rh  Rh225  1  -0.00269378  0.00091992  0.60474523  1
  Rh  Rh226  1  -0.00780052  0.20071508  -0.00904928  1
  Rh  Rh227  1  0.00405150  0.60294578  0.79941020  1
  Rh  Rh228  1  0.40832679  0.40065097  0.60524397  1
  Rh  Rh229  1  0.79603187  -0.00121129  0.39900759  1
  Rh  Rh230  1  0.39479547  -0.00106269  0.59587171  1
  Rh  Rh231  1  0.80573828  0.20258536  0.80548752  1
  Rh  Rh232  1  0.40819421  0.79200039  0.39472117  1
  Rh  Rh233  1  0.39063021  0.40909654  0.39590351  1
  Rh  Rh234  1  0.39984941  0.59349463  0.59681410  1
  Rh  Rh235  1  0.40577179  0.80936637  0.60491960  1
  Rh  Rh236  1  0.20533299  0.19854898  0.79433277  1
  Rh  Rh237  1  0.60064938  0.59502460  0.80010641  1
  Rh  Rh238  1  0.00421883  0.19725748  0.40053531  1
  Rh  Rh239  1  0.19656432  0.79903636  0.60189777  1
  Rh  Rh240  1  0.80935314  0.40012711  0.39723975  1
  Rh  Rh241  1  0.60458657  0.80786451  0.80618804  1
  Rh  Rh242  1  0.40178994  -0.00394317  0.79847391  1
  Rh  Rh243  1  0.00248044  0.39104972  0.40759476  1
  Rh  Rh244  1  -0.00138137  0.80026681  0.01060548  1
  Rh  Rh245  1  0.00426965  0.60156361  0.60041636  1
  Rh  Rh246  1  0.80460804  -0.00689055  0.79351479  1
  Rh  Rh247  1  0.39187365  0.60601602  0.79133453  1
  Rh  Rh248  1  0.20216716  0.80356659  0.20875062  1
  Rh  Rh249  1  0.00514586  0.80721697  0.40446352  1
