# generated using pymatgen
data_ZrScNbPdRh
_symmetry_space_group_name_H-M   'P 1'
_cell_length_a   16.55821597
_cell_length_b   16.56071039
_cell_length_c   16.56492356
_cell_angle_alpha   89.99086071
_cell_angle_beta   90.02915457
_cell_angle_gamma   89.98659244
_symmetry_Int_Tables_number   1
_chemical_formula_structural   ZrScNbPdRh
_chemical_formula_sum   'Zr50 Sc50 Nb50 Pd50 Rh50'
_cell_volume   4542.36331512
_cell_formula_units_Z   50
loop_
 _symmetry_equiv_pos_site_id
 _symmetry_equiv_pos_as_xyz
  1  'x, y, z'
loop_
 _atom_site_type_symbol
 _atom_site_label
 _atom_site_symmetry_multiplicity
 _atom_site_fract_x
 _atom_site_fract_y
 _atom_site_fract_z
 _atom_site_occupancy
  Zr  Zr0  1  0.69955318  0.49339624  0.89738208  1
  Zr  Zr1  1  0.70833586  0.90195189  0.90846092  1
  Zr  Zr2  1  0.29190718  0.69785808  0.30006589  1
  Zr  Zr3  1  0.49906611  0.10027611  0.29156527  1
  Zr  Zr4  1  0.30203197  0.50155830  0.69729567  1
  Zr  Zr5  1  0.89640459  0.50071621  0.69491182  1
  Zr  Zr6  1  0.49926881  0.69927900  0.50404872  1
  Zr  Zr7  1  0.70413424  0.29890100  0.30324874  1
  Zr  Zr8  1  0.49383191  0.10222984  0.09511613  1
  Zr  Zr9  1  0.30908423  0.50079565  0.50182263  1
  Zr  Zr10  1  0.90418026  0.29799036  0.48214189  1
  Zr  Zr11  1  0.30189768  0.70844688  0.69114659  1
  Zr  Zr12  1  0.48906065  0.90135287  0.90111733  1
  Zr  Zr13  1  0.50636503  0.49703311  0.89723325  1
  Zr  Zr14  1  0.30076346  0.29689800  0.31054712  1
  Zr  Zr15  1  0.69845413  0.89814976  0.30687580  1
  Zr  Zr16  1  0.69895591  0.70610013  0.29707433  1
  Zr  Zr17  1  0.50106363  0.29077856  0.69361880  1
  Zr  Zr18  1  0.50002322  0.49775972  0.69631567  1
  Zr  Zr19  1  0.89775335  0.10606481  0.30445084  1
  Zr  Zr20  1  0.90576602  0.09766039  0.89772110  1
  Zr  Zr21  1  0.10515245  0.49415111  0.49360420  1
  Zr  Zr22  1  0.90938753  0.10733525  0.10606308  1
  Zr  Zr23  1  0.10036253  0.49910486  0.08998660  1
  Zr  Zr24  1  0.89310838  0.49311683  0.30476298  1
  Zr  Zr25  1  0.89881670  0.71365666  0.89417631  1
  Zr  Zr26  1  0.49076681  0.30554125  0.49853221  1
  Zr  Zr27  1  0.09235867  0.90164304  0.89690951  1
  Zr  Zr28  1  0.89376044  0.29636270  0.29384743  1
  Zr  Zr29  1  0.10316974  0.90646837  0.50227093  1
  Zr  Zr30  1  0.50597180  0.49749275  0.09821805  1
  Zr  Zr31  1  0.69023063  0.29567690  0.50663149  1
  Zr  Zr32  1  0.50191138  0.29771040  0.10338579  1
  Zr  Zr33  1  0.10946529  0.29261352  0.69731383  1
  Zr  Zr34  1  0.89363466  0.50677149  0.50322042  1
  Zr  Zr35  1  0.10711196  0.50357651  0.29883414  1
  Zr  Zr36  1  0.50347431  0.69869898  0.30768058  1
  Zr  Zr37  1  0.90027688  0.69939089  0.69472996  1
  Zr  Zr38  1  0.10166127  0.10496684  0.50418204  1
  Zr  Zr39  1  0.90286767  0.70318482  0.30425118  1
  Zr  Zr40  1  0.90530168  0.90063802  0.89797780  1
  Zr  Zr41  1  0.50058776  0.50135208  0.49924199  1
  Zr  Zr42  1  0.10811142  0.09918546  0.09695938  1
  Zr  Zr43  1  0.09609012  0.70503672  0.49646747  1
  Zr  Zr44  1  0.50670532  0.90347955  0.30096092  1
  Zr  Zr45  1  0.09829194  0.30244061  0.32007711  1
  Zr  Zr46  1  0.51111166  0.90288959  0.50408326  1
  Zr  Zr47  1  0.69583744  0.88973132  0.11516565  1
  Zr  Zr48  1  0.09862189  0.29669152  0.08740702  1
  Zr  Zr49  1  0.10169901  0.10081373  0.29474447  1
  Sc  Sc50  1  0.10248761  0.49395540  0.90574864  1
  Sc  Sc51  1  0.50069790  0.90418570  0.10286874  1
  Sc  Sc52  1  0.89657253  0.89569234  0.29882450  1
  Sc  Sc53  1  0.89444442  0.90516447  0.49670710  1
  Sc  Sc54  1  0.89524116  0.09623577  0.50239279  1
  Sc  Sc55  1  0.09503993  0.09776433  0.69383517  1
  Sc  Sc56  1  0.09822463  0.70888136  0.68968754  1
  Sc  Sc57  1  0.30784750  0.70811150  0.90970430  1
  Sc  Sc58  1  0.29735924  0.51095400  0.09749641  1
  Sc  Sc59  1  0.70138240  0.08463728  0.09797165  1
  Sc  Sc60  1  0.10627757  0.50310630  0.69026822  1
  Sc  Sc61  1  0.10445513  0.70627832  0.29753356  1
  Sc  Sc62  1  0.89748340  0.70040689  0.09387565  1
  Sc  Sc63  1  0.30025039  0.09432019  0.29875915  1
  Sc  Sc64  1  0.70321444  0.48463572  0.70224541  1
  Sc  Sc65  1  0.69789501  0.31393278  0.10432214  1
  Sc  Sc66  1  0.29640289  0.50211975  0.90663854  1
  Sc  Sc67  1  0.10305776  0.89909474  0.10082371  1
  Sc  Sc68  1  0.29900794  0.50610053  0.30782099  1
  Sc  Sc69  1  0.89945971  0.09989688  0.69616187  1
  Sc  Sc70  1  0.50482304  0.29525423  0.30576701  1
  Sc  Sc71  1  0.70482464  0.09012900  0.50749961  1
  Sc  Sc72  1  0.10533554  0.89321643  0.29447940  1
  Sc  Sc73  1  0.30194553  0.89844700  0.90255093  1
  Sc  Sc74  1  0.90404233  0.29862932  0.89773839  1
  Sc  Sc75  1  0.49473445  0.09820506  0.89962576  1
  Sc  Sc76  1  0.29671315  0.90321207  0.09778135  1
  Sc  Sc77  1  0.29569385  0.28986206  0.89350178  1
  Sc  Sc78  1  0.70255628  0.09826057  0.30192417  1
  Sc  Sc79  1  0.89967854  0.49568646  0.90851055  1
  Sc  Sc80  1  0.89638027  0.69651276  0.50130884  1
  Sc  Sc81  1  0.30682840  0.10154853  0.90274196  1
  Sc  Sc82  1  0.69493762  0.10286715  0.90192921  1
  Sc  Sc83  1  0.68619304  0.91448699  0.69266011  1
  Sc  Sc84  1  0.69990067  0.50661734  0.29759634  1
  Sc  Sc85  1  0.09340676  0.70968122  0.90852714  1
  Sc  Sc86  1  0.29715528  0.70148089  0.10001687  1
  Sc  Sc87  1  0.88634450  0.29483986  0.70330073  1
  Sc  Sc88  1  0.51010542  0.29322329  0.90491443  1
  Sc  Sc89  1  0.10478827  0.29611390  0.89958799  1
  Sc  Sc90  1  0.70272670  0.30052505  0.89021884  1
  Sc  Sc91  1  0.49707339  0.50218575  0.30793821  1
  Sc  Sc92  1  0.90550368  0.90253983  0.70022225  1
  Sc  Sc93  1  0.50219868  0.10613755  0.50190237  1
  Sc  Sc94  1  0.29409751  0.28603946  0.08988156  1
  Sc  Sc95  1  0.48981765  0.69663995  0.09931002  1
  Sc  Sc96  1  0.30078812  0.29674635  0.69900678  1
  Sc  Sc97  1  0.09929578  0.89949670  0.69261654  1
  Sc  Sc98  1  0.30195478  0.10879272  0.70809349  1
  Sc  Sc99  1  0.89441368  0.90345646  0.09772890  1
  Nb  Nb100  1  0.49283205  0.90429305  0.70358140  1
  Nb  Nb101  1  0.70104113  0.70319960  0.89701042  1
  Nb  Nb102  1  0.50014841  0.70342307  0.70242511  1
  Nb  Nb103  1  0.70220435  0.51201857  0.50375819  1
  Nb  Nb104  1  0.69679065  0.69942367  0.49968414  1
  Nb  Nb105  1  0.50205377  0.08965872  0.70477406  1
  Nb  Nb106  1  0.69820071  0.70105724  0.70425168  1
  Nb  Nb107  1  0.29831608  0.09956883  0.09877528  1
  Nb  Nb108  1  0.09914727  0.69783859  0.10702342  1
  Nb  Nb109  1  0.29408026  0.09129880  0.50429765  1
  Nb  Nb110  1  0.30198524  0.89910871  0.30282001  1
  Nb  Nb111  1  0.69738291  0.69628774  0.09991030  1
  Nb  Nb112  1  0.70071068  0.89994475  0.50094602  1
  Nb  Nb113  1  0.29718914  0.90695039  0.50319305  1
  Nb  Nb114  1  0.50170791  0.69852011  0.90110589  1
  Nb  Nb115  1  0.89778348  0.49114297  0.10157474  1
  Nb  Nb116  1  0.29443640  0.29349737  0.49924942  1
  Nb  Nb117  1  0.70110822  0.10724449  0.70031095  1
  Nb  Nb118  1  0.29781545  0.90259882  0.70065132  1
  Nb  Nb119  1  0.70030431  0.28938999  0.70385507  1
  Nb  Nb120  1  0.09711728  0.09682896  0.89513419  1
  Nb  Nb121  1  0.70811625  0.50672091  0.09712814  1
  Nb  Nb122  1  0.10421516  0.29703056  0.49964183  1
  Nb  Nb123  1  0.30249168  0.70128283  0.49875673  1
  Nb  Nb124  1  0.90181564  0.30345954  0.09797261  1
  Nb  Nb125  1  0.40159829  0.60283755  0.79808897  1
  Nb  Nb126  1  0.00128391  0.40053483  0.19665468  1
  Nb  Nb127  1  0.39837671  -0.00279722  0.60591813  1
  Nb  Nb128  1  0.78699001  0.80144360  0.59924391  1
  Nb  Nb129  1  0.20066950  0.60759240  0.79914641  1
  Nb  Nb130  1  0.40186236  0.39641816  0.00111614  1
  Nb  Nb131  1  0.60080155  0.79186558  -0.00440123  1
  Nb  Nb132  1  0.59529160  0.79964776  0.80135011  1
  Nb  Nb133  1  0.80606033  0.20106640  0.00548899  1
  Nb  Nb134  1  0.60366365  0.60453407  0.60551182  1
  Nb  Nb135  1  0.00131956  0.59832493  0.79873807  1
  Nb  Nb136  1  0.19876368  -0.00098980  0.80004302  1
  Nb  Nb137  1  0.39376054  0.39734583  0.19655907  1
  Nb  Nb138  1  -0.00170491  0.59396561  0.19645075  1
  Nb  Nb139  1  0.60940292  0.60385623  -0.00225357  1
  Nb  Nb140  1  0.40319374  0.40098872  0.80277930  1
  Nb  Nb141  1  0.00193468  0.39289894  0.59665749  1
  Nb  Nb142  1  0.00046103  0.59773022  0.39457194  1
  Nb  Nb143  1  0.79947503  0.60448385  0.80126842  1
  Nb  Nb144  1  0.39677322  0.80373614  0.21142844  1
  Nb  Nb145  1  0.79706139  0.00298962  0.79923126  1
  Nb  Nb146  1  0.00333488  0.00132278  0.39684155  1
  Nb  Nb147  1  0.19988593  0.39643691  0.19885877  1
  Nb  Nb148  1  0.00294097  0.40330226  0.78938610  1
  Nb  Nb149  1  0.39358070  0.80739266  0.40366861  1
  Pd  Pd150  1  0.80241740  0.38871094  0.59264882  1
  Pd  Pd151  1  0.20296898  0.39523694  0.59508046  1
  Pd  Pd152  1  0.20317253  0.00212058  -0.00986223  1
  Pd  Pd153  1  0.78884513  0.19915611  0.18883130  1
  Pd  Pd154  1  0.80304800  0.20214036  0.59247846  1
  Pd  Pd155  1  0.79678814  0.39009668  -0.00406026  1
  Pd  Pd156  1  0.79726675  0.79963478  0.00821394  1
  Pd  Pd157  1  0.60235923  0.60276240  0.79825950  1
  Pd  Pd158  1  0.60361062  0.01012839  0.40199711  1
  Pd  Pd159  1  -0.00927020  0.20626215  0.59974415  1
  Pd  Pd160  1  0.80690055  0.60446571  0.20037545  1
  Pd  Pd161  1  0.20041122  0.20660143  0.20300813  1
  Pd  Pd162  1  0.39453461  -0.00463679  0.19437351  1
  Pd  Pd163  1  0.20161829  0.40710977  0.80295029  1
  Pd  Pd164  1  0.39791170  0.59827053  0.20354527  1
  Pd  Pd165  1  0.79039386  0.81175794  0.78611289  1
  Pd  Pd166  1  0.61402684  0.20289886  0.00845495  1
  Pd  Pd167  1  0.19775494  0.61186690  -0.00906496  1
  Pd  Pd168  1  0.39243241  0.20521155  0.19937061  1
  Pd  Pd169  1  0.60542060  0.40654718  0.39791079  1
  Pd  Pd170  1  0.61021872  0.19355659  0.19365315  1
  Pd  Pd171  1  0.00956133  0.21109741  0.20294021  1
  Pd  Pd172  1  -0.00406485  0.79775915  0.19384307  1
  Pd  Pd173  1  0.40296470  0.00121773  0.40888075  1
  Pd  Pd174  1  0.60259335  0.79792443  0.60749774  1
  Pd  Pd175  1  0.19588901  0.80118667  0.80086838  1
  Pd  Pd176  1  -0.00503108  0.60239152  -0.00220429  1
  Pd  Pd177  1  0.19637844  0.79944903  0.00424420  1
  Pd  Pd178  1  0.60354926  -0.00307268  0.80808136  1
  Pd  Pd179  1  0.20333349  0.80326070  0.40496092  1
  Pd  Pd180  1  0.59613658  -0.00740426  -0.00048745  1
  Pd  Pd181  1  -0.01293857  0.80760761  0.59198469  1
  Pd  Pd182  1  0.39541695  0.19048785  0.59750413  1
  Pd  Pd183  1  0.39893088  0.80965516  0.59402195  1
  Pd  Pd184  1  0.60419267  0.40243562  0.60191493  1
  Pd  Pd185  1  0.00129309  0.20617742  0.79522074  1
  Pd  Pd186  1  0.80129617  0.60241751  -0.00741454  1
  Pd  Pd187  1  0.19386365  0.00098268  0.39258905  1
  Pd  Pd188  1  0.59541389  0.19605542  0.80000529  1
  Pd  Pd189  1  0.00040091  -0.00219970  0.00883114  1
  Pd  Pd190  1  0.40007851  0.79605264  0.80166985  1
  Pd  Pd191  1  0.00061693  -0.00785047  0.20495953  1
  Pd  Pd192  1  0.80039870  0.79842708  0.40791148  1
  Pd  Pd193  1  0.59628122  0.40608374  0.21018490  1
  Pd  Pd194  1  0.60406617  0.19179986  0.40270944  1
  Pd  Pd195  1  0.78634181  0.40202559  0.40916003  1
  Pd  Pd196  1  0.19756422  0.60692511  0.59766475  1
  Pd  Pd197  1  0.59712556  0.60067804  0.19657065  1
  Pd  Pd198  1  0.39587727  0.18917072  0.40377822  1
  Pd  Pd199  1  0.80263147  -0.00104172  0.20482599  1
  Rh  Rh200  1  0.00092310  0.80475295  0.00938531  1
  Rh  Rh201  1  0.60010069  0.19295555  0.60241938  1
  Rh  Rh202  1  0.40932607  0.20597815  0.80272741  1
  Rh  Rh203  1  0.60530303  0.59854072  0.40588315  1
  Rh  Rh204  1  0.40700458  0.80526404  0.01253330  1
  Rh  Rh205  1  0.21193849  0.40026873  0.40241402  1
  Rh  Rh206  1  0.59407249  0.00860938  0.60017825  1
  Rh  Rh207  1  0.00226882  0.18903021  0.40227787  1
  Rh  Rh208  1  0.60076016  0.00664011  0.20191025  1
  Rh  Rh209  1  -0.00127465  0.39514755  -0.00509257  1
  Rh  Rh210  1  0.40862008  0.59095933  -0.00801643  1
  Rh  Rh211  1  -0.00186250  0.19833584  -0.00452069  1
  Rh  Rh212  1  0.80774022  0.01059826  -0.00564250  1
  Rh  Rh213  1  0.79052784  0.19685371  0.40672924  1
  Rh  Rh214  1  0.60357931  0.40408474  0.00184076  1
  Rh  Rh215  1  0.59866802  0.80002770  0.40286122  1
  Rh  Rh216  1  0.19408305  0.59653100  0.19320207  1
  Rh  Rh217  1  0.39644118  0.60726527  0.40108402  1
  Rh  Rh218  1  0.58672978  0.79005817  0.19153975  1
  Rh  Rh219  1  0.00953708  0.59197270  0.59124136  1
  Rh  Rh220  1  0.79876465  0.60619878  0.39482321  1
  Rh  Rh221  1  0.21196882  0.39595671  0.00430781  1
  Rh  Rh222  1  -0.00185573  0.40762607  0.40220376  1
  Rh  Rh223  1  -0.00311341  -0.00105333  0.59126250  1
  Rh  Rh224  1  0.78654204  0.60841988  0.60890144  1
  Rh  Rh225  1  0.59527628  0.38428516  0.79086373  1
  Rh  Rh226  1  0.20682077  0.19609936  0.59932015  1
  Rh  Rh227  1  0.38987291  0.00192701  0.79507653  1
  Rh  Rh228  1  0.80011718  -0.00669981  0.61119340  1
  Rh  Rh229  1  0.00219477  0.00080949  0.79179111  1
  Rh  Rh230  1  0.80368507  0.79420094  0.19755173  1
  Rh  Rh231  1  0.00037813  0.80439934  0.40316141  1
  Rh  Rh232  1  0.80455673  -0.00159836  0.39555446  1
  Rh  Rh233  1  0.20556137  0.18969109  0.40449175  1
  Rh  Rh234  1  0.39772590  0.39856505  0.39689243  1
  Rh  Rh235  1  0.40686048  0.60382203  0.60459077  1
  Rh  Rh236  1  0.80012877  0.40075054  0.19878735  1
  Rh  Rh237  1  0.80860211  0.40393323  0.80248927  1
  Rh  Rh238  1  0.40067596  0.20227261  -0.00114370  1
  Rh  Rh239  1  0.19772361  0.18836475  -0.00972584  1
  Rh  Rh240  1  0.39594412  0.00233944  0.00459847  1
  Rh  Rh241  1  0.20311605  0.80239171  0.59243298  1
  Rh  Rh242  1  0.00842425  0.79421489  0.79421032  1
  Rh  Rh243  1  0.20811043  0.80242666  0.19387073  1
  Rh  Rh244  1  0.39347821  0.39139770  0.60217065  1
  Rh  Rh245  1  0.79819978  0.18887997  0.80848493  1
  Rh  Rh246  1  0.19342840  0.18653481  0.80110421  1
  Rh  Rh247  1  0.20731335  0.00634525  0.61320557  1
  Rh  Rh248  1  0.19746933  0.60599967  0.40965127  1
  Rh  Rh249  1  0.20396719  -0.00191680  0.19959118  1
