# generated using pymatgen
data_ZrScNbPdRh
_symmetry_space_group_name_H-M   'P 1'
_cell_length_a   16.55471677
_cell_length_b   16.55176694
_cell_length_c   16.55433883
_cell_angle_alpha   89.99086656
_cell_angle_beta   90.01085322
_cell_angle_gamma   90.01515276
_symmetry_Int_Tables_number   1
_chemical_formula_structural   ZrScNbPdRh
_chemical_formula_sum   'Zr50 Sc50 Nb50 Pd50 Rh50'
_cell_volume   4536.05100305
_cell_formula_units_Z   50
loop_
 _symmetry_equiv_pos_site_id
 _symmetry_equiv_pos_as_xyz
  1  'x, y, z'
loop_
 _atom_site_type_symbol
 _atom_site_label
 _atom_site_symmetry_multiplicity
 _atom_site_fract_x
 _atom_site_fract_y
 _atom_site_fract_z
 _atom_site_occupancy
  Zr  Zr0  1  0.89809218  0.28729351  0.09962757  1
  Zr  Zr1  1  0.90464925  0.30112138  0.29919124  1
  Zr  Zr2  1  0.10467070  0.69323198  0.30298352  1
  Zr  Zr3  1  0.69881746  0.10777960  0.09788627  1
  Zr  Zr4  1  0.90187439  0.10641962  0.49824101  1
  Zr  Zr5  1  0.90475827  0.71928244  0.69238979  1
  Zr  Zr6  1  0.89365260  0.49909743  0.70021127  1
  Zr  Zr7  1  0.68630681  0.89494494  0.29715713  1
  Zr  Zr8  1  0.09244207  0.89259007  0.70110622  1
  Zr  Zr9  1  0.70904073  0.89824449  0.69993357  1
  Zr  Zr10  1  0.09901718  0.29873761  0.51013290  1
  Zr  Zr11  1  0.50514040  0.30731169  0.29452776  1
  Zr  Zr12  1  0.49847013  0.89206180  0.50086052  1
  Zr  Zr13  1  0.89769225  0.69098293  0.29371921  1
  Zr  Zr14  1  0.09102636  0.29834204  0.89673061  1
  Zr  Zr15  1  0.89110273  0.90096123  0.90036935  1
  Zr  Zr16  1  0.30277851  0.49724136  0.49736808  1
  Zr  Zr17  1  0.10302237  0.90473588  0.49668070  1
  Zr  Zr18  1  0.10149829  0.90455036  0.29790179  1
  Zr  Zr19  1  0.11017467  0.90631819  0.90346863  1
  Zr  Zr20  1  0.09226447  0.49743754  0.70031685  1
  Zr  Zr21  1  0.49634671  0.10169371  0.90195606  1
  Zr  Zr22  1  0.49548153  0.10309153  0.10391001  1
  Zr  Zr23  1  0.50283348  0.70166598  0.69967134  1
  Zr  Zr24  1  0.70007740  0.09393791  0.30067387  1
  Zr  Zr25  1  0.50319680  0.49952985  0.70432656  1
  Zr  Zr26  1  0.90485785  0.10488327  0.29737277  1
  Zr  Zr27  1  0.49285485  0.50103324  0.10564057  1
  Zr  Zr28  1  0.69464920  0.10686797  0.89301618  1
  Zr  Zr29  1  0.30208377  0.10207037  0.70129476  1
  Zr  Zr30  1  0.30173505  0.31153213  0.90532720  1
  Zr  Zr31  1  0.30675587  0.69813485  0.10193154  1
  Zr  Zr32  1  0.29844958  0.09981602  0.50729756  1
  Zr  Zr33  1  0.30511737  0.69580176  0.49827015  1
  Zr  Zr34  1  0.10043446  0.10014787  0.30743721  1
  Zr  Zr35  1  0.89517886  0.89094964  0.51696921  1
  Zr  Zr36  1  0.29914027  0.48890602  0.09474806  1
  Zr  Zr37  1  0.50440817  0.30457296  0.90074864  1
  Zr  Zr38  1  0.50616843  0.29431434  0.50595002  1
  Zr  Zr39  1  0.29945033  0.11117031  0.29429270  1
  Zr  Zr40  1  0.49385235  0.09690246  0.50398045  1
  Zr  Zr41  1  0.30895801  0.69214861  0.69260240  1
  Zr  Zr42  1  0.08871886  0.49779005  0.90543339  1
  Zr  Zr43  1  0.10426077  0.69368231  0.49564401  1
  Zr  Zr44  1  0.69604377  0.50096482  0.70282976  1
  Zr  Zr45  1  0.89582526  0.10373067  0.70025717  1
  Zr  Zr46  1  0.89754359  0.30358017  0.90325983  1
  Zr  Zr47  1  0.49830288  0.49817218  0.89963937  1
  Zr  Zr48  1  0.10015491  0.31031002  0.10616387  1
  Zr  Zr49  1  0.69911074  0.10684339  0.50120258  1
  Sc  Sc50  1  0.10710715  0.11062739  0.70699817  1
  Sc  Sc51  1  0.50451942  0.10949585  0.69866831  1
  Sc  Sc52  1  0.30096140  0.90646612  0.69697724  1
  Sc  Sc53  1  0.90089393  0.29794903  0.50088889  1
  Sc  Sc54  1  0.09982607  0.09861310  0.10635010  1
  Sc  Sc55  1  0.89452957  0.91688131  0.29291224  1
  Sc  Sc56  1  0.89697349  0.49360787  0.29889437  1
  Sc  Sc57  1  0.10612565  0.90778158  0.09936326  1
  Sc  Sc58  1  0.89529917  0.69448496  0.90310045  1
  Sc  Sc59  1  0.10010548  0.70162449  0.09242712  1
  Sc  Sc60  1  0.70014582  0.69317690  0.90113912  1
  Sc  Sc61  1  0.10291011  0.10101928  0.89694223  1
  Sc  Sc62  1  0.30815471  0.29936013  0.10833259  1
  Sc  Sc63  1  0.30116158  0.89824391  0.29663023  1
  Sc  Sc64  1  0.31283905  0.49620858  0.69568844  1
  Sc  Sc65  1  0.29809580  0.30148724  0.29725442  1
  Sc  Sc66  1  0.30739775  0.49124125  0.29392103  1
  Sc  Sc67  1  0.69520001  0.69592069  0.70109170  1
  Sc  Sc68  1  0.50507444  0.48852119  0.50345095  1
  Sc  Sc69  1  0.89479934  0.50190048  0.09519616  1
  Sc  Sc70  1  0.29949707  0.89696418  0.08890090  1
  Sc  Sc71  1  0.69922286  0.10241345  0.70659750  1
  Sc  Sc72  1  0.70278147  0.90712054  0.09832743  1
  Sc  Sc73  1  0.69466646  0.50263331  0.30023628  1
  Sc  Sc74  1  0.69759392  0.89728305  0.49829252  1
  Sc  Sc75  1  0.69982869  0.30176385  0.49362010  1
  Sc  Sc76  1  0.30509112  0.10128078  0.09941142  1
  Sc  Sc77  1  0.68869542  0.70426042  0.50350974  1
  Sc  Sc78  1  0.69722439  0.50567855  0.09257856  1
  Sc  Sc79  1  0.91419185  0.30078256  0.69744327  1
  Sc  Sc80  1  0.29967870  0.69936549  0.30129885  1
  Sc  Sc81  1  0.50040071  0.30605776  0.69859385  1
  Sc  Sc82  1  0.49637748  0.90169701  0.10965720  1
  Sc  Sc83  1  0.69166005  0.69643547  0.29356638  1
  Sc  Sc84  1  0.69217992  0.29791171  0.70350706  1
  Sc  Sc85  1  0.69815083  0.90171811  0.88772308  1
  Sc  Sc86  1  0.49785595  0.69857121  0.10043853  1
  Sc  Sc87  1  0.70190879  0.49559902  0.89755198  1
  Sc  Sc88  1  0.09870943  0.29288206  0.29659562  1
  Sc  Sc89  1  0.08883668  0.69586708  0.90020294  1
  Sc  Sc90  1  0.10026607  0.48704256  0.29872149  1
  Sc  Sc91  1  0.70278550  0.49479990  0.50453778  1
  Sc  Sc92  1  0.50649744  0.70891898  0.29403533  1
  Sc  Sc93  1  0.30866876  0.90105960  0.50365748  1
  Sc  Sc94  1  0.89702567  0.10784688  0.90686538  1
  Sc  Sc95  1  0.29224265  0.09463267  0.90189734  1
  Sc  Sc96  1  0.89792527  0.48965283  0.50115392  1
  Sc  Sc97  1  0.31547819  0.70919558  0.90544657  1
  Sc  Sc98  1  0.10573283  0.49891679  0.49467101  1
  Sc  Sc99  1  0.69881585  0.30160386  0.91063890  1
  Nb  Nb100  1  0.51059209  0.89817022  0.70639546  1
  Nb  Nb101  1  0.90231017  0.69921720  0.49584399  1
  Nb  Nb102  1  0.09584462  0.09906482  0.49703554  1
  Nb  Nb103  1  0.29479207  0.29687731  0.69967197  1
  Nb  Nb104  1  0.89834461  0.90613664  0.09825914  1
  Nb  Nb105  1  0.49647598  0.09076678  0.30084044  1
  Nb  Nb106  1  0.49348147  0.70460276  0.50494896  1
  Nb  Nb107  1  0.69395363  0.30072798  0.09952501  1
  Nb  Nb108  1  0.89352614  0.70074876  0.09799158  1
  Nb  Nb109  1  0.89602478  0.08653131  0.10716578  1
  Nb  Nb110  1  0.30002503  0.49569982  0.89993006  1
  Nb  Nb111  1  0.89922761  0.49473243  0.89715963  1
  Nb  Nb112  1  0.10320501  0.30060716  0.70599154  1
  Nb  Nb113  1  0.30755612  0.30064364  0.50746346  1
  Nb  Nb114  1  0.51064612  0.29808355  0.09595205  1
  Nb  Nb115  1  0.10162911  0.69797766  0.70128345  1
  Nb  Nb116  1  0.30303935  0.90394673  0.89929156  1
  Nb  Nb117  1  0.49807897  0.50704593  0.29928721  1
  Nb  Nb118  1  0.50684669  0.90968423  0.30084050  1
  Nb  Nb119  1  0.70825676  0.70388359  0.09731104  1
  Nb  Nb120  1  0.49837693  0.89560742  0.89666937  1
  Nb  Nb121  1  0.50394036  0.71007049  0.89706432  1
  Nb  Nb122  1  0.70218452  0.30195080  0.29543141  1
  Nb  Nb123  1  0.09997831  0.50161818  0.09980896  1
  Nb  Nb124  1  0.89874095  0.90312640  0.70271371  1
  Nb  Nb125  1  0.00017387  0.00365271  0.60295988  1
  Nb  Nb126  1  0.20199717  0.79279217  0.79740051  1
  Nb  Nb127  1  0.20426027  0.59799441  0.80420376  1
  Nb  Nb128  1  -0.00521873  0.79974586  0.19754782  1
  Nb  Nb129  1  0.20302280  0.59334849  -0.00391525  1
  Nb  Nb130  1  0.80292865  0.79983320  0.19559843  1
  Nb  Nb131  1  0.19901145  0.79321570  0.60359160  1
  Nb  Nb132  1  0.40242069  0.20041405  0.40130631  1
  Nb  Nb133  1  0.39399685  0.20194109  0.80070040  1
  Nb  Nb134  1  -0.00554948  -0.00233103  0.79550175  1
  Nb  Nb135  1  0.19753981  0.20870766  0.00201297  1
  Nb  Nb136  1  0.59865908  -0.00228896  0.60349150  1
  Nb  Nb137  1  0.00305724  0.60074875  0.19348444  1
  Nb  Nb138  1  0.59862525  0.80266234  -0.00256911  1
  Nb  Nb139  1  0.80399005  0.79474024  0.39386635  1
  Nb  Nb140  1  0.40565849  -0.00134774  0.80281983  1
  Nb  Nb141  1  -0.00563070  0.79930781  0.39448684  1
  Nb  Nb142  1  0.79995289  0.60545651  0.40315821  1
  Nb  Nb143  1  0.79162240  0.39160449  0.19574290  1
  Nb  Nb144  1  0.19816683  0.59403460  0.19174561  1
  Nb  Nb145  1  0.59253693  -0.00198344  -0.00543714  1
  Nb  Nb146  1  -0.00147974  0.60498212  0.59903910  1
  Nb  Nb147  1  0.41104896  0.59856220  0.39945395  1
  Nb  Nb148  1  0.19901596  0.40339709  0.79923990  1
  Nb  Nb149  1  -0.01029383  0.80609653  0.00745509  1
  Pd  Pd150  1  0.80098436  0.59270261  -0.00566140  1
  Pd  Pd151  1  0.39947865  0.60134127  0.80828276  1
  Pd  Pd152  1  0.79651828  0.21011621  0.60436637  1
  Pd  Pd153  1  0.20211384  0.80526577  0.40576372  1
  Pd  Pd154  1  0.19993477  0.39241493  0.39770142  1
  Pd  Pd155  1  0.59621983  0.19332340  0.20852855  1
  Pd  Pd156  1  0.79502619  0.78976009  0.80256727  1
  Pd  Pd157  1  0.19563023  0.19718404  0.59703400  1
  Pd  Pd158  1  -0.00688130  0.60209282  0.79393609  1
  Pd  Pd159  1  0.59333654  0.19758600  0.39196155  1
  Pd  Pd160  1  0.19681353  0.59519267  0.60580513  1
  Pd  Pd161  1  0.40141922  0.80396970  0.20341524  1
  Pd  Pd162  1  0.40585425  0.79636158  0.39064944  1
  Pd  Pd163  1  0.00485444  0.19015507  0.00770340  1
  Pd  Pd164  1  0.00153977  0.80494192  0.81522831  1
  Pd  Pd165  1  -0.00972616  0.40047125  0.00832825  1
  Pd  Pd166  1  0.19628466  0.78966330  -0.00860481  1
  Pd  Pd167  1  0.40026936  0.59967656  -0.00686958  1
  Pd  Pd168  1  0.39134876  -0.00473215  0.19898122  1
  Pd  Pd169  1  -0.00645477  0.59194653  0.39890291  1
  Pd  Pd170  1  0.20809943  0.00310544  0.19605383  1
  Pd  Pd171  1  0.79603998  0.38932094  0.60512980  1
  Pd  Pd172  1  0.60452669  0.40972153  0.19467380  1
  Pd  Pd173  1  0.59561214  0.59751129  0.59352556  1
  Pd  Pd174  1  0.60021223  0.00057906  0.41078086  1
  Pd  Pd175  1  0.78829872  0.00540165  -0.00664636  1
  Pd  Pd176  1  -0.01122840  -0.00772781  0.40680679  1
  Pd  Pd177  1  0.79828334  0.19998477  0.20244256  1
  Pd  Pd178  1  0.00224632  0.00196680  -0.00574345  1
  Pd  Pd179  1  0.39384945  0.80646507  0.79154094  1
  Pd  Pd180  1  0.80072124  -0.00738109  0.40499346  1
  Pd  Pd181  1  0.80428379  0.60678162  0.59412604  1
  Pd  Pd182  1  0.59866051  0.60201946  0.40775111  1
  Pd  Pd183  1  0.59554064  0.60601159  -0.00187272  1
  Pd  Pd184  1  0.21280985  0.00008239  0.39827690  1
  Pd  Pd185  1  0.80257106  0.21033384  0.79944113  1
  Pd  Pd186  1  0.19485079  0.79421446  0.19466588  1
  Pd  Pd187  1  0.60409082  0.40278842  0.39943717  1
  Pd  Pd188  1  0.39281897  0.20480502  -0.00302559  1
  Pd  Pd189  1  0.79989749  0.20512620  0.39620418  1
  Pd  Pd190  1  0.00351957  0.39625282  0.40464701  1
  Pd  Pd191  1  0.40456146  0.39682942  0.40010608  1
  Pd  Pd192  1  0.79566038  0.00536033  0.59892293  1
  Pd  Pd193  1  0.20213664  0.40448487  0.60564839  1
  Pd  Pd194  1  0.79802390  0.39168005  0.79603928  1
  Pd  Pd195  1  0.19141093  -0.00241093  0.60674525  1
  Pd  Pd196  1  0.80389023  0.60522958  0.79810310  1
  Pd  Pd197  1  0.39154500  0.00315860  0.39564479  1
  Pd  Pd198  1  0.20533051  0.20811322  0.40765689  1
  Pd  Pd199  1  0.60129468  0.60117200  0.19288277  1
  Rh  Rh200  1  0.41453211  -0.00808444  0.61406786  1
  Rh  Rh201  1  -0.01306405  0.40615663  0.19447155  1
  Rh  Rh202  1  0.79980977  0.39952970  0.00614659  1
  Rh  Rh203  1  0.78889335  0.79126284  0.59651839  1
  Rh  Rh204  1  0.41223466  0.59093472  0.58767800  1
  Rh  Rh205  1  0.59665359  0.79759448  0.40021813  1
  Rh  Rh206  1  0.39749890  0.80574398  0.60787654  1
  Rh  Rh207  1  0.60825770  0.79323190  0.80395778  1
  Rh  Rh208  1  0.00821345  0.19406327  0.60202011  1
  Rh  Rh209  1  0.60617983  0.39890786  0.60293925  1
  Rh  Rh210  1  0.59248394  0.20766447  0.80140116  1
  Rh  Rh211  1  0.59910984  0.19637117  -0.00108900  1
  Rh  Rh212  1  0.19678936  0.20345462  0.19144777  1
  Rh  Rh213  1  -0.00274253  0.60375226  0.00460977  1
  Rh  Rh214  1  0.20099919  0.40159860  0.20346592  1
  Rh  Rh215  1  0.20460096  0.01077276  0.00590861  1
  Rh  Rh216  1  0.01236004  0.79800876  0.58795103  1
  Rh  Rh217  1  0.39398262  0.39300331  0.79210795  1
  Rh  Rh218  1  0.41099710  0.39725706  0.00807177  1
  Rh  Rh219  1  0.20081009  -0.00860640  0.79644263  1
  Rh  Rh220  1  -0.00267333  0.39885222  0.79822237  1
  Rh  Rh221  1  0.60593616  0.19586020  0.60164998  1
  Rh  Rh222  1  0.19212444  0.39837173  -0.00491886  1
  Rh  Rh223  1  -0.00409605  0.19397468  0.79822248  1
  Rh  Rh224  1  0.59985124  0.00460153  0.19225439  1
  Rh  Rh225  1  0.80631753  0.00818797  0.80451436  1
  Rh  Rh226  1  0.59804672  0.40629364  0.00412684  1
  Rh  Rh227  1  0.40267505  0.39622192  0.60311609  1
  Rh  Rh228  1  0.59457845  0.00329135  0.79848422  1
  Rh  Rh229  1  0.20778908  0.21340865  0.81216566  1
  Rh  Rh230  1  0.40737139  0.39487762  0.19747908  1
  Rh  Rh231  1  0.21622998  0.58529620  0.38567030  1
  Rh  Rh232  1  0.79105146  -0.00035278  0.20093222  1
  Rh  Rh233  1  0.79564884  0.80468003  0.00155226  1
  Rh  Rh234  1  0.00455271  -0.00025773  0.20053544  1
  Rh  Rh235  1  0.60146423  0.80526678  0.60437822  1
  Rh  Rh236  1  0.39480416  0.60274696  0.21047104  1
  Rh  Rh237  1  0.59589633  0.60030180  0.80591708  1
  Rh  Rh238  1  0.41032116  0.20497218  0.20739215  1
  Rh  Rh239  1  0.39943715  0.20766353  0.60379686  1
  Rh  Rh240  1  0.41061679  0.80659907  0.00479356  1
  Rh  Rh241  1  0.60565603  0.80098228  0.18584478  1
  Rh  Rh242  1  0.79351504  0.40527373  0.38915976  1
  Rh  Rh243  1  0.40304597  -0.00691791  -0.00525803  1
  Rh  Rh244  1  0.00151850  0.40541523  0.59735033  1
  Rh  Rh245  1  0.00229903  0.19247478  0.19703541  1
  Rh  Rh246  1  0.79851564  0.19763707  0.00291881  1
  Rh  Rh247  1  0.00413636  0.20560495  0.40268625  1
  Rh  Rh248  1  0.79893509  0.59476452  0.20155359  1
  Rh  Rh249  1  0.60452874  0.40057022  0.80344489  1
