# generated using pymatgen
data_ZrScNbPdRh
_symmetry_space_group_name_H-M   'P 1'
_cell_length_a   16.56033293
_cell_length_b   16.56113255
_cell_length_c   16.56245987
_cell_angle_alpha   89.98209312
_cell_angle_beta   89.98375401
_cell_angle_gamma   89.97852769
_symmetry_Int_Tables_number   1
_chemical_formula_structural   ZrScNbPdRh
_chemical_formula_sum   'Zr50 Sc50 Nb50 Pd50 Rh50'
_cell_volume   4542.38422189
_cell_formula_units_Z   50
loop_
 _symmetry_equiv_pos_site_id
 _symmetry_equiv_pos_as_xyz
  1  'x, y, z'
loop_
 _atom_site_type_symbol
 _atom_site_label
 _atom_site_symmetry_multiplicity
 _atom_site_fract_x
 _atom_site_fract_y
 _atom_site_fract_z
 _atom_site_occupancy
  Zr  Zr0  1  0.10132358  0.30158295  0.09798320  1
  Zr  Zr1  1  0.69774874  0.49762563  0.69927049  1
  Zr  Zr2  1  0.69444792  0.09483722  0.69506451  1
  Zr  Zr3  1  0.49783722  0.70477332  0.10139956  1
  Zr  Zr4  1  0.89585763  0.69974235  0.49512354  1
  Zr  Zr5  1  0.89809401  0.70797661  0.30357017  1
  Zr  Zr6  1  0.10288842  0.10496823  0.30434236  1
  Zr  Zr7  1  0.50421899  0.49357092  0.49896649  1
  Zr  Zr8  1  0.10223211  0.90175942  0.29576482  1
  Zr  Zr9  1  0.10079189  0.88809455  0.89773325  1
  Zr  Zr10  1  0.70092938  0.70311271  0.69628061  1
  Zr  Zr11  1  0.29931442  0.29769390  0.08865939  1
  Zr  Zr12  1  0.29306992  0.70252310  0.10469736  1
  Zr  Zr13  1  0.49833376  0.90569900  0.70117400  1
  Zr  Zr14  1  0.49874735  0.69843057  0.50735636  1
  Zr  Zr15  1  0.49414708  0.09908637  0.89536855  1
  Zr  Zr16  1  0.49947489  0.90111829  0.50117766  1
  Zr  Zr17  1  0.68833487  0.49843435  0.29898831  1
  Zr  Zr18  1  0.49590689  0.49351037  0.89185028  1
  Zr  Zr19  1  0.29836800  0.49700342  0.29112978  1
  Zr  Zr20  1  0.29607234  0.50115589  0.70648393  1
  Zr  Zr21  1  0.69243471  0.10235314  0.09880043  1
  Zr  Zr22  1  0.10240128  0.11098695  0.49581046  1
  Zr  Zr23  1  0.49941039  0.29198419  0.69998158  1
  Zr  Zr24  1  0.91139296  0.49106079  0.70628445  1
  Zr  Zr25  1  0.49282197  0.30274586  0.49744108  1
  Zr  Zr26  1  0.10536532  0.49234744  0.11234786  1
  Zr  Zr27  1  0.29735724  0.70413584  0.89308639  1
  Zr  Zr28  1  0.09707644  0.10114023  0.09715362  1
  Zr  Zr29  1  0.90200351  0.09811133  0.69915504  1
  Zr  Zr30  1  0.70119506  0.09801729  0.50056421  1
  Zr  Zr31  1  0.50145509  0.29698393  0.89828473  1
  Zr  Zr32  1  0.49933831  0.49075940  0.69558561  1
  Zr  Zr33  1  0.90399941  0.89372949  0.90241837  1
  Zr  Zr34  1  0.69768388  0.70837182  0.10253164  1
  Zr  Zr35  1  0.70319898  0.90272653  0.90595065  1
  Zr  Zr36  1  0.30894792  0.10183725  0.70955612  1
  Zr  Zr37  1  0.30093469  0.90329408  0.29813620  1
  Zr  Zr38  1  0.29667563  0.90510242  0.89865108  1
  Zr  Zr39  1  0.70064804  0.49750785  0.10180290  1
  Zr  Zr40  1  0.29883181  0.70614426  0.29390999  1
  Zr  Zr41  1  0.90039373  0.89388205  0.50150477  1
  Zr  Zr42  1  0.70395494  0.49531909  0.90603357  1
  Zr  Zr43  1  0.90286562  0.89662625  0.29736814  1
  Zr  Zr44  1  0.70509759  0.70355674  0.50033602  1
  Zr  Zr45  1  0.30769797  0.90472202  0.09995826  1
  Zr  Zr46  1  0.69084396  0.30057863  0.90686899  1
  Zr  Zr47  1  0.71280464  0.29606612  0.29555688  1
  Zr  Zr48  1  0.89947015  0.30679977  0.30927650  1
  Zr  Zr49  1  0.10316387  0.70485133  0.29018612  1
  Sc  Sc50  1  0.91251325  0.89928024  0.69298148  1
  Sc  Sc51  1  0.10812102  0.29521045  0.89367544  1
  Sc  Sc52  1  0.30136022  0.70036234  0.68949899  1
  Sc  Sc53  1  0.49501725  0.71193678  0.70268872  1
  Sc  Sc54  1  0.49771398  0.09203135  0.29926812  1
  Sc  Sc55  1  0.49530509  0.09528153  0.50291470  1
  Sc  Sc56  1  0.89433576  0.30485453  0.11879088  1
  Sc  Sc57  1  0.88951884  0.30080061  0.89049036  1
  Sc  Sc58  1  0.68907348  0.89655033  0.70015980  1
  Sc  Sc59  1  0.10707332  0.70437990  0.50235791  1
  Sc  Sc60  1  0.89508930  0.50164789  0.09595985  1
  Sc  Sc61  1  0.10651879  0.69885166  0.69479095  1
  Sc  Sc62  1  0.69812674  0.89784402  0.29373682  1
  Sc  Sc63  1  0.90145980  0.11920307  0.29931342  1
  Sc  Sc64  1  0.10528629  0.49316257  0.69691783  1
  Sc  Sc65  1  0.30357154  0.89489806  0.69990449  1
  Sc  Sc66  1  0.70111852  0.50023848  0.50192379  1
  Sc  Sc67  1  0.89752201  0.50286295  0.30374195  1
  Sc  Sc68  1  0.69758182  0.90066336  0.50748656  1
  Sc  Sc69  1  0.70716747  0.30454390  0.49961706  1
  Sc  Sc70  1  0.90391419  0.70174668  0.68940488  1
  Sc  Sc71  1  0.50670673  0.68878916  0.28801435  1
  Sc  Sc72  1  0.29954296  0.89984199  0.49678429  1
  Sc  Sc73  1  0.90405575  0.29932506  0.69970868  1
  Sc  Sc74  1  0.89338069  0.10005042  0.90494002  1
  Sc  Sc75  1  0.29916316  0.30042473  0.89907162  1
  Sc  Sc76  1  0.69635726  0.29875610  0.70087877  1
  Sc  Sc77  1  0.10187709  0.90136242  0.50418178  1
  Sc  Sc78  1  0.49724306  0.30305349  0.29946896  1
  Sc  Sc79  1  0.30828553  0.29586550  0.31084579  1
  Sc  Sc80  1  0.09357442  0.50252100  0.88441687  1
  Sc  Sc81  1  0.69337646  0.30107715  0.10580636  1
  Sc  Sc82  1  0.10886531  0.09874202  0.89569853  1
  Sc  Sc83  1  0.69977950  0.70946541  0.91078698  1
  Sc  Sc84  1  0.09743100  0.89804815  0.69579408  1
  Sc  Sc85  1  0.29954936  0.48782711  0.50871373  1
  Sc  Sc86  1  0.90267423  0.90142123  0.09458224  1
  Sc  Sc87  1  0.09997819  0.30311688  0.70371547  1
  Sc  Sc88  1  0.29692473  0.29938432  0.69899538  1
  Sc  Sc89  1  0.29776075  0.29545093  0.49956940  1
  Sc  Sc90  1  0.30384271  0.09907148  0.31510922  1
  Sc  Sc91  1  0.49944904  0.49507848  0.11856171  1
  Sc  Sc92  1  0.49777205  0.28889715  0.10083573  1
  Sc  Sc93  1  0.50627000  0.89760489  0.88936969  1
  Sc  Sc94  1  0.09383115  0.89541081  0.09471565  1
  Sc  Sc95  1  0.90067534  0.30296290  0.50242858  1
  Sc  Sc96  1  0.69819864  0.10212598  0.90732162  1
  Sc  Sc97  1  0.90230737  0.10663264  0.50701600  1
  Sc  Sc98  1  0.09537465  0.10487453  0.70273736  1
  Sc  Sc99  1  0.10032465  0.30296734  0.29877944  1
  Nb  Nb100  1  0.29548398  0.49984909  0.09173448  1
  Nb  Nb101  1  0.49896196  0.69942662  0.90070904  1
  Nb  Nb102  1  0.09859236  0.69906732  0.09482850  1
  Nb  Nb103  1  0.29361944  0.10061818  0.49632968  1
  Nb  Nb104  1  0.48629155  0.09103266  0.09548853  1
  Nb  Nb105  1  0.49766823  0.91010568  0.10863880  1
  Nb  Nb106  1  0.10715094  0.49728984  0.49970003  1
  Nb  Nb107  1  0.90467690  0.49944721  0.50078991  1
  Nb  Nb108  1  0.30607627  0.09880324  0.08723568  1
  Nb  Nb109  1  0.90150516  0.69645893  0.09452675  1
  Nb  Nb110  1  0.10313370  0.50103910  0.30097945  1
  Nb  Nb111  1  0.49971455  0.09766085  0.70464623  1
  Nb  Nb112  1  0.70474288  0.10295846  0.30118946  1
  Nb  Nb113  1  0.70006863  0.90447717  0.09502739  1
  Nb  Nb114  1  0.49222402  0.90149963  0.30075226  1
  Nb  Nb115  1  0.30035943  0.50300893  0.90210421  1
  Nb  Nb116  1  0.10670694  0.31014673  0.49973870  1
  Nb  Nb117  1  0.89950802  0.50486714  0.90096775  1
  Nb  Nb118  1  0.30137666  0.69779444  0.49853273  1
  Nb  Nb119  1  0.70258864  0.70232618  0.30015771  1
  Nb  Nb120  1  0.09607434  0.70199620  0.91110261  1
  Nb  Nb121  1  0.49713644  0.49634435  0.30698022  1
  Nb  Nb122  1  0.90433406  0.68937904  0.91026574  1
  Nb  Nb123  1  0.30066052  0.10110927  0.90817825  1
  Nb  Nb124  1  0.89825536  0.09953487  0.09902310  1
  Nb  Nb125  1  0.60197451  0.60214338  0.80591351  1
  Nb  Nb126  1  0.39639946  0.59802023  0.39905750  1
  Nb  Nb127  1  0.80405975  0.00196105  0.39323512  1
  Nb  Nb128  1  0.00731227  0.40955314  0.40607447  1
  Nb  Nb129  1  0.20367023  0.59678880  0.39968159  1
  Nb  Nb130  1  -0.00340638  0.39781184  -0.00447716  1
  Nb  Nb131  1  0.80361704  0.60265713  0.80712163  1
  Nb  Nb132  1  0.20370241  0.00847015  0.19473398  1
  Nb  Nb133  1  0.40542703  0.79313220  0.39587640  1
  Nb  Nb134  1  0.60554489  0.19627022  0.39716655  1
  Nb  Nb135  1  0.00283204  0.59074496  0.58836513  1
  Nb  Nb136  1  0.80626534  0.79745648  0.80368188  1
  Nb  Nb137  1  -0.00379219  0.20522089  0.00393918  1
  Nb  Nb138  1  0.20438750  0.01046891  0.59746395  1
  Nb  Nb139  1  0.79839801  0.00608030  0.19718151  1
  Nb  Nb140  1  0.79976550  0.61039520  0.20108626  1
  Nb  Nb141  1  0.40275735  0.79914967  -0.00056788  1
  Nb  Nb142  1  0.20815105  0.19231176  0.19473561  1
  Nb  Nb143  1  0.39621581  0.59781458  -0.00094985  1
  Nb  Nb144  1  -0.00419112  0.00236712  0.39887240  1
  Nb  Nb145  1  0.80097461  -0.00637289  0.79882931  1
  Nb  Nb146  1  0.19946982  0.59803968  -0.00207370  1
  Nb  Nb147  1  0.59065221  0.59883936  -0.00212371  1
  Nb  Nb148  1  -0.00122164  0.60464069  0.19832393  1
  Nb  Nb149  1  0.59606030  0.79775987  0.39461183  1
  Pd  Pd150  1  0.80218951  0.39971510  0.60321282  1
  Pd  Pd151  1  -0.00209279  0.20038031  0.81070708  1
  Pd  Pd152  1  0.01088612  0.80423334  0.40527237  1
  Pd  Pd153  1  0.59675416  0.60259651  0.60787773  1
  Pd  Pd154  1  0.79674456  0.40154123  0.79775771  1
  Pd  Pd155  1  0.00307550  0.20403330  0.19755310  1
  Pd  Pd156  1  0.00306582  0.00640979  -0.01013820  1
  Pd  Pd157  1  0.60680777  -0.00266443  0.39615519  1
  Pd  Pd158  1  0.80471641  0.21034727  0.00873955  1
  Pd  Pd159  1  0.18821727  0.40850421  -0.01425801  1
  Pd  Pd160  1  0.79979814  0.20610218  0.60365139  1
  Pd  Pd161  1  -0.00062897  0.60921131  0.78924968  1
  Pd  Pd162  1  0.39226156  0.00132516  0.59844264  1
  Pd  Pd163  1  0.39571462  0.39329309  0.19646517  1
  Pd  Pd164  1  0.40682681  0.40321319  0.00496455  1
  Pd  Pd165  1  0.80378601  0.80525346  0.19068686  1
  Pd  Pd166  1  0.19269771  -0.00411634  0.00331725  1
  Pd  Pd167  1  0.21217977  0.38332957  0.20614005  1
  Pd  Pd168  1  0.60545906  0.19416248  0.80095758  1
  Pd  Pd169  1  -0.00365047  0.00544493  0.20557904  1
  Pd  Pd170  1  0.58764768  0.40389476  0.01053728  1
  Pd  Pd171  1  0.59780759  0.20192522  0.59018076  1
  Pd  Pd172  1  0.59066671  0.80563726  0.00193329  1
  Pd  Pd173  1  0.39795142  0.59616222  0.19897926  1
  Pd  Pd174  1  0.60524671  0.38772321  0.39778311  1
  Pd  Pd175  1  0.20371419  0.79839755  0.40385040  1
  Pd  Pd176  1  0.79381309  0.19141067  0.79556996  1
  Pd  Pd177  1  0.39662606  0.19699168  0.59642022  1
  Pd  Pd178  1  -0.00230251  0.78739017  0.79791648  1
  Pd  Pd179  1  0.19836417  0.00022492  0.78881355  1
  Pd  Pd180  1  0.39717907  0.59318043  0.59795120  1
  Pd  Pd181  1  0.59091269  0.19668977  0.20585798  1
  Pd  Pd182  1  0.01105358  0.58507467  0.00767715  1
  Pd  Pd183  1  0.80865050  0.38978537  0.00459157  1
  Pd  Pd184  1  0.40510562  0.60432436  0.79674193  1
  Pd  Pd185  1  0.19494260  0.60463872  0.80170988  1
  Pd  Pd186  1  0.60422275  0.00055842  0.20211121  1
  Pd  Pd187  1  0.80998905  0.59220502  0.60763052  1
  Pd  Pd188  1  0.39302768  0.39130700  0.79628695  1
  Pd  Pd189  1  0.59056470  0.00054161  -0.00320996  1
  Pd  Pd190  1  -0.00346196  0.00232616  0.80547684  1
  Pd  Pd191  1  0.80272879  -0.00813681  0.60399314  1
  Pd  Pd192  1  0.39485758  0.19246517  0.20383412  1
  Pd  Pd193  1  0.79389255  0.59302396  0.39478286  1
  Pd  Pd194  1  0.00387173  0.20921440  0.59849721  1
  Pd  Pd195  1  0.01068370  0.59919481  0.39926466  1
  Pd  Pd196  1  0.19990905  0.19855750  0.60762664  1
  Pd  Pd197  1  0.59473794  0.80813588  0.20480806  1
  Pd  Pd198  1  0.59653146  0.60681171  0.40127755  1
  Pd  Pd199  1  0.19804105  0.79673459  0.79083883  1
  Rh  Rh200  1  0.60826773  0.79176672  0.80027555  1
  Rh  Rh201  1  0.19541853  0.60020865  0.19851208  1
  Rh  Rh202  1  -0.00153042  0.79210990  0.18965345  1
  Rh  Rh203  1  -0.00019505  0.39171598  0.81056431  1
  Rh  Rh204  1  0.39854565  -0.00408428  0.40441714  1
  Rh  Rh205  1  0.39655048  0.20336054  0.80545364  1
  Rh  Rh206  1  0.59119610  0.19512083  0.00337063  1
  Rh  Rh207  1  0.19127700  -0.00137980  0.40216501  1
  Rh  Rh208  1  0.00305466  0.78800513  0.59383403  1
  Rh  Rh209  1  -0.00369751  0.79768064  0.00334547  1
  Rh  Rh210  1  0.59633495  0.39293713  0.20477448  1
  Rh  Rh211  1  0.79785997  0.19251870  0.19161031  1
  Rh  Rh212  1  0.59725518  0.80037477  0.59466962  1
  Rh  Rh213  1  0.79935973  0.41331451  0.20593787  1
  Rh  Rh214  1  0.60365843  0.40049030  0.79711171  1
  Rh  Rh215  1  0.39725906  0.80465733  0.59293254  1
  Rh  Rh216  1  0.19963773  0.40076054  0.39638431  1
  Rh  Rh217  1  0.20216042  0.39635688  0.60529116  1
  Rh  Rh218  1  0.60139908  0.39153694  0.59774989  1
  Rh  Rh219  1  0.01234577  0.00754253  0.59090240  1
  Rh  Rh220  1  0.20360181  0.40074466  0.80138974  1
  Rh  Rh221  1  0.59212920  0.00168153  0.60313695  1
  Rh  Rh222  1  0.39781192  -0.00211302  0.80449535  1
  Rh  Rh223  1  0.20523179  0.79715578  0.00250047  1
  Rh  Rh224  1  0.39743097  0.80228841  0.80382736  1
  Rh  Rh225  1  0.80332816  0.40729165  0.40244960  1
  Rh  Rh226  1  0.80135081  0.80707903  0.60813777  1
  Rh  Rh227  1  0.40748345  0.80340035  0.20054666  1
  Rh  Rh228  1  0.79994623  -0.00049662  0.00429177  1
  Rh  Rh229  1  0.20676302  0.19744026  0.79966918  1
  Rh  Rh230  1  0.19942329  0.20992792  0.39423808  1
  Rh  Rh231  1  0.19871907  0.59770936  0.59341866  1
  Rh  Rh232  1  -0.00770363  0.41181089  0.20733868  1
  Rh  Rh233  1  0.60738126  0.00544599  0.80123926  1
  Rh  Rh234  1  0.40857745  -0.01091288  -0.01184819  1
  Rh  Rh235  1  0.80774123  0.79974924  0.00063190  1
  Rh  Rh236  1  0.39720367  0.39429126  0.60472866  1
  Rh  Rh237  1  0.40321227  0.20107663  -0.00726442  1
  Rh  Rh238  1  0.00183182  0.21199890  0.40782151  1
  Rh  Rh239  1  0.60852637  0.59831781  0.19460208  1
  Rh  Rh240  1  0.78894666  0.60447423  0.00265501  1
  Rh  Rh241  1  0.20559760  0.80904413  0.60026764  1
  Rh  Rh242  1  0.41148494  0.19410780  0.40543105  1
  Rh  Rh243  1  0.79738620  0.19494116  0.40918928  1
  Rh  Rh244  1  0.00514134  0.40083106  0.59360870  1
  Rh  Rh245  1  0.39487406  0.40739114  0.40145899  1
  Rh  Rh246  1  0.19604960  0.19656731  -0.00070190  1
  Rh  Rh247  1  0.78501479  0.81253762  0.40287835  1
  Rh  Rh248  1  0.39192535  0.00926980  0.20426483  1
  Rh  Rh249  1  0.19414614  0.81434150  0.18779000  1
