# generated using pymatgen
data_ZrScNbPdRh
_symmetry_space_group_name_H-M   'P 1'
_cell_length_a   16.56519803
_cell_length_b   16.56397644
_cell_length_c   16.56200330
_cell_angle_alpha   89.93685714
_cell_angle_beta   90.00884293
_cell_angle_gamma   90.07574775
_symmetry_Int_Tables_number   1
_chemical_formula_structural   ZrScNbPdRh
_chemical_formula_sum   'Zr50 Sc50 Nb50 Pd50 Rh50'
_cell_volume   4544.36760003
_cell_formula_units_Z   50
loop_
 _symmetry_equiv_pos_site_id
 _symmetry_equiv_pos_as_xyz
  1  'x, y, z'
loop_
 _atom_site_type_symbol
 _atom_site_label
 _atom_site_symmetry_multiplicity
 _atom_site_fract_x
 _atom_site_fract_y
 _atom_site_fract_z
 _atom_site_occupancy
  Zr  Zr0  1  0.09306330  0.70006647  0.89979526  1
  Zr  Zr1  1  0.70509110  0.90067420  0.70376649  1
  Zr  Zr2  1  0.90453968  0.70162540  0.50033224  1
  Zr  Zr3  1  0.10647478  0.30399771  0.50050791  1
  Zr  Zr4  1  0.49962455  0.50183378  0.10544009  1
  Zr  Zr5  1  0.51946568  0.28990444  0.30136709  1
  Zr  Zr6  1  0.49828251  0.10231888  0.48998873  1
  Zr  Zr7  1  0.68266790  0.29642002  0.69287784  1
  Zr  Zr8  1  0.30700989  0.49217157  0.10337311  1
  Zr  Zr9  1  0.29676618  0.10677510  0.49490847  1
  Zr  Zr10  1  0.70143378  0.49679383  0.49863061  1
  Zr  Zr11  1  0.89340959  0.69409061  0.29675675  1
  Zr  Zr12  1  0.48913583  0.50438494  0.69268762  1
  Zr  Zr13  1  0.89681117  0.09963038  0.70075535  1
  Zr  Zr14  1  0.48906266  0.89210189  0.49460289  1
  Zr  Zr15  1  0.50198704  0.89307448  0.70995900  1
  Zr  Zr16  1  0.10157234  0.89403557  0.10307872  1
  Zr  Zr17  1  0.69605962  0.10071824  0.89523368  1
  Zr  Zr18  1  0.69691668  0.30785617  0.89710065  1
  Zr  Zr19  1  0.70302188  0.90006587  0.49887525  1
  Zr  Zr20  1  0.11317665  0.08939852  0.29884020  1
  Zr  Zr21  1  0.49586225  0.90817651  0.29944330  1
  Zr  Zr22  1  0.29812453  0.90073850  0.69724974  1
  Zr  Zr23  1  0.10581435  0.30414609  0.89994297  1
  Zr  Zr24  1  0.89771484  0.88665888  0.90023314  1
  Zr  Zr25  1  0.70262513  0.89841403  0.29294707  1
  Zr  Zr26  1  0.90647159  0.50842910  0.49576314  1
  Zr  Zr27  1  0.69757165  0.50411411  0.90192607  1
  Zr  Zr28  1  0.91320238  0.29767007  0.70650731  1
  Zr  Zr29  1  0.89768396  0.70105968  0.09368425  1
  Zr  Zr30  1  0.70776676  0.49987322  0.30122332  1
  Zr  Zr31  1  0.09825633  0.49722772  0.09803430  1
  Zr  Zr32  1  0.11116394  0.50036565  0.89729027  1
  Zr  Zr33  1  0.70363985  0.09815868  0.10191729  1
  Zr  Zr34  1  0.48755549  0.29093262  0.89424667  1
  Zr  Zr35  1  0.29932650  0.09519811  0.09887367  1
  Zr  Zr36  1  0.09047559  0.11424363  0.69750547  1
  Zr  Zr37  1  0.09750633  0.30154346  0.09501864  1
  Zr  Zr38  1  0.69934468  0.09361266  0.70329483  1
  Zr  Zr39  1  0.09128859  0.70036033  0.69327735  1
  Zr  Zr40  1  0.30200082  0.29740926  0.09372233  1
  Zr  Zr41  1  0.50964037  0.29885609  0.51386901  1
  Zr  Zr42  1  0.30815087  0.49792431  0.29373813  1
  Zr  Zr43  1  0.89640710  0.30096791  0.90619944  1
  Zr  Zr44  1  0.30535037  0.70144401  0.10150645  1
  Zr  Zr45  1  0.30403015  0.10657874  0.90654984  1
  Zr  Zr46  1  0.09801578  0.50537885  0.50522280  1
  Zr  Zr47  1  0.09845304  0.69747065  0.09098185  1
  Zr  Zr48  1  0.70246284  0.68594857  0.49950775  1
  Zr  Zr49  1  0.90998498  0.30786625  0.10845105  1
  Sc  Sc50  1  0.50515478  0.69568187  0.29113174  1
  Sc  Sc51  1  0.10313068  0.71158952  0.29349091  1
  Sc  Sc52  1  0.49561301  0.09809632  0.89995302  1
  Sc  Sc53  1  0.69745181  0.69964219  0.10064472  1
  Sc  Sc54  1  0.70261681  0.89909774  0.89377662  1
  Sc  Sc55  1  0.89860066  0.89508324  0.69750942  1
  Sc  Sc56  1  0.50947797  0.70431458  0.09763557  1
  Sc  Sc57  1  0.09904381  0.10277798  0.50167472  1
  Sc  Sc58  1  0.68975257  0.30814476  0.11577598  1
  Sc  Sc59  1  0.90247789  0.10709195  0.31008617  1
  Sc  Sc60  1  0.09242569  0.90395476  0.69817630  1
  Sc  Sc61  1  0.49723122  0.89430114  0.90387110  1
  Sc  Sc62  1  0.30856692  0.71410696  0.49385008  1
  Sc  Sc63  1  0.69735093  0.50399308  0.09629940  1
  Sc  Sc64  1  0.30083687  0.69831953  0.89975629  1
  Sc  Sc65  1  0.29904111  0.49856714  0.51081159  1
  Sc  Sc66  1  0.11244974  0.10536030  0.90107710  1
  Sc  Sc67  1  0.90369388  0.29583579  0.48028051  1
  Sc  Sc68  1  0.09312089  0.30438114  0.29485206  1
  Sc  Sc69  1  0.10776483  0.10023367  0.10207475  1
  Sc  Sc70  1  0.30002953  0.49145942  0.89484107  1
  Sc  Sc71  1  0.50312586  0.49812908  0.29410511  1
  Sc  Sc72  1  0.49232398  0.30421104  0.70114885  1
  Sc  Sc73  1  0.89563371  0.70421337  0.69933001  1
  Sc  Sc74  1  0.50796453  0.11231359  0.70493090  1
  Sc  Sc75  1  0.49790854  0.70727800  0.90021726  1
  Sc  Sc76  1  0.29125522  0.29939010  0.30325541  1
  Sc  Sc77  1  0.70601027  0.09785601  0.49775429  1
  Sc  Sc78  1  0.90441378  0.10163290  0.50126150  1
  Sc  Sc79  1  0.50646137  0.50314638  0.50653383  1
  Sc  Sc80  1  0.49118543  0.09038697  0.10490885  1
  Sc  Sc81  1  0.28450750  0.10507525  0.70203467  1
  Sc  Sc82  1  0.88043949  0.49619263  0.89486542  1
  Sc  Sc83  1  0.31215047  0.69157232  0.70028213  1
  Sc  Sc84  1  0.49775701  0.30516050  0.10710388  1
  Sc  Sc85  1  0.90470324  0.49877549  0.29696059  1
  Sc  Sc86  1  0.70870447  0.69902069  0.90539290  1
  Sc  Sc87  1  0.50384819  0.49443283  0.90148387  1
  Sc  Sc88  1  0.09353475  0.69912549  0.49753879  1
  Sc  Sc89  1  0.10185493  0.90583708  0.49366631  1
  Sc  Sc90  1  0.30484263  0.90652129  0.09103917  1
  Sc  Sc91  1  0.09854052  0.89144739  0.90222724  1
  Sc  Sc92  1  0.70751915  0.49821083  0.70503060  1
  Sc  Sc93  1  0.29545097  0.49997963  0.70201126  1
  Sc  Sc94  1  0.88450137  0.10681348  0.90394132  1
  Sc  Sc95  1  0.89657127  0.69901315  0.89859019  1
  Sc  Sc96  1  0.68427036  0.10639443  0.30444107  1
  Sc  Sc97  1  0.89695061  0.10672489  0.09890742  1
  Sc  Sc98  1  0.89584279  0.50344053  0.10564640  1
  Sc  Sc99  1  0.89518584  0.90666003  0.50115338  1
  Nb  Nb100  1  0.70263083  0.30344345  0.49670262  1
  Nb  Nb101  1  0.30442574  0.09024385  0.29808450  1
  Nb  Nb102  1  0.09254847  0.49471744  0.69679773  1
  Nb  Nb103  1  0.30811925  0.30097855  0.50517808  1
  Nb  Nb104  1  0.30150044  0.70230219  0.30105172  1
  Nb  Nb105  1  0.50446165  0.69361655  0.50139519  1
  Nb  Nb106  1  0.89378265  0.30411616  0.29584730  1
  Nb  Nb107  1  0.10402994  0.90064525  0.29967965  1
  Nb  Nb108  1  0.50372157  0.69595846  0.69500259  1
  Nb  Nb109  1  0.29374794  0.89406622  0.31433270  1
  Nb  Nb110  1  0.90323197  0.49375568  0.70045606  1
  Nb  Nb111  1  0.30060379  0.89872551  0.49519369  1
  Nb  Nb112  1  0.09909570  0.30572931  0.70365030  1
  Nb  Nb113  1  0.70958796  0.30499867  0.31272750  1
  Nb  Nb114  1  0.69947297  0.90125019  0.10223131  1
  Nb  Nb115  1  0.89013488  0.90439370  0.10408778  1
  Nb  Nb116  1  0.69883284  0.69767471  0.69929305  1
  Nb  Nb117  1  0.89868741  0.89710114  0.29420185  1
  Nb  Nb118  1  0.50152001  0.89676416  0.10287210  1
  Nb  Nb119  1  0.29991930  0.29525584  0.89361743  1
  Nb  Nb120  1  0.30271510  0.30327098  0.70471105  1
  Nb  Nb121  1  0.30681016  0.89937299  0.89393011  1
  Nb  Nb122  1  0.69825656  0.69819065  0.30515404  1
  Nb  Nb123  1  0.49121659  0.09869465  0.30085636  1
  Nb  Nb124  1  0.10614742  0.50667728  0.30474802  1
  Nb  Nb125  1  -0.00441079  0.80911159  0.38868155  1
  Nb  Nb126  1  0.59871834  0.19606357  0.00356061  1
  Nb  Nb127  1  0.40215468  0.39593095  0.40686797  1
  Nb  Nb128  1  -0.00540873  -0.00452617  0.00320200  1
  Nb  Nb129  1  0.60185103  -0.00400870  0.00571818  1
  Nb  Nb130  1  -0.00165210  0.59024494  0.79321314  1
  Nb  Nb131  1  0.39966431  0.59953949  0.39873798  1
  Nb  Nb132  1  0.59960949  0.79372982  0.59815139  1
  Nb  Nb133  1  0.20155972  0.79937123  0.79370234  1
  Nb  Nb134  1  0.20576895  0.60242415  0.39389175  1
  Nb  Nb135  1  0.20204486  0.80281350  0.59952228  1
  Nb  Nb136  1  0.40308694  0.59692127  0.00530634  1
  Nb  Nb137  1  0.79815187  0.20924561  0.20978706  1
  Nb  Nb138  1  0.59298625  -0.00771160  0.59941983  1
  Nb  Nb139  1  0.59964183  0.60546626  0.79420073  1
  Nb  Nb140  1  0.39455878  -0.00084812  0.79620577  1
  Nb  Nb141  1  0.39956301  0.80689233  0.20319906  1
  Nb  Nb142  1  0.79991038  0.20916501  0.59787806  1
  Nb  Nb143  1  -0.00367409  -0.00824732  0.20099347  1
  Nb  Nb144  1  -0.00316869  0.00311553  0.80899935  1
  Nb  Nb145  1  0.39850314  0.19277195  0.20913873  1
  Nb  Nb146  1  0.60245105  0.79347943  0.40074889  1
  Nb  Nb147  1  0.80577211  0.39321236  0.59831404  1
  Nb  Nb148  1  0.40043752  0.00092684  0.60099279  1
  Nb  Nb149  1  0.20252196  0.60014659  0.20185828  1
  Pd  Pd150  1  -0.00630773  0.41258428  -0.00862631  1
  Pd  Pd151  1  0.19323308  0.60640859  0.79141812  1
  Pd  Pd152  1  0.60733772  0.79144484  0.80263059  1
  Pd  Pd153  1  0.19930491  0.21069010  0.60337322  1
  Pd  Pd154  1  0.59404675  0.39194393  0.00258952  1
  Pd  Pd155  1  0.59334584  0.40870108  0.79178050  1
  Pd  Pd156  1  0.20251329  0.39617626  0.60692988  1
  Pd  Pd157  1  0.80498568  0.01629300  0.21191028  1
  Pd  Pd158  1  0.79648075  0.39790417  0.01334660  1
  Pd  Pd159  1  0.21200766  0.59529584  0.00514193  1
  Pd  Pd160  1  0.79332949  0.20937440  0.79077142  1
  Pd  Pd161  1  0.20767471  0.61259695  0.59295440  1
  Pd  Pd162  1  0.19485340  -0.00625406  0.80565594  1
  Pd  Pd163  1  0.19394338  -0.00662256  -0.00655786  1
  Pd  Pd164  1  0.20109761  -0.00211667  0.59305457  1
  Pd  Pd165  1  0.20498773  0.20152446  0.20036034  1
  Pd  Pd166  1  0.78790150  0.21774574  0.01515415  1
  Pd  Pd167  1  0.60749430  0.80550646  -0.00335958  1
  Pd  Pd168  1  -0.01221833  0.58898628  -0.01370176  1
  Pd  Pd169  1  0.79566647  0.79711914  0.59846550  1
  Pd  Pd170  1  0.21028872  0.80256190  0.19722884  1
  Pd  Pd171  1  0.01231056  0.19941922  0.39474015  1
  Pd  Pd172  1  0.19563127  0.20148993  0.39578490  1
  Pd  Pd173  1  0.80121043  0.79783523  0.40118853  1
  Pd  Pd174  1  -0.00207235  -0.00408487  0.39468731  1
  Pd  Pd175  1  0.20761046  0.40795113  0.40508401  1
  Pd  Pd176  1  0.59245219  0.40607354  0.40074352  1
  Pd  Pd177  1  0.80009899  0.00614187  0.39247384  1
  Pd  Pd178  1  0.20844982  0.80251879  -0.00784633  1
  Pd  Pd179  1  0.00076393  0.19280554  0.81707775  1
  Pd  Pd180  1  0.00800506  0.60053950  0.20330644  1
  Pd  Pd181  1  0.39793472  0.19255710  0.60926258  1
  Pd  Pd182  1  0.79796099  -0.00645793  -0.00695872  1
  Pd  Pd183  1  -0.00353926  0.80021525  0.19845977  1
  Pd  Pd184  1  -0.00157089  0.40659093  0.81346605  1
  Pd  Pd185  1  -0.00690650  0.39177897  0.59000419  1
  Pd  Pd186  1  0.59867877  0.00418441  0.19744141  1
  Pd  Pd187  1  -0.00297614  0.18936185  0.20490887  1
  Pd  Pd188  1  -0.00269623  -0.00172010  0.60321111  1
  Pd  Pd189  1  0.00392092  0.18882104  -0.00292070  1
  Pd  Pd190  1  0.19450584  0.40118215  0.19880151  1
  Pd  Pd191  1  0.80650687  0.59205282  0.60705033  1
  Pd  Pd192  1  0.60785978  0.59801484  0.20029541  1
  Pd  Pd193  1  0.60052315  -0.00554812  0.40343171  1
  Pd  Pd194  1  0.00191176  0.40277204  0.39496893  1
  Pd  Pd195  1  0.39899053  0.21026398  0.39379270  1
  Pd  Pd196  1  0.39982231  0.79846025  0.60458123  1
  Pd  Pd197  1  0.79435717  0.79235202  0.19453491  1
  Pd  Pd198  1  0.40215832  0.40125692  -0.00653829  1
  Pd  Pd199  1  0.40828077  0.59759556  0.81231387  1
  Rh  Rh200  1  0.40649038  0.37895305  0.21840150  1
  Rh  Rh201  1  0.39061930  0.19142812  0.79092303  1
  Rh  Rh202  1  0.60985858  0.18543105  0.59074962  1
  Rh  Rh203  1  0.60538359  0.20032596  0.40874398  1
  Rh  Rh204  1  0.19983935  0.20959858  0.79538048  1
  Rh  Rh205  1  0.79812881  0.39934782  0.19938232  1
  Rh  Rh206  1  0.40740334  -0.00414652  -0.00940051  1
  Rh  Rh207  1  0.60461788  0.40815721  0.20757147  1
  Rh  Rh208  1  0.18890707  0.79537389  0.40787300  1
  Rh  Rh209  1  0.39755370  0.40112648  0.79828021  1
  Rh  Rh210  1  0.79740992  0.00833483  0.60203571  1
  Rh  Rh211  1  0.39463041  0.60298144  0.58839025  1
  Rh  Rh212  1  0.79837523  0.38921478  0.79009519  1
  Rh  Rh213  1  0.00405682  0.80927517  0.58353156  1
  Rh  Rh214  1  0.39334821  0.79877550  0.79743427  1
  Rh  Rh215  1  0.00883874  0.61227607  0.38824950  1
  Rh  Rh216  1  0.39679144  0.40022271  0.59796463  1
  Rh  Rh217  1  0.41375870  0.78837816  0.38618721  1
  Rh  Rh218  1  0.79531245  0.80220943  0.00617464  1
  Rh  Rh219  1  0.58756848  -0.00088290  0.80468392  1
  Rh  Rh220  1  0.79768264  0.79498412  0.79761205  1
  Rh  Rh221  1  0.79602133  0.19729047  0.39946804  1
  Rh  Rh222  1  0.79448662  0.60159170  0.19911147  1
  Rh  Rh223  1  0.40868160  0.19875761  0.01376300  1
  Rh  Rh224  1  0.80042170  0.60419125  0.79572810  1
  Rh  Rh225  1  -0.00313081  0.20856256  0.59101597  1
  Rh  Rh226  1  0.39017424  0.00306931  0.40598379  1
  Rh  Rh227  1  0.00469990  0.79776374  0.79690481  1
  Rh  Rh228  1  0.80084471  0.59958243  0.00365444  1
  Rh  Rh229  1  0.59927353  0.20381442  0.81063684  1
  Rh  Rh230  1  0.60555797  0.41076334  0.60341459  1
  Rh  Rh231  1  0.39997591  0.61153057  0.19823919  1
  Rh  Rh232  1  0.20159496  0.39602990  0.79259039  1
  Rh  Rh233  1  0.19927721  0.20540741  0.00219298  1
  Rh  Rh234  1  0.38999667  -0.00745616  0.20353001  1
  Rh  Rh235  1  0.39953651  0.79625823  0.00652505  1
  Rh  Rh236  1  0.59614572  0.18967151  0.19259500  1
  Rh  Rh237  1  -0.00820553  0.80560218  0.00967525  1
  Rh  Rh238  1  0.20432422  0.00096446  0.40537784  1
  Rh  Rh239  1  -0.00787636  0.59940601  0.60922618  1
  Rh  Rh240  1  0.60459020  0.59683264  0.60881050  1
  Rh  Rh241  1  0.20457801  -0.01051408  0.20041624  1
  Rh  Rh242  1  0.80931317  0.40754793  0.40571134  1
  Rh  Rh243  1  0.59861576  0.80433448  0.20708927  1
  Rh  Rh244  1  0.80426684  0.59630099  0.39682211  1
  Rh  Rh245  1  0.20675988  0.39595002  -0.00247654  1
  Rh  Rh246  1  0.59350355  0.60063665  0.39425358  1
  Rh  Rh247  1  0.00437689  0.40827965  0.20533023  1
  Rh  Rh248  1  0.81336878  -0.00604594  0.80309360  1
  Rh  Rh249  1  0.59350497  0.60335549  -0.01124608  1
