# generated using pymatgen
data_ZrScNbPdRh
_symmetry_space_group_name_H-M   'P 1'
_cell_length_a   16.55628094
_cell_length_b   16.55562363
_cell_length_c   16.55792962
_cell_angle_alpha   89.96340992
_cell_angle_beta   89.96380555
_cell_angle_gamma   90.01489833
_symmetry_Int_Tables_number   1
_chemical_formula_structural   ZrScNbPdRh
_chemical_formula_sum   'Zr50 Sc50 Nb50 Pd50 Rh50'
_cell_volume   4538.51917297
_cell_formula_units_Z   50
loop_
 _symmetry_equiv_pos_site_id
 _symmetry_equiv_pos_as_xyz
  1  'x, y, z'
loop_
 _atom_site_type_symbol
 _atom_site_label
 _atom_site_symmetry_multiplicity
 _atom_site_fract_x
 _atom_site_fract_y
 _atom_site_fract_z
 _atom_site_occupancy
  Zr  Zr0  1  0.49802475  0.90795334  0.50401652  1
  Zr  Zr1  1  0.09461807  0.69424502  0.10455835  1
  Zr  Zr2  1  0.49309737  0.49758013  0.29612130  1
  Zr  Zr3  1  0.89751825  0.30269229  0.09034734  1
  Zr  Zr4  1  0.69347196  0.30215438  0.29590953  1
  Zr  Zr5  1  0.29745948  0.49618638  0.90249615  1
  Zr  Zr6  1  0.29400488  0.68976042  0.30261925  1
  Zr  Zr7  1  0.09459684  0.49697115  0.09775884  1
  Zr  Zr8  1  0.08962832  0.69557190  0.69932825  1
  Zr  Zr9  1  0.50869484  0.50314798  0.89981316  1
  Zr  Zr10  1  0.31392380  0.29972305  0.50567211  1
  Zr  Zr11  1  0.08984840  0.89957946  0.50263915  1
  Zr  Zr12  1  0.70455876  0.89778013  0.30322730  1
  Zr  Zr13  1  0.30076322  0.90391112  0.69833861  1
  Zr  Zr14  1  0.29969016  0.89888425  0.29699856  1
  Zr  Zr15  1  0.09077928  0.70525100  0.90669430  1
  Zr  Zr16  1  0.90167729  0.10088284  0.70175191  1
  Zr  Zr17  1  0.70041267  0.70180454  0.70519118  1
  Zr  Zr18  1  0.49663572  0.30890209  0.90772058  1
  Zr  Zr19  1  0.90093524  0.49521155  0.49772074  1
  Zr  Zr20  1  0.89927507  0.90250827  0.30970439  1
  Zr  Zr21  1  0.29461322  0.30369828  0.90149907  1
  Zr  Zr22  1  0.49740194  0.49706691  0.10035350  1
  Zr  Zr23  1  0.09600012  0.10624088  0.10281003  1
  Zr  Zr24  1  0.90008991  0.29303731  0.49891378  1
  Zr  Zr25  1  0.50145207  0.89748180  0.29590160  1
  Zr  Zr26  1  0.28763755  0.89557384  0.50011023  1
  Zr  Zr27  1  0.51006909  0.09548840  0.69990293  1
  Zr  Zr28  1  0.69151419  0.69617211  0.49841742  1
  Zr  Zr29  1  0.29666983  0.29089904  0.10164749  1
  Zr  Zr30  1  0.90223395  0.89164091  0.90359485  1
  Zr  Zr31  1  0.50133199  0.30382049  0.10483341  1
  Zr  Zr32  1  0.50264699  0.30457017  0.67918960  1
  Zr  Zr33  1  0.49742807  0.68962155  0.50347795  1
  Zr  Zr34  1  0.28804323  0.10671349  0.70265494  1
  Zr  Zr35  1  0.70324007  0.69435338  0.90093984  1
  Zr  Zr36  1  0.70674280  0.09998186  0.69778675  1
  Zr  Zr37  1  0.89792123  0.09671679  0.90333460  1
  Zr  Zr38  1  0.69901332  0.08707575  0.89373074  1
  Zr  Zr39  1  0.10315651  0.89025418  0.30218439  1
  Zr  Zr40  1  0.89964872  0.09564838  0.10386559  1
  Zr  Zr41  1  0.70151961  0.69987654  0.09709843  1
  Zr  Zr42  1  0.30211186  0.10456165  0.29561793  1
  Zr  Zr43  1  0.70537575  0.90187838  0.49724754  1
  Zr  Zr44  1  0.09797115  0.30128845  0.50054206  1
  Zr  Zr45  1  0.89852697  0.50179131  0.09562287  1
  Zr  Zr46  1  0.29303531  0.89499909  0.89877025  1
  Zr  Zr47  1  0.11111884  0.29603362  0.70146574  1
  Zr  Zr48  1  0.09155754  0.09759664  0.89289911  1
  Zr  Zr49  1  0.11105379  0.70442572  0.49950216  1
  Sc  Sc50  1  0.50409817  0.69616225  0.70225307  1
  Sc  Sc51  1  0.09823437  0.90430322  0.70149257  1
  Sc  Sc52  1  0.50674821  0.70159149  0.89664111  1
  Sc  Sc53  1  0.89608123  0.29307430  0.30677854  1
  Sc  Sc54  1  0.70295782  0.09826499  0.50524271  1
  Sc  Sc55  1  0.29212572  0.10914875  0.90244184  1
  Sc  Sc56  1  0.69390946  0.49898724  0.70956994  1
  Sc  Sc57  1  0.30033337  0.70631769  0.89953090  1
  Sc  Sc58  1  0.71100369  0.09330462  0.09336288  1
  Sc  Sc59  1  0.49250803  0.29911218  0.29996549  1
  Sc  Sc60  1  0.50010693  0.10010329  0.10012083  1
  Sc  Sc61  1  0.09013392  0.88855508  0.10292021  1
  Sc  Sc62  1  0.90033581  0.69226661  0.09555706  1
  Sc  Sc63  1  0.30568241  0.70468104  0.70032427  1
  Sc  Sc64  1  0.09937355  0.30398682  0.09837528  1
  Sc  Sc65  1  0.09208743  0.09992915  0.50193737  1
  Sc  Sc66  1  0.90721681  0.71056402  0.49938520  1
  Sc  Sc67  1  0.70611056  0.89591253  0.90373809  1
  Sc  Sc68  1  0.90383070  0.50527149  0.70757844  1
  Sc  Sc69  1  0.90404426  0.89911756  0.69909119  1
  Sc  Sc70  1  0.51248776  0.90286785  0.90408612  1
  Sc  Sc71  1  0.50315342  0.89132825  0.09747635  1
  Sc  Sc72  1  0.50391572  0.10652515  0.49985354  1
  Sc  Sc73  1  0.69744717  0.69964417  0.30063256  1
  Sc  Sc74  1  0.70737367  0.10145572  0.29934911  1
  Sc  Sc75  1  0.30498295  0.51413704  0.50234355  1
  Sc  Sc76  1  0.50593311  0.89808182  0.69902428  1
  Sc  Sc77  1  0.70129566  0.29890977  0.09872133  1
  Sc  Sc78  1  0.09977142  0.30919013  0.89617492  1
  Sc  Sc79  1  0.30330185  0.09323716  0.49758337  1
  Sc  Sc80  1  0.10092300  0.29862290  0.28754180  1
  Sc  Sc81  1  0.49950574  0.50471538  0.50848605  1
  Sc  Sc82  1  0.50467662  0.70362496  0.09826333  1
  Sc  Sc83  1  0.10589006  0.50672586  0.51336509  1
  Sc  Sc84  1  0.69866524  0.29372217  0.50427419  1
  Sc  Sc85  1  0.29754178  0.49303090  0.10437739  1
  Sc  Sc86  1  0.49492485  0.69362795  0.29636418  1
  Sc  Sc87  1  0.29613338  0.50202027  0.69444782  1
  Sc  Sc88  1  0.89914242  0.49837170  0.89976666  1
  Sc  Sc89  1  0.90083932  0.29771029  0.70460848  1
  Sc  Sc90  1  0.89777271  0.69822148  0.89802944  1
  Sc  Sc91  1  0.30082415  0.70511314  0.10282073  1
  Sc  Sc92  1  0.50111952  0.10266695  0.30381946  1
  Sc  Sc93  1  0.90132571  0.70191939  0.71089687  1
  Sc  Sc94  1  0.50662970  0.09370179  0.90177850  1
  Sc  Sc95  1  0.70279934  0.50464193  0.09088925  1
  Sc  Sc96  1  0.89974570  0.50169892  0.29082604  1
  Sc  Sc97  1  0.08982976  0.10337323  0.30041460  1
  Sc  Sc98  1  0.09855241  0.49583064  0.70112810  1
  Sc  Sc99  1  0.89645561  0.30536321  0.89704923  1
  Nb  Nb100  1  0.70039499  0.89687208  0.10141299  1
  Nb  Nb101  1  0.90104780  0.90355565  0.49811557  1
  Nb  Nb102  1  0.89710941  0.69734149  0.29771828  1
  Nb  Nb103  1  0.90645443  0.09647955  0.49143321  1
  Nb  Nb104  1  0.09497453  0.10490017  0.70473026  1
  Nb  Nb105  1  0.09809163  0.89594937  0.90403380  1
  Nb  Nb106  1  0.10349275  0.50239114  0.90301046  1
  Nb  Nb107  1  0.09715747  0.69506621  0.29502379  1
  Nb  Nb108  1  0.10474519  0.50060565  0.29273603  1
  Nb  Nb109  1  0.70501215  0.29818927  0.69812155  1
  Nb  Nb110  1  0.88781942  0.90254014  0.10282831  1
  Nb  Nb111  1  0.30048478  0.70040797  0.50103442  1
  Nb  Nb112  1  0.29918893  0.30293051  0.30295091  1
  Nb  Nb113  1  0.70115686  0.31347167  0.89097769  1
  Nb  Nb114  1  0.30270670  0.30060244  0.70351237  1
  Nb  Nb115  1  0.70388909  0.49838278  0.89773758  1
  Nb  Nb116  1  0.90086295  0.09739175  0.30563231  1
  Nb  Nb117  1  0.69891836  0.50193050  0.30103052  1
  Nb  Nb118  1  0.30137023  0.49459685  0.29713602  1
  Nb  Nb119  1  0.70573917  0.90560148  0.70113999  1
  Nb  Nb120  1  0.29944950  0.90215759  0.10139526  1
  Nb  Nb121  1  0.49531146  0.50406102  0.70064440  1
  Nb  Nb122  1  0.29428551  0.09780388  0.09826910  1
  Nb  Nb123  1  0.50225333  0.30285139  0.49751750  1
  Nb  Nb124  1  0.69963567  0.50582961  0.49504474  1
  Nb  Nb125  1  0.59988587  0.40305902  0.40401941  1
  Nb  Nb126  1  0.60302446  0.21098875  0.80036640  1
  Nb  Nb127  1  0.60511677  0.20398074  -0.01011953  1
  Nb  Nb128  1  0.01020118  0.40731026  0.39579343  1
  Nb  Nb129  1  0.80425026  0.60040247  0.40072075  1
  Nb  Nb130  1  0.20393652  0.20844119  0.39864566  1
  Nb  Nb131  1  0.79733514  0.59977065  0.59555653  1
  Nb  Nb132  1  0.39588848  0.00409309  0.80367424  1
  Nb  Nb133  1  0.79600230  0.40266748  0.20069854  1
  Nb  Nb134  1  0.60202887  0.59462180  0.19973017  1
  Nb  Nb135  1  0.20171197  0.00006884  0.19297909  1
  Nb  Nb136  1  0.40131766  0.59775426  -0.00139945  1
  Nb  Nb137  1  0.79591691  0.40371116  0.60036066  1
  Nb  Nb138  1  0.38872768  -0.00268999  0.00110443  1
  Nb  Nb139  1  0.60618583  -0.00666274  0.19838872  1
  Nb  Nb140  1  0.40135295  0.39755603  0.79201302  1
  Nb  Nb141  1  0.20331659  0.40230205  0.39501061  1
  Nb  Nb142  1  0.19662900  -0.00405731  0.00377684  1
  Nb  Nb143  1  0.59141138  0.80050399  0.40268068  1
  Nb  Nb144  1  0.79839845  0.80122786  0.59809930  1
  Nb  Nb145  1  0.40538898  0.20376199  0.79676276  1
  Nb  Nb146  1  0.80258957  0.80069655  0.20117216  1
  Nb  Nb147  1  0.39670758  0.79677544  0.40590339  1
  Nb  Nb148  1  0.19445442  0.60016853  0.80609461  1
  Nb  Nb149  1  0.00413186  0.59986128  0.39216962  1
  Pd  Pd150  1  0.00394039  -0.00536615  0.20323903  1
  Pd  Pd151  1  0.80338778  0.20435245  0.19856262  1
  Pd  Pd152  1  0.00253286  -0.00789154  0.00566941  1
  Pd  Pd153  1  0.18741928  0.19890796  -0.00559392  1
  Pd  Pd154  1  0.39979675  0.00687101  0.60676319  1
  Pd  Pd155  1  0.60651753  0.18718749  0.18997206  1
  Pd  Pd156  1  0.79698945  0.20140648  0.80625080  1
  Pd  Pd157  1  0.40044033  0.18963159  0.60242570  1
  Pd  Pd158  1  0.20390809  0.59737844  0.19125087  1
  Pd  Pd159  1  -0.01086363  0.20721835  0.20171572  1
  Pd  Pd160  1  0.79361364  0.19500227  0.40420429  1
  Pd  Pd161  1  -0.00832845  0.60443397  0.59338859  1
  Pd  Pd162  1  0.20789645  0.60418709  0.00127946  1
  Pd  Pd163  1  0.60857577  0.40853853  0.59399053  1
  Pd  Pd164  1  0.59272836  0.39723246  0.79159863  1
  Pd  Pd165  1  0.61028215  0.39808472  0.00563648  1
  Pd  Pd166  1  -0.00428208  -0.00675534  0.79817421  1
  Pd  Pd167  1  0.19562385  0.59213907  0.40051990  1
  Pd  Pd168  1  0.79793320  0.40302145  0.39861967  1
  Pd  Pd169  1  0.39735683  0.79283126  0.20444973  1
  Pd  Pd170  1  0.20054489  0.19587717  0.58944618  1
  Pd  Pd171  1  -0.00234234  0.19936986  0.60412916  1
  Pd  Pd172  1  0.00228070  0.79276521  0.39807762  1
  Pd  Pd173  1  0.19991496  0.00045955  0.80564509  1
  Pd  Pd174  1  0.40531428  0.00126464  0.19311542  1
  Pd  Pd175  1  0.40249431  0.20022550  0.19978261  1
  Pd  Pd176  1  -0.00631248  0.39696569  0.60213037  1
  Pd  Pd177  1  0.60427811  0.80574858  0.80298303  1
  Pd  Pd178  1  0.39264741  0.59522527  0.80375650  1
  Pd  Pd179  1  0.40204297  0.40767373  0.40733388  1
  Pd  Pd180  1  0.39923108  -0.00258952  0.40009883  1
  Pd  Pd181  1  0.00018943  0.40045665  0.79983297  1
  Pd  Pd182  1  0.19199155  0.00976306  0.39288311  1
  Pd  Pd183  1  0.20858741  0.40128817  0.59412396  1
  Pd  Pd184  1  0.19658346  0.80070962  0.00892686  1
  Pd  Pd185  1  0.19588296  0.79824498  0.61114315  1
  Pd  Pd186  1  0.00221340  0.20801709  -0.00769668  1
  Pd  Pd187  1  0.41010683  0.80952387  0.80374282  1
  Pd  Pd188  1  0.81007267  -0.00285569  0.59850503  1
  Pd  Pd189  1  0.19002556  0.00703333  0.59982551  1
  Pd  Pd190  1  0.40765930  0.19091448  -0.00510893  1
  Pd  Pd191  1  0.40543251  0.79960270  -0.00489289  1
  Pd  Pd192  1  -0.01300724  0.79780516  0.19789819  1
  Pd  Pd193  1  0.79247166  0.20246447  -0.01058690  1
  Pd  Pd194  1  -0.01063896  0.39372334  0.20496215  1
  Pd  Pd195  1  0.40286384  0.79789109  0.59745956  1
  Pd  Pd196  1  0.60393038  0.80435191  0.59749621  1
  Pd  Pd197  1  0.19187138  0.79172830  0.79311009  1
  Pd  Pd198  1  0.60207560  0.00079414  0.39477882  1
  Pd  Pd199  1  0.60135013  0.20535914  0.40187878  1
  Rh  Rh200  1  0.20402942  0.79382578  0.39521700  1
  Rh  Rh201  1  0.80672195  0.20194257  0.59738068  1
  Rh  Rh202  1  0.60302442  0.59960532  0.80004462  1
  Rh  Rh203  1  0.39753142  0.60085884  0.39926384  1
  Rh  Rh204  1  0.39152438  0.39117287  0.19589033  1
  Rh  Rh205  1  0.60663519  0.40823778  0.20418558  1
  Rh  Rh206  1  0.20431075  0.40890589  0.79621715  1
  Rh  Rh207  1  0.20368569  0.60960243  0.61275117  1
  Rh  Rh208  1  -0.00030344  0.59816873  0.20229749  1
  Rh  Rh209  1  0.00238076  0.80450083  0.80128538  1
  Rh  Rh210  1  0.19954945  0.19631654  0.20594452  1
  Rh  Rh211  1  0.19748266  0.20258075  0.80577078  1
  Rh  Rh212  1  0.60416187  0.19710204  0.60112292  1
  Rh  Rh213  1  0.60879611  0.79765581  0.20535737  1
  Rh  Rh214  1  -0.00162853  0.00453214  0.60247421  1
  Rh  Rh215  1  0.79821155  -0.00411996  0.20479301  1
  Rh  Rh216  1  0.19649506  0.39715950  0.00708327  1
  Rh  Rh217  1  -0.00280044  0.59649417  -0.00433454  1
  Rh  Rh218  1  0.79619532  0.79120180  0.40263067  1
  Rh  Rh219  1  0.00738746  0.59623108  0.80935189  1
  Rh  Rh220  1  0.20416052  0.39760414  0.20071794  1
  Rh  Rh221  1  0.80745900  -0.00744351  0.80230777  1
  Rh  Rh222  1  0.79636786  0.40229603  0.00189585  1
  Rh  Rh223  1  0.40292583  0.60153908  0.19013089  1
  Rh  Rh224  1  0.80062269  0.80466365  0.79279965  1
  Rh  Rh225  1  0.59682981  0.00330862  0.01436849  1
  Rh  Rh226  1  0.60538907  0.79730017  -0.00488956  1
  Rh  Rh227  1  0.80287607  0.40531903  0.79160283  1
  Rh  Rh228  1  0.80222023  -0.00463756  -0.00374827  1
  Rh  Rh229  1  0.60342473  0.59391512  0.61205866  1
  Rh  Rh230  1  0.79231749  0.60150010  0.20551398  1
  Rh  Rh231  1  0.59516594  0.60149989  0.00438557  1
  Rh  Rh232  1  -0.00831618  0.79915531  0.00681208  1
  Rh  Rh233  1  0.60181698  -0.00507779  0.79432725  1
  Rh  Rh234  1  0.39806454  0.60435675  0.60781732  1
  Rh  Rh235  1  0.39763850  0.40877564  0.60075390  1
  Rh  Rh236  1  0.80279868  0.59825628  -0.00968409  1
  Rh  Rh237  1  -0.00524449  0.80212712  0.60157316  1
  Rh  Rh238  1  0.39820206  0.19913879  0.40132215  1
  Rh  Rh239  1  0.00582903  0.20571813  0.39647397  1
  Rh  Rh240  1  0.00079089  0.40188974  -0.00548553  1
  Rh  Rh241  1  0.60470503  0.00030353  0.59940369  1
  Rh  Rh242  1  0.20022481  0.79956038  0.19933011  1
  Rh  Rh243  1  0.00132734  0.20582747  0.80153953  1
  Rh  Rh244  1  0.39405542  0.40621453  0.00115537  1
  Rh  Rh245  1  0.79770386  0.59538162  0.79833867  1
  Rh  Rh246  1  0.00383664  -0.00074451  0.39801344  1
  Rh  Rh247  1  0.80198911  0.00965610  0.40300442  1
  Rh  Rh248  1  0.59714131  0.59690403  0.38867896  1
  Rh  Rh249  1  0.80297677  0.79733797  0.00722621  1
