# generated using pymatgen
data_ZrScNbPdRh
_symmetry_space_group_name_H-M   'P 1'
_cell_length_a   16.55740378
_cell_length_b   16.55663504
_cell_length_c   16.55967122
_cell_angle_alpha   89.98795119
_cell_angle_beta   89.99468485
_cell_angle_gamma   89.98274134
_symmetry_Int_Tables_number   1
_chemical_formula_structural   ZrScNbPdRh
_chemical_formula_sum   'Zr50 Sc50 Nb50 Pd50 Rh50'
_cell_volume   4539.58334921
_cell_formula_units_Z   50
loop_
 _symmetry_equiv_pos_site_id
 _symmetry_equiv_pos_as_xyz
  1  'x, y, z'
loop_
 _atom_site_type_symbol
 _atom_site_label
 _atom_site_symmetry_multiplicity
 _atom_site_fract_x
 _atom_site_fract_y
 _atom_site_fract_z
 _atom_site_occupancy
  Zr  Zr0  1  0.49783599  0.29781519  0.70769101  1
  Zr  Zr1  1  0.49624522  0.91288831  0.50591706  1
  Zr  Zr2  1  0.70828113  0.49366324  0.30497972  1
  Zr  Zr3  1  0.30267947  0.29176275  0.29386685  1
  Zr  Zr4  1  0.70890697  0.29360806  0.09875995  1
  Zr  Zr5  1  0.09741759  0.90076407  0.30824681  1
  Zr  Zr6  1  0.10233868  0.50006392  0.90484439  1
  Zr  Zr7  1  0.10408240  0.10706790  0.89685429  1
  Zr  Zr8  1  0.10968914  0.88374325  0.50708523  1
  Zr  Zr9  1  0.90664822  0.09937079  0.70503264  1
  Zr  Zr10  1  0.30272417  0.30031606  0.10220214  1
  Zr  Zr11  1  0.69961247  0.69772742  0.69996971  1
  Zr  Zr12  1  0.50146837  0.70746223  0.09843243  1
  Zr  Zr13  1  0.48586956  0.49855418  0.90896383  1
  Zr  Zr14  1  0.70787303  0.50477709  0.89503168  1
  Zr  Zr15  1  0.10501224  0.30386172  0.49730392  1
  Zr  Zr16  1  0.49876401  0.31403409  0.09609743  1
  Zr  Zr17  1  0.11167451  0.89411377  0.09917129  1
  Zr  Zr18  1  0.50113861  0.09312548  0.69282522  1
  Zr  Zr19  1  0.70604890  0.70367570  0.90414522  1
  Zr  Zr20  1  0.49702863  0.49074771  0.69606733  1
  Zr  Zr21  1  0.30679847  0.49722918  0.08467327  1
  Zr  Zr22  1  0.69600775  0.09732686  0.70256510  1
  Zr  Zr23  1  0.90164327  0.88987227  0.49026623  1
  Zr  Zr24  1  0.09168533  0.10388883  0.09802540  1
  Zr  Zr25  1  0.89863904  0.69818323  0.08906620  1
  Zr  Zr26  1  0.50422830  0.09542834  0.10088801  1
  Zr  Zr27  1  0.10377847  0.09312697  0.70576024  1
  Zr  Zr28  1  0.89886462  0.49735195  0.30450077  1
  Zr  Zr29  1  0.89229691  0.89822043  0.89948869  1
  Zr  Zr30  1  0.49929819  0.90021724  0.89966615  1
  Zr  Zr31  1  0.10250072  0.70334831  0.10045493  1
  Zr  Zr32  1  0.49898385  0.10139126  0.88721413  1
  Zr  Zr33  1  0.70496973  0.10083221  0.90557759  1
  Zr  Zr34  1  0.88794169  0.30518429  0.29801489  1
  Zr  Zr35  1  0.71046686  0.69570856  0.50682008  1
  Zr  Zr36  1  0.29922817  0.09711673  0.90726213  1
  Zr  Zr37  1  0.90053986  0.09206122  0.90322336  1
  Zr  Zr38  1  0.09264346  0.70410997  0.69285651  1
  Zr  Zr39  1  0.09250915  0.69934497  0.90466321  1
  Zr  Zr40  1  0.29880520  0.69940147  0.49043108  1
  Zr  Zr41  1  0.10349797  0.30048051  0.90094413  1
  Zr  Zr42  1  0.29737503  0.50303912  0.29730529  1
  Zr  Zr43  1  0.69840548  0.89649146  0.89884799  1
  Zr  Zr44  1  0.31112657  0.09158301  0.49142274  1
  Zr  Zr45  1  0.29711432  0.29291925  0.89643803  1
  Zr  Zr46  1  0.09585404  0.49720693  0.30628001  1
  Zr  Zr47  1  0.49758435  0.10674469  0.30745172  1
  Zr  Zr48  1  0.50592598  0.50716557  0.29758441  1
  Zr  Zr49  1  0.69107235  0.90241830  0.10513935  1
  Sc  Sc50  1  0.69686052  0.50245955  0.10762735  1
  Sc  Sc51  1  0.90051813  0.28535718  0.49593012  1
  Sc  Sc52  1  0.89949724  0.91687849  0.09958406  1
  Sc  Sc53  1  0.90061694  0.29290597  0.10503988  1
  Sc  Sc54  1  0.09463097  0.90565326  0.90233682  1
  Sc  Sc55  1  0.90398410  0.89415241  0.70278943  1
  Sc  Sc56  1  0.70568597  0.90386358  0.50136201  1
  Sc  Sc57  1  0.69383092  0.09531695  0.30565326  1
  Sc  Sc58  1  0.90794667  0.30822356  0.89410063  1
  Sc  Sc59  1  0.10063911  0.10713485  0.48829060  1
  Sc  Sc60  1  0.50373153  0.89952692  0.09656315  1
  Sc  Sc61  1  0.10074150  0.50104330  0.10041201  1
  Sc  Sc62  1  0.30139876  0.09976223  0.71091859  1
  Sc  Sc63  1  0.49577773  0.70122697  0.30419648  1
  Sc  Sc64  1  0.10801469  0.69337829  0.29907539  1
  Sc  Sc65  1  0.69250754  0.10379520  0.49790507  1
  Sc  Sc66  1  0.09678333  0.29405485  0.70600062  1
  Sc  Sc67  1  0.29942375  0.30976741  0.50118703  1
  Sc  Sc68  1  0.89812393  0.69946240  0.69778631  1
  Sc  Sc69  1  0.29714728  0.90229959  0.91391810  1
  Sc  Sc70  1  0.29075249  0.90877150  0.68603471  1
  Sc  Sc71  1  0.50778796  0.30224910  0.50214157  1
  Sc  Sc72  1  0.49807023  0.30093384  0.29290804  1
  Sc  Sc73  1  0.48867680  0.71013092  0.89332451  1
  Sc  Sc74  1  0.90571316  0.29590235  0.69992763  1
  Sc  Sc75  1  0.69749723  0.49990717  0.49827520  1
  Sc  Sc76  1  0.90256547  0.51008021  0.90322453  1
  Sc  Sc77  1  0.10804167  0.51447367  0.69148999  1
  Sc  Sc78  1  0.89586586  0.50547373  0.70944244  1
  Sc  Sc79  1  0.28707794  0.49699545  0.50507951  1
  Sc  Sc80  1  0.09975179  0.29402724  0.30043668  1
  Sc  Sc81  1  0.70327140  0.29654454  0.49014024  1
  Sc  Sc82  1  0.89790753  0.69316570  0.31303732  1
  Sc  Sc83  1  0.69429094  0.69453315  0.29747782  1
  Sc  Sc84  1  0.70033513  0.89840609  0.70349270  1
  Sc  Sc85  1  0.69469366  0.30513452  0.70013203  1
  Sc  Sc86  1  0.69903196  0.50021991  0.69468380  1
  Sc  Sc87  1  0.29672452  0.68582111  0.71385179  1
  Sc  Sc88  1  0.30061327  0.69473758  0.90282665  1
  Sc  Sc89  1  0.91114887  0.09089483  0.29858644  1
  Sc  Sc90  1  0.29749458  0.69920142  0.30729302  1
  Sc  Sc91  1  0.10224288  0.30274210  0.09361135  1
  Sc  Sc92  1  0.51155159  0.90270941  0.29450366  1
  Sc  Sc93  1  0.89988839  0.50162280  0.10683777  1
  Sc  Sc94  1  0.70133037  0.90497748  0.30421828  1
  Sc  Sc95  1  0.49503056  0.69005186  0.48922987  1
  Sc  Sc96  1  0.50618134  0.49885389  0.49751569  1
  Sc  Sc97  1  0.69032101  0.29787695  0.89908779  1
  Sc  Sc98  1  0.50329928  0.90504772  0.70735392  1
  Sc  Sc99  1  0.70042880  0.70692105  0.09706101  1
  Nb  Nb100  1  0.89961995  0.69583495  0.50961093  1
  Nb  Nb101  1  0.09675084  0.50119248  0.50310997  1
  Nb  Nb102  1  0.29593493  0.90478503  0.10389633  1
  Nb  Nb103  1  0.49570317  0.70172560  0.70141026  1
  Nb  Nb104  1  0.09789816  0.68797460  0.50995787  1
  Nb  Nb105  1  0.49829350  0.29482339  0.90052649  1
  Nb  Nb106  1  0.70759406  0.10108746  0.09768151  1
  Nb  Nb107  1  0.11144518  0.10050128  0.30004609  1
  Nb  Nb108  1  0.30266562  0.30792047  0.69192926  1
  Nb  Nb109  1  0.09925499  0.89743614  0.69655428  1
  Nb  Nb110  1  0.49515694  0.50240882  0.09830710  1
  Nb  Nb111  1  0.90159658  0.09644614  0.50749584  1
  Nb  Nb112  1  0.29453284  0.89658246  0.30923747  1
  Nb  Nb113  1  0.29353667  0.71292371  0.10394833  1
  Nb  Nb114  1  0.30144834  0.49408060  0.69689846  1
  Nb  Nb115  1  0.89922917  0.50653009  0.49580420  1
  Nb  Nb116  1  0.90295476  0.89442641  0.30114487  1
  Nb  Nb117  1  0.29977918  0.10343875  0.29754459  1
  Nb  Nb118  1  0.89323000  0.69780746  0.90582732  1
  Nb  Nb119  1  0.29693618  0.50709658  0.89019938  1
  Nb  Nb120  1  0.50374662  0.10064898  0.50221881  1
  Nb  Nb121  1  0.30260674  0.09847388  0.10067140  1
  Nb  Nb122  1  0.88576180  0.10429479  0.09221660  1
  Nb  Nb123  1  0.30430683  0.89078719  0.49252336  1
  Nb  Nb124  1  0.70209056  0.29758138  0.29685075  1
  Nb  Nb125  1  0.59304428  0.60126077  0.80278622  1
  Nb  Nb126  1  0.40358803  0.19887802  -0.00001054  1
  Nb  Nb127  1  0.20827644  0.19960442  0.60041312  1
  Nb  Nb128  1  0.39773248  0.59848858  0.60320711  1
  Nb  Nb129  1  0.80943034  0.00457880  0.59920101  1
  Nb  Nb130  1  0.39965180  0.19953283  0.60030751  1
  Nb  Nb131  1  0.60680954  0.20099726  0.19550623  1
  Nb  Nb132  1  0.39691278  0.60568994  0.19016284  1
  Nb  Nb133  1  0.79829088  0.39986521  0.00024390  1
  Nb  Nb134  1  0.20358381  0.00479957  0.20624484  1
  Nb  Nb135  1  0.40134123  0.79552716  0.59878875  1
  Nb  Nb136  1  0.19201989  0.80167810  0.79734584  1
  Nb  Nb137  1  0.59283670  0.79547589  0.59777448  1
  Nb  Nb138  1  0.38969128  -0.00107186  0.20329288  1
  Nb  Nb139  1  0.79980516  0.19616230  0.80133930  1
  Nb  Nb140  1  0.59934044  0.79998660  0.41062196  1
  Nb  Nb141  1  -0.00236563  0.40745946  0.59326920  1
  Nb  Nb142  1  0.59337514  0.59963793  -0.00412030  1
  Nb  Nb143  1  -0.00559465  0.80276394  0.20346068  1
  Nb  Nb144  1  0.39944264  0.40345218  0.39448779  1
  Nb  Nb145  1  0.80890938  0.80495953  0.20355192  1
  Nb  Nb146  1  0.80999637  0.40071580  0.59375398  1
  Nb  Nb147  1  0.20590231  0.40603862  0.79613078  1
  Nb  Nb148  1  0.00281678  -0.00407035  0.59564578  1
  Nb  Nb149  1  0.38890371  0.80637787  0.20174845  1
  Pd  Pd150  1  0.19486088  0.39920111  0.19885093  1
  Pd  Pd151  1  -0.00724070  0.20406281  -0.00386002  1
  Pd  Pd152  1  -0.00607765  0.80861912  0.00610696  1
  Pd  Pd153  1  0.40045027  0.21283216  0.41088772  1
  Pd  Pd154  1  0.59890002  0.20568394  0.60108715  1
  Pd  Pd155  1  0.00020515  0.60036286  0.79955851  1
  Pd  Pd156  1  0.01216852  0.41276924  0.78746363  1
  Pd  Pd157  1  0.38151037  0.81096292  0.78920808  1
  Pd  Pd158  1  0.60553694  0.39571630  0.20081051  1
  Pd  Pd159  1  0.19639264  0.00910718  0.58698504  1
  Pd  Pd160  1  -0.00039768  0.79971187  0.80360930  1
  Pd  Pd161  1  0.59104892  0.60268996  0.60188813  1
  Pd  Pd162  1  0.60181276  0.00158269  -0.00539593  1
  Pd  Pd163  1  0.00735209  -0.00285015  0.19849676  1
  Pd  Pd164  1  -0.00734191  0.39313149  0.40545939  1
  Pd  Pd165  1  0.00331533  -0.00110015  0.00156098  1
  Pd  Pd166  1  0.21437055  0.78688408  0.60827513  1
  Pd  Pd167  1  0.80340542  0.79585628  0.79431595  1
  Pd  Pd168  1  0.20496816  0.39795083  0.39271507  1
  Pd  Pd169  1  0.20274608  0.60434619  0.00454354  1
  Pd  Pd170  1  0.59631109  0.39490020  0.39560432  1
  Pd  Pd171  1  -0.00346979  0.19869305  0.39138754  1
  Pd  Pd172  1  0.79023355  0.79276402  0.39308485  1
  Pd  Pd173  1  0.19885166  -0.00008449  0.40447328  1
  Pd  Pd174  1  -0.00189499  0.20057705  0.20539690  1
  Pd  Pd175  1  0.80272226  0.18732989  0.39343169  1
  Pd  Pd176  1  0.80087843  0.39193753  0.79753868  1
  Pd  Pd177  1  0.00435958  0.60529427  0.40155734  1
  Pd  Pd178  1  0.79546069  0.20192909  0.60688346  1
  Pd  Pd179  1  0.40584361  -0.00722375  0.38894475  1
  Pd  Pd180  1  0.20296007  -0.01164614  0.80650085  1
  Pd  Pd181  1  0.59756937  0.40745802  0.80677247  1
  Pd  Pd182  1  0.38915203  -0.01126696  0.79829849  1
  Pd  Pd183  1  0.00329007  0.39480545  0.19686170  1
  Pd  Pd184  1  -0.00900207  0.40349450  0.00671190  1
  Pd  Pd185  1  0.01239953  0.19793670  0.59826586  1
  Pd  Pd186  1  0.79859842  0.00093983  0.20539102  1
  Pd  Pd187  1  0.19457003  0.19855168  0.19280621  1
  Pd  Pd188  1  0.80199082  0.60862062  0.19974565  1
  Pd  Pd189  1  0.39475314  0.39865694  0.80665380  1
  Pd  Pd190  1  0.59539142  0.60659288  0.19305185  1
  Pd  Pd191  1  0.60848537  0.40913720  -0.00406093  1
  Pd  Pd192  1  0.79849439  0.18508572  0.21163460  1
  Pd  Pd193  1  0.20598696  0.59626952  0.19210314  1
  Pd  Pd194  1  0.80276544  0.00687624  0.40356160  1
  Pd  Pd195  1  -0.00185640  0.60708012  0.20183083  1
  Pd  Pd196  1  0.00780745  0.78403045  0.39946799  1
  Pd  Pd197  1  0.59375339  0.19897064  0.00433311  1
  Pd  Pd198  1  0.39460654  0.80285859  0.00487425  1
  Pd  Pd199  1  0.00421525  0.00115856  0.40772749  1
  Rh  Rh200  1  0.80288161  0.39749423  0.40873131  1
  Rh  Rh201  1  0.59707554  0.79440862  -0.00973726  1
  Rh  Rh202  1  0.79758357  0.60680933  0.79818287  1
  Rh  Rh203  1  0.20539161  0.19723129  0.00843616  1
  Rh  Rh204  1  0.59922225  0.00891228  0.20203922  1
  Rh  Rh205  1  0.60442183  0.19804048  0.79733902  1
  Rh  Rh206  1  0.59942275  0.20547008  0.39172522  1
  Rh  Rh207  1  -0.00731397  0.80223556  0.59576952  1
  Rh  Rh208  1  0.61160041  0.39601446  0.59486359  1
  Rh  Rh209  1  0.60948039  0.60642778  0.40331243  1
  Rh  Rh210  1  0.80987549  0.21156869  -0.01379700  1
  Rh  Rh211  1  0.60422868  -0.00150165  0.80498797  1
  Rh  Rh212  1  0.39082952  0.39004358  -0.01118308  1
  Rh  Rh213  1  0.40075926  0.61332210  0.00598030  1
  Rh  Rh214  1  0.18411095  0.39307155  0.61113734  1
  Rh  Rh215  1  0.00019726  0.59645512  0.00296989  1
  Rh  Rh216  1  0.79304451  0.59157714  0.00558295  1
  Rh  Rh217  1  0.20078920  0.79620779  -0.01277755  1
  Rh  Rh218  1  0.79208367  -0.00758546  0.00379278  1
  Rh  Rh219  1  0.39531131  0.00146321  0.60168385  1
  Rh  Rh220  1  0.60576089  0.80013143  0.21153917  1
  Rh  Rh221  1  0.79677898  0.60054868  0.40153696  1
  Rh  Rh222  1  -0.00931273  0.59438770  0.60138821  1
  Rh  Rh223  1  0.19152047  0.79019696  0.40034437  1
  Rh  Rh224  1  0.20907861  0.60557669  0.59696462  1
  Rh  Rh225  1  -0.00586108  0.19606629  0.80954274  1
  Rh  Rh226  1  0.40087935  0.41492089  0.20763850  1
  Rh  Rh227  1  0.61156336  -0.00497229  0.59764311  1
  Rh  Rh228  1  0.00289465  -0.00652396  0.79612105  1
  Rh  Rh229  1  0.39387579  0.58439664  0.40157959  1
  Rh  Rh230  1  0.79848624  0.40264575  0.19312120  1
  Rh  Rh231  1  0.41150546  0.81006749  0.39726344  1
  Rh  Rh232  1  0.39670265  0.20080639  0.79680735  1
  Rh  Rh233  1  0.19828992  0.80628724  0.21152810  1
  Rh  Rh234  1  0.40627463  0.40186282  0.58568801  1
  Rh  Rh235  1  0.80396121  0.81084401  0.01152572  1
  Rh  Rh236  1  0.20682394  0.20878147  0.78789435  1
  Rh  Rh237  1  0.20834711  0.20301647  0.40458964  1
  Rh  Rh238  1  0.41063715  0.19251287  0.19046699  1
  Rh  Rh239  1  0.19085461  0.60051473  0.80312621  1
  Rh  Rh240  1  0.19161369  0.00736493  0.00606249  1
  Rh  Rh241  1  0.80569878  0.58898119  0.60215511  1
  Rh  Rh242  1  0.40779871  0.59229304  0.79204665  1
  Rh  Rh243  1  0.79970132  0.00321140  0.79329296  1
  Rh  Rh244  1  0.59713841  -0.00319584  0.40576846  1
  Rh  Rh245  1  0.60109038  0.79381547  0.79599460  1
  Rh  Rh246  1  0.20462498  0.40165006  -0.00853010  1
  Rh  Rh247  1  0.19252259  0.59795731  0.40616471  1
  Rh  Rh248  1  0.79923102  0.80903218  0.60221767  1
  Rh  Rh249  1  0.40492315  0.00310412  0.00508912  1
