# generated using pymatgen
data_ZrScNbPdRh
_symmetry_space_group_name_H-M   'P 1'
_cell_length_a   16.55578509
_cell_length_b   16.55879296
_cell_length_c   16.55978627
_cell_angle_alpha   90.00202614
_cell_angle_beta   89.99128664
_cell_angle_gamma   90.03452209
_symmetry_Int_Tables_number   1
_chemical_formula_structural   ZrScNbPdRh
_chemical_formula_sum   'Zr50 Sc50 Nb50 Pd50 Rh50'
_cell_volume   4539.76214958
_cell_formula_units_Z   50
loop_
 _symmetry_equiv_pos_site_id
 _symmetry_equiv_pos_as_xyz
  1  'x, y, z'
loop_
 _atom_site_type_symbol
 _atom_site_label
 _atom_site_symmetry_multiplicity
 _atom_site_fract_x
 _atom_site_fract_y
 _atom_site_fract_z
 _atom_site_occupancy
  Zr  Zr0  1  0.69945456  0.70183980  0.29880487  1
  Zr  Zr1  1  0.89878965  0.69821962  0.30933569  1
  Zr  Zr2  1  0.50343656  0.90046989  0.70326725  1
  Zr  Zr3  1  0.49948378  0.30843118  0.10368948  1
  Zr  Zr4  1  0.10186946  0.10237660  0.49714627  1
  Zr  Zr5  1  0.49276684  0.50176492  0.89773942  1
  Zr  Zr6  1  0.89088725  0.29999058  0.69818395  1
  Zr  Zr7  1  0.10714808  0.30754827  0.31228300  1
  Zr  Zr8  1  0.90554136  0.70681535  0.07888811  1
  Zr  Zr9  1  0.10633187  0.30075192  0.69560307  1
  Zr  Zr10  1  0.88663059  0.90617085  0.50455273  1
  Zr  Zr11  1  0.90573621  0.50413370  0.29599233  1
  Zr  Zr12  1  0.90133247  0.89015535  0.70468014  1
  Zr  Zr13  1  0.89616067  0.10014150  0.89909107  1
  Zr  Zr14  1  0.69267117  0.89909477  0.89447315  1
  Zr  Zr15  1  0.50115736  0.70439710  0.29709635  1
  Zr  Zr16  1  0.50110981  0.29820664  0.30144835  1
  Zr  Zr17  1  0.29672411  0.29905055  0.69666379  1
  Zr  Zr18  1  0.30382849  0.70647858  0.29987652  1
  Zr  Zr19  1  0.89725374  0.09947391  0.09571212  1
  Zr  Zr20  1  0.90594587  0.29425873  0.49291789  1
  Zr  Zr21  1  0.90313865  0.50891727  0.49922241  1
  Zr  Zr22  1  0.30228145  0.30158277  0.30286551  1
  Zr  Zr23  1  0.09239191  0.69515311  0.90208668  1
  Zr  Zr24  1  0.10397495  0.10046797  0.70686736  1
  Zr  Zr25  1  0.29857995  0.88748592  0.09314960  1
  Zr  Zr26  1  0.70336150  0.29898091  0.89989071  1
  Zr  Zr27  1  0.69552729  0.30163235  0.29458605  1
  Zr  Zr28  1  0.09447307  0.50054977  0.09777157  1
  Zr  Zr29  1  0.09554000  0.89153354  0.11120041  1
  Zr  Zr30  1  0.69998694  0.30367321  0.70348078  1
  Zr  Zr31  1  0.10335233  0.09579400  0.10060705  1
  Zr  Zr32  1  0.49821219  0.89473541  0.89977938  1
  Zr  Zr33  1  0.49835228  0.09879941  0.30451412  1
  Zr  Zr34  1  0.09574667  0.70689811  0.29916140  1
  Zr  Zr35  1  0.50258291  0.50458092  0.08809631  1
  Zr  Zr36  1  0.49755904  0.89285073  0.29981803  1
  Zr  Zr37  1  0.70191070  0.10714174  0.70860663  1
  Zr  Zr38  1  0.49393302  0.09347798  0.49927222  1
  Zr  Zr39  1  0.28966134  0.69487853  0.70149595  1
  Zr  Zr40  1  0.11104486  0.70082848  0.10154908  1
  Zr  Zr41  1  0.29728939  0.30342726  0.90565156  1
  Zr  Zr42  1  0.50773827  0.29609438  0.70155284  1
  Zr  Zr43  1  0.70544521  0.10055686  0.90501319  1
  Zr  Zr44  1  0.70708328  0.29357732  0.50739102  1
  Zr  Zr45  1  0.71900547  0.09016402  0.50184688  1
  Zr  Zr46  1  0.10153406  0.10301483  0.89690306  1
  Zr  Zr47  1  0.89030760  0.88511046  0.90791047  1
  Zr  Zr48  1  0.49687144  0.89846704  0.51148279  1
  Zr  Zr49  1  0.30601784  0.90154333  0.70597560  1
  Sc  Sc50  1  0.69717101  0.09383335  0.09916342  1
  Sc  Sc51  1  0.29724029  0.90206869  0.30601775  1
  Sc  Sc52  1  0.90894410  0.30627640  0.29791774  1
  Sc  Sc53  1  0.89855461  0.29984410  0.90570000  1
  Sc  Sc54  1  0.30154772  0.10512540  0.08324054  1
  Sc  Sc55  1  0.29854082  0.70812637  0.50562201  1
  Sc  Sc56  1  0.69456317  0.90260168  0.08674820  1
  Sc  Sc57  1  0.49623003  0.30634931  0.90132765  1
  Sc  Sc58  1  0.90241247  0.30802948  0.09432739  1
  Sc  Sc59  1  0.49362164  0.10730007  0.90245026  1
  Sc  Sc60  1  0.70550802  0.50053507  0.51266940  1
  Sc  Sc61  1  0.70474773  0.70191842  0.90236967  1
  Sc  Sc62  1  0.69361913  0.89422821  0.69426499  1
  Sc  Sc63  1  0.10091800  0.50044099  0.90038728  1
  Sc  Sc64  1  0.30160072  0.69237181  0.90585667  1
  Sc  Sc65  1  0.69046974  0.69349827  0.09564848  1
  Sc  Sc66  1  0.90120354  0.09314567  0.69745174  1
  Sc  Sc67  1  0.29997958  0.50536020  0.70708039  1
  Sc  Sc68  1  0.29574701  0.49641496  0.29088922  1
  Sc  Sc69  1  0.29711676  0.10248289  0.89197413  1
  Sc  Sc70  1  0.49423544  0.10377286  0.69906068  1
  Sc  Sc71  1  0.10532969  0.50138986  0.49810207  1
  Sc  Sc72  1  0.91311082  0.89535322  0.30557577  1
  Sc  Sc73  1  0.09305763  0.70158202  0.70038938  1
  Sc  Sc74  1  0.69714262  0.09676098  0.30265349  1
  Sc  Sc75  1  0.70482054  0.70989758  0.50145994  1
  Sc  Sc76  1  0.09961059  0.70344069  0.50382023  1
  Sc  Sc77  1  0.70834421  0.50882797  0.28738012  1
  Sc  Sc78  1  0.89739863  0.51024658  0.90320575  1
  Sc  Sc79  1  0.09992882  0.30463655  0.08901091  1
  Sc  Sc80  1  0.09810001  0.89426215  0.49979267  1
  Sc  Sc81  1  0.30519515  0.10313954  0.48872569  1
  Sc  Sc82  1  0.89984134  0.49826522  0.09583573  1
  Sc  Sc83  1  0.09172225  0.89426027  0.89126124  1
  Sc  Sc84  1  0.49731487  0.70568052  0.70785969  1
  Sc  Sc85  1  0.50233196  0.28675384  0.50282355  1
  Sc  Sc86  1  0.10499650  0.08047228  0.30385530  1
  Sc  Sc87  1  0.70382729  0.49867258  0.09248429  1
  Sc  Sc88  1  0.70196406  0.89294665  0.30883106  1
  Sc  Sc89  1  0.48857392  0.70173251  0.49813140  1
  Sc  Sc90  1  0.09732937  0.50430829  0.29081897  1
  Sc  Sc91  1  0.29881684  0.51225532  0.50873500  1
  Sc  Sc92  1  0.90133649  0.70085511  0.50144438  1
  Sc  Sc93  1  0.29884879  0.30410621  0.09365529  1
  Sc  Sc94  1  0.29569862  0.49840423  0.09585614  1
  Sc  Sc95  1  0.09636624  0.89943602  0.69745950  1
  Sc  Sc96  1  0.50394986  0.69548285  0.90529892  1
  Sc  Sc97  1  0.11062713  0.51097567  0.69884134  1
  Sc  Sc98  1  0.09872062  0.30147516  0.89919822  1
  Sc  Sc99  1  0.49256089  0.49673803  0.29094774  1
  Nb  Nb100  1  0.90195850  0.69932987  0.89102737  1
  Nb  Nb101  1  0.29852888  0.70071017  0.10077052  1
  Nb  Nb102  1  0.30495464  0.50154878  0.89753183  1
  Nb  Nb103  1  0.69614844  0.50020842  0.90509260  1
  Nb  Nb104  1  0.29321760  0.09810769  0.70291573  1
  Nb  Nb105  1  0.30532836  0.90431640  0.51025865  1
  Nb  Nb106  1  0.50027226  0.09699572  0.10172856  1
  Nb  Nb107  1  0.70580226  0.50117925  0.70339466  1
  Nb  Nb108  1  0.69844454  0.69013583  0.69927305  1
  Nb  Nb109  1  0.50484810  0.49626540  0.69767773  1
  Nb  Nb110  1  0.89918396  0.89840989  0.10013065  1
  Nb  Nb111  1  0.28634247  0.30749572  0.49513977  1
  Nb  Nb112  1  0.49475848  0.70827274  0.10041200  1
  Nb  Nb113  1  0.90064343  0.10008938  0.49461373  1
  Nb  Nb114  1  0.69845628  0.89931275  0.50424771  1
  Nb  Nb115  1  0.69995481  0.30185811  0.09787884  1
  Nb  Nb116  1  0.89232216  0.68376962  0.71285008  1
  Nb  Nb117  1  0.10898132  0.30398672  0.50091477  1
  Nb  Nb118  1  0.30421337  0.10020661  0.29815101  1
  Nb  Nb119  1  0.49686924  0.89931245  0.09853341  1
  Nb  Nb120  1  0.49873540  0.50111272  0.50147269  1
  Nb  Nb121  1  0.89810847  0.09872278  0.30526919  1
  Nb  Nb122  1  0.29412903  0.90071478  0.89896893  1
  Nb  Nb123  1  0.89358204  0.50635496  0.69910495  1
  Nb  Nb124  1  0.10019002  0.89162646  0.29768591  1
  Nb  Nb125  1  0.59917087  0.20409334  0.00709344  1
  Nb  Nb126  1  0.39898568  0.19406338  0.19960790  1
  Nb  Nb127  1  0.79731430  0.40164917  0.39884811  1
  Nb  Nb128  1  -0.00048720  -0.00501808  0.00170416  1
  Nb  Nb129  1  0.20264771  0.79981358  0.80333062  1
  Nb  Nb130  1  0.59810626  0.59806911  0.60393979  1
  Nb  Nb131  1  0.60037394  -0.00739945  0.40978898  1
  Nb  Nb132  1  0.20139830  0.19586403  0.20362252  1
  Nb  Nb133  1  0.59607079  0.59363652  0.40457281  1
  Nb  Nb134  1  0.00124529  0.39887983  0.60199529  1
  Nb  Nb135  1  0.80521412  0.80305816  0.19392305  1
  Nb  Nb136  1  0.20698012  0.00096792  0.60125221  1
  Nb  Nb137  1  -0.00529528  0.40699438  0.78818780  1
  Nb  Nb138  1  0.00362687  0.19488182  0.20425597  1
  Nb  Nb139  1  0.20110299  0.60638794  0.39362531  1
  Nb  Nb140  1  0.19461543  -0.00868930  -0.00522991  1
  Nb  Nb141  1  0.60487569  0.59178466  0.79439971  1
  Nb  Nb142  1  0.80506226  0.19638052  0.19970300  1
  Nb  Nb143  1  0.40192816  0.40080591  0.41076277  1
  Nb  Nb144  1  0.39926389  0.60977311  0.19057715  1
  Nb  Nb145  1  0.40289055  0.00061332  0.19215100  1
  Nb  Nb146  1  0.40327399  0.39957700  0.59863309  1
  Nb  Nb147  1  0.00319272  0.20265044  0.59316674  1
  Nb  Nb148  1  0.60146398  0.40669830  0.40406848  1
  Nb  Nb149  1  0.80583883  -0.00375926  0.20195372  1
  Pd  Pd150  1  0.80907001  0.61275872  0.18491898  1
  Pd  Pd151  1  0.19462863  0.39140918  0.19296670  1
  Pd  Pd152  1  0.00003754  -0.00747187  0.40503945  1
  Pd  Pd153  1  -0.00496978  0.20887575  0.79344946  1
  Pd  Pd154  1  0.59648993  0.79684318  0.41222167  1
  Pd  Pd155  1  0.80426045  0.39436014  0.20073565  1
  Pd  Pd156  1  0.39298028  0.79128426  0.80920619  1
  Pd  Pd157  1  0.39689462  0.20374766  0.80147308  1
  Pd  Pd158  1  0.60282043  -0.01032824  0.20767801  1
  Pd  Pd159  1  -0.00638684  -0.00532800  0.80775085  1
  Pd  Pd160  1  0.40009258  0.79372589  0.60717603  1
  Pd  Pd161  1  -0.00621287  0.00218393  0.20038244  1
  Pd  Pd162  1  0.79931083  -0.00753966  0.79624325  1
  Pd  Pd163  1  0.60576723  0.18937411  0.59636676  1
  Pd  Pd164  1  0.39772097  0.39728169  0.79052778  1
  Pd  Pd165  1  0.20374231  -0.00737317  0.40781694  1
  Pd  Pd166  1  0.40073049  0.79430259  -0.00810423  1
  Pd  Pd167  1  0.40420106  0.00540599  0.80381494  1
  Pd  Pd168  1  0.00947600  0.19593119  0.39425184  1
  Pd  Pd169  1  0.80678149  0.40672115  0.80986389  1
  Pd  Pd170  1  0.20297265  0.59458995  -0.00325766  1
  Pd  Pd171  1  0.59246579  0.00595082  -0.00796040  1
  Pd  Pd172  1  0.61060848  0.80768146  0.18989816  1
  Pd  Pd173  1  0.39632398  0.59203714  0.38940888  1
  Pd  Pd174  1  0.79043126  0.79626946  0.79286585  1
  Pd  Pd175  1  0.80903116  0.40238329  0.59247427  1
  Pd  Pd176  1  0.00368387  0.59819289  0.60275387  1
  Pd  Pd177  1  0.00042789  0.41024791  0.40489145  1
  Pd  Pd178  1  0.60497924  0.00758363  0.60095375  1
  Pd  Pd179  1  0.59798827  0.40131568  0.59419125  1
  Pd  Pd180  1  -0.00664967  0.60937186  0.19113894  1
  Pd  Pd181  1  0.79795649  0.20680969  0.38880356  1
  Pd  Pd182  1  0.59222031  0.59602046  0.20160434  1
  Pd  Pd183  1  -0.00848981  0.79399532  0.60188094  1
  Pd  Pd184  1  0.60901530  0.19329521  0.40908835  1
  Pd  Pd185  1  0.21429530  -0.00094418  0.19171825  1
  Pd  Pd186  1  0.38969984  0.20270541  0.59522239  1
  Pd  Pd187  1  0.60111878  0.40334596  0.80683785  1
  Pd  Pd188  1  0.59253807  0.00953502  0.80315664  1
  Pd  Pd189  1  0.80255624  0.79233428  0.60783867  1
  Pd  Pd190  1  0.20427646  0.19120100  0.59444249  1
  Pd  Pd191  1  0.40491777  0.59996779  0.60985445  1
  Pd  Pd192  1  0.00280338  0.19795115  0.00457829  1
  Pd  Pd193  1  0.00448434  0.00478269  0.59554346  1
  Pd  Pd194  1  0.60332941  0.41316743  0.20139326  1
  Pd  Pd195  1  0.20332055  0.80092421  0.40464111  1
  Pd  Pd196  1  0.39438909  -0.00099986  -0.00185490  1
  Pd  Pd197  1  0.60200881  0.19604473  0.19262060  1
  Pd  Pd198  1  0.19426363  0.40384546  0.80245550  1
  Pd  Pd199  1  0.78810908  0.59592009  0.40632526  1
  Rh  Rh200  1  0.19848739  0.60675514  0.80763602  1
  Rh  Rh201  1  0.59783248  0.19897412  0.81057623  1
  Rh  Rh202  1  0.39445362  0.40466334  -0.00013279  1
  Rh  Rh203  1  -0.00220474  0.40576663  -0.01281103  1
  Rh  Rh204  1  0.19818072  -0.00983810  0.79877739  1
  Rh  Rh205  1  0.60084700  0.60084662  -0.00704347  1
  Rh  Rh206  1  0.39486390  0.21027325  0.40132577  1
  Rh  Rh207  1  0.79975197  0.40326517  -0.00271076  1
  Rh  Rh208  1  0.79790240  -0.00826918  0.39230064  1
  Rh  Rh209  1  0.79572941  0.60718590  0.59701054  1
  Rh  Rh210  1  -0.00202680  0.80354353  0.40805336  1
  Rh  Rh211  1  0.80478024  0.80459696  0.39756314  1
  Rh  Rh212  1  0.20473815  0.20921051  0.80564970  1
  Rh  Rh213  1  0.19923574  0.19457169  0.39117380  1
  Rh  Rh214  1  0.20244477  0.80979278  0.61067344  1
  Rh  Rh215  1  0.40969854  0.20674376  0.00763918  1
  Rh  Rh216  1  0.00654330  0.39207721  0.19553967  1
  Rh  Rh217  1  0.79144259  0.59571202  0.81044054  1
  Rh  Rh218  1  0.20783923  0.41916610  0.40440047  1
  Rh  Rh219  1  0.00118217  0.59295900  0.79776847  1
  Rh  Rh220  1  0.39725029  0.40116631  0.19767887  1
  Rh  Rh221  1  0.20042532  0.40687132  -0.00534984  1
  Rh  Rh222  1  0.39574277  0.80821328  0.40738148  1
  Rh  Rh223  1  0.79927547  -0.00244688  0.61226923  1
  Rh  Rh224  1  0.00938346  0.80510160  -0.00252679  1
  Rh  Rh225  1  0.80505016  0.19976926  0.80012637  1
  Rh  Rh226  1  0.80443431  -0.00594495  0.00187417  1
  Rh  Rh227  1  0.20444295  0.40912224  0.60021576  1
  Rh  Rh228  1  0.40471581  -0.00874221  0.39430985  1
  Rh  Rh229  1  0.20623473  0.80325602  0.20630519  1
  Rh  Rh230  1  0.40611293  0.60118880  0.79815058  1
  Rh  Rh231  1  0.19352014  0.80184606  -0.01013406  1
  Rh  Rh232  1  0.60252443  0.39421159  -0.00362759  1
  Rh  Rh233  1  0.01301286  0.60066430  0.39976515  1
  Rh  Rh234  1  0.79955072  0.60294361  -0.00259981  1
  Rh  Rh235  1  0.78852537  0.79676473  0.00587351  1
  Rh  Rh236  1  0.19608200  0.19602525  -0.00154315  1
  Rh  Rh237  1  0.79143595  0.20315369  0.00880007  1
  Rh  Rh238  1  0.39144072  0.00936253  0.60704898  1
  Rh  Rh239  1  0.60367834  0.79039023  0.80096635  1
  Rh  Rh240  1  0.59669203  0.79828763  -0.00004196  1
  Rh  Rh241  1  0.80935545  0.19093568  0.60423670  1
  Rh  Rh242  1  -0.00003715  0.59697574  0.00018452  1
  Rh  Rh243  1  0.39538188  0.80282285  0.19782487  1
  Rh  Rh244  1  0.19628949  0.60575641  0.59254512  1
  Rh  Rh245  1  -0.00033850  0.79297143  0.79606895  1
  Rh  Rh246  1  0.59748189  0.78982348  0.60081380  1
  Rh  Rh247  1  0.39625484  0.60170980  0.00651470  1
  Rh  Rh248  1  -0.00949840  0.79177947  0.20130113  1
  Rh  Rh249  1  0.20851121  0.60674477  0.20465539  1
