# generated using pymatgen
data_ZrScNbPdRh
_symmetry_space_group_name_H-M   'P 1'
_cell_length_a   16.55622834
_cell_length_b   16.56008568
_cell_length_c   16.55893775
_cell_angle_alpha   90.02672323
_cell_angle_beta   89.97425745
_cell_angle_gamma   90.00590411
_symmetry_Int_Tables_number   1
_chemical_formula_structural   ZrScNbPdRh
_chemical_formula_sum   'Zr50 Sc50 Nb50 Pd50 Rh50'
_cell_volume   4540.00537482
_cell_formula_units_Z   50
loop_
 _symmetry_equiv_pos_site_id
 _symmetry_equiv_pos_as_xyz
  1  'x, y, z'
loop_
 _atom_site_type_symbol
 _atom_site_label
 _atom_site_symmetry_multiplicity
 _atom_site_fract_x
 _atom_site_fract_y
 _atom_site_fract_z
 _atom_site_occupancy
  Zr  Zr0  1  0.70849113  0.70303648  0.69428041  1
  Zr  Zr1  1  0.10370478  0.70250963  0.89762069  1
  Zr  Zr2  1  0.29316535  0.71078618  0.69107113  1
  Zr  Zr3  1  0.50366086  0.29620359  0.10322875  1
  Zr  Zr4  1  0.10287421  0.90363806  0.29813894  1
  Zr  Zr5  1  0.10020958  0.50783836  0.50670670  1
  Zr  Zr6  1  0.10357817  0.10089169  0.49671405  1
  Zr  Zr7  1  0.90612750  0.89875543  0.10222300  1
  Zr  Zr8  1  0.90776726  0.90270440  0.30948351  1
  Zr  Zr9  1  0.30023605  0.70547475  0.30625086  1
  Zr  Zr10  1  0.90153620  0.69599893  0.09593257  1
  Zr  Zr11  1  0.89742728  0.10658513  0.29622125  1
  Zr  Zr12  1  0.48922593  0.70137393  0.48761444  1
  Zr  Zr13  1  0.49977654  0.29986700  0.51390292  1
  Zr  Zr14  1  0.30171994  0.50890541  0.90570183  1
  Zr  Zr15  1  0.70016179  0.90155249  0.30004623  1
  Zr  Zr16  1  0.90522854  0.70325606  0.30299249  1
  Zr  Zr17  1  0.70108078  0.49934430  0.30147370  1
  Zr  Zr18  1  0.69809105  0.09637404  0.29965874  1
  Zr  Zr19  1  0.49976837  0.70416067  0.10112984  1
  Zr  Zr20  1  0.10598998  0.49635364  0.11210876  1
  Zr  Zr21  1  0.30376562  0.49767075  0.70151122  1
  Zr  Zr22  1  0.09948034  0.50808641  0.30470555  1
  Zr  Zr23  1  0.29528580  0.89913936  0.89680755  1
  Zr  Zr24  1  0.49618644  0.90046182  0.90084106  1
  Zr  Zr25  1  0.69725972  0.29969277  0.70151621  1
  Zr  Zr26  1  0.70202549  0.69432173  0.30301402  1
  Zr  Zr27  1  0.69585365  0.70967261  0.88568958  1
  Zr  Zr28  1  0.30790102  0.89523082  0.50144432  1
  Zr  Zr29  1  0.49785470  0.09974024  0.09293433  1
  Zr  Zr30  1  0.49684613  0.29334028  0.89341044  1
  Zr  Zr31  1  0.91014394  0.69915500  0.90007370  1
  Zr  Zr32  1  0.10832900  0.69531518  0.49745064  1
  Zr  Zr33  1  0.30156787  0.30720372  0.11195619  1
  Zr  Zr34  1  0.09932896  0.70714690  0.30084135  1
  Zr  Zr35  1  0.29610694  0.49723680  0.29234471  1
  Zr  Zr36  1  0.09777230  0.29720345  0.89322976  1
  Zr  Zr37  1  0.90315452  0.29183490  0.10594399  1
  Zr  Zr38  1  0.69558549  0.29542553  0.49981743  1
  Zr  Zr39  1  0.69454377  0.10006687  0.10211371  1
  Zr  Zr40  1  0.29676859  0.69743602  0.09097892  1
  Zr  Zr41  1  0.90608690  0.70899446  0.50715924  1
  Zr  Zr42  1  0.50491207  0.70131390  0.70782624  1
  Zr  Zr43  1  0.29220509  0.90821997  0.69957688  1
  Zr  Zr44  1  0.50057966  0.90710212  0.49800523  1
  Zr  Zr45  1  0.09286142  0.29403081  0.50387940  1
  Zr  Zr46  1  0.49208392  0.90476278  0.69391627  1
  Zr  Zr47  1  0.50018900  0.30264810  0.70190645  1
  Zr  Zr48  1  0.70842933  0.89302692  0.70694878  1
  Zr  Zr49  1  0.30631243  0.30084067  0.70582166  1
  Sc  Sc50  1  0.09259202  0.50484141  0.89094300  1
  Sc  Sc51  1  0.10022531  0.90621894  0.11047728  1
  Sc  Sc52  1  0.49933631  0.69860795  0.90507655  1
  Sc  Sc53  1  0.29354766  0.09779319  0.09075447  1
  Sc  Sc54  1  0.69324433  0.09767945  0.49108174  1
  Sc  Sc55  1  0.69392943  0.90200373  0.10171179  1
  Sc  Sc56  1  0.90753836  0.50354365  0.29189995  1
  Sc  Sc57  1  0.29686786  0.28751798  0.50332804  1
  Sc  Sc58  1  0.09127970  0.91078320  0.49755954  1
  Sc  Sc59  1  0.49394692  0.09816950  0.69608896  1
  Sc  Sc60  1  0.70510584  0.90118628  0.90486385  1
  Sc  Sc61  1  0.49529051  0.50832079  0.30173751  1
  Sc  Sc62  1  0.09273123  0.70627132  0.69673064  1
  Sc  Sc63  1  0.50074306  0.10048493  0.30567579  1
  Sc  Sc64  1  0.49830058  0.69926518  0.29605092  1
  Sc  Sc65  1  0.08740631  0.30595135  0.29464271  1
  Sc  Sc66  1  0.29553951  0.09594451  0.70009457  1
  Sc  Sc67  1  0.71421538  0.69546464  0.49785586  1
  Sc  Sc68  1  0.69941450  0.49975331  0.69828841  1
  Sc  Sc69  1  0.29320391  0.89466198  0.09778405  1
  Sc  Sc70  1  0.69358054  0.28489813  0.29582824  1
  Sc  Sc71  1  0.09367923  0.29267805  0.10094444  1
  Sc  Sc72  1  0.29651779  0.29012755  0.89452738  1
  Sc  Sc73  1  0.29838053  0.50577767  0.10585975  1
  Sc  Sc74  1  0.09896105  0.89986027  0.89304481  1
  Sc  Sc75  1  0.90033393  0.08934027  0.70627027  1
  Sc  Sc76  1  0.90176351  0.90294708  0.89767252  1
  Sc  Sc77  1  0.49704801  0.89508696  0.29843787  1
  Sc  Sc78  1  0.50304186  0.50141567  0.89545068  1
  Sc  Sc79  1  0.90523895  0.29367740  0.89663146  1
  Sc  Sc80  1  0.10490861  0.09633055  0.69849548  1
  Sc  Sc81  1  0.10221461  0.10381639  0.90323930  1
  Sc  Sc82  1  0.91168071  0.50316876  0.50009950  1
  Sc  Sc83  1  0.91933738  0.50636257  0.69923880  1
  Sc  Sc84  1  0.49795473  0.48817162  0.70274648  1
  Sc  Sc85  1  0.49777406  0.09688177  0.49844173  1
  Sc  Sc86  1  0.70749038  0.91063303  0.49872983  1
  Sc  Sc87  1  0.49362833  0.29518779  0.29521729  1
  Sc  Sc88  1  0.50010040  0.89631516  0.09842033  1
  Sc  Sc89  1  0.70009587  0.49600829  0.90865635  1
  Sc  Sc90  1  0.09392889  0.09774558  0.09847410  1
  Sc  Sc91  1  0.90465737  0.09874321  0.10096792  1
  Sc  Sc92  1  0.91591184  0.29354857  0.70498866  1
  Sc  Sc93  1  0.10350664  0.70281456  0.10148234  1
  Sc  Sc94  1  0.70023085  0.70255629  0.09341150  1
  Sc  Sc95  1  0.71143137  0.10097988  0.71107426  1
  Sc  Sc96  1  0.29944996  0.29740293  0.30287268  1
  Sc  Sc97  1  0.69631860  0.29593509  0.89240538  1
  Sc  Sc98  1  0.70473588  0.50590023  0.49775957  1
  Sc  Sc99  1  0.29634052  0.09971348  0.31571323  1
  Nb  Nb100  1  0.70085293  0.48826120  0.09849806  1
  Nb  Nb101  1  0.70264025  0.09604630  0.89971451  1
  Nb  Nb102  1  0.10737996  0.30694939  0.70681540  1
  Nb  Nb103  1  0.90068732  0.50299429  0.90031680  1
  Nb  Nb104  1  0.89621453  0.29990909  0.29725143  1
  Nb  Nb105  1  0.89069452  0.49818821  0.08838686  1
  Nb  Nb106  1  0.49618241  0.50218790  0.49853843  1
  Nb  Nb107  1  0.29208881  0.09454425  0.49817826  1
  Nb  Nb108  1  0.10353728  0.50140298  0.70100798  1
  Nb  Nb109  1  0.90326996  0.29284170  0.49640524  1
  Nb  Nb110  1  0.30353970  0.09202257  0.89528127  1
  Nb  Nb111  1  0.90502726  0.09667238  0.50010828  1
  Nb  Nb112  1  0.89596398  0.71097935  0.70030753  1
  Nb  Nb113  1  0.50676656  0.49149692  0.09891158  1
  Nb  Nb114  1  0.29678590  0.70262452  0.90082578  1
  Nb  Nb115  1  0.49971613  0.09385313  0.90453254  1
  Nb  Nb116  1  0.69882795  0.30230131  0.09928212  1
  Nb  Nb117  1  0.09741323  0.90630904  0.70310149  1
  Nb  Nb118  1  0.88540092  0.10297921  0.89826918  1
  Nb  Nb119  1  0.90245966  0.91260997  0.50496223  1
  Nb  Nb120  1  0.10730019  0.09268023  0.29996639  1
  Nb  Nb121  1  0.29900718  0.69786979  0.50071389  1
  Nb  Nb122  1  0.29499644  0.90560028  0.29770130  1
  Nb  Nb123  1  0.29580942  0.50495845  0.50042544  1
  Nb  Nb124  1  0.90424858  0.89453886  0.69322001  1
  Nb  Nb125  1  0.19890087  0.40175177  0.40771807  1
  Nb  Nb126  1  0.80801928  0.20156567  0.59371984  1
  Nb  Nb127  1  0.39145638  -0.00047483  0.20277138  1
  Nb  Nb128  1  0.19714716  0.39971224  0.60258282  1
  Nb  Nb129  1  0.79822880  0.39671723  0.19650909  1
  Nb  Nb130  1  0.80430128  0.38962896  0.39772024  1
  Nb  Nb131  1  0.80870016  0.59936088  0.80158981  1
  Nb  Nb132  1  0.80398075  0.79843480  0.20296715  1
  Nb  Nb133  1  0.19758660  0.39997260  -0.00023190  1
  Nb  Nb134  1  0.60255888  0.79883196  0.40511175  1
  Nb  Nb135  1  0.60093785  0.79779203  0.59402629  1
  Nb  Nb136  1  0.39301954  0.80041019  0.80118323  1
  Nb  Nb137  1  0.39781985  0.40408464  0.40876399  1
  Nb  Nb138  1  0.59597216  0.40050296  0.40321343  1
  Nb  Nb139  1  0.20252162  0.60573638  0.79684207  1
  Nb  Nb140  1  0.19700389  0.19447718  0.20457400  1
  Nb  Nb141  1  0.59114133  0.60459315  0.59399088  1
  Nb  Nb142  1  0.39911998  0.60019051  0.59488884  1
  Nb  Nb143  1  0.80968776  0.40508894  0.79777314  1
  Nb  Nb144  1  -0.00311603  0.40428034  0.00065005  1
  Nb  Nb145  1  0.79527607  0.19695840  -0.00127136  1
  Nb  Nb146  1  0.39973790  0.39836894  0.00365471  1
  Nb  Nb147  1  0.60384811  0.59051804  0.18938891  1
  Nb  Nb148  1  0.59893323  0.00320924  0.80730032  1
  Nb  Nb149  1  0.80963200  0.39116994  0.59788968  1
  Pd  Pd150  1  0.40918280  0.59413450  0.00637651  1
  Pd  Pd151  1  0.59953400  0.39990206  0.21250722  1
  Pd  Pd152  1  0.18769215  0.81284875  0.59289166  1
  Pd  Pd153  1  0.40493909  0.59844939  0.19317209  1
  Pd  Pd154  1  -0.00063396  0.40252167  0.39950072  1
  Pd  Pd155  1  0.60183815  0.80396865  -0.00150077  1
  Pd  Pd156  1  0.39460751  0.60763824  0.79376356  1
  Pd  Pd157  1  0.20231011  0.20687768  0.00515445  1
  Pd  Pd158  1  0.59329635  0.39298503  -0.00970272  1
  Pd  Pd159  1  -0.00100461  0.00318250  0.80397981  1
  Pd  Pd160  1  0.39177916  0.20503098  -0.00075713  1
  Pd  Pd161  1  0.00054926  0.60059744  0.19220972  1
  Pd  Pd162  1  0.39273430  0.80617738  0.19879036  1
  Pd  Pd163  1  0.60902573  0.59127198  0.79561711  1
  Pd  Pd164  1  0.79925267  0.80683367  0.40276207  1
  Pd  Pd165  1  0.20048518  0.20366236  0.60931385  1
  Pd  Pd166  1  0.19300865  -0.00362759  -0.00320283  1
  Pd  Pd167  1  0.79693981  0.00850436  0.60132339  1
  Pd  Pd168  1  0.60819407  0.18422072  0.60709634  1
  Pd  Pd169  1  0.80397067  -0.00641400  0.19711122  1
  Pd  Pd170  1  0.60778589  0.41099543  0.59464898  1
  Pd  Pd171  1  0.19655410  0.80979107  0.40647787  1
  Pd  Pd172  1  0.39906619  0.18791364  0.79751996  1
  Pd  Pd173  1  0.61192290  0.00010578  0.61193750  1
  Pd  Pd174  1  0.01035721  0.59267136  0.00749515  1
  Pd  Pd175  1  0.58589757  -0.00005608  0.20265633  1
  Pd  Pd176  1  0.18981559  0.80757898  0.00320802  1
  Pd  Pd177  1  0.80155808  0.00276808  0.00671547  1
  Pd  Pd178  1  0.00910017  0.80660770  0.00207709  1
  Pd  Pd179  1  0.79553125  0.59882811  0.19326970  1
  Pd  Pd180  1  0.60424706  0.60078385  0.00220627  1
  Pd  Pd181  1  0.60610886  0.20133146  -0.00364017  1
  Pd  Pd182  1  0.78948218  0.60615175  -0.00935239  1
  Pd  Pd183  1  0.39474773  -0.00662109  0.00851106  1
  Pd  Pd184  1  0.00523616  0.19498801  0.39087583  1
  Pd  Pd185  1  0.40372549  0.20456937  0.40671568  1
  Pd  Pd186  1  0.38926524  0.18357562  0.20293861  1
  Pd  Pd187  1  0.00443078  0.18680131  0.79698912  1
  Pd  Pd188  1  0.80764943  0.58882132  0.60664485  1
  Pd  Pd189  1  0.81446273  0.59018495  0.40215448  1
  Pd  Pd190  1  0.80040125  0.80122383  0.00130148  1
  Pd  Pd191  1  0.00884821  0.80570793  0.59609613  1
  Pd  Pd192  1  0.20299801  0.40789273  0.80583108  1
  Pd  Pd193  1  -0.00149116  0.18955402  0.60903891  1
  Pd  Pd194  1  0.80623072  0.38586302  -0.00546068  1
  Pd  Pd195  1  0.39385413  0.19135934  0.59938470  1
  Pd  Pd196  1  0.00212905  0.39707626  0.60477900  1
  Pd  Pd197  1  0.59498479  0.18758447  0.79622226  1
  Pd  Pd198  1  0.79797459  0.19728133  0.40381441  1
  Pd  Pd199  1  0.00014806  0.00303084  -0.00805247  1
  Rh  Rh200  1  -0.01159837  0.40699841  0.18990088  1
  Rh  Rh201  1  0.19970187  0.79861910  0.79635139  1
  Rh  Rh202  1  -0.00256278  0.40236529  0.80479013  1
  Rh  Rh203  1  0.18890215  0.20942428  0.39078514  1
  Rh  Rh204  1  0.40883148  0.40519497  0.20151746  1
  Rh  Rh205  1  0.20094673  0.19214232  0.79781984  1
  Rh  Rh206  1  0.19174723  0.59462702  -0.00752081  1
  Rh  Rh207  1  0.00066088  0.60972584  0.60433669  1
  Rh  Rh208  1  0.38985637  0.00955835  0.59343480  1
  Rh  Rh209  1  0.20773598  0.00866335  0.19868969  1
  Rh  Rh210  1  -0.00132709  0.00402159  0.20608442  1
  Rh  Rh211  1  -0.00366386  0.79829591  0.19668139  1
  Rh  Rh212  1  0.80648796  0.00744562  0.40106301  1
  Rh  Rh213  1  0.38914401  0.40382391  0.59293759  1
  Rh  Rh214  1  0.61017840  0.78943298  0.20857325  1
  Rh  Rh215  1  0.59617822  -0.00689018  0.39286886  1
  Rh  Rh216  1  0.40335977  -0.00031227  0.80126036  1
  Rh  Rh217  1  0.60675428  0.40359709  0.80219194  1
  Rh  Rh218  1  0.81342380  0.79999509  0.80857809  1
  Rh  Rh219  1  0.58854869  0.81531239  0.79458406  1
  Rh  Rh220  1  0.58908347  0.20522671  0.40083478  1
  Rh  Rh221  1  0.60079618  -0.00343859  -0.00529499  1
  Rh  Rh222  1  0.60098365  0.60161241  0.39923315  1
  Rh  Rh223  1  0.00091573  0.60872607  0.79284848  1
  Rh  Rh224  1  0.20268318  0.79739138  0.19994242  1
  Rh  Rh225  1  0.19825758  -0.00325734  0.59390920  1
  Rh  Rh226  1  0.00398787  0.80214744  0.40901780  1
  Rh  Rh227  1  0.79986167  0.81026872  0.59050864  1
  Rh  Rh228  1  0.20369966  -0.00740249  0.40637463  1
  Rh  Rh229  1  0.39659620  -0.00219765  0.39633176  1
  Rh  Rh230  1  0.80251818  0.20901037  0.79982956  1
  Rh  Rh231  1  0.20078983  0.61268557  0.20542450  1
  Rh  Rh232  1  0.19504999  0.38883432  0.20584529  1
  Rh  Rh233  1  0.20501938  0.59801158  0.39255358  1
  Rh  Rh234  1  0.40072094  0.80665347  0.39370308  1
  Rh  Rh235  1  -0.00140333  0.80523127  0.79521640  1
  Rh  Rh236  1  -0.00155696  0.01016136  0.39566029  1
  Rh  Rh237  1  0.20489572  0.59517014  0.61051087  1
  Rh  Rh238  1  0.19504468  0.00568643  0.80544490  1
  Rh  Rh239  1  0.39991471  0.39924249  0.81487389  1
  Rh  Rh240  1  0.38832049  0.59459094  0.39972886  1
  Rh  Rh241  1  0.79294232  0.20338886  0.19165159  1
  Rh  Rh242  1  0.39848157  0.79955726  -0.00587815  1
  Rh  Rh243  1  0.59767137  0.19565675  0.19902925  1
  Rh  Rh244  1  0.79974649  -0.01019514  0.80116845  1
  Rh  Rh245  1  0.40914448  0.79073955  0.60494714  1
  Rh  Rh246  1  -0.00207615  0.60614518  0.40289977  1
  Rh  Rh247  1  0.00999912  0.18987418  0.20813391  1
  Rh  Rh248  1  0.00067335  0.00287988  0.60587527  1
  Rh  Rh249  1  -0.00995943  0.19830503  -0.00462528  1
