# generated using pymatgen
data_ZrScNbPdRh
_symmetry_space_group_name_H-M   'P 1'
_cell_length_a   16.56245808
_cell_length_b   16.56088120
_cell_length_c   16.55869303
_cell_angle_alpha   90.04085574
_cell_angle_beta   90.02765558
_cell_angle_gamma   90.01771952
_symmetry_Int_Tables_number   1
_chemical_formula_structural   ZrScNbPdRh
_chemical_formula_sum   'Zr50 Sc50 Nb50 Pd50 Rh50'
_cell_volume   4541.86380406
_cell_formula_units_Z   50
loop_
 _symmetry_equiv_pos_site_id
 _symmetry_equiv_pos_as_xyz
  1  'x, y, z'
loop_
 _atom_site_type_symbol
 _atom_site_label
 _atom_site_symmetry_multiplicity
 _atom_site_fract_x
 _atom_site_fract_y
 _atom_site_fract_z
 _atom_site_occupancy
  Zr  Zr0  1  0.29827327  0.90124141  0.30592032  1
  Zr  Zr1  1  0.10751111  0.70370775  0.70308656  1
  Zr  Zr2  1  0.90126333  0.09146035  0.09738491  1
  Zr  Zr3  1  0.89945012  0.49798313  0.69479551  1
  Zr  Zr4  1  0.49993122  0.49841062  0.10844202  1
  Zr  Zr5  1  0.10360140  0.30235183  0.30101129  1
  Zr  Zr6  1  0.29783908  0.49508878  0.69538515  1
  Zr  Zr7  1  0.29703543  0.30946416  0.49703066  1
  Zr  Zr8  1  0.70456807  0.71191781  0.50498239  1
  Zr  Zr9  1  0.70760265  0.50409371  0.10020232  1
  Zr  Zr10  1  0.90133270  0.30026015  0.69590755  1
  Zr  Zr11  1  0.09585723  0.69816815  0.90311911  1
  Zr  Zr12  1  0.71022145  0.09425819  0.70538416  1
  Zr  Zr13  1  0.89810443  0.30099507  0.30043809  1
  Zr  Zr14  1  0.49246840  0.10583515  0.30543687  1
  Zr  Zr15  1  0.69927776  0.30054962  0.89997111  1
  Zr  Zr16  1  0.31225137  0.50090302  0.30166025  1
  Zr  Zr17  1  0.29840104  0.49153478  0.09832389  1
  Zr  Zr18  1  0.29782794  0.89347798  0.50274457  1
  Zr  Zr19  1  0.49994044  0.10415352  0.50105968  1
  Zr  Zr20  1  0.69967180  0.70045004  0.29121037  1
  Zr  Zr21  1  0.49845524  0.49363432  0.30300008  1
  Zr  Zr22  1  0.69679333  0.48598334  0.49393908  1
  Zr  Zr23  1  0.30264476  0.30261453  0.28948596  1
  Zr  Zr24  1  0.49720059  0.30351697  0.70585581  1
  Zr  Zr25  1  0.70513684  0.90338774  0.50227612  1
  Zr  Zr26  1  0.30112333  0.10940157  0.70556500  1
  Zr  Zr27  1  0.49749535  0.10500607  0.70236381  1
  Zr  Zr28  1  0.69846992  0.10564936  0.50409487  1
  Zr  Zr29  1  0.89291129  0.50492992  0.90050568  1
  Zr  Zr30  1  0.49977720  0.68380056  0.29251340  1
  Zr  Zr31  1  0.30357243  0.29986206  0.71309400  1
  Zr  Zr32  1  0.70061520  0.30441209  0.30693514  1
  Zr  Zr33  1  0.70401724  0.29132458  0.69014183  1
  Zr  Zr34  1  0.49673748  0.50022831  0.69571255  1
  Zr  Zr35  1  0.88625353  0.30427555  0.50124759  1
  Zr  Zr36  1  0.09645057  0.09962895  0.70072034  1
  Zr  Zr37  1  0.30023943  0.11122190  0.09158688  1
  Zr  Zr38  1  0.50162228  0.88592355  0.71117308  1
  Zr  Zr39  1  0.69100378  0.08863407  0.30489821  1
  Zr  Zr40  1  0.90464470  0.29472422  0.89487073  1
  Zr  Zr41  1  0.30169597  0.70019214  0.09305243  1
  Zr  Zr42  1  0.89964482  0.90882257  0.70190936  1
  Zr  Zr43  1  0.89385902  0.89548019  0.49683468  1
  Zr  Zr44  1  0.29860263  0.50079351  0.49735193  1
  Zr  Zr45  1  0.70520102  0.70786025  0.10287593  1
  Zr  Zr46  1  0.68847237  0.50172991  0.29556281  1
  Zr  Zr47  1  0.10293748  0.89977329  0.50156532  1
  Zr  Zr48  1  0.90273040  0.49681269  0.50403122  1
  Zr  Zr49  1  0.70022743  0.09599447  0.09904342  1
  Sc  Sc50  1  0.49389347  0.89588793  0.51119555  1
  Sc  Sc51  1  0.29064383  0.49006587  0.89992411  1
  Sc  Sc52  1  0.09394294  0.70202420  0.30659080  1
  Sc  Sc53  1  0.89871829  0.70207441  0.69948327  1
  Sc  Sc54  1  0.09821691  0.09351151  0.49714527  1
  Sc  Sc55  1  0.50143608  0.09475021  0.90815767  1
  Sc  Sc56  1  0.30971877  0.09377704  0.49640793  1
  Sc  Sc57  1  0.90079482  0.89867480  0.30101412  1
  Sc  Sc58  1  0.69964834  0.30672165  0.10472419  1
  Sc  Sc59  1  0.70007201  0.69721458  0.90763794  1
  Sc  Sc60  1  0.10330715  0.69328809  0.50157641  1
  Sc  Sc61  1  0.89772623  0.70108565  0.10102508  1
  Sc  Sc62  1  0.50888454  0.70486499  0.09628336  1
  Sc  Sc63  1  0.90408899  0.90653663  0.90770736  1
  Sc  Sc64  1  0.51114705  0.90706258  0.29158855  1
  Sc  Sc65  1  0.09184536  0.90045201  0.30495410  1
  Sc  Sc66  1  0.08630008  0.10173249  0.90031591  1
  Sc  Sc67  1  0.51169016  0.49285004  0.88872777  1
  Sc  Sc68  1  0.90202751  0.50590201  0.29066470  1
  Sc  Sc69  1  0.09714397  0.89606310  0.90010061  1
  Sc  Sc70  1  0.09756269  0.69919046  0.08893395  1
  Sc  Sc71  1  0.10370525  0.30113836  0.50012763  1
  Sc  Sc72  1  0.49835338  0.69395122  0.51364145  1
  Sc  Sc73  1  0.09642457  0.09799432  0.09753815  1
  Sc  Sc74  1  0.50944333  0.70789681  0.89568555  1
  Sc  Sc75  1  0.30281878  0.89529834  0.69653849  1
  Sc  Sc76  1  0.49753514  0.30076769  0.89976661  1
  Sc  Sc77  1  0.69092755  0.50146723  0.70875218  1
  Sc  Sc78  1  0.69824847  0.89845790  0.10508506  1
  Sc  Sc79  1  0.68799157  0.70400237  0.70134306  1
  Sc  Sc80  1  0.90004982  0.10089196  0.71396374  1
  Sc  Sc81  1  0.49467877  0.29934088  0.09210734  1
  Sc  Sc82  1  0.11350958  0.30818123  0.10423555  1
  Sc  Sc83  1  0.89559121  0.09416790  0.49345617  1
  Sc  Sc84  1  0.90415674  0.70514070  0.49548146  1
  Sc  Sc85  1  0.10362724  0.50014122  0.29752979  1
  Sc  Sc86  1  0.30001797  0.70191976  0.69246815  1
  Sc  Sc87  1  0.28665059  0.70284112  0.90019552  1
  Sc  Sc88  1  0.08977385  0.09548636  0.29967579  1
  Sc  Sc89  1  0.70316235  0.89688287  0.69960049  1
  Sc  Sc90  1  0.89973245  0.70665132  0.29737430  1
  Sc  Sc91  1  0.30553464  0.90204804  0.90149545  1
  Sc  Sc92  1  0.11090553  0.29886943  0.69710055  1
  Sc  Sc93  1  0.50316942  0.29852755  0.50506894  1
  Sc  Sc94  1  0.09199382  0.90444929  0.09820487  1
  Sc  Sc95  1  0.29649632  0.89972011  0.08461888  1
  Sc  Sc96  1  0.70090986  0.50131083  0.89958036  1
  Sc  Sc97  1  0.10580024  0.29784378  0.89753217  1
  Sc  Sc98  1  0.29758327  0.69402087  0.50041962  1
  Sc  Sc99  1  0.89694618  0.09382350  0.29934087  1
  Nb  Nb100  1  0.49603412  0.29933716  0.29630113  1
  Nb  Nb101  1  0.10191792  0.50520340  0.09226305  1
  Nb  Nb102  1  0.50453404  0.90014413  0.90155355  1
  Nb  Nb103  1  0.70641838  0.29625759  0.50388004  1
  Nb  Nb104  1  0.30453449  0.10302077  0.29730420  1
  Nb  Nb105  1  0.69825797  0.89350642  0.30331176  1
  Nb  Nb106  1  0.49004907  0.49838652  0.50077767  1
  Nb  Nb107  1  0.49622928  0.90522893  0.09727896  1
  Nb  Nb108  1  0.29786179  0.10777234  0.89608460  1
  Nb  Nb109  1  0.30529261  0.69607988  0.29543913  1
  Nb  Nb110  1  0.09678902  0.50165190  0.69626589  1
  Nb  Nb111  1  0.10052654  0.49581541  0.50765227  1
  Nb  Nb112  1  0.70157211  0.90173301  0.89855641  1
  Nb  Nb113  1  0.09747691  0.50659127  0.90489351  1
  Nb  Nb114  1  0.89692085  0.10202157  0.90128715  1
  Nb  Nb115  1  0.70868885  0.09601882  0.90100530  1
  Nb  Nb116  1  0.49913021  0.69656825  0.70283480  1
  Nb  Nb117  1  0.90769287  0.49840407  0.09987045  1
  Nb  Nb118  1  0.29939695  0.30399942  0.08731183  1
  Nb  Nb119  1  0.30320086  0.28962399  0.90761173  1
  Nb  Nb120  1  0.10015003  0.90629654  0.69901410  1
  Nb  Nb121  1  0.89938727  0.30297539  0.10198273  1
  Nb  Nb122  1  0.90033490  0.70373027  0.90069442  1
  Nb  Nb123  1  0.89430558  0.90203607  0.10093444  1
  Nb  Nb124  1  0.50452358  0.09570286  0.10412319  1
  Nb  Nb125  1  0.00162183  0.59843465  0.80235523  1
  Nb  Nb126  1  0.40236364  0.59717749  -0.00842017  1
  Nb  Nb127  1  0.00548306  0.40969214  0.80110734  1
  Nb  Nb128  1  -0.00284531  0.20016987  0.59771544  1
  Nb  Nb129  1  0.40097195  0.60105163  0.80066329  1
  Nb  Nb130  1  -0.00000993  0.40280235  0.40423259  1
  Nb  Nb131  1  -0.00686904  0.20643421  0.19583281  1
  Nb  Nb132  1  0.00576862  0.80790317  0.60530672  1
  Nb  Nb133  1  0.00000736  0.40604826  0.00139179  1
  Nb  Nb134  1  0.59683228  0.79765993  0.39782683  1
  Nb  Nb135  1  0.20449068  0.79948590  0.20077140  1
  Nb  Nb136  1  0.40468685  0.79370712  0.39160972  1
  Nb  Nb137  1  0.80219522  0.80065638  0.80971159  1
  Nb  Nb138  1  0.20364718  0.60407660  0.19716495  1
  Nb  Nb139  1  0.39859258  0.80569918  0.19884478  1
  Nb  Nb140  1  0.20693517  0.19717274  0.39167753  1
  Nb  Nb141  1  0.79656142  0.59814973  0.59474598  1
  Nb  Nb142  1  0.79542855  0.59904434  0.40218028  1
  Nb  Nb143  1  0.59816809  0.00293739  0.60592480  1
  Nb  Nb144  1  0.80445584  0.19746081  0.00016668  1
  Nb  Nb145  1  0.20868601  0.00022514  0.20101881  1
  Nb  Nb146  1  0.39693793  0.00181379  0.19376561  1
  Nb  Nb147  1  0.59576244  0.19786304  0.20256585  1
  Nb  Nb148  1  0.20004418  0.00389439  0.79911464  1
  Nb  Nb149  1  0.60671119  0.19424049  0.80235970  1
  Pd  Pd150  1  0.60522291  0.19990861  0.00115423  1
  Pd  Pd151  1  0.20216730  0.79080362  0.39658057  1
  Pd  Pd152  1  0.19809329  0.00904844  0.39390090  1
  Pd  Pd153  1  0.40284563  -0.00298929  0.60975290  1
  Pd  Pd154  1  0.59905983  0.40371043  0.00248422  1
  Pd  Pd155  1  0.79858183  0.19250769  0.39644434  1
  Pd  Pd156  1  0.79766046  0.61090917  0.79301696  1
  Pd  Pd157  1  0.00857542  0.60749155  0.19664030  1
  Pd  Pd158  1  0.40946738  -0.01121996  0.39698015  1
  Pd  Pd159  1  -0.00190771  0.61154317  0.60377940  1
  Pd  Pd160  1  0.39379223  0.20845365  0.59565142  1
  Pd  Pd161  1  0.39859402  0.00544363  -0.00028664  1
  Pd  Pd162  1  0.00506754  0.79949352  0.19530017  1
  Pd  Pd163  1  0.00472769  0.20557530  0.40236222  1
  Pd  Pd164  1  0.00602810  0.39851812  0.19846529  1
  Pd  Pd165  1  0.59103992  -0.01085799  0.41253690  1
  Pd  Pd166  1  0.20483463  0.81249537  0.80091461  1
  Pd  Pd167  1  0.79939451  0.40713952  0.20484499  1
  Pd  Pd168  1  0.79947348  0.39835927  0.79460743  1
  Pd  Pd169  1  0.59915524  0.20842209  0.39787698  1
  Pd  Pd170  1  0.60629849  0.59526026  0.59492600  1
  Pd  Pd171  1  0.18919860  0.19886420  -0.00332610  1
  Pd  Pd172  1  0.40659237  0.79342614  -0.00447219  1
  Pd  Pd173  1  -0.00519288  0.79943589  0.79536550  1
  Pd  Pd174  1  -0.00583700  0.80342357  0.00614580  1
  Pd  Pd175  1  0.39337515  0.79142092  0.80759112  1
  Pd  Pd176  1  0.19023666  0.19061281  0.20286378  1
  Pd  Pd177  1  0.59972104  0.39937549  0.60233147  1
  Pd  Pd178  1  0.60282629  0.80862292  0.00017310  1
  Pd  Pd179  1  -0.00425221  0.59386026  0.39849099  1
  Pd  Pd180  1  0.60445187  -0.00726972  0.00016519  1
  Pd  Pd181  1  0.19824653  0.59763683  0.39348572  1
  Pd  Pd182  1  0.80455064  0.39502523  -0.00027945  1
  Pd  Pd183  1  0.00086421  0.20962236  0.00909066  1
  Pd  Pd184  1  -0.00799771  0.00357507  0.59519788  1
  Pd  Pd185  1  0.19503485  0.39904801  0.80362908  1
  Pd  Pd186  1  0.20207744  0.59765613  0.79746418  1
  Pd  Pd187  1  0.79789272  -0.00825739  0.20574618  1
  Pd  Pd188  1  0.59516396  0.59484363  -0.00007960  1
  Pd  Pd189  1  0.19874563  0.19296064  0.58671293  1
  Pd  Pd190  1  0.80369836  0.60500052  0.00508550  1
  Pd  Pd191  1  0.59925392  0.00178640  0.79784553  1
  Pd  Pd192  1  0.40431075  0.40771617  -0.00978543  1
  Pd  Pd193  1  0.39528199  -0.00000404  0.80206467  1
  Pd  Pd194  1  0.40487235  0.20159772  0.18876359  1
  Pd  Pd195  1  0.20961885  0.00571434  0.60602879  1
  Pd  Pd196  1  0.79731424  0.19740949  0.19590847  1
  Pd  Pd197  1  0.59068120  0.39012504  0.40373751  1
  Pd  Pd198  1  0.60117091  0.60667090  0.41239574  1
  Pd  Pd199  1  0.19386470  0.00212676  -0.00634836  1
  Rh  Rh200  1  0.01201385  0.38860495  0.60055100  1
  Rh  Rh201  1  0.80898088  0.79680739  0.61348221  1
  Rh  Rh202  1  0.19960515  0.40203414  0.60259442  1
  Rh  Rh203  1  0.79332302  0.79325963  0.38977419  1
  Rh  Rh204  1  0.80559703  0.80697178  0.19980107  1
  Rh  Rh205  1  0.79818526  -0.00198748  0.39472105  1
  Rh  Rh206  1  0.78528114  0.40982367  0.60914359  1
  Rh  Rh207  1  0.39233622  0.21048644  0.40458417  1
  Rh  Rh208  1  0.00503199  -0.00090351  0.80753527  1
  Rh  Rh209  1  0.39820268  0.79248230  0.59584804  1
  Rh  Rh210  1  -0.00104384  -0.00228161  -0.00131624  1
  Rh  Rh211  1  0.59409968  0.60465473  0.80295170  1
  Rh  Rh212  1  0.80237581  0.80616573  -0.00346130  1
  Rh  Rh213  1  0.19212901  0.80565259  0.00184310  1
  Rh  Rh214  1  -0.00999508  0.59738149  -0.00209547  1
  Rh  Rh215  1  0.60405852  0.59996107  0.18663324  1
  Rh  Rh216  1  0.00590306  0.20896785  0.78859496  1
  Rh  Rh217  1  0.40744863  0.39405915  0.40276004  1
  Rh  Rh218  1  0.39583500  0.59884928  0.60524698  1
  Rh  Rh219  1  0.80667899  0.41169121  0.38903065  1
  Rh  Rh220  1  0.39405449  0.40431358  0.80629908  1
  Rh  Rh221  1  0.60002658  0.19466379  0.60667046  1
  Rh  Rh222  1  0.60948875  0.80045040  0.80622578  1
  Rh  Rh223  1  0.40445810  0.60471416  0.40954944  1
  Rh  Rh224  1  0.79936210  -0.00097158  -0.00052660  1
  Rh  Rh225  1  0.81206156  0.18915093  0.59761455  1
  Rh  Rh226  1  0.19381879  0.39570985  -0.00612327  1
  Rh  Rh227  1  -0.00507300  -0.00590317  0.40155215  1
  Rh  Rh228  1  0.59431028  0.38957609  0.19940977  1
  Rh  Rh229  1  0.19962745  0.59609204  0.60013120  1
  Rh  Rh230  1  0.19473397  0.79893824  0.59778684  1
  Rh  Rh231  1  0.59432789  0.80771438  0.59853536  1
  Rh  Rh232  1  0.39605664  0.60315703  0.18426776  1
  Rh  Rh233  1  0.79836267  0.00426634  0.59957556  1
  Rh  Rh234  1  0.19436876  0.40175571  0.39789875  1
  Rh  Rh235  1  0.00162924  0.00292783  0.19772797  1
  Rh  Rh236  1  0.79449652  0.20197045  0.80746505  1
  Rh  Rh237  1  0.60699691  0.38840080  0.79575515  1
  Rh  Rh238  1  0.39841506  0.39705457  0.59737888  1
  Rh  Rh239  1  0.80483222  -0.00920369  0.81001669  1
  Rh  Rh240  1  0.40174920  0.39147415  0.19431389  1
  Rh  Rh241  1  0.19448741  0.19354239  0.80836646  1
  Rh  Rh242  1  0.59808453  0.00252711  0.19772429  1
  Rh  Rh243  1  0.59247416  0.80138499  0.20265700  1
  Rh  Rh244  1  0.00264712  0.80209429  0.40973092  1
  Rh  Rh245  1  0.20305780  0.41058243  0.20086448  1
  Rh  Rh246  1  0.80289969  0.59874476  0.20065853  1
  Rh  Rh247  1  0.20896712  0.59635654  0.00282965  1
  Rh  Rh248  1  0.40526958  0.19583363  -0.00155263  1
  Rh  Rh249  1  0.41065680  0.19716485  0.81339117  1
