# generated using pymatgen
data_ZrScNbPdRh
_symmetry_space_group_name_H-M   'P 1'
_cell_length_a   16.56148788
_cell_length_b   16.56211718
_cell_length_c   16.56202751
_cell_angle_alpha   90.00562147
_cell_angle_beta   90.01815712
_cell_angle_gamma   90.01920889
_symmetry_Int_Tables_number   1
_chemical_formula_structural   ZrScNbPdRh
_chemical_formula_sum   'Zr50 Sc50 Nb50 Pd50 Rh50'
_cell_volume   4542.85272481
_cell_formula_units_Z   50
loop_
 _symmetry_equiv_pos_site_id
 _symmetry_equiv_pos_as_xyz
  1  'x, y, z'
loop_
 _atom_site_type_symbol
 _atom_site_label
 _atom_site_symmetry_multiplicity
 _atom_site_fract_x
 _atom_site_fract_y
 _atom_site_fract_z
 _atom_site_occupancy
  Zr  Zr0  1  0.89770340  0.89783657  0.70626084  1
  Zr  Zr1  1  0.29653158  0.09988905  0.90727032  1
  Zr  Zr2  1  0.09838393  0.89503483  0.50210925  1
  Zr  Zr3  1  0.50071088  0.49268418  0.71028112  1
  Zr  Zr4  1  0.70200259  0.90893810  0.90202881  1
  Zr  Zr5  1  0.50081182  0.29680860  0.49322631  1
  Zr  Zr6  1  0.70079163  0.89823839  0.50047725  1
  Zr  Zr7  1  0.29796304  0.90186240  0.90434744  1
  Zr  Zr8  1  0.70299315  0.29935941  0.69369973  1
  Zr  Zr9  1  0.09720183  0.50455063  0.88945038  1
  Zr  Zr10  1  0.30154285  0.10303461  0.48834683  1
  Zr  Zr11  1  0.89801387  0.29466984  0.70343884  1
  Zr  Zr12  1  0.10083043  0.90239321  0.90290533  1
  Zr  Zr13  1  0.30595345  0.69625919  0.29186475  1
  Zr  Zr14  1  0.50132603  0.30378192  0.09363330  1
  Zr  Zr15  1  0.10517799  0.10856017  0.10908130  1
  Zr  Zr16  1  0.30150745  0.29962728  0.90529609  1
  Zr  Zr17  1  0.09841687  0.28949787  0.90090630  1
  Zr  Zr18  1  0.50416909  0.70481285  0.28730211  1
  Zr  Zr19  1  0.89557030  0.90241702  0.29652317  1
  Zr  Zr20  1  0.69543744  0.10163518  0.71598609  1
  Zr  Zr21  1  0.49719835  0.90466390  0.70372541  1
  Zr  Zr22  1  0.70479165  0.50323490  0.49921251  1
  Zr  Zr23  1  0.09709995  0.29599396  0.49925973  1
  Zr  Zr24  1  0.50138935  0.09792062  0.70756385  1
  Zr  Zr25  1  0.69937704  0.29624141  0.30429734  1
  Zr  Zr26  1  0.70202346  0.49202753  0.30085671  1
  Zr  Zr27  1  0.89898983  0.09964912  0.10159961  1
  Zr  Zr28  1  0.89841499  0.10191367  0.49671005  1
  Zr  Zr29  1  0.69815405  0.90239390  0.70376656  1
  Zr  Zr30  1  0.31160241  0.89706778  0.29584150  1
  Zr  Zr31  1  0.70265654  0.49929981  0.69730279  1
  Zr  Zr32  1  0.89543514  0.50972857  0.71052224  1
  Zr  Zr33  1  0.70059345  0.10488246  0.49029754  1
  Zr  Zr34  1  0.50876243  0.10469433  0.09891561  1
  Zr  Zr35  1  0.89655017  0.70212433  0.30110805  1
  Zr  Zr36  1  0.29694191  0.89683352  0.10126208  1
  Zr  Zr37  1  0.69424189  0.30270651  0.10838322  1
  Zr  Zr38  1  0.10169218  0.10165685  0.48939129  1
  Zr  Zr39  1  0.30590972  0.90086229  0.70640159  1
  Zr  Zr40  1  0.69170236  0.70177484  0.10084743  1
  Zr  Zr41  1  0.70578889  0.69814819  0.69312096  1
  Zr  Zr42  1  0.70347802  0.69785665  0.30072159  1
  Zr  Zr43  1  0.30792686  0.50446089  0.10365046  1
  Zr  Zr44  1  0.49692292  0.31309617  0.90030619  1
  Zr  Zr45  1  0.30247490  0.50544423  0.70430365  1
  Zr  Zr46  1  0.09701321  0.29593341  0.70455528  1
  Zr  Zr47  1  0.31376095  0.70076521  0.90295356  1
  Zr  Zr48  1  0.70384014  0.09998031  0.09315254  1
  Zr  Zr49  1  0.29917559  0.49391859  0.48974906  1
  Sc  Sc50  1  0.29648434  0.09248398  0.71428234  1
  Sc  Sc51  1  0.89755848  0.50436233  0.50174617  1
  Sc  Sc52  1  0.10674077  0.90454689  0.28832628  1
  Sc  Sc53  1  0.51017581  0.10288646  0.90471413  1
  Sc  Sc54  1  0.50294847  0.09971490  0.30714642  1
  Sc  Sc55  1  0.08965925  0.89791395  0.70101112  1
  Sc  Sc56  1  0.30819108  0.30970673  0.30745727  1
  Sc  Sc57  1  0.09199599  0.09614787  0.70954424  1
  Sc  Sc58  1  0.89176488  0.30157169  0.30010808  1
  Sc  Sc59  1  0.09323588  0.69084243  0.30156825  1
  Sc  Sc60  1  0.90024916  0.70254387  0.89774758  1
  Sc  Sc61  1  0.09581736  0.69901860  0.69901476  1
  Sc  Sc62  1  0.29627506  0.49833604  0.29317199  1
  Sc  Sc63  1  0.70187623  0.70107369  0.91278691  1
  Sc  Sc64  1  0.90238009  0.71148285  0.09834261  1
  Sc  Sc65  1  0.89758015  0.29230202  0.10221360  1
  Sc  Sc66  1  0.09343137  0.70731402  0.90020337  1
  Sc  Sc67  1  0.30619096  0.90149069  0.49835877  1
  Sc  Sc68  1  0.10366938  0.90088444  0.09845206  1
  Sc  Sc69  1  0.51649870  0.30262449  0.70416983  1
  Sc  Sc70  1  0.90438382  0.49993825  0.30132895  1
  Sc  Sc71  1  0.50013069  0.69805136  0.09286885  1
  Sc  Sc72  1  0.29539914  0.29738688  0.09668295  1
  Sc  Sc73  1  0.89011759  0.10057012  0.29395315  1
  Sc  Sc74  1  0.09982562  0.30175531  0.28672252  1
  Sc  Sc75  1  0.89163220  0.29161138  0.50557187  1
  Sc  Sc76  1  0.70472601  0.89806749  0.09491460  1
  Sc  Sc77  1  0.89952209  0.89617718  0.49519443  1
  Sc  Sc78  1  0.50198910  0.09750447  0.49682028  1
  Sc  Sc79  1  0.49172366  0.89715867  0.90095326  1
  Sc  Sc80  1  0.71174072  0.50534764  0.90876953  1
  Sc  Sc81  1  0.70858129  0.89877870  0.29989317  1
  Sc  Sc82  1  0.09918589  0.49238166  0.11843565  1
  Sc  Sc83  1  0.49625993  0.90545417  0.50049620  1
  Sc  Sc84  1  0.29215075  0.09242403  0.29753986  1
  Sc  Sc85  1  0.09919535  0.70993438  0.09832900  1
  Sc  Sc86  1  0.09004166  0.50682851  0.69491737  1
  Sc  Sc87  1  0.50948689  0.49805739  0.50163569  1
  Sc  Sc88  1  0.70495493  0.29556339  0.89716475  1
  Sc  Sc89  1  0.89413639  0.69838717  0.49294154  1
  Sc  Sc90  1  0.89778786  0.90100733  0.10441171  1
  Sc  Sc91  1  0.10228453  0.49969568  0.30125012  1
  Sc  Sc92  1  0.50756563  0.30465933  0.29405192  1
  Sc  Sc93  1  0.89832289  0.89495172  0.90212354  1
  Sc  Sc94  1  0.49223811  0.69756289  0.69213342  1
  Sc  Sc95  1  0.10672038  0.10064911  0.90140054  1
  Sc  Sc96  1  0.30345597  0.69739588  0.50608985  1
  Sc  Sc97  1  0.30089202  0.69824235  0.69708838  1
  Sc  Sc98  1  0.09518707  0.69358219  0.49897902  1
  Sc  Sc99  1  0.88909658  0.10574783  0.90581351  1
  Nb  Nb100  1  0.89104506  0.09781040  0.69405227  1
  Nb  Nb101  1  0.30379803  0.10184053  0.09936720  1
  Nb  Nb102  1  0.49907503  0.89438715  0.29439570  1
  Nb  Nb103  1  0.69886705  0.09207546  0.90505374  1
  Nb  Nb104  1  0.29990526  0.70169004  0.09338553  1
  Nb  Nb105  1  0.50765889  0.49823097  0.09742683  1
  Nb  Nb106  1  0.70251694  0.50197725  0.09823763  1
  Nb  Nb107  1  0.50172260  0.69719773  0.89914010  1
  Nb  Nb108  1  0.50104938  0.89954146  0.10889467  1
  Nb  Nb109  1  0.69972016  0.30493857  0.49875988  1
  Nb  Nb110  1  0.90510568  0.30318104  0.90483316  1
  Nb  Nb111  1  0.89768771  0.49505682  0.09663364  1
  Nb  Nb112  1  0.09672093  0.09648429  0.29736795  1
  Nb  Nb113  1  0.30546362  0.50039244  0.89928561  1
  Nb  Nb114  1  0.09754346  0.49601645  0.49678053  1
  Nb  Nb115  1  0.49149922  0.50061498  0.29013599  1
  Nb  Nb116  1  0.29830234  0.30027604  0.70273578  1
  Nb  Nb117  1  0.89706991  0.69940007  0.70531562  1
  Nb  Nb118  1  0.69537596  0.69565385  0.49769404  1
  Nb  Nb119  1  0.09704803  0.30291523  0.09654003  1
  Nb  Nb120  1  0.70009890  0.09888620  0.29693891  1
  Nb  Nb121  1  0.48780054  0.50632078  0.90511622  1
  Nb  Nb122  1  0.50760287  0.69680328  0.49390702  1
  Nb  Nb123  1  0.90131828  0.50014879  0.90402126  1
  Nb  Nb124  1  0.30139172  0.29980708  0.50202681  1
  Nb  Nb125  1  0.00132080  0.00586609  0.00468699  1
  Nb  Nb126  1  0.20339572  0.79752126  0.39730479  1
  Nb  Nb127  1  0.59760567  0.79351507  0.80045780  1
  Nb  Nb128  1  0.00036775  0.58901134  0.00251258  1
  Nb  Nb129  1  0.39498523  0.20452006  0.60642723  1
  Nb  Nb130  1  0.40881396  0.60004425  0.39460039  1
  Nb  Nb131  1  0.19448029  0.40770741  -0.00402433  1
  Nb  Nb132  1  0.40098216  0.19676418  0.19545951  1
  Nb  Nb133  1  0.79897302  0.00322170  0.60395730  1
  Nb  Nb134  1  0.60025111  -0.00281585  0.20079876  1
  Nb  Nb135  1  0.59717053  0.60312600  0.80653635  1
  Nb  Nb136  1  0.19928974  0.59622493  -0.00105022  1
  Nb  Nb137  1  0.20439606  0.80225810  0.80214645  1
  Nb  Nb138  1  0.59797664  0.79587966  0.40180362  1
  Nb  Nb139  1  0.79981494  0.59428430  0.19090583  1
  Nb  Nb140  1  -0.00070688  0.40057151  -0.00019307  1
  Nb  Nb141  1  0.19802387  0.00387259  0.59757813  1
  Nb  Nb142  1  0.20515616  0.19903444  0.60061960  1
  Nb  Nb143  1  0.40114017  0.20491524  0.80010561  1
  Nb  Nb144  1  0.39570709  0.39274215  0.60036954  1
  Nb  Nb145  1  0.20109920  0.39669077  0.60121412  1
  Nb  Nb146  1  0.20221474  0.40172791  0.80029563  1
  Nb  Nb147  1  0.00299356  0.00305183  0.39247837  1
  Nb  Nb148  1  0.00217097  0.39756897  0.40582699  1
  Nb  Nb149  1  0.40080886  0.00147961  0.01144999  1
  Pd  Pd150  1  0.59567362  0.59792081  0.39037859  1
  Pd  Pd151  1  0.80231549  0.38982110  0.00201733  1
  Pd  Pd152  1  0.19663908  0.59338980  0.59597854  1
  Pd  Pd153  1  0.60687924  0.40747940  -0.00764171  1
  Pd  Pd154  1  0.20530428  0.60672442  0.40186028  1
  Pd  Pd155  1  0.39827394  0.39101461  0.19265023  1
  Pd  Pd156  1  -0.00922017  0.79009904  0.60112850  1
  Pd  Pd157  1  -0.00773661  0.60024609  0.19271356  1
  Pd  Pd158  1  0.61345591  0.41126346  0.81314472  1
  Pd  Pd159  1  -0.00777595  0.60612432  0.59643489  1
  Pd  Pd160  1  0.59839354  -0.01116993  0.39157216  1
  Pd  Pd161  1  -0.00620999  0.20240201  0.38607803  1
  Pd  Pd162  1  0.60682828  0.20749213  -0.00758288  1
  Pd  Pd163  1  0.59837641  0.19661041  0.59661741  1
  Pd  Pd164  1  0.20048095  0.20903124  0.38950125  1
  Pd  Pd165  1  0.40500176  0.58966635  0.59078576  1
  Pd  Pd166  1  0.80834577  0.40270967  0.59833065  1
  Pd  Pd167  1  0.59617466  0.40359624  0.39767924  1
  Pd  Pd168  1  0.19746973  -0.01310045  0.40028690  1
  Pd  Pd169  1  0.80407490  0.40192267  0.19995573  1
  Pd  Pd170  1  0.80138410  0.19999395  0.80512095  1
  Pd  Pd171  1  -0.00508227  0.20401880  0.20536688  1
  Pd  Pd172  1  0.81104771  0.60975934  0.00689974  1
  Pd  Pd173  1  0.79834704  0.39955465  0.80356678  1
  Pd  Pd174  1  0.60641396  0.00728594  0.59869803  1
  Pd  Pd175  1  -0.00395086  0.40118107  0.59720526  1
  Pd  Pd176  1  0.00520971  0.19218913  0.60395034  1
  Pd  Pd177  1  0.00049566  0.39869048  0.80127430  1
  Pd  Pd178  1  0.60434175  0.59186493  0.19907904  1
  Pd  Pd179  1  0.00953942  0.80696473  0.38969757  1
  Pd  Pd180  1  0.19805445  0.79326356  0.20619354  1
  Pd  Pd181  1  0.21109903  0.20761491  0.20809130  1
  Pd  Pd182  1  0.59479384  0.80773077  -0.00577303  1
  Pd  Pd183  1  -0.01132924  0.18852253  0.80461110  1
  Pd  Pd184  1  0.20158043  0.60836545  0.80427974  1
  Pd  Pd185  1  0.40173186  0.79244230  0.40596255  1
  Pd  Pd186  1  0.40318884  0.80050685  0.59514694  1
  Pd  Pd187  1  0.19134507  0.39365380  0.39737781  1
  Pd  Pd188  1  0.80603334  0.80128078  0.59496264  1
  Pd  Pd189  1  0.40715397  0.00959659  0.20115214  1
  Pd  Pd190  1  -0.00151937  0.00325895  0.59214395  1
  Pd  Pd191  1  0.79090537  0.79418824  0.80691785  1
  Pd  Pd192  1  0.59198299  0.79994800  0.60026027  1
  Pd  Pd193  1  -0.01032395  0.00597722  0.81377208  1
  Pd  Pd194  1  0.19512703  0.60688317  0.19134709  1
  Pd  Pd195  1  0.59641001  0.59659205  0.60840944  1
  Pd  Pd196  1  0.00383033  0.80394468  0.20326181  1
  Pd  Pd197  1  0.39144723  0.01218556  0.59794371  1
  Pd  Pd198  1  0.20313779  0.80545106  0.60153170  1
  Pd  Pd199  1  0.40144986  0.19945504  0.39069812  1
  Rh  Rh200  1  0.39953102  0.79230405  0.18790927  1
  Rh  Rh201  1  0.80204438  0.80070110  0.00192100  1
  Rh  Rh202  1  0.79579181  0.20540858  0.00063962  1
  Rh  Rh203  1  0.59739274  0.19226692  0.20752988  1
  Rh  Rh204  1  0.20143682  0.00179307  0.19624641  1
  Rh  Rh205  1  0.79679071  0.20215195  0.39695084  1
  Rh  Rh206  1  -0.00094820  0.80872866  0.00024042  1
  Rh  Rh207  1  0.60176147  0.20244596  0.39796381  1
  Rh  Rh208  1  0.00091598  0.00154228  0.19878771  1
  Rh  Rh209  1  0.41020512  0.40966856  0.40243144  1
  Rh  Rh210  1  0.19759180  0.00771605  0.01226015  1
  Rh  Rh211  1  0.79657619  0.79162059  0.19487759  1
  Rh  Rh212  1  0.19171513  -0.01201196  0.78867545  1
  Rh  Rh213  1  0.80725409  0.39790720  0.40794023  1
  Rh  Rh214  1  0.39572944  0.39517425  0.79589591  1
  Rh  Rh215  1  0.40050529  0.79237309  0.79462677  1
  Rh  Rh216  1  -0.00064696  0.19804794  0.00102628  1
  Rh  Rh217  1  0.80523727  0.00379480  0.79913937  1
  Rh  Rh218  1  0.20617688  0.20205334  0.79743085  1
  Rh  Rh219  1  0.40717090  0.01301264  0.81796962  1
  Rh  Rh220  1  0.59971163  0.40678870  0.19866735  1
  Rh  Rh221  1  -0.00671952  0.39564044  0.20210175  1
  Rh  Rh222  1  0.80743937  0.00120527  0.40320935  1
  Rh  Rh223  1  0.60820137  0.81137621  0.20550359  1
  Rh  Rh224  1  0.40329706  0.19299225  -0.00006749  1
  Rh  Rh225  1  0.59524561  0.59135915  -0.00500322  1
  Rh  Rh226  1  0.19578448  0.20266665  0.00579361  1
  Rh  Rh227  1  0.59908112  0.39690449  0.59395317  1
  Rh  Rh228  1  0.79079995  0.79656877  0.40467213  1
  Rh  Rh229  1  0.59794067  0.20362035  0.80881751  1
  Rh  Rh230  1  0.59303398  -0.00841150  0.00495422  1
  Rh  Rh231  1  0.78917510  0.19332835  0.60032182  1
  Rh  Rh232  1  -0.00081179  0.58894389  0.40191301  1
  Rh  Rh233  1  -0.00666482  0.60874918  0.80364911  1
  Rh  Rh234  1  0.40544520  0.60316105  0.19533326  1
  Rh  Rh235  1  0.80101791  0.59746752  0.39390089  1
  Rh  Rh236  1  0.20094839  0.78855564  -0.00829803  1
  Rh  Rh237  1  0.40322955  -0.00079377  0.39420034  1
  Rh  Rh238  1  0.40667392  0.80678656  0.00758225  1
  Rh  Rh239  1  0.59349615  -0.00855808  0.81007807  1
  Rh  Rh240  1  0.40648168  0.60504507  0.79799269  1
  Rh  Rh241  1  0.79305784  0.19918498  0.19810830  1
  Rh  Rh242  1  0.40017919  0.59964087  0.00706141  1
  Rh  Rh243  1  0.80463032  0.60427829  0.59833479  1
  Rh  Rh244  1  0.00393196  0.79653736  0.79732467  1
  Rh  Rh245  1  0.39509707  0.40652400  0.00727248  1
  Rh  Rh246  1  0.79446814  0.60419044  0.80493198  1
  Rh  Rh247  1  0.78962285  0.00144211  0.19761536  1
  Rh  Rh248  1  0.81013215  -0.00285392  -0.00041285  1
  Rh  Rh249  1  0.20502669  0.39563657  0.19561760  1
