# generated using pymatgen
data_ZrScNbPdRh
_symmetry_space_group_name_H-M   'P 1'
_cell_length_a   16.55933541
_cell_length_b   16.56222544
_cell_length_c   16.55841872
_cell_angle_alpha   89.99739218
_cell_angle_beta   90.02340069
_cell_angle_gamma   90.02987753
_symmetry_Int_Tables_number   1
_chemical_formula_structural   ZrScNbPdRh
_chemical_formula_sum   'Zr50 Sc50 Nb50 Pd50 Rh50'
_cell_volume   4541.30174759
_cell_formula_units_Z   50
loop_
 _symmetry_equiv_pos_site_id
 _symmetry_equiv_pos_as_xyz
  1  'x, y, z'
loop_
 _atom_site_type_symbol
 _atom_site_label
 _atom_site_symmetry_multiplicity
 _atom_site_fract_x
 _atom_site_fract_y
 _atom_site_fract_z
 _atom_site_occupancy
  Zr  Zr0  1  0.29790603  0.89649957  0.49580622  1
  Zr  Zr1  1  0.69609698  0.89843957  0.50200464  1
  Zr  Zr2  1  0.70999670  0.10240508  0.49390719  1
  Zr  Zr3  1  0.89816806  0.09565296  0.29267521  1
  Zr  Zr4  1  0.49988937  0.30272368  0.30447683  1
  Zr  Zr5  1  0.51624762  0.09193607  0.09798459  1
  Zr  Zr6  1  0.90233861  0.49266357  0.50053974  1
  Zr  Zr7  1  0.70477307  0.70365300  0.90097077  1
  Zr  Zr8  1  0.50376195  0.69796771  0.10532805  1
  Zr  Zr9  1  0.31324156  0.50136216  0.10553519  1
  Zr  Zr10  1  0.29998593  0.09782870  0.29727660  1
  Zr  Zr11  1  0.89924914  0.69857007  0.50059091  1
  Zr  Zr12  1  0.08858972  0.08897627  0.69753689  1
  Zr  Zr13  1  0.09866798  0.89732020  0.90589770  1
  Zr  Zr14  1  0.09396956  0.30152887  0.49917093  1
  Zr  Zr15  1  0.30310204  0.89522734  0.90575745  1
  Zr  Zr16  1  0.30024800  0.89475437  0.10661697  1
  Zr  Zr17  1  0.30378892  0.69465883  0.48804813  1
  Zr  Zr18  1  0.30429003  0.70701234  0.29560645  1
  Zr  Zr19  1  0.10895007  0.69087334  0.29434313  1
  Zr  Zr20  1  0.50313736  0.10264841  0.29558352  1
  Zr  Zr21  1  0.50300843  0.50369369  0.49956973  1
  Zr  Zr22  1  0.09902018  0.50293534  0.49611399  1
  Zr  Zr23  1  0.49866969  0.09734986  0.90729920  1
  Zr  Zr24  1  0.28899043  0.10016979  0.90045575  1
  Zr  Zr25  1  0.69980300  0.89976426  0.09345860  1
  Zr  Zr26  1  0.89961155  0.30630194  0.29917506  1
  Zr  Zr27  1  0.10643419  0.70417873  0.70427998  1
  Zr  Zr28  1  0.50266693  0.69417521  0.70444966  1
  Zr  Zr29  1  0.89611589  0.69728705  0.70839386  1
  Zr  Zr30  1  0.70037349  0.29677499  0.70081814  1
  Zr  Zr31  1  0.90159177  0.91578913  0.71282075  1
  Zr  Zr32  1  0.69285412  0.50789994  0.09739988  1
  Zr  Zr33  1  0.11161240  0.89750527  0.29844273  1
  Zr  Zr34  1  0.09316971  0.70143418  0.91064347  1
  Zr  Zr35  1  0.30538057  0.70439156  0.89963602  1
  Zr  Zr36  1  0.28683844  0.29234823  0.89621978  1
  Zr  Zr37  1  0.29851550  0.89051766  0.70068909  1
  Zr  Zr38  1  0.49842875  0.09495651  0.69368303  1
  Zr  Zr39  1  0.90020370  0.69507959  0.90461516  1
  Zr  Zr40  1  0.89790645  0.30884253  0.89682237  1
  Zr  Zr41  1  0.50700464  0.29821974  0.90425887  1
  Zr  Zr42  1  0.70165616  0.30521831  0.49642037  1
  Zr  Zr43  1  0.29096972  0.30303361  0.69763159  1
  Zr  Zr44  1  0.10519396  0.10211961  0.30140084  1
  Zr  Zr45  1  0.09862732  0.10306991  0.09272096  1
  Zr  Zr46  1  0.69847518  0.90068197  0.70492581  1
  Zr  Zr47  1  0.50200948  0.29902384  0.69380397  1
  Zr  Zr48  1  0.50125389  0.50317229  0.90892349  1
  Zr  Zr49  1  0.30499020  0.69585354  0.70517482  1
  Sc  Sc50  1  0.71028744  0.89470404  0.30247803  1
  Sc  Sc51  1  0.48966771  0.10234988  0.50769693  1
  Sc  Sc52  1  0.90480635  0.71345076  0.29994035  1
  Sc  Sc53  1  0.08424642  0.49922092  0.89790700  1
  Sc  Sc54  1  0.50060497  0.89239407  0.28064212  1
  Sc  Sc55  1  0.09252284  0.29659939  0.90318797  1
  Sc  Sc56  1  0.68526192  0.49164498  0.31044471  1
  Sc  Sc57  1  0.50921298  0.90048381  0.70046143  1
  Sc  Sc58  1  0.10435085  0.89347996  0.09997638  1
  Sc  Sc59  1  0.49873968  0.70378663  0.89947014  1
  Sc  Sc60  1  0.09600407  0.50008943  0.11487335  1
  Sc  Sc61  1  0.09939299  0.49329468  0.69922619  1
  Sc  Sc62  1  0.89700128  0.50625265  0.90168709  1
  Sc  Sc63  1  0.50420592  0.90303959  0.51319420  1
  Sc  Sc64  1  0.91315815  0.49750272  0.30381628  1
  Sc  Sc65  1  0.69799756  0.10289700  0.90375083  1
  Sc  Sc66  1  0.49644196  0.69693879  0.30533228  1
  Sc  Sc67  1  0.70058448  0.10722935  0.29413967  1
  Sc  Sc68  1  0.68978404  0.50734759  0.69944983  1
  Sc  Sc69  1  0.30245375  0.09932771  0.69050505  1
  Sc  Sc70  1  0.29717599  0.09340804  0.09116029  1
  Sc  Sc71  1  0.49634177  0.49610566  0.29879063  1
  Sc  Sc72  1  0.09597265  0.30218258  0.29530882  1
  Sc  Sc73  1  0.30044377  0.10347999  0.49411124  1
  Sc  Sc74  1  0.09364828  0.30312725  0.70744932  1
  Sc  Sc75  1  0.68708414  0.69619148  0.50492226  1
  Sc  Sc76  1  0.90372926  0.49912717  0.09285110  1
  Sc  Sc77  1  0.30535288  0.50608505  0.29766192  1
  Sc  Sc78  1  0.09825695  0.10764275  0.90107439  1
  Sc  Sc79  1  0.70261444  0.29665942  0.09225439  1
  Sc  Sc80  1  0.89867167  0.09766849  0.89248413  1
  Sc  Sc81  1  0.90121992  0.50332766  0.71014728  1
  Sc  Sc82  1  0.09174703  0.30341814  0.09796631  1
  Sc  Sc83  1  0.30483138  0.49903114  0.50656797  1
  Sc  Sc84  1  0.69447630  0.29948576  0.30629981  1
  Sc  Sc85  1  0.10871339  0.70128079  0.48952739  1
  Sc  Sc86  1  0.90929369  0.70078633  0.09892453  1
  Sc  Sc87  1  0.48834857  0.30331531  0.50037025  1
  Sc  Sc88  1  0.90165110  0.29689015  0.49918837  1
  Sc  Sc89  1  0.89423121  0.89748594  0.47895080  1
  Sc  Sc90  1  0.31095777  0.50332742  0.90331966  1
  Sc  Sc91  1  0.89596663  0.10926296  0.69718976  1
  Sc  Sc92  1  0.69640089  0.70079282  0.09758858  1
  Sc  Sc93  1  0.30744499  0.30008508  0.30631528  1
  Sc  Sc94  1  0.70060063  0.10219702  0.69903503  1
  Sc  Sc95  1  0.70232109  0.50340844  0.90546082  1
  Sc  Sc96  1  0.69683185  0.69983338  0.70423562  1
  Sc  Sc97  1  0.90210411  0.29696273  0.09447841  1
  Sc  Sc98  1  0.30084406  0.30430094  0.09926071  1
  Sc  Sc99  1  0.68691690  0.70372617  0.29961656  1
  Nb  Nb100  1  0.49984944  0.70113502  0.50184367  1
  Nb  Nb101  1  0.70349807  0.89431846  0.89498597  1
  Nb  Nb102  1  0.89327305  0.30648291  0.69641330  1
  Nb  Nb103  1  0.30229323  0.90053784  0.29649397  1
  Nb  Nb104  1  0.50651801  0.89873835  0.09020559  1
  Nb  Nb105  1  0.71247954  0.09746681  0.09829978  1
  Nb  Nb106  1  0.09600826  0.10127179  0.49878056  1
  Nb  Nb107  1  0.49587262  0.30529131  0.10222721  1
  Nb  Nb108  1  0.89272620  0.89608992  0.90193754  1
  Nb  Nb109  1  0.49717466  0.49546199  0.09853000  1
  Nb  Nb110  1  0.48939173  0.49716658  0.70074961  1
  Nb  Nb111  1  0.70286284  0.50180598  0.49839612  1
  Nb  Nb112  1  0.90683528  0.90351876  0.29192258  1
  Nb  Nb113  1  0.89811059  0.90592115  0.10693068  1
  Nb  Nb114  1  0.10541640  0.69781799  0.09817960  1
  Nb  Nb115  1  0.10220206  0.90522223  0.50477632  1
  Nb  Nb116  1  0.29785206  0.69495688  0.10282690  1
  Nb  Nb117  1  0.89285244  0.09527241  0.10009333  1
  Nb  Nb118  1  0.09989641  0.89857096  0.69852875  1
  Nb  Nb119  1  0.10518629  0.49738406  0.30255434  1
  Nb  Nb120  1  0.69855369  0.30322651  0.89335820  1
  Nb  Nb121  1  0.50736395  0.90062535  0.90352628  1
  Nb  Nb122  1  0.29839908  0.29618724  0.49637877  1
  Nb  Nb123  1  0.30312180  0.49891046  0.70436392  1
  Nb  Nb124  1  0.90336041  0.09776337  0.49714941  1
  Nb  Nb125  1  0.40115232  0.79197378  0.59926134  1
  Nb  Nb126  1  0.00348067  0.00048436  0.39864535  1
  Nb  Nb127  1  0.79710292  0.40756756  0.20120539  1
  Nb  Nb128  1  0.40076631  0.19870369  0.80014411  1
  Nb  Nb129  1  0.39873457  -0.00058077  0.80465100  1
  Nb  Nb130  1  -0.00057606  0.80548810  0.60143577  1
  Nb  Nb131  1  0.20103412  0.59787087  0.00367060  1
  Nb  Nb132  1  -0.00207222  0.80522823  0.79979271  1
  Nb  Nb133  1  0.19944373  0.40957185  0.00087661  1
  Nb  Nb134  1  0.20493083  0.19898587  0.20037704  1
  Nb  Nb135  1  0.80577004  0.80534914  0.60349720  1
  Nb  Nb136  1  0.40193565  0.39613779  0.79744730  1
  Nb  Nb137  1  0.79673701  0.59646206  0.39710720  1
  Nb  Nb138  1  0.19918320  0.40146286  0.40021034  1
  Nb  Nb139  1  0.20296418  0.59903661  0.80607698  1
  Nb  Nb140  1  0.40239484  -0.00605949  0.39187735  1
  Nb  Nb141  1  0.00144492  0.60681415  0.60054137  1
  Nb  Nb142  1  0.80382751  -0.00270234  0.59352619  1
  Nb  Nb143  1  0.40478979  0.19941625  0.19292335  1
  Nb  Nb144  1  0.19970905  -0.00675822  0.79723854  1
  Nb  Nb145  1  0.59563067  0.00140326  0.39742971  1
  Nb  Nb146  1  0.19044998  0.19875316  0.59288974  1
  Nb  Nb147  1  0.79786180  0.40096122  0.60198124  1
  Nb  Nb148  1  -0.01321772  -0.00341739  0.00678598  1
  Nb  Nb149  1  0.79846936  0.59458556  0.20808344  1
  Pd  Pd150  1  0.39285689  0.39053311  -0.00855522  1
  Pd  Pd151  1  0.40565832  0.79577847  0.00792944  1
  Pd  Pd152  1  0.80251351  0.59871175  0.59779025  1
  Pd  Pd153  1  0.20153397  0.79391886  0.59086602  1
  Pd  Pd154  1  0.59914190  0.59545710  0.20750255  1
  Pd  Pd155  1  0.20131708  0.41224087  0.81254802  1
  Pd  Pd156  1  0.60567973  0.39769242  0.00289553  1
  Pd  Pd157  1  -0.01183819  -0.00941749  0.58771370  1
  Pd  Pd158  1  -0.00489902  0.19687487  0.39408587  1
  Pd  Pd159  1  0.60186328  0.20819580  0.18972385  1
  Pd  Pd160  1  0.59983096  0.00471496  0.80658077  1
  Pd  Pd161  1  0.61290145  -0.00762206  0.20597440  1
  Pd  Pd162  1  0.01104543  -0.00122861  0.19823426  1
  Pd  Pd163  1  0.00147017  0.20090824  0.19637623  1
  Pd  Pd164  1  0.39932808  -0.00275156  0.00096165  1
  Pd  Pd165  1  0.19945415  0.39696253  0.59239784  1
  Pd  Pd166  1  0.79362613  0.40979165  0.79485383  1
  Pd  Pd167  1  0.60486358  0.39592232  0.19596298  1
  Pd  Pd168  1  -0.00627980  0.60104608  0.20171280  1
  Pd  Pd169  1  0.40216346  0.00326250  0.19505221  1
  Pd  Pd170  1  0.79040512  -0.00336677  0.20580621  1
  Pd  Pd171  1  0.59995465  0.59782763  0.80759208  1
  Pd  Pd172  1  0.41235209  0.81002973  0.40406258  1
  Pd  Pd173  1  0.20535611  0.39429952  0.20163591  1
  Pd  Pd174  1  0.60127849  0.19747381  0.59169889  1
  Pd  Pd175  1  0.59598048  0.19311842  0.79962815  1
  Pd  Pd176  1  -0.00073765  0.20432310  0.60419872  1
  Pd  Pd177  1  0.20521666  0.00614463  0.60052708  1
  Pd  Pd178  1  0.79926075  0.00040561  -0.00862509  1
  Pd  Pd179  1  0.80414162  0.20068411  -0.00809242  1
  Pd  Pd180  1  0.59068047  0.80968494  0.39798831  1
  Pd  Pd181  1  -0.00351300  0.60379871  0.39920149  1
  Pd  Pd182  1  0.79836570  0.79130891  0.19595782  1
  Pd  Pd183  1  0.79791590  0.40220678  0.00441709  1
  Pd  Pd184  1  0.00711061  0.79955498  0.19597829  1
  Pd  Pd185  1  0.19627869  0.59752898  0.60632169  1
  Pd  Pd186  1  0.20149629  -0.00021613  0.40403788  1
  Pd  Pd187  1  0.60451739  0.40448320  0.59729821  1
  Pd  Pd188  1  -0.00509235  0.20413685  0.79817430  1
  Pd  Pd189  1  0.39795333  0.20225805  0.00358090  1
  Pd  Pd190  1  0.80007549  0.19963865  0.80508192  1
  Pd  Pd191  1  0.59193193  0.19478957  0.41066053  1
  Pd  Pd192  1  0.60521120  0.20117135  0.00544298  1
  Pd  Pd193  1  0.79185398  0.78678152  0.40290446  1
  Pd  Pd194  1  0.80779565  0.20172465  0.39567976  1
  Pd  Pd195  1  0.40196548  0.60277918  0.59793609  1
  Pd  Pd196  1  0.79687402  0.21123059  0.19916216  1
  Pd  Pd197  1  0.80580096  0.79587607  0.01077636  1
  Pd  Pd198  1  0.59709900  0.40674770  0.80127306  1
  Pd  Pd199  1  0.01025277  0.80638493  0.40180361  1
  Rh  Rh200  1  0.19564681  0.21501666  0.01242404  1
  Rh  Rh201  1  0.19890113  0.18307990  0.78067421  1
  Rh  Rh202  1  0.40256475  0.79731765  0.19295907  1
  Rh  Rh203  1  0.59476728  0.60591545  -0.00210169  1
  Rh  Rh204  1  0.39180599  0.40599318  0.40388403  1
  Rh  Rh205  1  0.00886580  0.39761495  0.39503121  1
  Rh  Rh206  1  0.79096925  0.00600617  0.79976521  1
  Rh  Rh207  1  0.80408172  0.80035978  0.79649665  1
  Rh  Rh208  1  0.40866316  0.60329592  0.20142419  1
  Rh  Rh209  1  0.60420016  0.80394723  0.19425668  1
  Rh  Rh210  1  0.41486533  0.81182373  0.79366398  1
  Rh  Rh211  1  0.19862681  0.00402660  0.19232043  1
  Rh  Rh212  1  0.20023345  0.79604022  0.19883825  1
  Rh  Rh213  1  0.19839899  0.80151017  0.39736367  1
  Rh  Rh214  1  0.59860327  0.79934354  0.80556262  1
  Rh  Rh215  1  0.59857836  0.79015788  0.60771768  1
  Rh  Rh216  1  -0.00644686  0.39794150  0.80016896  1
  Rh  Rh217  1  -0.01133057  0.19085004  -0.00146287  1
  Rh  Rh218  1  0.80238710  0.00366470  0.39436467  1
  Rh  Rh219  1  0.00744544  0.59369213  0.00962072  1
  Rh  Rh220  1  0.39918792  0.59078797  0.80295944  1
  Rh  Rh221  1  0.80490518  0.20152702  0.59593732  1
  Rh  Rh222  1  0.19085066  -0.00470758  -0.00230594  1
  Rh  Rh223  1  0.40330070  0.59622221  0.39912391  1
  Rh  Rh224  1  -0.01027809  0.80984808  0.00209278  1
  Rh  Rh225  1  0.80064094  0.60415850  0.01013678  1
  Rh  Rh226  1  0.19094420  0.79898102  0.81091063  1
  Rh  Rh227  1  0.20363175  0.59723812  0.19685690  1
  Rh  Rh228  1  0.40314827  0.39447282  0.20433936  1
  Rh  Rh229  1  0.59942572  0.59901845  0.40140933  1
  Rh  Rh230  1  0.79125143  0.59654045  0.80462944  1
  Rh  Rh231  1  0.39328691  -0.01527519  0.60004006  1
  Rh  Rh232  1  0.38843849  0.20882933  0.60412484  1
  Rh  Rh233  1  0.00442822  0.40273567  -0.00063917  1
  Rh  Rh234  1  0.59982217  0.80000648  -0.00467807  1
  Rh  Rh235  1  0.40240777  0.60808999  0.00716434  1
  Rh  Rh236  1  0.61240018  0.01229509  0.58938359  1
  Rh  Rh237  1  0.59198179  0.39819993  0.40901974  1
  Rh  Rh238  1  0.39474969  0.39729669  0.60278366  1
  Rh  Rh239  1  0.00974069  0.60620267  0.79333427  1
  Rh  Rh240  1  0.79963526  0.40547296  0.39928683  1
  Rh  Rh241  1  0.61291258  -0.00363022  -0.00485738  1
  Rh  Rh242  1  0.00842221  -0.00396256  0.81564741  1
  Rh  Rh243  1  0.19578895  0.21113170  0.40006668  1
  Rh  Rh244  1  -0.00799453  0.40177371  0.19900051  1
  Rh  Rh245  1  -0.00983859  0.40651015  0.60879761  1
  Rh  Rh246  1  0.59480899  0.59670399  0.60095121  1
  Rh  Rh247  1  0.40359443  0.19272790  0.39493405  1
  Rh  Rh248  1  0.20664264  0.79317766  0.00599633  1
  Rh  Rh249  1  0.20818453  0.59122563  0.39414210  1
