# generated using pymatgen
data_ZrScNbPdRh
_symmetry_space_group_name_H-M   'P 1'
_cell_length_a   16.55727588
_cell_length_b   16.55567421
_cell_length_c   16.55506545
_cell_angle_alpha   89.98477993
_cell_angle_beta   90.00325188
_cell_angle_gamma   90.02033012
_symmetry_Int_Tables_number   1
_chemical_formula_structural   ZrScNbPdRh
_chemical_formula_sum   'Zr50 Sc50 Nb50 Pd50 Rh50'
_cell_volume   4538.02219195
_cell_formula_units_Z   50
loop_
 _symmetry_equiv_pos_site_id
 _symmetry_equiv_pos_as_xyz
  1  'x, y, z'
loop_
 _atom_site_type_symbol
 _atom_site_label
 _atom_site_symmetry_multiplicity
 _atom_site_fract_x
 _atom_site_fract_y
 _atom_site_fract_z
 _atom_site_occupancy
  Zr  Zr0  1  0.70532776  0.48968201  0.50330181  1
  Zr  Zr1  1  0.09786385  0.50538795  0.50511289  1
  Zr  Zr2  1  0.50112938  0.49462560  0.10161867  1
  Zr  Zr3  1  0.49851007  0.29379985  0.89744555  1
  Zr  Zr4  1  0.10089691  0.29806978  0.69778760  1
  Zr  Zr5  1  0.10152673  0.69494470  0.50774456  1
  Zr  Zr6  1  0.90752833  0.09056562  0.50518961  1
  Zr  Zr7  1  0.70358387  0.89874276  0.50163439  1
  Zr  Zr8  1  0.30119608  0.69718149  0.69783576  1
  Zr  Zr9  1  0.50166946  0.09393697  0.89831441  1
  Zr  Zr10  1  0.50101573  0.29181497  0.29365756  1
  Zr  Zr11  1  0.10034529  0.49200960  0.09390146  1
  Zr  Zr12  1  0.70907460  0.69318508  0.10576708  1
  Zr  Zr13  1  0.30707119  0.70744836  0.90813979  1
  Zr  Zr14  1  0.90637357  0.50236000  0.90120432  1
  Zr  Zr15  1  0.50221189  0.29938098  0.10217243  1
  Zr  Zr16  1  0.30068965  0.90095414  0.69592626  1
  Zr  Zr17  1  0.49613944  0.49515798  0.50521398  1
  Zr  Zr18  1  0.69977256  0.90667010  0.89516657  1
  Zr  Zr19  1  0.69967071  0.29461447  0.10090283  1
  Zr  Zr20  1  0.69776540  0.89691262  0.69834612  1
  Zr  Zr21  1  0.90096891  0.89558907  0.29935548  1
  Zr  Zr22  1  0.89688199  0.70085805  0.50721163  1
  Zr  Zr23  1  0.30074914  0.30209835  0.50262377  1
  Zr  Zr24  1  0.10523682  0.10668375  0.30139481  1
  Zr  Zr25  1  0.70111702  0.70400234  0.30303437  1
  Zr  Zr26  1  0.30558398  0.49640442  0.09329083  1
  Zr  Zr27  1  0.09458668  0.10752010  0.69069374  1
  Zr  Zr28  1  0.30197204  0.70244211  0.30577231  1
  Zr  Zr29  1  0.30124560  0.09967856  0.48810391  1
  Zr  Zr30  1  0.30533019  0.30040864  0.10498903  1
  Zr  Zr31  1  0.30029895  0.90401836  0.30149720  1
  Zr  Zr32  1  0.70127608  0.90035967  0.30467644  1
  Zr  Zr33  1  0.09846163  0.31054773  0.90305052  1
  Zr  Zr34  1  0.89833766  0.49362383  0.30672085  1
  Zr  Zr35  1  0.89302377  0.90341640  0.69189609  1
  Zr  Zr36  1  0.10321595  0.89913883  0.90499578  1
  Zr  Zr37  1  0.69745009  0.09151655  0.29366726  1
  Zr  Zr38  1  0.49619519  0.51199872  0.70447705  1
  Zr  Zr39  1  0.69416964  0.29989750  0.50490397  1
  Zr  Zr40  1  0.89377648  0.70224451  0.09985054  1
  Zr  Zr41  1  0.89372001  0.31166698  0.49336612  1
  Zr  Zr42  1  0.50424652  0.70175926  0.49763504  1
  Zr  Zr43  1  0.90776774  0.09313569  0.29840524  1
  Zr  Zr44  1  0.48955561  0.70236238  0.09544319  1
  Zr  Zr45  1  0.09827711  0.90712907  0.29368574  1
  Zr  Zr46  1  0.70299077  0.49663988  0.09855034  1
  Zr  Zr47  1  0.89593687  0.70069067  0.29348894  1
  Zr  Zr48  1  0.90632955  0.28737704  0.70542131  1
  Zr  Zr49  1  0.10221667  0.90349254  0.70005501  1
  Sc  Sc50  1  0.08980831  0.50276022  0.30042417  1
  Sc  Sc51  1  0.50479325  0.70791488  0.30189723  1
  Sc  Sc52  1  0.50589186  0.09313532  0.50060087  1
  Sc  Sc53  1  0.09159234  0.70459337  0.30342355  1
  Sc  Sc54  1  0.10052288  0.90334572  0.09383276  1
  Sc  Sc55  1  0.29617417  0.29917863  0.70180397  1
  Sc  Sc56  1  0.71134612  0.29915555  0.90238062  1
  Sc  Sc57  1  0.49145184  0.50730252  0.89851470  1
  Sc  Sc58  1  0.71041005  0.09794701  0.10103181  1
  Sc  Sc59  1  0.90027886  0.50268263  0.10252279  1
  Sc  Sc60  1  0.09990736  0.09128799  0.10914109  1
  Sc  Sc61  1  0.70436234  0.90841544  0.10764553  1
  Sc  Sc62  1  0.89753137  0.69918109  0.71102299  1
  Sc  Sc63  1  0.30693575  0.28495401  0.30386939  1
  Sc  Sc64  1  0.09229305  0.70638492  0.09524580  1
  Sc  Sc65  1  0.89475080  0.90216971  0.49710967  1
  Sc  Sc66  1  0.69653765  0.29663136  0.69717429  1
  Sc  Sc67  1  0.70651519  0.49843264  0.90026535  1
  Sc  Sc68  1  0.49779761  0.49593563  0.30310034  1
  Sc  Sc69  1  0.29542472  0.09678297  0.29602123  1
  Sc  Sc70  1  0.69901712  0.09542887  0.70340275  1
  Sc  Sc71  1  0.69819144  0.50041985  0.70034538  1
  Sc  Sc72  1  0.10056160  0.90615343  0.49482075  1
  Sc  Sc73  1  0.50034623  0.29997021  0.50038295  1
  Sc  Sc74  1  0.09989265  0.52030768  0.70077243  1
  Sc  Sc75  1  0.88467143  0.10430821  0.89869535  1
  Sc  Sc76  1  0.10610604  0.09662838  0.90050632  1
  Sc  Sc77  1  0.89456639  0.89799985  0.90052725  1
  Sc  Sc78  1  0.51056615  0.89987934  0.50221879  1
  Sc  Sc79  1  0.30487103  0.30197614  0.90195542  1
  Sc  Sc80  1  0.09535099  0.30262604  0.11173655  1
  Sc  Sc81  1  0.91355521  0.29758140  0.29623111  1
  Sc  Sc82  1  0.08493994  0.69754381  0.89345192  1
  Sc  Sc83  1  0.50504455  0.89497536  0.69967549  1
  Sc  Sc84  1  0.51009575  0.09908218  0.70036384  1
  Sc  Sc85  1  0.49579785  0.90051883  0.90112097  1
  Sc  Sc86  1  0.49508674  0.09161230  0.29819030  1
  Sc  Sc87  1  0.90472535  0.90633607  0.10124394  1
  Sc  Sc88  1  0.89653606  0.50568041  0.69954610  1
  Sc  Sc89  1  0.30063075  0.90165427  0.49933813  1
  Sc  Sc90  1  0.49780635  0.08917814  0.10028785  1
  Sc  Sc91  1  0.30119663  0.10060711  0.90443524  1
  Sc  Sc92  1  0.49881847  0.70188409  0.88969324  1
  Sc  Sc93  1  0.69698294  0.70465268  0.71126406  1
  Sc  Sc94  1  0.49969598  0.70413883  0.70372158  1
  Sc  Sc95  1  0.89554584  0.30310138  0.89799584  1
  Sc  Sc96  1  0.30089668  0.89803284  0.08410728  1
  Sc  Sc97  1  0.69525922  0.50255393  0.29818375  1
  Sc  Sc98  1  0.30165027  0.69820507  0.49839084  1
  Sc  Sc99  1  0.50419446  0.29388080  0.69552750  1
  Nb  Nb100  1  0.70040572  0.70409745  0.90590107  1
  Nb  Nb101  1  0.89784239  0.50168451  0.50350263  1
  Nb  Nb102  1  0.30231260  0.50041743  0.50330788  1
  Nb  Nb103  1  0.89544254  0.29272452  0.10001150  1
  Nb  Nb104  1  0.10541575  0.30059879  0.30244755  1
  Nb  Nb105  1  0.29055027  0.09975574  0.09943322  1
  Nb  Nb106  1  0.90507591  0.10051371  0.69507020  1
  Nb  Nb107  1  0.29624987  0.90060296  0.89725483  1
  Nb  Nb108  1  0.70084568  0.29283289  0.29976520  1
  Nb  Nb109  1  0.30349887  0.50559107  0.69663097  1
  Nb  Nb110  1  0.10290158  0.29673915  0.50071132  1
  Nb  Nb111  1  0.69719608  0.70634546  0.49780245  1
  Nb  Nb112  1  0.29783541  0.50180179  0.30364498  1
  Nb  Nb113  1  0.29614466  0.09666433  0.69764722  1
  Nb  Nb114  1  0.70089069  0.09338143  0.49609539  1
  Nb  Nb115  1  0.49923926  0.89778805  0.10019167  1
  Nb  Nb116  1  0.90097203  0.10513000  0.09996207  1
  Nb  Nb117  1  0.50559160  0.90252008  0.28700709  1
  Nb  Nb118  1  0.88625781  0.70007403  0.90360903  1
  Nb  Nb119  1  0.29742667  0.50281725  0.89665683  1
  Nb  Nb120  1  0.09874047  0.70308804  0.69930304  1
  Nb  Nb121  1  0.29721101  0.69973550  0.09789559  1
  Nb  Nb122  1  0.09790179  0.10686361  0.49608895  1
  Nb  Nb123  1  0.69659305  0.09856050  0.90248959  1
  Nb  Nb124  1  0.10236400  0.49988834  0.90211827  1
  Nb  Nb125  1  0.79695248  0.19613406  0.40143237  1
  Nb  Nb126  1  0.60222947  0.60283264  0.59410959  1
  Nb  Nb127  1  0.79953444  0.39058244  0.20031924  1
  Nb  Nb128  1  0.59552512  0.40002616  0.80242216  1
  Nb  Nb129  1  -0.00153321  0.19934490  0.00574966  1
  Nb  Nb130  1  0.20556008  0.40323417  0.21035763  1
  Nb  Nb131  1  0.20318829  0.60056034  0.19570047  1
  Nb  Nb132  1  0.20114814  0.40077429  0.40172259  1
  Nb  Nb133  1  0.19939189  0.79900110  0.79993594  1
  Nb  Nb134  1  0.60315891  0.60667036  -0.00069040  1
  Nb  Nb135  1  0.20133254  0.41397631  0.80092667  1
  Nb  Nb136  1  -0.00326012  0.00411477  0.79393115  1
  Nb  Nb137  1  0.20480989  0.79548534  0.19604963  1
  Nb  Nb138  1  0.80212996  0.19307321  0.59470295  1
  Nb  Nb139  1  0.39465194  0.19158989  0.60029158  1
  Nb  Nb140  1  0.19661735  0.20344689  0.00783086  1
  Nb  Nb141  1  0.00265430  0.79864963  0.60483253  1
  Nb  Nb142  1  0.39256003  -0.00003611  0.79597414  1
  Nb  Nb143  1  0.60740210  0.19566692  0.39661338  1
  Nb  Nb144  1  0.00130625  0.40109913  0.59685063  1
  Nb  Nb145  1  0.79903917  0.59886022  0.40809031  1
  Nb  Nb146  1  0.60222456  0.79863018  0.00331392  1
  Nb  Nb147  1  0.60227438  0.19507142  -0.00163451  1
  Nb  Nb148  1  0.39201449  0.60087861  0.20046417  1
  Nb  Nb149  1  0.20019989  0.59792309  -0.00294853  1
  Pd  Pd150  1  0.19910291  0.00021174  0.80022089  1
  Pd  Pd151  1  0.19550194  0.00642133  0.58954846  1
  Pd  Pd152  1  -0.00451444  0.20143929  0.40368253  1
  Pd  Pd153  1  0.00376975  0.60043173  0.19527887  1
  Pd  Pd154  1  0.79397035  0.81195155  0.00625021  1
  Pd  Pd155  1  0.00089309  0.60446315  0.00068955  1
  Pd  Pd156  1  0.58952476  0.60333471  0.19686596  1
  Pd  Pd157  1  0.40092148  0.19218185  0.00685775  1
  Pd  Pd158  1  0.20197679  0.20754218  0.80961108  1
  Pd  Pd159  1  0.19698919  0.80062581  0.60042809  1
  Pd  Pd160  1  0.40873387  0.81081734  0.40293224  1
  Pd  Pd161  1  0.60506244  0.80040941  0.19265079  1
  Pd  Pd162  1  0.80882649  0.39164049  0.61465150  1
  Pd  Pd163  1  0.59965350  0.40035652  -0.01256273  1
  Pd  Pd164  1  0.40733607  0.00440358  0.60489574  1
  Pd  Pd165  1  0.60979268  0.20498964  0.80650054  1
  Pd  Pd166  1  0.40468551  0.59971023  0.39720633  1
  Pd  Pd167  1  0.40220756  0.18611659  0.19570746  1
  Pd  Pd168  1  0.80394113  0.00405094  0.79601640  1
  Pd  Pd169  1  0.40330783  0.79881886  0.59575335  1
  Pd  Pd170  1  -0.00671491  0.79979140  -0.00169905  1
  Pd  Pd171  1  0.00080404  0.19069594  0.81716420  1
  Pd  Pd172  1  0.39966184  0.39977420  0.79333375  1
  Pd  Pd173  1  0.00021954  0.80055298  0.40950780  1
  Pd  Pd174  1  0.39096128  -0.00233553  0.19030982  1
  Pd  Pd175  1  0.79549150  0.60015481  0.80414058  1
  Pd  Pd176  1  0.80586512  0.19997279  0.20936326  1
  Pd  Pd177  1  0.59998934  0.39382567  0.39405302  1
  Pd  Pd178  1  0.19562852  0.59611014  0.39768632  1
  Pd  Pd179  1  0.60496905  0.59457326  0.40590949  1
  Pd  Pd180  1  0.01058197  0.39962314  0.40554429  1
  Pd  Pd181  1  0.00773497  0.41226130  0.78717485  1
  Pd  Pd182  1  0.39247456  0.80022735  0.19951913  1
  Pd  Pd183  1  0.60603714  0.39870053  0.20668710  1
  Pd  Pd184  1  0.40407887  0.39936051  -0.00734111  1
  Pd  Pd185  1  0.20262257  0.60662222  0.80654508  1
  Pd  Pd186  1  0.78930967  0.60799486  0.60094445  1
  Pd  Pd187  1  0.40243379  0.39254039  0.61073834  1
  Pd  Pd188  1  0.19513707  0.41044535  0.60552801  1
  Pd  Pd189  1  -0.01046320  0.39254168  0.00595577  1
  Pd  Pd190  1  0.39477625  0.39451374  0.39388307  1
  Pd  Pd191  1  0.79498674  0.39709932  0.79316016  1
  Pd  Pd192  1  0.39541817  0.19111983  0.79059006  1
  Pd  Pd193  1  0.40950298  -0.00806714  0.40000304  1
  Pd  Pd194  1  0.20691495  0.19377863  0.59475444  1
  Pd  Pd195  1  0.19471200  0.80178717  0.39639906  1
  Pd  Pd196  1  -0.00287006  0.80683477  0.79776870  1
  Pd  Pd197  1  0.60320810  -0.00223855  0.00652644  1
  Pd  Pd198  1  -0.00832429  0.01048874  -0.00986027  1
  Pd  Pd199  1  -0.00837946  0.60428065  0.40181371  1
  Rh  Rh200  1  0.79299665  0.00611301  0.60158662  1
  Rh  Rh201  1  0.80058281  0.80736058  0.19696495  1
  Rh  Rh202  1  -0.00824773  0.21083111  0.58603995  1
  Rh  Rh203  1  0.19706084  0.00304115  0.40070692  1
  Rh  Rh204  1  0.39281598  0.80833680  0.79899881  1
  Rh  Rh205  1  0.20015308  0.20749405  0.19525859  1
  Rh  Rh206  1  0.20976495  0.59943106  0.59837537  1
  Rh  Rh207  1  0.59873982  0.00007788  0.19521637  1
  Rh  Rh208  1  0.80157974  0.79535897  0.60473248  1
  Rh  Rh209  1  0.19225420  0.79143945  -0.00465313  1
  Rh  Rh210  1  0.60292366  0.79140871  0.60267418  1
  Rh  Rh211  1  0.00711181  -0.00749264  0.60051123  1
  Rh  Rh212  1  0.39275325  0.60617975  0.80143428  1
  Rh  Rh213  1  0.80287177  0.00087315  0.00141392  1
  Rh  Rh214  1  -0.00019793  0.00041487  0.19900838  1
  Rh  Rh215  1  0.40769005  0.80804595  -0.00300310  1
  Rh  Rh216  1  0.41481084  0.19563556  0.40913645  1
  Rh  Rh217  1  0.00528126  0.00026679  0.39921172  1
  Rh  Rh218  1  0.59608277  0.19084458  0.19692859  1
  Rh  Rh219  1  0.79845773  0.19650191  -0.00106395  1
  Rh  Rh220  1  0.00572234  0.19710721  0.19581020  1
  Rh  Rh221  1  0.80299673  0.58816855  0.21168060  1
  Rh  Rh222  1  0.20327122  0.00735746  0.00160387  1
  Rh  Rh223  1  0.79523436  0.19620912  0.79214204  1
  Rh  Rh224  1  0.19957154  0.20509805  0.40052723  1
  Rh  Rh225  1  0.40212400  0.59850761  0.00027121  1
  Rh  Rh226  1  0.79191278  0.39971944  0.38920809  1
  Rh  Rh227  1  0.40320777  0.60564191  0.59504968  1
  Rh  Rh228  1  0.60121679  0.19192500  0.59010428  1
  Rh  Rh229  1  -0.00644907  0.60107390  0.80307727  1
  Rh  Rh230  1  0.39499368  0.40484821  0.20975678  1
  Rh  Rh231  1  0.80412930  0.00186869  0.39710446  1
  Rh  Rh232  1  0.80196480  0.79485317  0.40035625  1
  Rh  Rh233  1  0.59607451  0.81065950  0.39594577  1
  Rh  Rh234  1  0.39515576  -0.00185093  -0.00367868  1
  Rh  Rh235  1  0.59226038  -0.00504355  0.79885493  1
  Rh  Rh236  1  0.59696458  -0.00195346  0.39499471  1
  Rh  Rh237  1  0.80750011  0.40221181  0.00881979  1
  Rh  Rh238  1  0.20603674  -0.01384071  0.19341595  1
  Rh  Rh239  1  0.80903626  -0.00093304  0.20103972  1
  Rh  Rh240  1  0.60494632  -0.00191047  0.60328601  1
  Rh  Rh241  1  0.59012807  0.41074624  0.61365503  1
  Rh  Rh242  1  0.79854604  0.59467615  -0.00508096  1
  Rh  Rh243  1  0.20490543  0.39704652  -0.00223220  1
  Rh  Rh244  1  -0.00312449  0.39866473  0.19898960  1
  Rh  Rh245  1  0.60501486  0.59429187  0.80371507  1
  Rh  Rh246  1  0.79906111  0.80029970  0.80170509  1
  Rh  Rh247  1  0.00659445  0.80462510  0.19366573  1
  Rh  Rh248  1  0.60113450  0.80457837  0.80924053  1
  Rh  Rh249  1  -0.00729203  0.60318232  0.60750680  1
