# generated using pymatgen
data_ZrScNbPdRh
_symmetry_space_group_name_H-M   'P 1'
_cell_length_a   16.55900981
_cell_length_b   16.56429878
_cell_length_c   16.56505397
_cell_angle_alpha   90.01285646
_cell_angle_beta   89.97806156
_cell_angle_gamma   90.04015015
_symmetry_Int_Tables_number   1
_chemical_formula_structural   ZrScNbPdRh
_chemical_formula_sum   'Zr50 Sc50 Nb50 Pd50 Rh50'
_cell_volume   4543.60035711
_cell_formula_units_Z   50
loop_
 _symmetry_equiv_pos_site_id
 _symmetry_equiv_pos_as_xyz
  1  'x, y, z'
loop_
 _atom_site_type_symbol
 _atom_site_label
 _atom_site_symmetry_multiplicity
 _atom_site_fract_x
 _atom_site_fract_y
 _atom_site_fract_z
 _atom_site_occupancy
  Zr  Zr0  1  0.69100645  0.89402515  0.90265150  1
  Zr  Zr1  1  0.09396411  0.29528439  0.70463482  1
  Zr  Zr2  1  0.50550663  0.49179393  0.30171494  1
  Zr  Zr3  1  0.50136421  0.29848000  0.89435297  1
  Zr  Zr4  1  0.09822240  0.90755930  0.31147156  1
  Zr  Zr5  1  0.70566182  0.29321784  0.30148168  1
  Zr  Zr6  1  0.69555563  0.70444798  0.70349573  1
  Zr  Zr7  1  0.29587861  0.89610518  0.08865980  1
  Zr  Zr8  1  0.88857397  0.29312494  0.09890765  1
  Zr  Zr9  1  0.69573040  0.10113230  0.90458177  1
  Zr  Zr10  1  0.71230653  0.51089038  0.29915364  1
  Zr  Zr11  1  0.49606779  0.50072436  0.70077085  1
  Zr  Zr12  1  0.91105062  0.10307908  0.70253031  1
  Zr  Zr13  1  0.10090966  0.08027553  0.49722644  1
  Zr  Zr14  1  0.90031934  0.29831235  0.69398769  1
  Zr  Zr15  1  0.69190017  0.09772197  0.29919952  1
  Zr  Zr16  1  0.90376464  0.10049595  0.90404701  1
  Zr  Zr17  1  0.49633795  0.70445020  0.09794687  1
  Zr  Zr18  1  0.29849315  0.09855557  0.49985367  1
  Zr  Zr19  1  0.70460286  0.69565985  0.49801813  1
  Zr  Zr20  1  0.09803958  0.50328338  0.89573727  1
  Zr  Zr21  1  0.49579246  0.69487853  0.70053309  1
  Zr  Zr22  1  0.10909372  0.90260588  0.90899577  1
  Zr  Zr23  1  0.10174615  0.90794023  0.69719569  1
  Zr  Zr24  1  0.70238746  0.29651083  0.70143637  1
  Zr  Zr25  1  0.50329104  0.09627655  0.90785190  1
  Zr  Zr26  1  0.89725553  0.69901365  0.70398224  1
  Zr  Zr27  1  0.50330313  0.70752598  0.89722460  1
  Zr  Zr28  1  0.70106620  0.29605468  0.90911754  1
  Zr  Zr29  1  0.89181067  0.69932336  0.89816654  1
  Zr  Zr30  1  0.29954408  0.70660556  0.29562837  1
  Zr  Zr31  1  0.09701167  0.70070271  0.89952892  1
  Zr  Zr32  1  0.89065542  0.69401071  0.30404101  1
  Zr  Zr33  1  0.70754588  0.69569096  0.08834134  1
  Zr  Zr34  1  0.90213842  0.49946383  0.89034317  1
  Zr  Zr35  1  0.29381895  0.10352686  0.70662467  1
  Zr  Zr36  1  0.70634881  0.90350952  0.29495921  1
  Zr  Zr37  1  0.09845676  0.10533452  0.29628702  1
  Zr  Zr38  1  0.90155223  0.89474079  0.30426321  1
  Zr  Zr39  1  0.10850227  0.50040139  0.09149120  1
  Zr  Zr40  1  0.90157605  0.10378566  0.30075524  1
  Zr  Zr41  1  0.30584503  0.30342079  0.70481854  1
  Zr  Zr42  1  0.30233429  0.51139732  0.69757389  1
  Zr  Zr43  1  0.09811265  0.09873984  0.09878635  1
  Zr  Zr44  1  0.89768126  0.09705476  0.50609464  1
  Zr  Zr45  1  0.29793438  0.49793410  0.50583610  1
  Zr  Zr46  1  0.10279321  0.70222175  0.69672327  1
  Zr  Zr47  1  0.89540724  0.29466697  0.49736391  1
  Zr  Zr48  1  0.30284921  0.70420664  0.69881259  1
  Zr  Zr49  1  0.29782708  0.30079499  0.89769202  1
  Sc  Sc50  1  0.51111576  0.88832404  0.69680299  1
  Sc  Sc51  1  0.09330761  0.49177332  0.30316545  1
  Sc  Sc52  1  0.30096035  0.30823249  0.50246500  1
  Sc  Sc53  1  0.50615531  0.90039298  0.49948156  1
  Sc  Sc54  1  0.70094663  0.09547171  0.49886873  1
  Sc  Sc55  1  0.70407626  0.09521533  0.69398459  1
  Sc  Sc56  1  0.90070951  0.29836463  0.90036397  1
  Sc  Sc57  1  0.28966261  0.89922310  0.49936186  1
  Sc  Sc58  1  0.09630529  0.89698406  0.09432900  1
  Sc  Sc59  1  0.31103250  0.10258198  0.29806521  1
  Sc  Sc60  1  0.28671807  0.50390415  0.90094598  1
  Sc  Sc61  1  0.49839759  0.49638331  0.09315502  1
  Sc  Sc62  1  0.29779432  0.09698060  0.90260596  1
  Sc  Sc63  1  0.69768141  0.49449327  0.48971391  1
  Sc  Sc64  1  0.09539793  0.69904036  0.50397587  1
  Sc  Sc65  1  0.29975806  0.70587208  0.50570829  1
  Sc  Sc66  1  0.30995463  0.29356932  0.29524469  1
  Sc  Sc67  1  0.09164388  0.29693987  0.10589547  1
  Sc  Sc68  1  0.50277314  0.09758366  0.10661770  1
  Sc  Sc69  1  0.89899242  0.89700627  0.69562858  1
  Sc  Sc70  1  0.69784788  0.10903248  0.10730523  1
  Sc  Sc71  1  0.69759852  0.50701840  0.90835836  1
  Sc  Sc72  1  0.70160466  0.89775065  0.69191174  1
  Sc  Sc73  1  0.90622205  0.70272645  0.49834276  1
  Sc  Sc74  1  0.91385497  0.89723874  0.90299363  1
  Sc  Sc75  1  0.30177219  0.89595106  0.30713216  1
  Sc  Sc76  1  0.50054896  0.50419218  0.89850653  1
  Sc  Sc77  1  0.09488623  0.70164188  0.30373527  1
  Sc  Sc78  1  0.49944321  0.29395813  0.29850939  1
  Sc  Sc79  1  0.49742644  0.90548885  0.30010695  1
  Sc  Sc80  1  0.49738679  0.49923623  0.50119277  1
  Sc  Sc81  1  0.49763416  0.31047670  0.49131202  1
  Sc  Sc82  1  0.50640166  0.09169673  0.49156350  1
  Sc  Sc83  1  0.70648753  0.29686132  0.49522112  1
  Sc  Sc84  1  0.90926457  0.49786660  0.49565817  1
  Sc  Sc85  1  0.30539446  0.10044629  0.10673797  1
  Sc  Sc86  1  0.09458961  0.09304189  0.89656147  1
  Sc  Sc87  1  0.50695560  0.09744014  0.70847632  1
  Sc  Sc88  1  0.88410885  0.48987902  0.10206496  1
  Sc  Sc89  1  0.09384276  0.89372063  0.50394020  1
  Sc  Sc90  1  0.49941898  0.70216853  0.50386614  1
  Sc  Sc91  1  0.70219358  0.90478832  0.50626937  1
  Sc  Sc92  1  0.29726836  0.70591258  0.89163787  1
  Sc  Sc93  1  0.90296716  0.89396520  0.10567555  1
  Sc  Sc94  1  0.09730499  0.31390945  0.90109980  1
  Sc  Sc95  1  0.09688387  0.31696047  0.49772500  1
  Sc  Sc96  1  0.49386469  0.90365984  0.09116188  1
  Sc  Sc97  1  0.11058410  0.70504966  0.09907562  1
  Sc  Sc98  1  0.09538351  0.50562880  0.69733993  1
  Sc  Sc99  1  0.29808536  0.49562353  0.09656591  1
  Nb  Nb100  1  0.49214949  0.90042606  0.90155760  1
  Nb  Nb101  1  0.69983344  0.50134062  0.69966416  1
  Nb  Nb102  1  0.09739966  0.09970559  0.69691275  1
  Nb  Nb103  1  0.30396748  0.29952128  0.10444124  1
  Nb  Nb104  1  0.30020269  0.50040801  0.29423797  1
  Nb  Nb105  1  0.30708190  0.90171976  0.90028687  1
  Nb  Nb106  1  0.70033324  0.30487488  0.09832349  1
  Nb  Nb107  1  0.69559441  0.49835415  0.10241594  1
  Nb  Nb108  1  0.90233638  0.10172089  0.09454682  1
  Nb  Nb109  1  0.90888357  0.29931660  0.29794939  1
  Nb  Nb110  1  0.29885486  0.69748595  0.10096138  1
  Nb  Nb111  1  0.89423097  0.50253889  0.70361000  1
  Nb  Nb112  1  0.90641974  0.69823912  0.09831862  1
  Nb  Nb113  1  0.50420514  0.09538424  0.29860616  1
  Nb  Nb114  1  0.49716196  0.30080229  0.70354216  1
  Nb  Nb115  1  0.10610923  0.50740272  0.49611014  1
  Nb  Nb116  1  0.90246081  0.50621686  0.29564294  1
  Nb  Nb117  1  0.30058395  0.89956293  0.70189860  1
  Nb  Nb118  1  0.70046599  0.70022427  0.89973118  1
  Nb  Nb119  1  0.70180479  0.90137447  0.10595728  1
  Nb  Nb120  1  0.69924782  0.69768376  0.29960919  1
  Nb  Nb121  1  0.49874597  0.70299330  0.29830031  1
  Nb  Nb122  1  0.49375768  0.30513725  0.09949835  1
  Nb  Nb123  1  0.09933970  0.29367278  0.29538891  1
  Nb  Nb124  1  0.89916236  0.89754051  0.50547088  1
  Nb  Nb125  1  0.39698655  0.00108737  0.60862362  1
  Nb  Nb126  1  0.60478790  0.79526977  0.39003162  1
  Nb  Nb127  1  0.40062779  -0.00902859  0.80024283  1
  Nb  Nb128  1  0.40062542  0.60098098  0.20016783  1
  Nb  Nb129  1  0.79950334  0.59408772  0.60552402  1
  Nb  Nb130  1  0.60511441  0.79683229  0.20022039  1
  Nb  Nb131  1  0.20383849  0.59396927  0.39884788  1
  Nb  Nb132  1  0.60076840  0.39595737  0.60799560  1
  Nb  Nb133  1  0.79798583  -0.00153827  0.00332817  1
  Nb  Nb134  1  0.79659761  0.40384578  0.79519740  1
  Nb  Nb135  1  0.20426627  0.20502358  0.00528341  1
  Nb  Nb136  1  0.39469215  0.60117586  0.39171673  1
  Nb  Nb137  1  -0.00515326  0.59723030  0.19430223  1
  Nb  Nb138  1  0.80144509  -0.00009874  0.80817891  1
  Nb  Nb139  1  0.19596871  0.20329278  0.40030035  1
  Nb  Nb140  1  0.60054608  0.60164862  0.19919009  1
  Nb  Nb141  1  0.39469215  0.60795219  0.00346386  1
  Nb  Nb142  1  0.59252167  0.20708684  0.60175105  1
  Nb  Nb143  1  0.19768164  0.19853828  0.59858945  1
  Nb  Nb144  1  0.40294436  0.19823781  0.60416667  1
  Nb  Nb145  1  0.20161348  0.39298333  0.20325159  1
  Nb  Nb146  1  0.19840500  -0.00011120  0.20087456  1
  Nb  Nb147  1  -0.00446807  0.60076766  0.00467223  1
  Nb  Nb148  1  0.60719806  0.40034077  0.19559495  1
  Nb  Nb149  1  0.39979677  0.20727672  0.00316400  1
  Pd  Pd150  1  0.40063990  0.19982396  0.40667194  1
  Pd  Pd151  1  0.40079728  0.81083706  0.59515110  1
  Pd  Pd152  1  0.00800255  0.20089620  0.40920614  1
  Pd  Pd153  1  0.19330444  0.39745203  0.60960624  1
  Pd  Pd154  1  0.00349345  0.80494535  0.79646572  1
  Pd  Pd155  1  0.79865125  0.79108317  0.19615192  1
  Pd  Pd156  1  0.79753366  0.39517102  0.20880464  1
  Pd  Pd157  1  0.59973950  0.80264673  0.00693545  1
  Pd  Pd158  1  0.59496734  0.20862089  0.19520873  1
  Pd  Pd159  1  0.80610969  0.80890689  -0.00016026  1
  Pd  Pd160  1  -0.00390033  0.40018403  0.39686899  1
  Pd  Pd161  1  0.19391712  0.81171730  0.20175931  1
  Pd  Pd162  1  0.00094110  -0.00211452  0.19724514  1
  Pd  Pd163  1  0.20203238  -0.00094565  0.80291335  1
  Pd  Pd164  1  0.19803564  0.80458940  0.80022128  1
  Pd  Pd165  1  0.39511030  -0.00676765  0.19905176  1
  Pd  Pd166  1  0.60245680  -0.00888410  0.79491657  1
  Pd  Pd167  1  -0.00814446  0.40456062  0.00736404  1
  Pd  Pd168  1  0.39470467  0.41251215  0.80767649  1
  Pd  Pd169  1  0.01036907  0.20459351  -0.00535481  1
  Pd  Pd170  1  0.00201994  0.40761123  0.60202190  1
  Pd  Pd171  1  0.19398008  0.79050176  0.40579900  1
  Pd  Pd172  1  -0.00633295  0.59823098  0.59987287  1
  Pd  Pd173  1  0.80143609  0.00050793  0.40192994  1
  Pd  Pd174  1  0.60530087  -0.00163188  0.01188009  1
  Pd  Pd175  1  0.00459221  0.79284009  0.20274034  1
  Pd  Pd176  1  0.39875824  -0.00621690  0.40709339  1
  Pd  Pd177  1  0.59651368  0.20219879  0.40794722  1
  Pd  Pd178  1  0.39388500  0.40491991  -0.00748261  1
  Pd  Pd179  1  0.59932903  0.39954906  0.00116917  1
  Pd  Pd180  1  0.01288967  0.19958774  0.58575417  1
  Pd  Pd181  1  0.19759402  0.40750780  0.78985969  1
  Pd  Pd182  1  0.59023594  0.60348910  0.39915207  1
  Pd  Pd183  1  0.79883629  0.81152527  0.80207671  1
  Pd  Pd184  1  0.39312761  0.40263957  0.39504406  1
  Pd  Pd185  1  0.18899793  0.19944136  0.80799383  1
  Pd  Pd186  1  0.00203125  0.40377477  0.19450523  1
  Pd  Pd187  1  0.60390975  0.59237332  0.59409042  1
  Pd  Pd188  1  0.80208815  0.19773654  0.80091303  1
  Pd  Pd189  1  0.80603633  0.00939969  0.19243562  1
  Pd  Pd190  1  0.40284723  0.80675453  0.19825048  1
  Pd  Pd191  1  0.79492377  0.40616140  0.59884700  1
  Pd  Pd192  1  0.80601540  0.59177658  -0.00028478  1
  Pd  Pd193  1  0.60710529  0.40416662  0.80029460  1
  Pd  Pd194  1  0.80838955  0.40314784  0.39334456  1
  Pd  Pd195  1  0.60231006  0.19723074  0.79614854  1
  Pd  Pd196  1  0.19427944  0.59254414  0.20667603  1
  Pd  Pd197  1  0.79569948  0.80339209  0.40731830  1
  Pd  Pd198  1  0.20506243  0.39699860  0.38952183  1
  Pd  Pd199  1  0.60297785  0.59985881  0.80430214  1
  Rh  Rh200  1  -0.00544292  -0.00510030  0.60225293  1
  Rh  Rh201  1  0.20355945  0.20055457  0.20189821  1
  Rh  Rh202  1  -0.00792645  0.39692778  0.79074503  1
  Rh  Rh203  1  -0.00776184  -0.00425060  0.00722558  1
  Rh  Rh204  1  0.59607215  -0.00762366  0.19937645  1
  Rh  Rh205  1  0.40893949  0.39578389  0.60263545  1
  Rh  Rh206  1  0.20935735  0.00901798  0.38530758  1
  Rh  Rh207  1  0.20055054  0.60868929  -0.00378270  1
  Rh  Rh208  1  0.80692421  0.00114826  0.60756360  1
  Rh  Rh209  1  0.60602232  0.39340520  0.39537904  1
  Rh  Rh210  1  0.19839207  0.80275614  0.60132490  1
  Rh  Rh211  1  0.39675626  0.60104841  0.81054142  1
  Rh  Rh212  1  0.80300088  0.19453293  0.39562898  1
  Rh  Rh213  1  0.60419242  -0.00884456  0.39409810  1
  Rh  Rh214  1  0.59325536  0.00692789  0.60118627  1
  Rh  Rh215  1  0.79633129  0.19186214  0.00389304  1
  Rh  Rh216  1  -0.00287342  -0.00399567  0.79614344  1
  Rh  Rh217  1  0.40160466  0.40469349  0.20137350  1
  Rh  Rh218  1  0.00424186  0.20215477  0.80823942  1
  Rh  Rh219  1  0.40418319  0.80493436  0.79706232  1
  Rh  Rh220  1  0.59312464  0.60339213  0.00171847  1
  Rh  Rh221  1  0.40856182  0.79756505  0.40620269  1
  Rh  Rh222  1  0.20127813  0.38808244  0.01003972  1
  Rh  Rh223  1  0.20005567  0.60464594  0.59403591  1
  Rh  Rh224  1  -0.01055328  0.20116616  0.19609424  1
  Rh  Rh225  1  0.59950892  0.80123071  0.80065602  1
  Rh  Rh226  1  0.60570059  0.79655167  0.58857387  1
  Rh  Rh227  1  0.19853929  0.60308637  0.79452085  1
  Rh  Rh228  1  0.80075904  0.79055068  0.59704292  1
  Rh  Rh229  1  0.39978852  0.60307882  0.59127986  1
  Rh  Rh230  1  0.20488224  0.00875512  0.00756698  1
  Rh  Rh231  1  0.79007575  0.59670061  0.79765945  1
  Rh  Rh232  1  0.20525645  0.79564134  -0.00537783  1
  Rh  Rh233  1  0.39654594  0.00924505  -0.00351635  1
  Rh  Rh234  1  0.00277236  0.60362827  0.80156103  1
  Rh  Rh235  1  0.59069631  0.20694046  0.00908052  1
  Rh  Rh236  1  0.79726705  0.40240496  -0.01014306  1
  Rh  Rh237  1  0.80957149  0.59459638  0.41278251  1
  Rh  Rh238  1  -0.00222634  0.80085296  0.60221255  1
  Rh  Rh239  1  0.79272354  0.19476637  0.59529625  1
  Rh  Rh240  1  0.80190509  0.60499227  0.19158250  1
  Rh  Rh241  1  0.80346672  0.19761160  0.20236046  1
  Rh  Rh242  1  0.00012158  0.79248358  -0.00007649  1
  Rh  Rh243  1  0.40796160  0.18838387  0.80592046  1
  Rh  Rh244  1  0.39260833  0.79364697  -0.00549792  1
  Rh  Rh245  1  0.00671374  0.59860642  0.39247450  1
  Rh  Rh246  1  0.41149922  0.19698219  0.19583765  1
  Rh  Rh247  1  -0.01221211  -0.00513582  0.40440050  1
  Rh  Rh248  1  0.20476456  0.00082529  0.60450666  1
  Rh  Rh249  1  -0.00300254  0.80117197  0.40221253  1
