# generated using pymatgen
data_ZrScNbPdRh
_symmetry_space_group_name_H-M   'P 1'
_cell_length_a   16.55633720
_cell_length_b   16.55682442
_cell_length_c   16.55631941
_cell_angle_alpha   89.99065950
_cell_angle_beta   90.00426414
_cell_angle_gamma   90.03064765
_symmetry_Int_Tables_number   1
_chemical_formula_structural   ZrScNbPdRh
_chemical_formula_sum   'Zr50 Sc50 Nb50 Pd50 Rh50'
_cell_volume   4538.42364877
_cell_formula_units_Z   50
loop_
 _symmetry_equiv_pos_site_id
 _symmetry_equiv_pos_as_xyz
  1  'x, y, z'
loop_
 _atom_site_type_symbol
 _atom_site_label
 _atom_site_symmetry_multiplicity
 _atom_site_fract_x
 _atom_site_fract_y
 _atom_site_fract_z
 _atom_site_occupancy
  Zr  Zr0  1  0.49533939  0.50125646  0.30052426  1
  Zr  Zr1  1  0.70605546  0.09930394  0.48867823  1
  Zr  Zr2  1  0.90296836  0.90035002  0.28845435  1
  Zr  Zr3  1  0.90663569  0.29791524  0.30161434  1
  Zr  Zr4  1  0.50090879  0.89170501  0.29461772  1
  Zr  Zr5  1  0.09965073  0.49684518  0.90347338  1
  Zr  Zr6  1  0.49960335  0.30245802  0.49248821  1
  Zr  Zr7  1  0.90766234  0.50109465  0.90224648  1
  Zr  Zr8  1  0.29740384  0.09439466  0.89518528  1
  Zr  Zr9  1  0.49636336  0.10236075  0.69521617  1
  Zr  Zr10  1  0.29707801  0.30143524  0.09394809  1
  Zr  Zr11  1  0.90625914  0.50711799  0.69914436  1
  Zr  Zr12  1  0.89948674  0.69783445  0.29399889  1
  Zr  Zr13  1  0.70694561  0.50533341  0.30448406  1
  Zr  Zr14  1  0.50204969  0.09138966  0.09974671  1
  Zr  Zr15  1  0.70312612  0.90012991  0.90649728  1
  Zr  Zr16  1  0.50085566  0.69936838  0.90525013  1
  Zr  Zr17  1  0.10671785  0.30251050  0.10373575  1
  Zr  Zr18  1  0.70564938  0.09674920  0.68510494  1
  Zr  Zr19  1  0.69586623  0.70401144  0.09417403  1
  Zr  Zr20  1  0.29586221  0.50626704  0.49201512  1
  Zr  Zr21  1  0.50365873  0.30149934  0.10770439  1
  Zr  Zr22  1  0.70308265  0.89639537  0.70164267  1
  Zr  Zr23  1  0.90183106  0.29142838  0.90218189  1
  Zr  Zr24  1  0.10079487  0.29829542  0.90946048  1
  Zr  Zr25  1  0.69769169  0.30435286  0.70069278  1
  Zr  Zr26  1  0.09898233  0.48283710  0.30238539  1
  Zr  Zr27  1  0.10090907  0.89451864  0.50426000  1
  Zr  Zr28  1  0.90777862  0.50924947  0.09489861  1
  Zr  Zr29  1  0.90519068  0.70741852  0.71188125  1
  Zr  Zr30  1  0.69695577  0.29839102  0.09734387  1
  Zr  Zr31  1  0.10387850  0.70752662  0.90844001  1
  Zr  Zr32  1  0.49855329  0.09841452  0.49675313  1
  Zr  Zr33  1  0.50926096  0.30503476  0.89751195  1
  Zr  Zr34  1  0.10097080  0.30388109  0.48614906  1
  Zr  Zr35  1  0.69317190  0.70075061  0.70092184  1
  Zr  Zr36  1  0.09972126  0.50371857  0.70646153  1
  Zr  Zr37  1  0.29661234  0.50816306  0.71387337  1
  Zr  Zr38  1  0.10152446  0.29660966  0.70255623  1
  Zr  Zr39  1  0.69870336  0.29439526  0.29398691  1
  Zr  Zr40  1  0.49250628  0.50207907  0.89549472  1
  Zr  Zr41  1  0.69427140  0.90419384  0.30109289  1
  Zr  Zr42  1  0.29824726  0.69931404  0.89627636  1
  Zr  Zr43  1  0.90364178  0.09845865  0.89847921  1
  Zr  Zr44  1  0.49872494  0.10269019  0.89297274  1
  Zr  Zr45  1  0.50260704  0.50851067  0.70093223  1
  Zr  Zr46  1  0.09991279  0.09914935  0.90175972  1
  Zr  Zr47  1  0.09991877  0.89922785  0.29770512  1
  Zr  Zr48  1  0.89289925  0.50238780  0.49649572  1
  Zr  Zr49  1  0.68769587  0.50082574  0.89953932  1
  Sc  Sc50  1  0.49882246  0.70559953  0.70137278  1
  Sc  Sc51  1  0.69293266  0.70563579  0.89933880  1
  Sc  Sc52  1  0.49531408  0.29744939  0.70930648  1
  Sc  Sc53  1  0.70339366  0.09661060  0.10311391  1
  Sc  Sc54  1  0.30154684  0.50383128  0.29800373  1
  Sc  Sc55  1  0.50062245  0.90664414  0.90413987  1
  Sc  Sc56  1  0.49429704  0.49748804  0.10302716  1
  Sc  Sc57  1  0.50038432  0.90107656  0.69176747  1
  Sc  Sc58  1  0.91026599  0.89777782  0.89253247  1
  Sc  Sc59  1  0.29874781  0.09522629  0.09998195  1
  Sc  Sc60  1  0.90538167  0.69234373  0.51370541  1
  Sc  Sc61  1  0.69310787  0.91112042  0.49971444  1
  Sc  Sc62  1  0.69495444  0.50301142  0.69441226  1
  Sc  Sc63  1  0.89073432  0.10349797  0.29753879  1
  Sc  Sc64  1  0.89606701  0.29640873  0.10533169  1
  Sc  Sc65  1  0.30510582  0.09973104  0.50238167  1
  Sc  Sc66  1  0.30313734  0.89588358  0.49539226  1
  Sc  Sc67  1  0.90373885  0.49717202  0.29628081  1
  Sc  Sc68  1  0.10525119  0.10701169  0.50580288  1
  Sc  Sc69  1  0.29522904  0.89913759  0.89480511  1
  Sc  Sc70  1  0.10657608  0.70509583  0.28991778  1
  Sc  Sc71  1  0.30083778  0.50416568  0.90626097  1
  Sc  Sc72  1  0.29742880  0.90266334  0.70693109  1
  Sc  Sc73  1  0.69515279  0.70848753  0.29593055  1
  Sc  Sc74  1  0.89403618  0.09250441  0.09937113  1
  Sc  Sc75  1  0.50171536  0.90247820  0.49257430  1
  Sc  Sc76  1  0.10459113  0.90608847  0.89469079  1
  Sc  Sc77  1  0.28718330  0.69318396  0.10256870  1
  Sc  Sc78  1  0.69641749  0.50153939  0.50958248  1
  Sc  Sc79  1  0.49686075  0.70953356  0.50174778  1
  Sc  Sc80  1  0.09775385  0.90018877  0.10384843  1
  Sc  Sc81  1  0.50348651  0.70210818  0.10992497  1
  Sc  Sc82  1  0.30389981  0.09935005  0.29750282  1
  Sc  Sc83  1  0.90271066  0.28679248  0.49638857  1
  Sc  Sc84  1  0.09489148  0.10191525  0.29018965  1
  Sc  Sc85  1  0.29571504  0.30063800  0.29695589  1
  Sc  Sc86  1  0.29844097  0.29203492  0.49575145  1
  Sc  Sc87  1  0.10416225  0.09513707  0.70181202  1
  Sc  Sc88  1  0.49896274  0.50416900  0.49717271  1
  Sc  Sc89  1  0.30710461  0.10021550  0.69715254  1
  Sc  Sc90  1  0.70569109  0.10519619  0.91394802  1
  Sc  Sc91  1  0.30113321  0.89241003  0.29525557  1
  Sc  Sc92  1  0.69340320  0.90921397  0.10196118  1
  Sc  Sc93  1  0.10483504  0.50224569  0.49610745  1
  Sc  Sc94  1  0.69132749  0.49537675  0.10346765  1
  Sc  Sc95  1  0.10330221  0.09907138  0.09536453  1
  Sc  Sc96  1  0.09380994  0.69351928  0.70175038  1
  Sc  Sc97  1  0.89985654  0.28657751  0.70252444  1
  Sc  Sc98  1  0.10350773  0.49921944  0.09871403  1
  Sc  Sc99  1  0.30420604  0.69970925  0.30204680  1
  Nb  Nb100  1  0.90490329  0.89541349  0.70222484  1
  Nb  Nb101  1  0.30475839  0.30249308  0.70316840  1
  Nb  Nb102  1  0.49707855  0.89945218  0.09956462  1
  Nb  Nb103  1  0.10356780  0.69864202  0.49990882  1
  Nb  Nb104  1  0.89996285  0.09639704  0.69783398  1
  Nb  Nb105  1  0.90792249  0.70190187  0.09856381  1
  Nb  Nb106  1  0.09212529  0.89413262  0.70294795  1
  Nb  Nb107  1  0.50308702  0.70107961  0.30417997  1
  Nb  Nb108  1  0.28933240  0.69589337  0.50052599  1
  Nb  Nb109  1  0.89431090  0.09071124  0.50612712  1
  Nb  Nb110  1  0.50328468  0.29570026  0.29543988  1
  Nb  Nb111  1  0.09694488  0.30127277  0.30152764  1
  Nb  Nb112  1  0.69959986  0.30410351  0.49815582  1
  Nb  Nb113  1  0.90019742  0.69808316  0.90805801  1
  Nb  Nb114  1  0.29431013  0.70118789  0.70264761  1
  Nb  Nb115  1  0.29511302  0.49420998  0.10074963  1
  Nb  Nb116  1  0.31639792  0.89948859  0.10570856  1
  Nb  Nb117  1  0.69994517  0.30540207  0.90138856  1
  Nb  Nb118  1  0.89979094  0.89753781  0.50168629  1
  Nb  Nb119  1  0.70544264  0.69556722  0.49718525  1
  Nb  Nb120  1  0.50844981  0.10893004  0.29881335  1
  Nb  Nb121  1  0.69612349  0.09864021  0.29650261  1
  Nb  Nb122  1  0.30530694  0.30086125  0.89725997  1
  Nb  Nb123  1  0.89561142  0.89825757  0.10304677  1
  Nb  Nb124  1  0.09071146  0.69645001  0.10044264  1
  Nb  Nb125  1  0.80985364  0.79826769  0.00394664  1
  Nb  Nb126  1  0.40046603  0.20192301  -0.00431309  1
  Nb  Nb127  1  0.80365408  0.00024581  0.79524752  1
  Nb  Nb128  1  0.39141939  0.40476584  0.60372817  1
  Nb  Nb129  1  0.00476826  0.39765286  0.59821505  1
  Nb  Nb130  1  -0.00219922  -0.00212410  0.40722166  1
  Nb  Nb131  1  0.80412529  0.79953657  0.40738787  1
  Nb  Nb132  1  0.60212966  0.20327710  0.59226832  1
  Nb  Nb133  1  0.79772740  0.40050831  -0.00636832  1
  Nb  Nb134  1  0.60023868  0.60789596  0.39848926  1
  Nb  Nb135  1  -0.00234674  0.79750026  0.40355920  1
  Nb  Nb136  1  -0.00641162  -0.00400041  0.60094858  1
  Nb  Nb137  1  0.80169883  0.60050530  0.80715032  1
  Nb  Nb138  1  0.79966488  0.40340915  0.80454763  1
  Nb  Nb139  1  0.80261253  0.60569997  0.19163234  1
  Nb  Nb140  1  0.19903464  0.79270760  0.60258365  1
  Nb  Nb141  1  0.19393618  -0.00322550  0.39834538  1
  Nb  Nb142  1  0.39814191  0.80251964  0.00678691  1
  Nb  Nb143  1  0.60787057  0.00442585  0.79761755  1
  Nb  Nb144  1  0.20309026  0.40031221  0.60415268  1
  Nb  Nb145  1  0.38819214  0.60409359  0.60037199  1
  Nb  Nb146  1  0.00330190  0.60508823  0.39829216  1
  Nb  Nb147  1  0.79595075  0.39341716  0.40177323  1
  Nb  Nb148  1  0.80252295  0.80201782  0.59838676  1
  Nb  Nb149  1  0.20615059  0.20487928  0.80292919  1
  Pd  Pd150  1  0.39620379  -0.00910299  0.59847950  1
  Pd  Pd151  1  0.00006762  0.18435121  0.40043676  1
  Pd  Pd152  1  0.39722686  0.19851781  0.19398030  1
  Pd  Pd153  1  0.19136032  0.60264529  0.38489849  1
  Pd  Pd154  1  0.20375246  -0.00928963  0.00610996  1
  Pd  Pd155  1  -0.00777810  0.39182556  0.79455406  1
  Pd  Pd156  1  -0.00095651  0.81029157  -0.00005155  1
  Pd  Pd157  1  0.39673135  0.20069412  0.39396444  1
  Pd  Pd158  1  0.39634922  0.79595146  0.40010437  1
  Pd  Pd159  1  0.39718895  -0.00149266  0.39090299  1
  Pd  Pd160  1  0.79176773  0.19678155  0.80241304  1
  Pd  Pd161  1  0.19929225  0.18963132  0.39132527  1
  Pd  Pd162  1  0.60495375  0.40866572  0.39437907  1
  Pd  Pd163  1  0.58868482  0.80971079  0.80312100  1
  Pd  Pd164  1  0.20333894  0.39572776  0.80405909  1
  Pd  Pd165  1  0.20730984  0.80853386  0.01021495  1
  Pd  Pd166  1  0.39419644  0.39726780  0.39974869  1
  Pd  Pd167  1  0.20093790  0.19820066  0.20226810  1
  Pd  Pd168  1  0.20724465  0.20487722  0.60584554  1
  Pd  Pd169  1  0.00187360  0.19643770  0.59934030  1
  Pd  Pd170  1  0.39693091  0.60524281  0.19567014  1
  Pd  Pd171  1  -0.00068080  0.39906723  0.19096544  1
  Pd  Pd172  1  0.79915001  0.60721571  0.61261379  1
  Pd  Pd173  1  0.60379963  0.59818899  0.20549526  1
  Pd  Pd174  1  -0.00128815  0.19431629  0.19269532  1
  Pd  Pd175  1  0.61244911  0.19180556  0.79381173  1
  Pd  Pd176  1  0.39488143  0.39867610  0.20467283  1
  Pd  Pd177  1  0.60603778  0.80069009  0.59125135  1
  Pd  Pd178  1  0.80605190  -0.00702112  0.39184362  1
  Pd  Pd179  1  0.58659333  0.39428692  0.60414482  1
  Pd  Pd180  1  0.59178421  0.59498123  0.00595850  1
  Pd  Pd181  1  0.79238680  0.79874986  0.19529366  1
  Pd  Pd182  1  0.40342019  0.80538148  0.80658084  1
  Pd  Pd183  1  0.19925423  -0.00817866  0.59849267  1
  Pd  Pd184  1  0.79687924  0.20756339  0.59419091  1
  Pd  Pd185  1  0.39616349  -0.00071017  -0.00567454  1
  Pd  Pd186  1  0.79397901  0.60093413  0.00032437  1
  Pd  Pd187  1  0.40215733  0.39642011  -0.00083655  1
  Pd  Pd188  1  0.20276784  0.80127475  0.19108129  1
  Pd  Pd189  1  0.40627276  0.00345626  0.21085072  1
  Pd  Pd190  1  0.60330186  0.20021072  0.40208776  1
  Pd  Pd191  1  -0.00221591  -0.00709326  0.00451657  1
  Pd  Pd192  1  0.39005049  0.79876857  0.59985450  1
  Pd  Pd193  1  0.39731393  0.60853365  0.01300042  1
  Pd  Pd194  1  0.80222606  0.40743273  0.19734707  1
  Pd  Pd195  1  0.81149827  0.39246176  0.60090267  1
  Pd  Pd196  1  -0.00314005  0.19791712  0.01249700  1
  Pd  Pd197  1  0.20205479  -0.00060706  0.20200509  1
  Pd  Pd198  1  0.59593255  0.19546778  0.00421933  1
  Pd  Pd199  1  0.19425607  0.59294505  0.20315001  1
  Rh  Rh200  1  0.21001400  0.19805507  -0.00673360  1
  Rh  Rh201  1  0.80121963  0.60309805  0.39357389  1
  Rh  Rh202  1  0.19815506  0.59575236  0.00233011  1
  Rh  Rh203  1  -0.00166648  0.00534658  0.79226941  1
  Rh  Rh204  1  0.79674856  0.00141458  0.20257842  1
  Rh  Rh205  1  0.00510363  0.79841267  0.19729595  1
  Rh  Rh206  1  0.20380552  0.40396375  -0.00242898  1
  Rh  Rh207  1  -0.01063077  0.40480973  0.40800356  1
  Rh  Rh208  1  0.00158677  0.60952556  0.81380983  1
  Rh  Rh209  1  0.39260900  0.19860771  0.80599529  1
  Rh  Rh210  1  0.40866391  0.60972555  0.40719391  1
  Rh  Rh211  1  0.20361394  0.40014011  0.20199686  1
  Rh  Rh212  1  -0.00391872  0.00513087  0.19813455  1
  Rh  Rh213  1  0.40002255  0.78938673  0.19571047  1
  Rh  Rh214  1  0.60283213  0.19378980  0.19539927  1
  Rh  Rh215  1  0.79805295  0.20352083  0.39677490  1
  Rh  Rh216  1  0.19824497  0.80284420  0.40461695  1
  Rh  Rh217  1  0.40779057  0.21149026  0.59676992  1
  Rh  Rh218  1  -0.00495094  0.39269323  0.00740571  1
  Rh  Rh219  1  0.19187624  0.60636292  0.81029245  1
  Rh  Rh220  1  0.01124360  0.60218849  -0.00208798  1
  Rh  Rh221  1  0.40336330  0.60919447  0.79477788  1
  Rh  Rh222  1  0.81031748  -0.01153517  -0.00709647  1
  Rh  Rh223  1  0.19962797  0.60055855  0.60551031  1
  Rh  Rh224  1  0.00804302  0.58878227  0.58991558  1
  Rh  Rh225  1  0.19248773  0.79880323  0.79104438  1
  Rh  Rh226  1  0.00834520  0.79550907  0.80996785  1
  Rh  Rh227  1  0.80751794  -0.01166112  0.60674556  1
  Rh  Rh228  1  0.40176806  0.40468267  0.79827777  1
  Rh  Rh229  1  0.59841651  0.80539061  0.19502467  1
  Rh  Rh230  1  0.40883083  -0.00503837  0.79513895  1
  Rh  Rh231  1  0.00193481  0.80088692  0.59889639  1
  Rh  Rh232  1  0.59128007  0.00281368  0.39191549  1
  Rh  Rh233  1  0.79702944  0.19570533  0.20004550  1
  Rh  Rh234  1  0.59899410  0.00295794  -0.00439707  1
  Rh  Rh235  1  0.60071232  0.60389225  0.80130559  1
  Rh  Rh236  1  0.58901698  0.60807077  0.58892059  1
  Rh  Rh237  1  0.60171030  0.40451873  0.79333448  1
  Rh  Rh238  1  0.59471896  0.00170820  0.20408517  1
  Rh  Rh239  1  0.80331805  0.79846316  0.80563042  1
  Rh  Rh240  1  0.19792574  0.00392538  0.79399423  1
  Rh  Rh241  1  0.00316931  0.59988880  0.20458359  1
  Rh  Rh242  1  0.59816365  0.40404602  0.00353353  1
  Rh  Rh243  1  0.60833343  0.79531954  0.40554182  1
  Rh  Rh244  1  0.80058722  0.20725143  0.00489578  1
  Rh  Rh245  1  0.01095908  0.19220283  0.79729879  1
  Rh  Rh246  1  0.20812139  0.39651642  0.39992554  1
  Rh  Rh247  1  0.59561919  0.40247387  0.20836098  1
  Rh  Rh248  1  0.59533602  0.80639015  0.00501302  1
  Rh  Rh249  1  0.59382933  0.00727580  0.59943331  1
