# generated using pymatgen
data_ZrScNbPdRh
_symmetry_space_group_name_H-M   'P 1'
_cell_length_a   16.55534356
_cell_length_b   16.55379488
_cell_length_c   16.55498987
_cell_angle_alpha   89.96874490
_cell_angle_beta   90.01831057
_cell_angle_gamma   89.98891809
_symmetry_Int_Tables_number   1
_chemical_formula_structural   ZrScNbPdRh
_chemical_formula_sum   'Zr50 Sc50 Nb50 Pd50 Rh50'
_cell_volume   4536.95625322
_cell_formula_units_Z   50
loop_
 _symmetry_equiv_pos_site_id
 _symmetry_equiv_pos_as_xyz
  1  'x, y, z'
loop_
 _atom_site_type_symbol
 _atom_site_label
 _atom_site_symmetry_multiplicity
 _atom_site_fract_x
 _atom_site_fract_y
 _atom_site_fract_z
 _atom_site_occupancy
  Zr  Zr0  1  0.50265905  0.90322235  0.90260800  1
  Zr  Zr1  1  0.08591900  0.69417139  0.30411244  1
  Zr  Zr2  1  0.09838604  0.50011881  0.90161100  1
  Zr  Zr3  1  0.09890915  0.89606787  0.69955125  1
  Zr  Zr4  1  0.70888646  0.29657204  0.49968812  1
  Zr  Zr5  1  0.89320209  0.49369117  0.70167018  1
  Zr  Zr6  1  0.70636867  0.30264884  0.69652613  1
  Zr  Zr7  1  0.70273882  0.10062615  0.10026259  1
  Zr  Zr8  1  0.50050671  0.29337671  0.69919945  1
  Zr  Zr9  1  0.10090526  0.30181124  0.89371991  1
  Zr  Zr10  1  0.29819429  0.48840198  0.69748024  1
  Zr  Zr11  1  0.90291675  0.29696951  0.50773384  1
  Zr  Zr12  1  0.90041225  0.90109112  0.50582109  1
  Zr  Zr13  1  0.50713365  0.69586605  0.91161596  1
  Zr  Zr14  1  0.90412317  0.51822649  0.30017124  1
  Zr  Zr15  1  0.69652668  0.49914167  0.89697304  1
  Zr  Zr16  1  0.70138734  0.69721180  0.69970158  1
  Zr  Zr17  1  0.89590892  0.10270879  0.49981041  1
  Zr  Zr18  1  0.49883864  0.48738654  0.09871335  1
  Zr  Zr19  1  0.89662161  0.09903162  0.09819946  1
  Zr  Zr20  1  0.28719892  0.90758938  0.30185457  1
  Zr  Zr21  1  0.30138992  0.69852745  0.91519803  1
  Zr  Zr22  1  0.28959278  0.09973146  0.49608041  1
  Zr  Zr23  1  0.29841253  0.09875251  0.70014176  1
  Zr  Zr24  1  0.30593305  0.89859884  0.90682425  1
  Zr  Zr25  1  0.30578426  0.29805172  0.10431507  1
  Zr  Zr26  1  0.29656785  0.50219158  0.09341237  1
  Zr  Zr27  1  0.10166270  0.49793013  0.30230504  1
  Zr  Zr28  1  0.09721368  0.29630688  0.30039499  1
  Zr  Zr29  1  0.29497010  0.49530425  0.89838173  1
  Zr  Zr30  1  0.70601673  0.09878407  0.30413878  1
  Zr  Zr31  1  0.91511641  0.89771428  0.10249751  1
  Zr  Zr32  1  0.09704876  0.90067678  0.28859416  1
  Zr  Zr33  1  0.70759744  0.70353611  0.30027079  1
  Zr  Zr34  1  0.90065981  0.70307458  0.49152581  1
  Zr  Zr35  1  0.70786481  0.49956045  0.29897692  1
  Zr  Zr36  1  0.49895044  0.90057369  0.50130402  1
  Zr  Zr37  1  0.50720500  0.09995911  0.29660570  1
  Zr  Zr38  1  0.50281240  0.11128626  0.09977747  1
  Zr  Zr39  1  0.49750843  0.49465711  0.49763995  1
  Zr  Zr40  1  0.29731828  0.90084384  0.70536806  1
  Zr  Zr41  1  0.89821691  0.09600638  0.90023805  1
  Zr  Zr42  1  0.09682769  0.09672666  0.70300572  1
  Zr  Zr43  1  0.50370211  0.50064969  0.90515891  1
  Zr  Zr44  1  0.90540048  0.50241673  0.09867961  1
  Zr  Zr45  1  0.29795487  0.70302657  0.69968519  1
  Zr  Zr46  1  0.50189465  0.70886343  0.30622213  1
  Zr  Zr47  1  0.09337517  0.10505023  0.89312391  1
  Zr  Zr48  1  0.70981993  0.90379615  0.89666224  1
  Zr  Zr49  1  0.50239518  0.69669803  0.69811638  1
  Sc  Sc50  1  0.89815988  0.90876360  0.70079218  1
  Sc  Sc51  1  0.90510627  0.70227304  0.90743476  1
  Sc  Sc52  1  0.90645104  0.10004378  0.69562196  1
  Sc  Sc53  1  0.50436167  0.30478851  0.49466767  1
  Sc  Sc54  1  0.50426003  0.50006172  0.69479607  1
  Sc  Sc55  1  0.50116962  0.90852134  0.69274487  1
  Sc  Sc56  1  0.70366037  0.30018153  0.30036891  1
  Sc  Sc57  1  0.70116546  0.70616868  0.09545507  1
  Sc  Sc58  1  0.70472354  0.70496400  0.50333229  1
  Sc  Sc59  1  0.69574688  0.89666309  0.29887230  1
  Sc  Sc60  1  0.09738187  0.50162561  0.49579570  1
  Sc  Sc61  1  0.09921388  0.50085023  0.09160537  1
  Sc  Sc62  1  0.29268726  0.70496844  0.30579495  1
  Sc  Sc63  1  0.29923765  0.90178364  0.50822011  1
  Sc  Sc64  1  0.30389054  0.70197174  0.50542301  1
  Sc  Sc65  1  0.69778784  0.10190063  0.50150055  1
  Sc  Sc66  1  0.69347136  0.30271154  0.89792870  1
  Sc  Sc67  1  0.49920688  0.70798981  0.50479331  1
  Sc  Sc68  1  0.10019497  0.30343454  0.10180319  1
  Sc  Sc69  1  0.90464135  0.29862769  0.90232503  1
  Sc  Sc70  1  0.50235821  0.29825712  0.90358735  1
  Sc  Sc71  1  0.89936346  0.90348732  0.90019525  1
  Sc  Sc72  1  0.29593839  0.49180820  0.50211872  1
  Sc  Sc73  1  0.30754117  0.10329772  0.10048899  1
  Sc  Sc74  1  0.90450761  0.69914195  0.10310803  1
  Sc  Sc75  1  0.08654844  0.09881614  0.11042023  1
  Sc  Sc76  1  0.70880775  0.90425344  0.69771403  1
  Sc  Sc77  1  0.09618824  0.30029088  0.49415501  1
  Sc  Sc78  1  0.90087146  0.29159737  0.10602411  1
  Sc  Sc79  1  0.90367812  0.69531324  0.69668420  1
  Sc  Sc80  1  0.50058683  0.10694470  0.89075037  1
  Sc  Sc81  1  0.70333049  0.90344180  0.50435479  1
  Sc  Sc82  1  0.09556346  0.10544647  0.50332603  1
  Sc  Sc83  1  0.89963248  0.29364097  0.30725760  1
  Sc  Sc84  1  0.50143774  0.48235795  0.29732099  1
  Sc  Sc85  1  0.29881156  0.30002549  0.88119389  1
  Sc  Sc86  1  0.50443082  0.90278071  0.10078957  1
  Sc  Sc87  1  0.90032413  0.49764437  0.50033062  1
  Sc  Sc88  1  0.30727460  0.09700344  0.89484420  1
  Sc  Sc89  1  0.10238539  0.29006659  0.70153733  1
  Sc  Sc90  1  0.69690623  0.49103436  0.10524748  1
  Sc  Sc91  1  0.50892810  0.89940260  0.30272797  1
  Sc  Sc92  1  0.09454624  0.50846410  0.69461588  1
  Sc  Sc93  1  0.69396503  0.09850431  0.69487278  1
  Sc  Sc94  1  0.90849007  0.50671057  0.90582234  1
  Sc  Sc95  1  0.09414632  0.89098516  0.89416300  1
  Sc  Sc96  1  0.28870379  0.30158443  0.29621184  1
  Sc  Sc97  1  0.69747695  0.29603042  0.10075947  1
  Sc  Sc98  1  0.69818569  0.49587200  0.69525702  1
  Sc  Sc99  1  0.70567757  0.90021296  0.10363855  1
  Nb  Nb100  1  0.30154657  0.29872275  0.69506271  1
  Nb  Nb101  1  0.90314373  0.89117675  0.29832379  1
  Nb  Nb102  1  0.89853804  0.70402585  0.29972412  1
  Nb  Nb103  1  0.49769013  0.09939995  0.50342776  1
  Nb  Nb104  1  0.10282554  0.70208253  0.70861128  1
  Nb  Nb105  1  0.29931255  0.70332439  0.09882080  1
  Nb  Nb106  1  0.10647754  0.89559373  0.10331308  1
  Nb  Nb107  1  0.69870685  0.49821993  0.49091394  1
  Nb  Nb108  1  0.29145273  0.89439212  0.10405057  1
  Nb  Nb109  1  0.29326167  0.10193234  0.30528114  1
  Nb  Nb110  1  0.10627143  0.70815518  0.09664507  1
  Nb  Nb111  1  0.09535837  0.70654050  0.50675986  1
  Nb  Nb112  1  0.09619799  0.69623960  0.89215165  1
  Nb  Nb113  1  0.50068213  0.10208747  0.68540189  1
  Nb  Nb114  1  0.29233522  0.50598558  0.29745624  1
  Nb  Nb115  1  0.30351800  0.29932239  0.50701823  1
  Nb  Nb116  1  0.49992688  0.29794897  0.10799524  1
  Nb  Nb117  1  0.70033473  0.70029422  0.89757580  1
  Nb  Nb118  1  0.70575745  0.09750098  0.90162594  1
  Nb  Nb119  1  0.10326256  0.10062181  0.30917293  1
  Nb  Nb120  1  0.49274361  0.29427778  0.28860911  1
  Nb  Nb121  1  0.89266976  0.30306363  0.70009059  1
  Nb  Nb122  1  0.49093365  0.69444612  0.09956683  1
  Nb  Nb123  1  0.90800731  0.09981819  0.29698086  1
  Nb  Nb124  1  0.09145844  0.89824067  0.49757174  1
  Nb  Nb125  1  0.81141841  -0.00158425  0.20621049  1
  Nb  Nb126  1  0.80194470  0.40123298  -0.00051443  1
  Nb  Nb127  1  0.80006715  0.19989500  0.79928970  1
  Nb  Nb128  1  -0.00227292  0.39928797  0.79627914  1
  Nb  Nb129  1  0.40227207  0.59429718  0.39262806  1
  Nb  Nb130  1  0.59173091  0.60273125  0.20345133  1
  Nb  Nb131  1  0.39542731  -0.00163302  0.20571117  1
  Nb  Nb132  1  0.39665159  0.60124051  0.80313594  1
  Nb  Nb133  1  0.19934676  0.19392385  -0.00278922  1
  Nb  Nb134  1  0.39261086  0.80090616  0.19562109  1
  Nb  Nb135  1  0.39778967  0.60318571  0.20202732  1
  Nb  Nb136  1  0.79609630  0.60041864  0.80549879  1
  Nb  Nb137  1  0.20234334  0.60457378  0.19628300  1
  Nb  Nb138  1  0.60619871  0.00719318  -0.00451849  1
  Nb  Nb139  1  0.39804112  0.19958409  0.59486796  1
  Nb  Nb140  1  0.19983955  0.60540930  0.80002317  1
  Nb  Nb141  1  0.59909551  0.59687502  0.39653620  1
  Nb  Nb142  1  0.19681312  -0.00158943  0.00600080  1
  Nb  Nb143  1  0.39866550  0.00769056  0.39751156  1
  Nb  Nb144  1  -0.00036891  -0.00253392  0.39444815  1
  Nb  Nb145  1  0.18672232  0.80184131  0.40633137  1
  Nb  Nb146  1  0.60216035  0.79810224  0.80369382  1
  Nb  Nb147  1  -0.00085156  0.40462385  0.20559823  1
  Nb  Nb148  1  0.40728108  0.79504890  0.80385456  1
  Nb  Nb149  1  0.39795660  0.19920855  0.39906160  1
  Pd  Pd150  1  0.19662481  0.19301721  0.19221622  1
  Pd  Pd151  1  0.39387839  0.20671934  -0.00852083  1
  Pd  Pd152  1  0.20316348  0.39430837  0.40425808  1
  Pd  Pd153  1  0.40203200  0.00050391  0.01127532  1
  Pd  Pd154  1  0.00675559  0.39501638  0.60633617  1
  Pd  Pd155  1  -0.01314628  0.80039301  0.79564291  1
  Pd  Pd156  1  0.59383554  0.39886526  0.79484005  1
  Pd  Pd157  1  0.60018621  -0.00115926  0.79865026  1
  Pd  Pd158  1  0.20156589  0.01384458  0.19085179  1
  Pd  Pd159  1  0.19138750  -0.00202591  0.59627150  1
  Pd  Pd160  1  0.40795404  -0.00132011  0.79411170  1
  Pd  Pd161  1  0.20407007  0.60860239  0.40632372  1
  Pd  Pd162  1  0.39009143  0.40399034  0.20587341  1
  Pd  Pd163  1  0.20353364  0.38585127  0.00082782  1
  Pd  Pd164  1  0.60490477  0.80720618  0.60660734  1
  Pd  Pd165  1  0.19847267  0.20299865  0.59896546  1
  Pd  Pd166  1  0.00651572  0.20398083  0.00531721  1
  Pd  Pd167  1  0.39654344  0.38910955  -0.00650309  1
  Pd  Pd168  1  0.80319050  0.79252038  0.79649069  1
  Pd  Pd169  1  0.60895966  0.20531368  0.20471304  1
  Pd  Pd170  1  -0.00157205  0.60249905  0.59675864  1
  Pd  Pd171  1  0.40982918  0.40467403  0.79761706  1
  Pd  Pd172  1  0.59602323  0.20514805  0.40120415  1
  Pd  Pd173  1  0.79585113  0.80802295  0.40167033  1
  Pd  Pd174  1  0.60319119  0.39536622  0.39277552  1
  Pd  Pd175  1  0.19179735  0.80484486  -0.00914813  1
  Pd  Pd176  1  0.79563168  0.21044129  -0.00796851  1
  Pd  Pd177  1  0.80668562  0.80352232  0.00346860  1
  Pd  Pd178  1  0.18744451  0.39500490  0.60067488  1
  Pd  Pd179  1  0.79445879  0.59473871  -0.00008238  1
  Pd  Pd180  1  0.79287159  0.60659811  0.19038432  1
  Pd  Pd181  1  0.19597818  -0.00234944  0.81204879  1
  Pd  Pd182  1  0.81088868  0.40022845  0.39941797  1
  Pd  Pd183  1  0.19863373  0.80138339  0.59511558  1
  Pd  Pd184  1  0.01026589  -0.00525559  -0.00363381  1
  Pd  Pd185  1  0.60254005  0.39614623  0.59762966  1
  Pd  Pd186  1  -0.00603668  0.79887702  0.60928686  1
  Pd  Pd187  1  0.60395076  0.59869001  0.58720566  1
  Pd  Pd188  1  0.60805162  0.19684981  0.79851675  1
  Pd  Pd189  1  0.39697863  0.59495697  0.59611583  1
  Pd  Pd190  1  0.60348017  0.80788711  0.00154535  1
  Pd  Pd191  1  0.79860482  0.59506903  0.59980395  1
  Pd  Pd192  1  0.38901859  0.80720736  0.39673745  1
  Pd  Pd193  1  0.80982391  0.39581109  0.19554647  1
  Pd  Pd194  1  0.60919015  0.59628309  0.01373568  1
  Pd  Pd195  1  0.59546954  0.79567585  0.19183897  1
  Pd  Pd196  1  0.80584283  -0.00619905  0.39499334  1
  Pd  Pd197  1  0.39018383  0.39643600  0.39227986  1
  Pd  Pd198  1  0.19870992  0.60100976  0.60047116  1
  Pd  Pd199  1  0.59901759  -0.00164746  0.40603226  1
  Rh  Rh200  1  0.60782156  0.79783285  0.41019803  1
  Rh  Rh201  1  -0.00254847  0.59992463  0.41044091  1
  Rh  Rh202  1  -0.01219856  0.20750428  0.79160904  1
  Rh  Rh203  1  0.00796868  0.61247732  0.00447888  1
  Rh  Rh204  1  0.40571512  0.80819087  0.00700469  1
  Rh  Rh205  1  0.79579837  0.40601546  0.58874609  1
  Rh  Rh206  1  0.40106460  0.59130005  0.00119679  1
  Rh  Rh207  1  0.59743652  0.20357439  0.59352752  1
  Rh  Rh208  1  0.00533785  0.79879687  0.00038556  1
  Rh  Rh209  1  0.80224348  0.01328268  0.79376331  1
  Rh  Rh210  1  0.39926887  0.80720528  0.61005516  1
  Rh  Rh211  1  0.79634157  0.60251463  0.40454124  1
  Rh  Rh212  1  0.60390186  0.39143600  0.00615092  1
  Rh  Rh213  1  0.00176482  0.79033475  0.19661395  1
  Rh  Rh214  1  0.80322477  0.19809225  0.39972697  1
  Rh  Rh215  1  0.40457819  0.39265296  0.60231718  1
  Rh  Rh216  1  0.01006757  0.60032609  0.19064274  1
  Rh  Rh217  1  0.20651233  0.19375773  0.80183445  1
  Rh  Rh218  1  0.19053529  -0.00564048  0.40692666  1
  Rh  Rh219  1  0.39479430  0.19312125  0.20936542  1
  Rh  Rh220  1  0.80628163  0.80397835  0.19776875  1
  Rh  Rh221  1  0.60146267  0.60386166  0.79902735  1
  Rh  Rh222  1  0.60441667  -0.00006160  0.19098122  1
  Rh  Rh223  1  -0.00199023  0.59581221  0.79884568  1
  Rh  Rh224  1  0.80957089  0.40147019  0.81444220  1
  Rh  Rh225  1  0.00188258  0.20453884  0.20472959  1
  Rh  Rh226  1  -0.00061452  0.19233693  0.40135887  1
  Rh  Rh227  1  -0.00423729  0.40292760  0.39294606  1
  Rh  Rh228  1  0.60131298  0.39385041  0.20354843  1
  Rh  Rh229  1  -0.00186553  0.00134647  0.20565966  1
  Rh  Rh230  1  0.40030854  0.19736947  0.78925975  1
  Rh  Rh231  1  0.19278343  0.40950042  0.19442327  1
  Rh  Rh232  1  0.79858548  0.19428142  0.60841080  1
  Rh  Rh233  1  0.19110404  0.60589322  -0.00115383  1
  Rh  Rh234  1  0.60355704  -0.00135189  0.59532532  1
  Rh  Rh235  1  0.79865352  -0.00688863  0.00958509  1
  Rh  Rh236  1  0.00248036  0.00189920  0.59469365  1
  Rh  Rh237  1  -0.00045253  -0.00483385  0.79970646  1
  Rh  Rh238  1  0.20072396  0.20939479  0.40305375  1
  Rh  Rh239  1  -0.00900712  0.39336668  0.00452564  1
  Rh  Rh240  1  0.18620055  0.40780377  0.78704055  1
  Rh  Rh241  1  0.59898815  0.19716272  -0.00298653  1
  Rh  Rh242  1  0.79956752  0.00649456  0.60116292  1
  Rh  Rh243  1  0.00109728  0.80352274  0.39878214  1
  Rh  Rh244  1  0.80022821  0.19298559  0.20633038  1
  Rh  Rh245  1  0.80662257  0.80159342  0.60208961  1
  Rh  Rh246  1  0.19860190  0.78977998  0.20952994  1
  Rh  Rh247  1  -0.00047184  0.20309542  0.60328699  1
  Rh  Rh248  1  0.39712917  0.00455640  0.59480842  1
  Rh  Rh249  1  0.20865462  0.79467815  0.80784642  1
