# generated using pymatgen
data_ZrScNbPdRh
_symmetry_space_group_name_H-M   'P 1'
_cell_length_a   16.56393443
_cell_length_b   16.56080388
_cell_length_c   16.56318022
_cell_angle_alpha   90.02792070
_cell_angle_beta   90.00599757
_cell_angle_gamma   90.04078668
_symmetry_Int_Tables_number   1
_chemical_formula_structural   ZrScNbPdRh
_chemical_formula_sum   'Zr50 Sc50 Nb50 Pd50 Rh50'
_cell_volume   4543.47853026
_cell_formula_units_Z   50
loop_
 _symmetry_equiv_pos_site_id
 _symmetry_equiv_pos_as_xyz
  1  'x, y, z'
loop_
 _atom_site_type_symbol
 _atom_site_label
 _atom_site_symmetry_multiplicity
 _atom_site_fract_x
 _atom_site_fract_y
 _atom_site_fract_z
 _atom_site_occupancy
  Zr  Zr0  1  0.29947812  0.30404178  0.49611618  1
  Zr  Zr1  1  0.49666390  0.29955062  0.49792278  1
  Zr  Zr2  1  0.50638125  0.29659196  0.10559553  1
  Zr  Zr3  1  0.90153440  0.29816082  0.29828177  1
  Zr  Zr4  1  0.49737403  0.89883873  0.90774421  1
  Zr  Zr5  1  0.69444278  0.69141270  0.09850879  1
  Zr  Zr6  1  0.70845316  0.50452486  0.90699387  1
  Zr  Zr7  1  0.10232287  0.30433705  0.90272337  1
  Zr  Zr8  1  0.50790241  0.49401857  0.49511232  1
  Zr  Zr9  1  0.50360064  0.50419979  0.10890658  1
  Zr  Zr10  1  0.09589955  0.69971122  0.50044599  1
  Zr  Zr11  1  0.09868502  0.50097961  0.70025129  1
  Zr  Zr12  1  0.30229216  0.30702538  0.30056797  1
  Zr  Zr13  1  0.89372869  0.30375079  0.69605369  1
  Zr  Zr14  1  0.89423774  0.90198753  0.89657140  1
  Zr  Zr15  1  0.29813299  0.49847766  0.70173807  1
  Zr  Zr16  1  0.09580210  0.29803422  0.49984707  1
  Zr  Zr17  1  0.10922899  0.10148532  0.69354782  1
  Zr  Zr18  1  0.49577359  0.10219891  0.49493494  1
  Zr  Zr19  1  0.50830251  0.30697993  0.70900674  1
  Zr  Zr20  1  0.30192145  0.89907436  0.90693583  1
  Zr  Zr21  1  0.69993019  0.90802487  0.30414933  1
  Zr  Zr22  1  0.10288876  0.49457351  0.10478576  1
  Zr  Zr23  1  0.69350122  0.50446493  0.31021369  1
  Zr  Zr24  1  0.30726091  0.89277551  0.49909812  1
  Zr  Zr25  1  0.70431191  0.68645541  0.48959885  1
  Zr  Zr26  1  0.50109313  0.10505661  0.30143299  1
  Zr  Zr27  1  0.69855479  0.09150698  0.70035653  1
  Zr  Zr28  1  0.31673291  0.69939813  0.30809717  1
  Zr  Zr29  1  0.49857576  0.90963446  0.49620514  1
  Zr  Zr30  1  0.90234577  0.69580308  0.50652391  1
  Zr  Zr31  1  0.49067425  0.89958004  0.29900922  1
  Zr  Zr32  1  0.09900781  0.49092068  0.30115526  1
  Zr  Zr33  1  0.90473149  0.29644682  0.91277200  1
  Zr  Zr34  1  0.50336781  0.69254054  0.70372650  1
  Zr  Zr35  1  0.89067734  0.89534013  0.69802911  1
  Zr  Zr36  1  0.30667812  0.69949632  0.68744501  1
  Zr  Zr37  1  0.90430029  0.69773632  0.70435097  1
  Zr  Zr38  1  0.70177714  0.69774912  0.90330757  1
  Zr  Zr39  1  0.70208447  0.10269818  0.30105820  1
  Zr  Zr40  1  0.09640937  0.30549907  0.29906621  1
  Zr  Zr41  1  0.09669722  0.89506805  0.10088741  1
  Zr  Zr42  1  0.89624498  0.09640841  0.29413262  1
  Zr  Zr43  1  0.70735776  0.09138456  0.90490264  1
  Zr  Zr44  1  0.49960796  0.10463381  0.09931907  1
  Zr  Zr45  1  0.50563263  0.70709491  0.09919784  1
  Zr  Zr46  1  0.48369563  0.69941947  0.50072137  1
  Zr  Zr47  1  0.70819003  0.30347561  0.29983275  1
  Zr  Zr48  1  0.49838946  0.10238131  0.69381087  1
  Zr  Zr49  1  0.70238604  0.29488898  0.69549379  1
  Sc  Sc50  1  0.70117804  0.88866147  0.09115293  1
  Sc  Sc51  1  0.29313139  0.30756571  0.69757315  1
  Sc  Sc52  1  0.89604740  0.50612253  0.69865332  1
  Sc  Sc53  1  0.31147925  0.90090834  0.09782592  1
  Sc  Sc54  1  0.49867196  0.30067219  0.29835312  1
  Sc  Sc55  1  0.90030604  0.89786017  0.10044669  1
  Sc  Sc56  1  0.69318129  0.29968561  0.89645814  1
  Sc  Sc57  1  0.08766610  0.90477645  0.29278634  1
  Sc  Sc58  1  0.10346009  0.30137879  0.69604096  1
  Sc  Sc59  1  0.70429524  0.89544620  0.89399622  1
  Sc  Sc60  1  0.50625300  0.09717789  0.89599949  1
  Sc  Sc61  1  0.30207899  0.49978818  0.09951408  1
  Sc  Sc62  1  0.70377061  0.10920382  0.10177394  1
  Sc  Sc63  1  0.09107988  0.69576684  0.70144881  1
  Sc  Sc64  1  0.70419636  0.30281296  0.10578020  1
  Sc  Sc65  1  0.29994466  0.10187382  0.10184960  1
  Sc  Sc66  1  0.90690430  0.09241813  0.70174590  1
  Sc  Sc67  1  0.70332804  0.49504314  0.70808852  1
  Sc  Sc68  1  0.49717648  0.49923385  0.70573382  1
  Sc  Sc69  1  0.70479019  0.70136059  0.71109958  1
  Sc  Sc70  1  0.09247126  0.90357954  0.50292528  1
  Sc  Sc71  1  0.09323829  0.48989283  0.49927269  1
  Sc  Sc72  1  0.09706645  0.90345409  0.70171640  1
  Sc  Sc73  1  0.09729393  0.30117339  0.10097201  1
  Sc  Sc74  1  0.29761908  0.69219644  0.90780444  1
  Sc  Sc75  1  0.09198635  0.89061656  0.90133606  1
  Sc  Sc76  1  0.30655660  0.10136590  0.29437838  1
  Sc  Sc77  1  0.29545964  0.49865751  0.89802957  1
  Sc  Sc78  1  0.09751031  0.11361674  0.89030176  1
  Sc  Sc79  1  0.28972770  0.30608425  0.89393991  1
  Sc  Sc80  1  0.08523241  0.10057247  0.30034754  1
  Sc  Sc81  1  0.90130709  0.49000734  0.29876455  1
  Sc  Sc82  1  0.10538124  0.50682587  0.90266277  1
  Sc  Sc83  1  0.89321372  0.49100590  0.09119456  1
  Sc  Sc84  1  0.30874572  0.09746933  0.51076100  1
  Sc  Sc85  1  0.09970866  0.10775711  0.10940962  1
  Sc  Sc86  1  0.09257735  0.70107792  0.09355216  1
  Sc  Sc87  1  0.90638899  0.69350387  0.30405779  1
  Sc  Sc88  1  0.30691010  0.70007631  0.09409662  1
  Sc  Sc89  1  0.31006513  0.49443481  0.49613066  1
  Sc  Sc90  1  0.89704292  0.30103049  0.50108813  1
  Sc  Sc91  1  0.08816482  0.69830866  0.29664155  1
  Sc  Sc92  1  0.69856069  0.10402906  0.49851938  1
  Sc  Sc93  1  0.50852082  0.91026686  0.70728417  1
  Sc  Sc94  1  0.29541977  0.09692112  0.89779111  1
  Sc  Sc95  1  0.90538229  0.69862594  0.09599480  1
  Sc  Sc96  1  0.29805318  0.91051835  0.69815071  1
  Sc  Sc97  1  0.70268417  0.30811821  0.49890967  1
  Sc  Sc98  1  0.29315368  0.30235765  0.10412259  1
  Sc  Sc99  1  0.70399644  0.90976535  0.50467213  1
  Nb  Nb100  1  0.49185661  0.50373748  0.30086471  1
  Nb  Nb101  1  0.50235659  0.49413518  0.89137755  1
  Nb  Nb102  1  0.70284963  0.50101544  0.10033886  1
  Nb  Nb103  1  0.92078157  0.09601624  0.49104312  1
  Nb  Nb104  1  0.89859821  0.29612030  0.10302808  1
  Nb  Nb105  1  0.29989384  0.10372777  0.70695798  1
  Nb  Nb106  1  0.09830801  0.10096693  0.49531857  1
  Nb  Nb107  1  0.88545942  0.50319298  0.50018321  1
  Nb  Nb108  1  0.89903112  0.10151700  0.90525200  1
  Nb  Nb109  1  0.89529438  0.10902187  0.08864359  1
  Nb  Nb110  1  0.50041882  0.90163152  0.09535902  1
  Nb  Nb111  1  0.29531229  0.89996903  0.30223628  1
  Nb  Nb112  1  0.30032357  0.49764579  0.29933605  1
  Nb  Nb113  1  0.29850962  0.69980919  0.50072695  1
  Nb  Nb114  1  0.90784680  0.69612475  0.89641895  1
  Nb  Nb115  1  0.89511615  0.50114610  0.89822122  1
  Nb  Nb116  1  0.70548382  0.89930496  0.70072032  1
  Nb  Nb117  1  0.50445289  0.69628507  0.89569668  1
  Nb  Nb118  1  0.70282491  0.50035503  0.49449043  1
  Nb  Nb119  1  0.09086951  0.70348253  0.89652388  1
  Nb  Nb120  1  0.89452456  0.89972235  0.29937722  1
  Nb  Nb121  1  0.69822962  0.69912922  0.30049336  1
  Nb  Nb122  1  0.89912757  0.89782456  0.49565060  1
  Nb  Nb123  1  0.50821051  0.69541150  0.29911630  1
  Nb  Nb124  1  0.50212490  0.30216144  0.89930912  1
  Nb  Nb125  1  0.79330465  0.59974939  0.20006899  1
  Nb  Nb126  1  0.40902666  0.39730891  -0.00421874  1
  Nb  Nb127  1  0.20058469  0.79995867  0.39585375  1
  Nb  Nb128  1  0.40013339  0.20383837  0.80034615  1
  Nb  Nb129  1  0.79828308  0.79402716  0.20931469  1
  Nb  Nb130  1  0.60069678  0.79623589  0.40070660  1
  Nb  Nb131  1  0.20284879  0.60415588  0.20854432  1
  Nb  Nb132  1  0.20338797  0.60192394  0.39890901  1
  Nb  Nb133  1  0.40260390  0.20848096  -0.00837148  1
  Nb  Nb134  1  0.20295761  0.79457302  0.80174060  1
  Nb  Nb135  1  0.19643994  0.19370888  0.40260590  1
  Nb  Nb136  1  0.59911504  -0.00225285  0.00583232  1
  Nb  Nb137  1  -0.00238388  0.00905821  -0.00186221  1
  Nb  Nb138  1  -0.00613005  0.40297468  0.80603430  1
  Nb  Nb139  1  0.19966119  0.00010168  0.39926840  1
  Nb  Nb140  1  0.80412053  0.19512824  0.80236910  1
  Nb  Nb141  1  0.19033981  -0.00175427  0.00177957  1
  Nb  Nb142  1  0.60385345  0.79691774  0.59695495  1
  Nb  Nb143  1  0.20448383  0.79681398  0.20693980  1
  Nb  Nb144  1  0.80133411  0.80136042  0.39869776  1
  Nb  Nb145  1  0.59697002  0.40446855  0.00048621  1
  Nb  Nb146  1  0.59732987  -0.00316161  0.19455177  1
  Nb  Nb147  1  0.20234883  0.60082172  0.59130479  1
  Nb  Nb148  1  0.39801290  0.79668170  0.80351511  1
  Nb  Nb149  1  0.60187355  0.60109802  0.59642839  1
  Pd  Pd150  1  0.20621585  0.19991062  0.59446118  1
  Pd  Pd151  1  -0.01031757  0.00522085  0.18833586  1
  Pd  Pd152  1  0.39428763  0.60200197  0.80710048  1
  Pd  Pd153  1  0.60050942  -0.00273297  0.59772597  1
  Pd  Pd154  1  0.20245332  -0.00062736  0.59208996  1
  Pd  Pd155  1  0.19226832  0.79813339  0.60332700  1
  Pd  Pd156  1  0.80556753  0.00425612  0.40936230  1
  Pd  Pd157  1  0.19175507  -0.00773523  0.80940245  1
  Pd  Pd158  1  0.39977040  0.00270788  0.80096385  1
  Pd  Pd159  1  0.80957227  0.18680688  0.59916190  1
  Pd  Pd160  1  0.19913987  0.80062443  0.00219111  1
  Pd  Pd161  1  0.20385852  0.19494978  -0.00029211  1
  Pd  Pd162  1  0.78857557  0.20977273  -0.00403501  1
  Pd  Pd163  1  0.79034861  0.59778997  0.61019323  1
  Pd  Pd164  1  0.79133898  0.79528618  0.59326972  1
  Pd  Pd165  1  0.20010907  -0.00557261  0.19850757  1
  Pd  Pd166  1  0.80296640  0.39091794  0.80785417  1
  Pd  Pd167  1  -0.00102766  0.59183892  -0.00147377  1
  Pd  Pd168  1  0.39628150  0.20910146  0.61018738  1
  Pd  Pd169  1  -0.00541274  0.59275963  0.19446449  1
  Pd  Pd170  1  -0.00011085  0.80636168  0.39608339  1
  Pd  Pd171  1  0.59157996  0.59338256  -0.00586643  1
  Pd  Pd172  1  0.39718855  0.79832648  0.19741531  1
  Pd  Pd173  1  -0.00449652  0.20840634  0.79158413  1
  Pd  Pd174  1  0.60684887  0.40825931  0.60304733  1
  Pd  Pd175  1  0.00499783  -0.00068621  0.80652907  1
  Pd  Pd176  1  0.60120319  0.20244387  0.59334767  1
  Pd  Pd177  1  0.60360484  0.19255670  0.80226771  1
  Pd  Pd178  1  0.19515189  0.60191450  0.00947650  1
  Pd  Pd179  1  0.39675091  0.60254485  0.19753848  1
  Pd  Pd180  1  0.40809449  0.59288705  -0.00550041  1
  Pd  Pd181  1  0.41203260  0.81375827  0.61440135  1
  Pd  Pd182  1  0.80748428  0.19684659  0.40802840  1
  Pd  Pd183  1  0.00210797  0.80486524  0.60594194  1
  Pd  Pd184  1  0.60433200  0.40364057  0.20275902  1
  Pd  Pd185  1  0.80638866  0.79224719  0.00275798  1
  Pd  Pd186  1  0.20069452  0.60951166  0.79314359  1
  Pd  Pd187  1  -0.00240313  -0.00347622  0.60074463  1
  Pd  Pd188  1  0.79416834  -0.00554892  0.18605658  1
  Pd  Pd189  1  0.60531118  0.80759434  0.20504230  1
  Pd  Pd190  1  0.60335219  0.20914743  0.40114936  1
  Pd  Pd191  1  0.40352914  0.39997178  0.60557487  1
  Pd  Pd192  1  0.59760536  0.80408536  0.79776930  1
  Pd  Pd193  1  -0.00863953  0.40621072  0.60374493  1
  Pd  Pd194  1  0.00184611  0.40559891  -0.00068064  1
  Pd  Pd195  1  -0.00015196  0.58820066  0.40387920  1
  Pd  Pd196  1  0.19834467  0.20030338  0.21152871  1
  Pd  Pd197  1  -0.00336770  0.19794436  0.60452664  1
  Pd  Pd198  1  0.80898639  0.00865262  0.59231517  1
  Pd  Pd199  1  0.40138063  0.00083432  0.19763673  1
  Rh  Rh200  1  0.80324394  0.40119464  0.40127970  1
  Rh  Rh201  1  -0.00714825  0.39726322  0.19040800  1
  Rh  Rh202  1  0.58814091  0.60302509  0.40400637  1
  Rh  Rh203  1  0.40139233  0.59279405  0.40243632  1
  Rh  Rh204  1  0.40041768  -0.00103238  0.60684554  1
  Rh  Rh205  1  0.39807259  0.39983909  0.19599889  1
  Rh  Rh206  1  0.81099127  0.59913263  0.38940577  1
  Rh  Rh207  1  0.79249827  0.39361289  0.00065284  1
  Rh  Rh208  1  0.60612218  0.59310240  0.79786965  1
  Rh  Rh209  1  0.20445524  0.40594042  0.19816011  1
  Rh  Rh210  1  -0.00617575  0.20079489  0.19702083  1
  Rh  Rh211  1  -0.00486650  0.79858678  0.20050990  1
  Rh  Rh212  1  0.39097243  0.19895731  0.39881118  1
  Rh  Rh213  1  -0.00844024  0.80559640  -0.00442417  1
  Rh  Rh214  1  0.39374000  0.39520983  0.80417983  1
  Rh  Rh215  1  0.39613107  0.20697033  0.19294212  1
  Rh  Rh216  1  0.20062859  0.40988500  0.59364848  1
  Rh  Rh217  1  0.20764450  0.40273795  0.00296932  1
  Rh  Rh218  1  0.59824252  0.19952736  -0.00080119  1
  Rh  Rh219  1  0.80303955  0.60404345  0.80278201  1
  Rh  Rh220  1  0.59830935  0.80233354  -0.00638356  1
  Rh  Rh221  1  0.60874926  0.40552223  0.80477185  1
  Rh  Rh222  1  0.80439165  0.79434261  0.80293540  1
  Rh  Rh223  1  0.80370095  0.20115891  0.19986294  1
  Rh  Rh224  1  0.80901447  0.60516838  0.00546944  1
  Rh  Rh225  1  -0.01158413  0.39909534  0.40787524  1
  Rh  Rh226  1  0.00264357  -0.00715498  0.39703217  1
  Rh  Rh227  1  0.40411160  0.80178720  0.39818311  1
  Rh  Rh228  1  0.59704554  0.00017252  0.39547614  1
  Rh  Rh229  1  0.39926945  0.01506454  0.00219148  1
  Rh  Rh230  1  -0.00217931  0.59049949  0.80710752  1
  Rh  Rh231  1  0.60300608  0.59606449  0.20524348  1
  Rh  Rh232  1  0.40729706  0.78853736  -0.00636947  1
  Rh  Rh233  1  0.00093693  0.20518654  0.39729136  1
  Rh  Rh234  1  0.80073848  0.00491896  0.79667755  1
  Rh  Rh235  1  0.60714398  0.19649672  0.20703582  1
  Rh  Rh236  1  0.80082243  -0.00390604  0.00513442  1
  Rh  Rh237  1  0.60679025  -0.00419597  0.80820759  1
  Rh  Rh238  1  0.40682546  0.40082073  0.39367913  1
  Rh  Rh239  1  0.00326922  0.59340077  0.59335875  1
  Rh  Rh240  1  0.00097332  0.80266494  0.79695212  1
  Rh  Rh241  1  0.40078296  0.58750037  0.59591395  1
  Rh  Rh242  1  0.79511842  0.40685420  0.59626852  1
  Rh  Rh243  1  0.59752682  0.39568031  0.39371637  1
  Rh  Rh244  1  0.18780682  0.40210873  0.79978475  1
  Rh  Rh245  1  0.19943613  0.39866440  0.40229502  1
  Rh  Rh246  1  0.39016344  0.00704827  0.39765769  1
  Rh  Rh247  1  0.80073004  0.40621563  0.19924773  1
  Rh  Rh248  1  0.00778270  0.19574640  0.00772192  1
  Rh  Rh249  1  0.20555628  0.20425045  0.79380062  1
