# generated using pymatgen
data_ZrScNbPdRh
_symmetry_space_group_name_H-M   'P 1'
_cell_length_a   16.55843544
_cell_length_b   16.55894663
_cell_length_c   16.55753628
_cell_angle_alpha   90.00864434
_cell_angle_beta   90.00223946
_cell_angle_gamma   90.01919376
_symmetry_Int_Tables_number   1
_chemical_formula_structural   ZrScNbPdRh
_chemical_formula_sum   'Zr50 Sc50 Nb50 Pd50 Rh50'
_cell_volume   4539.91468174
_cell_formula_units_Z   50
loop_
 _symmetry_equiv_pos_site_id
 _symmetry_equiv_pos_as_xyz
  1  'x, y, z'
loop_
 _atom_site_type_symbol
 _atom_site_label
 _atom_site_symmetry_multiplicity
 _atom_site_fract_x
 _atom_site_fract_y
 _atom_site_fract_z
 _atom_site_occupancy
  Zr  Zr0  1  0.70024029  0.10594120  0.10382100  1
  Zr  Zr1  1  0.49812253  0.69792753  0.89051811  1
  Zr  Zr2  1  0.30661153  0.09749094  0.70740978  1
  Zr  Zr3  1  0.29984780  0.69718393  0.49900201  1
  Zr  Zr4  1  0.30029190  0.09208903  0.90153147  1
  Zr  Zr5  1  0.89990394  0.50592702  0.29691940  1
  Zr  Zr6  1  0.10235004  0.70438868  0.89776278  1
  Zr  Zr7  1  0.30101443  0.30406248  0.50471497  1
  Zr  Zr8  1  0.89556458  0.50077154  0.50069047  1
  Zr  Zr9  1  0.89649250  0.70404964  0.10023903  1
  Zr  Zr10  1  0.29922904  0.50382059  0.30263156  1
  Zr  Zr11  1  0.70166046  0.10047600  0.29383594  1
  Zr  Zr12  1  0.50603195  0.09530241  0.09873886  1
  Zr  Zr13  1  0.88707429  0.49935300  0.90248743  1
  Zr  Zr14  1  0.10701081  0.09891518  0.69938745  1
  Zr  Zr15  1  0.70713332  0.69947065  0.89606162  1
  Zr  Zr16  1  0.30761161  0.90165221  0.29314553  1
  Zr  Zr17  1  0.50958725  0.70443751  0.28741532  1
  Zr  Zr18  1  0.30189869  0.90194325  0.09826054  1
  Zr  Zr19  1  0.69469789  0.91678457  0.09462720  1
  Zr  Zr20  1  0.70241759  0.89600420  0.90031651  1
  Zr  Zr21  1  0.70648552  0.70171346  0.49032073  1
  Zr  Zr22  1  0.29383605  0.69622026  0.29263682  1
  Zr  Zr23  1  0.89374335  0.10289071  0.10567206  1
  Zr  Zr24  1  0.30268810  0.50208024  0.10477067  1
  Zr  Zr25  1  0.09412703  0.90157052  0.90975539  1
  Zr  Zr26  1  0.49314660  0.90152872  0.67492232  1
  Zr  Zr27  1  0.08778046  0.30259842  0.10081007  1
  Zr  Zr28  1  0.70878795  0.50127881  0.70203244  1
  Zr  Zr29  1  0.31209946  0.29614213  0.09642447  1
  Zr  Zr30  1  0.10151950  0.09745472  0.90332787  1
  Zr  Zr31  1  0.70105305  0.51003717  0.29695567  1
  Zr  Zr32  1  0.31467279  0.89402879  0.49819927  1
  Zr  Zr33  1  0.49354048  0.10564703  0.89123605  1
  Zr  Zr34  1  0.49665650  0.89484798  0.10138437  1
  Zr  Zr35  1  0.50279109  0.10531848  0.29987844  1
  Zr  Zr36  1  0.89529257  0.69216955  0.69601136  1
  Zr  Zr37  1  0.69185743  0.69134724  0.69692015  1
  Zr  Zr38  1  0.50282475  0.49336191  0.90202060  1
  Zr  Zr39  1  0.30629249  0.70419228  0.10847754  1
  Zr  Zr40  1  0.30803424  0.10234133  0.29751854  1
  Zr  Zr41  1  0.09813604  0.49965505  0.30054886  1
  Zr  Zr42  1  0.70238262  0.89601269  0.30428153  1
  Zr  Zr43  1  0.89669640  0.10883903  0.69263360  1
  Zr  Zr44  1  0.09081441  0.70061113  0.30043779  1
  Zr  Zr45  1  0.89572882  0.29370265  0.49929662  1
  Zr  Zr46  1  0.89555117  0.31034948  0.09897564  1
  Zr  Zr47  1  0.89717129  0.71186547  0.90372931  1
  Zr  Zr48  1  0.09001907  0.09044466  0.09839327  1
  Zr  Zr49  1  0.69637816  0.09425240  0.90787624  1
  Sc  Sc50  1  0.69844146  0.70771151  0.10998780  1
  Sc  Sc51  1  0.50825820  0.49470144  0.29911252  1
  Sc  Sc52  1  0.09880411  0.70741608  0.11011314  1
  Sc  Sc53  1  0.10154611  0.89848224  0.70020603  1
  Sc  Sc54  1  0.09019645  0.49699882  0.10817533  1
  Sc  Sc55  1  0.31116036  0.09235372  0.09978987  1
  Sc  Sc56  1  0.31002745  0.29680591  0.89819903  1
  Sc  Sc57  1  0.51964993  0.51131295  0.70338636  1
  Sc  Sc58  1  0.10113778  0.70001859  0.69881056  1
  Sc  Sc59  1  0.50748974  0.29627213  0.49459507  1
  Sc  Sc60  1  0.69226371  0.11096298  0.69286114  1
  Sc  Sc61  1  0.89812042  0.49398441  0.69474046  1
  Sc  Sc62  1  0.30475181  0.29145595  0.31865999  1
  Sc  Sc63  1  0.30260075  0.70315333  0.89105396  1
  Sc  Sc64  1  0.70496286  0.29784452  0.69976630  1
  Sc  Sc65  1  0.28691999  0.50177966  0.70229143  1
  Sc  Sc66  1  0.08919839  0.09926787  0.29619681  1
  Sc  Sc67  1  0.89462300  0.10173113  0.91322759  1
  Sc  Sc68  1  0.50818703  0.49010310  0.10161788  1
  Sc  Sc69  1  0.49500360  0.89426590  0.90647371  1
  Sc  Sc70  1  0.30041707  0.69809470  0.71090134  1
  Sc  Sc71  1  0.29299932  0.49745654  0.50071610  1
  Sc  Sc72  1  0.10071715  0.31202341  0.70273825  1
  Sc  Sc73  1  0.29261064  0.10905325  0.50477408  1
  Sc  Sc74  1  0.69559477  0.29193475  0.30429537  1
  Sc  Sc75  1  0.89436734  0.09950721  0.30647428  1
  Sc  Sc76  1  0.29235210  0.29432580  0.69937661  1
  Sc  Sc77  1  0.69261721  0.90447868  0.49203032  1
  Sc  Sc78  1  0.30140909  0.50365432  0.89127001  1
  Sc  Sc79  1  0.69435368  0.89204661  0.69691555  1
  Sc  Sc80  1  0.89826484  0.30842068  0.89914359  1
  Sc  Sc81  1  0.50922936  0.27977004  0.70187285  1
  Sc  Sc82  1  0.09017294  0.10166664  0.50181954  1
  Sc  Sc83  1  0.51355557  0.49419083  0.50213831  1
  Sc  Sc84  1  0.09064829  0.90302904  0.50357813  1
  Sc  Sc85  1  0.70190348  0.49587764  0.50685226  1
  Sc  Sc86  1  0.10053672  0.30095588  0.49396229  1
  Sc  Sc87  1  0.50122911  0.29866240  0.90392909  1
  Sc  Sc88  1  0.09589260  0.30674271  0.89555015  1
  Sc  Sc89  1  0.90614298  0.89206295  0.69625236  1
  Sc  Sc90  1  0.70254765  0.10395548  0.49231866  1
  Sc  Sc91  1  0.90179407  0.29806849  0.30531533  1
  Sc  Sc92  1  0.90403670  0.90335020  0.49387022  1
  Sc  Sc93  1  0.89409379  0.30465121  0.69935841  1
  Sc  Sc94  1  0.69843486  0.30507861  0.89905381  1
  Sc  Sc95  1  0.50488027  0.29549698  0.09521130  1
  Sc  Sc96  1  0.10098800  0.49171738  0.89465897  1
  Sc  Sc97  1  0.70477046  0.49014305  0.10245949  1
  Sc  Sc98  1  0.09946435  0.50213284  0.50669943  1
  Sc  Sc99  1  0.90424888  0.90247007  0.09423430  1
  Nb  Nb100  1  0.88408627  0.70323147  0.30891154  1
  Nb  Nb101  1  0.69516559  0.50141401  0.89890539  1
  Nb  Nb102  1  0.70121981  0.29716323  0.49990545  1
  Nb  Nb103  1  0.70794752  0.70165462  0.30190490  1
  Nb  Nb104  1  0.90531580  0.70122700  0.49927522  1
  Nb  Nb105  1  0.50110116  0.69880302  0.69338788  1
  Nb  Nb106  1  0.09967950  0.29906946  0.29714920  1
  Nb  Nb107  1  0.70191747  0.29735014  0.10420222  1
  Nb  Nb108  1  0.51283859  0.08867491  0.51783762  1
  Nb  Nb109  1  0.50362642  0.09498148  0.69796904  1
  Nb  Nb110  1  0.89694505  0.10214333  0.49925258  1
  Nb  Nb111  1  0.10047524  0.90296580  0.10578736  1
  Nb  Nb112  1  0.49545212  0.29425939  0.30163692  1
  Nb  Nb113  1  0.09930370  0.49722249  0.70832083  1
  Nb  Nb114  1  0.49981969  0.69950464  0.09385723  1
  Nb  Nb115  1  0.89833102  0.89853922  0.89856738  1
  Nb  Nb116  1  0.10178228  0.90047408  0.29153521  1
  Nb  Nb117  1  0.09823107  0.70686367  0.50234397  1
  Nb  Nb118  1  0.29668937  0.89779444  0.70034494  1
  Nb  Nb119  1  0.50146225  0.90503000  0.30993721  1
  Nb  Nb120  1  0.90237706  0.89992186  0.30336707  1
  Nb  Nb121  1  0.49855685  0.70930297  0.50240854  1
  Nb  Nb122  1  0.50008550  0.89800237  0.48892515  1
  Nb  Nb123  1  0.90282024  0.49516211  0.09615294  1
  Nb  Nb124  1  0.29545939  0.89733533  0.90016569  1
  Nb  Nb125  1  0.20386321  0.80038953  0.59425843  1
  Nb  Nb126  1  0.19888729  -0.00687456  0.39521628  1
  Nb  Nb127  1  0.60146374  0.60922065  0.39822573  1
  Nb  Nb128  1  0.20406097  0.39031882  0.20294888  1
  Nb  Nb129  1  0.19403588  0.80407588  0.39843437  1
  Nb  Nb130  1  0.80288876  0.79761879  0.59216557  1
  Nb  Nb131  1  0.19867746  0.20399675  0.19694684  1
  Nb  Nb132  1  0.19811539  0.20160407  0.00706500  1
  Nb  Nb133  1  0.41076989  0.60306013  0.40367157  1
  Nb  Nb134  1  0.80100892  -0.00034166  0.60020338  1
  Nb  Nb135  1  0.39866975  0.39225933  0.20921033  1
  Nb  Nb136  1  0.40614775  0.59928126  0.59938952  1
  Nb  Nb137  1  0.20314793  0.39909835  0.00705872  1
  Nb  Nb138  1  0.20133581  0.80283200  0.00307006  1
  Nb  Nb139  1  -0.00325740  0.59716492  0.80335120  1
  Nb  Nb140  1  -0.00148824  0.60029371  -0.00225558  1
  Nb  Nb141  1  -0.00082762  0.19332858  0.79816675  1
  Nb  Nb142  1  0.40375895  0.60270247  0.00232219  1
  Nb  Nb143  1  0.19911032  0.60181070  0.00332383  1
  Nb  Nb144  1  0.40604290  0.40066195  0.78735071  1
  Nb  Nb145  1  -0.00780834  0.00378610  0.80256188  1
  Nb  Nb146  1  0.40476988  0.40301212  0.60851879  1
  Nb  Nb147  1  0.80003937  -0.00032488  0.79531836  1
  Nb  Nb148  1  0.60091189  0.60145715  0.00013885  1
  Nb  Nb149  1  0.59663552  0.00048532  0.79356827  1
  Pd  Pd150  1  0.80093827  0.39462197  0.21070333  1
  Pd  Pd151  1  0.20583427  -0.00825265  0.58982245  1
  Pd  Pd152  1  0.60799887  0.40186160  0.39477539  1
  Pd  Pd153  1  0.59751338  0.39214646  0.79287767  1
  Pd  Pd154  1  0.19636356  0.20705859  0.80892765  1
  Pd  Pd155  1  0.00256230  0.79877547  0.79336029  1
  Pd  Pd156  1  0.79386258  0.40007172  0.39536389  1
  Pd  Pd157  1  0.20073003  0.60485134  0.60600592  1
  Pd  Pd158  1  0.00507919  0.59726936  0.60634581  1
  Pd  Pd159  1  0.80178502  0.19569281  0.80633807  1
  Pd  Pd160  1  0.79505023  0.59888375  0.01004299  1
  Pd  Pd161  1  0.60307057  0.80936572  0.19956159  1
  Pd  Pd162  1  0.79750197  0.21029551  -0.00235328  1
  Pd  Pd163  1  0.80048209  0.59940872  0.19080127  1
  Pd  Pd164  1  0.59757550  0.38855240  0.20394387  1
  Pd  Pd165  1  0.19034807  0.18877984  0.39304615  1
  Pd  Pd166  1  -0.00240254  0.60067669  0.40400364  1
  Pd  Pd167  1  0.00001236  0.20548182  -0.00828708  1
  Pd  Pd168  1  0.41090226  0.18904430  0.41818830  1
  Pd  Pd169  1  0.39756389  0.01305235  0.41034347  1
  Pd  Pd170  1  0.00266420  0.00318931  0.39524804  1
  Pd  Pd171  1  0.39042907  0.00827858  0.59268920  1
  Pd  Pd172  1  -0.00589082  0.20019716  0.20419574  1
  Pd  Pd173  1  0.00108484  0.80273251  0.39828185  1
  Pd  Pd174  1  0.19653310  0.39963523  0.39828459  1
  Pd  Pd175  1  -0.00684625  0.60438736  0.19625185  1
  Pd  Pd176  1  -0.00659709  -0.00076284  0.60637452  1
  Pd  Pd177  1  0.40605161  0.40854032  0.40591626  1
  Pd  Pd178  1  0.40710009  -0.01318658  0.79965280  1
  Pd  Pd179  1  0.40395415  0.20331879  0.59977851  1
  Pd  Pd180  1  0.00093378  0.39759021  0.59792322  1
  Pd  Pd181  1  0.59849149  0.39030498  0.60914577  1
  Pd  Pd182  1  0.00687389  0.21080103  0.60507098  1
  Pd  Pd183  1  -0.01086397  0.80375197  0.20209340  1
  Pd  Pd184  1  0.80569121  -0.00628240  0.20343749  1
  Pd  Pd185  1  0.19387274  -0.00750082  0.80053477  1
  Pd  Pd186  1  0.80195204  0.81230124  0.19554631  1
  Pd  Pd187  1  0.60216915  0.00860718  0.39787718  1
  Pd  Pd188  1  0.40519207  0.80832449  0.79200327  1
  Pd  Pd189  1  0.19066784  0.20624874  0.59961373  1
  Pd  Pd190  1  -0.00055696  0.39930693  0.40179043  1
  Pd  Pd191  1  0.80014891  0.80440806  0.78693128  1
  Pd  Pd192  1  0.60532656  0.79384573  0.00012787  1
  Pd  Pd193  1  0.19492755  0.60506813  0.40248119  1
  Pd  Pd194  1  0.20061147  0.01101675  0.20304818  1
  Pd  Pd195  1  0.41544308  0.58948721  0.20052333  1
  Pd  Pd196  1  0.58887826  0.80787239  0.79491559  1
  Pd  Pd197  1  0.60747742  0.80008385  0.59017421  1
  Pd  Pd198  1  0.60201769  0.20433141  -0.00219215  1
  Pd  Pd199  1  0.39954962  0.78975499  0.38691183  1
  Rh  Rh200  1  0.38951712  0.79273080  -0.00338323  1
  Rh  Rh201  1  0.79909313  0.20015754  0.39990894  1
  Rh  Rh202  1  -0.00816214  -0.00199561  -0.00124176  1
  Rh  Rh203  1  0.39391293  0.41151022  -0.00534396  1
  Rh  Rh204  1  0.79594867  0.40232921  0.80059854  1
  Rh  Rh205  1  0.61262862  -0.00385190  0.60315736  1
  Rh  Rh206  1  0.79395062  0.80725337  0.00808833  1
  Rh  Rh207  1  0.20258472  -0.00174092  0.00594286  1
  Rh  Rh208  1  0.59671028  0.19460590  0.40395463  1
  Rh  Rh209  1  0.59641760  0.79566227  0.39688154  1
  Rh  Rh210  1  0.40782033  0.80421797  0.20409861  1
  Rh  Rh211  1  0.60465002  0.60192383  0.19673731  1
  Rh  Rh212  1  0.20103210  0.40130004  0.60013148  1
  Rh  Rh213  1  0.60631634  0.19314917  0.80606713  1
  Rh  Rh214  1  0.60966483  0.40097782  0.00315028  1
  Rh  Rh215  1  0.39114420  0.78873717  0.60915728  1
  Rh  Rh216  1  0.39842197  0.20510978  0.79391668  1
  Rh  Rh217  1  0.79209763  0.39783272  0.00021926  1
  Rh  Rh218  1  0.18793847  0.59886043  0.80469653  1
  Rh  Rh219  1  0.79465585  0.19894106  0.59230997  1
  Rh  Rh220  1  -0.00472778  0.39942451  0.21093711  1
  Rh  Rh221  1  0.79679320  0.39337298  0.59630921  1
  Rh  Rh222  1  0.40193075  0.20398173  0.19957791  1
  Rh  Rh223  1  0.00305578  0.41024637  -0.00511056  1
  Rh  Rh224  1  0.80577423  -0.00468206  -0.00360403  1
  Rh  Rh225  1  0.80180642  -0.00152020  0.40447010  1
  Rh  Rh226  1  0.41220134  -0.00287175  0.20075779  1
  Rh  Rh227  1  0.80242767  0.20703638  0.20256002  1
  Rh  Rh228  1  0.00696085  0.79801609  0.00811553  1
  Rh  Rh229  1  0.21153594  0.39631896  0.80631100  1
  Rh  Rh230  1  0.59824113  0.20474661  0.19883368  1
  Rh  Rh231  1  -0.00770028  0.40241621  0.79780837  1
  Rh  Rh232  1  0.40394270  -0.00165855  -0.00491745  1
  Rh  Rh233  1  0.59704010  0.60680045  0.58622586  1
  Rh  Rh234  1  0.58827837  -0.00105727  -0.01075688  1
  Rh  Rh235  1  0.18577492  0.59458134  0.19522906  1
  Rh  Rh236  1  0.80437125  0.59719731  0.79975121  1
  Rh  Rh237  1  0.40827336  0.59050800  0.79440946  1
  Rh  Rh238  1  0.19870111  0.80325567  0.19998480  1
  Rh  Rh239  1  -0.00063804  0.19866179  0.40103126  1
  Rh  Rh240  1  0.39946974  0.18949858  -0.00019028  1
  Rh  Rh241  1  0.79946943  0.60370398  0.59173737  1
  Rh  Rh242  1  -0.00061439  0.79637875  0.59949150  1
  Rh  Rh243  1  0.60334249  0.60317285  0.80783454  1
  Rh  Rh244  1  0.79994127  0.59510048  0.40360835  1
  Rh  Rh245  1  -0.00906244  -0.00480689  0.20409145  1
  Rh  Rh246  1  0.60419581  0.20276933  0.59110469  1
  Rh  Rh247  1  0.19933988  0.80760512  0.79896571  1
  Rh  Rh248  1  0.59589526  -0.00507782  0.20822583  1
  Rh  Rh249  1  0.80741288  0.80873746  0.40543552  1
