# generated using pymatgen
data_ZrScNbPdRh
_symmetry_space_group_name_H-M   'P 1'
_cell_length_a   16.55193927
_cell_length_b   16.55434009
_cell_length_c   16.55087400
_cell_angle_alpha   90.01102690
_cell_angle_beta   90.03020851
_cell_angle_gamma   89.99085020
_symmetry_Int_Tables_number   1
_chemical_formula_structural   ZrScNbPdRh
_chemical_formula_sum   'Zr50 Sc50 Nb50 Pd50 Rh50'
_cell_volume   4535.04515711
_cell_formula_units_Z   50
loop_
 _symmetry_equiv_pos_site_id
 _symmetry_equiv_pos_as_xyz
  1  'x, y, z'
loop_
 _atom_site_type_symbol
 _atom_site_label
 _atom_site_symmetry_multiplicity
 _atom_site_fract_x
 _atom_site_fract_y
 _atom_site_fract_z
 _atom_site_occupancy
  Zr  Zr0  1  0.30501120  0.69500301  0.69574981  1
  Zr  Zr1  1  0.09425171  0.69833072  0.49192794  1
  Zr  Zr2  1  0.50350779  0.70289609  0.69549681  1
  Zr  Zr3  1  0.09877326  0.88279327  0.89987380  1
  Zr  Zr4  1  0.70763603  0.30245584  0.50335687  1
  Zr  Zr5  1  0.29381702  0.70342233  0.28871801  1
  Zr  Zr6  1  0.50278698  0.71325191  0.30123576  1
  Zr  Zr7  1  0.50092807  0.90340413  0.89402531  1
  Zr  Zr8  1  0.09401836  0.49768198  0.71297342  1
  Zr  Zr9  1  0.49967794  0.08795111  0.70322606  1
  Zr  Zr10  1  0.29346193  0.09226119  0.50281595  1
  Zr  Zr11  1  0.88448546  0.49819777  0.49903220  1
  Zr  Zr12  1  0.29617159  0.89692620  0.90858058  1
  Zr  Zr13  1  0.69289510  0.09804250  0.29820801  1
  Zr  Zr14  1  0.69690067  0.09833539  0.91204210  1
  Zr  Zr15  1  0.10282622  0.31303689  0.89137647  1
  Zr  Zr16  1  0.70216450  0.28804766  0.09463305  1
  Zr  Zr17  1  0.50566112  0.09833988  0.11082292  1
  Zr  Zr18  1  0.29798702  0.70291024  0.50067104  1
  Zr  Zr19  1  0.29757448  0.09306311  0.70141793  1
  Zr  Zr20  1  0.29811482  0.50651168  0.50192725  1
  Zr  Zr21  1  0.50866957  0.29887048  0.70397397  1
  Zr  Zr22  1  0.09307660  0.29821606  0.50354525  1
  Zr  Zr23  1  0.69296991  0.70480636  0.29655387  1
  Zr  Zr24  1  0.90257462  0.29909753  0.09189125  1
  Zr  Zr25  1  0.50086995  0.49977177  0.09251583  1
  Zr  Zr26  1  0.50342549  0.88863974  0.49812869  1
  Zr  Zr27  1  0.90511444  0.70065002  0.89791942  1
  Zr  Zr28  1  0.09420553  0.09643658  0.49437907  1
  Zr  Zr29  1  0.30146333  0.30217737  0.29720392  1
  Zr  Zr30  1  0.29189078  0.30297038  0.71689105  1
  Zr  Zr31  1  0.30392230  0.09611040  0.30318388  1
  Zr  Zr32  1  0.89861616  0.10396706  0.09571514  1
  Zr  Zr33  1  0.29834869  0.49956518  0.89983310  1
  Zr  Zr34  1  0.50593498  0.09793360  0.50538004  1
  Zr  Zr35  1  0.50928382  0.49978693  0.50639466  1
  Zr  Zr36  1  0.10369615  0.30269574  0.29954633  1
  Zr  Zr37  1  0.50286109  0.30291778  0.90517776  1
  Zr  Zr38  1  0.89879107  0.29998857  0.50040919  1
  Zr  Zr39  1  0.50199059  0.50248222  0.70632004  1
  Zr  Zr40  1  0.90606836  0.09719857  0.70081974  1
  Zr  Zr41  1  0.90187650  0.50577071  0.29636276  1
  Zr  Zr42  1  0.89495833  0.50247996  0.70245895  1
  Zr  Zr43  1  0.89673286  0.29943435  0.89683463  1
  Zr  Zr44  1  0.69969122  0.50018632  0.69193411  1
  Zr  Zr45  1  0.09164661  0.29762953  0.09338365  1
  Zr  Zr46  1  0.70157706  0.29925251  0.70873759  1
  Zr  Zr47  1  0.29868702  0.90155717  0.70137784  1
  Zr  Zr48  1  0.09845358  0.51366398  0.29638414  1
  Zr  Zr49  1  0.69153243  0.89582924  0.90239160  1
  Sc  Sc50  1  0.09392350  0.89868548  0.70233501  1
  Sc  Sc51  1  0.10751473  0.70097373  0.10638682  1
  Sc  Sc52  1  0.69423479  0.90055258  0.30251076  1
  Sc  Sc53  1  0.69339029  0.70389319  0.09763721  1
  Sc  Sc54  1  0.50106059  0.90330175  0.29693649  1
  Sc  Sc55  1  0.89650889  0.69687791  0.10098775  1
  Sc  Sc56  1  0.10301285  0.09295258  0.90243017  1
  Sc  Sc57  1  0.89722808  0.29712379  0.30021166  1
  Sc  Sc58  1  0.70785891  0.29002206  0.30531458  1
  Sc  Sc59  1  0.09578650  0.90305205  0.50426914  1
  Sc  Sc60  1  0.70104635  0.51518693  0.09007844  1
  Sc  Sc61  1  0.70197428  0.70086499  0.69938547  1
  Sc  Sc62  1  0.70339765  0.09974246  0.49507581  1
  Sc  Sc63  1  0.51044696  0.51084158  0.29381928  1
  Sc  Sc64  1  0.30958772  0.31408000  0.09773969  1
  Sc  Sc65  1  0.10364767  0.89541876  0.09931827  1
  Sc  Sc66  1  0.89343034  0.70347096  0.69608322  1
  Sc  Sc67  1  0.30033293  0.08751536  0.90262698  1
  Sc  Sc68  1  0.89953288  0.50804554  0.90246409  1
  Sc  Sc69  1  0.49720336  0.89276707  0.10250166  1
  Sc  Sc70  1  0.70642854  0.90407378  0.50510292  1
  Sc  Sc71  1  0.70466959  0.50190553  0.89415418  1
  Sc  Sc72  1  0.90004705  0.10436504  0.90164154  1
  Sc  Sc73  1  0.09017095  0.09799176  0.09726375  1
  Sc  Sc74  1  0.90173869  0.90831745  0.50616602  1
  Sc  Sc75  1  0.09691479  0.09723723  0.69991902  1
  Sc  Sc76  1  0.70542600  0.51292606  0.30350067  1
  Sc  Sc77  1  0.50323417  0.29205014  0.28800603  1
  Sc  Sc78  1  0.30768150  0.09314312  0.09246288  1
  Sc  Sc79  1  0.91218847  0.70027342  0.29453561  1
  Sc  Sc80  1  0.51107290  0.29744005  0.50791356  1
  Sc  Sc81  1  0.08311202  0.90056417  0.29221431  1
  Sc  Sc82  1  0.70000392  0.69685941  0.90640943  1
  Sc  Sc83  1  0.69112570  0.09736027  0.69656447  1
  Sc  Sc84  1  0.29741709  0.90120068  0.50017940  1
  Sc  Sc85  1  0.29375181  0.30234326  0.49403931  1
  Sc  Sc86  1  0.69395116  0.89685451  0.09814252  1
  Sc  Sc87  1  0.29924451  0.69575457  0.90676899  1
  Sc  Sc88  1  0.30928635  0.89826637  0.29685933  1
  Sc  Sc89  1  0.29673724  0.89052497  0.09968850  1
  Sc  Sc90  1  0.90326706  0.89055669  0.10610458  1
  Sc  Sc91  1  0.09882753  0.70369222  0.70605148  1
  Sc  Sc92  1  0.50121992  0.50396019  0.89895077  1
  Sc  Sc93  1  0.70216244  0.69584783  0.50052125  1
  Sc  Sc94  1  0.49982459  0.69960646  0.90255787  1
  Sc  Sc95  1  0.90558065  0.09422287  0.30731870  1
  Sc  Sc96  1  0.49676569  0.30022659  0.09556592  1
  Sc  Sc97  1  0.09922102  0.50044887  0.09692999  1
  Sc  Sc98  1  0.10198464  0.50794342  0.49294990  1
  Sc  Sc99  1  0.29068488  0.49758692  0.29453151  1
  Nb  Nb100  1  0.09938499  0.51459841  0.89919558  1
  Nb  Nb101  1  0.30074352  0.29643450  0.90458721  1
  Nb  Nb102  1  0.90065677  0.89532719  0.89727017  1
  Nb  Nb103  1  0.10040601  0.69804334  0.29965582  1
  Nb  Nb104  1  0.70455673  0.09569651  0.10351578  1
  Nb  Nb105  1  0.89338351  0.89957469  0.70158973  1
  Nb  Nb106  1  0.09694569  0.68924550  0.90053399  1
  Nb  Nb107  1  0.30466505  0.50099515  0.70039921  1
  Nb  Nb108  1  0.69384968  0.89927801  0.70449342  1
  Nb  Nb109  1  0.30518555  0.70105649  0.09618556  1
  Nb  Nb110  1  0.10287148  0.09761177  0.29795614  1
  Nb  Nb111  1  0.89654541  0.90289374  0.29805905  1
  Nb  Nb112  1  0.70490270  0.49152760  0.50001712  1
  Nb  Nb113  1  0.90126203  0.09977697  0.50224131  1
  Nb  Nb114  1  0.49455153  0.70308620  0.49293026  1
  Nb  Nb115  1  0.49953617  0.09837496  0.29856060  1
  Nb  Nb116  1  0.49747217  0.69894856  0.09800209  1
  Nb  Nb117  1  0.51336007  0.89857095  0.70445437  1
  Nb  Nb118  1  0.09372595  0.30391512  0.69999071  1
  Nb  Nb119  1  0.69876480  0.29742231  0.89786773  1
  Nb  Nb120  1  0.89738472  0.49795696  0.10235516  1
  Nb  Nb121  1  0.49139956  0.09925071  0.90415403  1
  Nb  Nb122  1  0.89831851  0.70462387  0.50235255  1
  Nb  Nb123  1  0.91381005  0.30064931  0.69848474  1
  Nb  Nb124  1  0.30305429  0.51092933  0.09548873  1
  Nb  Nb125  1  -0.00243042  0.40344440  0.39899457  1
  Nb  Nb126  1  0.39470877  0.39837784  0.60348204  1
  Nb  Nb127  1  0.80805094  0.80162027  0.39946217  1
  Nb  Nb128  1  0.40355780  0.19893522  0.40352762  1
  Nb  Nb129  1  -0.00480923  -0.01044874  -0.00421860  1
  Nb  Nb130  1  0.19698559  0.00681157  0.20266859  1
  Nb  Nb131  1  0.19188593  0.79608495  0.39310831  1
  Nb  Nb132  1  0.79845840  0.80868040  0.79989230  1
  Nb  Nb133  1  0.79885141  -0.00695568  0.80164440  1
  Nb  Nb134  1  0.81061877  0.20063576  0.60470671  1
  Nb  Nb135  1  0.40229380  0.60222367  0.39717940  1
  Nb  Nb136  1  0.40011731  0.19646414  0.80398621  1
  Nb  Nb137  1  0.19699636  0.20633930  0.60477638  1
  Nb  Nb138  1  0.20330466  0.20522743  0.00044670  1
  Nb  Nb139  1  -0.00642033  0.60207586  0.59576225  1
  Nb  Nb140  1  0.60433432  0.40228502  0.39722332  1
  Nb  Nb141  1  0.79872873  0.00196514  0.19839974  1
  Nb  Nb142  1  0.79828376  0.40298249  0.19245125  1
  Nb  Nb143  1  0.20010288  0.19718910  0.19582373  1
  Nb  Nb144  1  0.40917317  0.40181848  0.40156263  1
  Nb  Nb145  1  0.39256389  0.20360868  0.60450037  1
  Nb  Nb146  1  0.39920543  0.60524718  0.19554653  1
  Nb  Nb147  1  0.19975964  0.40114552  0.60915752  1
  Nb  Nb148  1  0.61221866  0.40074739  0.19850229  1
  Nb  Nb149  1  0.40354029  0.80414958  0.79571632  1
  Pd  Pd150  1  0.40392193  0.39696844  0.80327932  1
  Pd  Pd151  1  -0.00032076  0.40992583  -0.00953663  1
  Pd  Pd152  1  0.00124914  0.19655365  0.20668616  1
  Pd  Pd153  1  0.40142231  0.80809729  0.60448169  1
  Pd  Pd154  1  0.60482625  0.60453594  0.80326508  1
  Pd  Pd155  1  0.41148850  0.41234542  0.20705491  1
  Pd  Pd156  1  -0.00343363  0.80800373  0.39892515  1
  Pd  Pd157  1  0.80763763  -0.00850313  0.00346447  1
  Pd  Pd158  1  -0.00352922  0.20309132  0.39363451  1
  Pd  Pd159  1  0.19795861  0.19248138  0.80498805  1
  Pd  Pd160  1  0.80348942  0.40123418  0.79902450  1
  Pd  Pd161  1  0.79918987  0.79838773  -0.00249690  1
  Pd  Pd162  1  0.00853117  0.19893057  0.80565833  1
  Pd  Pd163  1  0.79408352  0.40263836  0.00136315  1
  Pd  Pd164  1  0.79816931  0.60204551  0.19608676  1
  Pd  Pd165  1  0.20399341  0.19870900  0.40010303  1
  Pd  Pd166  1  0.00322352  0.79595867  0.00906421  1
  Pd  Pd167  1  0.19216880  -0.01710760  0.38930717  1
  Pd  Pd168  1  0.59399491  0.19645544  0.00399870  1
  Pd  Pd169  1  -0.00174694  -0.00402642  0.80618384  1
  Pd  Pd170  1  0.20559093  0.60412327  0.79796217  1
  Pd  Pd171  1  0.59882596  -0.00596048  0.40322722  1
  Pd  Pd172  1  -0.00150305  0.79734471  0.60504742  1
  Pd  Pd173  1  0.40740360  0.59687582  0.59554872  1
  Pd  Pd174  1  0.60450623  0.60642825  0.59541214  1
  Pd  Pd175  1  0.20734588  0.79104738  0.80325754  1
  Pd  Pd176  1  0.19405726  0.80269642  0.59443531  1
  Pd  Pd177  1  0.00416656  0.41503828  0.59222539  1
  Pd  Pd178  1  0.59546113  0.19018085  0.80653455  1
  Pd  Pd179  1  0.61053883  0.40300634  0.00112335  1
  Pd  Pd180  1  0.20134659  0.40181837  0.00222667  1
  Pd  Pd181  1  0.19724680  0.39921227  0.18787475  1
  Pd  Pd182  1  0.39242110  0.19576673  0.19812525  1
  Pd  Pd183  1  0.19551395  0.40501973  0.40425504  1
  Pd  Pd184  1  0.80424064  0.61381757  0.39733354  1
  Pd  Pd185  1  0.18610678  0.59590602  0.60932173  1
  Pd  Pd186  1  0.79699009  0.00676584  0.60633530  1
  Pd  Pd187  1  0.59123975  -0.00262149  0.00772665  1
  Pd  Pd188  1  0.79694898  0.80512145  0.20541764  1
  Pd  Pd189  1  0.79861805  0.18958500  0.79652798  1
  Pd  Pd190  1  0.59909557  0.59935480  0.40565097  1
  Pd  Pd191  1  0.40811756  0.00002244  0.40290850  1
  Pd  Pd192  1  0.80445516  0.19623542  0.20442300  1
  Pd  Pd193  1  0.60989214  0.79699724  0.59349235  1
  Pd  Pd194  1  0.40577061  -0.00844502  0.00804335  1
  Pd  Pd195  1  -0.00434743  0.40052858  0.20408576  1
  Pd  Pd196  1  0.40562181  -0.00856343  0.59739046  1
  Pd  Pd197  1  0.19305511  -0.00532248  0.80248765  1
  Pd  Pd198  1  0.59552726  0.20639112  0.39935908  1
  Pd  Pd199  1  -0.00003034  0.60093531  0.00942158  1
  Rh  Rh200  1  0.00028374  -0.00128572  0.60196958  1
  Rh  Rh201  1  0.39570162  0.19909938  -0.00483135  1
  Rh  Rh202  1  0.79631315  0.80367723  0.59951183  1
  Rh  Rh203  1  0.19038109  0.00482303  0.01101986  1
  Rh  Rh204  1  0.61270759  0.80182845  0.40674794  1
  Rh  Rh205  1  0.00141974  0.79453237  0.19870030  1
  Rh  Rh206  1  0.60955993  0.20009913  0.60019161  1
  Rh  Rh207  1  0.40311870  0.79627170  0.19538817  1
  Rh  Rh208  1  0.19654236  0.60221459  0.00362383  1
  Rh  Rh209  1  0.60484338  0.40492947  0.80594884  1
  Rh  Rh210  1  0.80035046  0.60306117  0.59851094  1
  Rh  Rh211  1  -0.00206618  -0.00172611  0.40141169  1
  Rh  Rh212  1  0.38949312  0.79664637  0.39983387  1
  Rh  Rh213  1  0.59292450  0.79670966  0.00053361  1
  Rh  Rh214  1  0.40168846  0.80059033  -0.00716063  1
  Rh  Rh215  1  -0.01118519  0.59418195  0.40777465  1
  Rh  Rh216  1  0.39852632  0.40506770  -0.00741424  1
  Rh  Rh217  1  -0.00475517  0.00254963  0.19197474  1
  Rh  Rh218  1  0.19499810  0.81167664  0.20736514  1
  Rh  Rh219  1  0.60237310  0.39720701  0.60064382  1
  Rh  Rh220  1  0.59740465  0.80287306  0.19620436  1
  Rh  Rh221  1  0.39994451  -0.00506659  0.80028594  1
  Rh  Rh222  1  0.60605803  0.00743155  0.80690576  1
  Rh  Rh223  1  0.00381247  0.60280405  0.19008399  1
  Rh  Rh224  1  0.79880753  0.20161985  -0.00765373  1
  Rh  Rh225  1  0.80391702  0.60374679  -0.00061736  1
  Rh  Rh226  1  0.20979322  0.60793654  0.39405959  1
  Rh  Rh227  1  0.60018914  0.79138764  0.80230595  1
  Rh  Rh228  1  0.79935198  0.61033947  0.80054726  1
  Rh  Rh229  1  0.00871802  0.19594287  -0.01228592  1
  Rh  Rh230  1  0.19930623  0.40991572  0.80256018  1
  Rh  Rh231  1  0.39793855  0.60855704  0.80288822  1
  Rh  Rh232  1  0.40258974  0.59966077  0.00034559  1
  Rh  Rh233  1  0.80439636  -0.00406627  0.39382777  1
  Rh  Rh234  1  0.39573169  -0.00129812  0.19743878  1
  Rh  Rh235  1  -0.00567599  0.60577949  0.79276417  1
  Rh  Rh236  1  0.79803441  0.40298842  0.38362163  1
  Rh  Rh237  1  0.19127036  0.00200298  0.60346597  1
  Rh  Rh238  1  0.80578923  0.18873376  0.40716929  1
  Rh  Rh239  1  0.00108284  0.19256171  0.60215463  1
  Rh  Rh240  1  0.59774728  0.60142570  -0.00443715  1
  Rh  Rh241  1  0.19795663  0.78815760  -0.00214345  1
  Rh  Rh242  1  0.20382288  0.59730893  0.19122314  1
  Rh  Rh243  1  -0.00813972  0.40512928  0.80925275  1
  Rh  Rh244  1  -0.00655774  0.79388382  0.79477853  1
  Rh  Rh245  1  0.60172518  -0.00502457  0.59450163  1
  Rh  Rh246  1  0.80083098  0.38928707  0.61353181  1
  Rh  Rh247  1  0.59457848  0.60015016  0.18954268  1
  Rh  Rh248  1  0.60423898  -0.00340460  0.19797611  1
  Rh  Rh249  1  0.60231913  0.20274558  0.19671159  1
