# generated using pymatgen
data_ZrScNbPdRh
_symmetry_space_group_name_H-M   'P 1'
_cell_length_a   16.55654954
_cell_length_b   16.55744016
_cell_length_c   16.55848612
_cell_angle_alpha   89.99777583
_cell_angle_beta   89.97754666
_cell_angle_gamma   89.97915764
_symmetry_Int_Tables_number   1
_chemical_formula_structural   ZrScNbPdRh
_chemical_formula_sum   'Zr50 Sc50 Nb50 Pd50 Rh50'
_cell_volume   4539.24467741
_cell_formula_units_Z   50
loop_
 _symmetry_equiv_pos_site_id
 _symmetry_equiv_pos_as_xyz
  1  'x, y, z'
loop_
 _atom_site_type_symbol
 _atom_site_label
 _atom_site_symmetry_multiplicity
 _atom_site_fract_x
 _atom_site_fract_y
 _atom_site_fract_z
 _atom_site_occupancy
  Zr  Zr0  1  0.08238643  0.10805888  0.10881033  1
  Zr  Zr1  1  0.70424278  0.90047288  0.89805495  1
  Zr  Zr2  1  0.30222496  0.10003273  0.90244648  1
  Zr  Zr3  1  0.50451905  0.10927996  0.29770648  1
  Zr  Zr4  1  0.70066002  0.70575102  0.90175063  1
  Zr  Zr5  1  0.10510602  0.29756017  0.50335798  1
  Zr  Zr6  1  0.69948455  0.10089212  0.70477543  1
  Zr  Zr7  1  0.89875215  0.50145388  0.29606545  1
  Zr  Zr8  1  0.10143850  0.49498994  0.50798217  1
  Zr  Zr9  1  0.29416201  0.50185536  0.29330563  1
  Zr  Zr10  1  0.28795816  0.69906016  0.09594804  1
  Zr  Zr11  1  0.30285916  0.49315795  0.90477201  1
  Zr  Zr12  1  0.09610619  0.10274993  0.50026127  1
  Zr  Zr13  1  0.89342637  0.10328619  0.50087010  1
  Zr  Zr14  1  0.29415646  0.89507119  0.29908206  1
  Zr  Zr15  1  0.30509307  0.90413571  0.70146515  1
  Zr  Zr16  1  0.30074358  0.50109662  0.09809068  1
  Zr  Zr17  1  0.29635588  0.29856569  0.90002710  1
  Zr  Zr18  1  0.29753332  0.69480888  0.49868411  1
  Zr  Zr19  1  0.90178928  0.70005444  0.90197324  1
  Zr  Zr20  1  0.10108251  0.50227637  0.10381025  1
  Zr  Zr21  1  0.71653984  0.09328316  0.09449991  1
  Zr  Zr22  1  0.09278320  0.70001341  0.50772066  1
  Zr  Zr23  1  0.89378689  0.30538196  0.29435813  1
  Zr  Zr24  1  0.30068190  0.90166096  0.09799996  1
  Zr  Zr25  1  0.49154549  0.49885632  0.29687467  1
  Zr  Zr26  1  0.29902854  0.10804977  0.30209229  1
  Zr  Zr27  1  0.49882474  0.90683815  0.50395359  1
  Zr  Zr28  1  0.30248998  0.30515074  0.09294322  1
  Zr  Zr29  1  0.90294993  0.29806995  0.49915782  1
  Zr  Zr30  1  0.09796189  0.70005176  0.09656787  1
  Zr  Zr31  1  0.91228667  0.69884787  0.69685768  1
  Zr  Zr32  1  0.09839416  0.09963641  0.30707773  1
  Zr  Zr33  1  0.49658986  0.90172089  0.10024404  1
  Zr  Zr34  1  0.50485811  0.68825983  0.89841639  1
  Zr  Zr35  1  0.50589186  0.09198813  0.49488688  1
  Zr  Zr36  1  0.50425299  0.10606037  0.90332958  1
  Zr  Zr37  1  0.09883095  0.30664402  0.30364367  1
  Zr  Zr38  1  0.69424332  0.30431999  0.29247457  1
  Zr  Zr39  1  0.29907634  0.31272253  0.29936569  1
  Zr  Zr40  1  0.09850214  0.89952495  0.89455471  1
  Zr  Zr41  1  0.50416006  0.29838790  0.70244596  1
  Zr  Zr42  1  0.49380169  0.30667674  0.50953772  1
  Zr  Zr43  1  0.90246108  0.69945342  0.09653839  1
  Zr  Zr44  1  0.30346034  0.68729991  0.89910659  1
  Zr  Zr45  1  0.49574390  0.10787217  0.09767419  1
  Zr  Zr46  1  0.70229864  0.49774735  0.68687063  1
  Zr  Zr47  1  0.09365944  0.89943988  0.49426355  1
  Zr  Zr48  1  0.30885704  0.10409889  0.09739081  1
  Zr  Zr49  1  0.70483659  0.89525642  0.09716040  1
  Sc  Sc50  1  0.30171521  0.49515776  0.70342427  1
  Sc  Sc51  1  0.70042371  0.69855522  0.70114956  1
  Sc  Sc52  1  0.89578664  0.70217730  0.30430111  1
  Sc  Sc53  1  0.70357334  0.69828154  0.09858366  1
  Sc  Sc54  1  0.09522537  0.88947098  0.10458172  1
  Sc  Sc55  1  0.48772231  0.70043772  0.49366928  1
  Sc  Sc56  1  0.70310143  0.10146609  0.89350081  1
  Sc  Sc57  1  0.70030478  0.29949011  0.70104348  1
  Sc  Sc58  1  0.30048130  0.70068412  0.29959045  1
  Sc  Sc59  1  0.90058127  0.90041273  0.30341970  1
  Sc  Sc60  1  0.88729560  0.49742481  0.50108682  1
  Sc  Sc61  1  0.70135798  0.10124668  0.31039401  1
  Sc  Sc62  1  0.09846887  0.71227317  0.29285608  1
  Sc  Sc63  1  0.89981512  0.49600940  0.09708493  1
  Sc  Sc64  1  0.10879013  0.10602469  0.89048943  1
  Sc  Sc65  1  0.90033498  0.10012852  0.70247331  1
  Sc  Sc66  1  0.89563831  0.89858298  0.89384537  1
  Sc  Sc67  1  0.90535965  0.90003418  0.70248382  1
  Sc  Sc68  1  0.30699251  0.89615221  0.49817359  1
  Sc  Sc69  1  0.89995438  0.09706803  0.28470501  1
  Sc  Sc70  1  0.71122788  0.49912678  0.29345513  1
  Sc  Sc71  1  0.89827149  0.89444596  0.49733846  1
  Sc  Sc72  1  0.69423917  0.29532033  0.89931295  1
  Sc  Sc73  1  0.29524298  0.90222227  0.89936398  1
  Sc  Sc74  1  0.49421274  0.90033273  0.30378852  1
  Sc  Sc75  1  0.50560919  0.68909200  0.70784517  1
  Sc  Sc76  1  0.71078863  0.29850468  0.50354080  1
  Sc  Sc77  1  0.49285473  0.69753217  0.29950108  1
  Sc  Sc78  1  0.30016198  0.29701393  0.68966556  1
  Sc  Sc79  1  0.70145894  0.90824259  0.49233851  1
  Sc  Sc80  1  0.49957959  0.49694475  0.09837569  1
  Sc  Sc81  1  0.69927672  0.49385165  0.91278845  1
  Sc  Sc82  1  0.70881861  0.89858697  0.30072920  1
  Sc  Sc83  1  0.89649305  0.30070094  0.69113117  1
  Sc  Sc84  1  0.30313416  0.48823744  0.49825328  1
  Sc  Sc85  1  0.91269070  0.49642265  0.90905455  1
  Sc  Sc86  1  0.50706704  0.49251822  0.70031020  1
  Sc  Sc87  1  0.70798230  0.69704276  0.29506711  1
  Sc  Sc88  1  0.29682524  0.10505116  0.50523245  1
  Sc  Sc89  1  0.50836552  0.69757330  0.10235104  1
  Sc  Sc90  1  0.50526392  0.30422699  0.90431588  1
  Sc  Sc91  1  0.90043209  0.70763421  0.49829662  1
  Sc  Sc92  1  0.71422953  0.69533415  0.50195804  1
  Sc  Sc93  1  0.69661081  0.90363460  0.71102396  1
  Sc  Sc94  1  0.70527147  0.49616605  0.10537228  1
  Sc  Sc95  1  0.10425836  0.30839957  0.90560880  1
  Sc  Sc96  1  0.50840169  0.89842847  0.89273703  1
  Sc  Sc97  1  0.49650251  0.08216649  0.69536902  1
  Sc  Sc98  1  0.69920355  0.30675531  0.09638075  1
  Sc  Sc99  1  0.09596629  0.70627680  0.90447150  1
  Nb  Nb100  1  0.29241287  0.09758107  0.70935462  1
  Nb  Nb101  1  0.09778185  0.30055160  0.10076783  1
  Nb  Nb102  1  0.48815430  0.50421382  0.89829047  1
  Nb  Nb103  1  0.50322973  0.50073054  0.50394970  1
  Nb  Nb104  1  0.10326136  0.09786180  0.70346373  1
  Nb  Nb105  1  0.10002055  0.90008951  0.70473593  1
  Nb  Nb106  1  0.08677089  0.50207706  0.70705991  1
  Nb  Nb107  1  0.09906369  0.69696783  0.69862843  1
  Nb  Nb108  1  0.69318858  0.49965961  0.50017421  1
  Nb  Nb109  1  0.89036128  0.92161187  0.10269949  1
  Nb  Nb110  1  0.90478658  0.49916460  0.71117267  1
  Nb  Nb111  1  0.90604755  0.30275584  0.90675993  1
  Nb  Nb112  1  0.90116192  0.10258061  0.09321374  1
  Nb  Nb113  1  0.09671504  0.49572780  0.89101090  1
  Nb  Nb114  1  0.50057605  0.89622440  0.69491784  1
  Nb  Nb115  1  0.91221068  0.28763287  0.08843418  1
  Nb  Nb116  1  0.09634137  0.30131987  0.70403220  1
  Nb  Nb117  1  0.69575911  0.09614767  0.50077464  1
  Nb  Nb118  1  0.29919266  0.69580409  0.70035949  1
  Nb  Nb119  1  0.09964522  0.90549253  0.30018008  1
  Nb  Nb120  1  0.50299252  0.30065686  0.29226727  1
  Nb  Nb121  1  0.50210181  0.29543401  0.10930055  1
  Nb  Nb122  1  0.89946752  0.11011582  0.90662096  1
  Nb  Nb123  1  0.10212914  0.49846732  0.29994068  1
  Nb  Nb124  1  0.30010981  0.29884531  0.49971793  1
  Nb  Nb125  1  0.19637032  0.80017765  0.60991976  1
  Nb  Nb126  1  0.60054296  0.79415854  0.40551017  1
  Nb  Nb127  1  0.40011067  0.79466896  0.79777580  1
  Nb  Nb128  1  0.80763607  0.40413189  0.80294835  1
  Nb  Nb129  1  0.00612049  0.59528822  0.39823942  1
  Nb  Nb130  1  0.60079730  0.59505160  0.40334203  1
  Nb  Nb131  1  0.00231453  0.20613077  0.79977732  1
  Nb  Nb132  1  0.19050778  0.59681716  0.79412057  1
  Nb  Nb133  1  0.60171361  0.00077374  0.19522610  1
  Nb  Nb134  1  0.19092357  0.00368010  0.00826209  1
  Nb  Nb135  1  0.19536411  0.00441345  0.20005990  1
  Nb  Nb136  1  0.19374354  -0.00268642  0.60829089  1
  Nb  Nb137  1  0.60210126  0.00106463  0.00494375  1
  Nb  Nb138  1  0.39630310  0.19491328  0.79770063  1
  Nb  Nb139  1  -0.00347871  0.00646778  0.00005588  1
  Nb  Nb140  1  0.79689088  0.00461450  0.59949504  1
  Nb  Nb141  1  0.40189021  0.21072320  0.40151807  1
  Nb  Nb142  1  0.40078083  0.79429388  -0.00662762  1
  Nb  Nb143  1  0.59617321  0.80320040  0.59696371  1
  Nb  Nb144  1  0.80599887  0.59215113  0.80075204  1
  Nb  Nb145  1  0.59771522  0.40428732  0.40180532  1
  Nb  Nb146  1  0.60076082  0.19229475  0.59635276  1
  Nb  Nb147  1  0.40038446  0.59669474  0.60073092  1
  Nb  Nb148  1  0.19145609  0.59515366  0.39891920  1
  Nb  Nb149  1  0.19744137  0.20305667  0.19822284  1
  Pd  Pd150  1  0.79239850  0.20947911  -0.00256875  1
  Pd  Pd151  1  -0.00056341  0.60450651  0.20653716  1
  Pd  Pd152  1  -0.00173031  0.40635339  0.40438271  1
  Pd  Pd153  1  0.40599521  -0.00244330  0.80640026  1
  Pd  Pd154  1  -0.00625989  0.01006818  0.80909626  1
  Pd  Pd155  1  0.39760300  0.60668987  0.19259362  1
  Pd  Pd156  1  -0.00315276  -0.00289700  0.60007876  1
  Pd  Pd157  1  -0.01095461  0.00167079  0.39948251  1
  Pd  Pd158  1  0.59310145  0.61391547  0.59071073  1
  Pd  Pd159  1  0.59445184  0.40282126  0.00311821  1
  Pd  Pd160  1  0.60452069  0.59566790  0.20761860  1
  Pd  Pd161  1  0.79047067  0.81308819  0.60381916  1
  Pd  Pd162  1  0.39379007  0.00729689  0.39762308  1
  Pd  Pd163  1  0.61364520  0.58647263  0.80451556  1
  Pd  Pd164  1  0.80024651  0.59603011  -0.00343689  1
  Pd  Pd165  1  0.20540313  0.59617408  0.60230960  1
  Pd  Pd166  1  0.40003021  0.39124014  0.79822015  1
  Pd  Pd167  1  0.60128682  0.59173807  0.00357382  1
  Pd  Pd168  1  0.19984858  0.40066943  0.60932286  1
  Pd  Pd169  1  0.80978379  0.21120331  0.80151028  1
  Pd  Pd170  1  0.80159869  0.19931098  0.39455767  1
  Pd  Pd171  1  -0.01125067  0.80697351  0.20040055  1
  Pd  Pd172  1  0.79210751  0.40143700  0.40118395  1
  Pd  Pd173  1  0.20014673  0.40119264  0.79270432  1
  Pd  Pd174  1  0.80328920  0.79181552  0.79098032  1
  Pd  Pd175  1  -0.00477611  0.39769248  0.19280434  1
  Pd  Pd176  1  0.18936693  0.59234593  -0.01196382  1
  Pd  Pd177  1  0.19793270  0.19565693  0.60534876  1
  Pd  Pd178  1  0.19541719  0.79368966  0.40514712  1
  Pd  Pd179  1  0.59606282  0.21457820  0.41026163  1
  Pd  Pd180  1  -0.01149899  0.59123064  0.59086804  1
  Pd  Pd181  1  0.20378932  0.79201716  0.79892731  1
  Pd  Pd182  1  0.20633109  -0.00094976  0.40657126  1
  Pd  Pd183  1  0.40240103  0.78941082  0.60722302  1
  Pd  Pd184  1  -0.01121552  0.81483322  0.00318762  1
  Pd  Pd185  1  0.19186809  0.19473049  0.00691731  1
  Pd  Pd186  1  0.00177296  0.19849794  0.60831960  1
  Pd  Pd187  1  0.79645796  0.20313002  0.19674136  1
  Pd  Pd188  1  0.59532483  0.80302025  -0.00069030  1
  Pd  Pd189  1  0.80861921  0.80038265  0.19572184  1
  Pd  Pd190  1  0.40461482  0.18880688  0.60275689  1
  Pd  Pd191  1  0.60918689  0.40692600  0.80445703  1
  Pd  Pd192  1  0.61477266  0.19115754  0.18987096  1
  Pd  Pd193  1  0.80903142  0.59993422  0.60433914  1
  Pd  Pd194  1  -0.01028754  0.19850197  0.39250648  1
  Pd  Pd195  1  0.40482294  0.40010010  0.39967304  1
  Pd  Pd196  1  0.39818963  0.79159510  0.19357112  1
  Pd  Pd197  1  0.60039224  0.80432039  0.21206910  1
  Pd  Pd198  1  -0.00629548  0.40224102  0.60077874  1
  Pd  Pd199  1  0.40027202  0.00178076  0.20852383  1
  Rh  Rh200  1  0.40718089  0.21358932  -0.00846056  1
  Rh  Rh201  1  0.80336558  -0.00035316  -0.01482563  1
  Rh  Rh202  1  0.00230848  0.60719883  0.80943341  1
  Rh  Rh203  1  0.40713979  0.60392346  0.00829354  1
  Rh  Rh204  1  0.79347850  0.00308117  0.20932076  1
  Rh  Rh205  1  0.80775990  0.00401244  0.79759703  1
  Rh  Rh206  1  0.60434688  0.19564729  0.00652791  1
  Rh  Rh207  1  0.60424981  -0.01047573  0.38594642  1
  Rh  Rh208  1  0.00685029  0.59525070  -0.00196338  1
  Rh  Rh209  1  -0.00027129  0.21188308  0.20911494  1
  Rh  Rh210  1  0.40395688  -0.01303505  -0.00871731  1
  Rh  Rh211  1  0.79234940  0.19257343  0.60093118  1
  Rh  Rh212  1  0.39371453  0.59209256  0.40548977  1
  Rh  Rh213  1  0.80657031  0.80171646  0.00419801  1
  Rh  Rh214  1  0.38648494  0.00557268  0.59797200  1
  Rh  Rh215  1  0.00993108  0.19752962  -0.01372098  1
  Rh  Rh216  1  0.19534604  0.60730908  0.20826226  1
  Rh  Rh217  1  0.61139916  -0.00418339  0.60565005  1
  Rh  Rh218  1  -0.00577026  0.38787390  0.79863679  1
  Rh  Rh219  1  0.00398084  -0.00905993  0.19601387  1
  Rh  Rh220  1  0.19787125  0.40245493  0.40599752  1
  Rh  Rh221  1  0.80324973  0.40149877  0.60311583  1
  Rh  Rh222  1  0.00739298  0.40260219  0.00635178  1
  Rh  Rh223  1  0.79343151  0.79781123  0.40165725  1
  Rh  Rh224  1  0.59714849  0.00040445  0.80542911  1
  Rh  Rh225  1  0.59705687  0.40644039  0.20295227  1
  Rh  Rh226  1  0.80115853  0.59819999  0.40026668  1
  Rh  Rh227  1  0.58896534  0.19252715  0.79045298  1
  Rh  Rh228  1  0.19637934  0.39506936  0.19160440  1
  Rh  Rh229  1  0.40362289  0.39773688  0.19043308  1
  Rh  Rh230  1  0.00090773  0.79556495  0.79822445  1
  Rh  Rh231  1  0.19348635  0.40738733  0.00400190  1
  Rh  Rh232  1  0.39582538  0.59639526  0.79124846  1
  Rh  Rh233  1  0.19972127  0.80355252  0.19902227  1
  Rh  Rh234  1  0.59422247  0.79874133  0.79043190  1
  Rh  Rh235  1  0.80550872  0.39293421  -0.00284345  1
  Rh  Rh236  1  0.00544112  0.80836493  0.60467948  1
  Rh  Rh237  1  0.00061458  0.79564970  0.39390473  1
  Rh  Rh238  1  0.80472021  0.00408779  0.40273300  1
  Rh  Rh239  1  0.39821266  0.40748011  0.60577093  1
  Rh  Rh240  1  0.20483454  0.80727445  -0.00245739  1
  Rh  Rh241  1  0.19813259  -0.00157687  0.80267410  1
  Rh  Rh242  1  0.40951514  0.39644597  0.00153456  1
  Rh  Rh243  1  0.60668453  0.38829199  0.59499233  1
  Rh  Rh244  1  0.80930253  0.39168024  0.18552246  1
  Rh  Rh245  1  0.20027977  0.21054975  0.79257495  1
  Rh  Rh246  1  0.80589310  0.60302673  0.19303788  1
  Rh  Rh247  1  0.39126815  0.21261046  0.20786106  1
  Rh  Rh248  1  0.20700885  0.21091318  0.39668249  1
  Rh  Rh249  1  0.40312596  0.80160460  0.39656428  1
