# generated using pymatgen
data_ZrScNbPdRh
_symmetry_space_group_name_H-M   'P 1'
_cell_length_a   16.55356192
_cell_length_b   16.55439346
_cell_length_c   16.55521077
_cell_angle_alpha   90.02390054
_cell_angle_beta   89.96996936
_cell_angle_gamma   89.99907956
_symmetry_Int_Tables_number   1
_chemical_formula_structural   ZrScNbPdRh
_chemical_formula_sum   'Zr50 Sc50 Nb50 Pd50 Rh50'
_cell_volume   4536.69254477
_cell_formula_units_Z   50
loop_
 _symmetry_equiv_pos_site_id
 _symmetry_equiv_pos_as_xyz
  1  'x, y, z'
loop_
 _atom_site_type_symbol
 _atom_site_label
 _atom_site_symmetry_multiplicity
 _atom_site_fract_x
 _atom_site_fract_y
 _atom_site_fract_z
 _atom_site_occupancy
  Zr  Zr0  1  0.70151095  0.90691534  0.89747736  1
  Zr  Zr1  1  0.31286978  0.90544899  0.70027932  1
  Zr  Zr2  1  0.10363620  0.10272561  0.69807398  1
  Zr  Zr3  1  0.89504422  0.69889535  0.89714997  1
  Zr  Zr4  1  0.90039065  0.29951233  0.50373549  1
  Zr  Zr5  1  0.69912432  0.28211504  0.90031001  1
  Zr  Zr6  1  0.30899692  0.69174623  0.10385504  1
  Zr  Zr7  1  0.89733073  0.69940091  0.50538546  1
  Zr  Zr8  1  0.30395869  0.50446555  0.50442874  1
  Zr  Zr9  1  0.50094142  0.30244635  0.89905744  1
  Zr  Zr10  1  0.69885684  0.49992457  0.30476832  1
  Zr  Zr11  1  0.69727493  0.10272783  0.50596563  1
  Zr  Zr12  1  0.09903496  0.69693932  0.89228775  1
  Zr  Zr13  1  0.69035053  0.50253978  0.69803805  1
  Zr  Zr14  1  0.49356988  0.11264094  0.30655408  1
  Zr  Zr15  1  0.89829264  0.69765018  0.30660449  1
  Zr  Zr16  1  0.29897177  0.29885816  0.89839144  1
  Zr  Zr17  1  0.49051700  0.50700180  0.09794912  1
  Zr  Zr18  1  0.69265481  0.69779051  0.50266099  1
  Zr  Zr19  1  0.09107201  0.90737332  0.09974175  1
  Zr  Zr20  1  0.49989378  0.30623963  0.10088599  1
  Zr  Zr21  1  0.69981407  0.50398705  0.50424707  1
  Zr  Zr22  1  0.90266972  0.30194601  0.69345932  1
  Zr  Zr23  1  0.10004423  0.10457685  0.29114075  1
  Zr  Zr24  1  0.89826357  0.49797121  0.49962929  1
  Zr  Zr25  1  0.09976509  0.49731972  0.49885089  1
  Zr  Zr26  1  0.50444962  0.30263437  0.29942965  1
  Zr  Zr27  1  0.69362572  0.90039496  0.70360673  1
  Zr  Zr28  1  0.70505847  0.70320381  0.70486317  1
  Zr  Zr29  1  0.49522668  0.10014285  0.50119139  1
  Zr  Zr30  1  0.29813117  0.89029697  0.10954255  1
  Zr  Zr31  1  0.88755092  0.09627333  0.69534547  1
  Zr  Zr32  1  0.10049259  0.50533506  0.90104854  1
  Zr  Zr33  1  0.10618752  0.90020532  0.29360140  1
  Zr  Zr34  1  0.89738156  0.49525939  0.69748803  1
  Zr  Zr35  1  0.30316413  0.89383467  0.50243708  1
  Zr  Zr36  1  0.50342639  0.50115798  0.89746682  1
  Zr  Zr37  1  0.50156839  0.69796161  0.90221803  1
  Zr  Zr38  1  0.49445512  0.50097166  0.30395236  1
  Zr  Zr39  1  0.70194938  0.29183312  0.30066806  1
  Zr  Zr40  1  0.90014724  0.50015397  0.89903126  1
  Zr  Zr41  1  0.89652784  0.29667277  0.90375152  1
  Zr  Zr42  1  0.89776736  0.90199819  0.91015590  1
  Zr  Zr43  1  0.09936496  0.28870749  0.10356453  1
  Zr  Zr44  1  0.10329503  0.49170351  0.10846207  1
  Zr  Zr45  1  0.89845240  0.90979968  0.29584373  1
  Zr  Zr46  1  0.50248892  0.89417366  0.09771081  1
  Zr  Zr47  1  0.30274320  0.50571383  0.29217353  1
  Zr  Zr48  1  0.90550555  0.29892245  0.10073026  1
  Zr  Zr49  1  0.10786856  0.69935140  0.30127539  1
  Sc  Sc50  1  0.89635296  0.09682731  0.49827600  1
  Sc  Sc51  1  0.50191295  0.08261749  0.69777148  1
  Sc  Sc52  1  0.69381632  0.29822395  0.50469069  1
  Sc  Sc53  1  0.30523230  0.50539679  0.90222764  1
  Sc  Sc54  1  0.09746089  0.10724448  0.49547065  1
  Sc  Sc55  1  0.30644464  0.29500719  0.30152970  1
  Sc  Sc56  1  0.10915788  0.70406159  0.08998569  1
  Sc  Sc57  1  0.50226761  0.31749015  0.70286964  1
  Sc  Sc58  1  0.69598544  0.29693926  0.69587493  1
  Sc  Sc59  1  0.69755450  0.89889084  0.50405980  1
  Sc  Sc60  1  0.89471746  0.49533213  0.08951822  1
  Sc  Sc61  1  0.09945342  0.29463000  0.49971170  1
  Sc  Sc62  1  0.09620499  0.29425711  0.90693980  1
  Sc  Sc63  1  0.69734840  0.70402131  0.09320193  1
  Sc  Sc64  1  0.70706119  0.30443494  0.10005589  1
  Sc  Sc65  1  0.50128175  0.50655145  0.50242707  1
  Sc  Sc66  1  0.89833450  0.29438035  0.29298346  1
  Sc  Sc67  1  0.50170607  0.10605072  0.10206314  1
  Sc  Sc68  1  0.29021176  0.29935150  0.50587436  1
  Sc  Sc69  1  0.69160267  0.70629070  0.30971268  1
  Sc  Sc70  1  0.70250406  0.69904646  0.89681185  1
  Sc  Sc71  1  0.90778392  0.08849803  0.09570011  1
  Sc  Sc72  1  0.09777673  0.10227369  0.90831466  1
  Sc  Sc73  1  0.11241985  0.70679729  0.50919759  1
  Sc  Sc74  1  0.89901697  0.89237609  0.69262513  1
  Sc  Sc75  1  0.70059005  0.49968495  0.09252223  1
  Sc  Sc76  1  0.51112759  0.70547320  0.69877151  1
  Sc  Sc77  1  0.10188513  0.50026675  0.70205383  1
  Sc  Sc78  1  0.09389394  0.89198769  0.69481455  1
  Sc  Sc79  1  0.89101418  0.10134216  0.30145587  1
  Sc  Sc80  1  0.49969682  0.70349239  0.09640410  1
  Sc  Sc81  1  0.30150698  0.10598207  0.49306434  1
  Sc  Sc82  1  0.70272768  0.51176620  0.90146956  1
  Sc  Sc83  1  0.09691662  0.89402763  0.90125352  1
  Sc  Sc84  1  0.10001072  0.49862588  0.29687435  1
  Sc  Sc85  1  0.70040609  0.89657850  0.29755258  1
  Sc  Sc86  1  0.49529512  0.89559643  0.51109331  1
  Sc  Sc87  1  0.69675938  0.10103827  0.08738818  1
  Sc  Sc88  1  0.09648818  0.30090014  0.29190726  1
  Sc  Sc89  1  0.50272613  0.29740948  0.49655991  1
  Sc  Sc90  1  0.10237610  0.29998801  0.68581373  1
  Sc  Sc91  1  0.52157424  0.10287488  0.90442428  1
  Sc  Sc92  1  0.28693207  0.09877260  0.89157165  1
  Sc  Sc93  1  0.30376253  0.70043217  0.49988649  1
  Sc  Sc94  1  0.70650384  0.89693444  0.09882682  1
  Sc  Sc95  1  0.30312535  0.89912111  0.89121955  1
  Sc  Sc96  1  0.10143911  0.70387071  0.70490944  1
  Sc  Sc97  1  0.50160616  0.70175604  0.49369807  1
  Sc  Sc98  1  0.90787205  0.50023465  0.30622990  1
  Sc  Sc99  1  0.29045436  0.69891680  0.89775325  1
  Nb  Nb100  1  0.50054372  0.89742493  0.71233717  1
  Nb  Nb101  1  0.29864134  0.30183504  0.69954809  1
  Nb  Nb102  1  0.29877377  0.10203092  0.10201569  1
  Nb  Nb103  1  0.90914926  0.90184098  0.50015907  1
  Nb  Nb104  1  0.30570036  0.49213791  0.69667160  1
  Nb  Nb105  1  0.50103532  0.89299722  0.30098168  1
  Nb  Nb106  1  0.50200751  0.70678737  0.30175301  1
  Nb  Nb107  1  0.30433716  0.89319160  0.29988054  1
  Nb  Nb108  1  0.30411530  0.49375206  0.10598992  1
  Nb  Nb109  1  0.49901601  0.89877313  0.89243454  1
  Nb  Nb110  1  0.90321768  0.70446825  0.70246173  1
  Nb  Nb111  1  0.29263739  0.69444888  0.69911449  1
  Nb  Nb112  1  0.89300401  0.70544331  0.10005233  1
  Nb  Nb113  1  0.30804266  0.70958544  0.29906218  1
  Nb  Nb114  1  0.89216701  0.09765352  0.89402863  1
  Nb  Nb115  1  0.49704319  0.50160729  0.70194782  1
  Nb  Nb116  1  0.30182461  0.09643144  0.30404858  1
  Nb  Nb117  1  0.10299962  0.10106189  0.09934174  1
  Nb  Nb118  1  0.29826670  0.30145093  0.09791841  1
  Nb  Nb119  1  0.10109655  0.90334527  0.50128046  1
  Nb  Nb120  1  0.69681452  0.09937895  0.30608698  1
  Nb  Nb121  1  0.89918249  0.89562963  0.10051250  1
  Nb  Nb122  1  0.71542547  0.09579653  0.88477382  1
  Nb  Nb123  1  0.29697798  0.10088738  0.70053889  1
  Nb  Nb124  1  0.70187467  0.09212093  0.70850572  1
  Nb  Nb125  1  0.59503614  0.00114805  0.39384009  1
  Nb  Nb126  1  0.20447682  0.00204934  0.00931675  1
  Nb  Nb127  1  -0.00320212  0.60282042  0.60182124  1
  Nb  Nb128  1  -0.00522732  0.79820164  0.19977947  1
  Nb  Nb129  1  0.00094967  0.80754969  0.40226402  1
  Nb  Nb130  1  0.79930350  0.39798497  0.80035314  1
  Nb  Nb131  1  0.39557912  0.20053742  0.61236420  1
  Nb  Nb132  1  0.20269096  -0.00128303  0.59531896  1
  Nb  Nb133  1  0.39721928  0.00346493  0.00382316  1
  Nb  Nb134  1  -0.00579332  0.00422024  0.80129168  1
  Nb  Nb135  1  -0.00608217  0.60828905  0.19267263  1
  Nb  Nb136  1  0.39825245  0.20030093  0.79612934  1
  Nb  Nb137  1  0.79951569  0.39789973  0.40286128  1
  Nb  Nb138  1  0.39948642  0.59771931  0.78972998  1
  Nb  Nb139  1  0.79923127  0.60362311  0.20034550  1
  Nb  Nb140  1  0.39960762  -0.00045169  0.20500452  1
  Nb  Nb141  1  0.20549031  0.39961659  0.80085038  1
  Nb  Nb142  1  -0.00758322  0.19338430  0.79814007  1
  Nb  Nb143  1  0.59436253  0.00133712  0.20809211  1
  Nb  Nb144  1  0.59961594  0.60220165  0.20320564  1
  Nb  Nb145  1  0.20447813  -0.00360650  0.39570812  1
  Nb  Nb146  1  0.39418753  0.19652846  -0.00258019  1
  Nb  Nb147  1  0.80823710  0.80473069  0.40614144  1
  Nb  Nb148  1  0.20160105  0.40332590  0.39810630  1
  Nb  Nb149  1  0.20509158  0.39871288  0.00407587  1
  Pd  Pd150  1  0.40796259  0.01435928  0.81404472  1
  Pd  Pd151  1  0.20733898  0.00175334  0.20083635  1
  Pd  Pd152  1  0.39664960  0.20072238  0.19474196  1
  Pd  Pd153  1  0.39281558  0.39557003  0.40735686  1
  Pd  Pd154  1  0.19962486  0.80356209  0.40191371  1
  Pd  Pd155  1  0.79716622  0.79394056  0.20803932  1
  Pd  Pd156  1  0.00663593  0.38908786  0.79908770  1
  Pd  Pd157  1  0.79679088  0.80474136  0.59686924  1
  Pd  Pd158  1  0.19236447  0.20926173  0.79749980  1
  Pd  Pd159  1  0.60065866  0.40935997  0.19552412  1
  Pd  Pd160  1  0.58742635  0.19893585  0.61126790  1
  Pd  Pd161  1  0.61297632  0.40175632  0.80704242  1
  Pd  Pd162  1  0.39595404  0.39921422  -0.00255859  1
  Pd  Pd163  1  0.60597813  0.80182791  -0.00760136  1
  Pd  Pd164  1  0.59887962  -0.00335540  0.00292036  1
  Pd  Pd165  1  0.59166202  0.19383707  0.78697974  1
  Pd  Pd166  1  0.60718587  0.19600538  0.19483093  1
  Pd  Pd167  1  0.80251209  0.60245789  0.60802401  1
  Pd  Pd168  1  0.00821060  0.39840787  0.00274635  1
  Pd  Pd169  1  0.40131229  -0.00837666  0.39862630  1
  Pd  Pd170  1  0.20759523  0.20387748  0.20567446  1
  Pd  Pd171  1  0.20467816  0.80744439  -0.00308668  1
  Pd  Pd172  1  0.19795258  0.60496098  0.19646753  1
  Pd  Pd173  1  0.78981192  0.00761180  0.19214014  1
  Pd  Pd174  1  0.79996701  0.18838472  0.19081833  1
  Pd  Pd175  1  0.39308130  0.80270677  -0.00755552  1
  Pd  Pd176  1  0.60414869  0.39947487  0.40614673  1
  Pd  Pd177  1  0.19484367  0.59598681  0.60514944  1
  Pd  Pd178  1  -0.00292968  0.60120338  0.79128392  1
  Pd  Pd179  1  0.00817447  0.00289198  0.39513115  1
  Pd  Pd180  1  0.40331128  0.79049197  0.60773822  1
  Pd  Pd181  1  0.40684145  0.61023993  0.60582147  1
  Pd  Pd182  1  0.20642153  0.59731489  0.39968633  1
  Pd  Pd183  1  0.18707332  -0.00887846  0.79844182  1
  Pd  Pd184  1  0.20697482  0.59117657  0.00510145  1
  Pd  Pd185  1  0.80600040  0.40950232  0.20684494  1
  Pd  Pd186  1  0.40540883  0.39204893  0.59155214  1
  Pd  Pd187  1  0.00416679  0.00506836  0.60448535  1
  Pd  Pd188  1  0.00127589  0.38959668  0.39581992  1
  Pd  Pd189  1  0.80581380  0.19207273  0.00768552  1
  Pd  Pd190  1  0.79075594  -0.00416133  0.40787470  1
  Pd  Pd191  1  0.39914841  0.78571172  0.79671028  1
  Pd  Pd192  1  0.59934672  -0.00616588  0.59660291  1
  Pd  Pd193  1  0.60785204  0.40031949  -0.00355086  1
  Pd  Pd194  1  0.20036005  0.80835101  0.79408009  1
  Pd  Pd195  1  -0.00114020  0.79206321  0.00168775  1
  Pd  Pd196  1  -0.00293776  0.60530000  0.00749368  1
  Pd  Pd197  1  0.01058403  0.60995016  0.40749950  1
  Pd  Pd198  1  -0.00459510  0.20132408  0.39506307  1
  Pd  Pd199  1  0.79569843  0.20029483  0.60017515  1
  Rh  Rh200  1  0.00891985  0.40715403  0.59903772  1
  Rh  Rh201  1  0.39676420  0.60324959  -0.00752970  1
  Rh  Rh202  1  0.60230033  0.80109411  0.80608761  1
  Rh  Rh203  1  0.20719692  0.80811829  0.60820783  1
  Rh  Rh204  1  0.20962318  0.58942858  0.79212275  1
  Rh  Rh205  1  -0.00863994  0.40745786  0.19747423  1
  Rh  Rh206  1  0.39601433  0.21028724  0.40993485  1
  Rh  Rh207  1  0.79612949  -0.00534052  0.59843604  1
  Rh  Rh208  1  0.60268105  0.19582833  0.40257681  1
  Rh  Rh209  1  0.00298312  0.79162006  0.59412178  1
  Rh  Rh210  1  0.59606753  0.20738416  0.00679383  1
  Rh  Rh211  1  0.19602917  0.79119661  0.19640583  1
  Rh  Rh212  1  0.59370153  0.60280015  0.79902641  1
  Rh  Rh213  1  0.59645293  0.00061831  0.80434808  1
  Rh  Rh214  1  0.40899735  0.60910702  0.20727779  1
  Rh  Rh215  1  0.39914054  0.39396579  0.20297007  1
  Rh  Rh216  1  -0.00761764  0.19118669  0.19787193  1
  Rh  Rh217  1  0.59418771  0.40407759  0.59630254  1
  Rh  Rh218  1  0.60185217  0.80959228  0.40499642  1
  Rh  Rh219  1  0.40354949  0.79799134  0.40141762  1
  Rh  Rh220  1  -0.00347332  0.19265114  0.60142388  1
  Rh  Rh221  1  0.79648174  0.80063877  -0.00466649  1
  Rh  Rh222  1  0.39823477  0.60748837  0.39605108  1
  Rh  Rh223  1  0.20566505  0.19089099  0.59625633  1
  Rh  Rh224  1  0.78984774  0.39611125  0.59941316  1
  Rh  Rh225  1  -0.00540715  0.80660780  0.80365867  1
  Rh  Rh226  1  0.19869922  0.20203409  0.39304449  1
  Rh  Rh227  1  0.59961924  0.79784033  0.19839266  1
  Rh  Rh228  1  0.39208393  0.00812211  0.59824857  1
  Rh  Rh229  1  0.59876426  0.60221489  0.00764000  1
  Rh  Rh230  1  0.40760925  0.79800790  0.20069788  1
  Rh  Rh231  1  0.19838753  0.40421654  0.59767262  1
  Rh  Rh232  1  0.80309174  0.20847131  0.79014682  1
  Rh  Rh233  1  -0.00278148  0.00147129  0.20120017  1
  Rh  Rh234  1  0.59475745  0.60331529  0.60283098  1
  Rh  Rh235  1  0.79790011  0.00064885  0.00418651  1
  Rh  Rh236  1  0.59708971  0.80320853  0.60157335  1
  Rh  Rh237  1  -0.00694643  0.19090271  -0.00272876  1
  Rh  Rh238  1  0.80085483  0.60488898  0.00506249  1
  Rh  Rh239  1  0.80352752  0.80341957  0.80199066  1
  Rh  Rh240  1  0.00483730  0.00338217  -0.00651224  1
  Rh  Rh241  1  0.79320141  0.39749679  -0.01309310  1
  Rh  Rh242  1  0.80281461  0.59479482  0.79522835  1
  Rh  Rh243  1  0.79837233  0.20550650  0.40530954  1
  Rh  Rh244  1  0.20835257  0.39304551  0.20299870  1
  Rh  Rh245  1  0.39491346  0.40325846  0.80063247  1
  Rh  Rh246  1  0.80788386  -0.01427245  0.79233316  1
  Rh  Rh247  1  0.20465647  0.19728043  0.00454490  1
  Rh  Rh248  1  0.79218365  0.59960168  0.39487837  1
  Rh  Rh249  1  0.59425889  0.60039390  0.39453014  1
