# generated using pymatgen
data_ZrScNbPdRh
_symmetry_space_group_name_H-M   'P 1'
_cell_length_a   16.55588423
_cell_length_b   16.55402561
_cell_length_c   16.55344018
_cell_angle_alpha   90.03327897
_cell_angle_beta   90.01935698
_cell_angle_gamma   89.99549467
_symmetry_Int_Tables_number   1
_chemical_formula_structural   ZrScNbPdRh
_chemical_formula_sum   'Zr50 Sc50 Nb50 Pd50 Rh50'
_cell_volume   4536.74289456
_cell_formula_units_Z   50
loop_
 _symmetry_equiv_pos_site_id
 _symmetry_equiv_pos_as_xyz
  1  'x, y, z'
loop_
 _atom_site_type_symbol
 _atom_site_label
 _atom_site_symmetry_multiplicity
 _atom_site_fract_x
 _atom_site_fract_y
 _atom_site_fract_z
 _atom_site_occupancy
  Zr  Zr0  1  0.90102918  0.69198072  0.68906512  1
  Zr  Zr1  1  0.49485647  0.09121128  0.30230064  1
  Zr  Zr2  1  0.10528267  0.69842404  0.69670642  1
  Zr  Zr3  1  0.10131976  0.49870964  0.09739764  1
  Zr  Zr4  1  0.70449076  0.30650721  0.29624993  1
  Zr  Zr5  1  0.29914511  0.49891726  0.70206551  1
  Zr  Zr6  1  0.68947354  0.89716907  0.30527692  1
  Zr  Zr7  1  0.29952049  0.29418289  0.69692564  1
  Zr  Zr8  1  0.50197237  0.50356130  0.69969638  1
  Zr  Zr9  1  0.89497350  0.29787655  0.87911394  1
  Zr  Zr10  1  0.09529266  0.08812549  0.29354510  1
  Zr  Zr11  1  0.89291870  0.49967966  0.29534780  1
  Zr  Zr12  1  0.89442741  0.09868117  0.89267132  1
  Zr  Zr13  1  0.09914622  0.29565592  0.50375937  1
  Zr  Zr14  1  0.70218866  0.71079982  0.10360108  1
  Zr  Zr15  1  0.48367511  0.29341313  0.29994494  1
  Zr  Zr16  1  0.50149836  0.71004383  0.30641009  1
  Zr  Zr17  1  0.89951695  0.90311387  0.90065104  1
  Zr  Zr18  1  0.30584321  0.10623564  0.30401407  1
  Zr  Zr19  1  0.71030600  0.30030708  0.70247729  1
  Zr  Zr20  1  0.09800319  0.69914723  0.31079003  1
  Zr  Zr21  1  0.30393434  0.49875418  0.10136881  1
  Zr  Zr22  1  0.10507483  0.69842049  0.89752839  1
  Zr  Zr23  1  0.09209207  0.30078462  0.08894313  1
  Zr  Zr24  1  0.90217121  0.69933390  0.49215572  1
  Zr  Zr25  1  0.69732941  0.90756507  0.90421090  1
  Zr  Zr26  1  0.50888136  0.70199111  0.69987106  1
  Zr  Zr27  1  0.10733115  0.90365151  0.69620702  1
  Zr  Zr28  1  0.89735942  0.09619133  0.49368756  1
  Zr  Zr29  1  0.89761079  0.89694634  0.09898524  1
  Zr  Zr30  1  0.70010673  0.29640954  0.09741611  1
  Zr  Zr31  1  0.70237472  0.89831246  0.10154916  1
  Zr  Zr32  1  0.89724813  0.30274832  0.29669872  1
  Zr  Zr33  1  0.90105997  0.70850056  0.90538141  1
  Zr  Zr34  1  0.30713971  0.89580791  0.89647103  1
  Zr  Zr35  1  0.90925801  0.49479457  0.10342446  1
  Zr  Zr36  1  0.69717552  0.30605950  0.51149607  1
  Zr  Zr37  1  0.30166385  0.09211922  0.69924454  1
  Zr  Zr38  1  0.90102992  0.90976292  0.69998125  1
  Zr  Zr39  1  0.29667526  0.10082774  0.50491105  1
  Zr  Zr40  1  0.49834566  0.71052768  0.89771763  1
  Zr  Zr41  1  0.10051082  0.10654155  0.90565315  1
  Zr  Zr42  1  0.29856654  0.88952531  0.10683951  1
  Zr  Zr43  1  0.11063562  0.50944762  0.50001927  1
  Zr  Zr44  1  0.50597865  0.89658098  0.49206221  1
  Zr  Zr45  1  0.30070766  0.50170655  0.30980178  1
  Zr  Zr46  1  0.90396952  0.29519906  0.50868407  1
  Zr  Zr47  1  0.70969060  0.70012802  0.29878654  1
  Zr  Zr48  1  0.11385679  0.89301221  0.29984699  1
  Zr  Zr49  1  0.08794343  0.29893546  0.69767638  1
  Sc  Sc50  1  0.49752351  0.09676058  0.50273612  1
  Sc  Sc51  1  0.69016509  0.70392670  0.90491139  1
  Sc  Sc52  1  0.50165875  0.29533007  0.69920770  1
  Sc  Sc53  1  0.30986634  0.29618477  0.09750399  1
  Sc  Sc54  1  0.69730996  0.90468128  0.49861979  1
  Sc  Sc55  1  0.50038795  0.29262996  0.90032254  1
  Sc  Sc56  1  0.10362448  0.70683701  0.10675168  1
  Sc  Sc57  1  0.08662346  0.30028440  0.89770175  1
  Sc  Sc58  1  0.50603453  0.89664687  0.11157152  1
  Sc  Sc59  1  0.89819710  0.49419675  0.89661046  1
  Sc  Sc60  1  0.49685950  0.50804018  0.50249195  1
  Sc  Sc61  1  0.30474071  0.70487077  0.69796438  1
  Sc  Sc62  1  0.89499596  0.50557382  0.50739992  1
  Sc  Sc63  1  0.49954795  0.89756233  0.70004163  1
  Sc  Sc64  1  0.89546907  0.70348214  0.10620858  1
  Sc  Sc65  1  0.29920785  0.70889187  0.90395108  1
  Sc  Sc66  1  0.29920412  0.69878001  0.49927341  1
  Sc  Sc67  1  0.70171548  0.49873186  0.68996219  1
  Sc  Sc68  1  0.49960688  0.70375496  0.10986639  1
  Sc  Sc69  1  0.50358097  0.09974536  0.89581484  1
  Sc  Sc70  1  0.49540795  0.29990118  0.08967318  1
  Sc  Sc71  1  0.69818313  0.09477979  0.30433167  1
  Sc  Sc72  1  0.10206409  0.89632018  0.89281300  1
  Sc  Sc73  1  0.09580977  0.29731336  0.31706447  1
  Sc  Sc74  1  0.89563067  0.90639493  0.49644975  1
  Sc  Sc75  1  0.10039531  0.10296585  0.49697225  1
  Sc  Sc76  1  0.91055765  0.89910600  0.30365791  1
  Sc  Sc77  1  0.48829098  0.51200611  0.29698267  1
  Sc  Sc78  1  0.09198688  0.50211283  0.30298566  1
  Sc  Sc79  1  0.10583092  0.90916436  0.11687082  1
  Sc  Sc80  1  0.69734227  0.10363881  0.89772642  1
  Sc  Sc81  1  0.49665340  0.70340425  0.50691596  1
  Sc  Sc82  1  0.89187935  0.10367101  0.09761347  1
  Sc  Sc83  1  0.30582519  0.29715306  0.89403666  1
  Sc  Sc84  1  0.29306121  0.09585620  0.09673083  1
  Sc  Sc85  1  0.89919055  0.10059361  0.69907713  1
  Sc  Sc86  1  0.29640964  0.29266087  0.48633872  1
  Sc  Sc87  1  0.29248603  0.49868945  0.89661439  1
  Sc  Sc88  1  0.49667469  0.09737624  0.70111146  1
  Sc  Sc89  1  0.89792272  0.49118644  0.69940257  1
  Sc  Sc90  1  0.69436543  0.50904198  0.90412507  1
  Sc  Sc91  1  0.10405461  0.49314456  0.89905663  1
  Sc  Sc92  1  0.29961047  0.89688711  0.50158923  1
  Sc  Sc93  1  0.69743074  0.09889347  0.08918249  1
  Sc  Sc94  1  0.30913242  0.70161789  0.30266221  1
  Sc  Sc95  1  0.69438726  0.50983744  0.09751645  1
  Sc  Sc96  1  0.10559988  0.49966012  0.69901888  1
  Sc  Sc97  1  0.69673328  0.09217640  0.50584679  1
  Sc  Sc98  1  0.11005960  0.89472296  0.49314028  1
  Sc  Sc99  1  0.30139730  0.09207518  0.89421972  1
  Nb  Nb100  1  0.50385072  0.50621553  0.90104150  1
  Nb  Nb101  1  0.69868905  0.49734545  0.30163973  1
  Nb  Nb102  1  0.30801620  0.90118140  0.30200607  1
  Nb  Nb103  1  0.90048504  0.09826733  0.30157594  1
  Nb  Nb104  1  0.10897406  0.09621458  0.69800214  1
  Nb  Nb105  1  0.70363533  0.69923746  0.50354283  1
  Nb  Nb106  1  0.70000058  0.30164767  0.89633258  1
  Nb  Nb107  1  0.49391183  0.90095338  0.30594902  1
  Nb  Nb108  1  0.69891744  0.49812310  0.49743711  1
  Nb  Nb109  1  0.09904709  0.10256836  0.10001887  1
  Nb  Nb110  1  0.69794501  0.08604698  0.70011965  1
  Nb  Nb111  1  0.90543698  0.69718136  0.29870988  1
  Nb  Nb112  1  0.89780240  0.30047400  0.70345594  1
  Nb  Nb113  1  0.49838245  0.10536814  0.10224221  1
  Nb  Nb114  1  0.69717834  0.70343411  0.69890048  1
  Nb  Nb115  1  0.10028669  0.70410689  0.50089931  1
  Nb  Nb116  1  0.29655180  0.29693338  0.29752464  1
  Nb  Nb117  1  0.69974811  0.90133407  0.69438112  1
  Nb  Nb118  1  0.49748648  0.49940987  0.09584512  1
  Nb  Nb119  1  0.89493316  0.30597736  0.10281976  1
  Nb  Nb120  1  0.50427168  0.30448519  0.50101727  1
  Nb  Nb121  1  0.29659662  0.90889896  0.70364105  1
  Nb  Nb122  1  0.30580609  0.50386230  0.50095173  1
  Nb  Nb123  1  0.49419661  0.89491111  0.90657126  1
  Nb  Nb124  1  0.30182892  0.69912370  0.10146696  1
  Nb  Nb125  1  0.60138202  0.40109513  0.80384373  1
  Nb  Nb126  1  0.60054185  0.20840022  0.39971053  1
  Nb  Nb127  1  0.40598844  0.60121456  0.80654958  1
  Nb  Nb128  1  0.40514910  -0.00719247  0.00256331  1
  Nb  Nb129  1  0.59795125  0.40398293  0.39701279  1
  Nb  Nb130  1  0.79714721  0.20242843  0.40083225  1
  Nb  Nb131  1  0.40350582  0.59927406  0.00000677  1
  Nb  Nb132  1  0.20431442  0.59631817  0.20164605  1
  Nb  Nb133  1  0.59466417  0.20208974  0.20239607  1
  Nb  Nb134  1  0.00340384  0.00444643  0.00374746  1
  Nb  Nb135  1  0.20260917  0.39465215  0.20460907  1
  Nb  Nb136  1  0.00226389  0.60195218  -0.00225880  1
  Nb  Nb137  1  0.79498019  0.79990917  0.79245332  1
  Nb  Nb138  1  0.39720766  0.39960082  0.59426541  1
  Nb  Nb139  1  0.80078246  -0.00295586  0.20404585  1
  Nb  Nb140  1  -0.00187172  0.19973529  0.19697331  1
  Nb  Nb141  1  0.79901263  0.39331683  -0.00090096  1
  Nb  Nb142  1  0.79883414  0.60897994  0.79690015  1
  Nb  Nb143  1  0.60975020  0.59832777  0.40092357  1
  Nb  Nb144  1  0.19509626  0.19552557  0.79377735  1
  Nb  Nb145  1  0.00040220  0.79818100  0.59508250  1
  Nb  Nb146  1  0.79821034  0.79898814  0.60231165  1
  Nb  Nb147  1  0.19338189  0.20383935  0.19989758  1
  Nb  Nb148  1  -0.00217257  0.60315569  0.80275852  1
  Nb  Nb149  1  0.59369460  0.40173356  0.20168715  1
  Pd  Pd150  1  0.01192329  0.80569912  0.00882992  1
  Pd  Pd151  1  0.00725528  -0.00833955  0.40366408  1
  Pd  Pd152  1  0.39719027  0.18646250  -0.00684415  1
  Pd  Pd153  1  0.79779804  0.19055746  0.60105297  1
  Pd  Pd154  1  0.00045222  0.40921014  0.59779898  1
  Pd  Pd155  1  0.40955049  0.40233506  0.79909270  1
  Pd  Pd156  1  0.80048413  0.59697961  0.19449248  1
  Pd  Pd157  1  0.40393987  0.40115782  0.40664058  1
  Pd  Pd158  1  0.40043433  0.39977899  0.19994075  1
  Pd  Pd159  1  0.20815284  0.39441603  0.59150063  1
  Pd  Pd160  1  0.39768740  0.80587967  0.60218146  1
  Pd  Pd161  1  0.20821625  0.60487160  0.60061925  1
  Pd  Pd162  1  0.40392565  -0.00920155  0.59689840  1
  Pd  Pd163  1  0.20857293  0.79833363  0.79435601  1
  Pd  Pd164  1  0.20774261  0.38871107  0.00072533  1
  Pd  Pd165  1  -0.01531112  0.19907363  0.00257223  1
  Pd  Pd166  1  0.40292478  0.20560556  0.59532363  1
  Pd  Pd167  1  0.39514050  0.00052618  0.19158566  1
  Pd  Pd168  1  0.19898042  0.40126012  0.40041776  1
  Pd  Pd169  1  0.79658496  0.18814674  0.20541116  1
  Pd  Pd170  1  -0.00365783  0.59171237  0.40329696  1
  Pd  Pd171  1  0.39792265  0.40531895  -0.01192731  1
  Pd  Pd172  1  0.80805445  0.59497075  -0.00354228  1
  Pd  Pd173  1  0.59025552  0.00110976  0.00255223  1
  Pd  Pd174  1  0.60336500  0.20347441  0.79486209  1
  Pd  Pd175  1  0.59724620  0.59800344  0.20547062  1
  Pd  Pd176  1  -0.00660427  0.40795248  0.40985550  1
  Pd  Pd177  1  -0.00011630  0.79714755  0.20174953  1
  Pd  Pd178  1  0.80227158  0.39650977  0.40994007  1
  Pd  Pd179  1  0.60446167  0.81140001  0.80092633  1
  Pd  Pd180  1  0.59425046  -0.00544966  0.79826013  1
  Pd  Pd181  1  0.19343780  0.38689790  0.80154082  1
  Pd  Pd182  1  0.01254368  0.39057127  0.20718163  1
  Pd  Pd183  1  0.80232411  0.80532959  0.40165007  1
  Pd  Pd184  1  0.60433408  0.59930871  0.59330776  1
  Pd  Pd185  1  0.59172470  0.61222528  0.00652641  1
  Pd  Pd186  1  0.20851979  0.20621549  -0.00353602  1
  Pd  Pd187  1  0.80334102  0.20565057  -0.00727940  1
  Pd  Pd188  1  0.20497802  0.00250273  0.39972867  1
  Pd  Pd189  1  0.60359628  0.39735739  -0.00130238  1
  Pd  Pd190  1  0.19982756  -0.00969621  -0.00203185  1
  Pd  Pd191  1  0.00874521  0.00561737  0.80509959  1
  Pd  Pd192  1  0.19266905  0.80723932  0.00406722  1
  Pd  Pd193  1  0.20170952  0.60260111  0.00431561  1
  Pd  Pd194  1  0.60602742  0.00681820  0.19828845  1
  Pd  Pd195  1  0.59926751  0.19175098  0.60076154  1
  Pd  Pd196  1  -0.00554898  0.79555315  0.78853883  1
  Pd  Pd197  1  -0.00070016  0.18824385  0.60443177  1
  Pd  Pd198  1  0.00873400  -0.00366818  0.58958232  1
  Pd  Pd199  1  0.79930827  0.59721481  0.39985645  1
  Rh  Rh200  1  0.39608802  0.80246818  0.40456763  1
  Rh  Rh201  1  0.00476337  0.19072298  0.78997545  1
  Rh  Rh202  1  0.80728132  0.80774552  0.21408591  1
  Rh  Rh203  1  0.19471826  0.19238004  0.39224967  1
  Rh  Rh204  1  0.60462481  0.78996379  0.40593232  1
  Rh  Rh205  1  0.59935620  0.80099911  0.20657522  1
  Rh  Rh206  1  0.79732955  0.00393983  0.39243054  1
  Rh  Rh207  1  -0.00829098  0.19753862  0.39411603  1
  Rh  Rh208  1  0.60630117  0.80395426  0.59316182  1
  Rh  Rh209  1  0.59691370  0.80108833  0.00647879  1
  Rh  Rh210  1  0.20747723  0.78946546  0.20980550  1
  Rh  Rh211  1  0.39473199  0.59600455  0.60678981  1
  Rh  Rh212  1  0.79284038  -0.00182088  0.79864852  1
  Rh  Rh213  1  0.00516714  0.60710224  0.19424727  1
  Rh  Rh214  1  0.20964537  0.79495932  0.39738057  1
  Rh  Rh215  1  0.39399975  0.19368432  0.79876381  1
  Rh  Rh216  1  0.19973501  -0.00341686  0.59237389  1
  Rh  Rh217  1  0.40764520  -0.00606561  0.80521471  1
  Rh  Rh218  1  0.21121767  0.00789500  0.20586552  1
  Rh  Rh219  1  0.39597455  -0.00378925  0.40735935  1
  Rh  Rh220  1  0.79252416  0.80173235  -0.00949117  1
  Rh  Rh221  1  0.19945230  0.80296631  0.60085921  1
  Rh  Rh222  1  0.20321261  0.60370756  0.39744658  1
  Rh  Rh223  1  0.78616752  0.41343352  0.80635553  1
  Rh  Rh224  1  0.60360952  0.59450304  0.79648344  1
  Rh  Rh225  1  0.59396436  -0.00233227  0.60238958  1
  Rh  Rh226  1  0.00919022  0.59917863  0.60176207  1
  Rh  Rh227  1  0.00381205  0.40948780  0.79469848  1
  Rh  Rh228  1  0.80586411  0.40008921  0.59803364  1
  Rh  Rh229  1  0.59565679  0.00680777  0.40325254  1
  Rh  Rh230  1  0.59667518  0.20035306  0.00195129  1
  Rh  Rh231  1  0.79733365  -0.00176677  0.60048235  1
  Rh  Rh232  1  0.39911734  0.80014210  0.79079804  1
  Rh  Rh233  1  0.20432888  0.60299852  0.80066436  1
  Rh  Rh234  1  0.39649865  0.60277822  0.19279636  1
  Rh  Rh235  1  0.40030510  0.80178850  0.20429294  1
  Rh  Rh236  1  0.79162433  0.18937304  0.79162270  1
  Rh  Rh237  1  0.79288855  0.60076236  0.60301660  1
  Rh  Rh238  1  0.40507250  0.80004278  0.01286688  1
  Rh  Rh239  1  0.40759816  0.60745965  0.40666713  1
  Rh  Rh240  1  -0.01413663  0.00821479  0.18997631  1
  Rh  Rh241  1  0.19612111  0.00369739  0.80584753  1
  Rh  Rh242  1  0.40518931  0.19676137  0.41033018  1
  Rh  Rh243  1  0.78782333  0.41353019  0.18415782  1
  Rh  Rh244  1  0.00050313  0.80255106  0.40381532  1
  Rh  Rh245  1  0.39601386  0.19564553  0.19337344  1
  Rh  Rh246  1  0.19707870  0.20095066  0.60384457  1
  Rh  Rh247  1  0.59046878  0.40478293  0.60145854  1
  Rh  Rh248  1  -0.01309676  0.40021022  -0.00999511  1
  Rh  Rh249  1  0.80618314  0.00009224  0.00559559  1
