# generated using pymatgen
data_ZrScNbPdRh
_symmetry_space_group_name_H-M   'P 1'
_cell_length_a   16.55559415
_cell_length_b   16.55495451
_cell_length_c   16.55307798
_cell_angle_alpha   90.02174425
_cell_angle_beta   90.01410319
_cell_angle_gamma   89.96541939
_symmetry_Int_Tables_number   1
_chemical_formula_structural   ZrScNbPdRh
_chemical_formula_sum   'Zr50 Sc50 Nb50 Pd50 Rh50'
_cell_volume   4536.81845421
_cell_formula_units_Z   50
loop_
 _symmetry_equiv_pos_site_id
 _symmetry_equiv_pos_as_xyz
  1  'x, y, z'
loop_
 _atom_site_type_symbol
 _atom_site_label
 _atom_site_symmetry_multiplicity
 _atom_site_fract_x
 _atom_site_fract_y
 _atom_site_fract_z
 _atom_site_occupancy
  Zr  Zr0  1  0.10214747  0.10621872  0.10322575  1
  Zr  Zr1  1  0.70041285  0.49539973  0.49583239  1
  Zr  Zr2  1  0.89953519  0.50352296  0.69649497  1
  Zr  Zr3  1  0.70412722  0.09873016  0.10230050  1
  Zr  Zr4  1  0.70098002  0.09918060  0.50342646  1
  Zr  Zr5  1  0.30193287  0.90420751  0.49021852  1
  Zr  Zr6  1  0.09762173  0.09810963  0.49840917  1
  Zr  Zr7  1  0.09972390  0.90151100  0.50276349  1
  Zr  Zr8  1  0.29592694  0.69795716  0.29194833  1
  Zr  Zr9  1  0.29875131  0.30004981  0.89015504  1
  Zr  Zr10  1  0.30566555  0.50845873  0.10842021  1
  Zr  Zr11  1  0.70283480  0.29696129  0.09803258  1
  Zr  Zr12  1  0.70924315  0.29443352  0.90171598  1
  Zr  Zr13  1  0.90208261  0.10057051  0.90354878  1
  Zr  Zr14  1  0.30426962  0.50193375  0.70173872  1
  Zr  Zr15  1  0.90105387  0.09231898  0.30320999  1
  Zr  Zr16  1  0.50725811  0.71055015  0.89843523  1
  Zr  Zr17  1  0.09836946  0.29588135  0.10548601  1
  Zr  Zr18  1  0.10400794  0.69747685  0.30192557  1
  Zr  Zr19  1  0.29190707  0.29868296  0.10173383  1
  Zr  Zr20  1  0.30733399  0.09024578  0.30016354  1
  Zr  Zr21  1  0.49945062  0.90779777  0.89985512  1
  Zr  Zr22  1  0.49969920  0.10049158  0.30187651  1
  Zr  Zr23  1  0.89791950  0.69684123  0.90094368  1
  Zr  Zr24  1  0.49562332  0.69545993  0.09019649  1
  Zr  Zr25  1  0.50513837  0.29574028  0.89799982  1
  Zr  Zr26  1  0.90186253  0.30233443  0.70628581  1
  Zr  Zr27  1  0.69917355  0.29689844  0.70279626  1
  Zr  Zr28  1  0.09443360  0.30532523  0.89694089  1
  Zr  Zr29  1  0.89639665  0.69974721  0.10107628  1
  Zr  Zr30  1  0.29484989  0.09881372  0.09728547  1
  Zr  Zr31  1  0.90877218  0.49349961  0.89872988  1
  Zr  Zr32  1  0.69634397  0.29983020  0.30056592  1
  Zr  Zr33  1  0.30073226  0.10411200  0.89958306  1
  Zr  Zr34  1  0.29550985  0.10444544  0.69814740  1
  Zr  Zr35  1  0.10697376  0.30172752  0.49315897  1
  Zr  Zr36  1  0.30393746  0.89981240  0.10281987  1
  Zr  Zr37  1  0.88921006  0.89858968  0.50079711  1
  Zr  Zr38  1  0.69508605  0.90017317  0.10648139  1
  Zr  Zr39  1  0.49834377  0.89862305  0.29902407  1
  Zr  Zr40  1  0.29904974  0.30681240  0.69978509  1
  Zr  Zr41  1  0.69385833  0.30065796  0.50571760  1
  Zr  Zr42  1  0.89739408  0.29185154  0.30269690  1
  Zr  Zr43  1  0.29922778  0.31063026  0.31048841  1
  Zr  Zr44  1  0.50326931  0.89255927  0.50252933  1
  Zr  Zr45  1  0.91009766  0.89660773  0.89607264  1
  Zr  Zr46  1  0.89769103  0.09781642  0.49676806  1
  Zr  Zr47  1  0.30108307  0.90846373  0.68804009  1
  Zr  Zr48  1  0.90368594  0.69174133  0.50486360  1
  Zr  Zr49  1  0.90632667  0.90289376  0.10044834  1
  Sc  Sc50  1  0.50110074  0.50365587  0.69564252  1
  Sc  Sc51  1  0.50686691  0.70268103  0.30429135  1
  Sc  Sc52  1  0.10652561  0.90816082  0.30645101  1
  Sc  Sc53  1  0.30646938  0.70270977  0.90175508  1
  Sc  Sc54  1  0.50167247  0.30053548  0.69367208  1
  Sc  Sc55  1  0.90985111  0.10420935  0.10330876  1
  Sc  Sc56  1  0.69068833  0.09896758  0.70082556  1
  Sc  Sc57  1  0.49816148  0.10577811  0.50208047  1
  Sc  Sc58  1  0.10759231  0.70634331  0.09962775  1
  Sc  Sc59  1  0.09685381  0.10405529  0.90381707  1
  Sc  Sc60  1  0.69870248  0.69891992  0.70549909  1
  Sc  Sc61  1  0.89434853  0.50291878  0.08654446  1
  Sc  Sc62  1  0.09702938  0.49593575  0.10079491  1
  Sc  Sc63  1  0.88792625  0.29401247  0.50458941  1
  Sc  Sc64  1  0.10235101  0.90129014  0.09260799  1
  Sc  Sc65  1  0.88375005  0.51014993  0.31047944  1
  Sc  Sc66  1  0.29931930  0.49326924  0.50781731  1
  Sc  Sc67  1  0.10425991  0.50539978  0.70311487  1
  Sc  Sc68  1  0.09666536  0.89700512  0.90111953  1
  Sc  Sc69  1  0.69674608  0.69383073  0.10652759  1
  Sc  Sc70  1  0.30315025  0.70700127  0.10097651  1
  Sc  Sc71  1  0.09348017  0.89695545  0.70439349  1
  Sc  Sc72  1  0.69572605  0.69710578  0.89334742  1
  Sc  Sc73  1  0.09939700  0.69989186  0.69506973  1
  Sc  Sc74  1  0.10190389  0.70674859  0.89920146  1
  Sc  Sc75  1  0.11515085  0.50349497  0.30031812  1
  Sc  Sc76  1  0.49953166  0.89284526  0.09513020  1
  Sc  Sc77  1  0.29961247  0.90052241  0.90802290  1
  Sc  Sc78  1  0.89778628  0.30178484  0.90559082  1
  Sc  Sc79  1  0.10027281  0.69313301  0.50225947  1
  Sc  Sc80  1  0.50316175  0.69374748  0.49993444  1
  Sc  Sc81  1  0.30356926  0.69491990  0.49977105  1
  Sc  Sc82  1  0.29953732  0.69287419  0.69614275  1
  Sc  Sc83  1  0.49334873  0.30473668  0.49884174  1
  Sc  Sc84  1  0.69780410  0.69269444  0.30180619  1
  Sc  Sc85  1  0.69092592  0.69844324  0.49583083  1
  Sc  Sc86  1  0.69933472  0.50135976  0.69382648  1
  Sc  Sc87  1  0.50500502  0.69266673  0.69342823  1
  Sc  Sc88  1  0.50624803  0.49530077  0.50359981  1
  Sc  Sc89  1  0.09276540  0.10311764  0.69989551  1
  Sc  Sc90  1  0.69406867  0.10702662  0.89609894  1
  Sc  Sc91  1  0.30464874  0.10010060  0.49639071  1
  Sc  Sc92  1  0.88464603  0.69780817  0.30313292  1
  Sc  Sc93  1  0.49810542  0.51811271  0.90032725  1
  Sc  Sc94  1  0.90229477  0.10617704  0.70183838  1
  Sc  Sc95  1  0.51055753  0.08941055  0.09665132  1
  Sc  Sc96  1  0.68935957  0.88795856  0.88863280  1
  Sc  Sc97  1  0.50304243  0.09530083  0.70342954  1
  Sc  Sc98  1  0.69528413  0.89909633  0.69285412  1
  Sc  Sc99  1  0.89576441  0.70433271  0.69881452  1
  Nb  Nb100  1  0.49850626  0.09879393  0.89953368  1
  Nb  Nb101  1  0.09961577  0.49980924  0.90375449  1
  Nb  Nb102  1  0.89874157  0.89735321  0.69976768  1
  Nb  Nb103  1  0.69650794  0.49831418  0.10538339  1
  Nb  Nb104  1  0.90126610  0.50017957  0.50401124  1
  Nb  Nb105  1  0.69783127  0.09637081  0.29589065  1
  Nb  Nb106  1  0.69136112  0.49844908  0.29940685  1
  Nb  Nb107  1  0.09889279  0.30495308  0.29888171  1
  Nb  Nb108  1  0.30234240  0.30039149  0.50238766  1
  Nb  Nb109  1  0.30572231  0.50261301  0.29600895  1
  Nb  Nb110  1  0.09603266  0.29674132  0.69516036  1
  Nb  Nb111  1  0.29953352  0.49920492  0.89824300  1
  Nb  Nb112  1  0.09043865  0.50478336  0.50495596  1
  Nb  Nb113  1  0.50198053  0.90195113  0.70095861  1
  Nb  Nb114  1  0.50016740  0.30472935  0.10196024  1
  Nb  Nb115  1  0.70356451  0.49381254  0.90592405  1
  Nb  Nb116  1  0.30951882  0.89712907  0.29934247  1
  Nb  Nb117  1  0.50197831  0.48528572  0.29840521  1
  Nb  Nb118  1  0.69801775  0.90592973  0.49539379  1
  Nb  Nb119  1  0.89791651  0.89832593  0.30517028  1
  Nb  Nb120  1  0.49864333  0.30347265  0.29923135  1
  Nb  Nb121  1  0.70445076  0.90003180  0.30471117  1
  Nb  Nb122  1  0.90048357  0.30422510  0.09882489  1
  Nb  Nb123  1  0.50208466  0.49680039  0.10069177  1
  Nb  Nb124  1  0.09128641  0.11200628  0.30151869  1
  Nb  Nb125  1  -0.00327220  0.60102793  0.20270733  1
  Nb  Nb126  1  0.20317753  0.59155252  -0.00492072  1
  Nb  Nb127  1  0.60450283  0.40314167  0.80963794  1
  Nb  Nb128  1  -0.00533894  0.80104778  0.39723551  1
  Nb  Nb129  1  0.00104018  0.40110268  0.59507659  1
  Nb  Nb130  1  0.40509900  0.80806587  0.79144108  1
  Nb  Nb131  1  0.20039706  0.20744294  0.59697336  1
  Nb  Nb132  1  0.59990107  0.19899027  0.39424032  1
  Nb  Nb133  1  0.40169818  0.40158127  0.00065288  1
  Nb  Nb134  1  0.79850966  0.40208505  0.19874259  1
  Nb  Nb135  1  -0.00002153  0.40490557  0.40198172  1
  Nb  Nb136  1  -0.00815569  0.40274796  0.20873039  1
  Nb  Nb137  1  0.20263254  0.80560071  0.59692628  1
  Nb  Nb138  1  0.60570782  -0.00024037  0.39808642  1
  Nb  Nb139  1  0.80399916  -0.00601527  0.80155427  1
  Nb  Nb140  1  0.40349344  0.20535663  0.19743670  1
  Nb  Nb141  1  0.40090926  0.58736913  0.39030470  1
  Nb  Nb142  1  -0.00857550  -0.00498383  0.59976882  1
  Nb  Nb143  1  0.79999831  -0.00617290  -0.00507874  1
  Nb  Nb144  1  0.20003060  0.00205634  0.79796326  1
  Nb  Nb145  1  0.40505881  0.20329710  0.00370213  1
  Nb  Nb146  1  -0.00325640  0.79985284  0.21024757  1
  Nb  Nb147  1  0.59766028  0.40444824  0.00308992  1
  Nb  Nb148  1  0.20429664  0.40490114  -0.00512260  1
  Nb  Nb149  1  0.79925685  0.80416307  -0.00077584  1
  Pd  Pd150  1  0.59286188  0.20009059  0.20017197  1
  Pd  Pd151  1  0.78965350  0.79421751  0.59790473  1
  Pd  Pd152  1  0.80266435  0.39918469  0.39908351  1
  Pd  Pd153  1  0.39623998  0.39508204  0.19680270  1
  Pd  Pd154  1  0.39362978  -0.00317913  0.80060723  1
  Pd  Pd155  1  0.20765273  0.19821552  0.21770260  1
  Pd  Pd156  1  0.19989147  0.60523327  0.80645207  1
  Pd  Pd157  1  0.80021630  0.80108503  0.19848033  1
  Pd  Pd158  1  0.41423307  0.60692777  0.20720470  1
  Pd  Pd159  1  0.40274915  0.61058023  0.79950326  1
  Pd  Pd160  1  0.60693914  0.59798493  -0.00149020  1
  Pd  Pd161  1  0.19347224  -0.00064781  -0.00765141  1
  Pd  Pd162  1  0.19428857  0.40171821  0.60281853  1
  Pd  Pd163  1  0.21033969  0.59225996  0.40893104  1
  Pd  Pd164  1  -0.00334966  0.20732092  0.40620633  1
  Pd  Pd165  1  0.19510439  0.81110516  0.20071079  1
  Pd  Pd166  1  0.79151785  0.60532565  0.59689868  1
  Pd  Pd167  1  0.61054380  -0.00260853  -0.00852118  1
  Pd  Pd168  1  0.00015255  0.79038637  0.79584554  1
  Pd  Pd169  1  0.59610093  0.20032888  0.00394487  1
  Pd  Pd170  1  0.40757631  0.19779912  0.79723072  1
  Pd  Pd171  1  0.19427792  -0.00155096  0.20489868  1
  Pd  Pd172  1  0.01150426  0.60674853  0.00654750  1
  Pd  Pd173  1  0.39905164  0.78780049  0.39767152  1
  Pd  Pd174  1  0.40806126  0.00536620  0.59384361  1
  Pd  Pd175  1  0.21028682  0.80725525  0.79220696  1
  Pd  Pd176  1  0.80563598  0.19974543  0.19760065  1
  Pd  Pd177  1  0.39631207  0.79361348  0.60325596  1
  Pd  Pd178  1  0.59183316  0.59927745  0.20505501  1
  Pd  Pd179  1  0.19150293  0.40383663  0.79802728  1
  Pd  Pd180  1  0.79679199  0.79125579  0.40637354  1
  Pd  Pd181  1  0.79811041  0.19590728  0.60863315  1
  Pd  Pd182  1  0.39804244  0.20099164  0.60302456  1
  Pd  Pd183  1  0.00979399  -0.00486950  0.20437440  1
  Pd  Pd184  1  0.80166181  0.00369081  0.61342239  1
  Pd  Pd185  1  0.20679928  0.19379512  0.39836737  1
  Pd  Pd186  1  -0.00091640  0.20055284  0.80606456  1
  Pd  Pd187  1  0.79598391  0.40526274  0.79682022  1
  Pd  Pd188  1  0.79027026  0.60544509  -0.00144905  1
  Pd  Pd189  1  0.60479482  0.79615917  0.60130894  1
  Pd  Pd190  1  0.80391128  -0.00054607  0.19732126  1
  Pd  Pd191  1  0.19815070  0.79767293  0.40531172  1
  Pd  Pd192  1  0.41560926  0.40658289  0.80306479  1
  Pd  Pd193  1  0.00338396  0.60519088  0.79725748  1
  Pd  Pd194  1  0.40778218  0.00231120  0.19004787  1
  Pd  Pd195  1  0.79668303  0.59311306  0.80258340  1
  Pd  Pd196  1  -0.00151398  0.59945607  0.39177444  1
  Pd  Pd197  1  0.59911378  0.79601800  0.20086652  1
  Pd  Pd198  1  0.19976487  0.00673530  0.39410913  1
  Pd  Pd199  1  0.19933971  0.41167762  0.40362244  1
  Rh  Rh200  1  -0.00091302  -0.00625335  0.40359265  1
  Rh  Rh201  1  0.39338926  0.59687448  -0.00025656  1
  Rh  Rh202  1  0.40071137  0.00791724  0.00405981  1
  Rh  Rh203  1  0.59252141  0.58951106  0.39564847  1
  Rh  Rh204  1  0.59470908  -0.00131222  0.59289225  1
  Rh  Rh205  1  0.79330287  0.00484453  0.39434338  1
  Rh  Rh206  1  -0.00291165  0.20452428  0.20302338  1
  Rh  Rh207  1  0.80057726  0.58829028  0.19772233  1
  Rh  Rh208  1  0.79576332  0.40084963  0.00695502  1
  Rh  Rh209  1  0.60557038  0.80718574  0.39796240  1
  Rh  Rh210  1  0.80231502  0.80535784  0.80479458  1
  Rh  Rh211  1  0.80621496  0.39907046  0.60272292  1
  Rh  Rh212  1  0.00360272  0.80314519  0.59359410  1
  Rh  Rh213  1  0.40207585  0.59463374  0.58957337  1
  Rh  Rh214  1  0.60886146  0.79567829  0.00639496  1
  Rh  Rh215  1  0.40119320  0.40138252  0.60178648  1
  Rh  Rh216  1  0.60540523  0.00111735  0.80148778  1
  Rh  Rh217  1  0.00056513  0.59760683  0.60894817  1
  Rh  Rh218  1  0.41021462  -0.00543574  0.40589451  1
  Rh  Rh219  1  0.59103223  0.79906883  0.78832212  1
  Rh  Rh220  1  0.40224763  0.20703359  0.39248383  1
  Rh  Rh221  1  -0.00383658  0.79401207  0.00646349  1
  Rh  Rh222  1  0.40309082  0.79600573  0.20106680  1
  Rh  Rh223  1  0.60107942  0.39857987  0.60814839  1
  Rh  Rh224  1  0.00003877  -0.00014662  0.79246893  1
  Rh  Rh225  1  0.00503114  0.20187220  0.59238676  1
  Rh  Rh226  1  0.80113000  0.19081300  0.79802828  1
  Rh  Rh227  1  0.20089165  0.20911445  -0.01040148  1
  Rh  Rh228  1  0.18559328  0.00326085  0.60861593  1
  Rh  Rh229  1  -0.00196737  0.20569181  0.00152998  1
  Rh  Rh230  1  0.19035364  0.19606745  0.79257125  1
  Rh  Rh231  1  0.19448654  0.40505714  0.19707820  1
  Rh  Rh232  1  0.59421195  0.20045788  0.59491274  1
  Rh  Rh233  1  0.19260024  0.59743853  0.18825023  1
  Rh  Rh234  1  0.79013105  0.19088348  0.39695388  1
  Rh  Rh235  1  0.80675708  0.19032634  0.00499530  1
  Rh  Rh236  1  0.39963846  0.80338231  -0.00691145  1
  Rh  Rh237  1  0.00589972  0.39544899  0.00761117  1
  Rh  Rh238  1  0.40106497  0.40518043  0.40519181  1
  Rh  Rh239  1  0.20378009  0.79411310  -0.00098758  1
  Rh  Rh240  1  0.00249343  0.00570487  0.00236858  1
  Rh  Rh241  1  0.20085177  0.60385158  0.59846407  1
  Rh  Rh242  1  0.60644728  0.39923530  0.19601312  1
  Rh  Rh243  1  0.60435269  0.59757475  0.59746812  1
  Rh  Rh244  1  0.60441993  0.59113749  0.79891590  1
  Rh  Rh245  1  0.59883887  -0.00767308  0.20715144  1
  Rh  Rh246  1  0.59652318  0.39402513  0.40095814  1
  Rh  Rh247  1  0.00478898  0.40504671  0.78994139  1
  Rh  Rh248  1  0.59657107  0.20309903  0.79562939  1
  Rh  Rh249  1  0.78946458  0.60026637  0.40892518  1
