# generated using pymatgen
data_ZrScNbPdRh
_symmetry_space_group_name_H-M   'P 1'
_cell_length_a   16.56237437
_cell_length_b   16.56173367
_cell_length_c   16.55975110
_cell_angle_alpha   90.00713519
_cell_angle_beta   89.98126752
_cell_angle_gamma   90.00721689
_symmetry_Int_Tables_number   1
_chemical_formula_structural   ZrScNbPdRh
_chemical_formula_sum   'Zr50 Sc50 Nb50 Pd50 Rh50'
_cell_volume   4542.36645601
_cell_formula_units_Z   50
loop_
 _symmetry_equiv_pos_site_id
 _symmetry_equiv_pos_as_xyz
  1  'x, y, z'
loop_
 _atom_site_type_symbol
 _atom_site_label
 _atom_site_symmetry_multiplicity
 _atom_site_fract_x
 _atom_site_fract_y
 _atom_site_fract_z
 _atom_site_occupancy
  Zr  Zr0  1  0.30266717  0.69554971  0.49964671  1
  Zr  Zr1  1  0.50140899  0.69624544  0.68713200  1
  Zr  Zr2  1  0.09980584  0.50399715  0.50269557  1
  Zr  Zr3  1  0.50658873  0.91181607  0.90640382  1
  Zr  Zr4  1  0.90079058  0.50134879  0.50170988  1
  Zr  Zr5  1  0.90157314  0.70168844  0.50223219  1
  Zr  Zr6  1  0.70566062  0.89321313  0.90875392  1
  Zr  Zr7  1  0.11481672  0.10814925  0.30168582  1
  Zr  Zr8  1  0.49770595  0.69716795  0.89564750  1
  Zr  Zr9  1  0.10480324  0.89796784  0.69872972  1
  Zr  Zr10  1  0.09773488  0.70038422  0.09629027  1
  Zr  Zr11  1  0.90012491  0.11040711  0.50380994  1
  Zr  Zr12  1  0.09709053  0.10252730  0.90645810  1
  Zr  Zr13  1  0.09921847  0.70250253  0.29933082  1
  Zr  Zr14  1  0.49565313  0.50084794  0.90233841  1
  Zr  Zr15  1  0.29905859  0.10049374  0.49371233  1
  Zr  Zr16  1  0.29874579  0.90555469  0.69689404  1
  Zr  Zr17  1  0.90424058  0.29671930  0.89340044  1
  Zr  Zr18  1  0.49681104  0.09805073  0.08740486  1
  Zr  Zr19  1  0.70974084  0.10492832  0.69657418  1
  Zr  Zr20  1  0.09592210  0.89105535  0.50149924  1
  Zr  Zr21  1  0.49827929  0.69914072  0.09285081  1
  Zr  Zr22  1  0.29256655  0.89679669  0.89615825  1
  Zr  Zr23  1  0.10584786  0.49569124  0.09723076  1
  Zr  Zr24  1  0.70113706  0.50254740  0.10221732  1
  Zr  Zr25  1  0.10371059  0.10335085  0.70619821  1
  Zr  Zr26  1  0.09738216  0.90813043  0.09743389  1
  Zr  Zr27  1  0.69398964  0.10748990  0.11649171  1
  Zr  Zr28  1  0.89643071  0.28655986  0.69980218  1
  Zr  Zr29  1  0.29702575  0.30576024  0.90241686  1
  Zr  Zr30  1  0.69823541  0.89294634  0.50298143  1
  Zr  Zr31  1  0.50082591  0.90506433  0.10001022  1
  Zr  Zr32  1  0.10275396  0.50606687  0.70180946  1
  Zr  Zr33  1  0.49050095  0.69946190  0.29733176  1
  Zr  Zr34  1  0.29953364  0.29319812  0.30494320  1
  Zr  Zr35  1  0.29654149  0.90998439  0.09451154  1
  Zr  Zr36  1  0.09492562  0.69674191  0.69880781  1
  Zr  Zr37  1  0.90257806  0.30673838  0.50102033  1
  Zr  Zr38  1  0.50334966  0.09650852  0.70295181  1
  Zr  Zr39  1  0.90879175  0.29864582  0.10269816  1
  Zr  Zr40  1  0.30195488  0.69218822  0.10186157  1
  Zr  Zr41  1  0.50260432  0.49217490  0.69884668  1
  Zr  Zr42  1  0.69501372  0.49327288  0.89091344  1
  Zr  Zr43  1  0.89909264  0.50592443  0.30123849  1
  Zr  Zr44  1  0.70306766  0.29064501  0.28946930  1
  Zr  Zr45  1  0.49226084  0.30531308  0.30104185  1
  Zr  Zr46  1  0.50019848  0.30455115  0.50829847  1
  Zr  Zr47  1  0.10114798  0.29711495  0.10309013  1
  Zr  Zr48  1  0.69597343  0.69303829  0.50751583  1
  Zr  Zr49  1  0.88482852  0.10484837  0.30145826  1
  Sc  Sc50  1  0.30471763  0.69869663  0.70403642  1
  Sc  Sc51  1  0.10005482  0.30033893  0.70880214  1
  Sc  Sc52  1  0.31437405  0.29928908  0.49700042  1
  Sc  Sc53  1  0.49927280  0.30340160  0.10042062  1
  Sc  Sc54  1  0.69851102  0.51654599  0.29614128  1
  Sc  Sc55  1  0.89400915  0.89076319  0.50207316  1
  Sc  Sc56  1  0.29644819  0.10473662  0.90849622  1
  Sc  Sc57  1  0.70813869  0.90324704  0.69552816  1
  Sc  Sc58  1  0.89602433  0.10122086  0.89792194  1
  Sc  Sc59  1  0.69808236  0.09237531  0.90460921  1
  Sc  Sc60  1  0.68637633  0.30068947  0.09719308  1
  Sc  Sc61  1  0.70237048  0.69909295  0.89913986  1
  Sc  Sc62  1  0.49986272  0.10294369  0.51165912  1
  Sc  Sc63  1  0.69982953  0.29870435  0.51633759  1
  Sc  Sc64  1  0.30124082  0.09520926  0.70100116  1
  Sc  Sc65  1  0.89897726  0.89586654  0.29443138  1
  Sc  Sc66  1  0.89883621  0.49741821  0.70364087  1
  Sc  Sc67  1  0.90681753  0.09815886  0.10151890  1
  Sc  Sc68  1  0.49372105  0.49840596  0.09870294  1
  Sc  Sc69  1  0.70127111  0.50070790  0.69723255  1
  Sc  Sc70  1  0.49664397  0.49810557  0.29289384  1
  Sc  Sc71  1  0.09889891  0.69771218  0.49804393  1
  Sc  Sc72  1  0.89161807  0.70290573  0.69749736  1
  Sc  Sc73  1  0.89410000  0.89829066  0.10067441  1
  Sc  Sc74  1  0.70194582  0.30695585  0.70321657  1
  Sc  Sc75  1  0.29432620  0.30893189  0.09561627  1
  Sc  Sc76  1  0.89357280  0.70848770  0.10548461  1
  Sc  Sc77  1  0.50650604  0.30713422  0.91296904  1
  Sc  Sc78  1  0.29611433  0.69331485  0.29952446  1
  Sc  Sc79  1  0.10412910  0.29240288  0.90078411  1
  Sc  Sc80  1  0.30303512  0.50025476  0.29145879  1
  Sc  Sc81  1  0.09419835  0.89809340  0.29783615  1
  Sc  Sc82  1  0.29958535  0.49744067  0.70074872  1
  Sc  Sc83  1  0.91279352  0.49762063  0.09628426  1
  Sc  Sc84  1  0.49402788  0.90458966  0.69920584  1
  Sc  Sc85  1  0.70403110  0.09244482  0.50135017  1
  Sc  Sc86  1  0.08920731  0.30116227  0.49797813  1
  Sc  Sc87  1  0.70069669  0.91522377  0.30289348  1
  Sc  Sc88  1  0.30048668  0.30782740  0.70348674  1
  Sc  Sc89  1  0.30259548  0.89732293  0.29540731  1
  Sc  Sc90  1  0.89230279  0.70696382  0.29694073  1
  Sc  Sc91  1  0.10547100  0.09894258  0.49718423  1
  Sc  Sc92  1  0.89586915  0.70085231  0.88879710  1
  Sc  Sc93  1  0.10563225  0.10037024  0.10146981  1
  Sc  Sc94  1  0.29379905  0.90117353  0.50295400  1
  Sc  Sc95  1  0.70476062  0.70375331  0.09809081  1
  Sc  Sc96  1  0.51476831  0.08895416  0.28582521  1
  Sc  Sc97  1  0.10577987  0.50442336  0.30298318  1
  Sc  Sc98  1  0.91224124  0.29647306  0.30739739  1
  Sc  Sc99  1  0.49802921  0.89737122  0.50564136  1
  Nb  Nb100  1  0.29779402  0.10089536  0.30085437  1
  Nb  Nb101  1  0.69914130  0.49722527  0.49905946  1
  Nb  Nb102  1  0.29541502  0.09858431  0.10708490  1
  Nb  Nb103  1  0.50266477  0.10250654  0.90225706  1
  Nb  Nb104  1  0.89959209  0.49974682  0.90058350  1
  Nb  Nb105  1  0.69567892  0.70357142  0.29437709  1
  Nb  Nb106  1  0.69719241  0.70443864  0.70198326  1
  Nb  Nb107  1  0.30472559  0.49475952  0.50198653  1
  Nb  Nb108  1  0.29746868  0.50091971  0.90336876  1
  Nb  Nb109  1  0.90006233  0.89894024  0.70096872  1
  Nb  Nb110  1  0.69745232  0.89139588  0.09239796  1
  Nb  Nb111  1  0.10478469  0.30075279  0.30503502  1
  Nb  Nb112  1  0.29974494  0.69569111  0.90011374  1
  Nb  Nb113  1  0.50245273  0.69457117  0.50245804  1
  Nb  Nb114  1  0.09876689  0.89741437  0.89876992  1
  Nb  Nb115  1  0.69812142  0.10500299  0.30221790  1
  Nb  Nb116  1  0.09305667  0.51353234  0.89779469  1
  Nb  Nb117  1  0.50163487  0.50119015  0.50399958  1
  Nb  Nb118  1  0.50240742  0.89702983  0.30089508  1
  Nb  Nb119  1  0.29814515  0.49985736  0.09309993  1
  Nb  Nb120  1  0.10324578  0.69904733  0.89408510  1
  Nb  Nb121  1  0.50756260  0.29431730  0.69778289  1
  Nb  Nb122  1  0.89632209  0.89687144  0.89668295  1
  Nb  Nb123  1  0.90017437  0.09421638  0.69988576  1
  Nb  Nb124  1  0.70039766  0.29735830  0.90145807  1
  Nb  Nb125  1  0.59913335  0.80359815  0.20406319  1
  Nb  Nb126  1  0.60040844  0.80079839  0.79611036  1
  Nb  Nb127  1  0.80355638  0.39950196  0.19972209  1
  Nb  Nb128  1  0.00290567  0.80340163  -0.01251090  1
  Nb  Nb129  1  0.20201303  0.20219698  0.59915473  1
  Nb  Nb130  1  0.79186686  0.40261503  0.39798946  1
  Nb  Nb131  1  -0.00330388  -0.00829879  0.79965369  1
  Nb  Nb132  1  0.80536677  0.58999836  -0.00557769  1
  Nb  Nb133  1  0.39368910  0.19186125  0.19916490  1
  Nb  Nb134  1  0.60480675  0.40105670  0.40296933  1
  Nb  Nb135  1  0.39558402  0.79938672  -0.00599389  1
  Nb  Nb136  1  0.41092408  0.20162132  0.80474846  1
  Nb  Nb137  1  0.20249609  0.40029214  0.40294848  1
  Nb  Nb138  1  0.19821931  0.59940759  -0.00872643  1
  Nb  Nb139  1  -0.00388187  -0.00081196  0.60406674  1
  Nb  Nb140  1  0.00240143  0.60298314  0.19906522  1
  Nb  Nb141  1  0.59561004  0.79308129  0.39574191  1
  Nb  Nb142  1  0.19853994  0.80031291  0.19204467  1
  Nb  Nb143  1  0.40514415  0.59709303  0.40951483  1
  Nb  Nb144  1  0.60295227  0.20144659  0.39774731  1
  Nb  Nb145  1  0.80221664  0.39790003  -0.00189784  1
  Nb  Nb146  1  0.59799181  0.20000430  0.80368271  1
  Nb  Nb147  1  0.40311531  0.00084025  0.39305639  1
  Nb  Nb148  1  0.79771484  0.20675201  0.00161742  1
  Nb  Nb149  1  -0.00384295  0.00308144  0.40356229  1
  Pd  Pd150  1  0.00918043  0.19687702  0.60320025  1
  Pd  Pd151  1  0.20517132  0.60309490  0.60179272  1
  Pd  Pd152  1  0.19729983  0.00452461  0.80669222  1
  Pd  Pd153  1  0.59402917  0.59827875  0.39776986  1
  Pd  Pd154  1  0.00113396  0.00832627  0.21226454  1
  Pd  Pd155  1  0.19943878  -0.01199077  0.39484134  1
  Pd  Pd156  1  0.60996843  -0.00304152  0.79645005  1
  Pd  Pd157  1  0.79074494  0.21070936  0.41018969  1
  Pd  Pd158  1  0.80190575  0.39820205  0.79966054  1
  Pd  Pd159  1  0.79568773  -0.00311670  0.19382921  1
  Pd  Pd160  1  0.79113424  0.79786236  0.39502540  1
  Pd  Pd161  1  0.00676776  0.40115286  0.80168460  1
  Pd  Pd162  1  -0.00175758  0.80009725  0.79931189  1
  Pd  Pd163  1  0.60155877  -0.00263208  0.60168921  1
  Pd  Pd164  1  0.80677758  -0.00322008  0.40604000  1
  Pd  Pd165  1  0.39386110  0.20546756  0.00250883  1
  Pd  Pd166  1  0.20186765  0.39042908  0.59166369  1
  Pd  Pd167  1  0.20381777  0.39774724  0.20817921  1
  Pd  Pd168  1  0.19147706  0.40634640  0.80659550  1
  Pd  Pd169  1  0.39848945  0.00403168  0.20523152  1
  Pd  Pd170  1  -0.01074097  0.60309009  0.79378289  1
  Pd  Pd171  1  0.41760213  0.18319852  0.39011383  1
  Pd  Pd172  1  0.39728942  0.59507225  0.79301214  1
  Pd  Pd173  1  0.20012813  0.79397084  0.00130068  1
  Pd  Pd174  1  0.60527194  0.40342737  0.20634682  1
  Pd  Pd175  1  0.39647500  0.80285570  0.19128134  1
  Pd  Pd176  1  0.60125534  0.60499808  0.79433669  1
  Pd  Pd177  1  0.40707692  0.39251283  0.80326862  1
  Pd  Pd178  1  0.00153005  0.40655577  0.21084509  1
  Pd  Pd179  1  0.20159790  0.79338022  0.79284976  1
  Pd  Pd180  1  0.59221717  0.00283342  0.40812213  1
  Pd  Pd181  1  0.80025341  0.59717188  0.60607080  1
  Pd  Pd182  1  0.39167088  0.20088828  0.61219546  1
  Pd  Pd183  1  -0.00008932  0.40093788  0.61104547  1
  Pd  Pd184  1  0.20409507  0.78929638  0.60283476  1
  Pd  Pd185  1  0.00269269  0.19182587  0.20758977  1
  Pd  Pd186  1  0.39502119  0.00736941  0.80895221  1
  Pd  Pd187  1  0.40722783  0.80456050  0.80268950  1
  Pd  Pd188  1  0.20355278  0.80224512  0.39205216  1
  Pd  Pd189  1  -0.00782236  -0.00469037  -0.00691437  1
  Pd  Pd190  1  0.59389022  0.60718978  0.19399441  1
  Pd  Pd191  1  0.60841784  0.59912958  -0.00100038  1
  Pd  Pd192  1  0.00533163  0.39422286  -0.01076217  1
  Pd  Pd193  1  0.79993825  -0.00106182  0.80240682  1
  Pd  Pd194  1  -0.00596170  0.61138754  0.00169955  1
  Pd  Pd195  1  0.39724906  0.80320541  0.59736927  1
  Pd  Pd196  1  -0.00143239  0.60627602  0.39499382  1
  Pd  Pd197  1  0.79863654  0.00892724  0.01021099  1
  Pd  Pd198  1  0.40201753  0.80091422  0.40659034  1
  Pd  Pd199  1  0.79669094  0.60274397  0.40073067  1
  Rh  Rh200  1  0.79217393  0.19638427  0.80665294  1
  Rh  Rh201  1  0.19911066  0.00646626  -0.00446927  1
  Rh  Rh202  1  0.60394240  0.59259881  0.60448921  1
  Rh  Rh203  1  0.00506722  0.18944198  0.39410107  1
  Rh  Rh204  1  0.20139126  0.19956709  0.00857872  1
  Rh  Rh205  1  0.79724465  0.79768190  0.60350403  1
  Rh  Rh206  1  -0.00187181  0.80066164  0.60215841  1
  Rh  Rh207  1  -0.00383551  0.19860982  0.00025373  1
  Rh  Rh208  1  0.59506253  0.39017650  0.79989222  1
  Rh  Rh209  1  0.59141343  0.79711462  -0.00333271  1
  Rh  Rh210  1  0.60186377  0.40445209  0.59869134  1
  Rh  Rh211  1  0.60683318  0.19602394  0.60319444  1
  Rh  Rh212  1  0.79769371  0.59945918  0.80138385  1
  Rh  Rh213  1  0.39228776  0.39467810  0.19233873  1
  Rh  Rh214  1  0.40238803  0.40033682  0.60628537  1
  Rh  Rh215  1  0.19474993  0.00876351  0.59852309  1
  Rh  Rh216  1  0.59944959  0.80254903  0.60304143  1
  Rh  Rh217  1  0.58341722  0.20514648  0.20474869  1
  Rh  Rh218  1  0.39527289  -0.00234524  0.58933828  1
  Rh  Rh219  1  0.80829384  -0.00367706  0.59405558  1
  Rh  Rh220  1  0.00542975  0.40490825  0.39591568  1
  Rh  Rh221  1  0.81045397  0.79099763  -0.00420854  1
  Rh  Rh222  1  -0.00437458  0.60129533  0.60370403  1
  Rh  Rh223  1  0.80758632  0.20691421  0.19128424  1
  Rh  Rh224  1  0.60666628  0.19466354  -0.00493105  1
  Rh  Rh225  1  0.00573299  0.79658960  0.19150726  1
  Rh  Rh226  1  0.20573006  0.59852042  0.80270580  1
  Rh  Rh227  1  0.21259937  0.58915470  0.40625646  1
  Rh  Rh228  1  0.39088260  -0.00081693  -0.00737537  1
  Rh  Rh229  1  -0.00321329  0.19064464  0.79993121  1
  Rh  Rh230  1  0.81187999  0.59339219  0.18812945  1
  Rh  Rh231  1  0.79077641  0.80182471  0.79599734  1
  Rh  Rh232  1  0.39764772  0.59244917  0.59869670  1
  Rh  Rh233  1  0.39289829  0.59927348  -0.00268677  1
  Rh  Rh234  1  0.60892876  -0.01021492  0.19357378  1
  Rh  Rh235  1  0.19230989  0.40724915  -0.01069650  1
  Rh  Rh236  1  0.79872118  0.20225421  0.59956129  1
  Rh  Rh237  1  0.40075350  0.59305205  0.20059616  1
  Rh  Rh238  1  0.60230897  0.40759568  0.00058479  1
  Rh  Rh239  1  0.20593988  0.20697301  0.19491287  1
  Rh  Rh240  1  0.19434093  0.60267938  0.19105079  1
  Rh  Rh241  1  0.78473264  0.81049834  0.20479184  1
  Rh  Rh242  1  0.80441583  0.40230690  0.59745451  1
  Rh  Rh243  1  0.19811445  -0.00684026  0.20584036  1
  Rh  Rh244  1  0.40210294  0.41309010  0.40065216  1
  Rh  Rh245  1  -0.00532893  0.80450057  0.40107651  1
  Rh  Rh246  1  0.21560085  0.20281822  0.79343189  1
  Rh  Rh247  1  0.39985176  0.40253292  0.00298781  1
  Rh  Rh248  1  0.61121456  0.00610798  0.00867990  1
  Rh  Rh249  1  0.19726597  0.21413582  0.41292472  1
