# generated using pymatgen
data_ZrScNbPdRh
_symmetry_space_group_name_H-M   'P 1'
_cell_length_a   16.56411688
_cell_length_b   16.56536914
_cell_length_c   16.56270437
_cell_angle_alpha   90.00852924
_cell_angle_beta   90.00896934
_cell_angle_gamma   89.97558117
_symmetry_Int_Tables_number   1
_chemical_formula_structural   ZrScNbPdRh
_chemical_formula_sum   'Zr50 Sc50 Nb50 Pd50 Rh50'
_cell_volume   4544.65170305
_cell_formula_units_Z   50
loop_
 _symmetry_equiv_pos_site_id
 _symmetry_equiv_pos_as_xyz
  1  'x, y, z'
loop_
 _atom_site_type_symbol
 _atom_site_label
 _atom_site_symmetry_multiplicity
 _atom_site_fract_x
 _atom_site_fract_y
 _atom_site_fract_z
 _atom_site_occupancy
  Zr  Zr0  1  0.10264945  0.50738334  0.90289283  1
  Zr  Zr1  1  0.90029921  0.89980106  0.29538887  1
  Zr  Zr2  1  0.49945346  0.70514589  0.90370600  1
  Zr  Zr3  1  0.69775622  0.10950559  0.29485630  1
  Zr  Zr4  1  0.69733646  0.10552455  0.70744830  1
  Zr  Zr5  1  0.49818652  0.09202715  0.70780656  1
  Zr  Zr6  1  0.70386933  0.29665957  0.30805187  1
  Zr  Zr7  1  0.50802114  0.10362871  0.10226859  1
  Zr  Zr8  1  0.10331174  0.91501483  0.49948368  1
  Zr  Zr9  1  0.30306100  0.09640357  0.89332329  1
  Zr  Zr10  1  0.70326139  0.50059955  0.30156297  1
  Zr  Zr11  1  0.09986993  0.89705584  0.09300770  1
  Zr  Zr12  1  0.10462431  0.69622372  0.69569710  1
  Zr  Zr13  1  0.30365004  0.90474024  0.69822809  1
  Zr  Zr14  1  0.29670617  0.09730612  0.09697603  1
  Zr  Zr15  1  0.29591442  0.29785777  0.10412584  1
  Zr  Zr16  1  0.89662806  0.90465831  0.49448345  1
  Zr  Zr17  1  0.49026594  0.31059097  0.50053456  1
  Zr  Zr18  1  0.09988895  0.89859152  0.90175008  1
  Zr  Zr19  1  0.29750593  0.09844712  0.70041985  1
  Zr  Zr20  1  0.90024699  0.90339271  0.90320544  1
  Zr  Zr21  1  0.50102084  0.90932987  0.50811499  1
  Zr  Zr22  1  0.89622245  0.09635683  0.30507404  1
  Zr  Zr23  1  0.10531944  0.69060764  0.29771401  1
  Zr  Zr24  1  0.70037269  0.69582985  0.70190191  1
  Zr  Zr25  1  0.89898818  0.69481812  0.69693545  1
  Zr  Zr26  1  0.10882130  0.30351323  0.30167253  1
  Zr  Zr27  1  0.50188804  0.71030975  0.50713420  1
  Zr  Zr28  1  0.89359040  0.69843505  0.89924296  1
  Zr  Zr29  1  0.90026101  0.49774053  0.09959395  1
  Zr  Zr30  1  0.90077483  0.30150235  0.90347830  1
  Zr  Zr31  1  0.10568580  0.90496096  0.69750167  1
  Zr  Zr32  1  0.89719588  0.09982749  0.50251797  1
  Zr  Zr33  1  0.10042144  0.30027568  0.10751977  1
  Zr  Zr34  1  0.70691330  0.50425233  0.09514143  1
  Zr  Zr35  1  0.29983654  0.69488204  0.90359388  1
  Zr  Zr36  1  0.10330329  0.09937408  0.30428969  1
  Zr  Zr37  1  0.69540668  0.69497764  0.89858616  1
  Zr  Zr38  1  0.89379878  0.49817761  0.91123731  1
  Zr  Zr39  1  0.69330842  0.89596924  0.51152928  1
  Zr  Zr40  1  0.50103592  0.09991355  0.31181200  1
  Zr  Zr41  1  0.49636726  0.69458651  0.09660729  1
  Zr  Zr42  1  0.70093618  0.29786399  0.89024217  1
  Zr  Zr43  1  0.50473811  0.88237350  0.09919361  1
  Zr  Zr44  1  0.30022444  0.89441535  0.09142816  1
  Zr  Zr45  1  0.10622726  0.69999119  0.89448935  1
  Zr  Zr46  1  0.69545652  0.29301432  0.10458485  1
  Zr  Zr47  1  0.09875533  0.49651053  0.10053463  1
  Zr  Zr48  1  0.89327595  0.89759319  0.09613185  1
  Zr  Zr49  1  0.89494080  0.69954219  0.30440844  1
  Sc  Sc50  1  0.09662556  0.10182031  0.89347255  1
  Sc  Sc51  1  0.70186468  0.89013244  0.30007633  1
  Sc  Sc52  1  0.89652467  0.50089458  0.29613983  1
  Sc  Sc53  1  0.29955681  0.49563192  0.90134658  1
  Sc  Sc54  1  0.31078377  0.50074507  0.09501758  1
  Sc  Sc55  1  0.90319532  0.30528069  0.29954849  1
  Sc  Sc56  1  0.10574429  0.49172593  0.30122972  1
  Sc  Sc57  1  0.48951886  0.48894074  0.68571764  1
  Sc  Sc58  1  0.88534956  0.30332774  0.69449466  1
  Sc  Sc59  1  0.70024001  0.49513441  0.49169031  1
  Sc  Sc60  1  0.49760975  0.50047396  0.49023645  1
  Sc  Sc61  1  0.49594624  0.70605518  0.70619200  1
  Sc  Sc62  1  0.89680708  0.69986690  0.10395103  1
  Sc  Sc63  1  0.49028522  0.30209909  0.10254338  1
  Sc  Sc64  1  0.70550749  0.70185651  0.49707262  1
  Sc  Sc65  1  0.90000510  0.09918010  0.10101346  1
  Sc  Sc66  1  0.49777321  0.29792167  0.89376855  1
  Sc  Sc67  1  0.89208003  0.69395379  0.50197568  1
  Sc  Sc68  1  0.29950261  0.09457658  0.49159977  1
  Sc  Sc69  1  0.70478166  0.69553921  0.30436390  1
  Sc  Sc70  1  0.90255488  0.09958117  0.70303046  1
  Sc  Sc71  1  0.29874958  0.70423827  0.70261870  1
  Sc  Sc72  1  0.09289078  0.90541506  0.29977581  1
  Sc  Sc73  1  0.09466086  0.50625512  0.69581927  1
  Sc  Sc74  1  0.90806698  0.30469151  0.09483477  1
  Sc  Sc75  1  0.10201710  0.29799064  0.90774256  1
  Sc  Sc76  1  0.30597931  0.90388624  0.49992614  1
  Sc  Sc77  1  0.10421815  0.69177830  0.09548834  1
  Sc  Sc78  1  0.30193247  0.69573290  0.50387772  1
  Sc  Sc79  1  0.29732418  0.50270067  0.70264454  1
  Sc  Sc80  1  0.70397841  0.50769250  0.89780894  1
  Sc  Sc81  1  0.90632042  0.48797809  0.50590432  1
  Sc  Sc82  1  0.30400341  0.30537880  0.71362680  1
  Sc  Sc83  1  0.69600524  0.70780752  0.09714663  1
  Sc  Sc84  1  0.90530279  0.09718788  0.89738923  1
  Sc  Sc85  1  0.49237538  0.29587413  0.30302365  1
  Sc  Sc86  1  0.50238250  0.89974833  0.69668157  1
  Sc  Sc87  1  0.09818235  0.30162831  0.70763170  1
  Sc  Sc88  1  0.49488156  0.50831376  0.90656663  1
  Sc  Sc89  1  0.69872495  0.09920144  0.09948953  1
  Sc  Sc90  1  0.30651199  0.50720833  0.30222104  1
  Sc  Sc91  1  0.89758701  0.91373214  0.69582082  1
  Sc  Sc92  1  0.30882158  0.49714912  0.49851122  1
  Sc  Sc93  1  0.10002667  0.10968854  0.09764804  1
  Sc  Sc94  1  0.49812648  0.89159417  0.30962713  1
  Sc  Sc95  1  0.69928652  0.10171497  0.49305040  1
  Sc  Sc96  1  0.49478721  0.70312187  0.29611770  1
  Sc  Sc97  1  0.30241783  0.10566140  0.30632579  1
  Sc  Sc98  1  0.29228725  0.89523660  0.89942388  1
  Sc  Sc99  1  0.89660047  0.50158264  0.69451647  1
  Nb  Nb100  1  0.50129016  0.29994679  0.69451373  1
  Nb  Nb101  1  0.69872451  0.90037723  0.70274507  1
  Nb  Nb102  1  0.69559599  0.30186288  0.69532671  1
  Nb  Nb103  1  0.29549941  0.29813377  0.49055452  1
  Nb  Nb104  1  0.09588317  0.49412534  0.50041950  1
  Nb  Nb105  1  0.30884305  0.70257825  0.10247135  1
  Nb  Nb106  1  0.09958394  0.09904642  0.69032930  1
  Nb  Nb107  1  0.10049223  0.69769192  0.50111456  1
  Nb  Nb108  1  0.90414380  0.29937990  0.50528133  1
  Nb  Nb109  1  0.69699602  0.49906602  0.69830556  1
  Nb  Nb110  1  0.71554597  0.29625469  0.50868503  1
  Nb  Nb111  1  0.29971225  0.70330076  0.29588314  1
  Nb  Nb112  1  0.69725543  0.90048220  0.09575071  1
  Nb  Nb113  1  0.29721757  0.29826880  0.30990005  1
  Nb  Nb114  1  0.30122315  0.89967361  0.29936701  1
  Nb  Nb115  1  0.49923882  0.09981621  0.50614015  1
  Nb  Nb116  1  0.09649954  0.30944020  0.49466844  1
  Nb  Nb117  1  0.50351719  0.49950587  0.29649919  1
  Nb  Nb118  1  0.10027000  0.10204451  0.49938885  1
  Nb  Nb119  1  0.69772949  0.90326616  0.90721236  1
  Nb  Nb120  1  0.50094889  0.49805215  0.10133885  1
  Nb  Nb121  1  0.50806105  0.90685718  0.90061563  1
  Nb  Nb122  1  0.50696469  0.09384145  0.89909963  1
  Nb  Nb123  1  0.30399942  0.29993066  0.90652235  1
  Nb  Nb124  1  0.68294992  0.09999462  0.90073330  1
  Nb  Nb125  1  0.00640017  0.20373891  0.59513952  1
  Nb  Nb126  1  0.20564810  -0.00557043  0.19971876  1
  Nb  Nb127  1  0.19635452  0.39335470  0.59265578  1
  Nb  Nb128  1  0.19906256  0.79750579  0.39547386  1
  Nb  Nb129  1  0.60106217  0.59795394  0.60126466  1
  Nb  Nb130  1  0.00587814  0.59886807  0.40571435  1
  Nb  Nb131  1  0.19825225  0.20479443  0.59382655  1
  Nb  Nb132  1  0.00262773  0.20382117  0.40728466  1
  Nb  Nb133  1  0.79761133  0.80826107  0.80059271  1
  Nb  Nb134  1  0.59704901  -0.00741192  0.19859677  1
  Nb  Nb135  1  0.59814886  0.40395957  0.20045722  1
  Nb  Nb136  1  0.59922813  0.40183127  0.00027673  1
  Nb  Nb137  1  0.79391695  0.19887902  -0.00750993  1
  Nb  Nb138  1  -0.00342386  0.80074395  0.79367702  1
  Nb  Nb139  1  0.39895760  0.20166814  0.59902090  1
  Nb  Nb140  1  0.00596486  0.79374480  0.40582777  1
  Nb  Nb141  1  0.20526726  0.79965690  0.20328173  1
  Nb  Nb142  1  0.40221243  -0.00523893  0.19802477  1
  Nb  Nb143  1  0.59658946  0.59282246  0.19924805  1
  Nb  Nb144  1  -0.00461119  0.40376132  0.80582518  1
  Nb  Nb145  1  0.41023663  0.00077672  -0.00160366  1
  Nb  Nb146  1  0.59551536  0.20580651  0.60051172  1
  Nb  Nb147  1  0.60069832  0.39987504  0.79325022  1
  Nb  Nb148  1  0.00289940  0.80058460  0.59679523  1
  Nb  Nb149  1  0.39910465  0.19473742  -0.00615052  1
  Pd  Pd150  1  0.79219308  0.58999215  0.59120337  1
  Pd  Pd151  1  0.20403056  0.58877759  0.59457835  1
  Pd  Pd152  1  0.19175325  0.40382889  0.79758717  1
  Pd  Pd153  1  0.59766867  0.21064585  0.41201674  1
  Pd  Pd154  1  0.21093353  0.59707565  0.19147512  1
  Pd  Pd155  1  0.40596010  0.60649116  0.39814242  1
  Pd  Pd156  1  0.79789502  0.39326597  0.19625121  1
  Pd  Pd157  1  0.39318464  0.79755869  0.40698210  1
  Pd  Pd158  1  0.20081395  0.40172472  0.00214458  1
  Pd  Pd159  1  0.20239047  0.19769823  -0.00720013  1
  Pd  Pd160  1  0.39812363  0.80829954  0.80489251  1
  Pd  Pd161  1  0.19812234  0.20357310  0.79734479  1
  Pd  Pd162  1  0.40461626  0.20022807  0.79970200  1
  Pd  Pd163  1  0.60357793  0.80680926  0.80087518  1
  Pd  Pd164  1  -0.00430372  0.20025294  0.20862041  1
  Pd  Pd165  1  0.60529220  -0.00599819  0.39373581  1
  Pd  Pd166  1  0.00807684  0.79530944  0.20326557  1
  Pd  Pd167  1  -0.00460057  0.20715875  0.79201597  1
  Pd  Pd168  1  0.00586865  0.00350197  0.19122349  1
  Pd  Pd169  1  -0.00139441  0.79076112  -0.00349668  1
  Pd  Pd170  1  0.60497760  0.40329089  0.59510150  1
  Pd  Pd171  1  0.80502008  0.19391494  0.80369661  1
  Pd  Pd172  1  0.39806928  0.40018296  0.20714842  1
  Pd  Pd173  1  0.78978370  -0.00179242  0.19922218  1
  Pd  Pd174  1  -0.00271332  0.60637428  0.00226025  1
  Pd  Pd175  1  0.20040640  0.59706322  0.40672942  1
  Pd  Pd176  1  0.39559540  0.19428737  0.19996354  1
  Pd  Pd177  1  0.79942656  0.40864170  0.79609765  1
  Pd  Pd178  1  0.59542630  0.21038987  -0.00399232  1
  Pd  Pd179  1  0.81138448  0.20476472  0.19258558  1
  Pd  Pd180  1  0.80902755  0.39917599  0.40471818  1
  Pd  Pd181  1  0.20216107  0.80325653  0.59108625  1
  Pd  Pd182  1  0.40554400  0.60391430  0.60378192  1
  Pd  Pd183  1  0.78618855  -0.00505377  0.39680285  1
  Pd  Pd184  1  0.19485657  0.00124260  0.80320063  1
  Pd  Pd185  1  0.21357971  0.40843884  0.20172163  1
  Pd  Pd186  1  0.79473994  0.01134051  -0.00456337  1
  Pd  Pd187  1  0.00444459  0.00841293  0.00401286  1
  Pd  Pd188  1  0.58529159  0.58735963  0.78954465  1
  Pd  Pd189  1  0.59466000  0.60794343  0.40135026  1
  Pd  Pd190  1  -0.00142935  0.59516216  0.20624151  1
  Pd  Pd191  1  0.80584339  0.80371674  0.60614570  1
  Pd  Pd192  1  0.40756612  0.40629530  0.80596937  1
  Pd  Pd193  1  0.60328332  0.79525345  0.39888418  1
  Pd  Pd194  1  0.79352272  0.00163038  0.80659596  1
  Pd  Pd195  1  -0.00529865  0.59606322  0.80108194  1
  Pd  Pd196  1  0.40205165  0.59539524  0.79654874  1
  Pd  Pd197  1  0.78988274  0.00878947  0.60048324  1
  Pd  Pd198  1  0.59956005  0.39200347  0.39745232  1
  Pd  Pd199  1  0.79421082  0.79568216  0.19799460  1
  Rh  Rh200  1  0.79499594  0.80028654  -0.00465972  1
  Rh  Rh201  1  0.00613724  -0.00441884  0.79535563  1
  Rh  Rh202  1  0.81004189  0.20546679  0.40181205  1
  Rh  Rh203  1  0.59924228  0.59568079  0.00655280  1
  Rh  Rh204  1  0.59388505  0.20395432  0.20760730  1
  Rh  Rh205  1  0.39771986  0.00631907  0.59876900  1
  Rh  Rh206  1  0.60221845  0.79245201  0.60712747  1
  Rh  Rh207  1  -0.00186102  0.60424498  0.59063078  1
  Rh  Rh208  1  0.19506582  0.00526181  -0.00059994  1
  Rh  Rh209  1  0.79616354  0.40462707  0.59758486  1
  Rh  Rh210  1  0.20816510  0.59880240  0.00474272  1
  Rh  Rh211  1  0.79940734  0.19467320  0.60260354  1
  Rh  Rh212  1  0.59184468  0.20623474  0.79341587  1
  Rh  Rh213  1  0.79298299  0.60496553  0.19787487  1
  Rh  Rh214  1  0.00616701  0.39273630  0.61462118  1
  Rh  Rh215  1  -0.00418080  0.40235778  0.39251921  1
  Rh  Rh216  1  0.38114225  0.38979570  0.60132723  1
  Rh  Rh217  1  0.01086852  0.40058851  -0.00350819  1
  Rh  Rh218  1  0.39721720  0.80240162  0.60150007  1
  Rh  Rh219  1  0.19738120  0.79935929  0.79662570  1
  Rh  Rh220  1  0.20490500  -0.00454280  0.39338359  1
  Rh  Rh221  1  0.80281762  0.59775899  0.79841749  1
  Rh  Rh222  1  0.40174664  0.19893340  0.40893414  1
  Rh  Rh223  1  0.59846760  -0.00432948  0.00860522  1
  Rh  Rh224  1  0.20460215  0.19449702  0.20788292  1
  Rh  Rh225  1  0.80463306  0.80464878  0.40225879  1
  Rh  Rh226  1  0.19391160  0.19982189  0.40184520  1
  Rh  Rh227  1  0.39992552  0.80495641  -0.01173858  1
  Rh  Rh228  1  0.40238396  -0.01008281  0.80742827  1
  Rh  Rh229  1  0.60456021  0.79725707  -0.00647254  1
  Rh  Rh230  1  0.39730192  0.59993368  -0.00027080  1
  Rh  Rh231  1  0.79980786  0.60991734  0.00497058  1
  Rh  Rh232  1  0.78669254  0.38732877  0.00384076  1
  Rh  Rh233  1  0.60445507  -0.00736849  0.79604463  1
  Rh  Rh234  1  -0.00701845  0.19770668  -0.00010249  1
  Rh  Rh235  1  0.40477717  0.60130451  0.20204235  1
  Rh  Rh236  1  0.39685823  0.80144453  0.20162801  1
  Rh  Rh237  1  0.39543409  0.40178456  0.39075683  1
  Rh  Rh238  1  0.20559054  0.59857035  0.79786290  1
  Rh  Rh239  1  0.60372310  0.79592732  0.20416635  1
  Rh  Rh240  1  0.20833981  0.40835230  0.40291948  1
  Rh  Rh241  1  0.00087238  0.40387459  0.20145728  1
  Rh  Rh242  1  0.81077421  0.59093435  0.40410031  1
  Rh  Rh243  1  0.20173870  0.78722308  0.00531375  1
  Rh  Rh244  1  0.20903977  0.00809018  0.59536883  1
  Rh  Rh245  1  -0.00322806  0.00266007  0.40024854  1
  Rh  Rh246  1  0.40219581  -0.00038864  0.39813945  1
  Rh  Rh247  1  0.40537204  0.39142324  -0.00453157  1
  Rh  Rh248  1  -0.00144498  0.00293236  0.60089394  1
  Rh  Rh249  1  0.60575868  0.00925402  0.60624177  1
