# generated using pymatgen
data_ZrScNbPdRh
_symmetry_space_group_name_H-M   'P 1'
_cell_length_a   16.56431840
_cell_length_b   16.56256151
_cell_length_c   16.56129597
_cell_angle_alpha   90.01041388
_cell_angle_beta   89.97536632
_cell_angle_gamma   90.00643002
_symmetry_Int_Tables_number   1
_chemical_formula_structural   ZrScNbPdRh
_chemical_formula_sum   'Zr50 Sc50 Nb50 Pd50 Rh50'
_cell_volume   4543.55032320
_cell_formula_units_Z   50
loop_
 _symmetry_equiv_pos_site_id
 _symmetry_equiv_pos_as_xyz
  1  'x, y, z'
loop_
 _atom_site_type_symbol
 _atom_site_label
 _atom_site_symmetry_multiplicity
 _atom_site_fract_x
 _atom_site_fract_y
 _atom_site_fract_z
 _atom_site_occupancy
  Zr  Zr0  1  0.69761977  0.90602931  0.89744130  1
  Zr  Zr1  1  0.69727793  0.89889885  0.50407318  1
  Zr  Zr2  1  0.89362031  0.90268177  0.89348892  1
  Zr  Zr3  1  0.70816219  0.30030410  0.70098558  1
  Zr  Zr4  1  0.10662176  0.30305756  0.89197766  1
  Zr  Zr5  1  0.29976674  0.09842599  0.49859354  1
  Zr  Zr6  1  0.71240201  0.50915635  0.29820039  1
  Zr  Zr7  1  0.29682082  0.69755702  0.69683928  1
  Zr  Zr8  1  0.51539276  0.30140282  0.69977797  1
  Zr  Zr9  1  0.29874558  0.50094948  0.50051446  1
  Zr  Zr10  1  0.50240646  0.70593211  0.49757364  1
  Zr  Zr11  1  0.89233149  0.90635748  0.50491348  1
  Zr  Zr12  1  0.50374375  0.10428567  0.90257903  1
  Zr  Zr13  1  0.29989703  0.69989685  0.50045253  1
  Zr  Zr14  1  0.69966462  0.29998891  0.50704908  1
  Zr  Zr15  1  0.09701120  0.10444462  0.70000565  1
  Zr  Zr16  1  0.69048642  0.49562168  0.70449643  1
  Zr  Zr17  1  0.89870868  0.10094323  0.10161120  1
  Zr  Zr18  1  0.29676066  0.89526252  0.09842904  1
  Zr  Zr19  1  0.89760007  0.49355678  0.09943380  1
  Zr  Zr20  1  0.90378718  0.69915628  0.09401087  1
  Zr  Zr21  1  0.90375815  0.29641551  0.69549708  1
  Zr  Zr22  1  0.49765231  0.49983791  0.51023976  1
  Zr  Zr23  1  0.09244225  0.50306198  0.09325983  1
  Zr  Zr24  1  0.30136518  0.09918856  0.90106369  1
  Zr  Zr25  1  0.70603131  0.49424302  0.50244933  1
  Zr  Zr26  1  0.50835742  0.69864613  0.30342511  1
  Zr  Zr27  1  0.29836958  0.30693049  0.50286631  1
  Zr  Zr28  1  0.70737706  0.09740252  0.49074815  1
  Zr  Zr29  1  0.50510820  0.90631893  0.09849106  1
  Zr  Zr30  1  0.49638003  0.68728647  0.70708265  1
  Zr  Zr31  1  0.10094725  0.71507145  0.09919361  1
  Zr  Zr32  1  0.70416891  0.69268434  0.10272047  1
  Zr  Zr33  1  0.09349523  0.89986897  0.50264758  1
  Zr  Zr34  1  0.50149972  0.29507373  0.09714458  1
  Zr  Zr35  1  0.90339790  0.30974766  0.29461612  1
  Zr  Zr36  1  0.31031196  0.69778832  0.30439848  1
  Zr  Zr37  1  0.50161362  0.09760827  0.49308654  1
  Zr  Zr38  1  0.70439302  0.09270032  0.10182219  1
  Zr  Zr39  1  0.50304409  0.09156209  0.69707882  1
  Zr  Zr40  1  0.69539266  0.69675631  0.90466334  1
  Zr  Zr41  1  0.50469035  0.29892396  0.49545559  1
  Zr  Zr42  1  0.50246591  0.29544128  0.30276738  1
  Zr  Zr43  1  0.50161907  0.50728108  0.29936399  1
  Zr  Zr44  1  0.09502200  0.48884815  0.70516091  1
  Zr  Zr45  1  0.29367282  0.48984972  0.89922665  1
  Zr  Zr46  1  0.89132026  0.70002597  0.29844284  1
  Zr  Zr47  1  0.09603745  0.70445323  0.30381796  1
  Zr  Zr48  1  0.30727866  0.10172331  0.10405527  1
  Zr  Zr49  1  0.30706007  0.50090497  0.69024849  1
  Sc  Sc50  1  0.29401028  0.90541556  0.49561492  1
  Sc  Sc51  1  0.30243657  0.30081071  0.90468202  1
  Sc  Sc52  1  0.09291416  0.30076847  0.10748209  1
  Sc  Sc53  1  0.29761133  0.70994005  0.88846930  1
  Sc  Sc54  1  0.90231866  0.10135852  0.69599389  1
  Sc  Sc55  1  0.09627774  0.70991496  0.69642790  1
  Sc  Sc56  1  0.90225767  0.50723411  0.90510324  1
  Sc  Sc57  1  0.28668442  0.09515247  0.69409090  1
  Sc  Sc58  1  0.70387755  0.10061675  0.89993600  1
  Sc  Sc59  1  0.08470515  0.70164861  0.90254754  1
  Sc  Sc60  1  0.90510860  0.90265714  0.10158849  1
  Sc  Sc61  1  0.90259596  0.49398738  0.49418839  1
  Sc  Sc62  1  0.70649296  0.50181470  0.09580841  1
  Sc  Sc63  1  0.70712530  0.30308069  0.31329790  1
  Sc  Sc64  1  0.89704442  0.89611668  0.30014297  1
  Sc  Sc65  1  0.09594312  0.48684179  0.30545479  1
  Sc  Sc66  1  0.51100152  0.69254711  0.09822326  1
  Sc  Sc67  1  0.49740296  0.10113622  0.10292721  1
  Sc  Sc68  1  0.70590783  0.30533129  0.08887850  1
  Sc  Sc69  1  0.30506964  0.49452619  0.29713171  1
  Sc  Sc70  1  0.50014834  0.09257801  0.30132626  1
  Sc  Sc71  1  0.09676974  0.89815794  0.89446834  1
  Sc  Sc72  1  0.90233907  0.71421725  0.49829719  1
  Sc  Sc73  1  0.89614700  0.30311224  0.50810524  1
  Sc  Sc74  1  0.10151955  0.09700757  0.51736147  1
  Sc  Sc75  1  0.89605645  0.29625164  0.90512441  1
  Sc  Sc76  1  0.08971534  0.09795538  0.89350461  1
  Sc  Sc77  1  0.09676176  0.49104009  0.49904379  1
  Sc  Sc78  1  0.69970353  0.70258234  0.70468244  1
  Sc  Sc79  1  0.49663209  0.49397129  0.09897255  1
  Sc  Sc80  1  0.29972157  0.30229474  0.29364399  1
  Sc  Sc81  1  0.69774815  0.70717971  0.49391585  1
  Sc  Sc82  1  0.89536979  0.49303125  0.71007082  1
  Sc  Sc83  1  0.70376064  0.49954142  0.90016561  1
  Sc  Sc84  1  0.30054329  0.90583129  0.30458868  1
  Sc  Sc85  1  0.89170342  0.89292165  0.69868793  1
  Sc  Sc86  1  0.09079728  0.09577409  0.10152982  1
  Sc  Sc87  1  0.69534643  0.10319515  0.70409487  1
  Sc  Sc88  1  0.30522169  0.49046923  0.10172857  1
  Sc  Sc89  1  0.31254283  0.30084501  0.10207848  1
  Sc  Sc90  1  0.50459520  0.29991957  0.90836327  1
  Sc  Sc91  1  0.50940673  0.90546057  0.49870570  1
  Sc  Sc92  1  0.69577274  0.29647960  0.89742328  1
  Sc  Sc93  1  0.90097718  0.30399753  0.09885930  1
  Sc  Sc94  1  0.09826894  0.70787778  0.50154344  1
  Sc  Sc95  1  0.30549462  0.09875514  0.29811552  1
  Sc  Sc96  1  0.09382865  0.49280801  0.90308742  1
  Sc  Sc97  1  0.10330851  0.89881349  0.29668382  1
  Sc  Sc98  1  0.70357907  0.90529085  0.30606346  1
  Sc  Sc99  1  0.10122239  0.10178457  0.28929381  1
  Nb  Nb100  1  0.50465017  0.90139589  0.69685916  1
  Nb  Nb101  1  0.50018223  0.89821858  0.90012382  1
  Nb  Nb102  1  0.29909222  0.70231979  0.09626102  1
  Nb  Nb103  1  0.68531476  0.90047692  0.69896520  1
  Nb  Nb104  1  0.69973776  0.70015997  0.29551087  1
  Nb  Nb105  1  0.50079592  0.89856611  0.29833954  1
  Nb  Nb106  1  0.49922965  0.69766961  0.89949889  1
  Nb  Nb107  1  0.49849875  0.50664481  0.88517274  1
  Nb  Nb108  1  0.09922730  0.30035297  0.30855161  1
  Nb  Nb109  1  0.49926052  0.50090446  0.70416849  1
  Nb  Nb110  1  0.89791388  0.09038318  0.90813783  1
  Nb  Nb111  1  0.88960786  0.70398280  0.88886751  1
  Nb  Nb112  1  0.10143563  0.90831476  0.69110985  1
  Nb  Nb113  1  0.69726614  0.89475671  0.09190403  1
  Nb  Nb114  1  0.10154586  0.29294544  0.69220616  1
  Nb  Nb115  1  0.10473313  0.89583658  0.09943394  1
  Nb  Nb116  1  0.30017583  0.89900259  0.89858906  1
  Nb  Nb117  1  0.09649266  0.30089258  0.49979381  1
  Nb  Nb118  1  0.70910028  0.10349924  0.29976976  1
  Nb  Nb119  1  0.29936327  0.29996089  0.69966961  1
  Nb  Nb120  1  0.29793003  0.89522432  0.70859536  1
  Nb  Nb121  1  0.90113903  0.49989766  0.29820230  1
  Nb  Nb122  1  0.88954092  0.10236285  0.30316699  1
  Nb  Nb123  1  0.90136800  0.10010499  0.50099876  1
  Nb  Nb124  1  0.89566400  0.69619353  0.70813159  1
  Nb  Nb125  1  -0.00954096  0.60167685  0.60529894  1
  Nb  Nb126  1  0.20407520  0.60671981  0.00053891  1
  Nb  Nb127  1  -0.00681210  0.01116708  0.40072713  1
  Nb  Nb128  1  0.19963586  0.59917630  0.39536464  1
  Nb  Nb129  1  0.00096881  0.59956060  0.20366253  1
  Nb  Nb130  1  0.40065612  -0.00721813  0.79890436  1
  Nb  Nb131  1  0.60975974  0.20046989  0.20416669  1
  Nb  Nb132  1  0.40421052  0.79738131  -0.00266726  1
  Nb  Nb133  1  0.19658852  0.59672267  0.80047201  1
  Nb  Nb134  1  0.19901748  0.19341998  0.00290828  1
  Nb  Nb135  1  0.39954042  0.20266995  0.60380618  1
  Nb  Nb136  1  0.60465273  0.39703248  0.20301567  1
  Nb  Nb137  1  0.60275740  0.80258616  0.20125067  1
  Nb  Nb138  1  0.59157199  0.80347107  0.80333151  1
  Nb  Nb139  1  0.40394602  0.39760216  0.79279022  1
  Nb  Nb140  1  0.00012544  0.19748937  0.40179359  1
  Nb  Nb141  1  0.40706397  0.79989596  0.19587898  1
  Nb  Nb142  1  0.19901360  -0.00353100  0.00119064  1
  Nb  Nb143  1  0.39629401  0.60458047  -0.00834696  1
  Nb  Nb144  1  0.40168264  0.80741427  0.60877121  1
  Nb  Nb145  1  0.40027940  0.19981775  0.79157896  1
  Nb  Nb146  1  0.80636251  0.60214779  0.60412938  1
  Nb  Nb147  1  0.79686087  0.80113380  -0.00344415  1
  Nb  Nb148  1  0.19147642  0.20557577  0.40223911  1
  Nb  Nb149  1  0.19756159  0.60276208  0.19835930  1
  Pd  Pd150  1  0.00190081  0.80690979  0.79189400  1
  Pd  Pd151  1  0.20577825  0.80840908  0.59698345  1
  Pd  Pd152  1  0.60333179  0.40986137  0.39503566  1
  Pd  Pd153  1  0.39197218  -0.00340724  0.60351869  1
  Pd  Pd154  1  0.59285310  0.58677605  -0.00040647  1
  Pd  Pd155  1  0.20011967  0.20410270  0.19810280  1
  Pd  Pd156  1  0.20968582  0.79766673  0.21145282  1
  Pd  Pd157  1  0.60609585  0.00131248  0.20726165  1
  Pd  Pd158  1  0.79490173  0.80671498  0.19375520  1
  Pd  Pd159  1  0.40218682  0.81168463  0.40515183  1
  Pd  Pd160  1  -0.00350214  0.20072960  0.20546538  1
  Pd  Pd161  1  0.19559893  0.40329435  0.19690198  1
  Pd  Pd162  1  0.79535560  0.21163784  0.19560454  1
  Pd  Pd163  1  -0.00982395  0.80928027  -0.00538559  1
  Pd  Pd164  1  -0.00368651  0.81174274  0.39741511  1
  Pd  Pd165  1  0.59856192  0.40758214  -0.00069526  1
  Pd  Pd166  1  0.39768171  0.60383777  0.18909595  1
  Pd  Pd167  1  0.79920767  0.19792304  -0.00076827  1
  Pd  Pd168  1  0.20509217  0.20020717  0.80394091  1
  Pd  Pd169  1  0.60103694  0.19191088  0.59614389  1
  Pd  Pd170  1  0.60624356  0.59588668  0.40629017  1
  Pd  Pd171  1  0.80137695  -0.00933130  0.19863948  1
  Pd  Pd172  1  0.20150785  0.00004179  0.19464645  1
  Pd  Pd173  1  -0.00330016  -0.00484243  0.20819212  1
  Pd  Pd174  1  0.79278226  0.00544654  0.61024366  1
  Pd  Pd175  1  0.40611917  0.80357302  0.79870242  1
  Pd  Pd176  1  0.39708624  -0.00472189  -0.00337148  1
  Pd  Pd177  1  0.18724643  0.79607602  0.80211459  1
  Pd  Pd178  1  0.80946803  0.21013146  0.40537282  1
  Pd  Pd179  1  0.79929825  0.00560607  0.78934242  1
  Pd  Pd180  1  0.18082614  0.59687357  0.59904947  1
  Pd  Pd181  1  0.38937873  0.20074571  0.40096064  1
  Pd  Pd182  1  -0.00872818  0.39060418  0.80553773  1
  Pd  Pd183  1  0.80228769  0.39837886  0.80747946  1
  Pd  Pd184  1  0.60075511  0.00795707  -0.00220880  1
  Pd  Pd185  1  0.18546802  0.01183362  0.39998209  1
  Pd  Pd186  1  0.00542648  0.20268756  -0.00411514  1
  Pd  Pd187  1  0.19379682  0.39885680  0.60210206  1
  Pd  Pd188  1  0.40043398  0.40220926  0.39581864  1
  Pd  Pd189  1  -0.00634003  -0.00470478  0.78995967  1
  Pd  Pd190  1  -0.00799649  0.20061517  0.80567425  1
  Pd  Pd191  1  0.00430462  0.59747400  0.40336539  1
  Pd  Pd192  1  0.79498796  0.79359433  0.60494849  1
  Pd  Pd193  1  0.19782304  0.39139129  0.01345437  1
  Pd  Pd194  1  0.19983443  -0.00027792  0.80421913  1
  Pd  Pd195  1  0.00575763  -0.00741616  0.00037292  1
  Pd  Pd196  1  0.80509118  0.60674381  0.41155283  1
  Pd  Pd197  1  0.60911956  0.60534438  0.59834350  1
  Pd  Pd198  1  0.00479362  0.59990093  0.79695712  1
  Pd  Pd199  1  0.80727915  0.19219426  0.80369565  1
  Rh  Rh200  1  0.80293391  0.40733255  0.60543565  1
  Rh  Rh201  1  -0.00662808  0.39233455  0.40305888  1
  Rh  Rh202  1  0.38404636  0.59141801  0.80679265  1
  Rh  Rh203  1  -0.00485571  -0.00406566  0.60176156  1
  Rh  Rh204  1  -0.00601703  0.80022454  0.60733921  1
  Rh  Rh205  1  0.60371926  0.00104503  0.39505611  1
  Rh  Rh206  1  0.59940673  0.40272742  0.59897542  1
  Rh  Rh207  1  -0.00122162  0.40169462  0.60129308  1
  Rh  Rh208  1  0.60785443  0.60371684  0.80037814  1
  Rh  Rh209  1  0.60843685  0.00636114  0.59300873  1
  Rh  Rh210  1  0.80169329  0.40162562  -0.00599106  1
  Rh  Rh211  1  0.60066094  0.79870406  -0.00029913  1
  Rh  Rh212  1  0.60333800  0.59487993  0.19800605  1
  Rh  Rh213  1  0.80601891  0.39911704  0.40093317  1
  Rh  Rh214  1  0.79753216  0.19485915  0.60064332  1
  Rh  Rh215  1  0.39677311  0.59296963  0.40668937  1
  Rh  Rh216  1  0.60581082  0.80485472  0.38962285  1
  Rh  Rh217  1  0.41319326  0.39705875  0.20606229  1
  Rh  Rh218  1  -0.00110900  0.79973657  0.20288485  1
  Rh  Rh219  1  -0.00100957  0.39124171  -0.00476591  1
  Rh  Rh220  1  0.79471773  0.80010243  0.39913841  1
  Rh  Rh221  1  0.39904874  -0.00620463  0.20375964  1
  Rh  Rh222  1  0.20573290  0.39999081  0.78911764  1
  Rh  Rh223  1  0.59797205  0.19947893  0.80394132  1
  Rh  Rh224  1  0.41095934  0.38921868  0.60567563  1
  Rh  Rh225  1  0.39458905  0.20136336  -0.00475691  1
  Rh  Rh226  1  0.20404398  0.20518091  0.59448268  1
  Rh  Rh227  1  0.79320117  0.39984717  0.20013170  1
  Rh  Rh228  1  0.20231304  0.79430510  0.39862855  1
  Rh  Rh229  1  0.00374569  0.40603836  0.20002721  1
  Rh  Rh230  1  0.80267413  -0.00544268  0.00325673  1
  Rh  Rh231  1  0.20474501  0.40029840  0.39902800  1
  Rh  Rh232  1  0.41057605  0.19957705  0.20439975  1
  Rh  Rh233  1  0.79493680  0.59581929  0.79715086  1
  Rh  Rh234  1  0.59585465  -0.00184159  0.80371477  1
  Rh  Rh235  1  0.20191058  0.80251235  -0.01098692  1
  Rh  Rh236  1  0.40971565  0.40919892  -0.01309527  1
  Rh  Rh237  1  0.78619301  0.80153369  0.80282706  1
  Rh  Rh238  1  0.80677988  0.60565808  -0.00504674  1
  Rh  Rh239  1  0.59153078  0.79265252  0.60941487  1
  Rh  Rh240  1  0.81004390  0.59746703  0.19729410  1
  Rh  Rh241  1  0.00062240  0.20259699  0.59496588  1
  Rh  Rh242  1  0.20271243  -0.00686301  0.60135712  1
  Rh  Rh243  1  -0.00019283  0.60391040  0.00134681  1
  Rh  Rh244  1  0.40623068  0.61023871  0.59289323  1
  Rh  Rh245  1  0.60823220  0.19428520  0.01010705  1
  Rh  Rh246  1  0.59586746  0.39748659  0.80770600  1
  Rh  Rh247  1  0.60672370  0.19063307  0.39241684  1
  Rh  Rh248  1  0.40452807  -0.00416897  0.39920129  1
  Rh  Rh249  1  0.80503663  -0.00314710  0.39847849  1
