# generated using pymatgen
data_ZrScNbPdRh
_symmetry_space_group_name_H-M   'P 1'
_cell_length_a   16.55839326
_cell_length_b   16.56198473
_cell_length_c   16.55889409
_cell_angle_alpha   90.00641438
_cell_angle_beta   89.98580100
_cell_angle_gamma   90.01011750
_symmetry_Int_Tables_number   1
_chemical_formula_structural   ZrScNbPdRh
_chemical_formula_sum   'Zr50 Sc50 Nb50 Pd50 Rh50'
_cell_volume   4541.10849676
_cell_formula_units_Z   50
loop_
 _symmetry_equiv_pos_site_id
 _symmetry_equiv_pos_as_xyz
  1  'x, y, z'
loop_
 _atom_site_type_symbol
 _atom_site_label
 _atom_site_symmetry_multiplicity
 _atom_site_fract_x
 _atom_site_fract_y
 _atom_site_fract_z
 _atom_site_occupancy
  Zr  Zr0  1  0.09753706  0.10285589  0.29617410  1
  Zr  Zr1  1  0.89675567  0.30298960  0.69407078  1
  Zr  Zr2  1  0.70658658  0.89304425  0.11270059  1
  Zr  Zr3  1  0.30055171  0.10792086  0.09692515  1
  Zr  Zr4  1  0.09424891  0.89706642  0.50097361  1
  Zr  Zr5  1  0.50507371  0.69132636  0.89780940  1
  Zr  Zr6  1  0.50235797  0.28763641  0.50084395  1
  Zr  Zr7  1  0.89875688  0.50438001  0.70435026  1
  Zr  Zr8  1  0.30277493  0.09698618  0.89944011  1
  Zr  Zr9  1  0.49660087  0.29860813  0.29593858  1
  Zr  Zr10  1  0.90920253  0.69310881  0.30111206  1
  Zr  Zr11  1  0.10575178  0.30111191  0.50838822  1
  Zr  Zr12  1  0.29302847  0.29346982  0.90260419  1
  Zr  Zr13  1  0.09204953  0.49339559  0.90411342  1
  Zr  Zr14  1  0.89505406  0.69427797  0.89912082  1
  Zr  Zr15  1  0.30143024  0.91153041  0.09972340  1
  Zr  Zr16  1  0.50094278  0.90157466  0.10067559  1
  Zr  Zr17  1  0.50036761  0.68806606  0.10000907  1
  Zr  Zr18  1  0.89812168  0.90868482  0.69966629  1
  Zr  Zr19  1  0.88890217  0.29750054  0.09525343  1
  Zr  Zr20  1  0.70355186  0.69488777  0.09789572  1
  Zr  Zr21  1  0.10618034  0.29546765  0.30528470  1
  Zr  Zr22  1  0.10564614  0.29898744  0.70145695  1
  Zr  Zr23  1  0.29534211  0.69601445  0.89447840  1
  Zr  Zr24  1  0.89152644  0.90659854  0.28558044  1
  Zr  Zr25  1  0.90163033  0.50497525  0.09724582  1
  Zr  Zr26  1  0.49290080  0.30650294  0.89849005  1
  Zr  Zr27  1  0.11138345  0.90311239  0.89577612  1
  Zr  Zr28  1  0.30028721  0.10599989  0.70655108  1
  Zr  Zr29  1  0.09301072  0.69900920  0.49422715  1
  Zr  Zr30  1  0.69922600  0.70822190  0.71074105  1
  Zr  Zr31  1  0.50175655  0.49742260  0.89095852  1
  Zr  Zr32  1  0.10979150  0.70005171  0.30111804  1
  Zr  Zr33  1  0.49866458  0.30532854  0.09851981  1
  Zr  Zr34  1  0.90592203  0.89857164  0.90083852  1
  Zr  Zr35  1  0.89757197  0.89999855  0.51285466  1
  Zr  Zr36  1  0.90362579  0.90024189  0.09811297  1
  Zr  Zr37  1  0.29657399  0.90270003  0.29872850  1
  Zr  Zr38  1  0.09443483  0.50744536  0.29555187  1
  Zr  Zr39  1  0.50277242  0.90963337  0.68975400  1
  Zr  Zr40  1  0.89309668  0.28920862  0.30057956  1
  Zr  Zr41  1  0.89589440  0.69986466  0.09672713  1
  Zr  Zr42  1  0.70625084  0.90358806  0.69796229  1
  Zr  Zr43  1  0.30519809  0.69685481  0.49624849  1
  Zr  Zr44  1  0.69315738  0.90546483  0.30102808  1
  Zr  Zr45  1  0.69758538  0.29219849  0.30256844  1
  Zr  Zr46  1  0.30292021  0.30038108  0.29852577  1
  Zr  Zr47  1  0.29506124  0.69111651  0.09885991  1
  Zr  Zr48  1  0.30601283  0.29878167  0.09972474  1
  Zr  Zr49  1  0.30134901  0.10103005  0.29058304  1
  Sc  Sc50  1  0.69957673  0.49633423  0.70297430  1
  Sc  Sc51  1  0.30192096  0.49478762  0.89911185  1
  Sc  Sc52  1  0.89390309  0.50129290  0.29689521  1
  Sc  Sc53  1  0.69347783  0.10562568  0.50177309  1
  Sc  Sc54  1  0.90321256  0.09532159  0.89106779  1
  Sc  Sc55  1  0.69557181  0.30050376  0.10201908  1
  Sc  Sc56  1  0.50122322  0.69075050  0.69680838  1
  Sc  Sc57  1  0.70690566  0.50465953  0.89463589  1
  Sc  Sc58  1  0.29715791  0.49449548  0.10021076  1
  Sc  Sc59  1  0.30391036  0.49757185  0.70521484  1
  Sc  Sc60  1  0.69532741  0.69926417  0.29310041  1
  Sc  Sc61  1  0.90684850  0.49478542  0.51034336  1
  Sc  Sc62  1  0.10288282  0.49509174  0.50636866  1
  Sc  Sc63  1  0.29803493  0.29953779  0.70416137  1
  Sc  Sc64  1  0.69428445  0.49505459  0.50734998  1
  Sc  Sc65  1  0.70897597  0.30250461  0.90988389  1
  Sc  Sc66  1  0.09928516  0.10144274  0.70238245  1
  Sc  Sc67  1  0.69667803  0.09604057  0.90004548  1
  Sc  Sc68  1  0.49832202  0.68746118  0.30279517  1
  Sc  Sc69  1  0.69766929  0.10791626  0.09897061  1
  Sc  Sc70  1  0.29969182  0.50082636  0.30484944  1
  Sc  Sc71  1  0.10459208  0.69194604  0.90318685  1
  Sc  Sc72  1  0.10122196  0.68638936  0.09843271  1
  Sc  Sc73  1  0.70138911  0.90010570  0.88835374  1
  Sc  Sc74  1  0.10080415  0.90588568  0.09620608  1
  Sc  Sc75  1  0.49465825  0.68804971  0.50421678  1
  Sc  Sc76  1  0.49715904  0.91710115  0.29734655  1
  Sc  Sc77  1  0.31056755  0.10338078  0.50517135  1
  Sc  Sc78  1  0.10278876  0.49879281  0.09489809  1
  Sc  Sc79  1  0.09197123  0.49711376  0.69680460  1
  Sc  Sc80  1  0.49502909  0.49950354  0.29853910  1
  Sc  Sc81  1  0.89780802  0.49512539  0.89983231  1
  Sc  Sc82  1  0.10543587  0.10335054  0.89414268  1
  Sc  Sc83  1  0.70467538  0.49827577  0.09968245  1
  Sc  Sc84  1  0.30205662  0.90266958  0.70518880  1
  Sc  Sc85  1  0.71105529  0.30037295  0.49994065  1
  Sc  Sc86  1  0.49686495  0.10221337  0.89809796  1
  Sc  Sc87  1  0.50135149  0.91148679  0.90123200  1
  Sc  Sc88  1  0.49658889  0.10056381  0.09410714  1
  Sc  Sc89  1  0.70289405  0.30968921  0.68828608  1
  Sc  Sc90  1  0.10267665  0.10157352  0.10325178  1
  Sc  Sc91  1  0.09810432  0.69109068  0.70616051  1
  Sc  Sc92  1  0.11057382  0.30441684  0.09297085  1
  Sc  Sc93  1  0.69157303  0.90692506  0.50995296  1
  Sc  Sc94  1  0.69121947  0.70707439  0.51021470  1
  Sc  Sc95  1  0.90082963  0.70297654  0.70268375  1
  Sc  Sc96  1  0.50332874  0.10338849  0.31397001  1
  Sc  Sc97  1  0.09932890  0.11064760  0.50554337  1
  Sc  Sc98  1  0.70083461  0.49896745  0.30164332  1
  Sc  Sc99  1  0.10253449  0.89587369  0.29820461  1
  Nb  Nb100  1  0.90258489  0.09665566  0.11117795  1
  Nb  Nb101  1  0.50173449  0.30311302  0.70204368  1
  Nb  Nb102  1  0.70472058  0.09949690  0.70212350  1
  Nb  Nb103  1  0.30223409  0.89667079  0.90084089  1
  Nb  Nb104  1  0.30772708  0.49787731  0.50457103  1
  Nb  Nb105  1  0.30255369  0.69997611  0.69639391  1
  Nb  Nb106  1  0.69837575  0.70003533  0.89629558  1
  Nb  Nb107  1  0.49873874  0.11213185  0.69218155  1
  Nb  Nb108  1  0.49151546  0.91762616  0.49552952  1
  Nb  Nb109  1  0.50464667  0.48589983  0.69691588  1
  Nb  Nb110  1  0.90200031  0.29743001  0.50210261  1
  Nb  Nb111  1  0.49604952  0.50027542  0.50214299  1
  Nb  Nb112  1  0.89988209  0.09931968  0.29256469  1
  Nb  Nb113  1  0.70397842  0.10031079  0.30349685  1
  Nb  Nb114  1  0.29350942  0.31095337  0.50230063  1
  Nb  Nb115  1  0.90153481  0.30055454  0.89905820  1
  Nb  Nb116  1  0.30360362  0.90171996  0.50177804  1
  Nb  Nb117  1  0.89100476  0.09561077  0.69246113  1
  Nb  Nb118  1  0.89914327  0.70405183  0.50195661  1
  Nb  Nb119  1  0.49535815  0.49378856  0.09383987  1
  Nb  Nb120  1  0.29721298  0.70505071  0.30098852  1
  Nb  Nb121  1  0.49975781  0.09110740  0.50912437  1
  Nb  Nb122  1  0.90038499  0.10037487  0.50628683  1
  Nb  Nb123  1  0.10101316  0.90078318  0.69678646  1
  Nb  Nb124  1  0.09228671  0.30051351  0.90191381  1
  Nb  Nb125  1  0.19842480  0.00047496  0.40664008  1
  Nb  Nb126  1  -0.00410776  0.20404458  -0.00372397  1
  Nb  Nb127  1  0.79896095  0.19896803  0.79359883  1
  Nb  Nb128  1  -0.00051818  0.79586169  0.19673897  1
  Nb  Nb129  1  0.59983674  0.79465847  -0.00134794  1
  Nb  Nb130  1  0.80087114  0.60801965  0.41191957  1
  Nb  Nb131  1  0.39842667  0.79876463  0.80351021  1
  Nb  Nb132  1  0.39989689  0.79841062  -0.00182192  1
  Nb  Nb133  1  -0.00323431  0.39026296  0.39766296  1
  Nb  Nb134  1  0.00544247  0.80579251  0.80150482  1
  Nb  Nb135  1  0.80570507  -0.00104399  0.00649483  1
  Nb  Nb136  1  0.39564056  0.79567242  0.20073892  1
  Nb  Nb137  1  0.20325809  0.79825476  0.60067233  1
  Nb  Nb138  1  -0.00601990  0.00677581  0.40001996  1
  Nb  Nb139  1  0.20895879  0.60403307  0.59943543  1
  Nb  Nb140  1  0.79665149  0.80180491  0.40269024  1
  Nb  Nb141  1  0.59054894  0.80679966  0.40209930  1
  Nb  Nb142  1  0.20090119  -0.00563790  0.59831546  1
  Nb  Nb143  1  0.40086192  0.80435024  0.39822189  1
  Nb  Nb144  1  0.80192668  0.60614165  0.59848727  1
  Nb  Nb145  1  0.60185596  0.20385468  0.79107670  1
  Nb  Nb146  1  -0.00248442  0.39436397  0.20270670  1
  Nb  Nb147  1  0.80404923  0.00402866  0.39948740  1
  Nb  Nb148  1  0.59429641  0.39608907  0.40242447  1
  Nb  Nb149  1  0.40513962  0.39758069  0.59725871  1
  Pd  Pd150  1  0.00469353  -0.00060249  0.79479055  1
  Pd  Pd151  1  0.58696864  0.80524348  0.80347234  1
  Pd  Pd152  1  0.01308697  0.79284452  -0.00091103  1
  Pd  Pd153  1  0.19790327  0.40341192  0.80138021  1
  Pd  Pd154  1  0.39235018  0.20996023  0.60051215  1
  Pd  Pd155  1  0.20013043  0.79867276  0.79195377  1
  Pd  Pd156  1  0.79004227  0.80652856  -0.00894872  1
  Pd  Pd157  1  0.60639513  0.59786572  0.40390144  1
  Pd  Pd158  1  0.40397098  -0.00203210  0.79616010  1
  Pd  Pd159  1  0.20315010  0.59175870  0.40723697  1
  Pd  Pd160  1  0.59838680  0.01392927  0.19741479  1
  Pd  Pd161  1  0.80046334  0.39877286  0.19967534  1
  Pd  Pd162  1  0.19582995  0.58815787  0.79365504  1
  Pd  Pd163  1  -0.00663232  0.58622742  0.40910608  1
  Pd  Pd164  1  0.80174399  0.41021867  0.40769509  1
  Pd  Pd165  1  0.60565184  0.40675873  -0.00371555  1
  Pd  Pd166  1  0.19939685  0.00814020  -0.00211816  1
  Pd  Pd167  1  0.40351516  0.59949694  0.79279206  1
  Pd  Pd168  1  0.61371726  -0.00960511  0.00500168  1
  Pd  Pd169  1  0.20119658  0.79880414  0.00651782  1
  Pd  Pd170  1  -0.00106827  0.19888067  0.60770689  1
  Pd  Pd171  1  0.59515004  0.19358170  0.20021658  1
  Pd  Pd172  1  0.58501395  0.79468667  0.20478376  1
  Pd  Pd173  1  0.00539311  0.21064975  0.18714473  1
  Pd  Pd174  1  0.80073257  0.19049684  0.40639969  1
  Pd  Pd175  1  0.19412163  0.40803808  0.39924235  1
  Pd  Pd176  1  -0.00366659  0.39818117  0.79627771  1
  Pd  Pd177  1  0.39538666  0.19756010  0.40308757  1
  Pd  Pd178  1  0.19647421  0.40246673  0.20132039  1
  Pd  Pd179  1  0.59574464  0.01015967  0.79299246  1
  Pd  Pd180  1  0.80741437  0.18635144  -0.00875864  1
  Pd  Pd181  1  0.61327674  0.39143379  0.80629445  1
  Pd  Pd182  1  0.39229672  0.59617224  0.20412710  1
  Pd  Pd183  1  -0.00638615  0.19913607  0.79778062  1
  Pd  Pd184  1  -0.00028891  0.01410165  -0.00008214  1
  Pd  Pd185  1  0.60175727  0.58675852  0.19803775  1
  Pd  Pd186  1  0.60878922  0.20237104  0.60373255  1
  Pd  Pd187  1  0.60006663  0.40541024  0.20558594  1
  Pd  Pd188  1  0.59578897  0.20387281  -0.01117372  1
  Pd  Pd189  1  -0.00376731  0.19945375  0.40348935  1
  Pd  Pd190  1  0.39534778  0.59380691  -0.00326585  1
  Pd  Pd191  1  0.19668070  0.80054821  0.18755260  1
  Pd  Pd192  1  0.21074376  0.19273661  0.40745698  1
  Pd  Pd193  1  0.00560465  0.79157906  0.61259041  1
  Pd  Pd194  1  0.58518805  0.80227061  0.59251533  1
  Pd  Pd195  1  0.60795851  0.59366898  -0.00245029  1
  Pd  Pd196  1  -0.01150511  0.81306219  0.38864982  1
  Pd  Pd197  1  0.40222769  0.80304232  0.60087164  1
  Pd  Pd198  1  0.60717324  0.59651065  0.60683489  1
  Pd  Pd199  1  0.40493065  0.39905351  0.40484478  1
  Rh  Rh200  1  0.00009814  0.60369246  0.80649783  1
  Rh  Rh201  1  0.39871868  0.58641773  0.60819067  1
  Rh  Rh202  1  0.40742015  0.20384484  0.80121089  1
  Rh  Rh203  1  0.79710519  0.60250954  0.79314172  1
  Rh  Rh204  1  0.00821609  0.00998539  0.59892027  1
  Rh  Rh205  1  0.00121886  0.60549182  0.59798736  1
  Rh  Rh206  1  0.79693903  0.60131358  0.20814874  1
  Rh  Rh207  1  0.00976779  -0.00668072  0.20450091  1
  Rh  Rh208  1  0.19483087  0.00332927  0.20435916  1
  Rh  Rh209  1  0.80787204  0.78559481  0.20966993  1
  Rh  Rh210  1  0.39971870  0.40506535  0.19759612  1
  Rh  Rh211  1  -0.00008827  0.39260614  0.59833402  1
  Rh  Rh212  1  0.20992587  0.40885741  0.60541178  1
  Rh  Rh213  1  0.40786754  0.19646461  0.19835731  1
  Rh  Rh214  1  0.20209217  0.58892785  -0.00527116  1
  Rh  Rh215  1  0.79949873  0.19757855  0.60134475  1
  Rh  Rh216  1  0.20373754  0.59516840  0.20313198  1
  Rh  Rh217  1  0.79838076  0.79538689  0.60021622  1
  Rh  Rh218  1  0.19962133  0.20469928  0.19678267  1
  Rh  Rh219  1  0.20635477  0.19552584  0.60074504  1
  Rh  Rh220  1  0.60379010  0.00761368  0.60384206  1
  Rh  Rh221  1  0.39648302  0.40354902  -0.00075219  1
  Rh  Rh222  1  0.39818254  0.60214651  0.39581596  1
  Rh  Rh223  1  0.19604059  0.20280586  0.80321841  1
  Rh  Rh224  1  0.39758072  -0.00097474  -0.00218908  1
  Rh  Rh225  1  0.39069126  0.00473424  0.39771277  1
  Rh  Rh226  1  0.79075212  0.00844714  0.59152711  1
  Rh  Rh227  1  0.79922539  0.00561304  0.80698046  1
  Rh  Rh228  1  0.00127398  0.59947870  0.19341931  1
  Rh  Rh229  1  0.20336022  0.00047105  0.79452024  1
  Rh  Rh230  1  0.20205884  0.39852968  -0.00624792  1
  Rh  Rh231  1  0.59240505  0.39612171  0.58898751  1
  Rh  Rh232  1  0.40487380  0.20164988  -0.00370051  1
  Rh  Rh233  1  0.79705174  0.59719710  -0.00510401  1
  Rh  Rh234  1  0.40471958  0.00608955  0.19838174  1
  Rh  Rh235  1  0.80962608  0.80156508  0.80099896  1
  Rh  Rh236  1  0.39229654  0.00487821  0.60938046  1
  Rh  Rh237  1  0.20902651  0.80666169  0.40904168  1
  Rh  Rh238  1  0.39689876  0.39505904  0.79348075  1
  Rh  Rh239  1  0.78947414  0.01322439  0.19573888  1
  Rh  Rh240  1  0.79201040  0.19649296  0.19861831  1
  Rh  Rh241  1  0.60178061  0.59391840  0.79289468  1
  Rh  Rh242  1  0.80038383  0.40482268  -0.00102974  1
  Rh  Rh243  1  0.60600351  0.00169594  0.40634119  1
  Rh  Rh244  1  -0.00655631  0.39269378  0.00909079  1
  Rh  Rh245  1  0.80479737  0.41010254  0.59746175  1
  Rh  Rh246  1  0.60118657  0.20140148  0.40306479  1
  Rh  Rh247  1  0.80041634  0.39112013  0.80063025  1
  Rh  Rh248  1  -0.00187974  0.59722522  -0.00358621  1
  Rh  Rh249  1  0.19217324  0.19822611  -0.00296722  1
