# generated using pymatgen
data_ZrScNbPdRh
_symmetry_space_group_name_H-M   'P 1'
_cell_length_a   16.55378265
_cell_length_b   16.55280969
_cell_length_c   16.54972165
_cell_angle_alpha   89.99270679
_cell_angle_beta   90.02770194
_cell_angle_gamma   89.99784382
_symmetry_Int_Tables_number   1
_chemical_formula_structural   ZrScNbPdRh
_chemical_formula_sum   'Zr50 Sc50 Nb50 Pd50 Rh50'
_cell_volume   4534.81536763
_cell_formula_units_Z   50
loop_
 _symmetry_equiv_pos_site_id
 _symmetry_equiv_pos_as_xyz
  1  'x, y, z'
loop_
 _atom_site_type_symbol
 _atom_site_label
 _atom_site_symmetry_multiplicity
 _atom_site_fract_x
 _atom_site_fract_y
 _atom_site_fract_z
 _atom_site_occupancy
  Zr  Zr0  1  0.29195352  0.89986485  0.09138239  1
  Zr  Zr1  1  0.70460712  0.09449473  0.49085564  1
  Zr  Zr2  1  0.10708054  0.29190749  0.89607804  1
  Zr  Zr3  1  0.09437332  0.09740703  0.90289725  1
  Zr  Zr4  1  0.90843311  0.10465384  0.10376765  1
  Zr  Zr5  1  0.70252461  0.09125342  0.89942073  1
  Zr  Zr6  1  0.10304338  0.49719185  0.49729062  1
  Zr  Zr7  1  0.29867175  0.30067764  0.90413264  1
  Zr  Zr8  1  0.90138797  0.09825469  0.89562455  1
  Zr  Zr9  1  0.68874055  0.29704507  0.70081799  1
  Zr  Zr10  1  0.89447424  0.90565613  0.50654427  1
  Zr  Zr11  1  0.89103096  0.51012736  0.30086651  1
  Zr  Zr12  1  0.90397729  0.10233863  0.49872828  1
  Zr  Zr13  1  0.29240056  0.10089818  0.10069594  1
  Zr  Zr14  1  0.49582782  0.69231446  0.70334971  1
  Zr  Zr15  1  0.29978786  0.09383558  0.31146235  1
  Zr  Zr16  1  0.70038172  0.29308839  0.09922389  1
  Zr  Zr17  1  0.30159467  0.48917312  0.90194872  1
  Zr  Zr18  1  0.49463721  0.70726919  0.30237128  1
  Zr  Zr19  1  0.30664796  0.69643353  0.49947817  1
  Zr  Zr20  1  0.10465479  0.89532795  0.70650764  1
  Zr  Zr21  1  0.09823103  0.30046855  0.49626381  1
  Zr  Zr22  1  0.89644829  0.30027712  0.09523448  1
  Zr  Zr23  1  0.09887099  0.69809790  0.10161501  1
  Zr  Zr24  1  0.90023745  0.49712730  0.49822854  1
  Zr  Zr25  1  0.50481578  0.89900052  0.30086912  1
  Zr  Zr26  1  0.29642854  0.09683080  0.68761445  1
  Zr  Zr27  1  0.49256588  0.29772085  0.90428763  1
  Zr  Zr28  1  0.29638196  0.91322313  0.49994365  1
  Zr  Zr29  1  0.09790644  0.09737920  0.70652976  1
  Zr  Zr30  1  0.29192913  0.10315982  0.89891074  1
  Zr  Zr31  1  0.70643270  0.29258945  0.90068075  1
  Zr  Zr32  1  0.30824669  0.89760500  0.29991772  1
  Zr  Zr33  1  0.90312655  0.70619980  0.29212224  1
  Zr  Zr34  1  0.89304397  0.90251948  0.90035893  1
  Zr  Zr35  1  0.49755264  0.50940307  0.90088159  1
  Zr  Zr36  1  0.30154983  0.89611953  0.89948692  1
  Zr  Zr37  1  0.50422635  0.30184261  0.70250885  1
  Zr  Zr38  1  0.49667396  0.70112358  0.90054579  1
  Zr  Zr39  1  0.09732876  0.69882712  0.70250670  1
  Zr  Zr40  1  0.90592410  0.29864782  0.49841863  1
  Zr  Zr41  1  0.30563672  0.30212316  0.09664525  1
  Zr  Zr42  1  0.29817560  0.70200287  0.70073434  1
  Zr  Zr43  1  0.50388928  0.10276265  0.69997100  1
  Zr  Zr44  1  0.50212514  0.49986336  0.50282390  1
  Zr  Zr45  1  0.50143326  0.69580414  0.09684953  1
  Zr  Zr46  1  0.89810956  0.70843613  0.49769242  1
  Zr  Zr47  1  0.69740039  0.89838149  0.49801114  1
  Zr  Zr48  1  0.50839317  0.69920279  0.49792550  1
  Zr  Zr49  1  0.10702460  0.70242089  0.50560647  1
  Sc  Sc50  1  0.69981469  0.30340435  0.29700938  1
  Sc  Sc51  1  0.10048390  0.10209931  0.50910991  1
  Sc  Sc52  1  0.29623695  0.49734023  0.10857375  1
  Sc  Sc53  1  0.09634260  0.29033351  0.69709732  1
  Sc  Sc54  1  0.70277267  0.50065673  0.89891558  1
  Sc  Sc55  1  0.88995717  0.10201746  0.29518006  1
  Sc  Sc56  1  0.89767944  0.70014320  0.70495267  1
  Sc  Sc57  1  0.09904780  0.70496418  0.29589259  1
  Sc  Sc58  1  0.68601172  0.50409262  0.70179760  1
  Sc  Sc59  1  0.70212642  0.69002191  0.89851875  1
  Sc  Sc60  1  0.09896813  0.90242625  0.49661155  1
  Sc  Sc61  1  0.50850892  0.89533843  0.49652264  1
  Sc  Sc62  1  0.69824333  0.69614552  0.69877212  1
  Sc  Sc63  1  0.70762633  0.70021203  0.10539314  1
  Sc  Sc64  1  0.90329649  0.49079533  0.90066293  1
  Sc  Sc65  1  0.90279849  0.29566181  0.30307988  1
  Sc  Sc66  1  0.50258575  0.09899347  0.90241455  1
  Sc  Sc67  1  0.90317834  0.50647038  0.70555305  1
  Sc  Sc68  1  0.49714844  0.09849128  0.29509668  1
  Sc  Sc69  1  0.70087714  0.69095829  0.30430642  1
  Sc  Sc70  1  0.09519909  0.49953039  0.69656788  1
  Sc  Sc71  1  0.10935376  0.29492387  0.10119909  1
  Sc  Sc72  1  0.11459166  0.49979409  0.29822382  1
  Sc  Sc73  1  0.50121105  0.50594223  0.10535822  1
  Sc  Sc74  1  0.90006846  0.90637098  0.70046481  1
  Sc  Sc75  1  0.10003345  0.09950047  0.28637061  1
  Sc  Sc76  1  0.50708093  0.49610156  0.30338752  1
  Sc  Sc77  1  0.90355546  0.29070700  0.90241212  1
  Sc  Sc78  1  0.30264243  0.29661414  0.70832576  1
  Sc  Sc79  1  0.69268642  0.10262477  0.70606481  1
  Sc  Sc80  1  0.31041590  0.70121932  0.90528163  1
  Sc  Sc81  1  0.09540091  0.48596983  0.89800959  1
  Sc  Sc82  1  0.69302323  0.50245373  0.48032851  1
  Sc  Sc83  1  0.69754017  0.91117269  0.69154375  1
  Sc  Sc84  1  0.89813040  0.69029129  0.88892734  1
  Sc  Sc85  1  0.09246421  0.70326295  0.89411029  1
  Sc  Sc86  1  0.49771386  0.49936551  0.69919387  1
  Sc  Sc87  1  0.90471389  0.09855858  0.70288091  1
  Sc  Sc88  1  0.49350554  0.91293588  0.09799227  1
  Sc  Sc89  1  0.10123366  0.90057338  0.09833804  1
  Sc  Sc90  1  0.88838492  0.89283999  0.10962866  1
  Sc  Sc91  1  0.29982659  0.69899621  0.10405183  1
  Sc  Sc92  1  0.49545832  0.30928351  0.49735326  1
  Sc  Sc93  1  0.50534691  0.90589158  0.69486639  1
  Sc  Sc94  1  0.10189285  0.90040314  0.90142562  1
  Sc  Sc95  1  0.48647185  0.10772106  0.50086932  1
  Sc  Sc96  1  0.09877767  0.89737495  0.29783793  1
  Sc  Sc97  1  0.49982848  0.11008512  0.10045215  1
  Sc  Sc98  1  0.30714944  0.50016024  0.49393950  1
  Sc  Sc99  1  0.30488814  0.31156604  0.29731509  1
  Nb  Nb100  1  0.10645090  0.30807732  0.30214460  1
  Nb  Nb101  1  0.29914067  0.89738566  0.70203513  1
  Nb  Nb102  1  0.70364413  0.49583483  0.10131369  1
  Nb  Nb103  1  0.90703794  0.50006769  0.09927171  1
  Nb  Nb104  1  0.50056206  0.29925280  0.10408632  1
  Nb  Nb105  1  0.70538575  0.09119743  0.11891078  1
  Nb  Nb106  1  0.70112109  0.91574359  0.29684360  1
  Nb  Nb107  1  0.30084357  0.29622356  0.49471314  1
  Nb  Nb108  1  0.69941709  0.09483856  0.29570928  1
  Nb  Nb109  1  0.30240935  0.70058216  0.30162762  1
  Nb  Nb110  1  0.69483116  0.30386918  0.50114369  1
  Nb  Nb111  1  0.10085131  0.09921580  0.09514415  1
  Nb  Nb112  1  0.90399739  0.69359560  0.10396653  1
  Nb  Nb113  1  0.30492154  0.49944802  0.70160428  1
  Nb  Nb114  1  0.69877527  0.90467317  0.90450353  1
  Nb  Nb115  1  0.70230341  0.50045766  0.29451074  1
  Nb  Nb116  1  0.49862713  0.29800551  0.30050579  1
  Nb  Nb117  1  0.90425990  0.89367398  0.30700056  1
  Nb  Nb118  1  0.29675116  0.50426737  0.30012531  1
  Nb  Nb119  1  0.10032021  0.50105451  0.09894893  1
  Nb  Nb120  1  0.29410857  0.10797320  0.49629270  1
  Nb  Nb121  1  0.89208321  0.29519095  0.69764312  1
  Nb  Nb122  1  0.70061131  0.70402963  0.50006034  1
  Nb  Nb123  1  0.50131522  0.90176572  0.89824232  1
  Nb  Nb124  1  0.69878133  0.90308813  0.10181341  1
  Nb  Nb125  1  0.20136499  0.20355838  0.39954824  1
  Nb  Nb126  1  0.20426862  0.59452852  0.80281554  1
  Nb  Nb127  1  0.60584540  0.80770337  -0.00016002  1
  Nb  Nb128  1  -0.01120283  0.79290694  0.00338884  1
  Nb  Nb129  1  0.79813615  0.39220087  0.79167828  1
  Nb  Nb130  1  0.60184997  0.80618676  0.80794096  1
  Nb  Nb131  1  0.19457207  0.59454850  -0.00204469  1
  Nb  Nb132  1  0.00071635  0.60311740  0.40158074  1
  Nb  Nb133  1  0.79577247  0.80737514  0.39815685  1
  Nb  Nb134  1  0.60420132  0.80854843  0.19659049  1
  Nb  Nb135  1  0.80359514  0.40658674  0.19437644  1
  Nb  Nb136  1  0.00201335  0.80146897  0.60204356  1
  Nb  Nb137  1  0.79454064  0.40007735  0.60012228  1
  Nb  Nb138  1  0.20933530  0.79919172  0.39891889  1
  Nb  Nb139  1  0.00117104  0.40363007  0.19793373  1
  Nb  Nb140  1  0.39650197  -0.00441872  0.79795360  1
  Nb  Nb141  1  0.39509068  0.80234391  0.60145060  1
  Nb  Nb142  1  0.60046404  0.20317193  0.39612610  1
  Nb  Nb143  1  -0.00569754  -0.00090080  0.39740304  1
  Nb  Nb144  1  0.78948667  0.80821358  0.80327664  1
  Nb  Nb145  1  0.20592356  0.39629697  0.59601587  1
  Nb  Nb146  1  0.80935179  0.59430824  0.01137917  1
  Nb  Nb147  1  0.59941938  0.39572138  0.00648631  1
  Nb  Nb148  1  0.79578201  0.59641917  0.59158450  1
  Nb  Nb149  1  0.79691113  0.20708479  0.59727902  1
  Pd  Pd150  1  0.59973935  0.40193701  0.81323054  1
  Pd  Pd151  1  -0.00608505  -0.01171882  0.00767067  1
  Pd  Pd152  1  0.00449561  0.20946562  0.20186534  1
  Pd  Pd153  1  0.61139436  0.59894510  0.00353422  1
  Pd  Pd154  1  0.60147765  0.19426632  0.58543565  1
  Pd  Pd155  1  0.19131722  -0.00224691  0.60055156  1
  Pd  Pd156  1  0.60308126  0.60625504  0.20307904  1
  Pd  Pd157  1  0.01155700  0.18851232  0.38989954  1
  Pd  Pd158  1  -0.00041541  0.39647932  0.60818500  1
  Pd  Pd159  1  0.79198986  0.20703908  0.39900203  1
  Pd  Pd160  1  0.40664911  0.80305597  0.00882086  1
  Pd  Pd161  1  0.00119182  0.40997590  0.38588884  1
  Pd  Pd162  1  0.40441079  0.40688009  0.20426431  1
  Pd  Pd163  1  0.00882682  0.59243593  0.21017555  1
  Pd  Pd164  1  0.40985154  -0.00119475  0.40583986  1
  Pd  Pd165  1  0.19936166  -0.00460755  0.20273924  1
  Pd  Pd166  1  0.59602705  0.79626873  0.61120485  1
  Pd  Pd167  1  0.80491481  0.00651202  0.01167285  1
  Pd  Pd168  1  0.39835439  0.19146020  0.79988047  1
  Pd  Pd169  1  -0.00741441  0.39060428  0.79330081  1
  Pd  Pd170  1  0.19594156  0.60783827  0.39426777  1
  Pd  Pd171  1  0.39277201  0.19842122  0.20477015  1
  Pd  Pd172  1  0.60215940  0.19717501  0.00026242  1
  Pd  Pd173  1  0.40694623  0.59362921  0.39336197  1
  Pd  Pd174  1  0.20337845  0.79001491  0.81099371  1
  Pd  Pd175  1  0.39901527  0.20939775  0.60160576  1
  Pd  Pd176  1  -0.00908338  0.60665000  0.59619381  1
  Pd  Pd177  1  0.79623958  0.39447419  0.39662101  1
  Pd  Pd178  1  0.00931084  0.38908132  0.00575823  1
  Pd  Pd179  1  0.20754826  0.20572084  0.20821942  1
  Pd  Pd180  1  0.00055311  0.60202916  -0.01068324  1
  Pd  Pd181  1  0.20129619  0.80051096  0.20472426  1
  Pd  Pd182  1  0.40937382  0.40761319  0.00996165  1
  Pd  Pd183  1  0.79912846  0.18526145  0.00403191  1
  Pd  Pd184  1  0.39725580  0.00864024  -0.00574027  1
  Pd  Pd185  1  -0.00461279  -0.00647432  0.20248365  1
  Pd  Pd186  1  0.40512996  -0.00452825  0.59974240  1
  Pd  Pd187  1  0.60319675  0.39834110  0.19822600  1
  Pd  Pd188  1  0.79685394  0.01480740  0.60866940  1
  Pd  Pd189  1  0.79976540  0.78701617  -0.00688670  1
  Pd  Pd190  1  0.39410320  0.39417978  0.60335924  1
  Pd  Pd191  1  0.79027415  0.80150388  0.21063337  1
  Pd  Pd192  1  0.19756837  0.40175325  0.78685611  1
  Pd  Pd193  1  0.60098591  0.19876264  0.20845735  1
  Pd  Pd194  1  0.39803297  0.59535096  0.20433052  1
  Pd  Pd195  1  0.20681269  0.58764594  0.60629960  1
  Pd  Pd196  1  0.40533881  0.80220337  0.18876551  1
  Pd  Pd197  1  0.58927072  0.01151501  0.40354552  1
  Pd  Pd198  1  0.59981351  0.00317757  0.00866273  1
  Pd  Pd199  1  0.39722372  0.00394718  0.19629699  1
  Rh  Rh200  1  0.60401669  0.40790467  0.59365893  1
  Rh  Rh201  1  0.20977979  0.39674350  0.40496202  1
  Rh  Rh202  1  0.39268204  0.80591769  0.41121614  1
  Rh  Rh203  1  0.80975479  -0.00301109  0.20216635  1
  Rh  Rh204  1  0.00352274  0.80165424  0.40893321  1
  Rh  Rh205  1  0.80037779  0.19738948  0.79416379  1
  Rh  Rh206  1  -0.00362080  0.20194026  0.79960408  1
  Rh  Rh207  1  0.39948195  0.40373791  0.39462679  1
  Rh  Rh208  1  0.00205194  0.80606755  0.18886610  1
  Rh  Rh209  1  0.39800074  0.19695725  0.00345668  1
  Rh  Rh210  1  -0.00618430  0.19802321  0.60539007  1
  Rh  Rh211  1  0.18904208  0.78768237  -0.00306373  1
  Rh  Rh212  1  0.40672151  0.40008184  0.79836955  1
  Rh  Rh213  1  0.19599879  0.40251058  0.00692127  1
  Rh  Rh214  1  0.39212878  0.59335869  0.80192085  1
  Rh  Rh215  1  0.79588697  0.59487029  0.19360055  1
  Rh  Rh216  1  0.40139254  0.60337003  0.59983255  1
  Rh  Rh217  1  0.20270151  0.20885422  0.59542506  1
  Rh  Rh218  1  0.00677537  0.20185022  0.00249977  1
  Rh  Rh219  1  0.20228957  0.60234600  0.19742185  1
  Rh  Rh220  1  0.18581133  0.00628087  0.39572758  1
  Rh  Rh221  1  0.59373333  -0.00018200  0.19494606  1
  Rh  Rh222  1  0.80312905  0.79215091  0.60432085  1
  Rh  Rh223  1  0.19753318  0.19861869  0.00254856  1
  Rh  Rh224  1  0.00552840  -0.00645611  0.59866303  1
  Rh  Rh225  1  0.59683410  0.00949911  0.59053705  1
  Rh  Rh226  1  0.41140860  0.81173698  0.78857007  1
  Rh  Rh227  1  0.39922009  0.20583746  0.39383400  1
  Rh  Rh228  1  0.19593960  0.00167076  -0.00153657  1
  Rh  Rh229  1  0.01089139  0.59218005  0.80439149  1
  Rh  Rh230  1  0.61215487  0.79955752  0.38664716  1
  Rh  Rh231  1  0.20527998  0.00096468  0.80185929  1
  Rh  Rh232  1  0.79391261  0.40826641  -0.00364146  1
  Rh  Rh233  1  0.59421292  -0.00277264  0.80010864  1
  Rh  Rh234  1  0.59848774  0.39349489  0.39335062  1
  Rh  Rh235  1  0.79737137  0.20506454  0.20206284  1
  Rh  Rh236  1  0.60613594  0.59729114  0.59291228  1
  Rh  Rh237  1  0.20163985  0.80988292  0.59168647  1
  Rh  Rh238  1  -0.01449824  0.80745405  0.80076425  1
  Rh  Rh239  1  0.20107586  0.19643503  0.79460898  1
  Rh  Rh240  1  0.38686476  0.59338057  0.00624578  1
  Rh  Rh241  1  0.80323264  0.61084664  0.40513175  1
  Rh  Rh242  1  0.00245303  -0.00460712  0.80252240  1
  Rh  Rh243  1  0.19737455  0.39952234  0.19718779  1
  Rh  Rh244  1  0.79735465  0.59096378  0.79495274  1
  Rh  Rh245  1  0.59767716  0.60235283  0.39565287  1
  Rh  Rh246  1  0.79565116  -0.00143024  0.79427632  1
  Rh  Rh247  1  0.59754848  0.60504068  0.80332823  1
  Rh  Rh248  1  0.80831272  -0.00510245  0.39181036  1
  Rh  Rh249  1  0.59601162  0.19726879  0.81171067  1
