# generated using pymatgen
data_ZrScNbPdRh
_symmetry_space_group_name_H-M   'P 1'
_cell_length_a   16.55239628
_cell_length_b   16.55001989
_cell_length_c   16.55385856
_cell_angle_alpha   89.99979970
_cell_angle_beta   89.95319722
_cell_angle_gamma   89.99385384
_symmetry_Int_Tables_number   1
_chemical_formula_structural   ZrScNbPdRh
_chemical_formula_sum   'Zr50 Sc50 Nb50 Pd50 Rh50'
_cell_volume   4534.80365501
_cell_formula_units_Z   50
loop_
 _symmetry_equiv_pos_site_id
 _symmetry_equiv_pos_as_xyz
  1  'x, y, z'
loop_
 _atom_site_type_symbol
 _atom_site_label
 _atom_site_symmetry_multiplicity
 _atom_site_fract_x
 _atom_site_fract_y
 _atom_site_fract_z
 _atom_site_occupancy
  Zr  Zr0  1  0.90095763  0.09328250  0.29066807  1
  Zr  Zr1  1  0.89570505  0.69453917  0.49278934  1
  Zr  Zr2  1  0.70074322  0.10030163  0.09609078  1
  Zr  Zr3  1  0.49619755  0.50991030  0.29489083  1
  Zr  Zr4  1  0.10637841  0.10654430  0.29463188  1
  Zr  Zr5  1  0.69647062  0.69874466  0.50193742  1
  Zr  Zr6  1  0.50733623  0.89095234  0.49550954  1
  Zr  Zr7  1  0.89898264  0.89671675  0.29312221  1
  Zr  Zr8  1  0.09775591  0.10053248  0.09945043  1
  Zr  Zr9  1  0.10331135  0.69014413  0.90361475  1
  Zr  Zr10  1  0.30352931  0.69373096  0.90057844  1
  Zr  Zr11  1  0.69711318  0.69618028  0.70426577  1
  Zr  Zr12  1  0.10180891  0.29955369  0.48855572  1
  Zr  Zr13  1  0.49483344  0.69544448  0.49653344  1
  Zr  Zr14  1  0.69456952  0.10213269  0.90371074  1
  Zr  Zr15  1  0.88141183  0.09569148  0.49781411  1
  Zr  Zr16  1  0.90018198  0.70336063  0.29779483  1
  Zr  Zr17  1  0.70199536  0.89953406  0.70709858  1
  Zr  Zr18  1  0.50334693  0.31035916  0.70304797  1
  Zr  Zr19  1  0.49977792  0.70185973  0.71138274  1
  Zr  Zr20  1  0.10050999  0.70017829  0.50018323  1
  Zr  Zr21  1  0.10423145  0.10114780  0.49333118  1
  Zr  Zr22  1  0.29871216  0.89114282  0.50555710  1
  Zr  Zr23  1  0.68393227  0.30163467  0.09668058  1
  Zr  Zr24  1  0.89459223  0.49571779  0.69709665  1
  Zr  Zr25  1  0.29855923  0.09965756  0.71039691  1
  Zr  Zr26  1  0.30022458  0.89843476  0.28579559  1
  Zr  Zr27  1  0.70727857  0.09804687  0.70257695  1
  Zr  Zr28  1  0.50204258  0.10662044  0.10050369  1
  Zr  Zr29  1  0.09986186  0.49859410  0.70724141  1
  Zr  Zr30  1  0.69504206  0.49793619  0.69940698  1
  Zr  Zr31  1  0.89641506  0.50842531  0.29157044  1
  Zr  Zr32  1  0.30393209  0.69753118  0.69288243  1
  Zr  Zr33  1  0.49823588  0.30354043  0.50056349  1
  Zr  Zr34  1  0.69669785  0.50194408  0.09846504  1
  Zr  Zr35  1  0.09949121  0.90161632  0.70453751  1
  Zr  Zr36  1  0.89244268  0.50412880  0.09388258  1
  Zr  Zr37  1  0.50022147  0.69891541  0.90022274  1
  Zr  Zr38  1  0.49907287  0.89881078  0.89618646  1
  Zr  Zr39  1  0.09684748  0.10321408  0.70269538  1
  Zr  Zr40  1  0.10102297  0.49777176  0.49930845  1
  Zr  Zr41  1  0.70062706  0.89901137  0.90607111  1
  Zr  Zr42  1  0.69204897  0.49712367  0.50200015  1
  Zr  Zr43  1  0.09853176  0.89434926  0.29283687  1
  Zr  Zr44  1  0.69281978  0.28941157  0.48582262  1
  Zr  Zr45  1  0.30229418  0.10573997  0.49322700  1
  Zr  Zr46  1  0.70202589  0.90154204  0.09965565  1
  Zr  Zr47  1  0.10843961  0.10659463  0.89204433  1
  Zr  Zr48  1  0.90850356  0.90343871  0.10597636  1
  Zr  Zr49  1  0.70217577  0.90946353  0.49875084  1
  Sc  Sc50  1  0.49314182  0.49351002  0.09984635  1
  Sc  Sc51  1  0.90063514  0.10791107  0.90731797  1
  Sc  Sc52  1  0.29639017  0.30026886  0.29399497  1
  Sc  Sc53  1  0.30918454  0.30303455  0.70250429  1
  Sc  Sc54  1  0.30568586  0.51012146  0.51078111  1
  Sc  Sc55  1  0.30522652  0.31021104  0.10307162  1
  Sc  Sc56  1  0.90962033  0.29572886  0.30048884  1
  Sc  Sc57  1  0.49182365  0.09772062  0.29241285  1
  Sc  Sc58  1  0.10462395  0.50250038  0.09513367  1
  Sc  Sc59  1  0.69808477  0.70302802  0.09621387  1
  Sc  Sc60  1  0.70090962  0.10181163  0.31682885  1
  Sc  Sc61  1  0.29364868  0.69030398  0.09905180  1
  Sc  Sc62  1  0.30344073  0.09238033  0.10677647  1
  Sc  Sc63  1  0.90284311  0.09924481  0.10011522  1
  Sc  Sc64  1  0.29791828  0.10317325  0.29368110  1
  Sc  Sc65  1  0.89663299  0.90505943  0.70935737  1
  Sc  Sc66  1  0.68541298  0.50237806  0.29282073  1
  Sc  Sc67  1  0.90039848  0.70266261  0.71347253  1
  Sc  Sc68  1  0.49706478  0.10756373  0.49088195  1
  Sc  Sc69  1  0.10250872  0.29840812  0.29737936  1
  Sc  Sc70  1  0.89710474  0.69682421  0.09998997  1
  Sc  Sc71  1  0.50143881  0.70091576  0.10252534  1
  Sc  Sc72  1  0.30374128  0.50268109  0.10253164  1
  Sc  Sc73  1  0.30469493  0.50641143  0.70470639  1
  Sc  Sc74  1  0.50420609  0.30171398  0.29347623  1
  Sc  Sc75  1  0.10093882  0.89867572  0.91077362  1
  Sc  Sc76  1  0.90278165  0.29536209  0.09309410  1
  Sc  Sc77  1  0.69261082  0.69677409  0.29056444  1
  Sc  Sc78  1  0.30284645  0.91371982  0.90013284  1
  Sc  Sc79  1  0.69373535  0.89916937  0.29970024  1
  Sc  Sc80  1  0.50200808  0.90312975  0.11076654  1
  Sc  Sc81  1  0.90089242  0.30654317  0.90452095  1
  Sc  Sc82  1  0.09480414  0.30028919  0.70947927  1
  Sc  Sc83  1  0.90392905  0.49907605  0.90880979  1
  Sc  Sc84  1  0.90234693  0.30277219  0.70161199  1
  Sc  Sc85  1  0.10555873  0.70059058  0.09437496  1
  Sc  Sc86  1  0.89998332  0.10465351  0.70115692  1
  Sc  Sc87  1  0.89941621  0.69806262  0.90956575  1
  Sc  Sc88  1  0.30283311  0.49655825  0.90627169  1
  Sc  Sc89  1  0.10645272  0.69221748  0.70614059  1
  Sc  Sc90  1  0.89495904  0.89420502  0.48741000  1
  Sc  Sc91  1  0.69974625  0.30197824  0.90760296  1
  Sc  Sc92  1  0.90127614  0.29855376  0.50033522  1
  Sc  Sc93  1  0.89876311  0.89080949  0.90305058  1
  Sc  Sc94  1  0.09218953  0.69487420  0.29418786  1
  Sc  Sc95  1  0.09990560  0.49470914  0.29388570  1
  Sc  Sc96  1  0.89047945  0.50013887  0.50065867  1
  Sc  Sc97  1  0.10149237  0.30189182  0.10307967  1
  Sc  Sc98  1  0.69782424  0.71164039  0.90264047  1
  Sc  Sc99  1  0.70378582  0.30295173  0.70770248  1
  Nb  Nb100  1  0.10502836  0.49479129  0.89861412  1
  Nb  Nb101  1  0.49770397  0.50041606  0.89482042  1
  Nb  Nb102  1  0.29057035  0.89398883  0.09607972  1
  Nb  Nb103  1  0.69686972  0.09832195  0.50461019  1
  Nb  Nb104  1  0.49313529  0.90106772  0.70318996  1
  Nb  Nb105  1  0.49775175  0.88972949  0.30019435  1
  Nb  Nb106  1  0.49869653  0.30002433  0.09783108  1
  Nb  Nb107  1  0.69787731  0.30182885  0.29892866  1
  Nb  Nb108  1  0.50526273  0.49322766  0.50246817  1
  Nb  Nb109  1  0.29573007  0.69614551  0.50278458  1
  Nb  Nb110  1  0.30359330  0.50412392  0.29377807  1
  Nb  Nb111  1  0.30980034  0.69033703  0.29941837  1
  Nb  Nb112  1  0.11178398  0.89715523  0.10183850  1
  Nb  Nb113  1  0.70191505  0.50011280  0.90673264  1
  Nb  Nb114  1  0.30212901  0.30126396  0.49995722  1
  Nb  Nb115  1  0.50257811  0.10108637  0.70515696  1
  Nb  Nb116  1  0.50275515  0.50101647  0.70236854  1
  Nb  Nb117  1  0.11240216  0.31176922  0.90011693  1
  Nb  Nb118  1  0.49751352  0.70752038  0.29632537  1
  Nb  Nb119  1  0.30549413  0.10600684  0.90165074  1
  Nb  Nb120  1  0.10132725  0.89865997  0.49748109  1
  Nb  Nb121  1  0.30552917  0.89752980  0.70231162  1
  Nb  Nb122  1  0.49724624  0.30713676  0.90742631  1
  Nb  Nb123  1  0.30305686  0.30200173  0.90079392  1
  Nb  Nb124  1  0.49615860  0.09972279  0.89897923  1
  Nb  Nb125  1  0.00266262  -0.00520686  0.59068799  1
  Nb  Nb126  1  0.39886344  -0.01213731  0.39960907  1
  Nb  Nb127  1  0.20285601  0.20313046  0.59882757  1
  Nb  Nb128  1  0.80229952  0.79845359  0.60026595  1
  Nb  Nb129  1  0.20598061  0.79098967  0.39821700  1
  Nb  Nb130  1  0.79282098  0.39799210  0.38973553  1
  Nb  Nb131  1  0.20195143  0.00053854  0.60115655  1
  Nb  Nb132  1  0.20208396  0.39335292  0.59667560  1
  Nb  Nb133  1  0.59687828  0.59486749  -0.00730651  1
  Nb  Nb134  1  0.40157744  0.20249067  -0.00328032  1
  Nb  Nb135  1  0.20898570  0.20441037  -0.00675777  1
  Nb  Nb136  1  0.39786972  0.40612228  0.40225477  1
  Nb  Nb137  1  0.20805146  0.80156477  0.79974748  1
  Nb  Nb138  1  0.20891533  0.60222016  0.39631880  1
  Nb  Nb139  1  0.60018330  0.19414669  0.60351001  1
  Nb  Nb140  1  0.39390937  0.80437899  0.00274275  1
  Nb  Nb141  1  0.00403778  -0.00215504  0.39939527  1
  Nb  Nb142  1  0.79309601  0.20610248  0.20190375  1
  Nb  Nb143  1  0.59362119  0.00504233  0.60370109  1
  Nb  Nb144  1  0.40689867  0.20137182  0.80896779  1
  Nb  Nb145  1  -0.00244505  0.80062273  0.59813595  1
  Nb  Nb146  1  -0.00245454  0.60268327  0.60100672  1
  Nb  Nb147  1  0.79276370  0.59416239  0.80600368  1
  Nb  Nb148  1  0.40252755  -0.00122126  0.60193252  1
  Nb  Nb149  1  0.79507899  0.39376143  0.20092277  1
  Pd  Pd150  1  0.60013210  -0.00239504  0.79964300  1
  Pd  Pd151  1  0.39615944  0.40804319  0.60022022  1
  Pd  Pd152  1  0.78756095  0.79811161  0.39796569  1
  Pd  Pd153  1  0.60299288  0.00386762  0.20862489  1
  Pd  Pd154  1  0.00183642  0.79675967  0.00579430  1
  Pd  Pd155  1  0.00555248  0.40123709  0.60012660  1
  Pd  Pd156  1  0.79337350  0.20894790  0.60148488  1
  Pd  Pd157  1  0.39371160  0.79954006  0.39762145  1
  Pd  Pd158  1  0.20063187  -0.00673673  0.80131486  1
  Pd  Pd159  1  0.39876848  0.59338765  0.40447562  1
  Pd  Pd160  1  0.58921646  0.00452565  0.39885325  1
  Pd  Pd161  1  0.60445442  0.80513571  0.60560545  1
  Pd  Pd162  1  0.21020542  0.40118599  0.79216692  1
  Pd  Pd163  1  0.20057172  0.00854566  0.00120603  1
  Pd  Pd164  1  -0.01164762  0.40736000  0.39644913  1
  Pd  Pd165  1  0.20446401  -0.00917710  0.39661261  1
  Pd  Pd166  1  0.60278613  0.40048263  0.80911321  1
  Pd  Pd167  1  0.80478234  0.20437390  0.80716396  1
  Pd  Pd168  1  0.00130244  -0.00088758  -0.00468561  1
  Pd  Pd169  1  -0.00631584  0.00143115  0.80734012  1
  Pd  Pd170  1  0.20014617  0.40289857  0.19522362  1
  Pd  Pd171  1  0.80321417  0.40461251  0.80822533  1
  Pd  Pd172  1  0.19305346  0.80131098  0.60589453  1
  Pd  Pd173  1  0.59129242  -0.00356856  0.00209352  1
  Pd  Pd174  1  -0.00912552  0.59289911  0.80164689  1
  Pd  Pd175  1  0.79534268  0.79690616  0.19593051  1
  Pd  Pd176  1  0.59885103  0.60353137  0.39717661  1
  Pd  Pd177  1  0.00434628  0.59130705  0.40100347  1
  Pd  Pd178  1  0.80860401  0.00460522  0.81221757  1
  Pd  Pd179  1  0.60417052  0.19178863  0.20944256  1
  Pd  Pd180  1  0.40687569  0.79728797  0.60157947  1
  Pd  Pd181  1  0.40351954  -0.00149020  0.00889929  1
  Pd  Pd182  1  0.01333241  0.20787908  -0.00612563  1
  Pd  Pd183  1  0.20147162  0.78373393  0.20529045  1
  Pd  Pd184  1  0.00635123  0.40174463  0.00292598  1
  Pd  Pd185  1  0.00864233  0.79685994  0.80135149  1
  Pd  Pd186  1  0.40050009  0.20802649  0.38567519  1
  Pd  Pd187  1  0.39575906  0.79451805  0.18855415  1
  Pd  Pd188  1  -0.00658886  0.39722949  0.19419369  1
  Pd  Pd189  1  0.80974364  -0.00016862  -0.00183431  1
  Pd  Pd190  1  0.00205505  0.19556515  0.59561319  1
  Pd  Pd191  1  0.21215202  0.40932594  0.40226541  1
  Pd  Pd192  1  0.00412271  0.60187202  0.18888944  1
  Pd  Pd193  1  0.40224464  0.19567264  0.60954267  1
  Pd  Pd194  1  -0.00463394  0.20935039  0.80942580  1
  Pd  Pd195  1  -0.00800031  0.19076399  0.40070883  1
  Pd  Pd196  1  0.79108147  0.38809174  0.58995496  1
  Pd  Pd197  1  0.59100597  0.60048946  0.60252101  1
  Pd  Pd198  1  0.78614311  0.59243841  0.38949689  1
  Pd  Pd199  1  0.59762518  0.20661961  0.80168169  1
  Rh  Rh200  1  0.40033760  0.59482979  0.79866143  1
  Rh  Rh201  1  0.60017274  0.80679825  0.80050445  1
  Rh  Rh202  1  0.19756704  0.00282737  0.19449900  1
  Rh  Rh203  1  0.59249786  0.20027562  -0.00786979  1
  Rh  Rh204  1  0.40267119  0.39841590  0.20819515  1
  Rh  Rh205  1  0.58953123  0.79889334  0.00313325  1
  Rh  Rh206  1  0.80950574  0.61082912  0.61399363  1
  Rh  Rh207  1  0.79745197  0.79299934  0.80064509  1
  Rh  Rh208  1  0.80373554  0.80314537  0.00752907  1
  Rh  Rh209  1  0.00304170  0.79490738  0.18959316  1
  Rh  Rh210  1  0.60010343  0.80162383  0.20004399  1
  Rh  Rh211  1  0.78777321  0.00876370  0.20215124  1
  Rh  Rh212  1  0.79625441  0.20319600  0.00647295  1
  Rh  Rh213  1  0.20662514  0.60028205  0.80457469  1
  Rh  Rh214  1  0.40228289  0.60397703  0.19204046  1
  Rh  Rh215  1  0.20687745  0.21122608  0.80009269  1
  Rh  Rh216  1  0.39187243  0.80123008  0.80866077  1
  Rh  Rh217  1  -0.00403074  0.20132468  0.19731781  1
  Rh  Rh218  1  0.78946863  0.60802542  -0.00692921  1
  Rh  Rh219  1  0.79476362  0.59824387  0.19867605  1
  Rh  Rh220  1  0.79943073  0.39500848  0.00928095  1
  Rh  Rh221  1  0.59542861  0.40173202  0.19886485  1
  Rh  Rh222  1  0.01129015  -0.00078599  0.20063489  1
  Rh  Rh223  1  0.20039814  0.58995437  -0.00285171  1
  Rh  Rh224  1  0.20785854  0.20738921  0.39740900  1
  Rh  Rh225  1  0.40035159  -0.00480187  0.20090382  1
  Rh  Rh226  1  0.39871006  0.20571403  0.19210390  1
  Rh  Rh227  1  0.19835699  0.59743988  0.20628746  1
  Rh  Rh228  1  0.80340215  -0.00461603  0.39079719  1
  Rh  Rh229  1  0.19234915  0.58938377  0.59818886  1
  Rh  Rh230  1  0.00588035  0.59658403  0.00056661  1
  Rh  Rh231  1  0.80311455  -0.00830038  0.60263599  1
  Rh  Rh232  1  0.59432841  0.40382809  0.39465781  1
  Rh  Rh233  1  0.20307911  0.39935558  0.00402202  1
  Rh  Rh234  1  0.60488231  0.59265416  0.80745715  1
  Rh  Rh235  1  0.59109857  0.19605657  0.39725651  1
  Rh  Rh236  1  0.40263717  0.00453733  0.79666418  1
  Rh  Rh237  1  0.59217788  0.40843134  -0.00324722  1
  Rh  Rh238  1  0.40772957  0.60342197  0.00170124  1
  Rh  Rh239  1  0.00731279  0.80544337  0.40064183  1
  Rh  Rh240  1  0.20818121  0.80038307  -0.00968094  1
  Rh  Rh241  1  -0.00218597  0.40024063  0.80692837  1
  Rh  Rh242  1  0.80657208  0.20533265  0.39244512  1
  Rh  Rh243  1  0.59269771  0.60286378  0.18920730  1
  Rh  Rh244  1  0.60317913  0.79081417  0.39417093  1
  Rh  Rh245  1  0.60604014  0.39122014  0.60019745  1
  Rh  Rh246  1  0.40060648  0.40028078  0.00002439  1
  Rh  Rh247  1  0.40065084  0.40243580  0.80202175  1
  Rh  Rh248  1  0.20230651  0.20187678  0.18823297  1
  Rh  Rh249  1  0.41169207  0.59968484  0.60386477  1
