# generated using pymatgen
data_ZrScNbPdRh
_symmetry_space_group_name_H-M   'P 1'
_cell_length_a   16.55696812
_cell_length_b   16.55431937
_cell_length_c   16.55464022
_cell_angle_alpha   90.01666091
_cell_angle_beta   89.96577354
_cell_angle_gamma   90.01472750
_symmetry_Int_Tables_number   1
_chemical_formula_structural   ZrScNbPdRh
_chemical_formula_sum   'Zr50 Sc50 Nb50 Pd50 Rh50'
_cell_volume   4537.44922701
_cell_formula_units_Z   50
loop_
 _symmetry_equiv_pos_site_id
 _symmetry_equiv_pos_as_xyz
  1  'x, y, z'
loop_
 _atom_site_type_symbol
 _atom_site_label
 _atom_site_symmetry_multiplicity
 _atom_site_fract_x
 _atom_site_fract_y
 _atom_site_fract_z
 _atom_site_occupancy
  Zr  Zr0  1  0.30947777  0.10594204  0.50144888  1
  Zr  Zr1  1  0.09309861  0.69973888  0.89236870  1
  Zr  Zr2  1  0.49363095  0.10271688  0.10220685  1
  Zr  Zr3  1  0.09885353  0.29344885  0.89732952  1
  Zr  Zr4  1  0.29992374  0.29298824  0.10277692  1
  Zr  Zr5  1  0.69617242  0.49940252  0.90253676  1
  Zr  Zr6  1  0.70529823  0.70539357  0.89835057  1
  Zr  Zr7  1  0.69927513  0.10182569  0.29946892  1
  Zr  Zr8  1  0.49919777  0.89781528  0.49834665  1
  Zr  Zr9  1  0.30023718  0.10441372  0.69920689  1
  Zr  Zr10  1  0.49422548  0.70158156  0.90574687  1
  Zr  Zr11  1  0.89568003  0.89583889  0.48815349  1
  Zr  Zr12  1  0.70936109  0.89774353  0.30650679  1
  Zr  Zr13  1  0.29968626  0.50582494  0.29983082  1
  Zr  Zr14  1  0.09837161  0.49513945  0.30246466  1
  Zr  Zr15  1  0.30113277  0.89305069  0.30579650  1
  Zr  Zr16  1  0.69712007  0.29548359  0.10296179  1
  Zr  Zr17  1  0.89881789  0.09690626  0.90793365  1
  Zr  Zr18  1  0.30204811  0.69919927  0.69989248  1
  Zr  Zr19  1  0.08994628  0.10638994  0.49753387  1
  Zr  Zr20  1  0.10033945  0.89937567  0.50167841  1
  Zr  Zr21  1  0.51175802  0.09728205  0.70158275  1
  Zr  Zr22  1  0.89895226  0.70498619  0.90075696  1
  Zr  Zr23  1  0.49965492  0.91082767  0.90104499  1
  Zr  Zr24  1  0.09655026  0.50448668  0.70054244  1
  Zr  Zr25  1  0.09342725  0.30031560  0.30399615  1
  Zr  Zr26  1  0.09662136  0.69759278  0.09730408  1
  Zr  Zr27  1  0.50167694  0.70322841  0.49546270  1
  Zr  Zr28  1  0.50501899  0.69502365  0.29326516  1
  Zr  Zr29  1  0.49515740  0.29465141  0.49787151  1
  Zr  Zr30  1  0.89752428  0.71013335  0.69491647  1
  Zr  Zr31  1  0.09616075  0.70283956  0.69572887  1
  Zr  Zr32  1  0.70065300  0.29794775  0.29683836  1
  Zr  Zr33  1  0.69887969  0.09586837  0.89079996  1
  Zr  Zr34  1  0.70049610  0.89508826  0.69817740  1
  Zr  Zr35  1  0.89807206  0.29876474  0.69523787  1
  Zr  Zr36  1  0.70054642  0.30374245  0.90443592  1
  Zr  Zr37  1  0.70315404  0.89744717  0.11017358  1
  Zr  Zr38  1  0.50089796  0.09409293  0.50517842  1
  Zr  Zr39  1  0.89518545  0.90281855  0.09867421  1
  Zr  Zr40  1  0.30320754  0.70816813  0.49971493  1
  Zr  Zr41  1  0.29770740  0.30274016  0.89715018  1
  Zr  Zr42  1  0.49955047  0.10159811  0.30977555  1
  Zr  Zr43  1  0.29437977  0.49738781  0.48902402  1
  Zr  Zr44  1  0.50733706  0.89944361  0.69322162  1
  Zr  Zr45  1  0.09639616  0.30062912  0.10115940  1
  Zr  Zr46  1  0.70196873  0.29608530  0.69840093  1
  Zr  Zr47  1  0.49534660  0.90424401  0.09501346  1
  Zr  Zr48  1  0.50320084  0.30023521  0.10516049  1
  Zr  Zr49  1  0.09936621  0.90202032  0.10117713  1
  Sc  Sc50  1  0.50134208  0.70089469  0.68691846  1
  Sc  Sc51  1  0.09595384  0.08779831  0.89940485  1
  Sc  Sc52  1  0.29651773  0.90564832  0.09525489  1
  Sc  Sc53  1  0.30582029  0.69628659  0.09554062  1
  Sc  Sc54  1  0.49748545  0.29859705  0.70321023  1
  Sc  Sc55  1  0.70134549  0.10165872  0.49529437  1
  Sc  Sc56  1  0.90540815  0.90425658  0.89680953  1
  Sc  Sc57  1  0.90311408  0.71008105  0.09976328  1
  Sc  Sc58  1  0.90409230  0.49337524  0.09885639  1
  Sc  Sc59  1  0.09870436  0.89829522  0.70934115  1
  Sc  Sc60  1  0.90070221  0.49205873  0.69521202  1
  Sc  Sc61  1  0.50694575  0.50841550  0.10612158  1
  Sc  Sc62  1  0.89952756  0.70307677  0.31395590  1
  Sc  Sc63  1  0.70738786  0.50370596  0.69373949  1
  Sc  Sc64  1  0.30202450  0.69679296  0.90113508  1
  Sc  Sc65  1  0.50221136  0.50325190  0.29917729  1
  Sc  Sc66  1  0.09564354  0.29981033  0.69128294  1
  Sc  Sc67  1  0.50334074  0.50765286  0.49101333  1
  Sc  Sc68  1  0.10249931  0.30380561  0.50031184  1
  Sc  Sc69  1  0.29807330  0.09748975  0.89517415  1
  Sc  Sc70  1  0.30168625  0.69482256  0.30171114  1
  Sc  Sc71  1  0.69955619  0.49485468  0.31676610  1
  Sc  Sc72  1  0.10018547  0.89586685  0.29687598  1
  Sc  Sc73  1  0.30342870  0.90774773  0.90231067  1
  Sc  Sc74  1  0.29972055  0.29200658  0.30952192  1
  Sc  Sc75  1  0.29225356  0.90304282  0.69392257  1
  Sc  Sc76  1  0.89070111  0.28844674  0.09064460  1
  Sc  Sc77  1  0.10204443  0.70338959  0.29822598  1
  Sc  Sc78  1  0.70522466  0.90206169  0.90347692  1
  Sc  Sc79  1  0.49892395  0.49850217  0.89641477  1
  Sc  Sc80  1  0.09885792  0.49908100  0.50281523  1
  Sc  Sc81  1  0.90034937  0.49795616  0.89200288  1
  Sc  Sc82  1  0.69235719  0.69960449  0.11058752  1
  Sc  Sc83  1  0.89016199  0.50100284  0.49251755  1
  Sc  Sc84  1  0.71001533  0.09925745  0.10270826  1
  Sc  Sc85  1  0.49845728  0.30442049  0.89179079  1
  Sc  Sc86  1  0.70636064  0.30732307  0.49237040  1
  Sc  Sc87  1  0.49577783  0.50562977  0.70136585  1
  Sc  Sc88  1  0.30205840  0.50619928  0.89816611  1
  Sc  Sc89  1  0.51490651  0.89596178  0.31142496  1
  Sc  Sc90  1  0.69015559  0.49177127  0.09923798  1
  Sc  Sc91  1  0.90563434  0.29687834  0.50306602  1
  Sc  Sc92  1  0.28583382  0.50783818  0.09124493  1
  Sc  Sc93  1  0.50658489  0.29923073  0.29754550  1
  Sc  Sc94  1  0.10182302  0.10104163  0.30578379  1
  Sc  Sc95  1  0.10522695  0.09912538  0.70450457  1
  Sc  Sc96  1  0.29554636  0.09962105  0.10547198  1
  Sc  Sc97  1  0.89781346  0.09985697  0.31581850  1
  Sc  Sc98  1  0.29888499  0.29576410  0.70380120  1
  Sc  Sc99  1  0.30183866  0.50516293  0.70185168  1
  Nb  Nb100  1  0.89954665  0.29611644  0.90016441  1
  Nb  Nb101  1  0.30352740  0.09607477  0.30316199  1
  Nb  Nb102  1  0.09452520  0.09778339  0.09640294  1
  Nb  Nb103  1  0.90116412  0.70425914  0.50274283  1
  Nb  Nb104  1  0.90118974  0.49808121  0.29811039  1
  Nb  Nb105  1  0.50139634  0.09367488  0.90305120  1
  Nb  Nb106  1  0.70366834  0.09695595  0.69610202  1
  Nb  Nb107  1  0.10329340  0.49889032  0.90861337  1
  Nb  Nb108  1  0.10322970  0.90268048  0.89776935  1
  Nb  Nb109  1  0.69866595  0.70152271  0.30117675  1
  Nb  Nb110  1  0.90153801  0.90382066  0.69120599  1
  Nb  Nb111  1  0.50017589  0.70423299  0.10407301  1
  Nb  Nb112  1  0.90494104  0.09537197  0.50312976  1
  Nb  Nb113  1  0.09918790  0.49703862  0.09592267  1
  Nb  Nb114  1  0.30341484  0.30315078  0.50458676  1
  Nb  Nb115  1  0.90385059  0.10029627  0.09574789  1
  Nb  Nb116  1  0.70201331  0.69960454  0.69808394  1
  Nb  Nb117  1  0.89732211  0.09988504  0.69880919  1
  Nb  Nb118  1  0.08602714  0.70139593  0.50745680  1
  Nb  Nb119  1  0.69815036  0.89799539  0.49736666  1
  Nb  Nb120  1  0.69955785  0.49821710  0.50335802  1
  Nb  Nb121  1  0.71097962  0.69045200  0.50416320  1
  Nb  Nb122  1  0.30525482  0.90100928  0.49649603  1
  Nb  Nb123  1  0.90305090  0.30695233  0.29448812  1
  Nb  Nb124  1  0.90302993  0.90291039  0.29994131  1
  Nb  Nb125  1  0.20830667  -0.00066220  0.40562605  1
  Nb  Nb126  1  0.80198906  0.00094187  0.59899291  1
  Nb  Nb127  1  -0.00494367  0.19349116  0.19687129  1
  Nb  Nb128  1  0.19868285  0.39986546  0.20033291  1
  Nb  Nb129  1  0.59824788  0.40371647  0.59544582  1
  Nb  Nb130  1  0.39973522  0.39861401  0.59366378  1
  Nb  Nb131  1  -0.00674232  0.00094904  0.59955917  1
  Nb  Nb132  1  0.39918759  -0.00268458  0.20997250  1
  Nb  Nb133  1  0.80307033  0.59415729  0.20469926  1
  Nb  Nb134  1  -0.00943726  0.19734001  0.80037965  1
  Nb  Nb135  1  -0.00399985  0.00410896  0.19957948  1
  Nb  Nb136  1  0.59566447  0.19452802  -0.00528675  1
  Nb  Nb137  1  0.79939918  0.60102140  0.00576331  1
  Nb  Nb138  1  0.00347654  0.39655479  -0.00581200  1
  Nb  Nb139  1  0.59548142  0.80078787  0.00483356  1
  Nb  Nb140  1  0.19198685  0.40422387  0.80398520  1
  Nb  Nb141  1  0.39090183  0.40236065  0.19628080  1
  Nb  Nb142  1  0.39748942  0.39801395  0.00795329  1
  Nb  Nb143  1  0.80383720  0.40105797  0.20425773  1
  Nb  Nb144  1  -0.00343547  0.59260583  0.20199525  1
  Nb  Nb145  1  0.19301770  0.80208610  -0.00512274  1
  Nb  Nb146  1  0.40328901  0.80290640  0.79759018  1
  Nb  Nb147  1  0.40577566  0.80275093  0.19811170  1
  Nb  Nb148  1  0.19388835  0.19761690  0.00190050  1
  Nb  Nb149  1  0.60672162  0.60967524  0.79563302  1
  Pd  Pd150  1  0.60595398  0.60362583  0.39946917  1
  Pd  Pd151  1  0.59487101  0.00135993  0.20378040  1
  Pd  Pd152  1  0.60190164  0.20177526  0.40600541  1
  Pd  Pd153  1  -0.00373616  0.40065384  0.41177451  1
  Pd  Pd154  1  0.19293341  0.00399879  0.59517640  1
  Pd  Pd155  1  0.40455882  0.39997555  0.39437298  1
  Pd  Pd156  1  0.19287867  0.19886009  0.20094031  1
  Pd  Pd157  1  0.80036542  0.59679760  0.80189659  1
  Pd  Pd158  1  0.00588529  0.79953872  0.39612006  1
  Pd  Pd159  1  0.61130208  0.00152229  0.00649069  1
  Pd  Pd160  1  0.59847726  0.20010610  0.80420894  1
  Pd  Pd161  1  0.19800187  0.00276523  0.20996062  1
  Pd  Pd162  1  0.80709119  0.20549624  0.40272001  1
  Pd  Pd163  1  0.39795275  0.19896227  -0.00927886  1
  Pd  Pd164  1  0.19486031  0.79746231  0.40460989  1
  Pd  Pd165  1  0.19871570  0.59663955  0.80304018  1
  Pd  Pd166  1  0.80606506  0.40573963  0.00517077  1
  Pd  Pd167  1  0.59365575  0.79740199  0.80672119  1
  Pd  Pd168  1  0.20651349  0.40062310  0.60942875  1
  Pd  Pd169  1  0.39813736  -0.00353245  0.79008475  1
  Pd  Pd170  1  0.79709457  0.40121440  0.79794670  1
  Pd  Pd171  1  0.60481038  0.20694345  0.59446074  1
  Pd  Pd172  1  0.80259689  0.20023234  0.80308983  1
  Pd  Pd173  1  0.19296412  0.59869295  0.19736388  1
  Pd  Pd174  1  -0.00749564  0.60022538  0.79595908  1
  Pd  Pd175  1  0.00218144  0.60064799  0.39836709  1
  Pd  Pd176  1  0.60871374  0.79323085  0.59171617  1
  Pd  Pd177  1  0.39839374  0.59125340  0.59171780  1
  Pd  Pd178  1  0.80152488  -0.00581707  0.79538887  1
  Pd  Pd179  1  0.20165923  0.60281347  0.59295663  1
  Pd  Pd180  1  0.21035519  0.80430370  0.80716144  1
  Pd  Pd181  1  0.18944542  0.61088377  0.40842340  1
  Pd  Pd182  1  -0.01054138  0.59429973  0.59693096  1
  Pd  Pd183  1  0.00423026  0.80872922  -0.00508552  1
  Pd  Pd184  1  0.40571443  0.19482827  0.80217018  1
  Pd  Pd185  1  0.81012341  0.00975259  0.20702695  1
  Pd  Pd186  1  0.21168425  0.79425606  0.18955811  1
  Pd  Pd187  1  0.39948481  -0.00328307  0.60576876  1
  Pd  Pd188  1  0.40371607  0.58921490  0.00620078  1
  Pd  Pd189  1  0.80862791  0.59803885  0.60040547  1
  Pd  Pd190  1  0.60472951  0.60826813  -0.00356582  1
  Pd  Pd191  1  0.20156679  0.19804186  0.40589044  1
  Pd  Pd192  1  -0.00941334  0.59339959  0.00319850  1
  Pd  Pd193  1  0.80639251  0.80950901  0.79838756  1
  Pd  Pd194  1  0.79784032  0.19653785  0.59053504  1
  Pd  Pd195  1  0.00412669  0.39403186  0.80185511  1
  Pd  Pd196  1  0.19909593  0.79952485  0.59888303  1
  Pd  Pd197  1  0.80681840  0.78939270  0.20571334  1
  Pd  Pd198  1  0.19760208  0.20263206  0.59732533  1
  Pd  Pd199  1  0.60327232  0.41020360  0.78685238  1
  Rh  Rh200  1  0.41004754  0.61145513  0.79587458  1
  Rh  Rh201  1  0.58607846  0.39052097  -0.00270644  1
  Rh  Rh202  1  0.19123115  0.19996668  0.80375146  1
  Rh  Rh203  1  -0.00206962  0.40541420  0.59389294  1
  Rh  Rh204  1  0.78946443  0.79477511  0.00885871  1
  Rh  Rh205  1  0.61122912  0.79127023  0.40676368  1
  Rh  Rh206  1  0.00094390  0.19394435  0.60872519  1
  Rh  Rh207  1  0.79741630  0.60502453  0.39661367  1
  Rh  Rh208  1  0.79504682  0.39767216  0.59639542  1
  Rh  Rh209  1  -0.00086738  -0.00814049  0.00437971  1
  Rh  Rh210  1  0.79572999  0.00006768  0.40481235  1
  Rh  Rh211  1  0.19912033  0.00210455  -0.00423130  1
  Rh  Rh212  1  0.79472749  0.79130900  0.40370510  1
  Rh  Rh213  1  0.39851059  0.59907083  0.19594863  1
  Rh  Rh214  1  0.39026545  0.01135306  0.00665471  1
  Rh  Rh215  1  0.79653400  0.80371148  0.59167921  1
  Rh  Rh216  1  0.60067336  0.19030946  0.19404765  1
  Rh  Rh217  1  0.20181967  -0.00038313  0.79986054  1
  Rh  Rh218  1  -0.00454344  0.80526829  0.79700193  1
  Rh  Rh219  1  0.39726490  0.80155735  -0.00076922  1
  Rh  Rh220  1  0.39793595  -0.00437022  0.39703952  1
  Rh  Rh221  1  0.40281755  0.20545788  0.60759497  1
  Rh  Rh222  1  0.60678155  0.00086444  0.40471934  1
  Rh  Rh223  1  0.40027886  0.60535096  0.40106937  1
  Rh  Rh224  1  0.00891021  -0.00452212  0.39803686  1
  Rh  Rh225  1  -0.00788785  0.80026875  0.20733888  1
  Rh  Rh226  1  0.20008583  0.39246707  -0.00160232  1
  Rh  Rh227  1  0.79834765  0.00004175  0.00012445  1
  Rh  Rh228  1  0.39541032  0.80697107  0.60575892  1
  Rh  Rh229  1  -0.00151822  0.00404274  0.79205700  1
  Rh  Rh230  1  0.40067801  0.20207498  0.39898042  1
  Rh  Rh231  1  0.19934841  0.39345483  0.39562867  1
  Rh  Rh232  1  0.19448590  0.61251852  -0.00634972  1
  Rh  Rh233  1  0.38763038  0.40322846  0.79817087  1
  Rh  Rh234  1  0.59424092  0.80729082  0.19766146  1
  Rh  Rh235  1  0.40517389  0.79484863  0.39227046  1
  Rh  Rh236  1  0.61407052  0.59315227  0.20840780  1
  Rh  Rh237  1  -0.00662708  0.20591622  0.39530172  1
  Rh  Rh238  1  0.60406442  -0.00318525  0.79623376  1
  Rh  Rh239  1  0.59583304  0.39877330  0.40665137  1
  Rh  Rh240  1  0.80513667  0.39535796  0.39620789  1
  Rh  Rh241  1  0.40246634  0.19713650  0.21331654  1
  Rh  Rh242  1  0.78869633  0.19392003  -0.00678074  1
  Rh  Rh243  1  -0.00367259  0.39647886  0.18891271  1
  Rh  Rh244  1  0.00381638  0.20206812  -0.00263480  1
  Rh  Rh245  1  0.61185991  0.00011494  0.59504879  1
  Rh  Rh246  1  0.60323158  0.40640302  0.20913446  1
  Rh  Rh247  1  0.00002492  0.80785699  0.60033464  1
  Rh  Rh248  1  0.80953065  0.20190750  0.20627672  1
  Rh  Rh249  1  0.60498356  0.59533569  0.60341673  1
