# generated using pymatgen
data_ZrScNbPdRh
_symmetry_space_group_name_H-M   'P 1'
_cell_length_a   16.56090355
_cell_length_b   16.55648391
_cell_length_c   16.55988511
_cell_angle_alpha   89.97093168
_cell_angle_beta   89.97678917
_cell_angle_gamma   90.01644309
_symmetry_Int_Tables_number   1
_chemical_formula_structural   ZrScNbPdRh
_chemical_formula_sum   'Zr50 Sc50 Nb50 Pd50 Rh50'
_cell_volume   4540.55927331
_cell_formula_units_Z   50
loop_
 _symmetry_equiv_pos_site_id
 _symmetry_equiv_pos_as_xyz
  1  'x, y, z'
loop_
 _atom_site_type_symbol
 _atom_site_label
 _atom_site_symmetry_multiplicity
 _atom_site_fract_x
 _atom_site_fract_y
 _atom_site_fract_z
 _atom_site_occupancy
  Zr  Zr0  1  0.89338210  0.89978461  0.29901320  1
  Zr  Zr1  1  0.30553593  0.30595874  0.89852764  1
  Zr  Zr2  1  0.29874363  0.70721778  0.89183490  1
  Zr  Zr3  1  0.29836429  0.89596434  0.30610725  1
  Zr  Zr4  1  0.50103055  0.30747703  0.29806764  1
  Zr  Zr5  1  0.29777795  0.10477498  0.69074487  1
  Zr  Zr6  1  0.69811955  0.29991174  0.29698494  1
  Zr  Zr7  1  0.89929875  0.69789190  0.90599687  1
  Zr  Zr8  1  0.68961804  0.88718969  0.90488286  1
  Zr  Zr9  1  0.30248581  0.89218131  0.10600449  1
  Zr  Zr10  1  0.30464161  0.10259500  0.49808478  1
  Zr  Zr11  1  0.50660347  0.71326122  0.89753310  1
  Zr  Zr12  1  0.08918090  0.50194474  0.89865048  1
  Zr  Zr13  1  0.70234013  0.89004821  0.29879300  1
  Zr  Zr14  1  0.48776120  0.69388086  0.10633949  1
  Zr  Zr15  1  0.89944984  0.30447570  0.68901143  1
  Zr  Zr16  1  0.10046984  0.49464226  0.30351390  1
  Zr  Zr17  1  0.29333421  0.68795562  0.50145511  1
  Zr  Zr18  1  0.50521633  0.87963559  0.30130219  1
  Zr  Zr19  1  0.50028513  0.89810365  0.69996570  1
  Zr  Zr20  1  0.29629340  0.88964248  0.70777856  1
  Zr  Zr21  1  0.09483602  0.30070228  0.88900072  1
  Zr  Zr22  1  0.70222201  0.30076274  0.09935447  1
  Zr  Zr23  1  0.49339228  0.49807051  0.90648310  1
  Zr  Zr24  1  0.70422134  0.10619017  0.10291242  1
  Zr  Zr25  1  0.30412007  0.50388497  0.68415378  1
  Zr  Zr26  1  0.90514841  0.69189772  0.10411225  1
  Zr  Zr27  1  0.10069498  0.89308543  0.30055763  1
  Zr  Zr28  1  0.89905417  0.50294633  0.09223364  1
  Zr  Zr29  1  0.10324492  0.10140931  0.50547437  1
  Zr  Zr30  1  0.50005146  0.10922730  0.30662860  1
  Zr  Zr31  1  0.30446163  0.50117243  0.50067553  1
  Zr  Zr32  1  0.10139900  0.29438446  0.30045437  1
  Zr  Zr33  1  0.69524578  0.11233733  0.69764764  1
  Zr  Zr34  1  0.70642443  0.09781164  0.29948812  1
  Zr  Zr35  1  0.89633032  0.09740171  0.10036588  1
  Zr  Zr36  1  0.09489024  0.50281050  0.09965745  1
  Zr  Zr37  1  0.50671111  0.30172727  0.89742488  1
  Zr  Zr38  1  0.10492560  0.50538612  0.49564568  1
  Zr  Zr39  1  0.51004855  0.89590240  0.50186406  1
  Zr  Zr40  1  0.71065371  0.49728341  0.10632073  1
  Zr  Zr41  1  0.89125847  0.70386511  0.29828703  1
  Zr  Zr42  1  0.68689442  0.49777505  0.29819273  1
  Zr  Zr43  1  0.50377743  0.10147510  0.50976258  1
  Zr  Zr44  1  0.30401437  0.90152755  0.90684486  1
  Zr  Zr45  1  0.09673520  0.10294128  0.89911147  1
  Zr  Zr46  1  0.30890700  0.50331620  0.09515056  1
  Zr  Zr47  1  0.10255018  0.70269062  0.70427478  1
  Zr  Zr48  1  0.70393922  0.30482307  0.71219758  1
  Zr  Zr49  1  0.51051091  0.29676362  0.70002637  1
  Sc  Sc50  1  0.30371823  0.50028190  0.89752471  1
  Sc  Sc51  1  0.31228030  0.30803281  0.49857102  1
  Sc  Sc52  1  0.70501717  0.69889545  0.89603840  1
  Sc  Sc53  1  0.08150380  0.30643935  0.49599860  1
  Sc  Sc54  1  0.29432829  0.89493358  0.50371199  1
  Sc  Sc55  1  0.89359491  0.70328073  0.50375390  1
  Sc  Sc56  1  0.88982458  0.30144563  0.09564084  1
  Sc  Sc57  1  0.49709336  0.49957552  0.49323576  1
  Sc  Sc58  1  0.50518989  0.49879060  0.69861149  1
  Sc  Sc59  1  0.89310018  0.70642154  0.70170251  1
  Sc  Sc60  1  0.89497219  0.50544172  0.28730115  1
  Sc  Sc61  1  0.29711388  0.10965985  0.30293934  1
  Sc  Sc62  1  0.29898777  0.70045812  0.69442805  1
  Sc  Sc63  1  0.09023127  0.09483791  0.09591874  1
  Sc  Sc64  1  0.89806535  0.10284112  0.29640027  1
  Sc  Sc65  1  0.69615812  0.69923454  0.50900284  1
  Sc  Sc66  1  0.90449650  0.09984011  0.90313856  1
  Sc  Sc67  1  0.70499579  0.90154026  0.69848086  1
  Sc  Sc68  1  0.70499904  0.11346793  0.89757210  1
  Sc  Sc69  1  0.09797700  0.69306021  0.30373634  1
  Sc  Sc70  1  0.90205927  0.89889728  0.89632179  1
  Sc  Sc71  1  0.50237309  0.29871764  0.49147552  1
  Sc  Sc72  1  0.69867946  0.09955899  0.49545828  1
  Sc  Sc73  1  0.30555062  0.30118448  0.11006329  1
  Sc  Sc74  1  0.90776956  0.48947243  0.50370093  1
  Sc  Sc75  1  0.10479069  0.29575458  0.10631916  1
  Sc  Sc76  1  0.30388618  0.09697547  0.09558976  1
  Sc  Sc77  1  0.90586541  0.29315727  0.30629242  1
  Sc  Sc78  1  0.70702951  0.49929728  0.89085365  1
  Sc  Sc79  1  0.09459127  0.90152066  0.70104094  1
  Sc  Sc80  1  0.30026400  0.29913332  0.30035137  1
  Sc  Sc81  1  0.49585277  0.50219467  0.11043819  1
  Sc  Sc82  1  0.29657544  0.30854133  0.69518133  1
  Sc  Sc83  1  0.10293345  0.49050329  0.70070392  1
  Sc  Sc84  1  0.50652601  0.70240903  0.69087601  1
  Sc  Sc85  1  0.10269301  0.89943532  0.50551486  1
  Sc  Sc86  1  0.70366837  0.28913028  0.50212429  1
  Sc  Sc87  1  0.70564598  0.50663684  0.69893864  1
  Sc  Sc88  1  0.70748239  0.70487987  0.09717985  1
  Sc  Sc89  1  0.09208833  0.70573010  0.89248341  1
  Sc  Sc90  1  0.90181382  0.90409194  0.69815071  1
  Sc  Sc91  1  0.09036799  0.90478382  0.90605634  1
  Sc  Sc92  1  0.89982350  0.09525514  0.69678426  1
  Sc  Sc93  1  0.30729163  0.70248942  0.30449253  1
  Sc  Sc94  1  0.89609269  0.90479084  0.50853163  1
  Sc  Sc95  1  0.49527355  0.11440572  0.09929589  1
  Sc  Sc96  1  0.29961806  0.49444953  0.30381932  1
  Sc  Sc97  1  0.89542897  0.10686638  0.50039128  1
  Sc  Sc98  1  0.49944550  0.88259432  0.09427607  1
  Sc  Sc99  1  0.90576212  0.89262195  0.10599502  1
  Nb  Nb100  1  0.50652254  0.68948430  0.30438163  1
  Nb  Nb101  1  0.30007836  0.69684912  0.09825667  1
  Nb  Nb102  1  0.09655760  0.69310936  0.49669350  1
  Nb  Nb103  1  0.50070981  0.09924676  0.70184427  1
  Nb  Nb104  1  0.10236692  0.11173935  0.70034735  1
  Nb  Nb105  1  0.30270199  0.09781928  0.90248452  1
  Nb  Nb106  1  0.88870546  0.30961010  0.90022982  1
  Nb  Nb107  1  0.50294643  0.30510762  0.09939440  1
  Nb  Nb108  1  0.69677856  0.49712281  0.49483142  1
  Nb  Nb109  1  0.49600117  0.09844879  0.90114665  1
  Nb  Nb110  1  0.90362335  0.49607802  0.90342000  1
  Nb  Nb111  1  0.09898400  0.28856792  0.69845790  1
  Nb  Nb112  1  0.50092973  0.89954934  0.89750610  1
  Nb  Nb113  1  0.69543339  0.90268600  0.10287352  1
  Nb  Nb114  1  0.09571219  0.70234898  0.10238331  1
  Nb  Nb115  1  0.50377943  0.50995828  0.30410957  1
  Nb  Nb116  1  0.90148391  0.49959022  0.69818057  1
  Nb  Nb117  1  0.69960523  0.69494605  0.70346427  1
  Nb  Nb118  1  0.70558558  0.30517853  0.89926955  1
  Nb  Nb119  1  0.89645307  0.30096998  0.49453472  1
  Nb  Nb120  1  0.70135718  0.89883799  0.48858819  1
  Nb  Nb121  1  0.09881378  0.10158544  0.30370818  1
  Nb  Nb122  1  0.09770671  0.89352617  0.10371855  1
  Nb  Nb123  1  0.49602240  0.69455289  0.49110995  1
  Nb  Nb124  1  0.69632052  0.70150575  0.30359565  1
  Nb  Nb125  1  0.59841381  0.00187993  -0.00026673  1
  Nb  Nb126  1  0.40344362  0.60377844  0.79720183  1
  Nb  Nb127  1  0.60776652  0.40071774  0.59540500  1
  Nb  Nb128  1  0.59371246  0.00474697  0.80545797  1
  Nb  Nb129  1  0.60237524  0.40145731  0.00165353  1
  Nb  Nb130  1  0.79754456  0.40202763  0.40098048  1
  Nb  Nb131  1  0.19745249  -0.00304637  0.20199957  1
  Nb  Nb132  1  0.79097459  -0.00474145  0.00376878  1
  Nb  Nb133  1  0.40432987  -0.00324876  0.39991064  1
  Nb  Nb134  1  -0.00231103  0.80257683  0.40227998  1
  Nb  Nb135  1  0.40345652  -0.00460133  0.20759469  1
  Nb  Nb136  1  0.59612500  -0.00292305  0.19619503  1
  Nb  Nb137  1  0.00452681  0.00071542  0.39792791  1
  Nb  Nb138  1  0.19795389  0.60503396  0.00106726  1
  Nb  Nb139  1  0.20215408  0.20167351  -0.00777068  1
  Nb  Nb140  1  0.00069228  0.39973446  0.19953973  1
  Nb  Nb141  1  0.20232506  0.60246693  0.19235222  1
  Nb  Nb142  1  0.79108130  0.59494653  0.40116597  1
  Nb  Nb143  1  0.19876067  0.40105078  -0.00031859  1
  Nb  Nb144  1  0.60019398  0.59608541  0.00044751  1
  Nb  Nb145  1  0.19544660  0.79672075  0.00844824  1
  Nb  Nb146  1  0.40260644  0.19133422  0.80039857  1
  Nb  Nb147  1  0.00068235  0.59988370  0.60242027  1
  Nb  Nb148  1  0.40139704  0.00394805  0.80107958  1
  Nb  Nb149  1  0.20334160  0.00972532  0.80241390  1
  Pd  Pd150  1  0.19100576  0.39322584  0.59141258  1
  Pd  Pd151  1  0.59812401  0.19711900  0.20065525  1
  Pd  Pd152  1  0.19913806  0.21074696  0.40947547  1
  Pd  Pd153  1  0.00070225  0.79446853  0.59573438  1
  Pd  Pd154  1  0.60989742  0.80089161  0.60220060  1
  Pd  Pd155  1  0.80719421  0.80614102  0.00560599  1
  Pd  Pd156  1  0.59516655  0.59845741  0.80392466  1
  Pd  Pd157  1  0.79884400  0.80300446  0.79765415  1
  Pd  Pd158  1  0.79278587  0.00452582  0.59662881  1
  Pd  Pd159  1  0.79292974  0.80336403  0.59996243  1
  Pd  Pd160  1  0.19688302  -0.00362690  0.60936806  1
  Pd  Pd161  1  0.20166667  0.18649547  0.18926921  1
  Pd  Pd162  1  0.00450503  0.38748380  0.00764899  1
  Pd  Pd163  1  0.79071294  -0.00108476  0.81032236  1
  Pd  Pd164  1  0.40133048  0.40287947  0.78789504  1
  Pd  Pd165  1  0.19997804  0.21621868  0.58713018  1
  Pd  Pd166  1  0.80677655  0.59504614  0.59454939  1
  Pd  Pd167  1  0.40185912  0.40468207  0.20614066  1
  Pd  Pd168  1  0.59585840  -0.00131269  0.39132196  1
  Pd  Pd169  1  0.80987914  0.59748968  0.80161101  1
  Pd  Pd170  1  0.79450363  0.40184332  0.59377962  1
  Pd  Pd171  1  0.20205050  0.39169397  0.40672986  1
  Pd  Pd172  1  -0.00924667  0.60267948  0.79136650  1
  Pd  Pd173  1  0.39535693  0.20832215  -0.00123373  1
  Pd  Pd174  1  0.80840034  0.00205738  0.40420841  1
  Pd  Pd175  1  0.20106228  0.00193494  0.39677173  1
  Pd  Pd176  1  -0.00571449  0.39681601  0.79191700  1
  Pd  Pd177  1  0.39868214  0.79394040  0.59370540  1
  Pd  Pd178  1  -0.00610735  0.19796836  0.59700208  1
  Pd  Pd179  1  0.60257101  0.20244692  -0.00492362  1
  Pd  Pd180  1  0.59606792  0.59266015  0.59477994  1
  Pd  Pd181  1  0.39641067  -0.00801197  0.59799492  1
  Pd  Pd182  1  -0.00095440  0.20992629  0.00097468  1
  Pd  Pd183  1  0.20224686  0.40641697  0.80096599  1
  Pd  Pd184  1  0.00394336  -0.00025305  0.20482059  1
  Pd  Pd185  1  0.39835660  0.80008833  0.41093925  1
  Pd  Pd186  1  0.60629598  0.60757304  0.18984220  1
  Pd  Pd187  1  0.19961545  0.79364332  0.20138111  1
  Pd  Pd188  1  0.19421511  0.79558381  0.59628109  1
  Pd  Pd189  1  0.41140763  -0.00414708  0.00900626  1
  Pd  Pd190  1  -0.01328039  0.20282274  0.79654246  1
  Pd  Pd191  1  0.40263442  0.21022563  0.60433654  1
  Pd  Pd192  1  -0.01629839  0.60260706  0.40544180  1
  Pd  Pd193  1  0.20725547  0.59298826  0.80015604  1
  Pd  Pd194  1  0.81238547  0.19921979  0.79967261  1
  Pd  Pd195  1  0.19397102  -0.00145378  0.00452578  1
  Pd  Pd196  1  -0.00521021  0.20454583  0.19488594  1
  Pd  Pd197  1  0.00560854  0.00385806  0.79400767  1
  Pd  Pd198  1  0.20902225  0.19905364  0.80282381  1
  Pd  Pd199  1  0.61068554  -0.00129452  0.60465479  1
  Rh  Rh200  1  0.60598288  0.78949575  0.40752429  1
  Rh  Rh201  1  0.60215751  0.20611015  0.59679538  1
  Rh  Rh202  1  0.39527373  0.79548576  -0.00236095  1
  Rh  Rh203  1  0.79762688  0.79748449  0.19468816  1
  Rh  Rh204  1  0.79359731  0.40673468  -0.00615364  1
  Rh  Rh205  1  0.80143534  0.19927681  0.60162577  1
  Rh  Rh206  1  0.19452065  0.40979708  0.19309644  1
  Rh  Rh207  1  0.80595561  0.20655061  0.20373520  1
  Rh  Rh208  1  0.60161811  0.79334852  0.19613301  1
  Rh  Rh209  1  0.60711524  0.80185652  0.78775543  1
  Rh  Rh210  1  0.41088242  0.60381407  0.60209395  1
  Rh  Rh211  1  0.80750241  0.40718388  0.79766019  1
  Rh  Rh212  1  -0.01272770  -0.00759013  0.00576008  1
  Rh  Rh213  1  0.39987433  0.19894682  0.20069880  1
  Rh  Rh214  1  -0.01172031  0.40497169  0.38826874  1
  Rh  Rh215  1  0.39245236  0.59928676  0.21417822  1
  Rh  Rh216  1  0.20661566  0.60195311  0.38940500  1
  Rh  Rh217  1  0.00018822  0.18875205  0.40464765  1
  Rh  Rh218  1  0.60527213  0.40637494  0.80027554  1
  Rh  Rh219  1  -0.00105735  0.79385579  0.20906336  1
  Rh  Rh220  1  -0.00543130  0.80331959  0.79772148  1
  Rh  Rh221  1  0.39935732  0.19880481  0.40103436  1
  Rh  Rh222  1  0.59708198  0.19577396  0.80871743  1
  Rh  Rh223  1  0.18727851  0.60094751  0.60591228  1
  Rh  Rh224  1  0.00405331  0.00801985  0.59743752  1
  Rh  Rh225  1  0.79484014  -0.00514601  0.19458301  1
  Rh  Rh226  1  0.78985119  0.60732661  0.20735973  1
  Rh  Rh227  1  0.00655385  0.59651551  0.20490822  1
  Rh  Rh228  1  0.00393151  0.60855754  -0.00561367  1
  Rh  Rh229  1  0.81119107  0.39095915  0.21112957  1
  Rh  Rh230  1  0.80559216  0.19676011  -0.00639352  1
  Rh  Rh231  1  0.79531046  0.59567489  -0.00665101  1
  Rh  Rh232  1  0.40213121  0.39290588  0.00768583  1
  Rh  Rh233  1  0.79850221  0.79386319  0.40865166  1
  Rh  Rh234  1  0.60282818  0.39434352  0.40505194  1
  Rh  Rh235  1  0.60466284  0.60632149  0.40697304  1
  Rh  Rh236  1  0.19220495  0.78953837  0.40702029  1
  Rh  Rh237  1  0.18786144  0.81748754  0.81323823  1
  Rh  Rh238  1  0.40534569  0.40407289  0.39394611  1
  Rh  Rh239  1  0.40586671  0.79729296  0.79331065  1
  Rh  Rh240  1  0.79889520  0.20476151  0.39678621  1
  Rh  Rh241  1  0.41613039  0.39802641  0.59979564  1
  Rh  Rh242  1  0.00100161  0.79777785  0.00127268  1
  Rh  Rh243  1  0.40188803  0.79459854  0.20600189  1
  Rh  Rh244  1  0.60379889  0.20129683  0.40091435  1
  Rh  Rh245  1  0.59330128  0.40180457  0.19317453  1
  Rh  Rh246  1  0.39754622  0.59641072  0.39782130  1
  Rh  Rh247  1  0.59994582  0.79114744  0.00846692  1
  Rh  Rh248  1  0.40272868  0.61361754  -0.01533013  1
  Rh  Rh249  1  0.00489933  0.40312965  0.60512820  1
