# generated using pymatgen
data_ZrScNbPdRh
_symmetry_space_group_name_H-M   'P 1'
_cell_length_a   16.55497203
_cell_length_b   16.55408268
_cell_length_c   16.55543583
_cell_angle_alpha   90.00804734
_cell_angle_beta   90.03485319
_cell_angle_gamma   89.99695511
_symmetry_Int_Tables_number   1
_chemical_formula_structural   ZrScNbPdRh
_chemical_formula_sum   'Zr50 Sc50 Nb50 Pd50 Rh50'
_cell_volume   4537.05563009
_cell_formula_units_Z   50
loop_
 _symmetry_equiv_pos_site_id
 _symmetry_equiv_pos_as_xyz
  1  'x, y, z'
loop_
 _atom_site_type_symbol
 _atom_site_label
 _atom_site_symmetry_multiplicity
 _atom_site_fract_x
 _atom_site_fract_y
 _atom_site_fract_z
 _atom_site_occupancy
  Zr  Zr0  1  0.09981261  0.29697180  0.49710802  1
  Zr  Zr1  1  0.30209531  0.90173547  0.49763572  1
  Zr  Zr2  1  0.31136600  0.30304171  0.29971880  1
  Zr  Zr3  1  0.70416153  0.30989945  0.50258999  1
  Zr  Zr4  1  0.69387609  0.10409074  0.89862233  1
  Zr  Zr5  1  0.89144299  0.30579060  0.49264705  1
  Zr  Zr6  1  0.50855511  0.69695432  0.70289200  1
  Zr  Zr7  1  0.90114298  0.89669865  0.10200942  1
  Zr  Zr8  1  0.50358609  0.10412215  0.70908315  1
  Zr  Zr9  1  0.10365870  0.30768589  0.69924537  1
  Zr  Zr10  1  0.70296087  0.10223058  0.29494550  1
  Zr  Zr11  1  0.09720020  0.50138059  0.89515663  1
  Zr  Zr12  1  0.89728457  0.69652890  0.30261844  1
  Zr  Zr13  1  0.09823473  0.89883920  0.70415484  1
  Zr  Zr14  1  0.89763065  0.30338757  0.70138350  1
  Zr  Zr15  1  0.09794148  0.50304533  0.70087343  1
  Zr  Zr16  1  0.50379989  0.69770634  0.09815027  1
  Zr  Zr17  1  0.90373734  0.10148300  0.49622350  1
  Zr  Zr18  1  0.30583766  0.70120972  0.49772644  1
  Zr  Zr19  1  0.69814905  0.69510609  0.50113176  1
  Zr  Zr20  1  0.31265429  0.09691991  0.69329090  1
  Zr  Zr21  1  0.29573999  0.49770296  0.69798845  1
  Zr  Zr22  1  0.10544970  0.89395875  0.50385811  1
  Zr  Zr23  1  0.89937723  0.10356566  0.29575384  1
  Zr  Zr24  1  0.30609239  0.30407394  0.50575352  1
  Zr  Zr25  1  0.89865295  0.10656044  0.90247195  1
  Zr  Zr26  1  0.69699385  0.89582261  0.09823583  1
  Zr  Zr27  1  0.49577446  0.30309094  0.90036395  1
  Zr  Zr28  1  0.70551774  0.09582862  0.70490626  1
  Zr  Zr29  1  0.30143088  0.70042686  0.29661609  1
  Zr  Zr30  1  0.69719796  0.89877690  0.30543657  1
  Zr  Zr31  1  0.49102079  0.09870063  0.09948291  1
  Zr  Zr32  1  0.29166725  0.68285658  0.10418700  1
  Zr  Zr33  1  0.69560066  0.10664216  0.09964135  1
  Zr  Zr34  1  0.89387326  0.90277731  0.70250752  1
  Zr  Zr35  1  0.10462664  0.50923887  0.09915752  1
  Zr  Zr36  1  0.70453818  0.69155613  0.10233914  1
  Zr  Zr37  1  0.89224737  0.50567926  0.11198660  1
  Zr  Zr38  1  0.89520026  0.50843343  0.89586948  1
  Zr  Zr39  1  0.09640146  0.09887963  0.69959419  1
  Zr  Zr40  1  0.49766406  0.90384901  0.09938163  1
  Zr  Zr41  1  0.08376408  0.70033407  0.50248541  1
  Zr  Zr42  1  0.09700570  0.69408388  0.90424798  1
  Zr  Zr43  1  0.89618269  0.30658012  0.29492694  1
  Zr  Zr44  1  0.69451906  0.70553512  0.89435204  1
  Zr  Zr45  1  0.30721692  0.50643460  0.29326819  1
  Zr  Zr46  1  0.49436367  0.90102046  0.70022971  1
  Zr  Zr47  1  0.09820098  0.10076144  0.30164936  1
  Zr  Zr48  1  0.29843191  0.09860964  0.49744334  1
  Zr  Zr49  1  0.89824140  0.10944636  0.09939147  1
  Sc  Sc50  1  0.29988645  0.10108113  0.91073247  1
  Sc  Sc51  1  0.10355410  0.89892363  0.29213546  1
  Sc  Sc52  1  0.08688144  0.50101191  0.29833883  1
  Sc  Sc53  1  0.30888541  0.69752564  0.70740312  1
  Sc  Sc54  1  0.09883755  0.89819145  0.10112800  1
  Sc  Sc55  1  0.30975196  0.49923678  0.50750037  1
  Sc  Sc56  1  0.09828365  0.50567426  0.50645217  1
  Sc  Sc57  1  0.70015719  0.50222247  0.69946742  1
  Sc  Sc58  1  0.50507118  0.49574814  0.10414012  1
  Sc  Sc59  1  0.89184179  0.50320258  0.70349724  1
  Sc  Sc60  1  0.50287660  0.49877809  0.30054259  1
  Sc  Sc61  1  0.68782343  0.30123701  0.90596197  1
  Sc  Sc62  1  0.49757426  0.29841780  0.10035685  1
  Sc  Sc63  1  0.70071597  0.50011068  0.89251921  1
  Sc  Sc64  1  0.90498272  0.88610119  0.49963730  1
  Sc  Sc65  1  0.89962226  0.89694083  0.29263742  1
  Sc  Sc66  1  0.90233851  0.09462088  0.69930392  1
  Sc  Sc67  1  0.50195614  0.09478028  0.29228878  1
  Sc  Sc68  1  0.70899937  0.10264954  0.49894904  1
  Sc  Sc69  1  0.50270632  0.49642819  0.89712206  1
  Sc  Sc70  1  0.50880383  0.50192746  0.50258689  1
  Sc  Sc71  1  0.30797649  0.30940980  0.70222993  1
  Sc  Sc72  1  0.50838575  0.89606614  0.48841533  1
  Sc  Sc73  1  0.69952968  0.69454862  0.30740289  1
  Sc  Sc74  1  0.29756189  0.90022742  0.69801339  1
  Sc  Sc75  1  0.50214778  0.68738611  0.30814981  1
  Sc  Sc76  1  0.09034740  0.29651529  0.30184340  1
  Sc  Sc77  1  0.30256956  0.50554798  0.90171428  1
  Sc  Sc78  1  0.68875144  0.30064068  0.10342510  1
  Sc  Sc79  1  0.10294877  0.09631629  0.09442603  1
  Sc  Sc80  1  0.50013130  0.50395174  0.70277343  1
  Sc  Sc81  1  0.30046887  0.89725192  0.88568546  1
  Sc  Sc82  1  0.09751764  0.09338375  0.90169643  1
  Sc  Sc83  1  0.09280317  0.70405255  0.10232303  1
  Sc  Sc84  1  0.29678229  0.90078935  0.30297224  1
  Sc  Sc85  1  0.09220219  0.28999880  0.09852240  1
  Sc  Sc86  1  0.09407655  0.29449161  0.89886385  1
  Sc  Sc87  1  0.69892014  0.88616842  0.49899788  1
  Sc  Sc88  1  0.69666817  0.49995826  0.29221405  1
  Sc  Sc89  1  0.10109748  0.70597546  0.29354879  1
  Sc  Sc90  1  0.49606026  0.30091081  0.70609479  1
  Sc  Sc91  1  0.50540674  0.30856335  0.29225888  1
  Sc  Sc92  1  0.89723481  0.69822778  0.69156465  1
  Sc  Sc93  1  0.50622935  0.90117422  0.90336413  1
  Sc  Sc94  1  0.09762717  0.69494690  0.69516801  1
  Sc  Sc95  1  0.49300776  0.09528681  0.51159317  1
  Sc  Sc96  1  0.30050621  0.09137427  0.30066371  1
  Sc  Sc97  1  0.09774841  0.09727001  0.49176941  1
  Sc  Sc98  1  0.29505902  0.91276382  0.10752673  1
  Sc  Sc99  1  0.90480420  0.90509832  0.89723782  1
  Nb  Nb100  1  0.69812393  0.29673949  0.30584348  1
  Nb  Nb101  1  0.89609268  0.70220543  0.09481048  1
  Nb  Nb102  1  0.50180808  0.89637293  0.29552745  1
  Nb  Nb103  1  0.89568113  0.50777341  0.49581759  1
  Nb  Nb104  1  0.89624394  0.68667421  0.49419949  1
  Nb  Nb105  1  0.69933834  0.50389872  0.09522905  1
  Nb  Nb106  1  0.89409227  0.30243214  0.90560634  1
  Nb  Nb107  1  0.10012850  0.89312364  0.89988276  1
  Nb  Nb108  1  0.29679891  0.29977833  0.90876029  1
  Nb  Nb109  1  0.30668591  0.70170753  0.90451086  1
  Nb  Nb110  1  0.70387725  0.89512217  0.70518823  1
  Nb  Nb111  1  0.89615266  0.49942016  0.30731409  1
  Nb  Nb112  1  0.50815885  0.10711565  0.89719551  1
  Nb  Nb113  1  0.50843131  0.69790391  0.50723160  1
  Nb  Nb114  1  0.50298023  0.30050560  0.49863424  1
  Nb  Nb115  1  0.70628932  0.30252427  0.69928733  1
  Nb  Nb116  1  0.70976102  0.50105711  0.50178911  1
  Nb  Nb117  1  0.69360324  0.70909981  0.69377452  1
  Nb  Nb118  1  0.29433453  0.49832158  0.10221417  1
  Nb  Nb119  1  0.30008283  0.29377626  0.09660632  1
  Nb  Nb120  1  0.49551774  0.70109843  0.90032329  1
  Nb  Nb121  1  0.90196578  0.69953609  0.90679321  1
  Nb  Nb122  1  0.29984932  0.10607684  0.10407257  1
  Nb  Nb123  1  0.70727601  0.90109293  0.89907601  1
  Nb  Nb124  1  0.89893571  0.29898431  0.09205620  1
  Nb  Nb125  1  0.19969274  0.39733599  0.00542694  1
  Nb  Nb126  1  0.20483001  0.20039233  0.79643622  1
  Nb  Nb127  1  0.20291846  0.20012631  0.60524801  1
  Nb  Nb128  1  0.40860149  0.20388277  0.40237664  1
  Nb  Nb129  1  0.60304376  0.20276670  0.60054604  1
  Nb  Nb130  1  0.40767118  0.79517039  0.59561348  1
  Nb  Nb131  1  0.20727725  0.20301157  0.19719449  1
  Nb  Nb132  1  0.59556572  0.79995484  0.20299125  1
  Nb  Nb133  1  0.80248329  0.79893540  -0.00352191  1
  Nb  Nb134  1  0.20241685  0.39593041  0.19705216  1
  Nb  Nb135  1  0.40353619  0.79836293  0.19780031  1
  Nb  Nb136  1  -0.00053951  0.79674034  0.80534743  1
  Nb  Nb137  1  0.80204216  0.40070339  0.00392647  1
  Nb  Nb138  1  0.60706959  -0.00180316  0.60700200  1
  Nb  Nb139  1  0.59805453  0.20449757  0.40475602  1
  Nb  Nb140  1  0.20101314  0.59950075  0.40028942  1
  Nb  Nb141  1  0.39449825  0.79583448  0.00235654  1
  Nb  Nb142  1  0.60214542  0.60237531  -0.00433080  1
  Nb  Nb143  1  0.80191036  -0.00221104  0.39609148  1
  Nb  Nb144  1  -0.00718928  0.40236482  0.59695396  1
  Nb  Nb145  1  0.20403680  0.40615505  0.39538285  1
  Nb  Nb146  1  0.20535520  0.79626050  -0.00418541  1
  Nb  Nb147  1  0.79619735  -0.00280442  0.00015895  1
  Nb  Nb148  1  0.79807964  0.20644998  0.80222708  1
  Nb  Nb149  1  -0.00640768  0.40171364  0.00191600  1
  Pd  Pd150  1  0.40290162  0.59366218  0.40775991  1
  Pd  Pd151  1  0.40514957  0.19786096  -0.00403641  1
  Pd  Pd152  1  0.39596739  0.40556364  0.00283300  1
  Pd  Pd153  1  0.39313359  -0.00683851  -0.00715308  1
  Pd  Pd154  1  -0.00530530  0.59393294  0.00588681  1
  Pd  Pd155  1  0.60241163  0.00372282  -0.00192170  1
  Pd  Pd156  1  0.60509519  0.01096005  0.40978850  1
  Pd  Pd157  1  0.60217150  -0.00217388  0.19793806  1
  Pd  Pd158  1  0.00011677  0.80190090  0.39227861  1
  Pd  Pd159  1  0.40822056  0.59476853  0.00320583  1
  Pd  Pd160  1  -0.00378852  -0.01209068  0.39820629  1
  Pd  Pd161  1  0.79434550  0.79536621  0.20037639  1
  Pd  Pd162  1  -0.00418177  -0.00210842  0.00143751  1
  Pd  Pd163  1  0.40126615  0.59454553  0.80044455  1
  Pd  Pd164  1  0.20894314  0.79079129  0.60629099  1
  Pd  Pd165  1  0.41340884  0.40521413  0.60279049  1
  Pd  Pd166  1  0.20367878  0.60602701  0.59427160  1
  Pd  Pd167  1  0.20454275  0.60581717  0.80184394  1
  Pd  Pd168  1  0.00353998  0.00259592  0.19486984  1
  Pd  Pd169  1  0.40772799  0.00471362  0.39701040  1
  Pd  Pd170  1  0.79639933  -0.00874292  0.58748348  1
  Pd  Pd171  1  0.00509096  0.39736074  0.19195087  1
  Pd  Pd172  1  0.59796047  0.39843019  0.60821564  1
  Pd  Pd173  1  0.00487682  0.40682624  0.40759053  1
  Pd  Pd174  1  0.20559087  0.39593279  0.81178563  1
  Pd  Pd175  1  -0.00313073  0.60601200  0.20296121  1
  Pd  Pd176  1  0.00219451  0.20481460  0.59764939  1
  Pd  Pd177  1  0.40103793  0.00452381  0.81062222  1
  Pd  Pd178  1  -0.00619132  0.40170264  0.80085284  1
  Pd  Pd179  1  0.20392470  -0.00909405  -0.00449567  1
  Pd  Pd180  1  0.19704247  0.00600263  0.59898721  1
  Pd  Pd181  1  0.39135675  0.20046788  0.80886844  1
  Pd  Pd182  1  0.60204746  0.39842496  0.79473877  1
  Pd  Pd183  1  0.79894307  0.19775969  0.60512069  1
  Pd  Pd184  1  0.80933425  0.79346995  0.80467471  1
  Pd  Pd185  1  0.21028006  0.20722531  0.39660068  1
  Pd  Pd186  1  0.79031557  0.39566172  0.19617538  1
  Pd  Pd187  1  0.20199391  0.00835391  0.80341450  1
  Pd  Pd188  1  0.79690841  0.21146158  0.19564410  1
  Pd  Pd189  1  0.19493116  0.79489657  0.39893330  1
  Pd  Pd190  1  -0.00113187  0.20049216  0.80148384  1
  Pd  Pd191  1  0.40985315  0.79767242  0.39729299  1
  Pd  Pd192  1  0.59528095  0.80734776  0.80145604  1
  Pd  Pd193  1  -0.00015050  -0.00648734  0.59500237  1
  Pd  Pd194  1  0.60389120  0.40299277  0.39715510  1
  Pd  Pd195  1  0.60072270  -0.00977330  0.79908879  1
  Pd  Pd196  1  0.79381906  0.61249275  0.79276479  1
  Pd  Pd197  1  0.80343290  0.79508664  0.59476901  1
  Pd  Pd198  1  0.19461868  0.79012076  0.80083179  1
  Pd  Pd199  1  0.40088049  0.40257974  0.19124290  1
  Rh  Rh200  1  0.58928120  0.20014728  0.00476123  1
  Rh  Rh201  1  -0.01006093  0.59115581  0.60204682  1
  Rh  Rh202  1  0.60553841  0.40945207  0.00073914  1
  Rh  Rh203  1  0.39529626  -0.00402784  0.20534967  1
  Rh  Rh204  1  0.19959755  0.59919632  -0.00689263  1
  Rh  Rh205  1  0.79326077  0.40888135  0.39272411  1
  Rh  Rh206  1  0.40236407  0.20474636  0.59662724  1
  Rh  Rh207  1  0.59690832  0.78937460  0.39253189  1
  Rh  Rh208  1  -0.00356003  0.79625929  0.19991479  1
  Rh  Rh209  1  0.39804333  0.19527770  0.20672941  1
  Rh  Rh210  1  0.39452388  0.40449576  0.80490867  1
  Rh  Rh211  1  0.59539255  0.80845369  0.60333942  1
  Rh  Rh212  1  0.79442460  0.60178533  0.60195264  1
  Rh  Rh213  1  0.79376677  0.59312182  0.39471699  1
  Rh  Rh214  1  0.19237011  -0.00792953  0.39898647  1
  Rh  Rh215  1  0.80379246  0.80034310  0.40219752  1
  Rh  Rh216  1  0.80119420  0.60061268  0.20873126  1
  Rh  Rh217  1  0.80647535  0.41104960  0.60013661  1
  Rh  Rh218  1  0.79102355  0.20339948  -0.00382105  1
  Rh  Rh219  1  0.40858167  0.59986893  0.19593242  1
  Rh  Rh220  1  0.79856564  0.19649812  0.39600890  1
  Rh  Rh221  1  0.00066976  0.80201851  -0.00390357  1
  Rh  Rh222  1  0.59907251  0.60117432  0.19609688  1
  Rh  Rh223  1  0.60240480  0.60185922  0.80309562  1
  Rh  Rh224  1  0.00501817  0.19773093  0.19866505  1
  Rh  Rh225  1  0.60183499  0.79374875  0.00100475  1
  Rh  Rh226  1  0.00414348  0.20181153  -0.00224428  1
  Rh  Rh227  1  0.40546937  0.60515793  0.60160712  1
  Rh  Rh228  1  0.20868902  0.80148699  0.18899478  1
  Rh  Rh229  1  0.60541680  0.59236670  0.40708615  1
  Rh  Rh230  1  0.80264516  0.00810732  0.80986494  1
  Rh  Rh231  1  0.19691494  0.00985802  0.20237278  1
  Rh  Rh232  1  0.19599282  0.20267225  -0.00074971  1
  Rh  Rh233  1  0.00415409  0.60076833  0.39591099  1
  Rh  Rh234  1  0.60405560  0.40023228  0.19893758  1
  Rh  Rh235  1  0.00151229  -0.00585220  0.80122792  1
  Rh  Rh236  1  0.19160473  0.39699888  0.58842038  1
  Rh  Rh237  1  0.79386883  0.39291926  0.80832019  1
  Rh  Rh238  1  0.60777921  0.59562978  0.60212511  1
  Rh  Rh239  1  -0.00421041  0.80172210  0.61021694  1
  Rh  Rh240  1  0.40577477  0.79947856  0.80008663  1
  Rh  Rh241  1  0.79945659  0.00139297  0.19857143  1
  Rh  Rh242  1  -0.01038135  0.20396659  0.39652432  1
  Rh  Rh243  1  0.59402937  0.20164161  0.20610379  1
  Rh  Rh244  1  0.40135223  0.39990261  0.40428500  1
  Rh  Rh245  1  0.19100178  0.59336493  0.21256257  1
  Rh  Rh246  1  0.79376069  0.60030666  -0.00473610  1
  Rh  Rh247  1  0.40783269  -0.01527544  0.59162040  1
  Rh  Rh248  1  -0.00532092  0.60957570  0.79364492  1
  Rh  Rh249  1  0.60645481  0.21167837  0.79298935  1
