# generated using pymatgen
data_ZrScNbPdRh
_symmetry_space_group_name_H-M   'P 1'
_cell_length_a   16.55821665
_cell_length_b   16.55877636
_cell_length_c   16.55999673
_cell_angle_alpha   89.98927751
_cell_angle_beta   89.95479315
_cell_angle_gamma   89.96696935
_symmetry_Int_Tables_number   1
_chemical_formula_structural   ZrScNbPdRh
_chemical_formula_sum   'Zr50 Sc50 Nb50 Pd50 Rh50'
_cell_volume   4540.48069201
_cell_formula_units_Z   50
loop_
 _symmetry_equiv_pos_site_id
 _symmetry_equiv_pos_as_xyz
  1  'x, y, z'
loop_
 _atom_site_type_symbol
 _atom_site_label
 _atom_site_symmetry_multiplicity
 _atom_site_fract_x
 _atom_site_fract_y
 _atom_site_fract_z
 _atom_site_occupancy
  Zr  Zr0  1  0.69744289  0.29991122  0.30215881  1
  Zr  Zr1  1  0.90794776  0.50240240  0.90398507  1
  Zr  Zr2  1  0.10288362  0.50287911  0.89960407  1
  Zr  Zr3  1  0.69628382  0.90454193  0.49980888  1
  Zr  Zr4  1  0.50376584  0.49700302  0.30304573  1
  Zr  Zr5  1  0.70566982  0.69716254  0.29250866  1
  Zr  Zr6  1  0.09717642  0.09551697  0.09185835  1
  Zr  Zr7  1  0.10233268  0.09396466  0.30059579  1
  Zr  Zr8  1  0.49681728  0.50300165  0.89914809  1
  Zr  Zr9  1  0.70046085  0.50389262  0.10505751  1
  Zr  Zr10  1  0.50321136  0.90138654  0.49849874  1
  Zr  Zr11  1  0.30607216  0.29580479  0.08644175  1
  Zr  Zr12  1  0.90266516  0.09816623  0.29852294  1
  Zr  Zr13  1  0.29357868  0.71098214  0.50297191  1
  Zr  Zr14  1  0.69757834  0.70046895  0.89103867  1
  Zr  Zr15  1  0.29801949  0.09895090  0.30605686  1
  Zr  Zr16  1  0.70620991  0.29812465  0.89464029  1
  Zr  Zr17  1  0.90034278  0.89954599  0.70040632  1
  Zr  Zr18  1  0.89711128  0.90332464  0.50182464  1
  Zr  Zr19  1  0.69995477  0.70184190  0.70436125  1
  Zr  Zr20  1  0.48953221  0.90730839  0.89579212  1
  Zr  Zr21  1  0.09956215  0.89862466  0.09064869  1
  Zr  Zr22  1  0.70162536  0.70071551  0.10550331  1
  Zr  Zr23  1  0.89741093  0.69368816  0.09810197  1
  Zr  Zr24  1  0.90339774  0.90447450  0.09520975  1
  Zr  Zr25  1  0.69376509  0.10056865  0.70143922  1
  Zr  Zr26  1  0.69994481  0.90235782  0.88871041  1
  Zr  Zr27  1  0.49588665  0.70082799  0.89584811  1
  Zr  Zr28  1  0.08956485  0.50049348  0.49903037  1
  Zr  Zr29  1  0.69582131  0.29880985  0.10819218  1
  Zr  Zr30  1  0.11212293  0.29637978  0.91329027  1
  Zr  Zr31  1  0.69329613  0.89763232  0.29630591  1
  Zr  Zr32  1  0.50087952  0.30382630  0.90060458  1
  Zr  Zr33  1  0.90324399  0.49667646  0.50593354  1
  Zr  Zr34  1  0.09995133  0.49235973  0.09298305  1
  Zr  Zr35  1  0.50108092  0.28929791  0.50121275  1
  Zr  Zr36  1  0.29259867  0.70641922  0.09871018  1
  Zr  Zr37  1  0.30125582  0.10442276  0.70364479  1
  Zr  Zr38  1  0.50086317  0.50163581  0.49945691  1
  Zr  Zr39  1  0.30170780  0.29270532  0.50661694  1
  Zr  Zr40  1  0.49522299  0.90486828  0.10164062  1
  Zr  Zr41  1  0.90011409  0.70005937  0.70379009  1
  Zr  Zr42  1  0.49516130  0.70365861  0.29885214  1
  Zr  Zr43  1  0.49439925  0.90211593  0.30404286  1
  Zr  Zr44  1  0.48129921  0.70418257  0.09725339  1
  Zr  Zr45  1  0.30303108  0.50383449  0.09401982  1
  Zr  Zr46  1  0.69901943  0.49536676  0.49710015  1
  Zr  Zr47  1  0.09874772  0.90541523  0.29676009  1
  Zr  Zr48  1  0.10914362  0.50217447  0.69778841  1
  Zr  Zr49  1  0.89485931  0.09757881  0.09315786  1
  Sc  Sc50  1  0.09828959  0.69907880  0.70132091  1
  Sc  Sc51  1  0.29699428  0.90355325  0.89447834  1
  Sc  Sc52  1  0.90643499  0.50030148  0.69748300  1
  Sc  Sc53  1  0.90401320  0.69774690  0.89928627  1
  Sc  Sc54  1  0.91077128  0.90025482  0.90042077  1
  Sc  Sc55  1  0.29996262  0.71324323  0.29543084  1
  Sc  Sc56  1  0.69188457  0.09921213  0.49663313  1
  Sc  Sc57  1  0.10405526  0.30697780  0.50277497  1
  Sc  Sc58  1  0.69558709  0.89798193  0.69046572  1
  Sc  Sc59  1  0.29544590  0.70179914  0.69794984  1
  Sc  Sc60  1  0.69639268  0.10433946  0.29679282  1
  Sc  Sc61  1  0.69193893  0.49943028  0.29485069  1
  Sc  Sc62  1  0.10190164  0.09810977  0.50210512  1
  Sc  Sc63  1  0.91516511  0.69935854  0.50393954  1
  Sc  Sc64  1  0.69912924  0.70961513  0.50075628  1
  Sc  Sc65  1  0.90065302  0.50339484  0.09899417  1
  Sc  Sc66  1  0.89727180  0.29611856  0.29595880  1
  Sc  Sc67  1  0.30090601  0.10353244  0.49380418  1
  Sc  Sc68  1  0.69717051  0.28864294  0.49543291  1
  Sc  Sc69  1  0.10196849  0.71033462  0.31005303  1
  Sc  Sc70  1  0.30617618  0.10164655  0.90032456  1
  Sc  Sc71  1  0.29011382  0.50104168  0.90198322  1
  Sc  Sc72  1  0.29263521  0.90162743  0.31057263  1
  Sc  Sc73  1  0.29723957  0.29745606  0.30463569  1
  Sc  Sc74  1  0.10003777  0.90186229  0.71983104  1
  Sc  Sc75  1  0.89949175  0.30535185  0.70028295  1
  Sc  Sc76  1  0.10017278  0.70185876  0.90501191  1
  Sc  Sc77  1  0.70261694  0.30120473  0.70489923  1
  Sc  Sc78  1  0.29181225  0.49812035  0.51736476  1
  Sc  Sc79  1  0.69545307  0.49640712  0.89108054  1
  Sc  Sc80  1  0.90007914  0.09575556  0.49595133  1
  Sc  Sc81  1  0.91457295  0.49484778  0.30614860  1
  Sc  Sc82  1  0.90470981  0.30445559  0.50443143  1
  Sc  Sc83  1  0.71587101  0.49409971  0.69915810  1
  Sc  Sc84  1  0.29686885  0.89882514  0.09200922  1
  Sc  Sc85  1  0.91819727  0.10060899  0.69887784  1
  Sc  Sc86  1  0.49692317  0.10896925  0.10699698  1
  Sc  Sc87  1  0.29905012  0.29225419  0.69411295  1
  Sc  Sc88  1  0.89678035  0.29051093  0.89649151  1
  Sc  Sc89  1  0.49821683  0.70242918  0.70510936  1
  Sc  Sc90  1  0.49748289  0.70715971  0.50287571  1
  Sc  Sc91  1  0.10400799  0.28776229  0.69582117  1
  Sc  Sc92  1  0.49135391  0.50818048  0.70287351  1
  Sc  Sc93  1  0.50085723  0.10440292  0.70159411  1
  Sc  Sc94  1  0.50616998  0.29354167  0.29391068  1
  Sc  Sc95  1  0.49418831  0.49276794  0.10148913  1
  Sc  Sc96  1  0.90494515  0.29173172  0.10060818  1
  Sc  Sc97  1  0.09931658  0.89199875  0.49238960  1
  Sc  Sc98  1  0.29955256  0.48914577  0.29416163  1
  Sc  Sc99  1  0.89822527  0.90346050  0.30611972  1
  Nb  Nb100  1  0.30521938  0.29900852  0.89878379  1
  Nb  Nb101  1  0.30394660  0.70079878  0.91476845  1
  Nb  Nb102  1  0.10363863  0.69317042  0.50082747  1
  Nb  Nb103  1  0.10460978  0.29428349  0.10157398  1
  Nb  Nb104  1  0.89978610  0.69501207  0.29631991  1
  Nb  Nb105  1  0.49589094  0.29725123  0.69631388  1
  Nb  Nb106  1  0.50269525  0.29945308  0.09543637  1
  Nb  Nb107  1  0.70092731  0.09563435  0.09327390  1
  Nb  Nb108  1  0.49384015  0.09764464  0.31023053  1
  Nb  Nb109  1  0.49905641  0.09751279  0.49519766  1
  Nb  Nb110  1  0.30207782  0.89942753  0.50606783  1
  Nb  Nb111  1  0.10157463  0.70452367  0.10271464  1
  Nb  Nb112  1  0.29586953  0.49779297  0.70282107  1
  Nb  Nb113  1  0.09902308  0.30859002  0.29495956  1
  Nb  Nb114  1  0.49749052  0.90847705  0.70009866  1
  Nb  Nb115  1  0.30147125  0.10222903  0.10170795  1
  Nb  Nb116  1  0.50681976  0.09503461  0.89615291  1
  Nb  Nb117  1  0.69734095  0.90380477  0.09852146  1
  Nb  Nb118  1  0.70578735  0.10578496  0.89914170  1
  Nb  Nb119  1  0.09629884  0.09218140  0.88894426  1
  Nb  Nb120  1  0.10265199  0.49347563  0.30232354  1
  Nb  Nb121  1  0.10637512  0.09462147  0.70306682  1
  Nb  Nb122  1  0.89107853  0.10415400  0.89808292  1
  Nb  Nb123  1  0.09955277  0.90607237  0.90644267  1
  Nb  Nb124  1  0.30193526  0.90472520  0.69986635  1
  Nb  Nb125  1  0.40310663  0.40081166  0.40703199  1
  Nb  Nb126  1  0.39846137  -0.00282761  0.59828525  1
  Nb  Nb127  1  0.80030494  0.19575641  0.60110532  1
  Nb  Nb128  1  0.79950100  0.40269818  0.40089289  1
  Nb  Nb129  1  0.60310265  0.19544764  -0.00158982  1
  Nb  Nb130  1  0.60352670  0.59653155  0.60164049  1
  Nb  Nb131  1  -0.00144224  0.79560572  0.19803396  1
  Nb  Nb132  1  0.20514669  -0.00492502  0.60610569  1
  Nb  Nb133  1  0.59498621  0.39924651  0.60108366  1
  Nb  Nb134  1  0.19874199  0.59721443  0.39773615  1
  Nb  Nb135  1  0.80524479  0.59839709  0.39861649  1
  Nb  Nb136  1  0.39484997  0.00653411  0.20395311  1
  Nb  Nb137  1  0.39259924  0.39650895  0.79720636  1
  Nb  Nb138  1  0.19621501  0.20101281  0.19338197  1
  Nb  Nb139  1  0.60374775  0.00415438  -0.00176369  1
  Nb  Nb140  1  0.79705204  0.39743012  0.00106945  1
  Nb  Nb141  1  0.39162200  0.59725212  0.40197572  1
  Nb  Nb142  1  0.01103024  0.39846922  0.80569099  1
  Nb  Nb143  1  0.19204290  0.59833183  0.20435333  1
  Nb  Nb144  1  0.01063711  0.60297196  0.20505284  1
  Nb  Nb145  1  0.59688732  0.60759385  -0.00006362  1
  Nb  Nb146  1  0.80267341  0.00706363  0.80017140  1
  Nb  Nb147  1  0.79248716  0.80307320  0.00073099  1
  Nb  Nb148  1  0.00634500  0.20306628  0.39366979  1
  Nb  Nb149  1  0.60129423  0.80426989  0.00070295  1
  Pd  Pd150  1  0.79669647  0.19477113  0.19688955  1
  Pd  Pd151  1  0.60021930  0.79555228  0.39818572  1
  Pd  Pd152  1  0.18716621  0.80862487  0.60776151  1
  Pd  Pd153  1  0.59208203  0.00963788  0.19964536  1
  Pd  Pd154  1  0.40009103  0.60549004  0.59759326  1
  Pd  Pd155  1  0.00906894  0.80586716  0.60403841  1
  Pd  Pd156  1  0.80334484  0.59319938  0.80224796  1
  Pd  Pd157  1  0.80269085  0.79587782  0.59603113  1
  Pd  Pd158  1  0.79123526  0.00467147  0.39546210  1
  Pd  Pd159  1  0.59345463  0.79823975  0.19583441  1
  Pd  Pd160  1  0.20233362  0.38789684  0.79471501  1
  Pd  Pd161  1  -0.00126118  0.19955135  0.59123845  1
  Pd  Pd162  1  0.80676025  0.79236835  0.40269206  1
  Pd  Pd163  1  0.79974303  -0.00187010  0.20519636  1
  Pd  Pd164  1  0.01436116  -0.00887880  0.59853860  1
  Pd  Pd165  1  0.80860052  0.80972126  0.19641871  1
  Pd  Pd166  1  0.40652618  0.80311108  0.60768574  1
  Pd  Pd167  1  0.19071646  0.20592912  0.39600634  1
  Pd  Pd168  1  0.80025574  0.00968914  0.60659327  1
  Pd  Pd169  1  0.20707695  0.00029343  0.19413799  1
  Pd  Pd170  1  -0.00814659  0.38801588  -0.00281245  1
  Pd  Pd171  1  0.20590803  0.39551420  0.19094155  1
  Pd  Pd172  1  0.38946938  0.59947268  0.20976791  1
  Pd  Pd173  1  0.40199437  0.38771527  0.20520039  1
  Pd  Pd174  1  0.20269309  0.79594639  0.80714803  1
  Pd  Pd175  1  0.40232758  0.40059295  0.60410501  1
  Pd  Pd176  1  0.79854315  -0.00741794  -0.01054862  1
  Pd  Pd177  1  0.41029889  0.19181992  -0.00752203  1
  Pd  Pd178  1  0.20496548  0.61240210  0.80419783  1
  Pd  Pd179  1  0.60630073  0.40235023  0.00432390  1
  Pd  Pd180  1  0.38437003  0.59796479  0.80256041  1
  Pd  Pd181  1  0.80828499  0.40456275  0.20206241  1
  Pd  Pd182  1  0.60104926  0.61242752  0.40524318  1
  Pd  Pd183  1  -0.00003184  0.19640450  -0.00795271  1
  Pd  Pd184  1  0.39142045  0.79827400  0.79835950  1
  Pd  Pd185  1  0.78950136  0.59715519  -0.01059119  1
  Pd  Pd186  1  0.59574685  0.20303506  0.80242497  1
  Pd  Pd187  1  -0.00437247  0.40224776  0.19444191  1
  Pd  Pd188  1  -0.00549611  0.79913529  0.39646191  1
  Pd  Pd189  1  0.59170616  0.80842256  0.79711691  1
  Pd  Pd190  1  0.58586933  0.60162591  0.19010948  1
  Pd  Pd191  1  0.00741707  0.19666602  0.20373738  1
  Pd  Pd192  1  0.59067269  0.40502905  0.78614819  1
  Pd  Pd193  1  0.20804289  0.40483261  0.40789707  1
  Pd  Pd194  1  0.39442724  0.20185027  0.20579999  1
  Pd  Pd195  1  0.79722161  0.60885195  0.59250372  1
  Pd  Pd196  1  0.20109180  0.19995123  0.80620915  1
  Pd  Pd197  1  0.20669105  0.00585372  -0.00766548  1
  Pd  Pd198  1  0.00133155  0.79742483  0.80607019  1
  Pd  Pd199  1  0.00507552  0.20580517  0.80372883  1
  Rh  Rh200  1  0.80794188  0.19005622  0.78290491  1
  Rh  Rh201  1  0.59966391  0.38860825  0.40382966  1
  Rh  Rh202  1  0.39615098  0.40394303  -0.00934170  1
  Rh  Rh203  1  0.59577501  0.79568189  0.60725327  1
  Rh  Rh204  1  0.81092624  0.80985430  0.80421964  1
  Rh  Rh205  1  0.59211327  0.39955394  0.19610532  1
  Rh  Rh206  1  0.40442063  0.00765806  0.00840412  1
  Rh  Rh207  1  0.00995302  0.39742872  0.61490585  1
  Rh  Rh208  1  0.60433443  0.00230350  0.39512521  1
  Rh  Rh209  1  0.39642143  -0.00295766  0.40357181  1
  Rh  Rh210  1  0.20127747  0.18926306  0.00045258  1
  Rh  Rh211  1  0.20006670  -0.00477416  0.41553327  1
  Rh  Rh212  1  0.00326276  0.59456558  0.79760479  1
  Rh  Rh213  1  0.19791018  0.18878742  0.59743848  1
  Rh  Rh214  1  0.81434639  0.20671530  0.40829229  1
  Rh  Rh215  1  0.60521747  0.59254365  0.79170606  1
  Rh  Rh216  1  0.00407118  0.60238321  0.60721036  1
  Rh  Rh217  1  0.20236151  0.00150005  0.80168081  1
  Rh  Rh218  1  0.19580541  0.60537412  0.00589337  1
  Rh  Rh219  1  0.79377971  0.20836854  0.00832229  1
  Rh  Rh220  1  0.20015191  0.80020475  0.40245251  1
  Rh  Rh221  1  -0.00515718  0.79330996  0.00368644  1
  Rh  Rh222  1  -0.00398946  -0.00575595  0.19771267  1
  Rh  Rh223  1  0.40519096  0.20644174  0.80408392  1
  Rh  Rh224  1  0.19834031  0.80214589  -0.00922934  1
  Rh  Rh225  1  0.40295147  0.59564924  -0.00292460  1
  Rh  Rh226  1  0.00398402  0.60469032  0.39510052  1
  Rh  Rh227  1  0.19368244  0.80439597  0.20114406  1
  Rh  Rh228  1  -0.00629477  0.00256415  0.80465041  1
  Rh  Rh229  1  0.81245616  0.58491515  0.21425793  1
  Rh  Rh230  1  0.20719567  0.39830051  0.00339763  1
  Rh  Rh231  1  0.60483716  0.00068623  0.79947287  1
  Rh  Rh232  1  0.39906760  0.00560702  0.79306047  1
  Rh  Rh233  1  -0.00478574  0.38632029  0.39600909  1
  Rh  Rh234  1  -0.00330847  0.01046623  -0.01020062  1
  Rh  Rh235  1  0.40362697  0.20779333  0.39640624  1
  Rh  Rh236  1  0.59424573  0.19358715  0.39495277  1
  Rh  Rh237  1  0.39684297  0.79722696  0.40143577  1
  Rh  Rh238  1  0.40346315  0.18617384  0.59829216  1
  Rh  Rh239  1  0.39789446  0.80843074  -0.00614141  1
  Rh  Rh240  1  0.19908432  0.60259550  0.59767251  1
  Rh  Rh241  1  0.19727541  0.39589475  0.60420381  1
  Rh  Rh242  1  0.38957055  0.81718191  0.20247110  1
  Rh  Rh243  1  0.81798424  0.40435588  0.81142132  1
  Rh  Rh244  1  0.60311756  0.20315966  0.60406107  1
  Rh  Rh245  1  0.58922412  0.00293651  0.59858548  1
  Rh  Rh246  1  0.60031231  0.19408627  0.19655342  1
  Rh  Rh247  1  0.00900803  0.60549605  0.00673426  1
  Rh  Rh248  1  0.78656109  0.38320494  0.58973900  1
  Rh  Rh249  1  0.00192036  0.00518668  0.40451144  1
