# generated using pymatgen
data_ZrScNbPdRh
_symmetry_space_group_name_H-M   'P 1'
_cell_length_a   16.56260617
_cell_length_b   16.55843057
_cell_length_c   16.55965967
_cell_angle_alpha   90.02555865
_cell_angle_beta   89.97439107
_cell_angle_gamma   90.00315780
_symmetry_Int_Tables_number   1
_chemical_formula_structural   ZrScNbPdRh
_chemical_formula_sum   'Zr50 Sc50 Nb50 Pd50 Rh50'
_cell_volume   4541.49841022
_cell_formula_units_Z   50
loop_
 _symmetry_equiv_pos_site_id
 _symmetry_equiv_pos_as_xyz
  1  'x, y, z'
loop_
 _atom_site_type_symbol
 _atom_site_label
 _atom_site_symmetry_multiplicity
 _atom_site_fract_x
 _atom_site_fract_y
 _atom_site_fract_z
 _atom_site_occupancy
  Zr  Zr0  1  0.90348991  0.10734039  0.69827864  1
  Zr  Zr1  1  0.10683523  0.69783804  0.09860849  1
  Zr  Zr2  1  0.30920164  0.69862936  0.70397289  1
  Zr  Zr3  1  0.69644141  0.70710574  0.30540787  1
  Zr  Zr4  1  0.50523011  0.69407534  0.10379703  1
  Zr  Zr5  1  0.89467821  0.90439231  0.49079100  1
  Zr  Zr6  1  0.30125859  0.09435824  0.50425512  1
  Zr  Zr7  1  0.29843723  0.48654467  0.90187267  1
  Zr  Zr8  1  0.49755000  0.69010462  0.29986673  1
  Zr  Zr9  1  0.69366545  0.49706291  0.30512060  1
  Zr  Zr10  1  0.10319890  0.69814071  0.29762525  1
  Zr  Zr11  1  0.29228387  0.70075344  0.89976211  1
  Zr  Zr12  1  0.69280415  0.09650642  0.69356859  1
  Zr  Zr13  1  0.69885137  0.90220182  0.49664402  1
  Zr  Zr14  1  0.10077791  0.69658140  0.49276489  1
  Zr  Zr15  1  0.70115014  0.50645043  0.90549702  1
  Zr  Zr16  1  0.29628840  0.90114126  0.09348628  1
  Zr  Zr17  1  0.69377482  0.70590197  0.70924016  1
  Zr  Zr18  1  0.90183799  0.70486655  0.49837915  1
  Zr  Zr19  1  0.29977106  0.69140513  0.30372835  1
  Zr  Zr20  1  0.09496262  0.30426686  0.90017680  1
  Zr  Zr21  1  0.90003775  0.69719447  0.29762432  1
  Zr  Zr22  1  0.30641533  0.30512708  0.70262587  1
  Zr  Zr23  1  0.09095350  0.30129690  0.29559822  1
  Zr  Zr24  1  0.89854516  0.10215404  0.29942357  1
  Zr  Zr25  1  0.70482529  0.29403306  0.10312404  1
  Zr  Zr26  1  0.90584763  0.49771968  0.29511388  1
  Zr  Zr27  1  0.49222289  0.50630233  0.69700068  1
  Zr  Zr28  1  0.50185446  0.09882123  0.70485991  1
  Zr  Zr29  1  0.48874679  0.30233506  0.89850876  1
  Zr  Zr30  1  0.50549206  0.30535012  0.30082503  1
  Zr  Zr31  1  0.50162061  0.49882730  0.90660471  1
  Zr  Zr32  1  0.29376288  0.49839386  0.69622872  1
  Zr  Zr33  1  0.69855227  0.91287159  0.10302340  1
  Zr  Zr34  1  0.10635032  0.49740738  0.50837961  1
  Zr  Zr35  1  0.69331749  0.10479366  0.91009901  1
  Zr  Zr36  1  0.70039344  0.49956054  0.09748226  1
  Zr  Zr37  1  0.89505208  0.90038593  0.71793530  1
  Zr  Zr38  1  0.49990972  0.70000295  0.88653497  1
  Zr  Zr39  1  0.30414966  0.09516191  0.90050839  1
  Zr  Zr40  1  0.90232655  0.49996552  0.69845746  1
  Zr  Zr41  1  0.30079031  0.89776983  0.49849264  1
  Zr  Zr42  1  0.70156548  0.30223634  0.90845479  1
  Zr  Zr43  1  0.29741734  0.30173366  0.29712763  1
  Zr  Zr44  1  0.90335140  0.49726967  0.90128108  1
  Zr  Zr45  1  0.30236804  0.09606044  0.70077215  1
  Zr  Zr46  1  0.50758503  0.10413650  0.50713894  1
  Zr  Zr47  1  0.49733251  0.50270458  0.30646091  1
  Zr  Zr48  1  0.29904570  0.29890467  0.09559742  1
  Zr  Zr49  1  0.30067651  0.10542330  0.29121377  1
  Sc  Sc50  1  0.09884067  0.89629609  0.70134334  1
  Sc  Sc51  1  0.10033419  0.69903647  0.89729544  1
  Sc  Sc52  1  0.90329167  0.08512939  0.89764992  1
  Sc  Sc53  1  0.10094409  0.09851248  0.10056275  1
  Sc  Sc54  1  0.49854167  0.30001090  0.09789175  1
  Sc  Sc55  1  0.70124698  0.29402659  0.49363725  1
  Sc  Sc56  1  0.70803437  0.90032810  0.30039050  1
  Sc  Sc57  1  0.10124452  0.49933567  0.30309502  1
  Sc  Sc58  1  0.30254186  0.90398937  0.70593084  1
  Sc  Sc59  1  0.29869259  0.10779582  0.09331996  1
  Sc  Sc60  1  0.09195386  0.89540351  0.49377383  1
  Sc  Sc61  1  0.89670222  0.71136981  0.89911646  1
  Sc  Sc62  1  0.50805811  0.89743317  0.70032067  1
  Sc  Sc63  1  0.08730918  0.09970526  0.29027913  1
  Sc  Sc64  1  0.70941176  0.51409600  0.69005505  1
  Sc  Sc65  1  0.50753661  0.50149767  0.10941970  1
  Sc  Sc66  1  0.10291190  0.50276024  0.90034912  1
  Sc  Sc67  1  0.29327736  0.89228609  0.29418557  1
  Sc  Sc68  1  0.51156115  0.11154652  0.29041003  1
  Sc  Sc69  1  0.50222941  0.89478937  0.50077799  1
  Sc  Sc70  1  0.09864479  0.49755443  0.70646052  1
  Sc  Sc71  1  0.71574495  0.89935228  0.89549856  1
  Sc  Sc72  1  0.09602415  0.09804515  0.69902582  1
  Sc  Sc73  1  0.30256385  0.29620566  0.90820521  1
  Sc  Sc74  1  0.09448177  0.30685393  0.50250373  1
  Sc  Sc75  1  0.28962240  0.69671719  0.10474817  1
  Sc  Sc76  1  0.70686313  0.69523430  0.10408895  1
  Sc  Sc77  1  0.49208435  0.70012118  0.49899673  1
  Sc  Sc78  1  0.51427211  0.88896699  0.30098618  1
  Sc  Sc79  1  0.09791924  0.69693184  0.71004866  1
  Sc  Sc80  1  0.49768693  0.29350825  0.69738837  1
  Sc  Sc81  1  0.49743314  0.10253265  0.90134645  1
  Sc  Sc82  1  0.88623548  0.49621017  0.50073882  1
  Sc  Sc83  1  0.89781128  0.91082475  0.29866849  1
  Sc  Sc84  1  0.09979352  0.90065454  0.90282312  1
  Sc  Sc85  1  0.69859833  0.28525127  0.29796232  1
  Sc  Sc86  1  0.69810295  0.29205781  0.69252444  1
  Sc  Sc87  1  0.90239123  0.69937214  0.70894767  1
  Sc  Sc88  1  0.10314555  0.29667562  0.10182970  1
  Sc  Sc89  1  0.70755492  0.10557014  0.49803403  1
  Sc  Sc90  1  0.10145715  0.90315235  0.09666716  1
  Sc  Sc91  1  0.90334141  0.30082309  0.09804299  1
  Sc  Sc92  1  0.09176220  0.09935858  0.50033371  1
  Sc  Sc93  1  0.49628546  0.91393971  0.90074310  1
  Sc  Sc94  1  0.30220530  0.49559656  0.50090157  1
  Sc  Sc95  1  0.70315467  0.69486848  0.50232681  1
  Sc  Sc96  1  0.08434607  0.30147271  0.69563557  1
  Sc  Sc97  1  0.29058639  0.50289436  0.09887716  1
  Sc  Sc98  1  0.89966845  0.29521892  0.50274225  1
  Sc  Sc99  1  0.09889045  0.49599237  0.10472293  1
  Nb  Nb100  1  0.90388634  0.89927785  0.90944863  1
  Nb  Nb101  1  0.90062785  0.09579421  0.49563103  1
  Nb  Nb102  1  0.09628315  0.90354965  0.29197139  1
  Nb  Nb103  1  0.30136513  0.30158358  0.50238816  1
  Nb  Nb104  1  0.70221355  0.10002905  0.28802740  1
  Nb  Nb105  1  0.49452472  0.30596668  0.49680338  1
  Nb  Nb106  1  0.30603038  0.50366483  0.30041328  1
  Nb  Nb107  1  0.69711611  0.49998018  0.50380128  1
  Nb  Nb108  1  0.29489842  0.70113529  0.49861610  1
  Nb  Nb109  1  0.90104484  0.29925197  0.29582443  1
  Nb  Nb110  1  0.50075824  0.49049736  0.49587999  1
  Nb  Nb111  1  0.49695883  0.70209584  0.70274854  1
  Nb  Nb112  1  0.70131901  0.89927015  0.69412923  1
  Nb  Nb113  1  0.51356757  0.08253156  0.09456864  1
  Nb  Nb114  1  0.69860081  0.10247814  0.11209874  1
  Nb  Nb115  1  0.69198618  0.70031020  0.90349411  1
  Nb  Nb116  1  0.90394801  0.69959371  0.10605714  1
  Nb  Nb117  1  0.50141645  0.90067397  0.09631183  1
  Nb  Nb118  1  0.90182047  0.09437595  0.10448269  1
  Nb  Nb119  1  0.30594327  0.89851118  0.90046823  1
  Nb  Nb120  1  0.90341065  0.30101365  0.70578526  1
  Nb  Nb121  1  0.90206247  0.29765490  0.89502967  1
  Nb  Nb122  1  0.10077928  0.10722684  0.90092850  1
  Nb  Nb123  1  0.90331640  0.90059315  0.08584907  1
  Nb  Nb124  1  0.89891883  0.50845324  0.10522178  1
  Nb  Nb125  1  -0.00352666  0.19538524  -0.00576603  1
  Nb  Nb126  1  0.60553148  0.40352094  0.79459042  1
  Nb  Nb127  1  0.20267889  0.19995580  0.40407176  1
  Nb  Nb128  1  0.20026042  0.00341406  0.39446269  1
  Nb  Nb129  1  0.20293319  0.20302563  0.59957065  1
  Nb  Nb130  1  -0.00279517  0.80187769  0.19448387  1
  Nb  Nb131  1  0.20407475  0.79402416  0.59603338  1
  Nb  Nb132  1  0.40326641  0.00476479  0.39054966  1
  Nb  Nb133  1  0.39939882  0.60394352  -0.00063383  1
  Nb  Nb134  1  0.80347682  0.40049697  0.20157441  1
  Nb  Nb135  1  0.59842799  0.40524131  0.59482595  1
  Nb  Nb136  1  0.79878271  0.39446317  0.79943284  1
  Nb  Nb137  1  0.40805644  -0.00455282  0.19734953  1
  Nb  Nb138  1  0.19799745  0.19921495  0.79798666  1
  Nb  Nb139  1  0.80388352  0.20307688  0.80294937  1
  Nb  Nb140  1  0.39694314  0.40408740  0.20468314  1
  Nb  Nb141  1  0.40297672  0.79878355  0.00076871  1
  Nb  Nb142  1  -0.00659485  0.60221962  0.00739703  1
  Nb  Nb143  1  0.39790394  0.20183767  0.40427888  1
  Nb  Nb144  1  0.79962821  0.80591160  0.60704496  1
  Nb  Nb145  1  -0.00118513  0.60104154  0.59766472  1
  Nb  Nb146  1  0.59939007  0.80050837  -0.00162398  1
  Nb  Nb147  1  0.40297642  0.80065079  0.19305297  1
  Nb  Nb148  1  -0.01179592  -0.00288416  0.59825371  1
  Nb  Nb149  1  0.60079243  0.00710288  0.39697801  1
  Pd  Pd150  1  0.19974243  0.80386738  0.79500574  1
  Pd  Pd151  1  0.80350083  0.20220406  0.60132845  1
  Pd  Pd152  1  0.20240843  0.40328757  0.20024555  1
  Pd  Pd153  1  0.80194220  0.60141517  0.80572578  1
  Pd  Pd154  1  0.80841371  0.40031498  0.00432574  1
  Pd  Pd155  1  0.20433749  0.00290310  0.20012771  1
  Pd  Pd156  1  -0.00212926  0.58837431  0.40776593  1
  Pd  Pd157  1  0.19333913  0.60756265  0.60703178  1
  Pd  Pd158  1  0.60644729  -0.00485867  0.80672163  1
  Pd  Pd159  1  0.79766327  0.39100229  0.39373898  1
  Pd  Pd160  1  0.59387246  0.60239131  0.59552651  1
  Pd  Pd161  1  0.80036480  0.59895657  0.39810584  1
  Pd  Pd162  1  0.40099960  0.80440641  0.38902945  1
  Pd  Pd163  1  -0.00374518  0.80586529  0.38499770  1
  Pd  Pd164  1  0.79255832  0.01095089  0.80067798  1
  Pd  Pd165  1  0.81236211  0.18944245  -0.00202334  1
  Pd  Pd166  1  -0.00517179  0.40318273  0.40731504  1
  Pd  Pd167  1  0.60405284  0.20864195  0.80148350  1
  Pd  Pd168  1  0.39622455  0.80333495  0.60592210  1
  Pd  Pd169  1  0.41009006  0.19842047  0.19277050  1
  Pd  Pd170  1  0.19681926  0.80684960  0.39937601  1
  Pd  Pd171  1  0.60264897  0.59133874  0.79461304  1
  Pd  Pd172  1  0.19513949  0.00212940  0.80431786  1
  Pd  Pd173  1  0.79323646  0.39207417  0.60500563  1
  Pd  Pd174  1  0.39902443  0.59951612  0.59039043  1
  Pd  Pd175  1  0.20165752  0.39854667  0.40032075  1
  Pd  Pd176  1  0.00763296  -0.00297682  0.79939981  1
  Pd  Pd177  1  0.39249639  0.59162216  0.80731522  1
  Pd  Pd178  1  0.59768863  0.60450350  0.41015437  1
  Pd  Pd179  1  0.79829276  0.00773697  0.00299398  1
  Pd  Pd180  1  0.79154017  0.79552039  0.00469616  1
  Pd  Pd181  1  0.80783324  0.80942532  0.19532905  1
  Pd  Pd182  1  0.79306411  0.59528082  0.20818525  1
  Pd  Pd183  1  0.59883734  0.81413607  0.80957240  1
  Pd  Pd184  1  0.00759980  0.79395799  0.00118676  1
  Pd  Pd185  1  -0.00141879  0.79941381  0.60755066  1
  Pd  Pd186  1  0.41059558  -0.01012644  0.60120421  1
  Pd  Pd187  1  0.59033750  0.20122405  0.00559251  1
  Pd  Pd188  1  0.19385974  0.39062575  0.79627921  1
  Pd  Pd189  1  0.00079938  0.40202225  0.00684343  1
  Pd  Pd190  1  0.18452627  -0.00536673  0.59287224  1
  Pd  Pd191  1  0.60861772  0.39321692  0.40412102  1
  Pd  Pd192  1  0.60312421  0.79171856  0.59503324  1
  Pd  Pd193  1  0.80725640  0.61090047  -0.00351580  1
  Pd  Pd194  1  0.59644723  0.39634297  0.00206659  1
  Pd  Pd195  1  0.00272838  0.20111127  0.40345611  1
  Pd  Pd196  1  0.60252981  0.80050377  0.19319744  1
  Pd  Pd197  1  0.19647067  0.00145956  -0.00458264  1
  Pd  Pd198  1  0.39823847  0.20130441  0.59873240  1
  Pd  Pd199  1  0.80400390  -0.00215228  0.60124319  1
  Rh  Rh200  1  0.19713095  0.59169600  0.20779249  1
  Rh  Rh201  1  0.19594014  0.80049385  0.20039942  1
  Rh  Rh202  1  0.39687607  0.00167223  0.00613870  1
  Rh  Rh203  1  0.59559175  0.19557528  0.40330174  1
  Rh  Rh204  1  0.39171456  0.59748890  0.19092307  1
  Rh  Rh205  1  -0.00441799  0.20060186  0.18823086  1
  Rh  Rh206  1  0.40726038  0.40289767  0.79557316  1
  Rh  Rh207  1  0.40376080  -0.00134411  0.79599829  1
  Rh  Rh208  1  0.00124482  0.19456196  0.59475125  1
  Rh  Rh209  1  0.60048272  -0.00180999  0.59380668  1
  Rh  Rh210  1  0.40484856  0.80877711  0.80258155  1
  Rh  Rh211  1  0.20553539  0.59149511  0.39974639  1
  Rh  Rh212  1  0.80726039  -0.00141154  0.19537098  1
  Rh  Rh213  1  -0.00551718  0.39744788  0.19554839  1
  Rh  Rh214  1  0.80931902  0.20362098  0.20043930  1
  Rh  Rh215  1  0.19542264  0.39716125  0.00323620  1
  Rh  Rh216  1  0.40087594  0.41314876  0.01701088  1
  Rh  Rh217  1  0.20310389  0.80422750  -0.00562156  1
  Rh  Rh218  1  0.78937600  0.01170444  0.39239105  1
  Rh  Rh219  1  0.19729572  0.39021955  0.60526423  1
  Rh  Rh220  1  0.60275876  0.80044283  0.40666448  1
  Rh  Rh221  1  0.39529002  0.59614689  0.41060639  1
  Rh  Rh222  1  0.80871969  0.61379331  0.59954249  1
  Rh  Rh223  1  -0.00337189  0.40562239  0.79933950  1
  Rh  Rh224  1  0.00681779  0.00110011  0.40284136  1
  Rh  Rh225  1  0.61077782  0.59906497  0.20564133  1
  Rh  Rh226  1  0.60849235  -0.00700570  -0.00830227  1
  Rh  Rh227  1  0.18857293  0.19963354  0.20590369  1
  Rh  Rh228  1  0.59520677  0.60739032  -0.00067906  1
  Rh  Rh229  1  0.00020810  0.19701353  0.80636535  1
  Rh  Rh230  1  0.80477427  0.19735086  0.39401289  1
  Rh  Rh231  1  0.59628533  0.20318593  0.18949192  1
  Rh  Rh232  1  0.00880440  0.60518414  0.19508439  1
  Rh  Rh233  1  -0.00561578  -0.00946602  0.19023232  1
  Rh  Rh234  1  0.59847315  0.20996821  0.59466643  1
  Rh  Rh235  1  0.19648324  0.59553828  -0.00470768  1
  Rh  Rh236  1  0.00047072  0.80454845  0.80899041  1
  Rh  Rh237  1  -0.00547326  0.40898731  0.59661352  1
  Rh  Rh238  1  0.00319096  0.00735321  0.00204841  1
  Rh  Rh239  1  0.19225684  0.20409253  -0.00751357  1
  Rh  Rh240  1  0.20431681  0.59604174  0.80044336  1
  Rh  Rh241  1  0.60429817  0.39626716  0.19909203  1
  Rh  Rh242  1  0.80018431  0.79651149  0.40309128  1
  Rh  Rh243  1  -0.00108416  0.59940325  0.80600164  1
  Rh  Rh244  1  0.40735800  0.18980400  0.00523021  1
  Rh  Rh245  1  0.39329892  0.19714873  0.80335144  1
  Rh  Rh246  1  0.40603508  0.40154750  0.60156204  1
  Rh  Rh247  1  0.79672933  0.79743132  0.80109051  1
  Rh  Rh248  1  0.59711512  -0.00302441  0.21076847  1
  Rh  Rh249  1  0.39400830  0.39763242  0.39394801  1
