# generated using pymatgen
data_ZrScNbPdRh
_symmetry_space_group_name_H-M   'P 1'
_cell_length_a   16.57583166
_cell_length_b   16.56791586
_cell_length_c   16.56699572
_cell_angle_alpha   89.99394107
_cell_angle_beta   89.98824409
_cell_angle_gamma   89.99505441
_symmetry_Int_Tables_number   1
_chemical_formula_structural   ZrScNbPdRh
_chemical_formula_sum   'Zr50 Sc50 Nb50 Pd50 Rh50'
_cell_volume   4549.74393114
_cell_formula_units_Z   50
loop_
 _symmetry_equiv_pos_site_id
 _symmetry_equiv_pos_as_xyz
  1  'x, y, z'
loop_
 _atom_site_type_symbol
 _atom_site_label
 _atom_site_symmetry_multiplicity
 _atom_site_fract_x
 _atom_site_fract_y
 _atom_site_fract_z
 _atom_site_occupancy
  Zr  Zr0  1  0.89734629  0.89849390  0.90533255  1
  Zr  Zr1  1  0.89918273  0.50345473  0.90053788  1
  Zr  Zr2  1  0.49845910  0.30309925  0.09378872  1
  Zr  Zr3  1  0.90465775  0.09274567  0.70278487  1
  Zr  Zr4  1  0.09977234  0.10675609  0.09423979  1
  Zr  Zr5  1  0.29488621  0.10025603  0.09599664  1
  Zr  Zr6  1  0.10438343  0.70930607  0.69817636  1
  Zr  Zr7  1  0.29486093  0.29090638  0.09869469  1
  Zr  Zr8  1  0.69685376  0.49483138  0.49802246  1
  Zr  Zr9  1  0.50899283  0.29074367  0.50733991  1
  Zr  Zr10  1  0.69249790  0.10499059  0.49613363  1
  Zr  Zr11  1  0.30479497  0.90759670  0.09426887  1
  Zr  Zr12  1  0.50553818  0.70755990  0.49531173  1
  Zr  Zr13  1  0.29512602  0.30609413  0.30415404  1
  Zr  Zr14  1  0.89343110  0.09389891  0.09378083  1
  Zr  Zr15  1  0.50139338  0.50015519  0.90479615  1
  Zr  Zr16  1  0.08803096  0.49837347  0.69576580  1
  Zr  Zr17  1  0.09972842  0.10000218  0.30351365  1
  Zr  Zr18  1  0.69902406  0.09091143  0.10206477  1
  Zr  Zr19  1  0.50885251  0.89673285  0.10644242  1
  Zr  Zr20  1  0.50556795  0.30664204  0.89291496  1
  Zr  Zr21  1  0.90081657  0.89747388  0.30450164  1
  Zr  Zr22  1  0.09123329  0.30637609  0.50155143  1
  Zr  Zr23  1  0.70876908  0.50393420  0.29335934  1
  Zr  Zr24  1  0.49908020  0.89387130  0.30739837  1
  Zr  Zr25  1  0.70620550  0.70459209  0.89941387  1
  Zr  Zr26  1  0.69752270  0.70156214  0.70033214  1
  Zr  Zr27  1  0.30003489  0.70015690  0.69889492  1
  Zr  Zr28  1  0.10213050  0.90394192  0.30616858  1
  Zr  Zr29  1  0.89923739  0.69755569  0.71046667  1
  Zr  Zr30  1  0.69666196  0.89880592  0.28713497  1
  Zr  Zr31  1  0.50406660  0.09916910  0.31379869  1
  Zr  Zr32  1  0.70778369  0.09707643  0.90232612  1
  Zr  Zr33  1  0.29633619  0.09406659  0.90264291  1
  Zr  Zr34  1  0.50006198  0.70290091  0.70813036  1
  Zr  Zr35  1  0.90667568  0.30128589  0.29986378  1
  Zr  Zr36  1  0.29822268  0.09012348  0.70183600  1
  Zr  Zr37  1  0.70875522  0.90068342  0.09712299  1
  Zr  Zr38  1  0.49879545  0.69670762  0.89655389  1
  Zr  Zr39  1  0.89307134  0.50580000  0.49393070  1
  Zr  Zr40  1  0.48754571  0.10709306  0.69405872  1
  Zr  Zr41  1  0.08794584  0.29526131  0.90347700  1
  Zr  Zr42  1  0.30371645  0.10424355  0.30092435  1
  Zr  Zr43  1  0.09056377  0.30117535  0.10298076  1
  Zr  Zr44  1  0.10370790  0.49929277  0.29020873  1
  Zr  Zr45  1  0.10065244  0.90354040  0.08987789  1
  Zr  Zr46  1  0.89999684  0.69721609  0.09586166  1
  Zr  Zr47  1  0.50391354  0.70566853  0.29632328  1
  Zr  Zr48  1  0.89776695  0.50414379  0.09974433  1
  Zr  Zr49  1  0.09272133  0.09874422  0.89814977  1
  Sc  Sc50  1  0.30564416  0.29748534  0.90554148  1
  Sc  Sc51  1  0.30655040  0.50635809  0.90282766  1
  Sc  Sc52  1  0.69663649  0.30414792  0.70423759  1
  Sc  Sc53  1  0.29860767  0.69487613  0.08833823  1
  Sc  Sc54  1  0.09944916  0.69318156  0.30063396  1
  Sc  Sc55  1  0.69992731  0.90204282  0.70833270  1
  Sc  Sc56  1  0.89584230  0.69352352  0.30540860  1
  Sc  Sc57  1  0.30467966  0.70229115  0.30631134  1
  Sc  Sc58  1  0.10652158  0.90630893  0.49649349  1
  Sc  Sc59  1  0.90176713  0.10442235  0.30413821  1
  Sc  Sc60  1  0.89416290  0.49774436  0.70446043  1
  Sc  Sc61  1  0.69896065  0.09423739  0.30035531  1
  Sc  Sc62  1  0.31590228  0.29198899  0.70385869  1
  Sc  Sc63  1  0.50833745  0.49472539  0.09857433  1
  Sc  Sc64  1  0.28689900  0.50797923  0.09728743  1
  Sc  Sc65  1  0.70257439  0.31364990  0.09311000  1
  Sc  Sc66  1  0.29953860  0.90304374  0.50040601  1
  Sc  Sc67  1  0.90300201  0.30198107  0.09499274  1
  Sc  Sc68  1  0.10436792  0.89750218  0.89598624  1
  Sc  Sc69  1  0.49763160  0.08881653  0.89448845  1
  Sc  Sc70  1  0.70402873  0.69645607  0.49529132  1
  Sc  Sc71  1  0.70528949  0.70253691  0.10595738  1
  Sc  Sc72  1  0.70336088  0.49562156  0.70594588  1
  Sc  Sc73  1  0.08065228  0.30063678  0.69773192  1
  Sc  Sc74  1  0.31340736  0.09392094  0.50712175  1
  Sc  Sc75  1  0.30039919  0.50657037  0.49178968  1
  Sc  Sc76  1  0.50131591  0.50139912  0.71390755  1
  Sc  Sc77  1  0.30094636  0.69850713  0.50170923  1
  Sc  Sc78  1  0.30392189  0.90319350  0.30405830  1
  Sc  Sc79  1  0.90108290  0.69853266  0.90028005  1
  Sc  Sc80  1  0.69991063  0.30480020  0.30581367  1
  Sc  Sc81  1  0.09485256  0.30517807  0.29811343  1
  Sc  Sc82  1  0.29289303  0.89895413  0.70317122  1
  Sc  Sc83  1  0.89643307  0.10503852  0.50865302  1
  Sc  Sc84  1  0.10290910  0.50243864  0.49133489  1
  Sc  Sc85  1  0.09781790  0.69988385  0.89759241  1
  Sc  Sc86  1  0.70812896  0.09687540  0.70547887  1
  Sc  Sc87  1  0.70551947  0.30110067  0.89645376  1
  Sc  Sc88  1  0.10175960  0.68860002  0.09284582  1
  Sc  Sc89  1  0.30128254  0.69885055  0.89562055  1
  Sc  Sc90  1  0.11067803  0.70447542  0.49669185  1
  Sc  Sc91  1  0.69046648  0.88799958  0.50480647  1
  Sc  Sc92  1  0.30072699  0.90231250  0.89337890  1
  Sc  Sc93  1  0.30830645  0.30373336  0.49440748  1
  Sc  Sc94  1  0.70245678  0.30105987  0.50620721  1
  Sc  Sc95  1  0.89597873  0.29641891  0.89910198  1
  Sc  Sc96  1  0.48795966  0.09359514  0.10118492  1
  Sc  Sc97  1  0.89870257  0.10247475  0.89880817  1
  Sc  Sc98  1  0.51060946  0.50219374  0.30757712  1
  Sc  Sc99  1  0.49439764  0.29636809  0.30965772  1
  Nb  Nb100  1  0.90102953  0.30232369  0.50653125  1
  Nb  Nb101  1  0.89972814  0.70415264  0.50134053  1
  Nb  Nb102  1  0.09232724  0.50149957  0.09219686  1
  Nb  Nb103  1  0.90196828  0.90380396  0.69344242  1
  Nb  Nb104  1  0.89812092  0.29899004  0.68740968  1
  Nb  Nb105  1  0.50448910  0.89338315  0.89412329  1
  Nb  Nb106  1  0.29799107  0.49767949  0.29878989  1
  Nb  Nb107  1  0.50347123  0.49993016  0.50729438  1
  Nb  Nb108  1  0.90014263  0.90034535  0.10330953  1
  Nb  Nb109  1  0.10309351  0.90519402  0.69595388  1
  Nb  Nb110  1  0.50347894  0.30466659  0.69971138  1
  Nb  Nb111  1  0.29619438  0.50025160  0.69516057  1
  Nb  Nb112  1  0.49806303  0.69707383  0.09867177  1
  Nb  Nb113  1  0.90293605  0.50456801  0.29505830  1
  Nb  Nb114  1  0.69653704  0.70026345  0.30002733  1
  Nb  Nb115  1  0.89958629  0.89726226  0.49985359  1
  Nb  Nb116  1  0.10196818  0.09346001  0.69906500  1
  Nb  Nb117  1  0.49682621  0.90218134  0.50360136  1
  Nb  Nb118  1  0.69212586  0.90358769  0.90295448  1
  Nb  Nb119  1  0.50005156  0.89713648  0.70503287  1
  Nb  Nb120  1  0.09472234  0.49777029  0.89680681  1
  Nb  Nb121  1  0.70487211  0.50212425  0.09454728  1
  Nb  Nb122  1  0.10937455  0.10063140  0.50335968  1
  Nb  Nb123  1  0.70621383  0.49448972  0.90579047  1
  Nb  Nb124  1  0.49976803  0.09590187  0.50241895  1
  Nb  Nb125  1  0.40547151  0.40495021  0.60317079  1
  Nb  Nb126  1  0.19811906  0.20188956  0.60284606  1
  Nb  Nb127  1  0.41080387  0.80162646  -0.00324924  1
  Nb  Nb128  1  0.18950334  0.40265484  -0.00563149  1
  Nb  Nb129  1  0.19807434  0.39824848  0.79822292  1
  Nb  Nb130  1  0.58929918  -0.00085094  0.60025220  1
  Nb  Nb131  1  0.40772844  0.80393345  0.60338477  1
  Nb  Nb132  1  0.60635372  0.59817482  0.00121603  1
  Nb  Nb133  1  0.19606720  0.80362138  0.19572825  1
  Nb  Nb134  1  0.20636704  0.39650567  0.60706761  1
  Nb  Nb135  1  0.60128020  0.20073073  0.19461808  1
  Nb  Nb136  1  -0.00322023  0.80465862  0.59913312  1
  Nb  Nb137  1  0.81062075  0.80138768  0.60105808  1
  Nb  Nb138  1  0.79997046  -0.00818428  0.40678946  1
  Nb  Nb139  1  -0.00642760  0.61053388  0.59623676  1
  Nb  Nb140  1  0.19340216  0.20068237  0.79413492  1
  Nb  Nb141  1  0.60041167  0.19833002  0.00160512  1
  Nb  Nb142  1  0.79500327  0.20061433  0.19722817  1
  Nb  Nb143  1  -0.00050797  -0.00463710  0.19683089  1
  Nb  Nb144  1  0.40162903  0.59512411  0.20071314  1
  Nb  Nb145  1  0.00311552  0.80341903  0.19726959  1
  Nb  Nb146  1  0.19598339  0.58951628  0.79461099  1
  Nb  Nb147  1  0.39385234  0.40673419  0.20314780  1
  Nb  Nb148  1  0.59703281  0.59762836  0.59954494  1
  Nb  Nb149  1  0.19708214  0.19918054  0.40930367  1
  Pd  Pd150  1  0.00490257  -0.00309903  0.59086888  1
  Pd  Pd151  1  0.39344666  0.40584512  0.79701666  1
  Pd  Pd152  1  0.40690318  0.20743653  0.20218448  1
  Pd  Pd153  1  0.60022567  0.19450351  0.80406028  1
  Pd  Pd154  1  0.80651500  0.20450714  0.79198683  1
  Pd  Pd155  1  0.79148201  0.80251509  0.40228936  1
  Pd  Pd156  1  0.79885696  0.19890844  0.39631945  1
  Pd  Pd157  1  0.60699200  0.19284576  0.61209703  1
  Pd  Pd158  1  0.00253736  0.80920596  0.79627394  1
  Pd  Pd159  1  0.60101411  0.79208215  0.00397964  1
  Pd  Pd160  1  0.79660058  0.60380435  0.60119977  1
  Pd  Pd161  1  0.40344024  -0.00000104  0.20789761  1
  Pd  Pd162  1  0.41001412  0.19414527  -0.00862000  1
  Pd  Pd163  1  0.38672404  0.40870869  0.01146921  1
  Pd  Pd164  1  0.60486200  0.60136348  0.40391328  1
  Pd  Pd165  1  0.80057491  0.40189852  0.60247626  1
  Pd  Pd166  1  0.00214812  0.19725973  0.40808560  1
  Pd  Pd167  1  0.59376627  0.39331966  0.20615557  1
  Pd  Pd168  1  -0.00269494  0.40825659  0.39851810  1
  Pd  Pd169  1  -0.00767466  0.00883833  0.40695806  1
  Pd  Pd170  1  0.59812673  0.39503302  0.40059577  1
  Pd  Pd171  1  0.20745228  0.61110387  0.20382410  1
  Pd  Pd172  1  0.40673990  0.40745064  0.40314357  1
  Pd  Pd173  1  0.80577296  0.39440417  0.19909765  1
  Pd  Pd174  1  0.38851327  0.79148534  0.19030959  1
  Pd  Pd175  1  0.78666236  -0.00762096  0.59284035  1
  Pd  Pd176  1  0.59907119  0.60068172  0.19216719  1
  Pd  Pd177  1  0.00283989  0.19224519  0.60128181  1
  Pd  Pd178  1  0.40901561  0.60105241  0.60306844  1
  Pd  Pd179  1  0.79388235  0.20024924  0.60579946  1
  Pd  Pd180  1  0.79952574  0.80848193  0.79833866  1
  Pd  Pd181  1  0.39761921  0.19678033  0.80913664  1
  Pd  Pd182  1  0.80544999  0.39692822  0.39873293  1
  Pd  Pd183  1  0.00571677  0.79242909  0.40097467  1
  Pd  Pd184  1  0.80834323  0.79199670  0.20256384  1
  Pd  Pd185  1  0.19704245  -0.00331697  0.19992268  1
  Pd  Pd186  1  0.00351671  0.60252128  0.40323263  1
  Pd  Pd187  1  0.00116596  0.79500516  0.00215478  1
  Pd  Pd188  1  0.40253989  0.59792381  0.39461611  1
  Pd  Pd189  1  0.19451860  0.20315621  0.21020687  1
  Pd  Pd190  1  0.20517705  0.79948311  0.39508074  1
  Pd  Pd191  1  0.61021694  0.59275258  0.80396093  1
  Pd  Pd192  1  0.20882773  0.79923420  -0.00176989  1
  Pd  Pd193  1  0.59708925  0.00646650  0.79154878  1
  Pd  Pd194  1  -0.00071630  -0.00827719  0.80426180  1
  Pd  Pd195  1  0.60702398  -0.01024039  0.40602120  1
  Pd  Pd196  1  0.19047007  0.59400809  0.59915724  1
  Pd  Pd197  1  0.59363034  0.00415394  0.00060171  1
  Pd  Pd198  1  0.20059979  0.40010993  0.18814464  1
  Pd  Pd199  1  -0.01001906  0.39476843  0.80005824  1
  Rh  Rh200  1  0.39578958  0.80497806  0.79985540  1
  Rh  Rh201  1  0.19715934  0.00022480  -0.00731967  1
  Rh  Rh202  1  0.60412246  0.79463906  0.19702461  1
  Rh  Rh203  1  0.38966681  0.59614894  0.79674178  1
  Rh  Rh204  1  -0.00226943  0.60272963  0.19901541  1
  Rh  Rh205  1  0.19354196  0.00297104  0.80216469  1
  Rh  Rh206  1  0.20307078  0.60013110  0.39365355  1
  Rh  Rh207  1  0.60488913  0.40260832  0.80274744  1
  Rh  Rh208  1  0.19718380  0.39601961  0.40756135  1
  Rh  Rh209  1  0.80049633  0.60401661  0.20249039  1
  Rh  Rh210  1  0.60648115  0.40015105  -0.00761909  1
  Rh  Rh211  1  -0.00902002  0.19639052  0.00280807  1
  Rh  Rh212  1  0.58885183  0.00714791  0.20334588  1
  Rh  Rh213  1  0.80478643  -0.00625904  0.80627420  1
  Rh  Rh214  1  0.81203707  0.00683891  0.21382754  1
  Rh  Rh215  1  -0.00300396  0.40246615  -0.00085858  1
  Rh  Rh216  1  0.00411611  0.60144302  0.79589614  1
  Rh  Rh217  1  0.41012150  0.60079605  0.00745375  1
  Rh  Rh218  1  -0.00411245  0.19834089  0.79102174  1
  Rh  Rh219  1  0.40459039  -0.01150386  0.60839293  1
  Rh  Rh220  1  0.80375446  0.39535143  0.79944230  1
  Rh  Rh221  1  -0.00023096  0.60102493  -0.00525867  1
  Rh  Rh222  1  0.19210027  0.59322667  -0.01595410  1
  Rh  Rh223  1  0.59443272  0.40791126  0.60738090  1
  Rh  Rh224  1  0.79446042  0.60213503  -0.00156737  1
  Rh  Rh225  1  0.40005253  -0.00084855  0.39894515  1
  Rh  Rh226  1  0.79125305  0.20290559  0.00789515  1
  Rh  Rh227  1  0.39424980  0.19546807  0.40800067  1
  Rh  Rh228  1  0.40721365  -0.01209192  -0.00678509  1
  Rh  Rh229  1  -0.00483250  0.40925655  0.19953838  1
  Rh  Rh230  1  0.60551147  0.80234133  0.39555249  1
  Rh  Rh231  1  0.79914984  0.80343628  -0.00202329  1
  Rh  Rh232  1  0.40132363  -0.00636466  0.79810261  1
  Rh  Rh233  1  -0.00982697  0.41312369  0.59067819  1
  Rh  Rh234  1  0.59802530  0.79885033  0.60658256  1
  Rh  Rh235  1  0.20255676  0.80999020  0.59758389  1
  Rh  Rh236  1  0.79659558  0.59606971  0.80598239  1
  Rh  Rh237  1  -0.01043915  0.18912952  0.19374904  1
  Rh  Rh238  1  0.20029933  0.79555324  0.80069812  1
  Rh  Rh239  1  0.60721639  0.80255246  0.80203196  1
  Rh  Rh240  1  0.60326724  0.20524780  0.39594668  1
  Rh  Rh241  1  0.39634212  0.80175397  0.41187490  1
  Rh  Rh242  1  0.20177991  0.00078271  0.59748259  1
  Rh  Rh243  1  0.19720520  0.20690139  -0.01114241  1
  Rh  Rh244  1  0.39701338  0.20960520  0.59388544  1
  Rh  Rh245  1  -0.00161591  0.00026803  -0.00076118  1
  Rh  Rh246  1  0.21146408  0.01197573  0.40413781  1
  Rh  Rh247  1  0.80764939  0.40049589  -0.00317464  1
  Rh  Rh248  1  0.80062722  -0.00668334  -0.00755738  1
  Rh  Rh249  1  0.79578645  0.60036904  0.39479810  1
