# generated using pymatgen
data_ZrScNbPdRh
_symmetry_space_group_name_H-M   'P 1'
_cell_length_a   16.54603300
_cell_length_b   16.55140212
_cell_length_c   16.55222209
_cell_angle_alpha   90.00587784
_cell_angle_beta   89.99825021
_cell_angle_gamma   90.00348559
_symmetry_Int_Tables_number   1
_chemical_formula_structural   ZrScNbPdRh
_chemical_formula_sum   'Zr50 Sc50 Nb50 Pd50 Rh50'
_cell_volume   4532.99226228
_cell_formula_units_Z   50
loop_
 _symmetry_equiv_pos_site_id
 _symmetry_equiv_pos_as_xyz
  1  'x, y, z'
loop_
 _atom_site_type_symbol
 _atom_site_label
 _atom_site_symmetry_multiplicity
 _atom_site_fract_x
 _atom_site_fract_y
 _atom_site_fract_z
 _atom_site_occupancy
  Zr  Zr0  1  0.90008501  0.89716864  0.90515565  1
  Zr  Zr1  1  0.71323519  0.09737925  0.50282794  1
  Zr  Zr2  1  0.10124263  0.09273993  0.30311306  1
  Zr  Zr3  1  0.30012913  0.90292597  0.69906998  1
  Zr  Zr4  1  0.69519374  0.69754544  0.10586370  1
  Zr  Zr5  1  0.90163363  0.49743454  0.30837230  1
  Zr  Zr6  1  0.30194336  0.70572843  0.10766708  1
  Zr  Zr7  1  0.10076214  0.70229057  0.28458126  1
  Zr  Zr8  1  0.49957542  0.50313295  0.70072603  1
  Zr  Zr9  1  0.10041753  0.68983867  0.09836098  1
  Zr  Zr10  1  0.29321593  0.50381146  0.49973870  1
  Zr  Zr11  1  0.70033708  0.29738009  0.89660166  1
  Zr  Zr12  1  0.09294437  0.29847417  0.69540710  1
  Zr  Zr13  1  0.09862254  0.90326249  0.49759113  1
  Zr  Zr14  1  0.90826588  0.29161392  0.10478691  1
  Zr  Zr15  1  0.89696660  0.90813991  0.29204036  1
  Zr  Zr16  1  0.10307181  0.49578841  0.49872702  1
  Zr  Zr17  1  0.10543413  0.50045325  0.69145855  1
  Zr  Zr18  1  0.71316838  0.69969767  0.69202292  1
  Zr  Zr19  1  0.69799471  0.70418673  0.29419598  1
  Zr  Zr20  1  0.50293258  0.29174101  0.68135724  1
  Zr  Zr21  1  0.90234017  0.69440428  0.29753477  1
  Zr  Zr22  1  0.30045297  0.69741519  0.29918740  1
  Zr  Zr23  1  0.30088867  0.08847512  0.10010637  1
  Zr  Zr24  1  0.49916238  0.89664166  0.89211929  1
  Zr  Zr25  1  0.09760758  0.09805213  0.49521471  1
  Zr  Zr26  1  0.70911411  0.50437387  0.49767887  1
  Zr  Zr27  1  0.49159650  0.10209448  0.30053790  1
  Zr  Zr28  1  0.70102956  0.29755030  0.30721719  1
  Zr  Zr29  1  0.48640475  0.90678072  0.09977438  1
  Zr  Zr30  1  0.50056313  0.10114943  0.10296832  1
  Zr  Zr31  1  0.30727633  0.70777901  0.89617596  1
  Zr  Zr32  1  0.30089686  0.50345862  0.90136428  1
  Zr  Zr33  1  0.69652307  0.10413285  0.70232329  1
  Zr  Zr34  1  0.50895713  0.49382316  0.49984403  1
  Zr  Zr35  1  0.49550350  0.69519991  0.29644015  1
  Zr  Zr36  1  0.91157456  0.69623488  0.90092250  1
  Zr  Zr37  1  0.09994406  0.69597864  0.90393480  1
  Zr  Zr38  1  0.50296516  0.71440681  0.70419021  1
  Zr  Zr39  1  0.29490667  0.09992380  0.88960050  1
  Zr  Zr40  1  0.30839248  0.09874346  0.70091391  1
  Zr  Zr41  1  0.69919202  0.90904949  0.90527881  1
  Zr  Zr42  1  0.49707016  0.29819850  0.11101760  1
  Zr  Zr43  1  0.29729391  0.70435375  0.69561164  1
  Zr  Zr44  1  0.70618793  0.49131271  0.90270574  1
  Zr  Zr45  1  0.70287765  0.49659679  0.30446483  1
  Zr  Zr46  1  0.90033824  0.10529210  0.90637564  1
  Zr  Zr47  1  0.69872755  0.70702411  0.49900927  1
  Zr  Zr48  1  0.69066312  0.30497770  0.50055873  1
  Zr  Zr49  1  0.89183337  0.69607387  0.50236099  1
  Sc  Sc50  1  0.70052889  0.10277958  0.09640372  1
  Sc  Sc51  1  0.48909583  0.89744277  0.50090343  1
  Sc  Sc52  1  0.29809950  0.90497660  0.50141783  1
  Sc  Sc53  1  0.90180738  0.09988866  0.49757995  1
  Sc  Sc54  1  0.29333611  0.49570758  0.09267447  1
  Sc  Sc55  1  0.69966127  0.49578751  0.70258551  1
  Sc  Sc56  1  0.10375982  0.89949659  0.89767066  1
  Sc  Sc57  1  0.50225858  0.49704096  0.10390168  1
  Sc  Sc58  1  0.70074963  0.29271077  0.69969314  1
  Sc  Sc59  1  0.09368461  0.28652727  0.89406413  1
  Sc  Sc60  1  0.69748891  0.29646101  0.10209901  1
  Sc  Sc61  1  0.10287984  0.29946025  0.29654381  1
  Sc  Sc62  1  0.90352940  0.28837816  0.49847005  1
  Sc  Sc63  1  0.89315026  0.11103023  0.68976241  1
  Sc  Sc64  1  0.89733614  0.87895353  0.70281760  1
  Sc  Sc65  1  0.30466535  0.90557204  0.29662737  1
  Sc  Sc66  1  0.29726731  0.10405422  0.30679326  1
  Sc  Sc67  1  0.69628865  0.09535836  0.30394416  1
  Sc  Sc68  1  0.69985194  0.49779197  0.09927426  1
  Sc  Sc69  1  0.29611384  0.50379912  0.30635042  1
  Sc  Sc70  1  0.30479891  0.70572456  0.49349522  1
  Sc  Sc71  1  0.29980064  0.50323516  0.69216985  1
  Sc  Sc72  1  0.09939446  0.50625174  0.90792475  1
  Sc  Sc73  1  0.89223469  0.90494381  0.49481468  1
  Sc  Sc74  1  0.10054341  0.09997817  0.89531150  1
  Sc  Sc75  1  0.51024030  0.50499891  0.89543569  1
  Sc  Sc76  1  0.50444168  0.09610763  0.89329689  1
  Sc  Sc77  1  0.89857861  0.29730127  0.89091631  1
  Sc  Sc78  1  0.29989544  0.29809536  0.49919505  1
  Sc  Sc79  1  0.29841820  0.30271493  0.90553672  1
  Sc  Sc80  1  0.29398521  0.29637898  0.30063435  1
  Sc  Sc81  1  0.30504750  0.90857020  0.89944604  1
  Sc  Sc82  1  0.89403743  0.10422244  0.10856235  1
  Sc  Sc83  1  0.69565145  0.89183690  0.69916342  1
  Sc  Sc84  1  0.69385765  0.10790921  0.90097284  1
  Sc  Sc85  1  0.10636711  0.10188080  0.71015865  1
  Sc  Sc86  1  0.30226809  0.29361283  0.69823434  1
  Sc  Sc87  1  0.89761635  0.30111620  0.29739543  1
  Sc  Sc88  1  0.90534373  0.69518271  0.10266121  1
  Sc  Sc89  1  0.09496799  0.49756571  0.30148282  1
  Sc  Sc90  1  0.10313744  0.30120977  0.49693557  1
  Sc  Sc91  1  0.50674698  0.29847122  0.90385122  1
  Sc  Sc92  1  0.91073265  0.49145026  0.70525800  1
  Sc  Sc93  1  0.69647600  0.90733682  0.11274078  1
  Sc  Sc94  1  0.89899173  0.49712233  0.10800251  1
  Sc  Sc95  1  0.50314378  0.50346656  0.29856665  1
  Sc  Sc96  1  0.10393647  0.70649956  0.51035026  1
  Sc  Sc97  1  0.69793829  0.69002050  0.90456705  1
  Sc  Sc98  1  0.29552102  0.30947218  0.10428645  1
  Sc  Sc99  1  0.49019873  0.10970683  0.49841581  1
  Nb  Nb100  1  0.50613776  0.91373035  0.29957366  1
  Nb  Nb101  1  0.49929621  0.70225801  0.49762853  1
  Nb  Nb102  1  0.90289620  0.29611104  0.69511636  1
  Nb  Nb103  1  0.89634786  0.50577086  0.49668082  1
  Nb  Nb104  1  0.90581532  0.69386055  0.70191251  1
  Nb  Nb105  1  0.49566666  0.70207160  0.89861891  1
  Nb  Nb106  1  0.69521692  0.90415138  0.49469484  1
  Nb  Nb107  1  0.10134727  0.49101353  0.09436639  1
  Nb  Nb108  1  0.49830924  0.29454911  0.30857680  1
  Nb  Nb109  1  0.89619243  0.90865271  0.09514796  1
  Nb  Nb110  1  0.89575187  0.10402063  0.30802220  1
  Nb  Nb111  1  0.90241990  0.49876207  0.90331545  1
  Nb  Nb112  1  0.10235260  0.90412172  0.11136602  1
  Nb  Nb113  1  0.10093749  0.29856487  0.10110559  1
  Nb  Nb114  1  0.29941934  0.90134758  0.09575040  1
  Nb  Nb115  1  0.49849804  0.70204338  0.10054416  1
  Nb  Nb116  1  0.10203561  0.10375669  0.10192942  1
  Nb  Nb117  1  0.50283364  0.09868853  0.69836199  1
  Nb  Nb118  1  0.09502086  0.70434464  0.69860385  1
  Nb  Nb119  1  0.09978930  0.88859756  0.69036140  1
  Nb  Nb120  1  0.69393063  0.90259982  0.30804730  1
  Nb  Nb121  1  0.09470508  0.90069116  0.29924232  1
  Nb  Nb122  1  0.50086613  0.30145957  0.49664528  1
  Nb  Nb123  1  0.29376076  0.09956520  0.49559108  1
  Nb  Nb124  1  0.50241572  0.90669906  0.69817838  1
  Nb  Nb125  1  0.00098006  -0.00668401  0.61000934  1
  Nb  Nb126  1  0.00314358  0.00109996  0.00732553  1
  Nb  Nb127  1  0.19726454  0.60355515  0.79697504  1
  Nb  Nb128  1  0.59401679  0.79663337  0.00405661  1
  Nb  Nb129  1  0.59862085  0.60645388  0.59817426  1
  Nb  Nb130  1  0.80803810  0.39862076  0.59749776  1
  Nb  Nb131  1  0.40633428  0.60893427  -0.00068392  1
  Nb  Nb132  1  0.59655267  0.80663909  0.39615168  1
  Nb  Nb133  1  0.19971311  0.19623841  0.00723527  1
  Nb  Nb134  1  0.00106588  0.39594821  0.00269491  1
  Nb  Nb135  1  0.20081506  0.40363876  0.79944996  1
  Nb  Nb136  1  0.39988378  0.40068124  0.79718013  1
  Nb  Nb137  1  0.79681126  0.80148464  0.00621126  1
  Nb  Nb138  1  0.20197789  0.19237382  0.59748420  1
  Nb  Nb139  1  0.80428805  0.00041783  0.80071899  1
  Nb  Nb140  1  0.40959111  0.60585560  0.59575376  1
  Nb  Nb141  1  0.00117235  0.80218323  0.39416101  1
  Nb  Nb142  1  0.40625358  0.39558098  0.40128682  1
  Nb  Nb143  1  -0.00702838  -0.00412287  0.79615152  1
  Nb  Nb144  1  0.19217351  0.80527638  0.38974534  1
  Nb  Nb145  1  -0.00329492  0.60120553  0.60145388  1
  Nb  Nb146  1  0.39563381  0.19677594  0.00339953  1
  Nb  Nb147  1  0.59743814  -0.00086251  0.59927219  1
  Nb  Nb148  1  0.20166508  0.80642998  0.01058604  1
  Nb  Nb149  1  0.81148169  0.59636458  0.80368416  1
  Pd  Pd150  1  0.40412988  0.80792754  0.20845873  1
  Pd  Pd151  1  0.00255375  0.20485796  0.39204425  1
  Pd  Pd152  1  0.39532187  0.40495582  0.21189401  1
  Pd  Pd153  1  0.00316227  0.19444576  0.21000747  1
  Pd  Pd154  1  0.79987348  0.59479154  0.20235160  1
  Pd  Pd155  1  -0.00366540  0.00997983  0.19608914  1
  Pd  Pd156  1  0.40556487  0.00440794  0.59447175  1
  Pd  Pd157  1  0.19819726  0.40389088  0.20735724  1
  Pd  Pd158  1  0.80223503  -0.00997653  0.61174056  1
  Pd  Pd159  1  0.18998045  0.61229926  0.40092074  1
  Pd  Pd160  1  0.79746927  0.20592551  0.00182388  1
  Pd  Pd161  1  -0.00739511  0.80336878  0.19546675  1
  Pd  Pd162  1  0.59269187  0.39015416  0.79215185  1
  Pd  Pd163  1  0.80941583  0.39028801  0.00713861  1
  Pd  Pd164  1  0.80097097  0.80213801  0.39557926  1
  Pd  Pd165  1  0.00588215  0.80429721  0.80139742  1
  Pd  Pd166  1  0.59382201  0.60038525  0.00360435  1
  Pd  Pd167  1  0.39604317  0.58840594  0.19087383  1
  Pd  Pd168  1  0.80478635  0.80350409  0.19347860  1
  Pd  Pd169  1  0.58954697  0.80809120  0.20073760  1
  Pd  Pd170  1  0.80589301  0.60393553  -0.00028784  1
  Pd  Pd171  1  0.41029808  0.40286856  -0.00647243  1
  Pd  Pd172  1  -0.00308337  0.39176411  0.40347164  1
  Pd  Pd173  1  0.59754409  0.39657842  0.00477084  1
  Pd  Pd174  1  0.38776250  0.20161341  0.19770676  1
  Pd  Pd175  1  0.00936150  0.40271413  0.81036746  1
  Pd  Pd176  1  0.60104086  0.39831479  0.20562196  1
  Pd  Pd177  1  0.60653573  0.19529918  0.20463141  1
  Pd  Pd178  1  0.19296258  0.00623814  0.60536396  1
  Pd  Pd179  1  0.20434084  -0.00008964  0.20735417  1
  Pd  Pd180  1  0.79360336  0.79359064  0.81251668  1
  Pd  Pd181  1  0.60231201  0.60667141  0.40081803  1
  Pd  Pd182  1  0.40726597  0.20873622  0.80637131  1
  Pd  Pd183  1  0.19143977  -0.00050293  -0.00327261  1
  Pd  Pd184  1  0.61091550  0.60645244  0.79338052  1
  Pd  Pd185  1  0.39955823  0.80760784  0.39226328  1
  Pd  Pd186  1  0.20000976  0.58630066  0.19684293  1
  Pd  Pd187  1  0.59489782  -0.00263459  0.00430927  1
  Pd  Pd188  1  0.00986821  0.61058104  0.40783997  1
  Pd  Pd189  1  0.79239034  0.00859135  0.20402429  1
  Pd  Pd190  1  -0.00784615  0.40318416  0.58762044  1
  Pd  Pd191  1  0.58980835  0.00367921  0.41250886  1
  Pd  Pd192  1  0.60241139  0.18994700  0.40546937  1
  Pd  Pd193  1  0.80446551  0.39961180  0.79073295  1
  Pd  Pd194  1  0.61183037  0.79463845  0.80842041  1
  Pd  Pd195  1  0.79839615  0.39527703  0.19764106  1
  Pd  Pd196  1  0.19920091  0.80139380  0.80614973  1
  Pd  Pd197  1  0.39380338  0.40345907  0.59727982  1
  Pd  Pd198  1  0.00434114  0.80885631  0.01249439  1
  Pd  Pd199  1  0.80308357  0.80930057  0.59436436  1
  Rh  Rh200  1  0.20331398  0.80882831  0.19994936  1
  Rh  Rh201  1  -0.00944414  0.19030104  0.79201042  1
  Rh  Rh202  1  -0.00644177  0.58616820  0.00966771  1
  Rh  Rh203  1  0.19166347  -0.01119321  0.79193062  1
  Rh  Rh204  1  0.39279453  0.19506805  0.59346282  1
  Rh  Rh205  1  0.79596177  0.21189313  0.59487164  1
  Rh  Rh206  1  0.19993152  0.61047937  0.60120090  1
  Rh  Rh207  1  0.60741304  -0.00023657  0.79043205  1
  Rh  Rh208  1  0.39730280  0.00276982  0.40120016  1
  Rh  Rh209  1  0.60268590  0.18911708  0.59115872  1
  Rh  Rh210  1  0.80617585  0.58455100  0.61512585  1
  Rh  Rh211  1  0.80274083  0.19595177  0.80014374  1
  Rh  Rh212  1  0.20858713  0.80056160  0.59022154  1
  Rh  Rh213  1  0.20393179  0.21004916  0.79814888  1
  Rh  Rh214  1  0.20399639  0.38418787  0.60486539  1
  Rh  Rh215  1  0.79630914  0.19742689  0.20799671  1
  Rh  Rh216  1  0.19997517  0.19725555  0.19509333  1
  Rh  Rh217  1  0.39403132  0.59457539  0.79947631  1
  Rh  Rh218  1  0.60185944  0.59390250  0.19868946  1
  Rh  Rh219  1  0.00988357  0.18853455  0.60224009  1
  Rh  Rh220  1  0.79607363  0.60586383  0.38900490  1
  Rh  Rh221  1  0.59506134  0.80608112  0.58852954  1
  Rh  Rh222  1  0.80338081  0.00128765  -0.00347227  1
  Rh  Rh223  1  0.20449434  -0.00669324  0.39487667  1
  Rh  Rh224  1  0.00706398  0.19826937  0.00447207  1
  Rh  Rh225  1  0.20617876  0.39860594  0.39731056  1
  Rh  Rh226  1  0.00438108  0.59448825  0.79356394  1
  Rh  Rh227  1  0.60120115  0.00547121  0.20003109  1
  Rh  Rh228  1  0.21336634  0.61306575  -0.00308044  1
  Rh  Rh229  1  0.39957964  0.79815046  0.00179786  1
  Rh  Rh230  1  -0.01004672  0.79722696  0.59057696  1
  Rh  Rh231  1  0.79833303  0.20066423  0.40015006  1
  Rh  Rh232  1  0.39938874  0.81034207  0.79257996  1
  Rh  Rh233  1  0.40512878  -0.00065424  0.79951554  1
  Rh  Rh234  1  0.40273601  0.58895544  0.40829662  1
  Rh  Rh235  1  0.39655979  0.00139360  0.20595583  1
  Rh  Rh236  1  0.59152563  0.20175680  0.00361674  1
  Rh  Rh237  1  0.80283512  0.00089544  0.39383480  1
  Rh  Rh238  1  0.00387080  0.40087313  0.19476650  1
  Rh  Rh239  1  0.40361402  0.00783672  -0.00950151  1
  Rh  Rh240  1  0.59382541  0.20422127  0.79849988  1
  Rh  Rh241  1  -0.00839524  -0.00370391  0.40358044  1
  Rh  Rh242  1  0.00426734  0.58727075  0.19638063  1
  Rh  Rh243  1  0.39382711  0.20613199  0.40234905  1
  Rh  Rh244  1  0.39919129  0.79852655  0.60335409  1
  Rh  Rh245  1  0.18387745  0.38460539  -0.01127315  1
  Rh  Rh246  1  0.61088217  0.40489453  0.60412113  1
  Rh  Rh247  1  0.59398275  0.39934653  0.39051793  1
  Rh  Rh248  1  0.80867608  0.39219366  0.40901917  1
  Rh  Rh249  1  0.19759399  0.20033966  0.40503527  1
