# generated using pymatgen
data_ZrScNbPdRh
_symmetry_space_group_name_H-M   'P 1'
_cell_length_a   16.56059304
_cell_length_b   16.55513796
_cell_length_c   16.56049887
_cell_angle_alpha   89.96674983
_cell_angle_beta   89.99293927
_cell_angle_gamma   90.04702090
_symmetry_Int_Tables_number   1
_chemical_formula_structural   ZrScNbPdRh
_chemical_formula_sum   'Zr50 Sc50 Nb50 Pd50 Rh50'
_cell_volume   4540.27211097
_cell_formula_units_Z   50
loop_
 _symmetry_equiv_pos_site_id
 _symmetry_equiv_pos_as_xyz
  1  'x, y, z'
loop_
 _atom_site_type_symbol
 _atom_site_label
 _atom_site_symmetry_multiplicity
 _atom_site_fract_x
 _atom_site_fract_y
 _atom_site_fract_z
 _atom_site_occupancy
  Zr  Zr0  1  0.89665452  0.69708672  0.50232734  1
  Zr  Zr1  1  0.09446015  0.90716409  0.50295159  1
  Zr  Zr2  1  0.90269196  0.89831446  0.69633472  1
  Zr  Zr3  1  0.90880756  0.29350780  0.90171470  1
  Zr  Zr4  1  0.29822786  0.10297162  0.50756973  1
  Zr  Zr5  1  0.10881387  0.69898226  0.30512629  1
  Zr  Zr6  1  0.69702257  0.31229202  0.90071499  1
  Zr  Zr7  1  0.09723148  0.49767931  0.69991418  1
  Zr  Zr8  1  0.30174935  0.30376593  0.49795127  1
  Zr  Zr9  1  0.49233754  0.49592826  0.10133650  1
  Zr  Zr10  1  0.89465048  0.89173119  0.49897249  1
  Zr  Zr11  1  0.68824710  0.69316284  0.69854645  1
  Zr  Zr12  1  0.09505041  0.10559988  0.90438858  1
  Zr  Zr13  1  0.09679035  0.29375291  0.70732676  1
  Zr  Zr14  1  0.50123677  0.30684281  0.49079426  1
  Zr  Zr15  1  0.50061538  0.89002928  0.69562751  1
  Zr  Zr16  1  0.50902373  0.09951126  0.91020582  1
  Zr  Zr17  1  0.69720297  0.68637782  0.90819031  1
  Zr  Zr18  1  0.48950284  0.09335464  0.70250128  1
  Zr  Zr19  1  0.68589971  0.09338490  0.09120250  1
  Zr  Zr20  1  0.49630620  0.49305722  0.29823407  1
  Zr  Zr21  1  0.10898920  0.89968529  0.09833333  1
  Zr  Zr22  1  0.09192723  0.10207353  0.30272779  1
  Zr  Zr23  1  0.10400166  0.10191301  0.68336099  1
  Zr  Zr24  1  0.09653381  0.09275824  0.10247263  1
  Zr  Zr25  1  0.10300562  0.69947789  0.09474944  1
  Zr  Zr26  1  0.08900097  0.50052925  0.09379458  1
  Zr  Zr27  1  0.49795378  0.09499103  0.50165955  1
  Zr  Zr28  1  0.70153570  0.91506479  0.90426656  1
  Zr  Zr29  1  0.50371557  0.49752115  0.49761100  1
  Zr  Zr30  1  0.90468981  0.10799117  0.10899221  1
  Zr  Zr31  1  0.49748026  0.89903776  0.30377937  1
  Zr  Zr32  1  0.49920000  0.89824377  0.49944739  1
  Zr  Zr33  1  0.29956899  0.29236292  0.69875760  1
  Zr  Zr34  1  0.09846087  0.70001469  0.50151406  1
  Zr  Zr35  1  0.69864745  0.89715971  0.10635818  1
  Zr  Zr36  1  0.90627074  0.10726177  0.69507653  1
  Zr  Zr37  1  0.10417371  0.29388617  0.48636428  1
  Zr  Zr38  1  0.09924677  0.30731467  0.90394620  1
  Zr  Zr39  1  0.70340964  0.48810113  0.70092315  1
  Zr  Zr40  1  0.49831984  0.30543286  0.71017943  1
  Zr  Zr41  1  0.70430221  0.11357603  0.30004380  1
  Zr  Zr42  1  0.30069408  0.49555903  0.49453038  1
  Zr  Zr43  1  0.30236496  0.49342154  0.70244785  1
  Zr  Zr44  1  0.09721091  0.29408056  0.09870781  1
  Zr  Zr45  1  0.49660782  0.30234161  0.91508103  1
  Zr  Zr46  1  0.30655237  0.89791274  0.29482342  1
  Zr  Zr47  1  0.70388549  0.50399094  0.50663575  1
  Zr  Zr48  1  0.89870534  0.50019472  0.50914251  1
  Zr  Zr49  1  0.49343275  0.10357152  0.10181931  1
  Sc  Sc50  1  0.29761247  0.50207172  0.90004381  1
  Sc  Sc51  1  0.29195825  0.10180666  0.10603242  1
  Sc  Sc52  1  0.69885058  0.09660465  0.69611028  1
  Sc  Sc53  1  0.10313431  0.90836387  0.30372894  1
  Sc  Sc54  1  0.29382024  0.70559141  0.48976127  1
  Sc  Sc55  1  0.50832583  0.50516041  0.70456092  1
  Sc  Sc56  1  0.29957607  0.50393298  0.29938008  1
  Sc  Sc57  1  0.29456492  0.29721627  0.29781013  1
  Sc  Sc58  1  0.30559093  0.90635616  0.49204170  1
  Sc  Sc59  1  0.29899643  0.70370760  0.71012726  1
  Sc  Sc60  1  0.89264545  0.68694515  0.10751597  1
  Sc  Sc61  1  0.29887519  0.09332567  0.29976854  1
  Sc  Sc62  1  0.10198414  0.49380941  0.49430234  1
  Sc  Sc63  1  0.49780149  0.89905861  0.88992831  1
  Sc  Sc64  1  0.30747442  0.50946051  0.09469755  1
  Sc  Sc65  1  0.69588644  0.88408799  0.29407472  1
  Sc  Sc66  1  0.70644968  0.89894823  0.69735575  1
  Sc  Sc67  1  0.29404636  0.89547726  0.90401751  1
  Sc  Sc68  1  0.09699645  0.49585972  0.30412948  1
  Sc  Sc69  1  0.89989848  0.70556568  0.89619570  1
  Sc  Sc70  1  0.09752875  0.89850314  0.91055194  1
  Sc  Sc71  1  0.90428626  0.89766639  0.30148179  1
  Sc  Sc72  1  0.89899773  0.89867785  0.89621022  1
  Sc  Sc73  1  0.51229210  0.71184978  0.50821457  1
  Sc  Sc74  1  0.90139588  0.09284634  0.90362563  1
  Sc  Sc75  1  0.88518364  0.70128126  0.29893563  1
  Sc  Sc76  1  0.91191714  0.10138332  0.49831237  1
  Sc  Sc77  1  0.30312453  0.30441691  0.89838138  1
  Sc  Sc78  1  0.90629245  0.29783268  0.50069813  1
  Sc  Sc79  1  0.70001525  0.10598757  0.50727984  1
  Sc  Sc80  1  0.70688263  0.70690939  0.49721636  1
  Sc  Sc81  1  0.90159587  0.49745747  0.28864611  1
  Sc  Sc82  1  0.70125092  0.30552526  0.10449796  1
  Sc  Sc83  1  0.69830963  0.49586816  0.29521163  1
  Sc  Sc84  1  0.09894527  0.70757648  0.69673282  1
  Sc  Sc85  1  0.50098785  0.49982514  0.90262658  1
  Sc  Sc86  1  0.30615768  0.89848392  0.69909891  1
  Sc  Sc87  1  0.71001133  0.51002859  0.08734107  1
  Sc  Sc88  1  0.10608048  0.69880962  0.90238357  1
  Sc  Sc89  1  0.30365706  0.70556119  0.29682545  1
  Sc  Sc90  1  0.90247830  0.30720800  0.69579766  1
  Sc  Sc91  1  0.50204763  0.90722598  0.11156736  1
  Sc  Sc92  1  0.90849686  0.90539438  0.09899720  1
  Sc  Sc93  1  0.89875249  0.49379069  0.91198126  1
  Sc  Sc94  1  0.30257541  0.29477899  0.09557906  1
  Sc  Sc95  1  0.48357087  0.69028850  0.09138580  1
  Sc  Sc96  1  0.89930062  0.70624765  0.69287250  1
  Sc  Sc97  1  0.30288949  0.69662589  0.90763442  1
  Sc  Sc98  1  0.69520954  0.29868905  0.50562121  1
  Sc  Sc99  1  0.30210340  0.10319477  0.90226446  1
  Nb  Nb100  1  0.50280723  0.69999595  0.70392855  1
  Nb  Nb101  1  0.29541566  0.70351679  0.09973265  1
  Nb  Nb102  1  0.50245194  0.70090827  0.30457132  1
  Nb  Nb103  1  0.29892265  0.89349614  0.09886112  1
  Nb  Nb104  1  0.89793922  0.10140587  0.29782293  1
  Nb  Nb105  1  0.49903798  0.09521841  0.29616281  1
  Nb  Nb106  1  0.69922208  0.90000903  0.49550209  1
  Nb  Nb107  1  0.69823655  0.69964076  0.28982090  1
  Nb  Nb108  1  0.29779943  0.10369928  0.69912406  1
  Nb  Nb109  1  0.09796622  0.50249452  0.90178826  1
  Nb  Nb110  1  0.90377530  0.49554355  0.10305726  1
  Nb  Nb111  1  0.10032420  0.90298763  0.69808929  1
  Nb  Nb112  1  0.70157302  0.70030992  0.10386141  1
  Nb  Nb113  1  0.70019669  0.30060853  0.30401427  1
  Nb  Nb114  1  0.50774395  0.69608244  0.89291341  1
  Nb  Nb115  1  0.09619780  0.30201133  0.29872318  1
  Nb  Nb116  1  0.70012609  0.29908573  0.70718324  1
  Nb  Nb117  1  0.90145424  0.30365906  0.10588322  1
  Nb  Nb118  1  0.89178239  0.28607561  0.28833937  1
  Nb  Nb119  1  0.49694536  0.29903045  0.10311106  1
  Nb  Nb120  1  0.69914313  0.10519376  0.90323180  1
  Nb  Nb121  1  0.70189900  0.50301693  0.89744121  1
  Nb  Nb122  1  0.10115152  0.09698760  0.49481234  1
  Nb  Nb123  1  0.89906817  0.50617346  0.69096583  1
  Nb  Nb124  1  0.50849896  0.30610290  0.29928951  1
  Nb  Nb125  1  0.79154454  0.79781052  0.00496427  1
  Nb  Nb126  1  0.80255384  0.59190070  0.79848794  1
  Nb  Nb127  1  0.79584866  0.00115970  0.39672311  1
  Nb  Nb128  1  -0.00546673  0.60109011  0.40326248  1
  Nb  Nb129  1  0.59978953  0.79376188  -0.00053900  1
  Nb  Nb130  1  0.79414067  0.20188663  0.80354575  1
  Nb  Nb131  1  0.19367926  0.40271973  0.19487515  1
  Nb  Nb132  1  0.19855875  0.60045771  0.19450454  1
  Nb  Nb133  1  0.00881881  -0.00047654  0.79188941  1
  Nb  Nb134  1  0.60133360  0.60536723  0.39289843  1
  Nb  Nb135  1  0.40027627  0.60398084  0.59924216  1
  Nb  Nb136  1  0.59307772  0.20720652  0.20360033  1
  Nb  Nb137  1  0.40837337  0.20040517  0.39437439  1
  Nb  Nb138  1  0.20647511  0.59698850  0.59983500  1
  Nb  Nb139  1  0.60419912  0.20160171  0.80442698  1
  Nb  Nb140  1  0.59724162  0.60510881  0.19951576  1
  Nb  Nb141  1  0.79742903  0.20064888  -0.00088971  1
  Nb  Nb142  1  0.80038885  0.39154993  0.39391794  1
  Nb  Nb143  1  0.60531071  0.00037644  0.39743826  1
  Nb  Nb144  1  0.19610784  0.00383613  0.79367590  1
  Nb  Nb145  1  0.00696144  0.79594898  0.19944115  1
  Nb  Nb146  1  0.41009155  0.60408694  0.40266101  1
  Nb  Nb147  1  -0.00335062  0.59322455  0.79805688  1
  Nb  Nb148  1  0.80026966  0.00554869  0.20562814  1
  Nb  Nb149  1  0.39613826  -0.00370063  0.00665781  1
  Pd  Pd150  1  0.58411191  0.78776211  0.18790666  1
  Pd  Pd151  1  0.38620022  0.39400325  0.20029863  1
  Pd  Pd152  1  0.40786601  0.20524835  0.59428283  1
  Pd  Pd153  1  0.00801200  0.39386856  0.59578070  1
  Pd  Pd154  1  0.60974247  0.80401792  0.80692481  1
  Pd  Pd155  1  0.38871066  -0.00124442  0.80783581  1
  Pd  Pd156  1  0.19239066  0.60118412  0.79570466  1
  Pd  Pd157  1  0.40600280  0.19859511  0.80852943  1
  Pd  Pd158  1  0.20405544  0.19862654  -0.00150359  1
  Pd  Pd159  1  0.20758796  0.19366571  0.39346586  1
  Pd  Pd160  1  0.60677129  0.40466918  0.19088111  1
  Pd  Pd161  1  0.20180946  0.39925118  0.80329677  1
  Pd  Pd162  1  0.80637453  0.20129080  0.41188026  1
  Pd  Pd163  1  0.20107949  0.81270225  0.40089352  1
  Pd  Pd164  1  0.20685006  0.80018640  0.59750135  1
  Pd  Pd165  1  0.40093288  0.20392867  0.20790367  1
  Pd  Pd166  1  0.40570809  0.79453960  0.19494901  1
  Pd  Pd167  1  -0.00845241  0.60604821  -0.00927412  1
  Pd  Pd168  1  0.80476858  0.39491647  0.00322839  1
  Pd  Pd169  1  0.59122470  0.20304767  0.61084037  1
  Pd  Pd170  1  -0.00160290  0.79341207  0.39267189  1
  Pd  Pd171  1  0.81219062  0.40123198  0.79991757  1
  Pd  Pd172  1  -0.01130025  0.79325108  0.00866226  1
  Pd  Pd173  1  0.80787607  0.00971008  0.79456026  1
  Pd  Pd174  1  0.19274784  0.39676191  0.60071672  1
  Pd  Pd175  1  0.59433008  0.19470071  0.39784154  1
  Pd  Pd176  1  0.79718361  0.40426125  0.20083930  1
  Pd  Pd177  1  0.00709039  0.80001034  0.80080370  1
  Pd  Pd178  1  0.80546547  0.00329568  0.59180911  1
  Pd  Pd179  1  0.80130313  0.20582662  0.60377352  1
  Pd  Pd180  1  0.40269897  0.60013454  0.79853464  1
  Pd  Pd181  1  0.60145021  -0.00492536  0.59819742  1
  Pd  Pd182  1  0.78892910  0.79191460  0.80708999  1
  Pd  Pd183  1  0.20265776  -0.00126137  0.20281011  1
  Pd  Pd184  1  0.39725706  0.79553863  0.80768573  1
  Pd  Pd185  1  0.20968822  -0.00767241  0.60130157  1
  Pd  Pd186  1  0.39227500  0.79111484  0.59568476  1
  Pd  Pd187  1  0.19526693  0.80718968  0.80482638  1
  Pd  Pd188  1  0.00400950  0.60662825  0.21006835  1
  Pd  Pd189  1  0.79884592  0.59037701  0.39067326  1
  Pd  Pd190  1  0.80859267  0.00184561  0.00924615  1
  Pd  Pd191  1  0.40818464  0.80542162  -0.00298454  1
  Pd  Pd192  1  -0.01340914  0.40077653  0.39278932  1
  Pd  Pd193  1  -0.00715654  0.40837518  0.80206625  1
  Pd  Pd194  1  0.59948336  0.39594627  0.60229496  1
  Pd  Pd195  1  0.20575568  0.40685038  0.00598507  1
  Pd  Pd196  1  0.60136584  0.40821022  0.00898902  1
  Pd  Pd197  1  0.20046886  0.19568485  0.80550698  1
  Pd  Pd198  1  0.40739396  0.40477723  0.60620612  1
  Pd  Pd199  1  0.60166248  0.00389091  0.79428945  1
  Rh  Rh200  1  0.60752630  0.80524750  0.60314538  1
  Rh  Rh201  1  0.79416439  0.60676510  0.61052892  1
  Rh  Rh202  1  0.39514601  0.40044171  0.00236170  1
  Rh  Rh203  1  0.79370639  0.79807079  0.60181734  1
  Rh  Rh204  1  0.20107532  0.00227956  0.40090091  1
  Rh  Rh205  1  0.39540033  0.19402031  0.00171403  1
  Rh  Rh206  1  0.39116424  -0.00113040  0.19246884  1
  Rh  Rh207  1  0.79944485  0.39104974  0.59437386  1
  Rh  Rh208  1  -0.00020480  0.00005186  -0.00547887  1
  Rh  Rh209  1  0.19663866  0.20699560  0.59498783  1
  Rh  Rh210  1  -0.00402391  0.19318090  0.79860943  1
  Rh  Rh211  1  0.61514572  0.40733040  0.40271512  1
  Rh  Rh212  1  0.60558991  0.80045136  0.39989745  1
  Rh  Rh213  1  0.60397426  0.59155564  0.80091840  1
  Rh  Rh214  1  0.81405313  0.80913770  0.19215192  1
  Rh  Rh215  1  0.61044904  0.00954441  0.21374904  1
  Rh  Rh216  1  -0.00508571  -0.00181390  0.59873778  1
  Rh  Rh217  1  -0.00322818  -0.00825459  0.20567725  1
  Rh  Rh218  1  0.60595790  0.21323247  0.00558357  1
  Rh  Rh219  1  -0.00520692  0.19909734  0.00548962  1
  Rh  Rh220  1  0.00051775  0.80262819  0.59850942  1
  Rh  Rh221  1  0.20300095  0.79676465  -0.00326930  1
  Rh  Rh222  1  -0.00393509  0.20125446  0.39482370  1
  Rh  Rh223  1  0.19163560  0.20495086  0.20365587  1
  Rh  Rh224  1  0.80980203  0.60290605  -0.00367017  1
  Rh  Rh225  1  0.19922440  0.59583614  0.40053210  1
  Rh  Rh226  1  0.00571773  0.20370148  0.20409334  1
  Rh  Rh227  1  0.40103182  0.40408180  0.80416703  1
  Rh  Rh228  1  0.20207339  0.59660367  0.00439305  1
  Rh  Rh229  1  0.78872313  0.19707028  0.18640970  1
  Rh  Rh230  1  0.40434682  0.00707386  0.39873684  1
  Rh  Rh231  1  0.39714356  0.60728699  0.20844104  1
  Rh  Rh232  1  0.59132862  0.59907511  0.00761824  1
  Rh  Rh233  1  0.39225435  0.39595939  0.38935284  1
  Rh  Rh234  1  0.79312249  0.59051296  0.20056394  1
  Rh  Rh235  1  0.20333034  0.39990688  0.38712616  1
  Rh  Rh236  1  0.59489117  0.40072746  0.80483811  1
  Rh  Rh237  1  -0.00347529  0.39775127  0.00270385  1
  Rh  Rh238  1  0.00172880  0.39204554  0.20083248  1
  Rh  Rh239  1  0.00981343  0.20727874  0.59173685  1
  Rh  Rh240  1  0.20809120  0.00013625  -0.00360864  1
  Rh  Rh241  1  0.19596491  0.79681750  0.19994184  1
  Rh  Rh242  1  0.58494573  -0.01661606  -0.00312615  1
  Rh  Rh243  1  -0.00645094  0.00185576  0.40082296  1
  Rh  Rh244  1  0.59598652  0.60298294  0.59252496  1
  Rh  Rh245  1  0.40279928  0.79389344  0.40429388  1
  Rh  Rh246  1  0.39583219  -0.00296281  0.60417160  1
  Rh  Rh247  1  0.01158074  0.60102009  0.60011298  1
  Rh  Rh248  1  0.40145787  0.59907479  -0.01176629  1
  Rh  Rh249  1  0.79467314  0.80454805  0.39504710  1
