# generated using pymatgen
data_ZrScNbPdRh
_symmetry_space_group_name_H-M   'P 1'
_cell_length_a   16.55652245
_cell_length_b   16.55891054
_cell_length_c   16.55541400
_cell_angle_alpha   89.99634496
_cell_angle_beta   89.96418104
_cell_angle_gamma   89.95479608
_symmetry_Int_Tables_number   1
_chemical_formula_structural   ZrScNbPdRh
_chemical_formula_sum   'Zr50 Sc50 Nb50 Pd50 Rh50'
_cell_volume   4538.79645501
_cell_formula_units_Z   50
loop_
 _symmetry_equiv_pos_site_id
 _symmetry_equiv_pos_as_xyz
  1  'x, y, z'
loop_
 _atom_site_type_symbol
 _atom_site_label
 _atom_site_symmetry_multiplicity
 _atom_site_fract_x
 _atom_site_fract_y
 _atom_site_fract_z
 _atom_site_occupancy
  Zr  Zr0  1  0.29606743  0.90092242  0.49374065  1
  Zr  Zr1  1  0.91179155  0.29898675  0.71240464  1
  Zr  Zr2  1  0.90575818  0.89895925  0.69808937  1
  Zr  Zr3  1  0.70133353  0.49540513  0.90901894  1
  Zr  Zr4  1  0.50682420  0.11090064  0.29666042  1
  Zr  Zr5  1  0.50455292  0.71106382  0.89515334  1
  Zr  Zr6  1  0.10324046  0.90157823  0.90625535  1
  Zr  Zr7  1  0.30029075  0.90158987  0.89394619  1
  Zr  Zr8  1  0.30210441  0.29952731  0.10202260  1
  Zr  Zr9  1  0.50423776  0.90218835  0.30159282  1
  Zr  Zr10  1  0.69149303  0.70325193  0.70201803  1
  Zr  Zr11  1  0.09711871  0.70497682  0.09386893  1
  Zr  Zr12  1  0.30752454  0.69395220  0.48616904  1
  Zr  Zr13  1  0.88939126  0.69735201  0.49878332  1
  Zr  Zr14  1  0.50266305  0.49317662  0.69841653  1
  Zr  Zr15  1  0.49395957  0.50943660  0.50831971  1
  Zr  Zr16  1  0.11190192  0.69732509  0.28949460  1
  Zr  Zr17  1  0.89654208  0.69225474  0.71016699  1
  Zr  Zr18  1  0.69761444  0.49834434  0.10174776  1
  Zr  Zr19  1  0.69153033  0.69853207  0.49654816  1
  Zr  Zr20  1  0.30406800  0.50341193  0.69640846  1
  Zr  Zr21  1  0.49521125  0.89636602  0.49888129  1
  Zr  Zr22  1  0.29871634  0.29914652  0.90308672  1
  Zr  Zr23  1  0.49311420  0.88770338  0.70426584  1
  Zr  Zr24  1  0.49841520  0.30101269  0.89185798  1
  Zr  Zr25  1  0.89830431  0.90093855  0.50125835  1
  Zr  Zr26  1  0.89401755  0.50594239  0.10062797  1
  Zr  Zr27  1  0.89781067  0.50387330  0.89954583  1
  Zr  Zr28  1  0.29582146  0.69906097  0.10713442  1
  Zr  Zr29  1  0.10560317  0.70517119  0.50084289  1
  Zr  Zr30  1  0.89494810  0.29618465  0.10011356  1
  Zr  Zr31  1  0.71125662  0.29832868  0.90225592  1
  Zr  Zr32  1  0.09880715  0.90214136  0.50159447  1
  Zr  Zr33  1  0.88787530  0.11345903  0.89269910  1
  Zr  Zr34  1  0.89421531  0.09974318  0.50256973  1
  Zr  Zr35  1  0.10074689  0.69773571  0.71106772  1
  Zr  Zr36  1  0.50755863  0.29696793  0.50729870  1
  Zr  Zr37  1  0.08422888  0.91040077  0.09287009  1
  Zr  Zr38  1  0.29573258  0.50936011  0.30496556  1
  Zr  Zr39  1  0.90283636  0.09345321  0.10282887  1
  Zr  Zr40  1  0.90639764  0.49710634  0.51081838  1
  Zr  Zr41  1  0.70058853  0.10732139  0.29923467  1
  Zr  Zr42  1  0.50781920  0.49277719  0.09806930  1
  Zr  Zr43  1  0.29928998  0.70725862  0.70788442  1
  Zr  Zr44  1  0.30255619  0.90699239  0.69886129  1
  Zr  Zr45  1  0.49641840  0.70719947  0.09931298  1
  Zr  Zr46  1  0.30549812  0.88839575  0.30196913  1
  Zr  Zr47  1  0.89976469  0.29839162  0.49036871  1
  Zr  Zr48  1  0.69332647  0.69340374  0.30417754  1
  Zr  Zr49  1  0.29981491  0.09449089  0.50618609  1
  Sc  Sc50  1  0.90574757  0.49925441  0.29666052  1
  Sc  Sc51  1  0.10297741  0.50632967  0.89414755  1
  Sc  Sc52  1  0.88953749  0.70187736  0.29419622  1
  Sc  Sc53  1  0.49854185  0.08823416  0.69686497  1
  Sc  Sc54  1  0.70585174  0.50591056  0.49733554  1
  Sc  Sc55  1  0.09817486  0.30364494  0.49372100  1
  Sc  Sc56  1  0.10299226  0.89711406  0.69319227  1
  Sc  Sc57  1  0.89834383  0.90232122  0.10189710  1
  Sc  Sc58  1  0.70277865  0.68929677  0.10303802  1
  Sc  Sc59  1  0.50395927  0.50348580  0.28703427  1
  Sc  Sc60  1  0.89116215  0.90208307  0.29707266  1
  Sc  Sc61  1  0.88850477  0.09866433  0.69960239  1
  Sc  Sc62  1  0.90451197  0.69834823  0.89992036  1
  Sc  Sc63  1  0.10486342  0.29151210  0.10310533  1
  Sc  Sc64  1  0.49015473  0.09231291  0.89752686  1
  Sc  Sc65  1  0.49451652  0.70085840  0.30346748  1
  Sc  Sc66  1  0.10412888  0.30130079  0.70839089  1
  Sc  Sc67  1  0.29033701  0.49499263  0.90030300  1
  Sc  Sc68  1  0.68688341  0.90139667  0.90204597  1
  Sc  Sc69  1  0.08636589  0.29599777  0.29852379  1
  Sc  Sc70  1  0.31420704  0.28872678  0.29145544  1
  Sc  Sc71  1  0.30680815  0.90101790  0.09315953  1
  Sc  Sc72  1  0.70028794  0.50185020  0.70414371  1
  Sc  Sc73  1  0.69223392  0.30348369  0.69040308  1
  Sc  Sc74  1  0.69694270  0.90054821  0.49124786  1
  Sc  Sc75  1  0.10594862  0.09488119  0.50817785  1
  Sc  Sc76  1  0.30044108  0.30034430  0.71227140  1
  Sc  Sc77  1  0.09786115  0.10028494  0.28633037  1
  Sc  Sc78  1  0.30211113  0.09772384  0.29590495  1
  Sc  Sc79  1  0.70834242  0.30017919  0.49878762  1
  Sc  Sc80  1  0.90222657  0.69760873  0.10178174  1
  Sc  Sc81  1  0.90698273  0.90046179  0.90739346  1
  Sc  Sc82  1  0.10470688  0.30474127  0.89335883  1
  Sc  Sc83  1  0.50586457  0.09526945  0.49912159  1
  Sc  Sc84  1  0.70061351  0.89839654  0.30198454  1
  Sc  Sc85  1  0.69782908  0.90659959  0.70880301  1
  Sc  Sc86  1  0.30055994  0.29812654  0.49952612  1
  Sc  Sc87  1  0.10507521  0.90108720  0.29383211  1
  Sc  Sc88  1  0.69382524  0.30394628  0.09586107  1
  Sc  Sc89  1  0.70118705  0.09331219  0.09592282  1
  Sc  Sc90  1  0.29916045  0.09154671  0.89708313  1
  Sc  Sc91  1  0.09152347  0.50737506  0.11218330  1
  Sc  Sc92  1  0.10411781  0.09597431  0.10039759  1
  Sc  Sc93  1  0.30790140  0.49285275  0.10081686  1
  Sc  Sc94  1  0.70290758  0.69649704  0.89453736  1
  Sc  Sc95  1  0.49580534  0.90197867  0.90853039  1
  Sc  Sc96  1  0.10574618  0.09555512  0.90226714  1
  Sc  Sc97  1  0.10145255  0.49780797  0.30328066  1
  Sc  Sc98  1  0.50967976  0.49586521  0.89808708  1
  Sc  Sc99  1  0.51172481  0.09300026  0.10063260  1
  Nb  Nb100  1  0.50723108  0.90335897  0.09460039  1
  Nb  Nb101  1  0.49869351  0.69544295  0.69345158  1
  Nb  Nb102  1  0.68971097  0.90243394  0.09543715  1
  Nb  Nb103  1  0.29993296  0.70383066  0.29354494  1
  Nb  Nb104  1  0.50516958  0.30039351  0.29584601  1
  Nb  Nb105  1  0.69942719  0.30032786  0.30177706  1
  Nb  Nb106  1  0.89056970  0.28446685  0.30217991  1
  Nb  Nb107  1  0.49508058  0.30178717  0.11007142  1
  Nb  Nb108  1  0.90136759  0.30027889  0.90102595  1
  Nb  Nb109  1  0.28778046  0.69731045  0.90020440  1
  Nb  Nb110  1  0.69334391  0.50047514  0.29325625  1
  Nb  Nb111  1  0.09489066  0.50005881  0.69588732  1
  Nb  Nb112  1  0.50749509  0.69803396  0.50823801  1
  Nb  Nb113  1  0.29758956  0.50010041  0.49668857  1
  Nb  Nb114  1  0.69886913  0.10259578  0.70441074  1
  Nb  Nb115  1  0.11255262  0.70230527  0.90166984  1
  Nb  Nb116  1  0.30214658  0.10511812  0.10243278  1
  Nb  Nb117  1  0.91103235  0.49958753  0.70577562  1
  Nb  Nb118  1  0.49907885  0.29804235  0.70250000  1
  Nb  Nb119  1  0.90078685  0.11135425  0.30015788  1
  Nb  Nb120  1  0.69887844  0.10511425  0.89199983  1
  Nb  Nb121  1  0.70062830  0.10616488  0.51929762  1
  Nb  Nb122  1  0.10219876  0.10018810  0.70059411  1
  Nb  Nb123  1  0.29713423  0.09967170  0.70094920  1
  Nb  Nb124  1  0.10495905  0.50185453  0.49623347  1
  Nb  Nb125  1  0.79413170  0.80249421  0.00438635  1
  Nb  Nb126  1  0.00138415  0.00514887  0.79618455  1
  Nb  Nb127  1  0.39824083  0.60441801  -0.00829340  1
  Nb  Nb128  1  0.00161030  0.19847031  0.60407892  1
  Nb  Nb129  1  0.19996737  0.59541223  0.59657938  1
  Nb  Nb130  1  -0.00431098  0.00069052  0.39837326  1
  Nb  Nb131  1  0.59898401  0.19719136  0.79752447  1
  Nb  Nb132  1  0.79701423  0.39422085  0.20931045  1
  Nb  Nb133  1  0.20109814  0.19762219  0.39795193  1
  Nb  Nb134  1  0.40083692  0.60547906  0.80332648  1
  Nb  Nb135  1  0.59858834  0.80421523  0.19401781  1
  Nb  Nb136  1  0.40671073  0.40014542  0.39910215  1
  Nb  Nb137  1  0.40736108  -0.00224741  0.19617742  1
  Nb  Nb138  1  -0.00399587  0.39627412  -0.00086092  1
  Nb  Nb139  1  0.40345663  0.20142254  0.00520707  1
  Nb  Nb140  1  -0.00374589  0.20354222  -0.00522643  1
  Nb  Nb141  1  -0.00008454  0.79973693  0.39898005  1
  Nb  Nb142  1  0.79847929  0.79838548  0.60321890  1
  Nb  Nb143  1  0.19920995  0.40898937  0.59607098  1
  Nb  Nb144  1  0.00364684  0.60517519  0.40432378  1
  Nb  Nb145  1  0.80845888  0.40096902  0.79961576  1
  Nb  Nb146  1  0.20397339  0.39647427  0.20459234  1
  Nb  Nb147  1  0.59581334  0.19985915  -0.00773385  1
  Nb  Nb148  1  0.39986324  0.19851358  0.60904594  1
  Nb  Nb149  1  0.59852538  0.40054132  0.39316462  1
  Pd  Pd150  1  0.20986615  0.79627038  0.59851476  1
  Pd  Pd151  1  0.00837664  0.39014460  0.59931381  1
  Pd  Pd152  1  0.20140094  0.19508596  0.80651053  1
  Pd  Pd153  1  0.40944413  0.59617992  0.39351101  1
  Pd  Pd154  1  -0.00466710  0.40513405  0.39545211  1
  Pd  Pd155  1  0.20362368  0.58940987  0.01061081  1
  Pd  Pd156  1  0.79764002  0.40829170  0.39231369  1
  Pd  Pd157  1  0.39170774  0.79562690  -0.00521913  1
  Pd  Pd158  1  0.60797035  0.20376116  0.40761290  1
  Pd  Pd159  1  0.60165018  -0.00734047  0.60179173  1
  Pd  Pd160  1  0.59584605  0.60666373  -0.00093875  1
  Pd  Pd161  1  0.40563456  0.40164846  -0.00614235  1
  Pd  Pd162  1  0.60753971  0.00792598  0.40083426  1
  Pd  Pd163  1  0.60727586  0.81087034  0.60067818  1
  Pd  Pd164  1  0.20271000  0.80903329  0.00727743  1
  Pd  Pd165  1  0.60764921  0.40783131  0.58991963  1
  Pd  Pd166  1  0.59056389  0.00069395  0.80292331  1
  Pd  Pd167  1  0.39679121  0.40893494  0.80485446  1
  Pd  Pd168  1  0.21053805  -0.00547533  0.19417279  1
  Pd  Pd169  1  0.40171310  0.59617484  0.19327677  1
  Pd  Pd170  1  0.78827145  0.80223192  0.19188051  1
  Pd  Pd171  1  0.20861252  0.38694205  0.39384287  1
  Pd  Pd172  1  0.00368806  0.59836296  -0.00505897  1
  Pd  Pd173  1  0.80752888  0.59018581  0.39242365  1
  Pd  Pd174  1  0.79455463  -0.00023602  0.20297226  1
  Pd  Pd175  1  0.19958241  0.21102406  0.59731882  1
  Pd  Pd176  1  0.19745404  0.81420987  0.18717140  1
  Pd  Pd177  1  0.78916954  -0.00918764  0.60200175  1
  Pd  Pd178  1  0.39838193  0.20181146  0.40863671  1
  Pd  Pd179  1  0.00532964  0.60732998  0.59752295  1
  Pd  Pd180  1  0.80533623  -0.00965027  0.80772219  1
  Pd  Pd181  1  -0.00376916  0.39172371  0.19757425  1
  Pd  Pd182  1  0.78957780  0.20180828  0.19056425  1
  Pd  Pd183  1  0.00621001  0.80570136  0.80731091  1
  Pd  Pd184  1  0.39361350  0.79501400  0.59218759  1
  Pd  Pd185  1  0.80369425  0.39876105  0.60980821  1
  Pd  Pd186  1  0.39287438  0.38890058  0.59632761  1
  Pd  Pd187  1  0.59504052  0.59839156  0.79913158  1
  Pd  Pd188  1  0.79666379  -0.00524791  -0.00794173  1
  Pd  Pd189  1  0.79783202  0.00882165  0.39835513  1
  Pd  Pd190  1  0.80725389  0.21094923  0.60704674  1
  Pd  Pd191  1  -0.00263429  0.80232401  0.20589342  1
  Pd  Pd192  1  0.79744370  0.80748322  0.80622946  1
  Pd  Pd193  1  0.79505094  0.60070187  0.60938337  1
  Pd  Pd194  1  0.19132655  0.00787705  0.39144545  1
  Pd  Pd195  1  0.18502194  0.40841306  0.01293524  1
  Pd  Pd196  1  -0.00798344  0.78820296  0.59878132  1
  Pd  Pd197  1  0.40265326  0.00627619  0.39250244  1
  Pd  Pd198  1  0.01106991  0.18740496  0.40818043  1
  Pd  Pd199  1  0.20127508  0.19428031  -0.00328298  1
  Rh  Rh200  1  -0.00771735  0.00035766  0.21046128  1
  Rh  Rh201  1  0.59467052  0.79496356  0.39564507  1
  Rh  Rh202  1  0.80743554  0.40351400  0.00393574  1
  Rh  Rh203  1  -0.00827282  0.01776741  -0.01330294  1
  Rh  Rh204  1  0.40044068  -0.00165640  0.79659928  1
  Rh  Rh205  1  0.41046276  0.18765144  0.19020390  1
  Rh  Rh206  1  0.60279447  0.01064083  -0.00963986  1
  Rh  Rh207  1  0.00687426  0.60079564  0.80644808  1
  Rh  Rh208  1  0.00148698  0.40883985  0.80965633  1
  Rh  Rh209  1  0.40821034  0.80948142  0.19896184  1
  Rh  Rh210  1  0.60188464  -0.00534326  0.20588747  1
  Rh  Rh211  1  -0.00674810  0.79252693  -0.00098895  1
  Rh  Rh212  1  0.19829595  0.20585234  0.20904650  1
  Rh  Rh213  1  0.60561067  0.59423683  0.60220386  1
  Rh  Rh214  1  0.39256747  0.61011138  0.60590406  1
  Rh  Rh215  1  0.19727361  0.79742694  0.39561960  1
  Rh  Rh216  1  0.79803116  0.59172659  0.79959904  1
  Rh  Rh217  1  0.20281484  0.59460561  0.79254505  1
  Rh  Rh218  1  0.39696257  0.01023505  0.00957943  1
  Rh  Rh219  1  0.00119947  0.01295824  0.60436202  1
  Rh  Rh220  1  0.20163303  -0.00422273  0.60487762  1
  Rh  Rh221  1  0.40263807  0.19238071  0.79659051  1
  Rh  Rh222  1  0.61222290  0.39132580  0.80201293  1
  Rh  Rh223  1  -0.00118341  0.19802154  0.19023130  1
  Rh  Rh224  1  0.60689697  0.39180974  0.20340492  1
  Rh  Rh225  1  0.78952964  0.19197935  0.40690450  1
  Rh  Rh226  1  0.39407980  0.40731841  0.21223635  1
  Rh  Rh227  1  0.40639948  0.79442851  0.40329692  1
  Rh  Rh228  1  0.19247322  -0.00274131  0.79369808  1
  Rh  Rh229  1  0.19575460  0.80983115  0.80114707  1
  Rh  Rh230  1  0.20373663  0.59092117  0.19520418  1
  Rh  Rh231  1  0.59365965  0.38875610  -0.00247219  1
  Rh  Rh232  1  0.60416141  0.20467796  0.18955469  1
  Rh  Rh233  1  0.20654283  0.00031308  0.00591173  1
  Rh  Rh234  1  0.79735277  0.19429986  0.00706657  1
  Rh  Rh235  1  0.19511477  0.60802731  0.40064873  1
  Rh  Rh236  1  0.00831921  0.18936037  0.80240645  1
  Rh  Rh237  1  0.61017737  0.79184813  0.00525662  1
  Rh  Rh238  1  0.59309618  0.59200717  0.40092552  1
  Rh  Rh239  1  0.79976710  0.59128710  0.20507925  1
  Rh  Rh240  1  0.78829527  0.21352112  0.78619797  1
  Rh  Rh241  1  0.40036408  0.00195204  0.59896894  1
  Rh  Rh242  1  0.59446966  0.61145725  0.19781873  1
  Rh  Rh243  1  0.79909321  0.61023962  -0.00227064  1
  Rh  Rh244  1  0.80100552  0.80038765  0.40526309  1
  Rh  Rh245  1  0.19857291  0.40732844  0.79103642  1
  Rh  Rh246  1  0.59204543  0.19131269  0.60900916  1
  Rh  Rh247  1  0.39804183  0.79667555  0.80657406  1
  Rh  Rh248  1  0.59778374  0.80357888  0.79790595  1
  Rh  Rh249  1  -0.00259552  0.60866608  0.21050210  1
