# generated using pymatgen
data_ZrScNbPdRh
_symmetry_space_group_name_H-M   'P 1'
_cell_length_a   16.54991674
_cell_length_b   16.55596603
_cell_length_c   16.55813561
_cell_angle_alpha   89.97641698
_cell_angle_beta   89.99073984
_cell_angle_gamma   89.96555788
_symmetry_Int_Tables_number   1
_chemical_formula_structural   ZrScNbPdRh
_chemical_formula_sum   'Zr50 Sc50 Nb50 Pd50 Rh50'
_cell_volume   4536.92556511
_cell_formula_units_Z   50
loop_
 _symmetry_equiv_pos_site_id
 _symmetry_equiv_pos_as_xyz
  1  'x, y, z'
loop_
 _atom_site_type_symbol
 _atom_site_label
 _atom_site_symmetry_multiplicity
 _atom_site_fract_x
 _atom_site_fract_y
 _atom_site_fract_z
 _atom_site_occupancy
  Zr  Zr0  1  0.50940881  0.50821448  0.30069303  1
  Zr  Zr1  1  0.29909671  0.10475546  0.90204551  1
  Zr  Zr2  1  0.89785300  0.70700654  0.10478663  1
  Zr  Zr3  1  0.90310186  0.30360065  0.09812711  1
  Zr  Zr4  1  0.70409988  0.49445777  0.70406791  1
  Zr  Zr5  1  0.49693263  0.10150698  0.49096367  1
  Zr  Zr6  1  0.69829212  0.51055284  0.50332794  1
  Zr  Zr7  1  0.29126544  0.50262330  0.89457394  1
  Zr  Zr8  1  0.09488842  0.89254903  0.30244781  1
  Zr  Zr9  1  0.90096062  0.29771507  0.90167225  1
  Zr  Zr10  1  0.09527897  0.69794009  0.89470968  1
  Zr  Zr11  1  0.30038407  0.50164685  0.50251405  1
  Zr  Zr12  1  0.29667251  0.30130616  0.70284645  1
  Zr  Zr13  1  0.49854221  0.70227252  0.30072353  1
  Zr  Zr14  1  0.29443096  0.70108778  0.30400177  1
  Zr  Zr15  1  0.28812363  0.10146101  0.10629165  1
  Zr  Zr16  1  0.69707724  0.30356976  0.89444890  1
  Zr  Zr17  1  0.68899477  0.89474051  0.69853306  1
  Zr  Zr18  1  0.70302966  0.29929611  0.09433882  1
  Zr  Zr19  1  0.69774725  0.10304773  0.90071298  1
  Zr  Zr20  1  0.29197246  0.89844857  0.89980333  1
  Zr  Zr21  1  0.90113142  0.49939173  0.51405573  1
  Zr  Zr22  1  0.49997307  0.10103072  0.90069976  1
  Zr  Zr23  1  0.31126035  0.10082179  0.30286259  1
  Zr  Zr24  1  0.70043773  0.69383171  0.89404017  1
  Zr  Zr25  1  0.29717241  0.30349776  0.49859535  1
  Zr  Zr26  1  0.89728017  0.50992943  0.89621648  1
  Zr  Zr27  1  0.69665473  0.89404251  0.89269013  1
  Zr  Zr28  1  0.70119341  0.10666991  0.09996681  1
  Zr  Zr29  1  0.50810531  0.90528980  0.51350945  1
  Zr  Zr30  1  0.09777775  0.30010634  0.09816016  1
  Zr  Zr31  1  0.29737019  0.50453225  0.70047520  1
  Zr  Zr32  1  0.90818212  0.09703805  0.48792077  1
  Zr  Zr33  1  0.89816664  0.90203686  0.49647213  1
  Zr  Zr34  1  0.70630583  0.69018311  0.29974198  1
  Zr  Zr35  1  0.50568491  0.49875394  0.90324022  1
  Zr  Zr36  1  0.90309035  0.89782620  0.89556423  1
  Zr  Zr37  1  0.49904654  0.69917058  0.09751882  1
  Zr  Zr38  1  0.10570692  0.89422366  0.71179948  1
  Zr  Zr39  1  0.29721542  0.70575357  0.70095649  1
  Zr  Zr40  1  0.49761957  0.30202943  0.08957068  1
  Zr  Zr41  1  0.51338465  0.09905236  0.30533755  1
  Zr  Zr42  1  0.90537263  0.30164757  0.49968137  1
  Zr  Zr43  1  0.70696513  0.29544871  0.28890607  1
  Zr  Zr44  1  0.49920456  0.69920450  0.90754318  1
  Zr  Zr45  1  0.50487141  0.29970950  0.50022476  1
  Zr  Zr46  1  0.29749933  0.89829362  0.29913420  1
  Zr  Zr47  1  0.50402519  0.68975481  0.50113421  1
  Zr  Zr48  1  0.29922835  0.29490531  0.90112747  1
  Zr  Zr49  1  0.49800695  0.30133894  0.90105464  1
  Sc  Sc50  1  0.90068580  0.10031774  0.69986986  1
  Sc  Sc51  1  0.49655993  0.29050033  0.29908262  1
  Sc  Sc52  1  0.09781938  0.91469030  0.10662134  1
  Sc  Sc53  1  0.49808024  0.08622212  0.69738121  1
  Sc  Sc54  1  0.50103292  0.89084192  0.09617793  1
  Sc  Sc55  1  0.91115773  0.50034432  0.09807566  1
  Sc  Sc56  1  0.89433312  0.90274857  0.70153728  1
  Sc  Sc57  1  0.10281299  0.29897275  0.70240125  1
  Sc  Sc58  1  0.30338693  0.70401380  0.49897224  1
  Sc  Sc59  1  0.70409887  0.70312017  0.50726322  1
  Sc  Sc60  1  0.70062951  0.09899554  0.48661176  1
  Sc  Sc61  1  0.10061342  0.68791961  0.09989449  1
  Sc  Sc62  1  0.70197393  0.70040860  0.10246904  1
  Sc  Sc63  1  0.50689885  0.09813605  0.10020109  1
  Sc  Sc64  1  0.28899274  0.49349040  0.29651439  1
  Sc  Sc65  1  0.10098945  0.09578976  0.90124986  1
  Sc  Sc66  1  0.29687585  0.69735965  0.09109829  1
  Sc  Sc67  1  0.70960761  0.89660329  0.50375705  1
  Sc  Sc68  1  0.89471043  0.69774487  0.90262912  1
  Sc  Sc69  1  0.69327172  0.49912170  0.11242041  1
  Sc  Sc70  1  0.10485759  0.30704398  0.29939223  1
  Sc  Sc71  1  0.30811722  0.89345481  0.50287887  1
  Sc  Sc72  1  0.29961308  0.29817950  0.29263316  1
  Sc  Sc73  1  0.89767696  0.69865919  0.49549631  1
  Sc  Sc74  1  0.50026082  0.50362361  0.50772400  1
  Sc  Sc75  1  0.89845582  0.10457874  0.89324867  1
  Sc  Sc76  1  0.29314545  0.50501784  0.09908866  1
  Sc  Sc77  1  0.29530279  0.89899207  0.10054867  1
  Sc  Sc78  1  0.29936603  0.09859974  0.71061714  1
  Sc  Sc79  1  0.69966043  0.29638633  0.51190271  1
  Sc  Sc80  1  0.50169595  0.50210835  0.68973711  1
  Sc  Sc81  1  0.09806963  0.49733545  0.09664606  1
  Sc  Sc82  1  0.49794491  0.90308624  0.29421013  1
  Sc  Sc83  1  0.10439698  0.30244150  0.90138723  1
  Sc  Sc84  1  0.70813248  0.89700322  0.30391742  1
  Sc  Sc85  1  0.09284540  0.89955459  0.49589190  1
  Sc  Sc86  1  0.10444085  0.10112744  0.70672319  1
  Sc  Sc87  1  0.49876767  0.49897153  0.09691116  1
  Sc  Sc88  1  0.90257521  0.29914600  0.29857384  1
  Sc  Sc89  1  0.88807553  0.30028757  0.69400413  1
  Sc  Sc90  1  0.50571226  0.89736713  0.89769701  1
  Sc  Sc91  1  0.50028519  0.70283465  0.70098604  1
  Sc  Sc92  1  0.30316366  0.69590336  0.90397670  1
  Sc  Sc93  1  0.90332946  0.89021834  0.30029913  1
  Sc  Sc94  1  0.29773037  0.29400319  0.10000517  1
  Sc  Sc95  1  0.90034661  0.69360318  0.71375332  1
  Sc  Sc96  1  0.90612516  0.10236611  0.09164113  1
  Sc  Sc97  1  0.09593187  0.09441197  0.30082814  1
  Sc  Sc98  1  0.69854576  0.88961385  0.10100551  1
  Sc  Sc99  1  0.70615517  0.10049639  0.70097725  1
  Nb  Nb100  1  0.09080214  0.70021369  0.30543064  1
  Nb  Nb101  1  0.09850630  0.70111710  0.69941821  1
  Nb  Nb102  1  0.49855416  0.90066860  0.69954384  1
  Nb  Nb103  1  0.70268050  0.49741669  0.30220322  1
  Nb  Nb104  1  0.89870558  0.89990194  0.10209221  1
  Nb  Nb105  1  0.90500300  0.49555519  0.69822175  1
  Nb  Nb106  1  0.70892309  0.10113936  0.29356412  1
  Nb  Nb107  1  0.09523045  0.50487072  0.29986919  1
  Nb  Nb108  1  0.09485729  0.50569882  0.70081893  1
  Nb  Nb109  1  0.89402336  0.10453533  0.30364485  1
  Nb  Nb110  1  0.69163471  0.30084960  0.69957187  1
  Nb  Nb111  1  0.30338159  0.90245844  0.69781742  1
  Nb  Nb112  1  0.69852019  0.49602120  0.89876137  1
  Nb  Nb113  1  0.10365557  0.10456624  0.10835750  1
  Nb  Nb114  1  0.09939710  0.09903638  0.49850007  1
  Nb  Nb115  1  0.69730033  0.70418090  0.70473933  1
  Nb  Nb116  1  0.09721382  0.89684988  0.90198878  1
  Nb  Nb117  1  0.09867227  0.50112009  0.89636573  1
  Nb  Nb118  1  0.50334604  0.30798952  0.69086261  1
  Nb  Nb119  1  0.09610149  0.70173994  0.49582031  1
  Nb  Nb120  1  0.09357675  0.49973894  0.50246369  1
  Nb  Nb121  1  0.90766203  0.70062711  0.29790475  1
  Nb  Nb122  1  0.10024693  0.30165026  0.49708403  1
  Nb  Nb123  1  0.30199453  0.09987225  0.50385667  1
  Nb  Nb124  1  0.90401469  0.50411207  0.30295823  1
  Nb  Nb125  1  0.00114040  0.80748650  0.00093156  1
  Nb  Nb126  1  0.80431857  0.00344230  0.19797554  1
  Nb  Nb127  1  0.19205659  0.79454969  0.20494370  1
  Nb  Nb128  1  0.18587502  0.59813217  0.40339034  1
  Nb  Nb129  1  0.80021339  0.40734005  0.39766468  1
  Nb  Nb130  1  0.20349961  -0.00061597  0.59775796  1
  Nb  Nb131  1  0.59658705  0.20707298  0.79215950  1
  Nb  Nb132  1  0.39942833  0.19979906  0.59796843  1
  Nb  Nb133  1  0.00158608  0.40903946  0.40149428  1
  Nb  Nb134  1  0.19843431  0.19444697  0.40689578  1
  Nb  Nb135  1  0.20304448  0.00354873  0.40663083  1
  Nb  Nb136  1  0.00434784  0.79575971  0.60484582  1
  Nb  Nb137  1  0.39918447  0.60254485  0.20266054  1
  Nb  Nb138  1  0.00697739  0.19816920  0.59084304  1
  Nb  Nb139  1  0.19003825  0.40772713  0.59793900  1
  Nb  Nb140  1  0.60564938  0.40125781  0.39657832  1
  Nb  Nb141  1  0.40545818  0.40102807  0.40047233  1
  Nb  Nb142  1  0.00196445  0.19714334  0.20024640  1
  Nb  Nb143  1  0.80164829  -0.00558966  0.00260592  1
  Nb  Nb144  1  0.79703047  0.40543557  -0.00540042  1
  Nb  Nb145  1  0.00037564  0.40834449  0.79501722  1
  Nb  Nb146  1  0.59972616  0.79677312  0.40294046  1
  Nb  Nb147  1  0.18777663  0.60411045  0.59812406  1
  Nb  Nb148  1  0.40180447  0.39916770  0.79755983  1
  Nb  Nb149  1  0.39588314  0.00155916  -0.00194589  1
  Pd  Pd150  1  0.00735714  0.19441971  0.00006590  1
  Pd  Pd151  1  0.80775782  0.39781872  0.80117204  1
  Pd  Pd152  1  -0.00064762  0.20849312  0.79080532  1
  Pd  Pd153  1  0.39915797  -0.00881312  0.40295019  1
  Pd  Pd154  1  0.59191367  0.39236159  0.20385798  1
  Pd  Pd155  1  0.79510384  0.20980959  0.40478670  1
  Pd  Pd156  1  0.40228398  0.80416177  0.80453602  1
  Pd  Pd157  1  0.60635644  0.79969519  0.20899011  1
  Pd  Pd158  1  0.79678166  -0.00066056  0.80325071  1
  Pd  Pd159  1  0.80994492  0.40816917  0.19722604  1
  Pd  Pd160  1  0.00859604  -0.00243162  0.60871973  1
  Pd  Pd161  1  0.20269741  0.40087837  0.00389337  1
  Pd  Pd162  1  0.80657028  0.59940887  0.40117785  1
  Pd  Pd163  1  0.60972487  -0.00773046  0.19927108  1
  Pd  Pd164  1  0.79762383  0.00723192  0.59613587  1
  Pd  Pd165  1  0.19925155  0.19855918  0.59974838  1
  Pd  Pd166  1  0.40730866  0.59452340  0.79823294  1
  Pd  Pd167  1  0.41241299  0.80884258  0.40583421  1
  Pd  Pd168  1  0.38823534  0.40733845  -0.00458441  1
  Pd  Pd169  1  0.81126787  0.79433698  0.60960205  1
  Pd  Pd170  1  0.59598884  0.59847565  0.79398292  1
  Pd  Pd171  1  -0.00263777  0.00039983  -0.00216125  1
  Pd  Pd172  1  0.18735792  0.79954707  0.01003902  1
  Pd  Pd173  1  0.79992949  0.60804383  0.61149853  1
  Pd  Pd174  1  0.80685059  0.59395587  0.19566160  1
  Pd  Pd175  1  0.80187943  0.80357820  -0.00308876  1
  Pd  Pd176  1  0.38948329  0.59088458  0.39308971  1
  Pd  Pd177  1  -0.01037834  0.00736195  0.20652923  1
  Pd  Pd178  1  0.20372161  0.79413338  0.80599922  1
  Pd  Pd179  1  0.41050850  0.20483133  0.78652353  1
  Pd  Pd180  1  0.40727712  0.19388962  0.19425310  1
  Pd  Pd181  1  0.79481095  0.59156683  0.01071270  1
  Pd  Pd182  1  0.60145512  -0.00695303  0.00420250  1
  Pd  Pd183  1  0.38882965  0.79382861  0.19198940  1
  Pd  Pd184  1  0.60867607  0.59795479  0.00626697  1
  Pd  Pd185  1  0.60921280  -0.01113109  0.39842327  1
  Pd  Pd186  1  -0.00068663  0.60096681  0.19611545  1
  Pd  Pd187  1  -0.00195534  0.61110650  0.60244294  1
  Pd  Pd188  1  0.39954010  -0.00855303  0.80683038  1
  Pd  Pd189  1  0.19352356  0.80427595  0.59186023  1
  Pd  Pd190  1  0.59406027  0.18772451  0.60558599  1
  Pd  Pd191  1  0.19590153  0.40123297  0.19325425  1
  Pd  Pd192  1  0.80676858  0.19114361  0.59480642  1
  Pd  Pd193  1  0.00146554  0.00194906  0.79677447  1
  Pd  Pd194  1  0.40402906  0.00077914  0.18939717  1
  Pd  Pd195  1  0.59502452  0.20514924  0.19743285  1
  Pd  Pd196  1  0.40733404  0.79677176  0.60103387  1
  Pd  Pd197  1  0.19929594  0.00137716  0.00074517  1
  Pd  Pd198  1  0.40245103  0.40835575  0.20497626  1
  Pd  Pd199  1  0.61102630  0.00959915  0.59850635  1
  Rh  Rh200  1  0.60666713  0.60260443  0.40132851  1
  Rh  Rh201  1  0.19104690  0.19991528  0.21200356  1
  Rh  Rh202  1  0.79428582  0.59807446  0.79370558  1
  Rh  Rh203  1  0.00046182  -0.00351723  0.39238343  1
  Rh  Rh204  1  0.59520711  0.60502281  0.19623947  1
  Rh  Rh205  1  0.00717813  0.79464700  0.18949939  1
  Rh  Rh206  1  0.80193400  0.20101526  -0.00189444  1
  Rh  Rh207  1  -0.00306307  0.80048683  0.80132444  1
  Rh  Rh208  1  0.60794758  0.40686277  0.59238295  1
  Rh  Rh209  1  0.79250783  0.40076634  0.59804413  1
  Rh  Rh210  1  0.20155190  0.60534413  0.21030363  1
  Rh  Rh211  1  0.39669285  0.59588105  0.00628898  1
  Rh  Rh212  1  0.19871617  0.40264568  0.40397576  1
  Rh  Rh213  1  0.59282324  0.79628207  0.79857289  1
  Rh  Rh214  1  0.39805860  0.80862166  -0.00402487  1
  Rh  Rh215  1  0.80114004  0.80256210  0.20598338  1
  Rh  Rh216  1  0.39254376  0.61012643  0.60386176  1
  Rh  Rh217  1  -0.00521827  0.40788711  -0.01559682  1
  Rh  Rh218  1  -0.00899659  0.79818411  0.40869371  1
  Rh  Rh219  1  0.19413325  0.19895788  0.80784684  1
  Rh  Rh220  1  0.79806380  0.79191275  0.39551792  1
  Rh  Rh221  1  0.60935172  0.40374235  0.00461074  1
  Rh  Rh222  1  0.19619304  0.40200061  0.79499401  1
  Rh  Rh223  1  0.39126168  0.39357384  0.60123261  1
  Rh  Rh224  1  0.79240686  0.20274316  0.79618212  1
  Rh  Rh225  1  0.59876312  0.20338102  -0.00590351  1
  Rh  Rh226  1  0.19710311  0.80028193  0.39866362  1
  Rh  Rh227  1  0.00665034  0.38825114  0.60622547  1
  Rh  Rh228  1  0.00882132  0.20759072  0.39475182  1
  Rh  Rh229  1  0.81361914  0.19229628  0.19149371  1
  Rh  Rh230  1  0.59750256  0.79558077  0.59746929  1
  Rh  Rh231  1  0.19973746  -0.00168287  0.79802995  1
  Rh  Rh232  1  0.60449540  0.79316814  -0.00370475  1
  Rh  Rh233  1  0.79901291  0.79851544  0.79590058  1
  Rh  Rh234  1  0.60682762  0.60439696  0.61024785  1
  Rh  Rh235  1  0.39792001  0.18878106  0.01171405  1
  Rh  Rh236  1  0.39170953  0.00375864  0.60474685  1
  Rh  Rh237  1  0.00126982  0.59689246  0.80146979  1
  Rh  Rh238  1  0.39209721  0.20853260  0.40438938  1
  Rh  Rh239  1  0.59037491  0.40018982  0.79647862  1
  Rh  Rh240  1  0.80330160  -0.00240286  0.39129840  1
  Rh  Rh241  1  0.00105980  0.60609065  -0.00188812  1
  Rh  Rh242  1  0.00093056  0.39598250  0.20882808  1
  Rh  Rh243  1  0.19373666  0.19915066  -0.00112005  1
  Rh  Rh244  1  0.19540740  0.59672414  -0.00784808  1
  Rh  Rh245  1  0.61212488  0.20754800  0.39260247  1
  Rh  Rh246  1  0.19636550  0.60752482  0.79726566  1
  Rh  Rh247  1  0.60150464  0.00482045  0.79542199  1
  Rh  Rh248  1  -0.00274053  0.59742644  0.40050205  1
  Rh  Rh249  1  0.19967091  -0.00447509  0.21123097  1
