# generated using pymatgen
data_ZrScNbPdRh
_symmetry_space_group_name_H-M   'P 1'
_cell_length_a   16.57086758
_cell_length_b   16.56233369
_cell_length_c   16.56514001
_cell_angle_alpha   89.99491532
_cell_angle_beta   89.94629123
_cell_angle_gamma   89.95583150
_symmetry_Int_Tables_number   1
_chemical_formula_structural   ZrScNbPdRh
_chemical_formula_sum   'Zr50 Sc50 Nb50 Pd50 Rh50'
_cell_volume   4546.33638958
_cell_formula_units_Z   50
loop_
 _symmetry_equiv_pos_site_id
 _symmetry_equiv_pos_as_xyz
  1  'x, y, z'
loop_
 _atom_site_type_symbol
 _atom_site_label
 _atom_site_symmetry_multiplicity
 _atom_site_fract_x
 _atom_site_fract_y
 _atom_site_fract_z
 _atom_site_occupancy
  Zr  Zr0  1  0.29712391  0.50719545  0.30452380  1
  Zr  Zr1  1  0.08962501  0.09516220  0.49758495  1
  Zr  Zr2  1  0.30493515  0.89171895  0.49262055  1
  Zr  Zr3  1  0.70788744  0.50283022  0.29928911  1
  Zr  Zr4  1  0.10863974  0.49750523  0.90759512  1
  Zr  Zr5  1  0.30191968  0.70448349  0.69914496  1
  Zr  Zr6  1  0.69867090  0.09775879  0.29813614  1
  Zr  Zr7  1  0.09741376  0.91426587  0.89258308  1
  Zr  Zr8  1  0.90503509  0.89757613  0.89697155  1
  Zr  Zr9  1  0.10734951  0.89683899  0.29852034  1
  Zr  Zr10  1  0.29180175  0.90024508  0.69969488  1
  Zr  Zr11  1  0.09884569  0.69798513  0.11502773  1
  Zr  Zr12  1  0.50335386  0.50018693  0.10230406  1
  Zr  Zr13  1  0.69898990  0.89781918  0.09679401  1
  Zr  Zr14  1  0.49553798  0.50075864  0.89606356  1
  Zr  Zr15  1  0.71032755  0.30923720  0.09617907  1
  Zr  Zr16  1  0.50844537  0.09864228  0.70288170  1
  Zr  Zr17  1  0.70226416  0.29412197  0.89917087  1
  Zr  Zr18  1  0.09255231  0.90226072  0.51235650  1
  Zr  Zr19  1  0.50541435  0.11278831  0.50432209  1
  Zr  Zr20  1  0.50890570  0.70911470  0.09646751  1
  Zr  Zr21  1  0.29217648  0.70105532  0.09947954  1
  Zr  Zr22  1  0.29233510  0.89902956  0.90032405  1
  Zr  Zr23  1  0.69879146  0.30254774  0.29278956  1
  Zr  Zr24  1  0.70683310  0.09542930  0.51072318  1
  Zr  Zr25  1  0.89953313  0.69957597  0.89918310  1
  Zr  Zr26  1  0.90394528  0.09074033  0.30067634  1
  Zr  Zr27  1  0.90123284  0.69704653  0.50307708  1
  Zr  Zr28  1  0.09677318  0.51240807  0.50304181  1
  Zr  Zr29  1  0.90392194  0.70570168  0.10614873  1
  Zr  Zr30  1  0.49736862  0.29796860  0.10038446  1
  Zr  Zr31  1  0.89827791  0.70013684  0.30154017  1
  Zr  Zr32  1  0.70832357  0.49752972  0.90602743  1
  Zr  Zr33  1  0.29215202  0.09390935  0.29660154  1
  Zr  Zr34  1  0.30080946  0.50528030  0.89915215  1
  Zr  Zr35  1  0.50008367  0.70051795  0.29631647  1
  Zr  Zr36  1  0.29302437  0.71179760  0.30217726  1
  Zr  Zr37  1  0.70530982  0.69848452  0.90775737  1
  Zr  Zr38  1  0.30139853  0.70839013  0.89647042  1
  Zr  Zr39  1  0.50588374  0.49570740  0.30137012  1
  Zr  Zr40  1  0.50583346  0.10427237  0.89404918  1
  Zr  Zr41  1  0.49017877  0.28390580  0.69900141  1
  Zr  Zr42  1  0.90198985  0.08853633  0.49716437  1
  Zr  Zr43  1  0.50218889  0.89402060  0.50194744  1
  Zr  Zr44  1  0.49987618  0.49818439  0.49312321  1
  Zr  Zr45  1  0.10267708  0.50060222  0.11024351  1
  Zr  Zr46  1  0.90228335  0.91120877  0.09858624  1
  Zr  Zr47  1  0.29001670  0.69645377  0.49640357  1
  Zr  Zr48  1  0.10002507  0.10256352  0.30734315  1
  Zr  Zr49  1  0.29597545  0.90358020  0.10098547  1
  Sc  Sc50  1  0.71255990  0.89373561  0.50825623  1
  Sc  Sc51  1  0.71230226  0.48895465  0.69922799  1
  Sc  Sc52  1  0.69859569  0.29426179  0.49889380  1
  Sc  Sc53  1  0.69646597  0.09457169  0.09258027  1
  Sc  Sc54  1  0.89923667  0.29806854  0.89799719  1
  Sc  Sc55  1  0.30081506  0.10285993  0.10239865  1
  Sc  Sc56  1  0.70537549  0.90039137  0.69877746  1
  Sc  Sc57  1  0.70338912  0.70033993  0.50524340  1
  Sc  Sc58  1  0.70423980  0.90969071  0.89091761  1
  Sc  Sc59  1  0.29717285  0.10309831  0.48826109  1
  Sc  Sc60  1  0.09999992  0.29835265  0.71906918  1
  Sc  Sc61  1  0.50083785  0.90044215  0.09985558  1
  Sc  Sc62  1  0.89918915  0.09540299  0.90259719  1
  Sc  Sc63  1  0.49732675  0.09948557  0.09540898  1
  Sc  Sc64  1  0.29599316  0.29462420  0.49619667  1
  Sc  Sc65  1  0.50534017  0.89415274  0.69503888  1
  Sc  Sc66  1  0.50131595  0.69766977  0.50523072  1
  Sc  Sc67  1  0.48801946  0.89596166  0.29778540  1
  Sc  Sc68  1  0.30035735  0.90011442  0.29870086  1
  Sc  Sc69  1  0.29649090  0.29568514  0.70398047  1
  Sc  Sc70  1  0.89630655  0.89841155  0.29803636  1
  Sc  Sc71  1  0.89528214  0.29932183  0.49657488  1
  Sc  Sc72  1  0.89453533  0.49562544  0.10772028  1
  Sc  Sc73  1  0.09406147  0.10236255  0.09843920  1
  Sc  Sc74  1  0.29163179  0.28916748  0.29931809  1
  Sc  Sc75  1  0.71701351  0.29370766  0.69846173  1
  Sc  Sc76  1  0.50005422  0.10427166  0.29686302  1
  Sc  Sc77  1  0.70413832  0.50056606  0.49757376  1
  Sc  Sc78  1  0.70528138  0.49906796  0.10363347  1
  Sc  Sc79  1  0.09406570  0.29615842  0.49127723  1
  Sc  Sc80  1  0.90734170  0.31018278  0.30079989  1
  Sc  Sc81  1  0.09309596  0.30197054  0.29458519  1
  Sc  Sc82  1  0.49963463  0.89639509  0.90491226  1
  Sc  Sc83  1  0.29584976  0.10466277  0.90666412  1
  Sc  Sc84  1  0.09463840  0.71227230  0.89488079  1
  Sc  Sc85  1  0.50694931  0.29858163  0.30627772  1
  Sc  Sc86  1  0.48876350  0.29109003  0.89894334  1
  Sc  Sc87  1  0.49717211  0.69913712  0.69181047  1
  Sc  Sc88  1  0.09707671  0.90156811  0.09650106  1
  Sc  Sc89  1  0.89812106  0.89884775  0.70053855  1
  Sc  Sc90  1  0.89689591  0.50077769  0.89554930  1
  Sc  Sc91  1  0.29545941  0.49864794  0.69711409  1
  Sc  Sc92  1  0.70197046  0.69759821  0.10624643  1
  Sc  Sc93  1  0.10085312  0.50116911  0.69972129  1
  Sc  Sc94  1  0.29356124  0.50225102  0.50080283  1
  Sc  Sc95  1  0.71284195  0.90274598  0.29478380  1
  Sc  Sc96  1  0.29492692  0.29920535  0.90246382  1
  Sc  Sc97  1  0.49048276  0.50760997  0.69927729  1
  Sc  Sc98  1  0.90583109  0.70171879  0.71013160  1
  Sc  Sc99  1  0.28456269  0.50016182  0.09233426  1
  Nb  Nb100  1  0.09609865  0.69816950  0.50316216  1
  Nb  Nb101  1  0.90136248  0.49138666  0.69723147  1
  Nb  Nb102  1  0.90627222  0.50079682  0.31257068  1
  Nb  Nb103  1  0.90039245  0.10079330  0.10154185  1
  Nb  Nb104  1  0.29814934  0.30298057  0.10074714  1
  Nb  Nb105  1  0.90281304  0.50029927  0.49876128  1
  Nb  Nb106  1  0.10022730  0.09277762  0.69928109  1
  Nb  Nb107  1  0.70858540  0.70655207  0.30600762  1
  Nb  Nb108  1  0.09820391  0.69861040  0.30320826  1
  Nb  Nb109  1  0.09909906  0.70257010  0.69174165  1
  Nb  Nb110  1  0.89080568  0.10553363  0.69259309  1
  Nb  Nb111  1  0.70327774  0.09311654  0.71009850  1
  Nb  Nb112  1  0.09735564  0.30696546  0.09958813  1
  Nb  Nb113  1  0.90271826  0.29878604  0.09952214  1
  Nb  Nb114  1  0.30312631  0.10356036  0.69698647  1
  Nb  Nb115  1  0.70406560  0.70228478  0.69989392  1
  Nb  Nb116  1  0.50060485  0.29829832  0.50208465  1
  Nb  Nb117  1  0.50362805  0.69765755  0.89858731  1
  Nb  Nb118  1  0.89835928  0.89910677  0.49804483  1
  Nb  Nb119  1  0.89953867  0.30723301  0.69524341  1
  Nb  Nb120  1  0.10025057  0.90636563  0.70165500  1
  Nb  Nb121  1  0.09965788  0.29234396  0.90570572  1
  Nb  Nb122  1  0.69303480  0.09991020  0.88058887  1
  Nb  Nb123  1  0.09805095  0.11483685  0.89023423  1
  Nb  Nb124  1  0.08985369  0.50322512  0.30001305  1
  Nb  Nb125  1  0.80985011  0.59592636  0.60412184  1
  Nb  Nb126  1  0.39471476  0.40184334  0.20012828  1
  Nb  Nb127  1  0.60171321  -0.00510273  0.40341541  1
  Nb  Nb128  1  -0.00340615  0.39729939  0.60137433  1
  Nb  Nb129  1  0.39746511  0.00190547  0.79462707  1
  Nb  Nb130  1  0.19896298  0.60890434  0.79805376  1
  Nb  Nb131  1  0.80082976  0.19380156  0.39178794  1
  Nb  Nb132  1  -0.00166572  0.19987220  0.60836071  1
  Nb  Nb133  1  0.00428386  0.39596273  0.00380809  1
  Nb  Nb134  1  0.18954455  0.19146100  0.60508513  1
  Nb  Nb135  1  0.59207269  0.39559731  0.60385864  1
  Nb  Nb136  1  0.40523351  0.39285947  0.59316107  1
  Nb  Nb137  1  0.80849821  0.19863816  0.19620376  1
  Nb  Nb138  1  0.59784478  0.39844077  0.79784928  1
  Nb  Nb139  1  0.60485842  0.60027784  0.79949142  1
  Nb  Nb140  1  0.39810731  0.59884848  0.19468255  1
  Nb  Nb141  1  0.60659135  0.80201587  0.39722923  1
  Nb  Nb142  1  0.19170067  0.40638430  0.39642887  1
  Nb  Nb143  1  0.60406328  0.78880186  0.80130219  1
  Nb  Nb144  1  0.40252702  0.60594082  0.00188182  1
  Nb  Nb145  1  0.39844927  0.00520102  0.60153587  1
  Nb  Nb146  1  0.00261118  0.79583153  0.40536909  1
  Nb  Nb147  1  0.00313661  0.59624849  0.00405455  1
  Nb  Nb148  1  0.80420217  0.80433904  0.00021591  1
  Nb  Nb149  1  0.59741702  0.39889557  -0.00590771  1
  Pd  Pd150  1  0.40252022  0.00093609  0.19783804  1
  Pd  Pd151  1  0.20371503  0.39804383  0.20962952  1
  Pd  Pd152  1  -0.00667338  0.80140624  0.60412854  1
  Pd  Pd153  1  0.79770940  0.59777016  0.79143624  1
  Pd  Pd154  1  0.79593812  0.00278693  -0.00590543  1
  Pd  Pd155  1  0.00040618  0.40239343  0.80515143  1
  Pd  Pd156  1  0.19382718  0.38605210  0.59205420  1
  Pd  Pd157  1  0.20879916  0.00576708  0.59070066  1
  Pd  Pd158  1  0.60027717  -0.00542822  0.59815670  1
  Pd  Pd159  1  0.60881233  0.60969762  0.39947924  1
  Pd  Pd160  1  0.00851313  0.59439765  0.80264015  1
  Pd  Pd161  1  0.59866704  0.59335959  -0.00247182  1
  Pd  Pd162  1  0.80916203  0.19846616  0.80266567  1
  Pd  Pd163  1  0.79644027  0.39386535  0.40159767  1
  Pd  Pd164  1  0.00709067  -0.00278461  0.20255845  1
  Pd  Pd165  1  0.41045365  0.80726258  0.79651375  1
  Pd  Pd166  1  -0.00925925  0.19673441  0.79460325  1
  Pd  Pd167  1  0.20201026  0.40276663  0.80259992  1
  Pd  Pd168  1  0.20085433  0.20159075  0.00880987  1
  Pd  Pd169  1  0.19177055  0.01017016  0.00033680  1
  Pd  Pd170  1  -0.00240115  0.20143779  -0.00052673  1
  Pd  Pd171  1  0.60408334  0.60246483  0.20425827  1
  Pd  Pd172  1  0.59954745  -0.00182523  -0.00915721  1
  Pd  Pd173  1  0.38890316  0.39122832  0.39780110  1
  Pd  Pd174  1  0.80457728  0.59885494  0.20246054  1
  Pd  Pd175  1  0.60701925  0.20072557  0.19019440  1
  Pd  Pd176  1  0.18747177  0.79995715  0.00138148  1
  Pd  Pd177  1  0.40037248  0.20063616  0.39300813  1
  Pd  Pd178  1  0.61162846  0.58943582  0.60924990  1
  Pd  Pd179  1  0.40118397  0.00329925  -0.00711064  1
  Pd  Pd180  1  0.40067749  0.60716784  0.39724483  1
  Pd  Pd181  1  0.59378049  -0.00661006  0.20735823  1
  Pd  Pd182  1  -0.00916849  0.00786535  0.79389143  1
  Pd  Pd183  1  0.60660439  0.80662564  0.20994869  1
  Pd  Pd184  1  0.39951073  0.39640246  0.78929773  1
  Pd  Pd185  1  0.00165993  0.79780766  0.00247196  1
  Pd  Pd186  1  0.40979905  0.00672837  0.40450932  1
  Pd  Pd187  1  0.60971128  0.39676726  0.40720111  1
  Pd  Pd188  1  0.39957014  0.20453882  0.20349400  1
  Pd  Pd189  1  0.19864134  0.80024786  0.59814993  1
  Pd  Pd190  1  0.79974324  0.19019600  0.00145080  1
  Pd  Pd191  1  0.19182426  0.19840821  0.19369570  1
  Pd  Pd192  1  -0.00286146  0.20078381  0.20219168  1
  Pd  Pd193  1  0.19788844  -0.00704271  0.40722300  1
  Pd  Pd194  1  0.61289570  0.20639228  0.60947452  1
  Pd  Pd195  1  0.39866549  0.40403867  0.00648248  1
  Pd  Pd196  1  0.40058770  0.79966940  0.00398384  1
  Pd  Pd197  1  0.39295635  0.59356581  0.59530765  1
  Pd  Pd198  1  0.20627835  0.01188540  0.80300665  1
  Pd  Pd199  1  0.60185103  0.20361280  0.00187857  1
  Rh  Rh200  1  0.00076750  0.60660246  0.39701775  1
  Rh  Rh201  1  0.61109337  0.80662739  -0.00945074  1
  Rh  Rh202  1  0.80659909  0.19988190  0.59195287  1
  Rh  Rh203  1  0.19105822  0.20496576  0.40184753  1
  Rh  Rh204  1  0.80743099  0.00307081  0.79741946  1
  Rh  Rh205  1  0.60777750  0.21142453  0.79151391  1
  Rh  Rh206  1  0.40990931  0.78992318  0.40417984  1
  Rh  Rh207  1  -0.00986754  0.20160855  0.40142224  1
  Rh  Rh208  1  0.20149375  0.60523066  0.60966215  1
  Rh  Rh209  1  0.19519234  0.38796344  -0.00168517  1
  Rh  Rh210  1  0.81418125  0.60771128  0.01063165  1
  Rh  Rh211  1  0.79943762  0.39567003  0.80491495  1
  Rh  Rh212  1  0.19602856  0.61456662  -0.01389209  1
  Rh  Rh213  1  0.60731626  0.79663292  0.60047188  1
  Rh  Rh214  1  0.00712992  0.40533508  0.40903566  1
  Rh  Rh215  1  0.18742065  0.79813555  0.79105638  1
  Rh  Rh216  1  -0.00988150  0.00216699  0.61101364  1
  Rh  Rh217  1  0.39535034  0.80295282  0.59755268  1
  Rh  Rh218  1  0.19723201  0.00249597  0.19509275  1
  Rh  Rh219  1  0.80767277  0.40039389  -0.00318190  1
  Rh  Rh220  1  0.39385007  0.79764699  0.19241424  1
  Rh  Rh221  1  0.19950497  0.80431968  0.19737793  1
  Rh  Rh222  1  0.00659305  0.01170193  -0.00592323  1
  Rh  Rh223  1  -0.00546175  0.40456606  0.19539498  1
  Rh  Rh224  1  0.79461133  0.80209520  0.80600140  1
  Rh  Rh225  1  0.18759840  0.80199228  0.40859742  1
  Rh  Rh226  1  0.80045446  0.00683720  0.19088028  1
  Rh  Rh227  1  0.18954392  0.59800204  0.39561514  1
  Rh  Rh228  1  0.00658097  0.80742772  0.79127945  1
  Rh  Rh229  1  0.79317934  -0.00016255  0.40196698  1
  Rh  Rh230  1  -0.00543280  0.59341919  0.61009355  1
  Rh  Rh231  1  0.00079256  0.80680378  0.21080044  1
  Rh  Rh232  1  0.59522365  0.39670421  0.19248429  1
  Rh  Rh233  1  0.59146007  -0.01386778  0.79985280  1
  Rh  Rh234  1  0.39589620  0.60723469  0.80364392  1
  Rh  Rh235  1  0.38965612  0.19051132  0.80847010  1
  Rh  Rh236  1  -0.00749173  0.59434831  0.20181801  1
  Rh  Rh237  1  0.20232537  0.19616615  0.79580616  1
  Rh  Rh238  1  0.39512377  0.19919125  0.00163587  1
  Rh  Rh239  1  0.79980828  0.59966855  0.40635548  1
  Rh  Rh240  1  0.20333808  0.60297003  0.21160973  1
  Rh  Rh241  1  0.60816164  0.19184318  0.40157772  1
  Rh  Rh242  1  0.80232578  0.40460327  0.58989242  1
  Rh  Rh243  1  0.80481142  -0.00554463  0.60657512  1
  Rh  Rh244  1  0.00183636  -0.01858752  0.39359529  1
  Rh  Rh245  1  0.80744313  0.79215830  0.60464690  1
  Rh  Rh246  1  0.80275816  0.80094285  0.40420344  1
  Rh  Rh247  1  0.38598908  0.19942847  0.59172924  1
  Rh  Rh248  1  0.80852140  0.39830631  0.20929336  1
  Rh  Rh249  1  0.80080270  0.80284081  0.19120671  1
