# generated using pymatgen
data_ZrScNbPdRh
_symmetry_space_group_name_H-M   'P 1'
_cell_length_a   16.55612841
_cell_length_b   16.55685553
_cell_length_c   16.55558055
_cell_angle_alpha   90.03366423
_cell_angle_beta   89.98399680
_cell_angle_gamma   90.03904011
_symmetry_Int_Tables_number   1
_chemical_formula_structural   ZrScNbPdRh
_chemical_formula_sum   'Zr50 Sc50 Nb50 Pd50 Rh50'
_cell_volume   4538.17111410
_cell_formula_units_Z   50
loop_
 _symmetry_equiv_pos_site_id
 _symmetry_equiv_pos_as_xyz
  1  'x, y, z'
loop_
 _atom_site_type_symbol
 _atom_site_label
 _atom_site_symmetry_multiplicity
 _atom_site_fract_x
 _atom_site_fract_y
 _atom_site_fract_z
 _atom_site_occupancy
  Zr  Zr0  1  0.89757758  0.30187734  0.29699809  1
  Zr  Zr1  1  0.69901734  0.29561999  0.50185119  1
  Zr  Zr2  1  0.29659848  0.50836489  0.30317082  1
  Zr  Zr3  1  0.89606831  0.29623234  0.89196557  1
  Zr  Zr4  1  0.09811790  0.69944676  0.50273051  1
  Zr  Zr5  1  0.69844514  0.10302250  0.10141584  1
  Zr  Zr6  1  0.49890885  0.70633787  0.89590236  1
  Zr  Zr7  1  0.89562031  0.48974264  0.10146345  1
  Zr  Zr8  1  0.69256083  0.30190788  0.89856113  1
  Zr  Zr9  1  0.11025901  0.89615089  0.88582370  1
  Zr  Zr10  1  0.69685842  0.50064323  0.10023474  1
  Zr  Zr11  1  0.89893115  0.10290907  0.10731908  1
  Zr  Zr12  1  0.09168128  0.29222693  0.69963034  1
  Zr  Zr13  1  0.28661691  0.90044793  0.70238872  1
  Zr  Zr14  1  0.89887498  0.69496348  0.89926760  1
  Zr  Zr15  1  0.70199204  0.30295739  0.10594299  1
  Zr  Zr16  1  0.29552871  0.69411123  0.49567360  1
  Zr  Zr17  1  0.69813748  0.70369164  0.11141904  1
  Zr  Zr18  1  0.30049995  0.29461854  0.69918170  1
  Zr  Zr19  1  0.10965386  0.29607038  0.49317140  1
  Zr  Zr20  1  0.30013812  0.10004979  0.29735179  1
  Zr  Zr21  1  0.48750388  0.29669948  0.30157165  1
  Zr  Zr22  1  0.89750920  0.10203698  0.29599319  1
  Zr  Zr23  1  0.49507954  0.29715853  0.49824780  1
  Zr  Zr24  1  0.30087111  0.90135952  0.49355866  1
  Zr  Zr25  1  0.29440063  0.29284664  0.89528689  1
  Zr  Zr26  1  0.10065014  0.29444558  0.89977883  1
  Zr  Zr27  1  0.09252445  0.09936495  0.50001634  1
  Zr  Zr28  1  0.49707745  0.49711267  0.49970371  1
  Zr  Zr29  1  0.70346930  0.29357212  0.30625986  1
  Zr  Zr30  1  0.50540795  0.51220199  0.70210291  1
  Zr  Zr31  1  0.69764655  0.50301118  0.90014851  1
  Zr  Zr32  1  0.28880049  0.30491925  0.30603223  1
  Zr  Zr33  1  0.29526775  0.09850127  0.89596004  1
  Zr  Zr34  1  0.30313531  0.49976801  0.90363786  1
  Zr  Zr35  1  0.70129746  0.90517116  0.49446795  1
  Zr  Zr36  1  0.70341447  0.11008563  0.89801207  1
  Zr  Zr37  1  0.29935872  0.50491916  0.69767613  1
  Zr  Zr38  1  0.30390507  0.30260706  0.49835982  1
  Zr  Zr39  1  0.50271296  0.70795995  0.69858766  1
  Zr  Zr40  1  0.69190804  0.90288232  0.90230523  1
  Zr  Zr41  1  0.71140806  0.70480277  0.89943948  1
  Zr  Zr42  1  0.89857714  0.49883567  0.89772311  1
  Zr  Zr43  1  0.69981614  0.10679338  0.69198631  1
  Zr  Zr44  1  0.09760945  0.89896925  0.50289644  1
  Zr  Zr45  1  0.69385071  0.69302603  0.70032659  1
  Zr  Zr46  1  0.70632049  0.29646501  0.70033577  1
  Zr  Zr47  1  0.90189731  0.69390957  0.48705765  1
  Zr  Zr48  1  0.08827780  0.50655444  0.69464063  1
  Zr  Zr49  1  0.50119773  0.90007419  0.50053370  1
  Sc  Sc50  1  0.10661287  0.49611325  0.10632348  1
  Sc  Sc51  1  0.29900851  0.89684012  0.09772162  1
  Sc  Sc52  1  0.30807177  0.89563243  0.90471510  1
  Sc  Sc53  1  0.89808457  0.09259156  0.49891731  1
  Sc  Sc54  1  0.50303089  0.30309944  0.10262385  1
  Sc  Sc55  1  0.30002340  0.50504971  0.49497656  1
  Sc  Sc56  1  0.50605767  0.70040872  0.49656196  1
  Sc  Sc57  1  0.29311627  0.10438639  0.49811489  1
  Sc  Sc58  1  0.69928901  0.89767997  0.30299201  1
  Sc  Sc59  1  0.89397840  0.71014914  0.10234674  1
  Sc  Sc60  1  0.30073203  0.29457568  0.11072435  1
  Sc  Sc61  1  0.10150099  0.29864413  0.11064724  1
  Sc  Sc62  1  0.49637479  0.50958757  0.29885267  1
  Sc  Sc63  1  0.50370450  0.49995622  0.10159435  1
  Sc  Sc64  1  0.50134679  0.10343682  0.09585879  1
  Sc  Sc65  1  0.90252465  0.48978967  0.31631525  1
  Sc  Sc66  1  0.50455473  0.89960914  0.31747447  1
  Sc  Sc67  1  0.29758449  0.10600053  0.69887445  1
  Sc  Sc68  1  0.70259495  0.89559330  0.10369133  1
  Sc  Sc69  1  0.28647553  0.69750370  0.10658771  1
  Sc  Sc70  1  0.69806996  0.50005931  0.69847838  1
  Sc  Sc71  1  0.90678138  0.10955904  0.68953624  1
  Sc  Sc72  1  0.90633100  0.90107226  0.30154188  1
  Sc  Sc73  1  0.50368367  0.29229105  0.69090323  1
  Sc  Sc74  1  0.90647226  0.69395039  0.70665260  1
  Sc  Sc75  1  0.49645412  0.10477141  0.49388439  1
  Sc  Sc76  1  0.50652850  0.89833148  0.08777745  1
  Sc  Sc77  1  0.89461700  0.31067986  0.49667628  1
  Sc  Sc78  1  0.70145960  0.49359150  0.29993355  1
  Sc  Sc79  1  0.69620331  0.89404579  0.70384170  1
  Sc  Sc80  1  0.10754426  0.89642453  0.10966504  1
  Sc  Sc81  1  0.10256345  0.10012905  0.29410394  1
  Sc  Sc82  1  0.49853697  0.10552858  0.30746683  1
  Sc  Sc83  1  0.30288947  0.50389915  0.10478121  1
  Sc  Sc84  1  0.09481737  0.49402685  0.89866913  1
  Sc  Sc85  1  0.09653372  0.50554229  0.49760791  1
  Sc  Sc86  1  0.51106648  0.69805329  0.10802020  1
  Sc  Sc87  1  0.10076930  0.90311176  0.29891466  1
  Sc  Sc88  1  0.09808350  0.09774657  0.69167044  1
  Sc  Sc89  1  0.10434473  0.10524492  0.10591669  1
  Sc  Sc90  1  0.10038137  0.10627792  0.88949510  1
  Sc  Sc91  1  0.29590996  0.10305440  0.10265937  1
  Sc  Sc92  1  0.30081123  0.69869973  0.91086692  1
  Sc  Sc93  1  0.88830497  0.88460403  0.89722967  1
  Sc  Sc94  1  0.30065284  0.70079034  0.69043743  1
  Sc  Sc95  1  0.51346192  0.09646029  0.90508662  1
  Sc  Sc96  1  0.50301199  0.50278349  0.90873070  1
  Sc  Sc97  1  0.90911945  0.90142658  0.49651485  1
  Sc  Sc98  1  0.89472566  0.90142006  0.10909631  1
  Sc  Sc99  1  0.70533305  0.50521150  0.50639451  1
  Nb  Nb100  1  0.09591598  0.89182875  0.69525638  1
  Nb  Nb101  1  0.09870139  0.69855355  0.10139193  1
  Nb  Nb102  1  0.70098685  0.09886820  0.30616771  1
  Nb  Nb103  1  0.49704378  0.30304928  0.90280102  1
  Nb  Nb104  1  0.70538838  0.70198712  0.49777522  1
  Nb  Nb105  1  0.10546265  0.49271335  0.30019383  1
  Nb  Nb106  1  0.90003663  0.30408829  0.69555241  1
  Nb  Nb107  1  0.50093909  0.89856960  0.70278203  1
  Nb  Nb108  1  0.30205372  0.90035932  0.29813111  1
  Nb  Nb109  1  0.69613025  0.69873233  0.30546146  1
  Nb  Nb110  1  0.69813531  0.10124434  0.49046823  1
  Nb  Nb111  1  0.09846424  0.30965204  0.30408209  1
  Nb  Nb112  1  0.90287342  0.49091436  0.68712667  1
  Nb  Nb113  1  0.90130675  0.50011703  0.50974065  1
  Nb  Nb114  1  0.89751253  0.89925947  0.69648042  1
  Nb  Nb115  1  0.10278528  0.69963005  0.29533991  1
  Nb  Nb116  1  0.50944552  0.70195980  0.29929412  1
  Nb  Nb117  1  0.90058929  0.29633990  0.10392205  1
  Nb  Nb118  1  0.30073172  0.69872711  0.30009699  1
  Nb  Nb119  1  0.90212247  0.09867297  0.89812536  1
  Nb  Nb120  1  0.49941478  0.09661381  0.69352472  1
  Nb  Nb121  1  0.50204396  0.90168503  0.89411032  1
  Nb  Nb122  1  0.90428974  0.69814565  0.30142597  1
  Nb  Nb123  1  0.09539909  0.69593978  0.89937794  1
  Nb  Nb124  1  0.10168994  0.70415341  0.70211202  1
  Nb  Nb125  1  0.80491980  0.00395785  0.79838736  1
  Nb  Nb126  1  0.00014635  0.20561203  0.39460777  1
  Nb  Nb127  1  0.59630758  0.39538269  0.40266327  1
  Nb  Nb128  1  -0.00108667  0.60229044  0.20323250  1
  Nb  Nb129  1  0.40215726  0.80137656  0.20935134  1
  Nb  Nb130  1  0.19385603  0.00106223  -0.00514635  1
  Nb  Nb131  1  0.00057748  -0.00284009  -0.00726967  1
  Nb  Nb132  1  0.59807749  0.00184613  0.20538464  1
  Nb  Nb133  1  0.80036047  0.79520672  0.59536011  1
  Nb  Nb134  1  0.40292552  0.39778059  0.80158833  1
  Nb  Nb135  1  0.19241594  0.60509360  0.79987152  1
  Nb  Nb136  1  0.80482017  0.00529430  -0.00559579  1
  Nb  Nb137  1  0.20345622  0.39392497  -0.00176195  1
  Nb  Nb138  1  -0.00616496  0.19806661  0.00251911  1
  Nb  Nb139  1  0.19891343  0.40051470  0.60266777  1
  Nb  Nb140  1  0.20176257  0.79622735  0.39240261  1
  Nb  Nb141  1  0.59696707  0.00219597  0.59931618  1
  Nb  Nb142  1  0.00717403  0.79893980  -0.00152213  1
  Nb  Nb143  1  0.40385555  -0.00242679  0.60552230  1
  Nb  Nb144  1  0.40950220  -0.00327840  0.79694762  1
  Nb  Nb145  1  -0.00604187  -0.00800265  0.79610339  1
  Nb  Nb146  1  0.80618989  0.60351086  0.20991072  1
  Nb  Nb147  1  0.00121857  0.60462156  0.00764039  1
  Nb  Nb148  1  0.39891060  0.20342806  -0.00702034  1
  Nb  Nb149  1  0.40481002  -0.00710789  0.20377838  1
  Pd  Pd150  1  0.59441345  0.40266671  0.21026066  1
  Pd  Pd151  1  0.39481850  0.59981758  0.80229918  1
  Pd  Pd152  1  0.19513102  0.80437179  -0.00011586  1
  Pd  Pd153  1  0.39462758  0.39291825  0.00076656  1
  Pd  Pd154  1  0.60825460  0.80416356  0.59438243  1
  Pd  Pd155  1  0.00744839  0.39425721  0.00519412  1
  Pd  Pd156  1  0.20200963  0.00270773  0.60086783  1
  Pd  Pd157  1  0.41255138  0.19479359  0.80426655  1
  Pd  Pd158  1  0.60321006  0.40150404  0.59815327  1
  Pd  Pd159  1  0.60443762  0.00439193  0.79226636  1
  Pd  Pd160  1  0.19125027  0.58989180  -0.00399420  1
  Pd  Pd161  1  0.59533878  0.19485163  0.20473260  1
  Pd  Pd162  1  0.40492010  0.60895683  0.01199151  1
  Pd  Pd163  1  0.00631589  0.59300274  0.39267047  1
  Pd  Pd164  1  0.39510742  0.00709423  -0.00061265  1
  Pd  Pd165  1  0.60386703  0.59212852  0.40259278  1
  Pd  Pd166  1  0.59140793  0.20092289  0.79834973  1
  Pd  Pd167  1  0.39168290  0.80249717  0.79824632  1
  Pd  Pd168  1  0.80693700  0.60574539  0.60508812  1
  Pd  Pd169  1  0.00493530  -0.00167156  0.19475791  1
  Pd  Pd170  1  0.79895968  0.79824667  0.21444587  1
  Pd  Pd171  1  0.79506193  -0.00544438  0.60439495  1
  Pd  Pd172  1  0.00838749  0.39267016  0.58846421  1
  Pd  Pd173  1  0.80409957  0.20165297  0.00308850  1
  Pd  Pd174  1  0.80366846  0.80544008  0.39937509  1
  Pd  Pd175  1  0.79592622  0.39330578  -0.00239371  1
  Pd  Pd176  1  0.80880874  0.20118312  0.58999774  1
  Pd  Pd177  1  0.79652886  0.59198790  0.39509672  1
  Pd  Pd178  1  0.39398143  0.80445624  0.59874448  1
  Pd  Pd179  1  0.20200052  0.40790545  0.79755132  1
  Pd  Pd180  1  -0.01088701  0.79302533  0.59889884  1
  Pd  Pd181  1  0.21142060  0.78668333  0.80367514  1
  Pd  Pd182  1  0.40196759  0.60938221  0.19543076  1
  Pd  Pd183  1  0.80379834  0.58991996  0.78844894  1
  Pd  Pd184  1  0.39681551  0.40375536  0.20316926  1
  Pd  Pd185  1  0.59114571  0.39963521  0.79680397  1
  Pd  Pd186  1  0.59968147  0.60814806  -0.00236182  1
  Pd  Pd187  1  0.60124024  0.79506132  -0.00155660  1
  Pd  Pd188  1  -0.00270642  0.39940604  0.79832066  1
  Pd  Pd189  1  0.80599368  -0.00321045  0.39386723  1
  Pd  Pd190  1  0.40523450  0.60477280  0.59352187  1
  Pd  Pd191  1  -0.00378522  0.80316967  0.80221388  1
  Pd  Pd192  1  0.00027039  0.79891053  0.19723898  1
  Pd  Pd193  1  0.00005084  0.40474703  0.20083741  1
  Pd  Pd194  1  0.39707282  0.40178610  0.60843727  1
  Pd  Pd195  1  0.19591208  -0.00226369  0.39754798  1
  Pd  Pd196  1  0.39822858  0.79148895  0.39660492  1
  Pd  Pd197  1  0.40232180  0.79075709  0.01537395  1
  Pd  Pd198  1  0.79922024  0.40621883  0.79390406  1
  Pd  Pd199  1  0.80531675  0.60311202  0.01269610  1
  Rh  Rh200  1  0.59913328  0.00668378  0.40044320  1
  Rh  Rh201  1  0.39731517  0.00603897  0.40093754  1
  Rh  Rh202  1  0.19670275  0.20570665  0.20774212  1
  Rh  Rh203  1  0.79547255  0.20102513  0.20276235  1
  Rh  Rh204  1  -0.00550875  0.60799254  0.59914795  1
  Rh  Rh205  1  0.00020822  -0.00557509  0.60586210  1
  Rh  Rh206  1  0.59946616  0.60386132  0.80876714  1
  Rh  Rh207  1  0.19155973  0.19281149  0.78759772  1
  Rh  Rh208  1  0.80801700  0.19660749  0.79010355  1
  Rh  Rh209  1  -0.00489639  0.19560600  0.79946439  1
  Rh  Rh210  1  0.60204901  0.39892089  0.00177131  1
  Rh  Rh211  1  0.40330063  0.40813665  0.39237571  1
  Rh  Rh212  1  0.80005113  0.40224509  0.20283237  1
  Rh  Rh213  1  0.19463693  0.59676201  0.60752873  1
  Rh  Rh214  1  0.20535598  0.79902118  0.20730082  1
  Rh  Rh215  1  0.78744268  0.00056944  0.20043899  1
  Rh  Rh216  1  0.20904943  -0.00419673  0.19250394  1
  Rh  Rh217  1  0.80280558  0.80619057  0.00602260  1
  Rh  Rh218  1  0.59904185  0.60350695  0.59338973  1
  Rh  Rh219  1  0.19266875  0.60383681  0.39443740  1
  Rh  Rh220  1  0.19706208  0.20055257  0.00659408  1
  Rh  Rh221  1  0.80893726  0.19494467  0.40319490  1
  Rh  Rh222  1  0.19684159  0.00410768  0.79689259  1
  Rh  Rh223  1  0.38901822  0.19689008  0.40062271  1
  Rh  Rh224  1  0.59206691  0.81093163  0.20950372  1
  Rh  Rh225  1  0.79654773  0.80189751  0.78835179  1
  Rh  Rh226  1  0.00159737  0.59391115  0.80374862  1
  Rh  Rh227  1  0.60631328  0.79518313  0.40309914  1
  Rh  Rh228  1  0.59811253  0.19172660  0.59137678  1
  Rh  Rh229  1  0.59909872  0.20423923  0.40065345  1
  Rh  Rh230  1  0.60984213  0.59596818  0.20651377  1
  Rh  Rh231  1  0.00195393  0.00901386  0.39504689  1
  Rh  Rh232  1  0.60342003  0.79624981  0.80456104  1
  Rh  Rh233  1  -0.00640935  0.20796105  0.58547484  1
  Rh  Rh234  1  0.00335506  0.39837523  0.40630264  1
  Rh  Rh235  1  0.59429288  0.21058803  0.00116626  1
  Rh  Rh236  1  0.39747326  0.19107345  0.59555867  1
  Rh  Rh237  1  0.19977003  0.20488861  0.60043737  1
  Rh  Rh238  1  0.19985122  0.79912141  0.59160464  1
  Rh  Rh239  1  0.79600008  0.40016912  0.60211483  1
  Rh  Rh240  1  0.19419935  0.19377543  0.39265286  1
  Rh  Rh241  1  0.19894058  0.41022396  0.40879567  1
  Rh  Rh242  1  0.19336523  0.59691896  0.20450142  1
  Rh  Rh243  1  0.60936930  -0.00153600  0.00867436  1
  Rh  Rh244  1  0.79104183  0.40537168  0.40882040  1
  Rh  Rh245  1  0.00405785  0.20593998  0.20403386  1
  Rh  Rh246  1  0.01073204  0.80100252  0.39501033  1
  Rh  Rh247  1  0.20673428  0.40132007  0.19559701  1
  Rh  Rh248  1  0.40331181  0.19003956  0.19184613  1
  Rh  Rh249  1  0.40622606  0.60511486  0.39956018  1
