# generated using pymatgen
data_ZrScNbPdRh
_symmetry_space_group_name_H-M   'P 1'
_cell_length_a   16.55535580
_cell_length_b   16.55865428
_cell_length_c   16.56630916
_cell_angle_alpha   89.97382222
_cell_angle_beta   89.97541034
_cell_angle_gamma   89.98617423
_symmetry_Int_Tables_number   1
_chemical_formula_structural   ZrScNbPdRh
_chemical_formula_sum   'Zr50 Sc50 Nb50 Pd50 Rh50'
_cell_volume   4541.39441665
_cell_formula_units_Z   50
loop_
 _symmetry_equiv_pos_site_id
 _symmetry_equiv_pos_as_xyz
  1  'x, y, z'
loop_
 _atom_site_type_symbol
 _atom_site_label
 _atom_site_symmetry_multiplicity
 _atom_site_fract_x
 _atom_site_fract_y
 _atom_site_fract_z
 _atom_site_occupancy
  Zr  Zr0  1  0.10140333  0.89672338  0.30577351  1
  Zr  Zr1  1  0.70080396  0.69381760  0.69616684  1
  Zr  Zr2  1  0.90355423  0.69923214  0.09869509  1
  Zr  Zr3  1  0.30266971  0.50847780  0.88856428  1
  Zr  Zr4  1  0.90336599  0.50287253  0.90036216  1
  Zr  Zr5  1  0.69723930  0.50435691  0.70125338  1
  Zr  Zr6  1  0.50601303  0.50569885  0.09453521  1
  Zr  Zr7  1  0.29723369  0.30511121  0.49960508  1
  Zr  Zr8  1  0.09108266  0.28657421  0.30488580  1
  Zr  Zr9  1  0.50366401  0.11045557  0.30017777  1
  Zr  Zr10  1  0.69164179  0.10086132  0.50134376  1
  Zr  Zr11  1  0.89973234  0.69949245  0.49879910  1
  Zr  Zr12  1  0.10661431  0.90202667  0.50028737  1
  Zr  Zr13  1  0.10767003  0.89945334  0.09515952  1
  Zr  Zr14  1  0.49940981  0.89764840  0.50885077  1
  Zr  Zr15  1  0.89876103  0.49557839  0.49969445  1
  Zr  Zr16  1  0.50404860  0.89503822  0.90239636  1
  Zr  Zr17  1  0.29679007  0.70135282  0.30042735  1
  Zr  Zr18  1  0.49777742  0.70657124  0.10022752  1
  Zr  Zr19  1  0.89674185  0.90038520  0.48571467  1
  Zr  Zr20  1  0.49985066  0.51010716  0.49626527  1
  Zr  Zr21  1  0.49851622  0.50172799  0.89497375  1
  Zr  Zr22  1  0.49839557  0.30166874  0.70207045  1
  Zr  Zr23  1  0.70057243  0.70190956  0.88751608  1
  Zr  Zr24  1  0.10211902  0.50095457  0.10503228  1
  Zr  Zr25  1  0.91531752  0.70410307  0.30214247  1
  Zr  Zr26  1  0.10300658  0.69991393  0.11093542  1
  Zr  Zr27  1  0.70131722  0.10116436  0.69236714  1
  Zr  Zr28  1  0.69784997  0.89954264  0.89711489  1
  Zr  Zr29  1  0.29650632  0.90108277  0.69722275  1
  Zr  Zr30  1  0.09873471  0.29831472  0.69647692  1
  Zr  Zr31  1  0.90082138  0.09560807  0.89717426  1
  Zr  Zr32  1  0.90121194  0.30423376  0.50385767  1
  Zr  Zr33  1  0.09073595  0.90353030  0.89593524  1
  Zr  Zr34  1  0.90432334  0.90603416  0.09307663  1
  Zr  Zr35  1  0.69760805  0.10766596  0.90054752  1
  Zr  Zr36  1  0.89913429  0.29194704  0.89681607  1
  Zr  Zr37  1  0.29904407  0.89728504  0.10285170  1
  Zr  Zr38  1  0.89337337  0.69267638  0.70515471  1
  Zr  Zr39  1  0.29979331  0.10504859  0.70501987  1
  Zr  Zr40  1  0.69635987  0.69239337  0.10671933  1
  Zr  Zr41  1  0.09836328  0.29879756  0.89249207  1
  Zr  Zr42  1  0.49203876  0.89763327  0.10275121  1
  Zr  Zr43  1  0.70122093  0.90430330  0.30318595  1
  Zr  Zr44  1  0.68668655  0.89586841  0.69929181  1
  Zr  Zr45  1  0.09722837  0.30165973  0.50226245  1
  Zr  Zr46  1  0.09974679  0.51849347  0.29853730  1
  Zr  Zr47  1  0.29776276  0.49941215  0.50026661  1
  Zr  Zr48  1  0.69803629  0.29754424  0.69718325  1
  Zr  Zr49  1  0.69344618  0.90106779  0.10407456  1
  Sc  Sc50  1  0.90393077  0.29733075  0.69423669  1
  Sc  Sc51  1  0.50496688  0.69403280  0.68811593  1
  Sc  Sc52  1  0.10461497  0.69942413  0.89127475  1
  Sc  Sc53  1  0.69078370  0.49501351  0.90773812  1
  Sc  Sc54  1  0.69579564  0.10854752  0.10971724  1
  Sc  Sc55  1  0.10326351  0.70074828  0.47996883  1
  Sc  Sc56  1  0.50014071  0.30195035  0.30478760  1
  Sc  Sc57  1  0.70217930  0.10310297  0.30107932  1
  Sc  Sc58  1  0.50483083  0.29815066  0.49770067  1
  Sc  Sc59  1  0.90111117  0.69873468  0.89406117  1
  Sc  Sc60  1  0.50354482  0.89661839  0.30231029  1
  Sc  Sc61  1  0.30774240  0.50028229  0.69895818  1
  Sc  Sc62  1  0.30937352  0.29846697  0.30532552  1
  Sc  Sc63  1  0.89195153  0.29424347  0.30411703  1
  Sc  Sc64  1  0.30695647  0.30341981  0.69639394  1
  Sc  Sc65  1  0.90181322  0.89947863  0.71053748  1
  Sc  Sc66  1  0.30367716  0.30400411  0.11908696  1
  Sc  Sc67  1  0.09915288  0.09836231  0.48541393  1
  Sc  Sc68  1  0.70055072  0.30423332  0.49658384  1
  Sc  Sc69  1  0.68995607  0.70046853  0.50098482  1
  Sc  Sc70  1  0.30329042  0.90068029  0.29995764  1
  Sc  Sc71  1  0.89716240  0.10724116  0.69727742  1
  Sc  Sc72  1  0.10834510  0.49524638  0.70793213  1
  Sc  Sc73  1  0.30743675  0.09343459  0.49507037  1
  Sc  Sc74  1  0.89074856  0.09925290  0.49887021  1
  Sc  Sc75  1  0.29574413  0.09741953  0.89573108  1
  Sc  Sc76  1  0.10836725  0.89739130  0.70649178  1
  Sc  Sc77  1  0.29954826  0.49499911  0.30149053  1
  Sc  Sc78  1  0.29872898  0.49762129  0.11425193  1
  Sc  Sc79  1  0.69857065  0.29887369  0.30397500  1
  Sc  Sc80  1  0.89411818  0.50046242  0.69470919  1
  Sc  Sc81  1  0.09958237  0.10120157  0.89210705  1
  Sc  Sc82  1  0.69641525  0.90826428  0.49857864  1
  Sc  Sc83  1  0.49631076  0.29440538  0.11631037  1
  Sc  Sc84  1  0.50224775  0.50247504  0.70190721  1
  Sc  Sc85  1  0.71045882  0.30019676  0.10222304  1
  Sc  Sc86  1  0.29598029  0.69764828  0.70799453  1
  Sc  Sc87  1  0.30650197  0.09533264  0.30628349  1
  Sc  Sc88  1  0.30488405  0.29152475  0.88391654  1
  Sc  Sc89  1  0.88711361  0.50346496  0.09949462  1
  Sc  Sc90  1  0.70340987  0.49351178  0.50211335  1
  Sc  Sc91  1  0.30623226  0.89947930  0.49845938  1
  Sc  Sc92  1  0.10051498  0.09417164  0.70489446  1
  Sc  Sc93  1  0.70334735  0.50124692  0.29956969  1
  Sc  Sc94  1  0.50323744  0.29840660  0.89377200  1
  Sc  Sc95  1  0.50331804  0.10371479  0.69036008  1
  Sc  Sc96  1  0.28675761  0.89480990  0.90708341  1
  Sc  Sc97  1  0.69511819  0.29787661  0.90042827  1
  Sc  Sc98  1  0.89682859  0.11017819  0.10002701  1
  Sc  Sc99  1  0.10029563  0.49133949  0.49527844  1
  Nb  Nb100  1  0.09353064  0.09733846  0.30144890  1
  Nb  Nb101  1  0.49540508  0.10025089  0.90610304  1
  Nb  Nb102  1  0.90801690  0.30144445  0.10266249  1
  Nb  Nb103  1  0.69665726  0.70413246  0.29701131  1
  Nb  Nb104  1  0.90589968  0.09755215  0.30207299  1
  Nb  Nb105  1  0.10206753  0.69843596  0.29630398  1
  Nb  Nb106  1  0.89690317  0.90317194  0.90265172  1
  Nb  Nb107  1  0.50451566  0.50192096  0.29835932  1
  Nb  Nb108  1  0.29874435  0.09532710  0.10259370  1
  Nb  Nb109  1  0.49748496  0.89853178  0.70197024  1
  Nb  Nb110  1  0.10149745  0.70149954  0.69499191  1
  Nb  Nb111  1  0.10134281  0.10361077  0.10810261  1
  Nb  Nb112  1  0.30400863  0.69949834  0.90304943  1
  Nb  Nb113  1  0.09693753  0.29712410  0.10262524  1
  Nb  Nb114  1  0.90085872  0.50216844  0.30303184  1
  Nb  Nb115  1  0.49157804  0.10121958  0.10202895  1
  Nb  Nb116  1  0.50979658  0.69543418  0.30191370  1
  Nb  Nb117  1  0.89824140  0.90593810  0.29957306  1
  Nb  Nb118  1  0.50256121  0.09740147  0.49071727  1
  Nb  Nb119  1  0.69696276  0.49834315  0.10251635  1
  Nb  Nb120  1  0.49344326  0.69809666  0.49525103  1
  Nb  Nb121  1  0.30204127  0.70917234  0.09596421  1
  Nb  Nb122  1  0.30938183  0.69249289  0.50188491  1
  Nb  Nb123  1  0.10642579  0.49648341  0.90508189  1
  Nb  Nb124  1  0.48807181  0.69670667  0.90357338  1
  Nb  Nb125  1  0.80273450  0.80245063  0.20229886  1
  Nb  Nb126  1  0.80274562  0.60406959  0.39426300  1
  Nb  Nb127  1  0.00891785  0.60542524  0.60028173  1
  Nb  Nb128  1  0.59115931  0.00877754  0.00277658  1
  Nb  Nb129  1  0.79569164  0.00030884  0.80351953  1
  Nb  Nb130  1  0.80230908  0.80068889  0.60205680  1
  Nb  Nb131  1  0.39487872  0.19731346  0.00569400  1
  Nb  Nb132  1  -0.00368287  0.39892353  0.19848629  1
  Nb  Nb133  1  0.19544027  0.19189078  0.20116717  1
  Nb  Nb134  1  0.60335299  0.40844540  0.19745181  1
  Nb  Nb135  1  0.19831773  0.60345400  0.59587656  1
  Nb  Nb136  1  0.20491912  0.59851553  -0.00076327  1
  Nb  Nb137  1  0.40619332  -0.00678307  0.79984707  1
  Nb  Nb138  1  0.20228296  0.20317944  0.01176782  1
  Nb  Nb139  1  0.40683978  0.60712196  0.20317887  1
  Nb  Nb140  1  0.20069327  0.20197626  0.59538581  1
  Nb  Nb141  1  0.39385459  0.39573259  -0.00052588  1
  Nb  Nb142  1  0.80081090  0.80250463  0.00254686  1
  Nb  Nb143  1  0.40185250  0.80072484  0.80246100  1
  Nb  Nb144  1  0.00398673  0.39692220  0.00346538  1
  Nb  Nb145  1  0.00005200  0.79813573  0.59924610  1
  Nb  Nb146  1  0.00206816  0.00427651  0.20300340  1
  Nb  Nb147  1  0.79793096  0.39765945  0.80095354  1
  Nb  Nb148  1  0.20163889  0.39698012  -0.00143309  1
  Nb  Nb149  1  -0.00062677  -0.00897792  0.59661270  1
  Pd  Pd150  1  0.40275724  0.00538797  0.60340540  1
  Pd  Pd151  1  0.00653391  0.01164571  0.00510110  1
  Pd  Pd152  1  -0.00112054  0.79844352  0.79724829  1
  Pd  Pd153  1  0.38912147  0.59161410  0.01066209  1
  Pd  Pd154  1  0.00909460  0.59853890  -0.00006049  1
  Pd  Pd155  1  0.60515743  0.79595267  0.00137798  1
  Pd  Pd156  1  0.61200916  0.59584968  0.40190408  1
  Pd  Pd157  1  0.39729865  0.19865590  0.59124140  1
  Pd  Pd158  1  0.59552864  0.40310785  0.59681363  1
  Pd  Pd159  1  0.59665882  0.01099105  0.80199169  1
  Pd  Pd160  1  0.59067618  0.20365591  0.01069243  1
  Pd  Pd161  1  0.59093254  0.38570658  0.00990097  1
  Pd  Pd162  1  0.80695758  -0.00988896  0.60909686  1
  Pd  Pd163  1  0.80368103  0.60578126  0.20853704  1
  Pd  Pd164  1  0.79911236  0.19774889  0.40309841  1
  Pd  Pd165  1  0.79225202  0.60557081  -0.00641126  1
  Pd  Pd166  1  0.20879686  0.39544845  0.79844166  1
  Pd  Pd167  1  -0.00816792  0.40481238  0.79763477  1
  Pd  Pd168  1  0.19402832  0.39937607  0.38861033  1
  Pd  Pd169  1  0.40320786  0.80071165  0.39658274  1
  Pd  Pd170  1  -0.00045116  0.39947028  0.38965077  1
  Pd  Pd171  1  0.19805640  0.00221761  0.20989421  1
  Pd  Pd172  1  0.80610060  0.00303960  0.19933804  1
  Pd  Pd173  1  0.40852706  0.40480401  0.59627823  1
  Pd  Pd174  1  0.19405750  0.00940699  -0.00586329  1
  Pd  Pd175  1  0.80019197  0.39684010  0.20567831  1
  Pd  Pd176  1  0.20923887  0.80058529  0.40317120  1
  Pd  Pd177  1  0.58697681  0.78663620  0.79500307  1
  Pd  Pd178  1  0.20074857  0.79022464  0.59215331  1
  Pd  Pd179  1  0.00034971  0.79232569  -0.00760273  1
  Pd  Pd180  1  0.20753940  0.19484316  0.39960146  1
  Pd  Pd181  1  0.79985140  0.20182481  0.00315091  1
  Pd  Pd182  1  0.39668888  0.79128064  0.60778885  1
  Pd  Pd183  1  0.39580707  0.59769384  0.39024586  1
  Pd  Pd184  1  0.79261492  0.79376744  0.39878997  1
  Pd  Pd185  1  0.59452438  0.19472719  0.79591950  1
  Pd  Pd186  1  -0.00073474  0.81197199  0.20079667  1
  Pd  Pd187  1  0.00821333  0.59412166  0.79366479  1
  Pd  Pd188  1  0.60388625  0.60828687  -0.00746310  1
  Pd  Pd189  1  0.40493542  0.00062372  0.20919625  1
  Pd  Pd190  1  0.80556057  0.39760505  -0.00530921  1
  Pd  Pd191  1  0.59837650  0.80313259  0.40603541  1
  Pd  Pd192  1  0.78802030  0.00285245  0.00009636  1
  Pd  Pd193  1  0.00612123  0.19756791  -0.00291374  1
  Pd  Pd194  1  0.00712792  0.18415575  0.59434630  1
  Pd  Pd195  1  0.59216808  0.00372971  0.19916985  1
  Pd  Pd196  1  0.18957339  0.38881147  0.21051500  1
  Pd  Pd197  1  0.19501439  0.01216532  0.59533482  1
  Pd  Pd198  1  0.39673843  -0.00074326  -0.00633522  1
  Pd  Pd199  1  0.40619489  0.40040730  0.40298733  1
  Rh  Rh200  1  0.41462167  0.41428392  0.19707747  1
  Rh  Rh201  1  0.79244888  0.58405996  0.81071086  1
  Rh  Rh202  1  -0.00053452  0.19426293  0.79440990  1
  Rh  Rh203  1  0.79892644  0.20090788  0.79619183  1
  Rh  Rh204  1  0.40235289  0.79292852  0.20956397  1
  Rh  Rh205  1  0.21429635  0.60961067  0.19499020  1
  Rh  Rh206  1  0.60552768  0.40184686  0.79754841  1
  Rh  Rh207  1  0.19953985  0.39996535  0.60453389  1
  Rh  Rh208  1  0.59995713  0.20141641  0.40146849  1
  Rh  Rh209  1  0.79733701  0.20701740  0.59314609  1
  Rh  Rh210  1  0.20424445  0.79867888  0.80398669  1
  Rh  Rh211  1  0.39564999  0.60071047  0.60353383  1
  Rh  Rh212  1  0.80326553  0.80898945  0.80116752  1
  Rh  Rh213  1  0.60392083  0.20949568  0.20281235  1
  Rh  Rh214  1  0.79934076  0.40625696  0.39676232  1
  Rh  Rh215  1  0.80066258  0.60492679  0.58827022  1
  Rh  Rh216  1  0.60040723  0.79830370  0.59504378  1
  Rh  Rh217  1  -0.00982103  0.59221132  0.19567481  1
  Rh  Rh218  1  0.19804405  0.60206682  0.79837055  1
  Rh  Rh219  1  0.59689990  0.59532462  0.20344805  1
  Rh  Rh220  1  0.80481728  0.20062067  0.20291630  1
  Rh  Rh221  1  -0.01112188  0.19764945  0.40834956  1
  Rh  Rh222  1  0.20554073  0.60001645  0.40438069  1
  Rh  Rh223  1  0.59474752  0.60244251  0.80448964  1
  Rh  Rh224  1  -0.00287034  0.59578267  0.40666107  1
  Rh  Rh225  1  0.40947639  -0.00473940  0.39893907  1
  Rh  Rh226  1  0.60085653  0.40455789  0.39244116  1
  Rh  Rh227  1  0.00473817  0.80422875  0.39965827  1
  Rh  Rh228  1  0.60004410  0.59668510  0.59122273  1
  Rh  Rh229  1  0.19766688  0.20348753  0.79135196  1
  Rh  Rh230  1  0.39554545  0.80686506  -0.00699973  1
  Rh  Rh231  1  0.20519569  -0.00123313  0.39710551  1
  Rh  Rh232  1  0.59810964  0.20281109  0.59325461  1
  Rh  Rh233  1  0.38919879  0.19085540  0.20140562  1
  Rh  Rh234  1  0.59247632  0.00057981  0.59780751  1
  Rh  Rh235  1  0.00354615  0.41296446  0.60672558  1
  Rh  Rh236  1  -0.00781544  0.00257500  0.79321561  1
  Rh  Rh237  1  0.40297686  0.20065731  0.40512411  1
  Rh  Rh238  1  0.40491576  0.39883383  0.80410528  1
  Rh  Rh239  1  0.20685779  -0.00504003  0.80395434  1
  Rh  Rh240  1  0.79859286  0.39485803  0.60941252  1
  Rh  Rh241  1  0.59691493  0.00013869  0.39900562  1
  Rh  Rh242  1  -0.00431010  0.19842761  0.20438574  1
  Rh  Rh243  1  0.19324146  0.79020548  -0.00133035  1
  Rh  Rh244  1  0.20177909  0.80194304  0.20206532  1
  Rh  Rh245  1  0.79504574  0.00873936  0.39612295  1
  Rh  Rh246  1  -0.00324492  0.00010325  0.40062273  1
  Rh  Rh247  1  0.40641156  0.61130110  0.79085428  1
  Rh  Rh248  1  0.40628982  0.19055412  0.80284209  1
  Rh  Rh249  1  0.60172873  0.80146058  0.20372185  1
