# generated using pymatgen
data_ZrScNbPdRh
_symmetry_space_group_name_H-M   'P 1'
_cell_length_a   16.55373918
_cell_length_b   16.55371791
_cell_length_c   16.55334882
_cell_angle_alpha   90.02365708
_cell_angle_beta   89.99101479
_cell_angle_gamma   90.00818413
_symmetry_Int_Tables_number   1
_chemical_formula_structural   ZrScNbPdRh
_chemical_formula_sum   'Zr50 Sc50 Nb50 Pd50 Rh50'
_cell_volume   4536.04629398
_cell_formula_units_Z   50
loop_
 _symmetry_equiv_pos_site_id
 _symmetry_equiv_pos_as_xyz
  1  'x, y, z'
loop_
 _atom_site_type_symbol
 _atom_site_label
 _atom_site_symmetry_multiplicity
 _atom_site_fract_x
 _atom_site_fract_y
 _atom_site_fract_z
 _atom_site_occupancy
  Zr  Zr0  1  0.49535358  0.90541477  0.11065394  1
  Zr  Zr1  1  0.10509283  0.09919800  0.50240961  1
  Zr  Zr2  1  0.49051741  0.90461869  0.50785369  1
  Zr  Zr3  1  0.50344997  0.30650138  0.10694336  1
  Zr  Zr4  1  0.70173563  0.10499995  0.10795641  1
  Zr  Zr5  1  0.11036988  0.30271133  0.90048228  1
  Zr  Zr6  1  0.90522749  0.30023297  0.49584496  1
  Zr  Zr7  1  0.70373974  0.70234530  0.30563785  1
  Zr  Zr8  1  0.09450413  0.09919014  0.09837179  1
  Zr  Zr9  1  0.49919422  0.29342341  0.30504958  1
  Zr  Zr10  1  0.29827178  0.69122682  0.29224201  1
  Zr  Zr11  1  0.09456107  0.09897794  0.69589313  1
  Zr  Zr12  1  0.69500840  0.89566982  0.51077929  1
  Zr  Zr13  1  0.10763656  0.10858299  0.30570046  1
  Zr  Zr14  1  0.70210485  0.49381039  0.09957884  1
  Zr  Zr15  1  0.09262659  0.70306013  0.49437073  1
  Zr  Zr16  1  0.29695588  0.69808404  0.90656475  1
  Zr  Zr17  1  0.48877174  0.70547208  0.10102058  1
  Zr  Zr18  1  0.50751574  0.70333860  0.50443255  1
  Zr  Zr19  1  0.29528733  0.49395543  0.49758864  1
  Zr  Zr20  1  0.70853092  0.69727942  0.50313100  1
  Zr  Zr21  1  0.88723417  0.30348716  0.09622415  1
  Zr  Zr22  1  0.30524699  0.90584492  0.69202764  1
  Zr  Zr23  1  0.09475377  0.89369548  0.29770998  1
  Zr  Zr24  1  0.70296798  0.50553267  0.89098755  1
  Zr  Zr25  1  0.69860474  0.29555658  0.48769513  1
  Zr  Zr26  1  0.69999987  0.29121383  0.29480056  1
  Zr  Zr27  1  0.70161397  0.69693665  0.71079802  1
  Zr  Zr28  1  0.29517401  0.10367726  0.89795403  1
  Zr  Zr29  1  0.90716118  0.30158285  0.69616946  1
  Zr  Zr30  1  0.89912292  0.30249300  0.89777543  1
  Zr  Zr31  1  0.70597747  0.90454307  0.69875446  1
  Zr  Zr32  1  0.89321112  0.09352556  0.30196219  1
  Zr  Zr33  1  0.10542796  0.50350178  0.90005297  1
  Zr  Zr34  1  0.89207340  0.50289659  0.70352950  1
  Zr  Zr35  1  0.10633352  0.10372257  0.89242978  1
  Zr  Zr36  1  0.10191847  0.49863675  0.09714389  1
  Zr  Zr37  1  0.29619302  0.70118228  0.49263888  1
  Zr  Zr38  1  0.70444856  0.89850817  0.30494105  1
  Zr  Zr39  1  0.90354315  0.90184193  0.69717156  1
  Zr  Zr40  1  0.49771800  0.10258744  0.90975962  1
  Zr  Zr41  1  0.09650868  0.89575519  0.89709209  1
  Zr  Zr42  1  0.30059447  0.89246606  0.10333210  1
  Zr  Zr43  1  0.50003030  0.49318795  0.49896916  1
  Zr  Zr44  1  0.69009401  0.29362877  0.70003975  1
  Zr  Zr45  1  0.89730432  0.69754430  0.10739474  1
  Zr  Zr46  1  0.49541671  0.30648229  0.69988898  1
  Zr  Zr47  1  0.50021132  0.49945816  0.89203494  1
  Zr  Zr48  1  0.09376705  0.29783310  0.49905663  1
  Zr  Zr49  1  0.89836427  0.49413629  0.89869978  1
  Sc  Sc50  1  0.90436265  0.10195021  0.49860418  1
  Sc  Sc51  1  0.10938635  0.70601293  0.09976757  1
  Sc  Sc52  1  0.89719506  0.10515084  0.89467140  1
  Sc  Sc53  1  0.50030516  0.70571029  0.70777388  1
  Sc  Sc54  1  0.89867045  0.70070896  0.69204045  1
  Sc  Sc55  1  0.50033544  0.29373853  0.50113269  1
  Sc  Sc56  1  0.10040959  0.69634085  0.30648240  1
  Sc  Sc57  1  0.48958373  0.10600497  0.49898024  1
  Sc  Sc58  1  0.90072049  0.88747802  0.50502955  1
  Sc  Sc59  1  0.09769217  0.50010369  0.29650426  1
  Sc  Sc60  1  0.48946956  0.49152024  0.29478827  1
  Sc  Sc61  1  0.70385736  0.50036402  0.49685630  1
  Sc  Sc62  1  0.10336034  0.49245692  0.69639002  1
  Sc  Sc63  1  0.09780455  0.90644651  0.69908567  1
  Sc  Sc64  1  0.30067243  0.49776452  0.89751308  1
  Sc  Sc65  1  0.90474857  0.89953720  0.89291919  1
  Sc  Sc66  1  0.50175828  0.70544937  0.89749286  1
  Sc  Sc67  1  0.10564768  0.70276622  0.89487906  1
  Sc  Sc68  1  0.49654003  0.31079489  0.90649179  1
  Sc  Sc69  1  0.30991826  0.09574812  0.09632081  1
  Sc  Sc70  1  0.30389496  0.71130923  0.70987379  1
  Sc  Sc71  1  0.70506886  0.69759818  0.10647150  1
  Sc  Sc72  1  0.90201149  0.69929600  0.89036506  1
  Sc  Sc73  1  0.70091661  0.10020660  0.30428382  1
  Sc  Sc74  1  0.68451316  0.90097343  0.10323657  1
  Sc  Sc75  1  0.89924340  0.09679233  0.10100277  1
  Sc  Sc76  1  0.50820014  0.11469648  0.68840016  1
  Sc  Sc77  1  0.29192849  0.89630332  0.88841630  1
  Sc  Sc78  1  0.28912535  0.10110934  0.69195236  1
  Sc  Sc79  1  0.51161371  0.89786518  0.91274284  1
  Sc  Sc80  1  0.70457048  0.50078273  0.30227983  1
  Sc  Sc81  1  0.49259248  0.49175870  0.09760997  1
  Sc  Sc82  1  0.09579982  0.70389582  0.70310779  1
  Sc  Sc83  1  0.29914509  0.31122504  0.09447928  1
  Sc  Sc84  1  0.30120980  0.50453986  0.10250896  1
  Sc  Sc85  1  0.50192769  0.09108816  0.10725556  1
  Sc  Sc86  1  0.10346132  0.29594331  0.69132728  1
  Sc  Sc87  1  0.50510195  0.89538713  0.69112827  1
  Sc  Sc88  1  0.70810214  0.30540185  0.90585226  1
  Sc  Sc89  1  0.89426333  0.50142479  0.10562733  1
  Sc  Sc90  1  0.49860142  0.09687846  0.30300893  1
  Sc  Sc91  1  0.70940088  0.10783638  0.89468774  1
  Sc  Sc92  1  0.09408098  0.50179396  0.49415937  1
  Sc  Sc93  1  0.69723377  0.89598366  0.89698175  1
  Sc  Sc94  1  0.10932474  0.30990591  0.10423531  1
  Sc  Sc95  1  0.30452693  0.90807108  0.30343887  1
  Sc  Sc96  1  0.90592728  0.50297919  0.29940017  1
  Sc  Sc97  1  0.90493217  0.50300853  0.50136605  1
  Sc  Sc98  1  0.30240956  0.28989911  0.50331421  1
  Sc  Sc99  1  0.29449172  0.30559425  0.69377384  1
  Nb  Nb100  1  0.89600890  0.70821338  0.30581943  1
  Nb  Nb101  1  0.69386988  0.70398643  0.90417919  1
  Nb  Nb102  1  0.91204760  0.89998093  0.09939033  1
  Nb  Nb103  1  0.30280693  0.90756258  0.50366887  1
  Nb  Nb104  1  0.50355224  0.90114618  0.30017153  1
  Nb  Nb105  1  0.90625529  0.29469627  0.30866473  1
  Nb  Nb106  1  0.30341151  0.69711775  0.09878531  1
  Nb  Nb107  1  0.50130835  0.69844133  0.30153206  1
  Nb  Nb108  1  0.29961466  0.10499600  0.30722940  1
  Nb  Nb109  1  0.29819127  0.49623547  0.30061493  1
  Nb  Nb110  1  0.30131394  0.29729716  0.89718313  1
  Nb  Nb111  1  0.90242277  0.69718290  0.49960043  1
  Nb  Nb112  1  0.30411651  0.50062146  0.69417460  1
  Nb  Nb113  1  0.50053566  0.49854267  0.70211158  1
  Nb  Nb114  1  0.69802314  0.50026495  0.70244421  1
  Nb  Nb115  1  0.70128327  0.09597752  0.69519153  1
  Nb  Nb116  1  0.89348943  0.09686228  0.70030278  1
  Nb  Nb117  1  0.69462958  0.09631618  0.50518725  1
  Nb  Nb118  1  0.69619065  0.30037951  0.10040028  1
  Nb  Nb119  1  0.30227371  0.08955324  0.49464864  1
  Nb  Nb120  1  0.90000904  0.89434692  0.29794462  1
  Nb  Nb121  1  0.29077952  0.29624022  0.29493910  1
  Nb  Nb122  1  0.10116276  0.29741666  0.30170590  1
  Nb  Nb123  1  0.09750261  0.89846744  0.50052837  1
  Nb  Nb124  1  0.09280211  0.90429957  0.09836478  1
  Nb  Nb125  1  0.79643771  0.19731718  0.60101233  1
  Nb  Nb126  1  0.59353479  0.60183144  0.19998488  1
  Nb  Nb127  1  0.19290880  -0.00629797  0.00469598  1
  Nb  Nb128  1  0.79631947  0.39506487  0.60219353  1
  Nb  Nb129  1  0.39702585  0.20107015  0.80208920  1
  Nb  Nb130  1  0.59968075  0.00800104  0.79489689  1
  Nb  Nb131  1  0.40068219  0.60164189  0.39969939  1
  Nb  Nb132  1  0.60035278  0.60126930  0.00253890  1
  Nb  Nb133  1  0.59765585  0.59225735  0.60942191  1
  Nb  Nb134  1  0.20653796  0.60414672  0.59957862  1
  Nb  Nb135  1  0.00074001  -0.00885247  0.39836477  1
  Nb  Nb136  1  0.80345450  0.80470994  0.00380942  1
  Nb  Nb137  1  0.19672461  0.00016914  0.19631075  1
  Nb  Nb138  1  0.39361429  0.20273743  0.20605075  1
  Nb  Nb139  1  -0.00035042  0.20605190  0.20151214  1
  Nb  Nb140  1  0.00112030  0.20657575  0.00237180  1
  Nb  Nb141  1  0.00109216  0.59870914  -0.00039974  1
  Nb  Nb142  1  0.40888663  0.00812381  0.79743791  1
  Nb  Nb143  1  0.80369185  -0.00899250  0.00418417  1
  Nb  Nb144  1  0.60371613  0.20541969  0.00828927  1
  Nb  Nb145  1  0.19917783  0.80343002  0.59146776  1
  Nb  Nb146  1  0.59901562  -0.00464688  0.40688975  1
  Nb  Nb147  1  0.40119988  0.59694986  0.60151559  1
  Nb  Nb148  1  0.19898547  0.39222915  0.39280789  1
  Nb  Nb149  1  0.40462100  0.79858354  0.39779442  1
  Pd  Pd150  1  0.59658424  0.80707427  0.40301663  1
  Pd  Pd151  1  0.39134992  0.39293386  0.39817074  1
  Pd  Pd152  1  0.20410507  0.60152796  0.78967227  1
  Pd  Pd153  1  0.39863145  0.60151797  0.79626609  1
  Pd  Pd154  1  0.00900122  0.39946785  0.79577008  1
  Pd  Pd155  1  0.00358359  0.00751021  0.21022985  1
  Pd  Pd156  1  0.40567570  0.59564349  -0.00323343  1
  Pd  Pd157  1  0.60710823  0.40220504  0.59632114  1
  Pd  Pd158  1  0.19857854  0.19832366  0.00910470  1
  Pd  Pd159  1  0.80182769  0.60747124  -0.00622829  1
  Pd  Pd160  1  0.60055377  0.79280503  0.19915122  1
  Pd  Pd161  1  0.20439598  0.39890171  0.79670283  1
  Pd  Pd162  1  0.80751264  0.40303084  0.40030976  1
  Pd  Pd163  1  0.60361207  0.39338798  0.80640866  1
  Pd  Pd164  1  -0.00409859  0.39295295  0.20148965  1
  Pd  Pd165  1  0.20429430  0.19496722  0.18795809  1
  Pd  Pd166  1  0.80083753  0.20503348  0.79134389  1
  Pd  Pd167  1  0.79691271  -0.01020932  0.19216450  1
  Pd  Pd168  1  0.61452034  0.01114288  -0.00806543  1
  Pd  Pd169  1  0.19648578  0.59684612  0.19617997  1
  Pd  Pd170  1  0.00415013  0.60693695  0.19783886  1
  Pd  Pd171  1  0.39799928  0.80706459  -0.00758730  1
  Pd  Pd172  1  0.20779620  0.81055100  0.39936130  1
  Pd  Pd173  1  0.19463169  -0.00752878  0.39528720  1
  Pd  Pd174  1  0.40993161  0.81519697  0.80808497  1
  Pd  Pd175  1  -0.00294779  0.00441123  0.80272578  1
  Pd  Pd176  1  -0.00328544  0.00889977  -0.01235840  1
  Pd  Pd177  1  0.00799625  0.59749953  0.60432059  1
  Pd  Pd178  1  0.60110163  0.40232906  0.39205621  1
  Pd  Pd179  1  0.19998842  0.80303098  0.20292596  1
  Pd  Pd180  1  0.80164410  -0.00725339  0.41175118  1
  Pd  Pd181  1  0.19915880  0.80330583  0.00048955  1
  Pd  Pd182  1  0.59389384  0.59119442  0.39690240  1
  Pd  Pd183  1  0.00160805  0.59890384  0.80005432  1
  Pd  Pd184  1  0.80253115  0.80033232  0.80459859  1
  Pd  Pd185  1  0.38964438  -0.01306776  -0.01035047  1
  Pd  Pd186  1  0.00241007  0.20285353  0.80130489  1
  Pd  Pd187  1  0.80277078  0.39787346  0.21052088  1
  Pd  Pd188  1  0.80933011  0.59653778  0.39892968  1
  Pd  Pd189  1  0.40647619  0.20904472  0.00678365  1
  Pd  Pd190  1  0.00341191  0.78896456  0.20099617  1
  Pd  Pd191  1  0.39700979  0.80117670  0.21047300  1
  Pd  Pd192  1  0.79931622  0.80953067  0.19156322  1
  Pd  Pd193  1  -0.00094052  0.40048537  0.00331687  1
  Pd  Pd194  1  0.80807318  0.20305222  0.20270132  1
  Pd  Pd195  1  -0.00506492  0.78848879  -0.00175040  1
  Pd  Pd196  1  0.80990472  0.00314681  0.59055856  1
  Pd  Pd197  1  0.60274167  0.40780009  0.20855221  1
  Pd  Pd198  1  0.59271457  0.20003823  0.81291580  1
  Pd  Pd199  1  0.39882633  0.39803922  0.59802180  1
  Rh  Rh200  1  0.20295552  -0.00128314  0.80054957  1
  Rh  Rh201  1  -0.00762054  0.19058518  0.60474378  1
  Rh  Rh202  1  0.40305595  0.01303982  0.60884655  1
  Rh  Rh203  1  0.19437112  0.80503298  0.78685878  1
  Rh  Rh204  1  0.79424615  0.39285382  0.79115199  1
  Rh  Rh205  1  -0.00449053  0.00062067  0.59249094  1
  Rh  Rh206  1  0.39280889  0.19826301  0.60684748  1
  Rh  Rh207  1  0.39375543  0.20135033  0.39628681  1
  Rh  Rh208  1  -0.00482925  0.40663798  0.60035743  1
  Rh  Rh209  1  0.19607471  -0.00498173  0.59666814  1
  Rh  Rh210  1  0.60460254  0.20194077  0.59025724  1
  Rh  Rh211  1  0.79672289  0.40489478  -0.00107578  1
  Rh  Rh212  1  -0.00281369  0.18991326  0.39401960  1
  Rh  Rh213  1  0.20759886  0.40608878  -0.00422209  1
  Rh  Rh214  1  0.20591449  0.20625504  0.79035769  1
  Rh  Rh215  1  0.20199335  0.19622590  0.59431776  1
  Rh  Rh216  1  0.61013095  0.78689952  0.60972564  1
  Rh  Rh217  1  0.80065111  0.79419206  0.60271169  1
  Rh  Rh218  1  0.59930561  0.81113911  0.79656656  1
  Rh  Rh219  1  0.79351011  -0.00186832  0.80629088  1
  Rh  Rh220  1  0.19431550  0.40445423  0.58954012  1
  Rh  Rh221  1  0.79962409  0.19198831  0.00530235  1
  Rh  Rh222  1  0.40672737  -0.00413301  0.39634528  1
  Rh  Rh223  1  -0.00122912  0.80104274  0.79357187  1
  Rh  Rh224  1  0.60346770  0.00235980  0.21596998  1
  Rh  Rh225  1  0.00605124  0.40263359  0.39516925  1
  Rh  Rh226  1  0.38942630  0.79114894  0.59302859  1
  Rh  Rh227  1  0.39272433  0.00815515  0.20907685  1
  Rh  Rh228  1  0.79465626  0.60005483  0.21081451  1
  Rh  Rh229  1  0.00544800  0.79834866  0.60188478  1
  Rh  Rh230  1  0.20518437  0.20621967  0.41057845  1
  Rh  Rh231  1  0.19779477  0.60150528  0.00332101  1
  Rh  Rh232  1  0.20211531  0.40672755  0.20511307  1
  Rh  Rh233  1  -0.00585389  0.60541704  0.39458933  1
  Rh  Rh234  1  0.40345997  0.59751034  0.20418641  1
  Rh  Rh235  1  0.80187163  0.60560630  0.80332243  1
  Rh  Rh236  1  0.59115841  0.00602398  0.59937779  1
  Rh  Rh237  1  0.80478843  0.80142465  0.40718806  1
  Rh  Rh238  1  0.39330222  0.39541055  0.79873588  1
  Rh  Rh239  1  0.79942825  0.19525163  0.40599388  1
  Rh  Rh240  1  -0.00813681  0.80114607  0.39888299  1
  Rh  Rh241  1  0.59629766  0.60397337  0.80221433  1
  Rh  Rh242  1  0.59964664  0.18691714  0.40174706  1
  Rh  Rh243  1  0.20070490  0.58592687  0.40085747  1
  Rh  Rh244  1  0.79306975  0.59289432  0.60028661  1
  Rh  Rh245  1  0.59092955  0.19588496  0.19652297  1
  Rh  Rh246  1  0.39451865  0.40382780  -0.00342967  1
  Rh  Rh247  1  0.60536041  0.78891431  0.01090367  1
  Rh  Rh248  1  0.60568516  0.40383330  -0.00494208  1
  Rh  Rh249  1  0.39126827  0.39156671  0.20152255  1
