# generated using pymatgen
data_ZrScNbPdRh
_symmetry_space_group_name_H-M   'P 1'
_cell_length_a   16.56457240
_cell_length_b   16.56611311
_cell_length_c   16.55892384
_cell_angle_alpha   89.96873496
_cell_angle_beta   90.01354014
_cell_angle_gamma   89.94242878
_symmetry_Int_Tables_number   1
_chemical_formula_structural   ZrScNbPdRh
_chemical_formula_sum   'Zr50 Sc50 Nb50 Pd50 Rh50'
_cell_volume   4543.94079677
_cell_formula_units_Z   50
loop_
 _symmetry_equiv_pos_site_id
 _symmetry_equiv_pos_as_xyz
  1  'x, y, z'
loop_
 _atom_site_type_symbol
 _atom_site_label
 _atom_site_symmetry_multiplicity
 _atom_site_fract_x
 _atom_site_fract_y
 _atom_site_fract_z
 _atom_site_occupancy
  Zr  Zr0  1  0.88719266  0.49692059  0.30009272  1
  Zr  Zr1  1  0.70159343  0.50027442  0.10935222  1
  Zr  Zr2  1  0.49667207  0.29586498  0.49833893  1
  Zr  Zr3  1  0.89593301  0.70105397  0.29612904  1
  Zr  Zr4  1  0.30239307  0.90266881  0.90566306  1
  Zr  Zr5  1  0.51111646  0.49827714  0.30777809  1
  Zr  Zr6  1  0.50260854  0.10659475  0.10159605  1
  Zr  Zr7  1  0.69806958  0.29485312  0.09634892  1
  Zr  Zr8  1  0.50431850  0.29837055  0.90197831  1
  Zr  Zr9  1  0.69779706  0.09646137  0.28730035  1
  Zr  Zr10  1  0.10053608  0.30398290  0.70581753  1
  Zr  Zr11  1  0.09994437  0.91025123  0.29494459  1
  Zr  Zr12  1  0.90465188  0.29316080  0.89576548  1
  Zr  Zr13  1  0.89763353  0.51215626  0.89462760  1
  Zr  Zr14  1  0.69958269  0.49249954  0.89828160  1
  Zr  Zr15  1  0.89765303  0.09663242  0.29948092  1
  Zr  Zr16  1  0.90078221  0.50081291  0.49979367  1
  Zr  Zr17  1  0.70508342  0.50173342  0.48696726  1
  Zr  Zr18  1  0.29195998  0.30056590  0.29797521  1
  Zr  Zr19  1  0.29431964  0.91198522  0.69483639  1
  Zr  Zr20  1  0.30765606  0.50137657  0.69903660  1
  Zr  Zr21  1  0.50041573  0.10619545  0.49930024  1
  Zr  Zr22  1  0.09619537  0.89889463  0.50076462  1
  Zr  Zr23  1  0.69343407  0.69325698  0.30126171  1
  Zr  Zr24  1  0.69798001  0.31516871  0.29410504  1
  Zr  Zr25  1  0.70341268  0.09748227  0.50547783  1
  Zr  Zr26  1  0.30292812  0.50573497  0.89643692  1
  Zr  Zr27  1  0.70561482  0.69761818  0.49946510  1
  Zr  Zr28  1  0.89612765  0.89890519  0.50119373  1
  Zr  Zr29  1  0.48952401  0.69825145  0.29837447  1
  Zr  Zr30  1  0.89489122  0.89754932  0.29401735  1
  Zr  Zr31  1  0.29563378  0.30177777  0.49997744  1
  Zr  Zr32  1  0.70564926  0.29621633  0.50572408  1
  Zr  Zr33  1  0.09145468  0.69609125  0.09742481  1
  Zr  Zr34  1  0.90196093  0.29825776  0.09572724  1
  Zr  Zr35  1  0.49555592  0.10390115  0.69739805  1
  Zr  Zr36  1  0.70409916  0.69006872  0.91070249  1
  Zr  Zr37  1  0.10805323  0.30389458  0.50122595  1
  Zr  Zr38  1  0.69968476  0.09748715  0.09779102  1
  Zr  Zr39  1  0.10070673  0.30032175  0.89908855  1
  Zr  Zr40  1  0.30414149  0.91236570  0.09069719  1
  Zr  Zr41  1  0.09632387  0.10195335  0.90130711  1
  Zr  Zr42  1  0.90278390  0.89475132  0.09244580  1
  Zr  Zr43  1  0.51177504  0.89586225  0.70297681  1
  Zr  Zr44  1  0.89281973  0.10251261  0.49879116  1
  Zr  Zr45  1  0.90481512  0.89966976  0.70423738  1
  Zr  Zr46  1  0.09059520  0.69768666  0.49745622  1
  Zr  Zr47  1  0.10005380  0.49992487  0.09364254  1
  Zr  Zr48  1  0.48862971  0.29197303  0.10054953  1
  Zr  Zr49  1  0.10227196  0.49436515  0.89612923  1
  Sc  Sc50  1  0.70488529  0.10583289  0.90223866  1
  Sc  Sc51  1  0.30152712  0.30148821  0.89484070  1
  Sc  Sc52  1  0.08279915  0.69543496  0.90072332  1
  Sc  Sc53  1  0.30851112  0.69240799  0.10080117  1
  Sc  Sc54  1  0.69923669  0.70214386  0.10135946  1
  Sc  Sc55  1  0.30727896  0.50348396  0.29716465  1
  Sc  Sc56  1  0.11173448  0.10321153  0.70614085  1
  Sc  Sc57  1  0.89200890  0.29520998  0.30370196  1
  Sc  Sc58  1  0.50233339  0.89490997  0.29584033  1
  Sc  Sc59  1  0.69349895  0.90371578  0.90301771  1
  Sc  Sc60  1  0.69717448  0.29860599  0.89432010  1
  Sc  Sc61  1  0.08684750  0.70141031  0.69806263  1
  Sc  Sc62  1  0.50115137  0.89630628  0.91015820  1
  Sc  Sc63  1  0.10265760  0.49708475  0.50455114  1
  Sc  Sc64  1  0.49903556  0.29445040  0.70856283  1
  Sc  Sc65  1  0.30119356  0.10023025  0.90572820  1
  Sc  Sc66  1  0.70300802  0.89230806  0.29000994  1
  Sc  Sc67  1  0.30479317  0.90435731  0.30162119  1
  Sc  Sc68  1  0.50225876  0.70454844  0.09993364  1
  Sc  Sc69  1  0.49610951  0.90376776  0.49739192  1
  Sc  Sc70  1  0.29927927  0.91603412  0.49503545  1
  Sc  Sc71  1  0.50455947  0.89826984  0.09825811  1
  Sc  Sc72  1  0.49291285  0.49948324  0.10137118  1
  Sc  Sc73  1  0.50667450  0.70319170  0.49298225  1
  Sc  Sc74  1  0.49845852  0.69983812  0.90549767  1
  Sc  Sc75  1  0.89123009  0.09647958  0.70812685  1
  Sc  Sc76  1  0.49492348  0.49067641  0.89821491  1
  Sc  Sc77  1  0.69600183  0.70896005  0.69284736  1
  Sc  Sc78  1  0.10012495  0.50321682  0.30170598  1
  Sc  Sc79  1  0.90014736  0.69841299  0.50148111  1
  Sc  Sc80  1  0.89240120  0.09710052  0.09409433  1
  Sc  Sc81  1  0.09840735  0.49441135  0.69758285  1
  Sc  Sc82  1  0.30144731  0.49275984  0.50465548  1
  Sc  Sc83  1  0.29904891  0.49688162  0.10070479  1
  Sc  Sc84  1  0.30519712  0.10352731  0.50614823  1
  Sc  Sc85  1  0.11027226  0.10874116  0.49254486  1
  Sc  Sc86  1  0.70091736  0.10318483  0.70907653  1
  Sc  Sc87  1  0.89897303  0.09333018  0.90296213  1
  Sc  Sc88  1  0.69673510  0.90036196  0.10286407  1
  Sc  Sc89  1  0.10504890  0.08533013  0.10343238  1
  Sc  Sc90  1  0.50125872  0.10809437  0.90138189  1
  Sc  Sc91  1  0.71370211  0.49361928  0.70307358  1
  Sc  Sc92  1  0.30505953  0.69685476  0.50020953  1
  Sc  Sc93  1  0.08980395  0.90968456  0.89950882  1
  Sc  Sc94  1  0.70608237  0.89018018  0.50324825  1
  Sc  Sc95  1  0.90248449  0.49826525  0.69989210  1
  Sc  Sc96  1  0.30466278  0.69045945  0.69760877  1
  Sc  Sc97  1  0.08930365  0.69694535  0.29567095  1
  Sc  Sc98  1  0.50095537  0.70023805  0.69845734  1
  Sc  Sc99  1  0.29411583  0.29133282  0.70148838  1
  Nb  Nb100  1  0.29560060  0.29201816  0.10801479  1
  Nb  Nb101  1  0.50263022  0.10562673  0.29641398  1
  Nb  Nb102  1  0.90252512  0.89778833  0.89990664  1
  Nb  Nb103  1  0.50016734  0.50222008  0.70033130  1
  Nb  Nb104  1  0.70234708  0.50030212  0.29996432  1
  Nb  Nb105  1  0.10379966  0.29659723  0.30277085  1
  Nb  Nb106  1  0.29901113  0.70273272  0.29985999  1
  Nb  Nb107  1  0.70058862  0.89970061  0.69823572  1
  Nb  Nb108  1  0.29196840  0.10142927  0.29771476  1
  Nb  Nb109  1  0.10451636  0.30311303  0.10408471  1
  Nb  Nb110  1  0.70500403  0.30430359  0.70859643  1
  Nb  Nb111  1  0.10425182  0.10390781  0.30091413  1
  Nb  Nb112  1  0.50284203  0.49297377  0.50642807  1
  Nb  Nb113  1  0.30557873  0.10844560  0.10030757  1
  Nb  Nb114  1  0.90316780  0.69824704  0.71132019  1
  Nb  Nb115  1  0.09687529  0.90057275  0.69968440  1
  Nb  Nb116  1  0.10379534  0.89577816  0.09618926  1
  Nb  Nb117  1  0.90009883  0.49790476  0.10000695  1
  Nb  Nb118  1  0.49869625  0.29187905  0.30018602  1
  Nb  Nb119  1  0.90178731  0.69700723  0.08446141  1
  Nb  Nb120  1  0.89947062  0.30577488  0.69685903  1
  Nb  Nb121  1  0.30508662  0.10231934  0.70199168  1
  Nb  Nb122  1  0.89771341  0.70428662  0.90184451  1
  Nb  Nb123  1  0.29901306  0.70393747  0.89759040  1
  Nb  Nb124  1  0.90315428  0.29842668  0.50215675  1
  Nb  Nb125  1  0.39502804  0.80690594  0.60475904  1
  Nb  Nb126  1  -0.00086267  0.00469417  0.40035489  1
  Nb  Nb127  1  0.40090596  0.01302867  0.19923219  1
  Nb  Nb128  1  0.60064203  0.58770697  0.59994551  1
  Nb  Nb129  1  0.60437849  -0.00104454  0.59996642  1
  Nb  Nb130  1  0.19995206  0.79624188  0.39626224  1
  Nb  Nb131  1  0.20192722  0.60762575  0.39941948  1
  Nb  Nb132  1  0.00989146  0.20213347  0.20348678  1
  Nb  Nb133  1  0.20076596  0.60546658  0.80135719  1
  Nb  Nb134  1  0.00012332  0.39201497  0.39781841  1
  Nb  Nb135  1  0.19984649  0.80173765  0.60075084  1
  Nb  Nb136  1  0.60216609  0.00488773  0.40002048  1
  Nb  Nb137  1  0.40076177  -0.00218569  0.79741373  1
  Nb  Nb138  1  0.00047727  0.00651164  0.59773779  1
  Nb  Nb139  1  0.80301899  0.40259918  0.00058504  1
  Nb  Nb140  1  0.39287823  0.80380649  0.79741427  1
  Nb  Nb141  1  0.59897604  0.59359541  0.79489183  1
  Nb  Nb142  1  0.80359182  0.79925513  0.80534727  1
  Nb  Nb143  1  0.19856076  0.79904961  0.79897988  1
  Nb  Nb144  1  0.20016458  0.80111058  0.19567752  1
  Nb  Nb145  1  0.19939392  0.20424762  0.01074450  1
  Nb  Nb146  1  0.00230832  0.39326395  0.20172087  1
  Nb  Nb147  1  -0.00360078  0.20210945  0.60006747  1
  Nb  Nb148  1  0.59999701  0.40145644  0.60365421  1
  Nb  Nb149  1  0.19673616  0.79927851  -0.00085093  1
  Pd  Pd150  1  0.80414856  0.20098445  0.19934084  1
  Pd  Pd151  1  0.39872439  0.40186979  0.39436207  1
  Pd  Pd152  1  0.79848001  0.40234101  0.59682595  1
  Pd  Pd153  1  0.78922217  0.20332426  0.39254384  1
  Pd  Pd154  1  0.00083422  0.80508392  0.39320622  1
  Pd  Pd155  1  0.20060395  0.60754182  -0.00633730  1
  Pd  Pd156  1  0.20944728  -0.00243814  0.19901691  1
  Pd  Pd157  1  0.81007059  0.79320448  0.60912527  1
  Pd  Pd158  1  0.00116033  0.79965740  0.19596001  1
  Pd  Pd159  1  -0.00496852  0.40441949  -0.00141469  1
  Pd  Pd160  1  0.39902681  0.39373732  0.79522057  1
  Pd  Pd161  1  0.60425573  0.20363126  0.61072496  1
  Pd  Pd162  1  0.41076504  0.60741181  0.59061129  1
  Pd  Pd163  1  0.40446728  0.39980158  0.20659831  1
  Pd  Pd164  1  -0.00464958  0.59767790  0.60516339  1
  Pd  Pd165  1  0.00939184  0.19044948  0.01287589  1
  Pd  Pd166  1  -0.00729466  0.59067590  0.20018738  1
  Pd  Pd167  1  0.40777184  0.00711934  0.38912670  1
  Pd  Pd168  1  0.60537521  0.78902966  0.81075332  1
  Pd  Pd169  1  0.79302024  -0.00838216  0.39550722  1
  Pd  Pd170  1  0.39697206  0.59298325  0.40676055  1
  Pd  Pd171  1  0.39292171  0.80921646  0.19208659  1
  Pd  Pd172  1  0.60175097  0.40200559  0.00741635  1
  Pd  Pd173  1  0.59180069  0.59158568  -0.00342337  1
  Pd  Pd174  1  0.21108246  0.39337842  -0.00028642  1
  Pd  Pd175  1  0.80420527  0.19955727  0.61268960  1
  Pd  Pd176  1  0.80268958  0.60807537  0.19341743  1
  Pd  Pd177  1  0.79490979  -0.00837228  0.80700880  1
  Pd  Pd178  1  0.59302163  0.60177017  0.19857150  1
  Pd  Pd179  1  0.60090759  0.39343243  0.40707625  1
  Pd  Pd180  1  0.60456855  0.80785737  0.39894838  1
  Pd  Pd181  1  0.58812787  0.39679416  0.19278946  1
  Pd  Pd182  1  -0.00393469  0.19332699  0.78898342  1
  Pd  Pd183  1  0.19688452  0.40904381  0.20500820  1
  Pd  Pd184  1  0.78998127  0.61000902  0.79088929  1
  Pd  Pd185  1  0.59641487  0.00747808  0.80023656  1
  Pd  Pd186  1  0.19141981  0.00686386  0.59549250  1
  Pd  Pd187  1  0.20199949  -0.00008261  0.80709314  1
  Pd  Pd188  1  0.20178130  0.60454776  0.20376711  1
  Pd  Pd189  1  0.40403679  0.60093143  -0.00020858  1
  Pd  Pd190  1  0.39213144  0.80514093  0.40857677  1
  Pd  Pd191  1  0.39118695  0.39487039  0.00178086  1
  Pd  Pd192  1  0.39074799  0.19729018  0.39530415  1
  Pd  Pd193  1  0.79237204  0.80761592  -0.00223745  1
  Pd  Pd194  1  0.00206114  0.20037970  0.40085388  1
  Pd  Pd195  1  0.59788401  0.00454478  -0.00124932  1
  Pd  Pd196  1  0.19632816  0.60613126  0.60056020  1
  Pd  Pd197  1  -0.00573654  0.00595376  0.19667483  1
  Pd  Pd198  1  0.40401700  0.38893032  0.60904936  1
  Pd  Pd199  1  0.61010672  0.19876968  0.39236650  1
  Rh  Rh200  1  -0.00502740  0.40303028  0.80129239  1
  Rh  Rh201  1  0.20721357  0.40923456  0.79488496  1
  Rh  Rh202  1  0.79859680  0.60298744  0.60510896  1
  Rh  Rh203  1  0.00163971  0.58931755  0.40017561  1
  Rh  Rh204  1  0.19764296  0.19802901  0.60269631  1
  Rh  Rh205  1  0.80533041  0.39759116  0.19153018  1
  Rh  Rh206  1  0.59333022  0.80478286  0.59127880  1
  Rh  Rh207  1  -0.00109791  0.80224183  0.80481266  1
  Rh  Rh208  1  0.39588986  0.19328483  0.80404563  1
  Rh  Rh209  1  0.59913613  0.79428537  0.20102399  1
  Rh  Rh210  1  0.39116099  0.20541026  -0.00568493  1
  Rh  Rh211  1  0.80255391  0.20497047  0.80067029  1
  Rh  Rh212  1  0.79710747  -0.00226688  0.60733303  1
  Rh  Rh213  1  0.59724552  0.59914125  0.40436452  1
  Rh  Rh214  1  0.80251648  0.59249021  0.00838345  1
  Rh  Rh215  1  -0.00308450  -0.00088435  0.00374521  1
  Rh  Rh216  1  0.39504088  0.20653856  0.60062846  1
  Rh  Rh217  1  0.00015852  0.39322974  0.59451330  1
  Rh  Rh218  1  0.20485029  0.39910901  0.60868565  1
  Rh  Rh219  1  0.41146538  -0.00346134  0.60788585  1
  Rh  Rh220  1  0.40410907  0.59758397  0.20113123  1
  Rh  Rh221  1  0.79809758  0.79439625  0.39494358  1
  Rh  Rh222  1  -0.00219704  0.80323834  0.60470994  1
  Rh  Rh223  1  0.59813704  0.40350175  0.79044423  1
  Rh  Rh224  1  0.80475560  0.39382609  0.40408655  1
  Rh  Rh225  1  0.00781928  0.59420770  0.79631698  1
  Rh  Rh226  1  0.19636203  0.00095424  0.40013316  1
  Rh  Rh227  1  0.20513667  0.19703659  0.81169040  1
  Rh  Rh228  1  0.79865318  -0.00565380  -0.00217893  1
  Rh  Rh229  1  0.39525805  0.79492314  0.00033478  1
  Rh  Rh230  1  0.79877297  0.20585385  -0.00678753  1
  Rh  Rh231  1  0.80967379  0.39353169  0.80816493  1
  Rh  Rh232  1  0.40436645  0.60760635  0.80624553  1
  Rh  Rh233  1  0.19486697  0.00437652  -0.00377255  1
  Rh  Rh234  1  0.80213362  0.79267158  0.19173698  1
  Rh  Rh235  1  0.39543545  0.19811224  0.21245126  1
  Rh  Rh236  1  0.60317489  0.20091349  0.79989976  1
  Rh  Rh237  1  0.60241497  0.20037302  -0.00183677  1
  Rh  Rh238  1  0.80320376  -0.00614909  0.19041726  1
  Rh  Rh239  1  0.60150797  0.20909437  0.20168873  1
  Rh  Rh240  1  0.80408792  0.60595623  0.39729826  1
  Rh  Rh241  1  0.00556990  0.80415065  -0.00647081  1
  Rh  Rh242  1  0.19619782  0.41199705  0.39572838  1
  Rh  Rh243  1  0.20955759  0.19813772  0.40077329  1
  Rh  Rh244  1  0.59099349  -0.00344183  0.20615741  1
  Rh  Rh245  1  0.60372029  0.79914565  0.00118178  1
  Rh  Rh246  1  0.41181278  0.01101895  0.00157224  1
  Rh  Rh247  1  -0.00469388  0.59337304  -0.00247222  1
  Rh  Rh248  1  0.19483131  0.19334839  0.19553785  1
  Rh  Rh249  1  0.00109704  0.00548407  0.79342559  1
