# generated using pymatgen
data_ZrScNbPdRh
_symmetry_space_group_name_H-M   'P 1'
_cell_length_a   16.56010142
_cell_length_b   16.56082266
_cell_length_c   16.56078982
_cell_angle_alpha   90.01097812
_cell_angle_beta   89.98735418
_cell_angle_gamma   90.01643273
_symmetry_Int_Tables_number   1
_chemical_formula_structural   ZrScNbPdRh
_chemical_formula_sum   'Zr50 Sc50 Nb50 Pd50 Rh50'
_cell_volume   4541.77805770
_cell_formula_units_Z   50
loop_
 _symmetry_equiv_pos_site_id
 _symmetry_equiv_pos_as_xyz
  1  'x, y, z'
loop_
 _atom_site_type_symbol
 _atom_site_label
 _atom_site_symmetry_multiplicity
 _atom_site_fract_x
 _atom_site_fract_y
 _atom_site_fract_z
 _atom_site_occupancy
  Zr  Zr0  1  0.89883813  0.69665052  0.70181899  1
  Zr  Zr1  1  0.49717852  0.89898344  0.49054563  1
  Zr  Zr2  1  0.10360881  0.10736532  0.09941639  1
  Zr  Zr3  1  0.10078817  0.70487423  0.71193260  1
  Zr  Zr4  1  0.50647515  0.29723497  0.70441976  1
  Zr  Zr5  1  0.69911464  0.29972877  0.89480404  1
  Zr  Zr6  1  0.69688564  0.49897604  0.49717003  1
  Zr  Zr7  1  0.89738246  0.30845266  0.89188766  1
  Zr  Zr8  1  0.30169679  0.50255683  0.50206082  1
  Zr  Zr9  1  0.10198765  0.90275106  0.69742230  1
  Zr  Zr10  1  0.69763615  0.69537595  0.49524800  1
  Zr  Zr11  1  0.69857907  0.69649588  0.10669176  1
  Zr  Zr12  1  0.89626659  0.10303935  0.10133456  1
  Zr  Zr13  1  0.69882959  0.89744924  0.29690161  1
  Zr  Zr14  1  0.31534190  0.69872868  0.49880795  1
  Zr  Zr15  1  0.70354792  0.49352250  0.90426675  1
  Zr  Zr16  1  0.49687358  0.90643373  0.71020480  1
  Zr  Zr17  1  0.50806013  0.49586333  0.10843207  1
  Zr  Zr18  1  0.88868720  0.89718034  0.09851245  1
  Zr  Zr19  1  0.89566902  0.29603444  0.49245899  1
  Zr  Zr20  1  0.50406519  0.50387141  0.50805064  1
  Zr  Zr21  1  0.10843392  0.10083725  0.70070735  1
  Zr  Zr22  1  0.11379054  0.51205754  0.91710719  1
  Zr  Zr23  1  0.30173495  0.89793306  0.29327363  1
  Zr  Zr24  1  0.30358119  0.30526192  0.50243522  1
  Zr  Zr25  1  0.69535495  0.70480902  0.30240671  1
  Zr  Zr26  1  0.70217494  0.90013692  0.91083488  1
  Zr  Zr27  1  0.30144735  0.28654457  0.10076182  1
  Zr  Zr28  1  0.29738506  0.68788116  0.89880295  1
  Zr  Zr29  1  0.49405190  0.70031238  0.29811749  1
  Zr  Zr30  1  0.49974218  0.31374115  0.49496084  1
  Zr  Zr31  1  0.49451556  0.69376492  0.70031438  1
  Zr  Zr32  1  0.31221544  0.30468123  0.29652681  1
  Zr  Zr33  1  0.49266859  0.10274025  0.88736964  1
  Zr  Zr34  1  0.90100803  0.71481718  0.30319331  1
  Zr  Zr35  1  0.49286257  0.70317942  0.89752251  1
  Zr  Zr36  1  0.29283249  0.30084235  0.70107762  1
  Zr  Zr37  1  0.68985592  0.10854139  0.70311998  1
  Zr  Zr38  1  0.90293718  0.49283220  0.70073025  1
  Zr  Zr39  1  0.09589665  0.89037879  0.89277285  1
  Zr  Zr40  1  0.69645677  0.09297481  0.29583125  1
  Zr  Zr41  1  0.29918201  0.90085738  0.50080450  1
  Zr  Zr42  1  0.69675311  0.10791416  0.90595575  1
  Zr  Zr43  1  0.31058364  0.70341893  0.11183036  1
  Zr  Zr44  1  0.29914759  0.10239764  0.71223821  1
  Zr  Zr45  1  0.09830210  0.68747042  0.09570168  1
  Zr  Zr46  1  0.09610218  0.50170268  0.49706949  1
  Zr  Zr47  1  0.89876583  0.11221245  0.29751154  1
  Zr  Zr48  1  0.69498324  0.89840809  0.10610041  1
  Zr  Zr49  1  0.69979145  0.89357022  0.49448553  1
  Sc  Sc50  1  0.29301528  0.90136596  0.70203178  1
  Sc  Sc51  1  0.70277802  0.10132053  0.09931296  1
  Sc  Sc52  1  0.88838046  0.50314821  0.89740755  1
  Sc  Sc53  1  0.09778062  0.69100712  0.49377690  1
  Sc  Sc54  1  0.89799774  0.11314530  0.90735932  1
  Sc  Sc55  1  0.70734552  0.69023391  0.89994544  1
  Sc  Sc56  1  0.09659559  0.30651135  0.70714551  1
  Sc  Sc57  1  0.10458345  0.30267365  0.51061336  1
  Sc  Sc58  1  0.09504171  0.69436538  0.29349826  1
  Sc  Sc59  1  0.70226811  0.90725858  0.68849308  1
  Sc  Sc60  1  0.69695826  0.30234344  0.09435946  1
  Sc  Sc61  1  0.90510014  0.09900212  0.49488813  1
  Sc  Sc62  1  0.49164146  0.10644287  0.09190286  1
  Sc  Sc63  1  0.09781707  0.29274221  0.28802914  1
  Sc  Sc64  1  0.09893552  0.69634230  0.89941374  1
  Sc  Sc65  1  0.30176161  0.09829297  0.09827296  1
  Sc  Sc66  1  0.71366449  0.30343450  0.30430632  1
  Sc  Sc67  1  0.90091292  0.89481126  0.49635810  1
  Sc  Sc68  1  0.30925227  0.90378753  0.10235550  1
  Sc  Sc69  1  0.50129757  0.70558416  0.10753558  1
  Sc  Sc70  1  0.10473843  0.09745602  0.29952388  1
  Sc  Sc71  1  0.69910329  0.50386056  0.29071102  1
  Sc  Sc72  1  0.89687270  0.90005749  0.68993053  1
  Sc  Sc73  1  0.89952447  0.29730674  0.11043250  1
  Sc  Sc74  1  0.88778904  0.10798380  0.69678550  1
  Sc  Sc75  1  0.10554735  0.90681542  0.50123059  1
  Sc  Sc76  1  0.29267001  0.49424455  0.10450766  1
  Sc  Sc77  1  0.50660389  0.90780568  0.29888872  1
  Sc  Sc78  1  0.49321741  0.30144904  0.09967367  1
  Sc  Sc79  1  0.30310955  0.69798975  0.70118673  1
  Sc  Sc80  1  0.50231410  0.50087162  0.70596065  1
  Sc  Sc81  1  0.10462620  0.09555925  0.50233314  1
  Sc  Sc82  1  0.30577800  0.09867177  0.29107575  1
  Sc  Sc83  1  0.31441691  0.90041699  0.89882337  1
  Sc  Sc84  1  0.09876316  0.29633594  0.90501530  1
  Sc  Sc85  1  0.89627028  0.49192150  0.28770294  1
  Sc  Sc86  1  0.90754618  0.70300817  0.89999217  1
  Sc  Sc87  1  0.69902806  0.10093258  0.50905826  1
  Sc  Sc88  1  0.49660444  0.49151724  0.29772038  1
  Sc  Sc89  1  0.70478612  0.69435480  0.69381816  1
  Sc  Sc90  1  0.69776726  0.50234237  0.70285241  1
  Sc  Sc91  1  0.10339289  0.89416994  0.10996176  1
  Sc  Sc92  1  0.30134852  0.49306643  0.89778728  1
  Sc  Sc93  1  0.10144880  0.10972210  0.89768391  1
  Sc  Sc94  1  0.89417811  0.69502449  0.49691416  1
  Sc  Sc95  1  0.10103832  0.89835737  0.30077595  1
  Sc  Sc96  1  0.30111320  0.29841199  0.90030710  1
  Sc  Sc97  1  0.90108997  0.69698502  0.10166238  1
  Sc  Sc98  1  0.09933567  0.50245165  0.69777800  1
  Sc  Sc99  1  0.10162911  0.29591729  0.10050899  1
  Nb  Nb100  1  0.49832090  0.10202897  0.69824054  1
  Nb  Nb101  1  0.50172482  0.49777819  0.90358934  1
  Nb  Nb102  1  0.30047978  0.50261360  0.70218448  1
  Nb  Nb103  1  0.69701243  0.30489034  0.50444733  1
  Nb  Nb104  1  0.70777383  0.29427021  0.69300419  1
  Nb  Nb105  1  0.90205997  0.29724974  0.29906025  1
  Nb  Nb106  1  0.49721865  0.09932621  0.49610841  1
  Nb  Nb107  1  0.30686861  0.69733813  0.30007928  1
  Nb  Nb108  1  0.90603119  0.49385750  0.50283776  1
  Nb  Nb109  1  0.49984902  0.70054555  0.50253518  1
  Nb  Nb110  1  0.71034129  0.50221167  0.09901540  1
  Nb  Nb111  1  0.49616348  0.89517593  0.08394591  1
  Nb  Nb112  1  0.50359448  0.10290219  0.30776192  1
  Nb  Nb113  1  0.10111840  0.49400729  0.29432316  1
  Nb  Nb114  1  0.29671938  0.09927996  0.90004521  1
  Nb  Nb115  1  0.08882683  0.49685522  0.11017048  1
  Nb  Nb116  1  0.29834451  0.10582668  0.50676002  1
  Nb  Nb117  1  0.89748424  0.30310476  0.69879923  1
  Nb  Nb118  1  0.49577426  0.29642606  0.29873315  1
  Nb  Nb119  1  0.50136500  0.30092386  0.90561895  1
  Nb  Nb120  1  0.29830924  0.50504600  0.29881144  1
  Nb  Nb121  1  0.49912500  0.89775191  0.90392623  1
  Nb  Nb122  1  0.89901964  0.90191179  0.29501804  1
  Nb  Nb123  1  0.89186760  0.49529106  0.09841096  1
  Nb  Nb124  1  0.89905024  0.90273967  0.90238694  1
  Nb  Nb125  1  0.79837542  0.80769133  0.80078293  1
  Nb  Nb126  1  0.80006346  0.39508002  0.59628112  1
  Nb  Nb127  1  0.20439784  0.79890106  0.00223685  1
  Nb  Nb128  1  0.40200090  0.01068046  0.59922319  1
  Nb  Nb129  1  -0.00747030  0.00031138  0.80384366  1
  Nb  Nb130  1  0.00233607  0.39827344  0.39378249  1
  Nb  Nb131  1  -0.00178449  0.40794974  0.00812580  1
  Nb  Nb132  1  0.59149364  -0.00245504  -0.00325197  1
  Nb  Nb133  1  0.40442997  0.19743372  0.59996947  1
  Nb  Nb134  1  0.40725639  0.59323790  0.00195651  1
  Nb  Nb135  1  0.59511300  0.20305395  0.40048025  1
  Nb  Nb136  1  0.59377787  0.20118074  0.20929110  1
  Nb  Nb137  1  0.80034000  -0.00236554  0.39255062  1
  Nb  Nb138  1  0.20841552  0.20616653  0.40260007  1
  Nb  Nb139  1  0.80118762  -0.00060706  0.80698397  1
  Nb  Nb140  1  0.19808812  0.40355444  0.39232329  1
  Nb  Nb141  1  0.00368258  0.79594550  0.60181065  1
  Nb  Nb142  1  0.60414994  0.80246268  0.79853087  1
  Nb  Nb143  1  0.00139772  -0.00158698  -0.00029539  1
  Nb  Nb144  1  0.20955019  0.79046711  0.39539663  1
  Nb  Nb145  1  0.59357045  0.79652998  0.60025951  1
  Nb  Nb146  1  -0.00577890  0.00060421  0.19660174  1
  Nb  Nb147  1  -0.00274909  0.20395712  0.60382503  1
  Nb  Nb148  1  0.59745114  0.59264958  0.00151734  1
  Nb  Nb149  1  0.19639108  -0.00512642  -0.00455551  1
  Pd  Pd150  1  0.80392793  0.00438114  0.59411359  1
  Pd  Pd151  1  0.80533678  0.40844495  0.40133162  1
  Pd  Pd152  1  0.40144460  0.39924136  0.79789372  1
  Pd  Pd153  1  0.80770283  0.59199079  0.39236473  1
  Pd  Pd154  1  0.80292808  0.21193466  0.00446666  1
  Pd  Pd155  1  0.58720376  0.00778316  0.18422719  1
  Pd  Pd156  1  0.00103650  0.60714789  0.60211651  1
  Pd  Pd157  1  -0.01104347  0.58970208  0.38841782  1
  Pd  Pd158  1  0.59198881  0.20472476  0.59093360  1
  Pd  Pd159  1  0.20104205  0.60092583  0.19903726  1
  Pd  Pd160  1  0.39844541  0.19882050  0.40380155  1
  Pd  Pd161  1  0.60900046  0.38972688  0.20482287  1
  Pd  Pd162  1  0.80090951  0.58890506  0.59798984  1
  Pd  Pd163  1  -0.01179491  0.59255704  -0.00274557  1
  Pd  Pd164  1  -0.00538926  0.00481282  0.60588027  1
  Pd  Pd165  1  0.19538591  0.39484633  0.00688902  1
  Pd  Pd166  1  0.40337550  0.40060862  0.61180217  1
  Pd  Pd167  1  0.20164699  0.60660663  0.60487923  1
  Pd  Pd168  1  0.01130931  0.80500873  0.40752393  1
  Pd  Pd169  1  0.39028966  0.00287051  0.40088236  1
  Pd  Pd170  1  0.60826427  -0.00457099  0.80679946  1
  Pd  Pd171  1  0.59183109  0.59692946  0.39195537  1
  Pd  Pd172  1  0.01639605  0.20722665  0.40737241  1
  Pd  Pd173  1  0.60231569  0.60467009  0.80650743  1
  Pd  Pd174  1  -0.00385892  -0.00229174  0.39203539  1
  Pd  Pd175  1  0.40861414  0.59196834  0.39709168  1
  Pd  Pd176  1  0.00151519  0.59076860  0.80727361  1
  Pd  Pd177  1  0.78808018  0.19085433  0.40348287  1
  Pd  Pd178  1  0.19723884  0.79329701  0.20178306  1
  Pd  Pd179  1  0.01132691  0.41213788  0.81684178  1
  Pd  Pd180  1  0.20156111  0.39286753  0.20052037  1
  Pd  Pd181  1  0.19395207  0.78943158  0.58951305  1
  Pd  Pd182  1  0.19288635  0.40383124  0.80512606  1
  Pd  Pd183  1  0.40353090  0.80966405  0.60764397  1
  Pd  Pd184  1  0.60334903  0.39726107  0.38789085  1
  Pd  Pd185  1  0.20031988  0.60165813  0.39332497  1
  Pd  Pd186  1  0.20723484  0.00450334  0.39550668  1
  Pd  Pd187  1  0.80695552  0.60673088  0.20710451  1
  Pd  Pd188  1  0.60193659  0.79176625  -0.00460178  1
  Pd  Pd189  1  0.21281598  0.80074220  0.80860696  1
  Pd  Pd190  1  0.60128322  0.39997052  0.00289755  1
  Pd  Pd191  1  0.39646820  0.40248016  0.00560025  1
  Pd  Pd192  1  -0.00427293  0.19430619  0.79297868  1
  Pd  Pd193  1  0.41157373  0.00106665  0.19599232  1
  Pd  Pd194  1  0.80161262  0.78767304  -0.00312676  1
  Pd  Pd195  1  0.60461456  0.39717147  0.79599040  1
  Pd  Pd196  1  -0.01063380  0.59878559  0.20534252  1
  Pd  Pd197  1  0.59254442  -0.00618330  0.59399877  1
  Pd  Pd198  1  0.00611336  0.80414413  0.00914692  1
  Pd  Pd199  1  0.19732231  0.40685775  0.59985129  1
  Rh  Rh200  1  0.79738540  0.00698236  -0.00272749  1
  Rh  Rh201  1  0.79982148  0.19690461  0.80100591  1
  Rh  Rh202  1  0.39674083  0.58911749  0.80426582  1
  Rh  Rh203  1  0.60002642  0.59961455  0.19855230  1
  Rh  Rh204  1  0.39979968  0.59257186  0.60532531  1
  Rh  Rh205  1  -0.00208346  0.80458654  0.19565878  1
  Rh  Rh206  1  0.39952289  0.58976528  0.19598867  1
  Rh  Rh207  1  0.80207587  0.60455226  0.80000242  1
  Rh  Rh208  1  0.20956862  0.00465584  0.60205509  1
  Rh  Rh209  1  0.21435175  0.60537831  0.01460541  1
  Rh  Rh210  1  0.00254359  0.19490103  0.19867787  1
  Rh  Rh211  1  0.19469932  -0.00267471  0.81090815  1
  Rh  Rh212  1  0.39872692  0.00618559  -0.00604995  1
  Rh  Rh213  1  0.79151572  0.40007569  0.78856007  1
  Rh  Rh214  1  0.19932118  0.20810137  0.80426689  1
  Rh  Rh215  1  0.79624154  0.39431282  0.19577947  1
  Rh  Rh216  1  0.80180553  0.80598388  0.39945253  1
  Rh  Rh217  1  0.20613490  0.19861063  0.20769453  1
  Rh  Rh218  1  0.39906557  0.20116718  -0.00988730  1
  Rh  Rh219  1  0.59932973  0.60464067  0.60141138  1
  Rh  Rh220  1  0.60878880  0.40120166  0.60813876  1
  Rh  Rh221  1  0.39605008  0.40313113  0.19525980  1
  Rh  Rh222  1  0.59897412  0.20621839  0.80307727  1
  Rh  Rh223  1  0.39996585  0.80051126  0.79684236  1
  Rh  Rh224  1  0.39900756  0.80162325  0.39185087  1
  Rh  Rh225  1  0.78838241  0.20635829  0.19835342  1
  Rh  Rh226  1  0.19687623  0.20020063  0.60046675  1
  Rh  Rh227  1  0.80529352  0.20381108  0.59344848  1
  Rh  Rh228  1  0.20027158  0.59314641  0.79328586  1
  Rh  Rh229  1  0.59273061  0.79321911  0.40194767  1
  Rh  Rh230  1  -0.00431185  0.20864287  0.00232769  1
  Rh  Rh231  1  0.19317653  0.00346306  0.19131479  1
  Rh  Rh232  1  0.59270451  0.80384274  0.20037290  1
  Rh  Rh233  1  0.39577249  -0.00034496  0.79845472  1
  Rh  Rh234  1  0.80674863  0.39424200  0.00345952  1
  Rh  Rh235  1  0.79982265  0.79361109  0.60043681  1
  Rh  Rh236  1  0.79892346  0.60252780  0.00158353  1
  Rh  Rh237  1  -0.01346200  0.80858848  0.78770232  1
  Rh  Rh238  1  0.40686014  0.19387928  0.20046430  1
  Rh  Rh239  1  0.39920407  0.20932350  0.79944678  1
  Rh  Rh240  1  -0.00688095  0.38971883  0.59221879  1
  Rh  Rh241  1  0.61062474  0.00770760  0.40819377  1
  Rh  Rh242  1  0.20532493  0.19445011  -0.00311377  1
  Rh  Rh243  1  0.39464640  0.41155857  0.39756652  1
  Rh  Rh244  1  0.79918761  0.79404070  0.20063444  1
  Rh  Rh245  1  0.80614453  0.00199411  0.20445030  1
  Rh  Rh246  1  0.41033911  0.81252829  0.20470480  1
  Rh  Rh247  1  0.39152169  0.78908619  -0.00232345  1
  Rh  Rh248  1  0.59206066  0.19839060  0.00198380  1
  Rh  Rh249  1  -0.00395721  0.39518548  0.19918042  1
