# generated using pymatgen
data_ZrScNbPdRh
_symmetry_space_group_name_H-M   'P 1'
_cell_length_a   16.55981896
_cell_length_b   16.55426303
_cell_length_c   16.56126313
_cell_angle_alpha   90.00193760
_cell_angle_beta   89.93562959
_cell_angle_gamma   89.97864816
_symmetry_Int_Tables_number   1
_chemical_formula_structural   ZrScNbPdRh
_chemical_formula_sum   'Zr50 Sc50 Nb50 Pd50 Rh50'
_cell_volume   4540.02859996
_cell_formula_units_Z   50
loop_
 _symmetry_equiv_pos_site_id
 _symmetry_equiv_pos_as_xyz
  1  'x, y, z'
loop_
 _atom_site_type_symbol
 _atom_site_label
 _atom_site_symmetry_multiplicity
 _atom_site_fract_x
 _atom_site_fract_y
 _atom_site_fract_z
 _atom_site_occupancy
  Zr  Zr0  1  0.49574497  0.69894554  0.90364329  1
  Zr  Zr1  1  0.89871901  0.70339826  0.89823934  1
  Zr  Zr2  1  0.90422181  0.68364540  0.49793107  1
  Zr  Zr3  1  0.29653745  0.30513538  0.31499006  1
  Zr  Zr4  1  0.10935249  0.30408368  0.49896437  1
  Zr  Zr5  1  0.30833349  0.10334086  0.29816735  1
  Zr  Zr6  1  0.10468717  0.89571635  0.10628822  1
  Zr  Zr7  1  0.49603016  0.09896890  0.89148420  1
  Zr  Zr8  1  0.50115093  0.49915233  0.29470096  1
  Zr  Zr9  1  0.50115384  0.50060415  0.09267801  1
  Zr  Zr10  1  0.90369971  0.49447260  0.09159906  1
  Zr  Zr11  1  0.49853654  0.70641713  0.30121800  1
  Zr  Zr12  1  0.50663917  0.30381892  0.69223746  1
  Zr  Zr13  1  0.69480286  0.70089287  0.50107867  1
  Zr  Zr14  1  0.30192297  0.29426463  0.50249310  1
  Zr  Zr15  1  0.69546040  0.29521794  0.50660497  1
  Zr  Zr16  1  0.50601220  0.90496994  0.69592292  1
  Zr  Zr17  1  0.70072625  0.89948071  0.69705924  1
  Zr  Zr18  1  0.70422743  0.69777923  0.29706193  1
  Zr  Zr19  1  0.09612023  0.30100974  0.09479215  1
  Zr  Zr20  1  0.70128394  0.50245292  0.90486672  1
  Zr  Zr21  1  0.29857026  0.70726948  0.90213479  1
  Zr  Zr22  1  0.49265155  0.90238948  0.89740638  1
  Zr  Zr23  1  0.70314457  0.69637675  0.90175156  1
  Zr  Zr24  1  0.70062518  0.09623228  0.69437884  1
  Zr  Zr25  1  0.09984927  0.69871023  0.10197147  1
  Zr  Zr26  1  0.10158888  0.70421836  0.28498237  1
  Zr  Zr27  1  0.08479355  0.50406153  0.49980744  1
  Zr  Zr28  1  0.29657462  0.90059499  0.09524720  1
  Zr  Zr29  1  0.09387397  0.10496729  0.89671069  1
  Zr  Zr30  1  0.89378488  0.50429281  0.31130177  1
  Zr  Zr31  1  0.30827913  0.89703973  0.50376506  1
  Zr  Zr32  1  0.70009991  0.90281970  0.10825858  1
  Zr  Zr33  1  0.30680498  0.50301731  0.69755651  1
  Zr  Zr34  1  0.90134758  0.70014859  0.29943987  1
  Zr  Zr35  1  0.89538853  0.09884162  0.49656968  1
  Zr  Zr36  1  0.09298671  0.49286619  0.90244655  1
  Zr  Zr37  1  0.08598590  0.29052580  0.70096124  1
  Zr  Zr38  1  0.30687980  0.69952599  0.50332631  1
  Zr  Zr39  1  0.29777983  0.89707693  0.89890341  1
  Zr  Zr40  1  0.29428384  0.09694323  0.49980968  1
  Zr  Zr41  1  0.90074509  0.29421843  0.29604773  1
  Zr  Zr42  1  0.69648093  0.30681212  0.31272309  1
  Zr  Zr43  1  0.30312065  0.30706870  0.70016058  1
  Zr  Zr44  1  0.70733758  0.29241556  0.08871714  1
  Zr  Zr45  1  0.88922839  0.90179908  0.48775967  1
  Zr  Zr46  1  0.90732169  0.90082830  0.90126512  1
  Zr  Zr47  1  0.29230158  0.48594389  0.49229703  1
  Zr  Zr48  1  0.29539336  0.70409801  0.11033722  1
  Zr  Zr49  1  0.90048477  0.30338179  0.50011811  1
  Sc  Sc50  1  0.89717821  0.49768794  0.69422995  1
  Sc  Sc51  1  0.49890410  0.69079097  0.69160829  1
  Sc  Sc52  1  0.10368209  0.09285365  0.09923720  1
  Sc  Sc53  1  0.09437013  0.50120609  0.29671794  1
  Sc  Sc54  1  0.69516926  0.50146773  0.09693685  1
  Sc  Sc55  1  0.69783570  0.49749415  0.69723985  1
  Sc  Sc56  1  0.30366765  0.49374123  0.88878441  1
  Sc  Sc57  1  0.90547381  0.69475902  0.09787110  1
  Sc  Sc58  1  0.50173831  0.09633610  0.70060427  1
  Sc  Sc59  1  0.70558726  0.89182349  0.30467966  1
  Sc  Sc60  1  0.70886661  0.10706128  0.90312959  1
  Sc  Sc61  1  0.71144512  0.49739258  0.50060384  1
  Sc  Sc62  1  0.88622849  0.30394499  0.89904823  1
  Sc  Sc63  1  0.49856473  0.90012446  0.11498175  1
  Sc  Sc64  1  0.49954771  0.30856655  0.90053278  1
  Sc  Sc65  1  0.88993625  0.10662129  0.10718549  1
  Sc  Sc66  1  0.08997062  0.50057984  0.70661680  1
  Sc  Sc67  1  0.49895867  0.70625116  0.10609096  1
  Sc  Sc68  1  0.09828340  0.69835686  0.70521268  1
  Sc  Sc69  1  0.50736651  0.30437013  0.09611447  1
  Sc  Sc70  1  0.89723185  0.50176076  0.89803533  1
  Sc  Sc71  1  0.69734204  0.89929529  0.49901847  1
  Sc  Sc72  1  0.89926176  0.10324387  0.29977798  1
  Sc  Sc73  1  0.69915268  0.69463761  0.09881187  1
  Sc  Sc74  1  0.28905957  0.30146537  0.89930777  1
  Sc  Sc75  1  0.90145333  0.10927141  0.70354652  1
  Sc  Sc76  1  0.12022944  0.90787323  0.50863607  1
  Sc  Sc77  1  0.50370750  0.29412575  0.30890333  1
  Sc  Sc78  1  0.09106656  0.49878717  0.09679974  1
  Sc  Sc79  1  0.90540298  0.69448348  0.70572558  1
  Sc  Sc80  1  0.50483347  0.10518517  0.11738170  1
  Sc  Sc81  1  0.30816084  0.91020029  0.30090008  1
  Sc  Sc82  1  0.50617692  0.10965911  0.50347626  1
  Sc  Sc83  1  0.29583957  0.10573708  0.89666775  1
  Sc  Sc84  1  0.10177431  0.89368231  0.70356967  1
  Sc  Sc85  1  0.50090833  0.70570609  0.50348966  1
  Sc  Sc86  1  0.29640063  0.89584229  0.69827482  1
  Sc  Sc87  1  0.09401406  0.29215866  0.30154158  1
  Sc  Sc88  1  0.50386102  0.49934041  0.89697624  1
  Sc  Sc89  1  0.89466785  0.89994512  0.29498461  1
  Sc  Sc90  1  0.49676386  0.50437804  0.50955579  1
  Sc  Sc91  1  0.90224069  0.90154494  0.09811839  1
  Sc  Sc92  1  0.30239925  0.69982964  0.70532014  1
  Sc  Sc93  1  0.70330440  0.30447001  0.89946954  1
  Sc  Sc94  1  0.30397291  0.10199752  0.70334342  1
  Sc  Sc95  1  0.89633725  0.89698577  0.71291902  1
  Sc  Sc96  1  0.69777458  0.69087072  0.69528763  1
  Sc  Sc97  1  0.09483140  0.70169783  0.89453241  1
  Sc  Sc98  1  0.71913548  0.90456982  0.89568074  1
  Sc  Sc99  1  0.10692947  0.10990121  0.50518811  1
  Nb  Nb100  1  0.50450194  0.89323067  0.49631246  1
  Nb  Nb101  1  0.70740154  0.29875713  0.70150135  1
  Nb  Nb102  1  0.30245968  0.10233024  0.10238531  1
  Nb  Nb103  1  0.29842759  0.68626533  0.29617490  1
  Nb  Nb104  1  0.89981922  0.50205473  0.49994814  1
  Nb  Nb105  1  0.50645584  0.90433644  0.30425686  1
  Nb  Nb106  1  0.50455278  0.09338074  0.29797064  1
  Nb  Nb107  1  0.30039926  0.50395452  0.10588915  1
  Nb  Nb108  1  0.10448489  0.09576124  0.29362679  1
  Nb  Nb109  1  0.09427770  0.09650659  0.69712319  1
  Nb  Nb110  1  0.30185073  0.50537986  0.29578358  1
  Nb  Nb111  1  0.10008316  0.69902284  0.49703166  1
  Nb  Nb112  1  0.70012449  0.09319024  0.49708990  1
  Nb  Nb113  1  0.69254134  0.10044960  0.10116361  1
  Nb  Nb114  1  0.70035628  0.49828106  0.30125891  1
  Nb  Nb115  1  0.50538184  0.29670883  0.50289534  1
  Nb  Nb116  1  0.68996053  0.10137408  0.29670497  1
  Nb  Nb117  1  0.09898901  0.29664443  0.90467364  1
  Nb  Nb118  1  0.88426652  0.30121389  0.69903453  1
  Nb  Nb119  1  0.49500743  0.50187887  0.70367198  1
  Nb  Nb120  1  0.10049881  0.90290390  0.90537585  1
  Nb  Nb121  1  0.90065455  0.29822242  0.10179264  1
  Nb  Nb122  1  0.29658181  0.30009578  0.09933230  1
  Nb  Nb123  1  0.89973973  0.09650991  0.89998634  1
  Nb  Nb124  1  0.10041881  0.90230732  0.29548983  1
  Nb  Nb125  1  0.60162980  0.79947940  0.80441586  1
  Nb  Nb126  1  0.20451234  0.59762239  0.00049105  1
  Nb  Nb127  1  0.59798082  0.00149092  0.39737249  1
  Nb  Nb128  1  0.01040108  -0.00326746  0.40034390  1
  Nb  Nb129  1  0.20157785  0.60288710  0.39743753  1
  Nb  Nb130  1  0.60135032  0.80938553  -0.00476764  1
  Nb  Nb131  1  0.39142131  0.60084979  0.00395928  1
  Nb  Nb132  1  0.80691238  0.79577254  0.59735125  1
  Nb  Nb133  1  -0.00270011  0.80380196  0.59032251  1
  Nb  Nb134  1  0.40226157  0.00758041  0.00551535  1
  Nb  Nb135  1  0.20513279  0.20218515  0.19722764  1
  Nb  Nb136  1  0.40354597  -0.00377712  0.59432689  1
  Nb  Nb137  1  0.20585453  0.39849471  0.19917312  1
  Nb  Nb138  1  0.59966281  0.00222680  0.00458243  1
  Nb  Nb139  1  0.20124517  0.79500163  0.39461838  1
  Nb  Nb140  1  -0.00029560  -0.00267359  0.59655847  1
  Nb  Nb141  1  0.60526884  0.20406960  0.79386016  1
  Nb  Nb142  1  0.39540084  0.19879641  0.00669347  1
  Nb  Nb143  1  0.79918233  0.39788278  0.20165773  1
  Nb  Nb144  1  0.60301435  0.59688545  0.39505047  1
  Nb  Nb145  1  0.19774850  0.59793437  0.59319601  1
  Nb  Nb146  1  0.01080834  0.80576945  0.40216363  1
  Nb  Nb147  1  -0.00487968  0.20297777  -0.00277099  1
  Nb  Nb148  1  0.19054026  0.00186379  0.80237992  1
  Nb  Nb149  1  0.39323237  0.40003008  0.19905834  1
  Pd  Pd150  1  0.40734438  0.79838267  0.78774346  1
  Pd  Pd151  1  0.40056928  0.21204381  0.19905095  1
  Pd  Pd152  1  0.40118312  0.19382199  0.60199044  1
  Pd  Pd153  1  0.80282410  0.59605196  0.79421922  1
  Pd  Pd154  1  0.18959999  0.40650210  0.61158148  1
  Pd  Pd155  1  0.39488888  0.80577664  0.20807375  1
  Pd  Pd156  1  0.19551157  0.78854468  0.60152966  1
  Pd  Pd157  1  0.19969362  0.59778351  0.80093302  1
  Pd  Pd158  1  -0.00296261  0.40206935  0.20547782  1
  Pd  Pd159  1  0.20213606  0.20022171  0.61109563  1
  Pd  Pd160  1  0.60242065  0.21242575  0.20277597  1
  Pd  Pd161  1  0.19751329  0.19819730  0.79209900  1
  Pd  Pd162  1  0.79995631  0.19683454  0.59674306  1
  Pd  Pd163  1  0.79804751  0.00401318  0.20521221  1
  Pd  Pd164  1  0.80420544  0.58933077  0.19110736  1
  Pd  Pd165  1  0.20429243  0.00710463  -0.00618155  1
  Pd  Pd166  1  0.40406608  0.39897409  0.59520537  1
  Pd  Pd167  1  0.41107960  0.40069422  0.39949465  1
  Pd  Pd168  1  0.40732486  0.19631466  0.40423908  1
  Pd  Pd169  1  0.59027974  0.19434305  -0.00960999  1
  Pd  Pd170  1  -0.00602938  0.00326694  0.20203658  1
  Pd  Pd171  1  0.60348948  0.40759269  0.59740174  1
  Pd  Pd172  1  -0.00466298  0.00920367  0.00885244  1
  Pd  Pd173  1  0.39374263  0.39976984  0.00040225  1
  Pd  Pd174  1  0.79656043  0.79913608  0.00702056  1
  Pd  Pd175  1  0.59576311  0.60277535  0.79640610  1
  Pd  Pd176  1  0.80488529  0.79547376  0.18982048  1
  Pd  Pd177  1  0.59385325  0.40987039  0.41366378  1
  Pd  Pd178  1  0.41188877  0.00723447  0.40912637  1
  Pd  Pd179  1  0.00395848  0.79787113  0.00152048  1
  Pd  Pd180  1  -0.01331342  0.20852764  0.80803557  1
  Pd  Pd181  1  0.78776142  0.20453200  0.20619751  1
  Pd  Pd182  1  0.40383284  0.59756502  0.40529657  1
  Pd  Pd183  1  0.59724950  0.60355908  0.20101587  1
  Pd  Pd184  1  0.00202992  -0.00400110  0.79222467  1
  Pd  Pd185  1  0.40495599  0.21163366  0.80475250  1
  Pd  Pd186  1  0.60420859  0.39684216  0.79919368  1
  Pd  Pd187  1  0.81018221  -0.00657013  0.60695334  1
  Pd  Pd188  1  0.19833497  -0.00183473  0.39486397  1
  Pd  Pd189  1  0.39410517  0.79840645  0.39239696  1
  Pd  Pd190  1  0.00075715  0.39629232  0.39618646  1
  Pd  Pd191  1  0.61338649  0.00196197  0.81122762  1
  Pd  Pd192  1  0.60383622  0.39337558  0.19531239  1
  Pd  Pd193  1  0.00653194  0.19185757  0.40464046  1
  Pd  Pd194  1  0.79465630  0.19777469  0.39919895  1
  Pd  Pd195  1  -0.00455177  0.39568006  0.60329379  1
  Pd  Pd196  1  0.19334237  0.39837602  0.79250761  1
  Pd  Pd197  1  0.20345900  0.40892199  0.00260138  1
  Pd  Pd198  1  0.79815812  0.00551537  0.00497505  1
  Pd  Pd199  1  -0.01035547  0.39204194  0.80287818  1
  Rh  Rh200  1  0.38377983  -0.00399347  0.79555895  1
  Rh  Rh201  1  0.40032113  -0.00190154  0.19554145  1
  Rh  Rh202  1  0.00626709  0.60330312  -0.00721409  1
  Rh  Rh203  1  0.60465933  -0.00538284  0.20565430  1
  Rh  Rh204  1  0.80551548  0.00863541  0.79838467  1
  Rh  Rh205  1  0.00276689  0.80449123  0.79888661  1
  Rh  Rh206  1  0.39375420  0.59752448  0.59776442  1
  Rh  Rh207  1  0.19542028  0.19431252  0.39140732  1
  Rh  Rh208  1  0.80356345  0.59958162  0.00185166  1
  Rh  Rh209  1  0.79080464  0.60177478  0.40399203  1
  Rh  Rh210  1  -0.00504996  0.59673146  0.80336973  1
  Rh  Rh211  1  0.19001808  0.58798464  0.19711371  1
  Rh  Rh212  1  0.80890129  0.19385391  -0.00243623  1
  Rh  Rh213  1  0.60477695  0.79898087  0.60887244  1
  Rh  Rh214  1  -0.00780578  0.38908743  -0.01034177  1
  Rh  Rh215  1  0.79866846  0.40323406  0.00635514  1
  Rh  Rh216  1  0.60780845  0.39972732  -0.00355104  1
  Rh  Rh217  1  0.01050434  0.19202508  0.18875323  1
  Rh  Rh218  1  0.40328743  0.59842170  0.80683883  1
  Rh  Rh219  1  0.59382812  -0.00060572  0.58495080  1
  Rh  Rh220  1  -0.00538703  0.19879004  0.59603550  1
  Rh  Rh221  1  0.18913131  0.79141256  -0.00392918  1
  Rh  Rh222  1  0.80127344  0.40021391  0.59786622  1
  Rh  Rh223  1  0.78992798  0.00998914  0.38743203  1
  Rh  Rh224  1  0.79061353  0.78858537  0.78883418  1
  Rh  Rh225  1  0.80441320  0.78742104  0.40545753  1
  Rh  Rh226  1  0.79636464  0.19745423  0.80017966  1
  Rh  Rh227  1  0.41052706  0.59640330  0.19357671  1
  Rh  Rh228  1  -0.00530781  0.59415669  0.20000660  1
  Rh  Rh229  1  0.60149829  0.19197966  0.40171518  1
  Rh  Rh230  1  0.18831443  0.40859534  0.39009822  1
  Rh  Rh231  1  -0.00789807  0.80585449  0.20094594  1
  Rh  Rh232  1  0.20700981  0.00295142  0.20313289  1
  Rh  Rh233  1  0.60018980  0.59291377  0.59394832  1
  Rh  Rh234  1  0.79628370  0.40598404  0.79594210  1
  Rh  Rh235  1  0.59134790  0.60848622  0.00294442  1
  Rh  Rh236  1  0.40926840  0.80382843  0.00911272  1
  Rh  Rh237  1  0.20291495  0.00650935  0.61446030  1
  Rh  Rh238  1  0.40364688  0.39719299  0.79809627  1
  Rh  Rh239  1  0.19369066  0.80637181  0.80472009  1
  Rh  Rh240  1  0.00429522  0.60371552  0.60813000  1
  Rh  Rh241  1  0.60467570  0.80104174  0.19992284  1
  Rh  Rh242  1  0.80467014  0.39704342  0.39998585  1
  Rh  Rh243  1  0.60163789  0.79899914  0.39444383  1
  Rh  Rh244  1  0.80218661  0.60064132  0.60022364  1
  Rh  Rh245  1  0.60476295  0.19760533  0.60511467  1
  Rh  Rh246  1  0.40896378  0.80527615  0.60495701  1
  Rh  Rh247  1  0.19654297  0.19810529  0.00587800  1
  Rh  Rh248  1  0.00802618  0.60745240  0.38795780  1
  Rh  Rh249  1  0.21251156  0.81279967  0.21074090  1
