# generated using pymatgen
data_ZrScNbPdRh
_symmetry_space_group_name_H-M   'P 1'
_cell_length_a   16.55469464
_cell_length_b   16.55837531
_cell_length_c   16.55446264
_cell_angle_alpha   89.98623126
_cell_angle_beta   90.00378847
_cell_angle_gamma   90.05527944
_symmetry_Int_Tables_number   1
_chemical_formula_structural   ZrScNbPdRh
_chemical_formula_sum   'Zr50 Sc50 Nb50 Pd50 Rh50'
_cell_volume   4537.88795799
_cell_formula_units_Z   50
loop_
 _symmetry_equiv_pos_site_id
 _symmetry_equiv_pos_as_xyz
  1  'x, y, z'
loop_
 _atom_site_type_symbol
 _atom_site_label
 _atom_site_symmetry_multiplicity
 _atom_site_fract_x
 _atom_site_fract_y
 _atom_site_fract_z
 _atom_site_occupancy
  Zr  Zr0  1  0.10101043  0.50792766  0.10219215  1
  Zr  Zr1  1  0.10256448  0.90062776  0.29322941  1
  Zr  Zr2  1  0.10489004  0.30515273  0.29897339  1
  Zr  Zr3  1  0.70222310  0.10300322  0.29976305  1
  Zr  Zr4  1  0.10649405  0.10032804  0.89645704  1
  Zr  Zr5  1  0.50289649  0.09327632  0.29950746  1
  Zr  Zr6  1  0.49893998  0.29756589  0.09431387  1
  Zr  Zr7  1  0.70206543  0.49571929  0.29969894  1
  Zr  Zr8  1  0.29784464  0.09590405  0.50721628  1
  Zr  Zr9  1  0.30394711  0.69937779  0.69796396  1
  Zr  Zr10  1  0.69834421  0.30114980  0.49364507  1
  Zr  Zr11  1  0.48857393  0.30567850  0.50617886  1
  Zr  Zr12  1  0.90161939  0.70298262  0.91021896  1
  Zr  Zr13  1  0.90172983  0.10054616  0.50937771  1
  Zr  Zr14  1  0.70184006  0.90339165  0.30474108  1
  Zr  Zr15  1  0.69953009  0.89852039  0.89073647  1
  Zr  Zr16  1  0.89762631  0.89787736  0.69705990  1
  Zr  Zr17  1  0.90867851  0.70341457  0.70535130  1
  Zr  Zr18  1  0.70335991  0.69394468  0.09104455  1
  Zr  Zr19  1  0.49973547  0.10225323  0.09051973  1
  Zr  Zr20  1  0.30106454  0.50227697  0.89973400  1
  Zr  Zr21  1  0.89796052  0.90443260  0.50468358  1
  Zr  Zr22  1  0.10154561  0.50344890  0.90242988  1
  Zr  Zr23  1  0.49607015  0.30047878  0.70447564  1
  Zr  Zr24  1  0.30155828  0.10506834  0.09055756  1
  Zr  Zr25  1  0.29737050  0.49922005  0.49659883  1
  Zr  Zr26  1  0.48900204  0.89855972  0.49545161  1
  Zr  Zr27  1  0.09856402  0.10525462  0.51889028  1
  Zr  Zr28  1  0.89501641  0.50091618  0.70046824  1
  Zr  Zr29  1  0.49267745  0.09403906  0.89350761  1
  Zr  Zr30  1  0.69191712  0.30355026  0.70338785  1
  Zr  Zr31  1  0.70083177  0.09034356  0.49555189  1
  Zr  Zr32  1  0.10840850  0.50503409  0.30702899  1
  Zr  Zr33  1  0.10785101  0.49741069  0.70424807  1
  Zr  Zr34  1  0.88950125  0.30479881  0.30290507  1
  Zr  Zr35  1  0.09865157  0.89541729  0.90591061  1
  Zr  Zr36  1  0.30014380  0.10659516  0.71106807  1
  Zr  Zr37  1  0.90797561  0.70284756  0.30144195  1
  Zr  Zr38  1  0.30135491  0.29784660  0.09997921  1
  Zr  Zr39  1  0.30190824  0.29999134  0.89771908  1
  Zr  Zr40  1  0.70002857  0.69725223  0.30153971  1
  Zr  Zr41  1  0.09174883  0.09432310  0.09744224  1
  Zr  Zr42  1  0.10676104  0.30967191  0.50422449  1
  Zr  Zr43  1  0.70634134  0.89716336  0.50261024  1
  Zr  Zr44  1  0.90618986  0.50861151  0.09519602  1
  Zr  Zr45  1  0.48868657  0.90099916  0.09264770  1
  Zr  Zr46  1  0.49469521  0.89916970  0.29943986  1
  Zr  Zr47  1  0.30373458  0.90340046  0.30627021  1
  Zr  Zr48  1  0.89772704  0.29712425  0.70302009  1
  Zr  Zr49  1  0.49909020  0.49436984  0.69586437  1
  Sc  Sc50  1  0.89528850  0.30234328  0.49529745  1
  Sc  Sc51  1  0.10385907  0.29367429  0.70189640  1
  Sc  Sc52  1  0.69497012  0.30005232  0.89377312  1
  Sc  Sc53  1  0.30495373  0.30608087  0.69887313  1
  Sc  Sc54  1  0.69951863  0.70232407  0.70206070  1
  Sc  Sc55  1  0.10264371  0.70330887  0.89189582  1
  Sc  Sc56  1  0.30253423  0.09890491  0.29604022  1
  Sc  Sc57  1  0.10373650  0.29622704  0.10210616  1
  Sc  Sc58  1  0.50036096  0.29413354  0.30519229  1
  Sc  Sc59  1  0.50394963  0.30289275  0.89878440  1
  Sc  Sc60  1  0.10347380  0.70245818  0.29348190  1
  Sc  Sc61  1  0.30521135  0.49621244  0.70600278  1
  Sc  Sc62  1  0.89801489  0.10433886  0.28793417  1
  Sc  Sc63  1  0.90799485  0.90137372  0.08943809  1
  Sc  Sc64  1  0.89282509  0.71015440  0.50108015  1
  Sc  Sc65  1  0.10103398  0.88553161  0.70507215  1
  Sc  Sc66  1  0.29321421  0.50278156  0.09317208  1
  Sc  Sc67  1  0.70169884  0.30204573  0.30045694  1
  Sc  Sc68  1  0.90738749  0.10169539  0.69905693  1
  Sc  Sc69  1  0.69649224  0.70011810  0.89802749  1
  Sc  Sc70  1  0.89609458  0.29399769  0.89872794  1
  Sc  Sc71  1  0.89419799  0.09709763  0.09550078  1
  Sc  Sc72  1  0.69973805  0.09824044  0.90397286  1
  Sc  Sc73  1  0.70224601  0.89956413  0.70104740  1
  Sc  Sc74  1  0.10149348  0.70646355  0.10396008  1
  Sc  Sc75  1  0.89823607  0.29812211  0.10122542  1
  Sc  Sc76  1  0.49269152  0.69123831  0.29733411  1
  Sc  Sc77  1  0.69146405  0.08970419  0.70723104  1
  Sc  Sc78  1  0.29850025  0.69869070  0.09804216  1
  Sc  Sc79  1  0.69135284  0.30685244  0.10078413  1
  Sc  Sc80  1  0.10611542  0.09885037  0.28673072  1
  Sc  Sc81  1  0.10173607  0.70319809  0.49249110  1
  Sc  Sc82  1  0.29472610  0.90017006  0.90391331  1
  Sc  Sc83  1  0.69454473  0.49590550  0.69508321  1
  Sc  Sc84  1  0.51100301  0.49819404  0.09601793  1
  Sc  Sc85  1  0.29552578  0.89004363  0.70037039  1
  Sc  Sc86  1  0.29710588  0.89133269  0.09837686  1
  Sc  Sc87  1  0.71035001  0.90285986  0.08497221  1
  Sc  Sc88  1  0.49828790  0.68850495  0.69977813  1
  Sc  Sc89  1  0.09933893  0.89660376  0.10160841  1
  Sc  Sc90  1  0.90024156  0.10294469  0.90431040  1
  Sc  Sc91  1  0.29792256  0.50516058  0.30083123  1
  Sc  Sc92  1  0.90538572  0.89811570  0.29882661  1
  Sc  Sc93  1  0.29954852  0.69117821  0.30014407  1
  Sc  Sc94  1  0.50988904  0.90298641  0.71071861  1
  Sc  Sc95  1  0.70462729  0.69225673  0.49802519  1
  Sc  Sc96  1  0.09837322  0.29808189  0.89724417  1
  Sc  Sc97  1  0.49969164  0.50342488  0.30459066  1
  Sc  Sc98  1  0.49892173  0.10018733  0.49625883  1
  Sc  Sc99  1  0.10664256  0.90881613  0.50890093  1
  Nb  Nb100  1  0.48680877  0.70197366  0.50391856  1
  Nb  Nb101  1  0.31085181  0.70601682  0.50369930  1
  Nb  Nb102  1  0.69777599  0.09443427  0.10010899  1
  Nb  Nb103  1  0.09476819  0.10189900  0.70406089  1
  Nb  Nb104  1  0.29759062  0.29946437  0.29888903  1
  Nb  Nb105  1  0.90048381  0.49785780  0.29879629  1
  Nb  Nb106  1  0.69773887  0.49816997  0.50074464  1
  Nb  Nb107  1  0.49758037  0.89439930  0.90066571  1
  Nb  Nb108  1  0.09988843  0.69536280  0.70152557  1
  Nb  Nb109  1  0.49629882  0.69624935  0.90033353  1
  Nb  Nb110  1  0.50027564  0.50556964  0.50525032  1
  Nb  Nb111  1  0.90513499  0.50390404  0.90199756  1
  Nb  Nb112  1  0.30603866  0.89489370  0.50303650  1
  Nb  Nb113  1  0.90003714  0.70246647  0.10372375  1
  Nb  Nb114  1  0.69827025  0.50250374  0.90742769  1
  Nb  Nb115  1  0.90012739  0.90039250  0.90067748  1
  Nb  Nb116  1  0.70420322  0.49828431  0.09974647  1
  Nb  Nb117  1  0.49930902  0.70512786  0.09766419  1
  Nb  Nb118  1  0.10310944  0.50012968  0.50027095  1
  Nb  Nb119  1  0.50311109  0.50484756  0.89251518  1
  Nb  Nb120  1  0.89642113  0.50150262  0.50079698  1
  Nb  Nb121  1  0.49585924  0.10251105  0.70070417  1
  Nb  Nb122  1  0.30156496  0.29939211  0.49794744  1
  Nb  Nb123  1  0.29848147  0.10217972  0.89806419  1
  Nb  Nb124  1  0.30505164  0.69728239  0.90427647  1
  Nb  Nb125  1  0.59021084  0.79823386  -0.00161769  1
  Nb  Nb126  1  -0.00226091  0.59070435  0.40562340  1
  Nb  Nb127  1  0.59787876  0.19922027  0.60227096  1
  Nb  Nb128  1  0.21060780  0.80527628  0.40503400  1
  Nb  Nb129  1  0.59338686  0.79712169  0.59115491  1
  Nb  Nb130  1  0.00408372  0.59736944  0.59681046  1
  Nb  Nb131  1  0.60064831  0.80208114  0.19477690  1
  Nb  Nb132  1  -0.00343480  0.40553247  0.79902048  1
  Nb  Nb133  1  -0.00059281  0.40763176  0.59956344  1
  Nb  Nb134  1  0.80442387  0.59834339  0.19755279  1
  Nb  Nb135  1  0.40380929  0.79377021  0.80891674  1
  Nb  Nb136  1  0.39887397  -0.00082794  0.60568912  1
  Nb  Nb137  1  0.80288765  0.59355147  0.80858477  1
  Nb  Nb138  1  0.00304767  -0.00295397  0.80170952  1
  Nb  Nb139  1  0.19774431  0.60299999  0.59788040  1
  Nb  Nb140  1  0.00487966  0.00865592  0.40181290  1
  Nb  Nb141  1  0.20048672  0.20361992  0.40245193  1
  Nb  Nb142  1  -0.00116724  0.40700280  0.20504433  1
  Nb  Nb143  1  0.79904036  0.40994896  -0.00257227  1
  Nb  Nb144  1  0.60327615  -0.00236908  0.19163500  1
  Nb  Nb145  1  0.59390790  0.79635968  0.40131855  1
  Nb  Nb146  1  0.00691017  0.19847218  0.40070498  1
  Nb  Nb147  1  0.39684446  0.39553748  0.19957551  1
  Nb  Nb148  1  0.79895423  0.79415144  0.19514528  1
  Nb  Nb149  1  0.78940822  0.19873021  0.60117576  1
  Pd  Pd150  1  0.20677236  0.60386286  0.79827873  1
  Pd  Pd151  1  0.80963192  0.00661292  0.79974236  1
  Pd  Pd152  1  0.79496523  0.18980215  0.79388958  1
  Pd  Pd153  1  0.20454194  -0.00325014  0.61526447  1
  Pd  Pd154  1  0.60358068  0.19691442  0.19868948  1
  Pd  Pd155  1  0.19557429  0.39624530  -0.00154626  1
  Pd  Pd156  1  0.40458504  0.59434686  0.00737694  1
  Pd  Pd157  1  0.79958695  0.39474239  0.59568624  1
  Pd  Pd158  1  0.60475315  0.20110866  -0.00679820  1
  Pd  Pd159  1  0.80627211  0.59605432  0.39694924  1
  Pd  Pd160  1  0.40199785  0.20274591  0.20307927  1
  Pd  Pd161  1  0.39348201  -0.01258593  0.79713385  1
  Pd  Pd162  1  0.59061152  -0.00282216  0.59821831  1
  Pd  Pd163  1  0.60255463  0.60216457  0.19755172  1
  Pd  Pd164  1  0.01194341  0.61317754  -0.00080532  1
  Pd  Pd165  1  0.19527975  0.00332350  0.40159898  1
  Pd  Pd166  1  0.80130272  0.60630876  0.60697055  1
  Pd  Pd167  1  0.60077586  0.60578034  0.59679874  1
  Pd  Pd168  1  -0.00333911  0.39950955  0.40063119  1
  Pd  Pd169  1  0.60650539  0.59698061  0.79680138  1
  Pd  Pd170  1  0.80152771  -0.00996564  0.19445737  1
  Pd  Pd171  1  0.20288889  0.40598118  0.19783599  1
  Pd  Pd172  1  0.00623056  0.79688660  0.59274030  1
  Pd  Pd173  1  0.39831785  0.40548155  0.39260161  1
  Pd  Pd174  1  0.78971200  0.20879798  0.00526862  1
  Pd  Pd175  1  0.59277162  0.60441454  0.40831241  1
  Pd  Pd176  1  0.59519200  0.40197197  0.40147013  1
  Pd  Pd177  1  0.20831298  0.20702034  0.60477653  1
  Pd  Pd178  1  0.59991042  -0.00682032  -0.00348502  1
  Pd  Pd179  1  0.39975987  0.58828694  0.18920179  1
  Pd  Pd180  1  0.81608882  0.00503469  0.39261282  1
  Pd  Pd181  1  0.01182763  0.80921364  0.40546825  1
  Pd  Pd182  1  0.59698986  0.20066208  0.40541141  1
  Pd  Pd183  1  0.58967330  0.39910212  0.20621859  1
  Pd  Pd184  1  0.39864660  0.00370517  0.19141260  1
  Pd  Pd185  1  0.20695141  -0.00050973  0.18950903  1
  Pd  Pd186  1  0.19600077  0.20285777  -0.00124321  1
  Pd  Pd187  1  0.39689650  0.79356286  0.20348264  1
  Pd  Pd188  1  0.19536945  0.79235071  0.59427939  1
  Pd  Pd189  1  0.80135091  0.79140527  0.80234512  1
  Pd  Pd190  1  0.00037569  0.20123814  -0.00168323  1
  Pd  Pd191  1  -0.00096106  0.20764003  0.20381740  1
  Pd  Pd192  1  -0.00422173  0.39124871  -0.00020034  1
  Pd  Pd193  1  0.80026874  0.40540997  0.81070961  1
  Pd  Pd194  1  0.59449805  0.60206133  -0.00060380  1
  Pd  Pd195  1  0.79129124  0.20570968  0.19004758  1
  Pd  Pd196  1  0.19448130  -0.00513361  0.79441731  1
  Pd  Pd197  1  0.20258276  -0.00326995  0.00548693  1
  Pd  Pd198  1  0.40577030  0.40743988  0.00167112  1
  Pd  Pd199  1  0.39345704  0.19440217  0.39904892  1
  Rh  Rh200  1  0.80227800  0.00170867  -0.00645504  1
  Rh  Rh201  1  0.59657657  -0.00639862  0.39475271  1
  Rh  Rh202  1  0.20706535  0.79993492  0.20936917  1
  Rh  Rh203  1  0.40118649  0.19967569  -0.01118597  1
  Rh  Rh204  1  0.19955241  0.79547073  -0.00194369  1
  Rh  Rh205  1  0.79408403  0.40838936  0.40464172  1
  Rh  Rh206  1  0.60350277  0.40211124  -0.00597207  1
  Rh  Rh207  1  0.19685115  0.39444745  0.80414802  1
  Rh  Rh208  1  0.40073031  0.20514056  0.80478712  1
  Rh  Rh209  1  -0.00528536  0.80487066  0.19389527  1
  Rh  Rh210  1  0.20158523  0.20527151  0.79834841  1
  Rh  Rh211  1  0.39588689  0.00860166  0.40804200  1
  Rh  Rh212  1  0.00261868  0.79747252  0.00123229  1
  Rh  Rh213  1  -0.00418958  -0.00156004  0.20172548  1
  Rh  Rh214  1  0.80819430  0.40567055  0.18864796  1
  Rh  Rh215  1  0.79811164  0.80290001  -0.00098570  1
  Rh  Rh216  1  -0.00079206  0.59692300  0.20914710  1
  Rh  Rh217  1  -0.00124334  0.00129973  -0.00802151  1
  Rh  Rh218  1  -0.00432385  0.59659212  0.79720228  1
  Rh  Rh219  1  0.21093201  0.39477447  0.39944866  1
  Rh  Rh220  1  0.00578190  -0.00993373  0.61006209  1
  Rh  Rh221  1  0.59199300  0.79429793  0.79997567  1
  Rh  Rh222  1  0.00199394  0.19762385  0.80292511  1
  Rh  Rh223  1  0.79505062  0.80047684  0.39467007  1
  Rh  Rh224  1  0.39437742  0.40531125  0.59840567  1
  Rh  Rh225  1  0.20482160  0.40364388  0.60284760  1
  Rh  Rh226  1  0.79858147  0.00866361  0.61043968  1
  Rh  Rh227  1  0.39812733  0.79657967  -0.00592468  1
  Rh  Rh228  1  0.39371838  0.59071357  0.59672578  1
  Rh  Rh229  1  0.41199408  0.81084467  0.61795411  1
  Rh  Rh230  1  0.59596941  0.19370164  0.79643251  1
  Rh  Rh231  1  0.40393494  0.40266933  0.80733361  1
  Rh  Rh232  1  0.39917104  0.60076209  0.80146619  1
  Rh  Rh233  1  0.80169017  0.59646048  -0.00196685  1
  Rh  Rh234  1  0.38970746  0.00059567  -0.00661984  1
  Rh  Rh235  1  -0.00902652  0.21578225  0.59621085  1
  Rh  Rh236  1  -0.00190470  0.80648603  0.80521216  1
  Rh  Rh237  1  0.59735368  0.40838812  0.80443415  1
  Rh  Rh238  1  0.40021693  0.59765907  0.40619839  1
  Rh  Rh239  1  0.59797463  0.39585365  0.59225460  1
  Rh  Rh240  1  0.79033406  0.79469401  0.60318041  1
  Rh  Rh241  1  0.40211120  0.19445010  0.60153847  1
  Rh  Rh242  1  0.80743324  0.19214336  0.40447087  1
  Rh  Rh243  1  0.20015833  0.61300384  0.40754568  1
  Rh  Rh244  1  0.20151809  0.60351536  0.19595214  1
  Rh  Rh245  1  0.39712879  0.78937939  0.38939972  1
  Rh  Rh246  1  0.19683359  0.60847453  -0.00280253  1
  Rh  Rh247  1  0.21024622  0.79066579  0.80620922  1
  Rh  Rh248  1  0.59831313  0.00193681  0.80718923  1
  Rh  Rh249  1  0.20365526  0.19597716  0.20130909  1
