# generated using pymatgen
data_ZrScNbPdRh
_symmetry_space_group_name_H-M   'P 1'
_cell_length_a   16.55645288
_cell_length_b   16.55076765
_cell_length_c   16.55240965
_cell_angle_alpha   89.99589577
_cell_angle_beta   90.03557213
_cell_angle_gamma   89.96632932
_symmetry_Int_Tables_number   1
_chemical_formula_structural   ZrScNbPdRh
_chemical_formula_sum   'Zr50 Sc50 Nb50 Pd50 Rh50'
_cell_volume   4535.72280493
_cell_formula_units_Z   50
loop_
 _symmetry_equiv_pos_site_id
 _symmetry_equiv_pos_as_xyz
  1  'x, y, z'
loop_
 _atom_site_type_symbol
 _atom_site_label
 _atom_site_symmetry_multiplicity
 _atom_site_fract_x
 _atom_site_fract_y
 _atom_site_fract_z
 _atom_site_occupancy
  Zr  Zr0  1  0.70199745  0.89548800  0.49534216  1
  Zr  Zr1  1  0.10738491  0.50120107  0.09489070  1
  Zr  Zr2  1  0.50282850  0.11088933  0.89031696  1
  Zr  Zr3  1  0.88663565  0.69894685  0.49973748  1
  Zr  Zr4  1  0.09152570  0.10551671  0.90941379  1
  Zr  Zr5  1  0.89521415  0.09572208  0.90325865  1
  Zr  Zr6  1  0.09336625  0.69323085  0.51030802  1
  Zr  Zr7  1  0.30144801  0.70698784  0.30347833  1
  Zr  Zr8  1  0.70506974  0.50557955  0.50586447  1
  Zr  Zr9  1  0.71221513  0.89836756  0.89565417  1
  Zr  Zr10  1  0.51124325  0.29156338  0.10452750  1
  Zr  Zr11  1  0.09435486  0.90279837  0.69676840  1
  Zr  Zr12  1  0.09924596  0.50939882  0.69888278  1
  Zr  Zr13  1  0.49807992  0.29542031  0.70723748  1
  Zr  Zr14  1  0.50128053  0.69091626  0.31183073  1
  Zr  Zr15  1  0.69738663  0.30384726  0.69785211  1
  Zr  Zr16  1  0.10192820  0.10015640  0.49974852  1
  Zr  Zr17  1  0.69433718  0.88894007  0.10952643  1
  Zr  Zr18  1  0.49951216  0.90092514  0.10218084  1
  Zr  Zr19  1  0.50588806  0.09645209  0.49721740  1
  Zr  Zr20  1  0.90145312  0.89093227  0.09399940  1
  Zr  Zr21  1  0.89570153  0.30422387  0.69680595  1
  Zr  Zr22  1  0.29595575  0.49188449  0.50561829  1
  Zr  Zr23  1  0.10277322  0.70012278  0.70206615  1
  Zr  Zr24  1  0.30310325  0.49716121  0.09521401  1
  Zr  Zr25  1  0.30237071  0.50106807  0.31099880  1
  Zr  Zr26  1  0.30751511  0.89987438  0.69944464  1
  Zr  Zr27  1  0.69433061  0.11293394  0.10358152  1
  Zr  Zr28  1  0.50845418  0.70374690  0.50538573  1
  Zr  Zr29  1  0.49782192  0.09708583  0.69140747  1
  Zr  Zr30  1  0.10377713  0.11201801  0.10530196  1
  Zr  Zr31  1  0.09394162  0.90060821  0.89914706  1
  Zr  Zr32  1  0.29838404  0.30880284  0.69427845  1
  Zr  Zr33  1  0.49912996  0.89171621  0.90565709  1
  Zr  Zr34  1  0.09540816  0.29072913  0.29485978  1
  Zr  Zr35  1  0.69580429  0.69104104  0.90560836  1
  Zr  Zr36  1  0.89384444  0.71152905  0.90182151  1
  Zr  Zr37  1  0.69446279  0.29741042  0.90594278  1
  Zr  Zr38  1  0.30293712  0.30043831  0.89027382  1
  Zr  Zr39  1  0.08825600  0.70571324  0.10493315  1
  Zr  Zr40  1  0.89796746  0.50191415  0.50427861  1
  Zr  Zr41  1  0.69922490  0.09871737  0.89998746  1
  Zr  Zr42  1  0.10876834  0.30269055  0.90229903  1
  Zr  Zr43  1  0.89232332  0.49905818  0.90244867  1
  Zr  Zr44  1  0.70044324  0.49738440  0.70270314  1
  Zr  Zr45  1  0.49991692  0.69856102  0.89758672  1
  Zr  Zr46  1  0.51224521  0.70575650  0.08939317  1
  Zr  Zr47  1  0.29995008  0.09970521  0.10608428  1
  Zr  Zr48  1  0.10537036  0.89354273  0.29974716  1
  Zr  Zr49  1  0.09905038  0.69575577  0.89491779  1
  Sc  Sc50  1  0.09815660  0.70077027  0.29479017  1
  Sc  Sc51  1  0.69930628  0.29902293  0.50053561  1
  Sc  Sc52  1  0.51639008  0.49810387  0.10466187  1
  Sc  Sc53  1  0.69882087  0.49607505  0.29812056  1
  Sc  Sc54  1  0.10464984  0.90010513  0.49826676  1
  Sc  Sc55  1  0.50247688  0.50133153  0.69565763  1
  Sc  Sc56  1  0.30492221  0.69834471  0.08709086  1
  Sc  Sc57  1  0.31256819  0.09929951  0.30184606  1
  Sc  Sc58  1  0.10776586  0.29883408  0.70064929  1
  Sc  Sc59  1  0.30837322  0.89678556  0.48907172  1
  Sc  Sc60  1  0.69752882  0.90014241  0.30665151  1
  Sc  Sc61  1  0.50498045  0.50586753  0.49295147  1
  Sc  Sc62  1  0.30179808  0.90348168  0.89600307  1
  Sc  Sc63  1  0.29997383  0.10072589  0.70159507  1
  Sc  Sc64  1  0.90095327  0.69089311  0.29134617  1
  Sc  Sc65  1  0.31121512  0.69569438  0.49718688  1
  Sc  Sc66  1  0.89814133  0.29982172  0.10779420  1
  Sc  Sc67  1  0.89992853  0.29550123  0.90328346  1
  Sc  Sc68  1  0.50169141  0.10350351  0.30275039  1
  Sc  Sc69  1  0.49885295  0.89803905  0.69188538  1
  Sc  Sc70  1  0.30459537  0.90520504  0.09513783  1
  Sc  Sc71  1  0.29717337  0.09906895  0.90324716  1
  Sc  Sc72  1  0.30756134  0.09383718  0.49380054  1
  Sc  Sc73  1  0.50614438  0.50722678  0.89235696  1
  Sc  Sc74  1  0.89739847  0.90155336  0.50290681  1
  Sc  Sc75  1  0.69825153  0.89871584  0.69709280  1
  Sc  Sc76  1  0.69949999  0.49503842  0.90317297  1
  Sc  Sc77  1  0.90128437  0.70664407  0.69419813  1
  Sc  Sc78  1  0.89319622  0.50291523  0.11304287  1
  Sc  Sc79  1  0.30649012  0.69900012  0.89565399  1
  Sc  Sc80  1  0.10298208  0.50471413  0.50562192  1
  Sc  Sc81  1  0.90228647  0.10753976  0.30533878  1
  Sc  Sc82  1  0.10446739  0.30082827  0.50669391  1
  Sc  Sc83  1  0.69780061  0.29628984  0.29735399  1
  Sc  Sc84  1  0.09597034  0.10697714  0.69522961  1
  Sc  Sc85  1  0.29826623  0.28717270  0.09940281  1
  Sc  Sc86  1  0.89460174  0.30024324  0.50020478  1
  Sc  Sc87  1  0.68315399  0.10222508  0.69509431  1
  Sc  Sc88  1  0.70006138  0.70084803  0.68790359  1
  Sc  Sc89  1  0.49623758  0.69623582  0.69905155  1
  Sc  Sc90  1  0.90656026  0.09799297  0.09335225  1
  Sc  Sc91  1  0.09662799  0.50691238  0.30026473  1
  Sc  Sc92  1  0.89180097  0.89817191  0.29905600  1
  Sc  Sc93  1  0.89447729  0.30076590  0.30346649  1
  Sc  Sc94  1  0.50026682  0.90142691  0.50146316  1
  Sc  Sc95  1  0.08904134  0.90306638  0.10370512  1
  Sc  Sc96  1  0.49427097  0.10060596  0.10982456  1
  Sc  Sc97  1  0.90197462  0.10786379  0.49745379  1
  Sc  Sc98  1  0.28806502  0.49942936  0.90286327  1
  Sc  Sc99  1  0.50426397  0.29805458  0.49045223  1
  Nb  Nb100  1  0.29713910  0.29810826  0.49996591  1
  Nb  Nb101  1  0.70418972  0.09043780  0.30805326  1
  Nb  Nb102  1  0.89443164  0.49678784  0.70131063  1
  Nb  Nb103  1  0.49169849  0.90285098  0.29590080  1
  Nb  Nb104  1  0.10401278  0.30043525  0.10089078  1
  Nb  Nb105  1  0.70545048  0.70907007  0.30135396  1
  Nb  Nb106  1  0.70037117  0.70494387  0.49767999  1
  Nb  Nb107  1  0.70661909  0.69069062  0.10522238  1
  Nb  Nb108  1  0.29942824  0.89946501  0.30189078  1
  Nb  Nb109  1  0.49507501  0.29815486  0.89969466  1
  Nb  Nb110  1  0.90167930  0.49363178  0.30670666  1
  Nb  Nb111  1  0.49681990  0.30390911  0.29804072  1
  Nb  Nb112  1  0.10303433  0.09786312  0.30348172  1
  Nb  Nb113  1  0.30460452  0.29997395  0.30559678  1
  Nb  Nb114  1  0.69205153  0.30608149  0.10213222  1
  Nb  Nb115  1  0.69681809  0.08932924  0.49210804  1
  Nb  Nb116  1  0.09899794  0.50008478  0.90217190  1
  Nb  Nb117  1  0.49938375  0.49542383  0.29748784  1
  Nb  Nb118  1  0.90136098  0.10200794  0.69457688  1
  Nb  Nb119  1  0.29757330  0.50118598  0.69304422  1
  Nb  Nb120  1  0.89430149  0.90508854  0.70077763  1
  Nb  Nb121  1  0.89551208  0.90323460  0.89513509  1
  Nb  Nb122  1  0.89581861  0.69744050  0.10058975  1
  Nb  Nb123  1  0.70132975  0.50076929  0.09653608  1
  Nb  Nb124  1  0.30357275  0.70259808  0.69775238  1
  Nb  Nb125  1  0.79525562  0.00430554  0.19997543  1
  Nb  Nb126  1  -0.00583161  0.59946160  0.00077576  1
  Nb  Nb127  1  0.40595827  0.39376815  0.00059724  1
  Nb  Nb128  1  0.80112527  0.59940592  0.79823151  1
  Nb  Nb129  1  0.40366504  0.59858400  0.20135940  1
  Nb  Nb130  1  -0.00159006  0.79941683  0.40120220  1
  Nb  Nb131  1  -0.01115006  0.00203532  0.79801709  1
  Nb  Nb132  1  0.20895403  0.59855183  0.19758906  1
  Nb  Nb133  1  0.60127901  0.00038522  0.00103317  1
  Nb  Nb134  1  -0.00183616  0.40290343  0.39957823  1
  Nb  Nb135  1  0.20574842  0.79917048  0.60374910  1
  Nb  Nb136  1  0.39852113  0.20445402  0.59550619  1
  Nb  Nb137  1  0.60108274  0.79584306  0.80297806  1
  Nb  Nb138  1  0.40123555  0.39912590  0.20163808  1
  Nb  Nb139  1  0.80050417  0.00694245  0.60012347  1
  Nb  Nb140  1  0.79882847  0.19676591  0.79448578  1
  Nb  Nb141  1  0.20223577  -0.00495568  0.59902350  1
  Nb  Nb142  1  0.40268363  0.79681475  0.20261116  1
  Nb  Nb143  1  0.20513009  0.20226494  0.39720189  1
  Nb  Nb144  1  0.00513963  0.40420066  0.00066558  1
  Nb  Nb145  1  0.00189151  0.40551575  0.80376016  1
  Nb  Nb146  1  0.19323398  0.80078761  -0.00348900  1
  Nb  Nb147  1  0.19914673  0.00068923  0.20848369  1
  Nb  Nb148  1  0.00550677  -0.00230530  0.39761127  1
  Nb  Nb149  1  0.20538917  0.39711439  0.20329824  1
  Pd  Pd150  1  0.79210879  -0.00189109  0.01450475  1
  Pd  Pd151  1  0.60536688  0.19976431  0.39533967  1
  Pd  Pd152  1  0.00619709  0.40409056  0.20146443  1
  Pd  Pd153  1  0.59395820  0.80603196  0.39553443  1
  Pd  Pd154  1  0.79261138  0.79695106  0.00593757  1
  Pd  Pd155  1  0.40514029  0.40020582  0.40487647  1
  Pd  Pd156  1  0.79359633  0.59930735  0.39076743  1
  Pd  Pd157  1  0.18907085  0.00869346  0.79425236  1
  Pd  Pd158  1  -0.00154160  0.80417020  0.59375773  1
  Pd  Pd159  1  -0.00630599  0.20339430  0.79914738  1
  Pd  Pd160  1  0.80111331  0.20624275  0.00208776  1
  Pd  Pd161  1  0.59387879  0.79209768  0.21148134  1
  Pd  Pd162  1  0.20715321  0.80191665  0.80107141  1
  Pd  Pd163  1  0.59576488  0.39890033  0.80479509  1
  Pd  Pd164  1  0.80410869  0.39503532  0.01029387  1
  Pd  Pd165  1  0.80161977  0.19518088  0.20219977  1
  Pd  Pd166  1  0.20986325  0.59686158  0.79821997  1
  Pd  Pd167  1  0.59283834  0.39938796  0.59458095  1
  Pd  Pd168  1  0.21164407  0.80046884  0.18573351  1
  Pd  Pd169  1  0.60378268  0.00574296  0.20173441  1
  Pd  Pd170  1  0.41341302  0.58788357  0.00364877  1
  Pd  Pd171  1  0.19722978  0.60808443  0.39912880  1
  Pd  Pd172  1  0.00078476  0.20766158  0.59614232  1
  Pd  Pd173  1  0.78955905  0.19284207  0.60112983  1
  Pd  Pd174  1  0.40530707  0.00022319  0.80249427  1
  Pd  Pd175  1  0.19270749  -0.00499247  0.00963325  1
  Pd  Pd176  1  0.41129442  0.39586187  0.59176624  1
  Pd  Pd177  1  0.39345574  0.59207885  0.79676950  1
  Pd  Pd178  1  0.79483558  0.59604713  0.20881937  1
  Pd  Pd179  1  0.59405862  -0.01147824  0.80282715  1
  Pd  Pd180  1  -0.00662520  0.80579572  0.79692567  1
  Pd  Pd181  1  0.39973924  0.19981604  0.00033752  1
  Pd  Pd182  1  0.19380642  0.78884343  0.41288993  1
  Pd  Pd183  1  -0.00142176  0.60118724  0.40015717  1
  Pd  Pd184  1  0.79787633  0.01078967  0.78618141  1
  Pd  Pd185  1  0.00471705  0.39916733  0.60068067  1
  Pd  Pd186  1  0.59247140  0.40378213  -0.00536802  1
  Pd  Pd187  1  0.40894001  0.00837750  -0.00536557  1
  Pd  Pd188  1  0.61177165  0.59780206  0.39842354  1
  Pd  Pd189  1  0.60215334  0.60402852  0.20354206  1
  Pd  Pd190  1  -0.00385699  0.00203853  0.20856829  1
  Pd  Pd191  1  0.39807956  0.41327388  0.80541181  1
  Pd  Pd192  1  -0.01202589  0.59757819  0.80213770  1
  Pd  Pd193  1  0.40152190  0.59679058  0.59579434  1
  Pd  Pd194  1  -0.00802284  0.19722324  0.19857984  1
  Pd  Pd195  1  0.20182279  0.19280462  0.80010911  1
  Pd  Pd196  1  0.79303944  0.39979155  0.20090789  1
  Pd  Pd197  1  0.60617694  0.40088857  0.39925051  1
  Pd  Pd198  1  0.18624519  0.39321010  0.39514646  1
  Pd  Pd199  1  0.79377464  0.20199965  0.40138305  1
  Rh  Rh200  1  0.21181766  0.18879606  0.59032380  1
  Rh  Rh201  1  -0.00107909  -0.00415493  -0.00477300  1
  Rh  Rh202  1  0.79728258  0.80951202  0.60077566  1
  Rh  Rh203  1  0.39775478  0.20429102  0.40425235  1
  Rh  Rh204  1  0.79658236  0.39961743  0.59423479  1
  Rh  Rh205  1  0.39432175  0.00486342  0.59709364  1
  Rh  Rh206  1  0.19405014  0.40388903  0.60382482  1
  Rh  Rh207  1  0.81133316  0.00424542  0.40193075  1
  Rh  Rh208  1  0.20348032  0.20085146  -0.00417427  1
  Rh  Rh209  1  0.39356926  0.19747764  0.79230874  1
  Rh  Rh210  1  0.79436399  0.79165124  0.79146967  1
  Rh  Rh211  1  0.18917503  0.61575963  0.00401455  1
  Rh  Rh212  1  0.21174405  0.60766548  0.60087592  1
  Rh  Rh213  1  0.59478166  0.19461350  -0.00007579  1
  Rh  Rh214  1  0.39712691  0.79828139  0.59818264  1
  Rh  Rh215  1  0.20578369  0.38830028  0.00624236  1
  Rh  Rh216  1  -0.00297439  0.00171385  0.59783743  1
  Rh  Rh217  1  0.19997199  0.00718262  0.39862848  1
  Rh  Rh218  1  0.61229661  0.80497099  -0.00719288  1
  Rh  Rh219  1  0.80082620  0.80027970  0.20187811  1
  Rh  Rh220  1  -0.01310558  0.80109086  0.20956501  1
  Rh  Rh221  1  -0.00023723  0.21290445  0.00729020  1
  Rh  Rh222  1  0.00166297  0.59331269  0.19452590  1
  Rh  Rh223  1  0.60037280  0.79997512  0.60430006  1
  Rh  Rh224  1  0.60929741  -0.00632425  0.59277758  1
  Rh  Rh225  1  0.60191423  0.60113822  0.59863493  1
  Rh  Rh226  1  0.40209530  0.20626526  0.20601894  1
  Rh  Rh227  1  0.60226974  0.59291552  0.00373642  1
  Rh  Rh228  1  0.80717425  0.79487410  0.39411211  1
  Rh  Rh229  1  0.19575773  0.40914711  0.78989442  1
  Rh  Rh230  1  0.59389592  0.20161084  0.59316467  1
  Rh  Rh231  1  0.80170494  0.59997549  -0.00000173  1
  Rh  Rh232  1  0.80452320  0.39664717  0.80158224  1
  Rh  Rh233  1  0.40869839  0.80343410  0.39602879  1
  Rh  Rh234  1  0.60642926  0.20707824  0.79853265  1
  Rh  Rh235  1  0.60246512  0.19756906  0.21170979  1
  Rh  Rh236  1  -0.01070859  0.59985564  0.60423682  1
  Rh  Rh237  1  0.40630871  -0.00339196  0.39734754  1
  Rh  Rh238  1  0.60956963  0.60592300  0.79102270  1
  Rh  Rh239  1  0.80093067  0.59976947  0.60792659  1
  Rh  Rh240  1  0.59237636  -0.00680589  0.39521307  1
  Rh  Rh241  1  0.40134168  0.59418137  0.40458523  1
  Rh  Rh242  1  0.60204999  0.39793405  0.20332656  1
  Rh  Rh243  1  0.00096445  0.79692729  -0.00451641  1
  Rh  Rh244  1  0.00878413  0.20465728  0.40494929  1
  Rh  Rh245  1  0.80278824  0.39877082  0.40069397  1
  Rh  Rh246  1  0.20771243  0.19846820  0.21043162  1
  Rh  Rh247  1  0.39150559  -0.00635831  0.20426976  1
  Rh  Rh248  1  0.38791621  0.80301979  0.00047997  1
  Rh  Rh249  1  0.40826090  0.79947542  0.79818912  1
