# generated using pymatgen
data_ZrScNbPdRh
_symmetry_space_group_name_H-M   'P 1'
_cell_length_a   16.56103903
_cell_length_b   16.56260683
_cell_length_c   16.55889748
_cell_angle_alpha   89.97351731
_cell_angle_beta   90.02144524
_cell_angle_gamma   89.96949522
_symmetry_Int_Tables_number   1
_chemical_formula_structural   ZrScNbPdRh
_chemical_formula_sum   'Zr50 Sc50 Nb50 Pd50 Rh50'
_cell_volume   4542.00441785
_cell_formula_units_Z   50
loop_
 _symmetry_equiv_pos_site_id
 _symmetry_equiv_pos_as_xyz
  1  'x, y, z'
loop_
 _atom_site_type_symbol
 _atom_site_label
 _atom_site_symmetry_multiplicity
 _atom_site_fract_x
 _atom_site_fract_y
 _atom_site_fract_z
 _atom_site_occupancy
  Zr  Zr0  1  0.70049853  0.30556781  0.71650049  1
  Zr  Zr1  1  0.50049803  0.69757292  0.51186477  1
  Zr  Zr2  1  0.69096150  0.69876805  0.70225986  1
  Zr  Zr3  1  0.29853428  0.90036090  0.71011391  1
  Zr  Zr4  1  0.70172817  0.48513200  0.30240537  1
  Zr  Zr5  1  0.50010723  0.09422199  0.30545350  1
  Zr  Zr6  1  0.30341324  0.70734989  0.49331789  1
  Zr  Zr7  1  0.70521353  0.89719215  0.70002670  1
  Zr  Zr8  1  0.50106027  0.69401389  0.28382077  1
  Zr  Zr9  1  0.90621927  0.69510839  0.09870623  1
  Zr  Zr10  1  0.70337385  0.49445256  0.51177191  1
  Zr  Zr11  1  0.49511657  0.69914296  0.69972108  1
  Zr  Zr12  1  0.29881789  0.30458859  0.50669433  1
  Zr  Zr13  1  0.09062873  0.50032203  0.29460551  1
  Zr  Zr14  1  0.30488638  0.09256870  0.29672478  1
  Zr  Zr15  1  0.69857057  0.48934924  0.90669182  1
  Zr  Zr16  1  0.90004432  0.90421294  0.30085556  1
  Zr  Zr17  1  0.70054843  0.09775615  0.49722755  1
  Zr  Zr18  1  0.09984936  0.70344240  0.30287259  1
  Zr  Zr19  1  0.49995230  0.10512918  0.70084512  1
  Zr  Zr20  1  0.49992594  0.49144693  0.50066286  1
  Zr  Zr21  1  0.30122679  0.70390759  0.09463352  1
  Zr  Zr22  1  0.69648042  0.09744339  0.10042679  1
  Zr  Zr23  1  0.30750176  0.50962019  0.30133835  1
  Zr  Zr24  1  0.09634345  0.10589672  0.89780866  1
  Zr  Zr25  1  0.50013408  0.89825488  0.09920149  1
  Zr  Zr26  1  0.90220237  0.29860273  0.09816544  1
  Zr  Zr27  1  0.09159044  0.30041362  0.29346240  1
  Zr  Zr28  1  0.49968890  0.09460866  0.10803012  1
  Zr  Zr29  1  0.69969108  0.10095210  0.30165067  1
  Zr  Zr30  1  0.50609687  0.30027057  0.30394517  1
  Zr  Zr31  1  0.50749167  0.50400652  0.69665107  1
  Zr  Zr32  1  0.49166472  0.29126620  0.50635905  1
  Zr  Zr33  1  0.10303910  0.50135719  0.69502405  1
  Zr  Zr34  1  0.09684126  0.50599285  0.49798952  1
  Zr  Zr35  1  0.50549451  0.49808285  0.29609878  1
  Zr  Zr36  1  0.49755267  0.89161994  0.70022361  1
  Zr  Zr37  1  0.89572872  0.90852317  0.09667346  1
  Zr  Zr38  1  0.10439543  0.90196500  0.70436588  1
  Zr  Zr39  1  0.48268590  0.90465495  0.89930996  1
  Zr  Zr40  1  0.30172529  0.50127029  0.09137049  1
  Zr  Zr41  1  0.10117510  0.29483913  0.70367800  1
  Zr  Zr42  1  0.29784999  0.90385176  0.50165074  1
  Zr  Zr43  1  0.90541331  0.90174066  0.90338437  1
  Zr  Zr44  1  0.09071493  0.70376436  0.50159242  1
  Zr  Zr45  1  0.70032449  0.49149516  0.09807218  1
  Zr  Zr46  1  0.89736553  0.30547629  0.30119658  1
  Zr  Zr47  1  0.89499579  0.10146295  0.70541630  1
  Zr  Zr48  1  0.69036944  0.70077629  0.10586671  1
  Zr  Zr49  1  0.30397592  0.50056302  0.50382920  1
  Sc  Sc50  1  0.90080420  0.90349703  0.49081300  1
  Sc  Sc51  1  0.49042358  0.49904119  0.90302777  1
  Sc  Sc52  1  0.70260843  0.10849419  0.69818129  1
  Sc  Sc53  1  0.30235383  0.10712972  0.49680183  1
  Sc  Sc54  1  0.49846024  0.09721515  0.91218420  1
  Sc  Sc55  1  0.10306811  0.70415718  0.89779736  1
  Sc  Sc56  1  0.10117597  0.91070577  0.30537796  1
  Sc  Sc57  1  0.50147832  0.30191478  0.90561308  1
  Sc  Sc58  1  0.29637162  0.29766008  0.69486809  1
  Sc  Sc59  1  0.49918435  0.30187364  0.70040059  1
  Sc  Sc60  1  0.30114630  0.10062592  0.09766411  1
  Sc  Sc61  1  0.30752492  0.49943690  0.70200026  1
  Sc  Sc62  1  0.70876405  0.89564591  0.29396527  1
  Sc  Sc63  1  0.70424502  0.30143753  0.29965931  1
  Sc  Sc64  1  0.89083745  0.28808991  0.90308174  1
  Sc  Sc65  1  0.50240064  0.69390218  0.09196138  1
  Sc  Sc66  1  0.09279315  0.10441533  0.09833858  1
  Sc  Sc67  1  0.90736002  0.69756938  0.69322337  1
  Sc  Sc68  1  0.10107094  0.90168345  0.49875595  1
  Sc  Sc69  1  0.49081288  0.89341862  0.49140392  1
  Sc  Sc70  1  0.69620471  0.11125075  0.90658590  1
  Sc  Sc71  1  0.88842768  0.29705841  0.70667658  1
  Sc  Sc72  1  0.69956185  0.69613810  0.90459451  1
  Sc  Sc73  1  0.89487327  0.70789879  0.90561401  1
  Sc  Sc74  1  0.70610777  0.29972144  0.49428720  1
  Sc  Sc75  1  0.10899791  0.90581628  0.09236917  1
  Sc  Sc76  1  0.10426584  0.71144591  0.70037171  1
  Sc  Sc77  1  0.09582800  0.50266969  0.10336749  1
  Sc  Sc78  1  0.10111098  0.10132855  0.29728170  1
  Sc  Sc79  1  0.10330872  0.09720518  0.48912258  1
  Sc  Sc80  1  0.10226628  0.70364748  0.10024323  1
  Sc  Sc81  1  0.50072187  0.69611586  0.90048765  1
  Sc  Sc82  1  0.29848252  0.69596391  0.89980067  1
  Sc  Sc83  1  0.30073131  0.90158039  0.30703873  1
  Sc  Sc84  1  0.29713899  0.29551890  0.29481442  1
  Sc  Sc85  1  0.49959639  0.29545123  0.09376196  1
  Sc  Sc86  1  0.88790710  0.09925214  0.49390884  1
  Sc  Sc87  1  0.10258665  0.29926619  0.49654451  1
  Sc  Sc88  1  0.70090263  0.89698798  0.10133181  1
  Sc  Sc89  1  0.70184915  0.70002830  0.50212072  1
  Sc  Sc90  1  0.30444493  0.30170128  0.91298803  1
  Sc  Sc91  1  0.70994224  0.88368826  0.90159765  1
  Sc  Sc92  1  0.90258485  0.89823452  0.70799914  1
  Sc  Sc93  1  0.71175212  0.90563829  0.48958299  1
  Sc  Sc94  1  0.10197149  0.29702596  0.09991890  1
  Sc  Sc95  1  0.30066831  0.29778482  0.09890359  1
  Sc  Sc96  1  0.90043034  0.70881448  0.30616625  1
  Sc  Sc97  1  0.10184731  0.10217286  0.71446281  1
  Sc  Sc98  1  0.90614311  0.10009757  0.29401864  1
  Sc  Sc99  1  0.29057636  0.10045565  0.70244621  1
  Nb  Nb100  1  0.29366411  0.49824936  0.90303115  1
  Nb  Nb101  1  0.10297874  0.49981880  0.89665112  1
  Nb  Nb102  1  0.90482059  0.09598831  0.90419202  1
  Nb  Nb103  1  0.89958071  0.50346723  0.50611306  1
  Nb  Nb104  1  0.90149022  0.70019110  0.49942137  1
  Nb  Nb105  1  0.70498239  0.29876240  0.08210347  1
  Nb  Nb106  1  0.29926652  0.70442232  0.69358541  1
  Nb  Nb107  1  0.30528310  0.89737492  0.09104384  1
  Nb  Nb108  1  0.50068411  0.50527626  0.10110239  1
  Nb  Nb109  1  0.29752346  0.90874217  0.90754201  1
  Nb  Nb110  1  0.50100771  0.09832768  0.50404577  1
  Nb  Nb111  1  0.30409383  0.09564155  0.89581064  1
  Nb  Nb112  1  0.70015411  0.69636105  0.29947213  1
  Nb  Nb113  1  0.89974106  0.09939904  0.09129944  1
  Nb  Nb114  1  0.89971710  0.30156228  0.49890530  1
  Nb  Nb115  1  0.49190024  0.89871459  0.29793539  1
  Nb  Nb116  1  0.69770244  0.30104263  0.91372966  1
  Nb  Nb117  1  0.90281277  0.50079619  0.10242432  1
  Nb  Nb118  1  0.89874646  0.49465578  0.29235735  1
  Nb  Nb119  1  0.10077981  0.90589552  0.89070967  1
  Nb  Nb120  1  0.70734657  0.49635612  0.70166146  1
  Nb  Nb121  1  0.09540252  0.29881495  0.89574089  1
  Nb  Nb122  1  0.89647540  0.49722902  0.69625477  1
  Nb  Nb123  1  0.30186980  0.70229126  0.29584436  1
  Nb  Nb124  1  0.90106284  0.50638733  0.90589341  1
  Nb  Nb125  1  0.80333343  0.59494558  0.39987403  1
  Nb  Nb126  1  0.79772062  0.00383279  0.80608605  1
  Nb  Nb127  1  -0.00144309  0.00772588  0.60332377  1
  Nb  Nb128  1  -0.00017368  0.40443020  -0.00938705  1
  Nb  Nb129  1  -0.00759540  0.39764788  0.60132630  1
  Nb  Nb130  1  0.59948246  0.79317036  0.39058133  1
  Nb  Nb131  1  0.19833755  0.40468976  0.39584363  1
  Nb  Nb132  1  0.80037193  0.19924515  0.18928164  1
  Nb  Nb133  1  -0.00158981  0.40388941  0.80284871  1
  Nb  Nb134  1  0.20444506  0.60774422  0.59765676  1
  Nb  Nb135  1  0.80455518  0.79767146  0.59733891  1
  Nb  Nb136  1  0.80306043  0.59053738  0.79644618  1
  Nb  Nb137  1  -0.00346115  0.59101000  0.80168401  1
  Nb  Nb138  1  0.19725995  0.40172578  0.80894668  1
  Nb  Nb139  1  -0.00479999  0.20045136  0.59855596  1
  Nb  Nb140  1  0.40480622  0.40588515  0.19708392  1
  Nb  Nb141  1  0.39552724  0.80125278  0.19769233  1
  Nb  Nb142  1  0.39628933  0.19642839  0.80534033  1
  Nb  Nb143  1  0.60214378  -0.00267287  0.79782626  1
  Nb  Nb144  1  0.59605407  0.00034543  0.59872812  1
  Nb  Nb145  1  0.00068491  0.80656417  0.19866872  1
  Nb  Nb146  1  0.40449874  0.00253348  0.60180159  1
  Nb  Nb147  1  0.60570352  0.59913298  0.39843656  1
  Nb  Nb148  1  0.80356257  0.59419680  0.20449318  1
  Nb  Nb149  1  0.20438565  0.60503719  0.20400254  1
  Pd  Pd150  1  0.39215140  0.39147476  0.79962287  1
  Pd  Pd151  1  0.59497449  0.80303793  -0.00664204  1
  Pd  Pd152  1  0.19278490  0.60158125  0.00525484  1
  Pd  Pd153  1  -0.00570748  0.19409717  0.40382152  1
  Pd  Pd154  1  0.40288672  0.20708732  0.20011844  1
  Pd  Pd155  1  0.19995823  0.59953640  0.79188529  1
  Pd  Pd156  1  0.61023412  0.81321827  0.58397611  1
  Pd  Pd157  1  0.20078973  0.19730886  -0.00288628  1
  Pd  Pd158  1  0.60195596  0.20457043  0.40516259  1
  Pd  Pd159  1  0.20394106  -0.00029470  0.19502551  1
  Pd  Pd160  1  0.39722827  0.19955464  0.39729425  1
  Pd  Pd161  1  0.59656914  -0.01334573  0.40117439  1
  Pd  Pd162  1  0.39279287  0.39241205  0.39217198  1
  Pd  Pd163  1  0.19680731  0.00966377  -0.00254145  1
  Pd  Pd164  1  -0.00624314  0.81470578  0.59659563  1
  Pd  Pd165  1  0.60536815  0.59164311  0.80757506  1
  Pd  Pd166  1  0.79039272  0.00116579  -0.00897041  1
  Pd  Pd167  1  0.19035976  0.19111425  0.59621593  1
  Pd  Pd168  1  0.20018702  0.59835707  0.39983445  1
  Pd  Pd169  1  0.19144960  0.39640900  -0.00010109  1
  Pd  Pd170  1  0.60871754  0.20307377  0.59819216  1
  Pd  Pd171  1  0.39544069  0.60136589  0.80186616  1
  Pd  Pd172  1  -0.01166437  0.59930445  0.39307619  1
  Pd  Pd173  1  -0.00279779  0.79053452  0.80209029  1
  Pd  Pd174  1  0.41226530  0.60646868  0.40289759  1
  Pd  Pd175  1  0.79877559  0.20671475  0.59842275  1
  Pd  Pd176  1  0.19679679  0.80323614  -0.00982585  1
  Pd  Pd177  1  0.00405960  -0.00259124  0.19475489  1
  Pd  Pd178  1  0.20785930  0.40783299  0.20336062  1
  Pd  Pd179  1  0.80855423  0.79192022  0.19511810  1
  Pd  Pd180  1  0.59249365  0.19805482  0.81024548  1
  Pd  Pd181  1  0.19983542  0.80410427  0.20319472  1
  Pd  Pd182  1  0.60699442  -0.01014415  -0.01133565  1
  Pd  Pd183  1  0.00037300  0.40125902  0.40706691  1
  Pd  Pd184  1  0.19654509  0.80546900  0.39903804  1
  Pd  Pd185  1  0.00948541  0.59967688  -0.00565438  1
  Pd  Pd186  1  0.59677120  0.38883258  0.18853501  1
  Pd  Pd187  1  0.39221810  0.79125277  0.80790757  1
  Pd  Pd188  1  0.60439894  -0.00987056  0.20705125  1
  Pd  Pd189  1  0.80737548  0.40160146  0.81284245  1
  Pd  Pd190  1  0.59652605  0.80382619  0.81062633  1
  Pd  Pd191  1  0.79456489  0.60279094  0.00409994  1
  Pd  Pd192  1  0.00768141  0.80716179  0.00474755  1
  Pd  Pd193  1  0.60755803  0.20847691  0.19365283  1
  Pd  Pd194  1  0.19811898  0.19386191  0.19726093  1
  Pd  Pd195  1  0.59368213  0.40334995  0.80613785  1
  Pd  Pd196  1  0.20152177  0.20590439  0.39497303  1
  Pd  Pd197  1  0.60315184  0.38821055  0.60094837  1
  Pd  Pd198  1  0.79902406  0.60876129  0.60236287  1
  Pd  Pd199  1  0.19742778  0.00784659  0.59891816  1
  Rh  Rh200  1  0.80226582  0.00572091  0.38812339  1
  Rh  Rh201  1  0.00027628  0.20459239  -0.00243239  1
  Rh  Rh202  1  0.40044360  0.19389597  -0.00221234  1
  Rh  Rh203  1  0.40079987  0.79668735  -0.00051903  1
  Rh  Rh204  1  0.61454501  0.58978587  0.20133747  1
  Rh  Rh205  1  0.00572678  0.59886798  0.60580765  1
  Rh  Rh206  1  0.80461071  -0.01001367  0.60897462  1
  Rh  Rh207  1  0.40091476  0.00555758  0.40874893  1
  Rh  Rh208  1  0.39187922  0.60165762  0.18789077  1
  Rh  Rh209  1  0.20663524  0.80371872  0.80760142  1
  Rh  Rh210  1  0.20049893  0.00002339  0.80755539  1
  Rh  Rh211  1  -0.00952186  0.20412306  0.79816614  1
  Rh  Rh212  1  0.81195108  0.40117254  -0.00102249  1
  Rh  Rh213  1  0.59950387  0.59351460  -0.00302527  1
  Rh  Rh214  1  0.39359629  0.19304200  0.60917050  1
  Rh  Rh215  1  0.00182276  0.80629940  0.39601109  1
  Rh  Rh216  1  -0.00556832  0.19952993  0.19673213  1
  Rh  Rh217  1  0.00802218  -0.00144339  -0.00258636  1
  Rh  Rh218  1  0.40408517  0.40045978  0.61001587  1
  Rh  Rh219  1  0.80281123  0.39021840  0.59945631  1
  Rh  Rh220  1  0.41022700  0.78897143  0.38754447  1
  Rh  Rh221  1  0.80126255  0.39503563  0.18879211  1
  Rh  Rh222  1  0.80770722  0.40577665  0.40869913  1
  Rh  Rh223  1  0.20442119  0.00343317  0.39798256  1
  Rh  Rh224  1  0.39259169  -0.01061623  0.19503262  1
  Rh  Rh225  1  0.39671349  0.00593800  0.00916996  1
  Rh  Rh226  1  0.21502447  0.21100903  0.81281915  1
  Rh  Rh227  1  -0.00128585  0.61060177  0.20593083  1
  Rh  Rh228  1  0.59346066  0.19886708  0.00427036  1
  Rh  Rh229  1  0.40238430  0.00880699  0.79357882  1
  Rh  Rh230  1  0.40084700  0.59907869  -0.00480871  1
  Rh  Rh231  1  0.60041922  0.39668184  0.40971095  1
  Rh  Rh232  1  -0.00461134  0.00300178  0.79786336  1
  Rh  Rh233  1  0.19567508  0.40857745  0.59466951  1
  Rh  Rh234  1  0.59239703  0.80782069  0.20516761  1
  Rh  Rh235  1  0.58953664  0.40226977  0.00261059  1
  Rh  Rh236  1  0.39075697  0.80883087  0.60259413  1
  Rh  Rh237  1  0.79598252  0.79162788  0.40770547  1
  Rh  Rh238  1  0.79495564  0.19342747  0.81214840  1
  Rh  Rh239  1  0.80353038  0.78700872  0.78986579  1
  Rh  Rh240  1  0.60303183  0.59539558  0.59865123  1
  Rh  Rh241  1  0.80375619  0.20007408  0.38882856  1
  Rh  Rh242  1  0.20259166  0.79661971  0.59717348  1
  Rh  Rh243  1  -0.00111491  0.00505875  0.40581099  1
  Rh  Rh244  1  0.40301469  0.40429928  0.00719700  1
  Rh  Rh245  1  0.79870460  0.00976169  0.19906294  1
  Rh  Rh246  1  -0.00125014  0.39605665  0.18884706  1
  Rh  Rh247  1  0.80204495  0.19179983  0.00163938  1
  Rh  Rh248  1  0.79912032  0.79463333  0.01109274  1
  Rh  Rh249  1  0.39410181  0.59971750  0.60396086  1
