# generated using pymatgen
data_ZrScNbPdRh
_symmetry_space_group_name_H-M   'P 1'
_cell_length_a   16.56383232
_cell_length_b   16.56419241
_cell_length_c   16.56154570
_cell_angle_alpha   89.98639625
_cell_angle_beta   90.00814163
_cell_angle_gamma   89.99876554
_symmetry_Int_Tables_number   1
_chemical_formula_structural   ZrScNbPdRh
_chemical_formula_sum   'Zr50 Sc50 Nb50 Pd50 Rh50'
_cell_volume   4543.93324591
_cell_formula_units_Z   50
loop_
 _symmetry_equiv_pos_site_id
 _symmetry_equiv_pos_as_xyz
  1  'x, y, z'
loop_
 _atom_site_type_symbol
 _atom_site_label
 _atom_site_symmetry_multiplicity
 _atom_site_fract_x
 _atom_site_fract_y
 _atom_site_fract_z
 _atom_site_occupancy
  Zr  Zr0  1  0.29901339  0.70183355  0.89836474  1
  Zr  Zr1  1  0.69908770  0.10448737  0.30436037  1
  Zr  Zr2  1  0.49618887  0.70499276  0.48966724  1
  Zr  Zr3  1  0.29878314  0.50332514  0.69010936  1
  Zr  Zr4  1  0.70131956  0.90579202  0.90030462  1
  Zr  Zr5  1  0.10066335  0.29916874  0.30349662  1
  Zr  Zr6  1  0.70362922  0.49425760  0.30815872  1
  Zr  Zr7  1  0.29844177  0.70845557  0.10010246  1
  Zr  Zr8  1  0.30946639  0.09291307  0.90275212  1
  Zr  Zr9  1  0.29849336  0.30543302  0.69833451  1
  Zr  Zr10  1  0.30033778  0.69219980  0.49892404  1
  Zr  Zr11  1  0.90420736  0.70020858  0.89406965  1
  Zr  Zr12  1  0.49432835  0.50099457  0.50078945  1
  Zr  Zr13  1  0.50147214  0.29600379  0.30704459  1
  Zr  Zr14  1  0.09299273  0.28506921  0.49118955  1
  Zr  Zr15  1  0.09288010  0.90373389  0.30661372  1
  Zr  Zr16  1  0.50138519  0.30225687  0.69851748  1
  Zr  Zr17  1  0.09465536  0.09447641  0.89369741  1
  Zr  Zr18  1  0.90911395  0.89051434  0.50182201  1
  Zr  Zr19  1  0.09757026  0.48657298  0.89967588  1
  Zr  Zr20  1  0.70302309  0.49378142  0.08891379  1
  Zr  Zr21  1  0.29281298  0.29434912  0.29825890  1
  Zr  Zr22  1  0.49803475  0.09887913  0.50194025  1
  Zr  Zr23  1  0.69339721  0.10531218  0.90200476  1
  Zr  Zr24  1  0.90091201  0.10438040  0.90424760  1
  Zr  Zr25  1  0.09729011  0.10376164  0.30316972  1
  Zr  Zr26  1  0.30298135  0.89730733  0.90345768  1
  Zr  Zr27  1  0.90075425  0.91165377  0.09975863  1
  Zr  Zr28  1  0.29953296  0.49772384  0.08840607  1
  Zr  Zr29  1  0.70198402  0.29664544  0.49120421  1
  Zr  Zr30  1  0.50130712  0.49818552  0.09246419  1
  Zr  Zr31  1  0.90181278  0.70317494  0.09502254  1
  Zr  Zr32  1  0.09839183  0.69934870  0.70109111  1
  Zr  Zr33  1  0.09785176  0.89703173  0.09706145  1
  Zr  Zr34  1  0.50318384  0.89903651  0.70158113  1
  Zr  Zr35  1  0.50293035  0.09992625  0.90211792  1
  Zr  Zr36  1  0.29418618  0.30362655  0.50160850  1
  Zr  Zr37  1  0.10136331  0.09867769  0.69932997  1
  Zr  Zr38  1  0.29764043  0.49453974  0.31087530  1
  Zr  Zr39  1  0.50170061  0.10859162  0.70624744  1
  Zr  Zr40  1  0.70120562  0.70359697  0.69707464  1
  Zr  Zr41  1  0.71215641  0.09934960  0.09994018  1
  Zr  Zr42  1  0.49793953  0.69766212  0.30664375  1
  Zr  Zr43  1  0.10393017  0.69843720  0.09844892  1
  Zr  Zr44  1  0.49272109  0.10904832  0.09652275  1
  Zr  Zr45  1  0.10883275  0.09626710  0.50217369  1
  Zr  Zr46  1  0.69394950  0.50725459  0.69661189  1
  Zr  Zr47  1  0.70344197  0.69355101  0.89787818  1
  Zr  Zr48  1  0.09912199  0.49425853  0.29925677  1
  Zr  Zr49  1  0.70390596  0.30125859  0.90942682  1
  Sc  Sc50  1  0.10677553  0.50268580  0.49759571  1
  Sc  Sc51  1  0.90283543  0.30633467  0.90158217  1
  Sc  Sc52  1  0.49414906  0.70330166  0.89722010  1
  Sc  Sc53  1  0.89521654  0.09737296  0.29493251  1
  Sc  Sc54  1  0.29212535  0.30360228  0.90215470  1
  Sc  Sc55  1  0.90506067  0.90770626  0.29903481  1
  Sc  Sc56  1  0.68642266  0.70294292  0.30789536  1
  Sc  Sc57  1  0.49909743  0.69417073  0.70669465  1
  Sc  Sc58  1  0.09880843  0.49728337  0.69835229  1
  Sc  Sc59  1  0.89144932  0.50009575  0.49338952  1
  Sc  Sc60  1  0.10064847  0.90255758  0.71056092  1
  Sc  Sc61  1  0.69976854  0.69893513  0.09352610  1
  Sc  Sc62  1  0.49934644  0.90785261  0.49709844  1
  Sc  Sc63  1  0.50555610  0.28786128  0.90365321  1
  Sc  Sc64  1  0.30137260  0.70258084  0.70643167  1
  Sc  Sc65  1  0.10046210  0.29941542  0.89703506  1
  Sc  Sc66  1  0.29708187  0.90629552  0.71273895  1
  Sc  Sc67  1  0.30234583  0.10119585  0.29438453  1
  Sc  Sc68  1  0.30627661  0.09864306  0.09931725  1
  Sc  Sc69  1  0.50760133  0.30078017  0.50933602  1
  Sc  Sc70  1  0.49855049  0.89817467  0.30299835  1
  Sc  Sc71  1  0.69524093  0.69569818  0.50325587  1
  Sc  Sc72  1  0.89782757  0.49742803  0.70180668  1
  Sc  Sc73  1  0.89854662  0.49221391  0.09765188  1
  Sc  Sc74  1  0.69399788  0.10165251  0.50485536  1
  Sc  Sc75  1  0.90767316  0.70479339  0.69967836  1
  Sc  Sc76  1  0.10752005  0.29221361  0.69844910  1
  Sc  Sc77  1  0.50101618  0.51471818  0.90302137  1
  Sc  Sc78  1  0.89384972  0.29430443  0.69720747  1
  Sc  Sc79  1  0.70451604  0.09545022  0.70122779  1
  Sc  Sc80  1  0.90705350  0.69578348  0.30798268  1
  Sc  Sc81  1  0.49432016  0.90446896  0.10928847  1
  Sc  Sc82  1  0.30578607  0.29109589  0.09774278  1
  Sc  Sc83  1  0.09890702  0.90030677  0.89762437  1
  Sc  Sc84  1  0.49837884  0.09115069  0.29947742  1
  Sc  Sc85  1  0.09331899  0.09455320  0.08773179  1
  Sc  Sc86  1  0.09103392  0.70223319  0.50320638  1
  Sc  Sc87  1  0.10651914  0.30263062  0.08939975  1
  Sc  Sc88  1  0.90077204  0.49610951  0.30482158  1
  Sc  Sc89  1  0.10135448  0.49837252  0.10008942  1
  Sc  Sc90  1  0.90602149  0.89654252  0.89643201  1
  Sc  Sc91  1  0.69681871  0.30013757  0.69238809  1
  Sc  Sc92  1  0.88685995  0.30061232  0.31084746  1
  Sc  Sc93  1  0.90029397  0.10034467  0.70452911  1
  Sc  Sc94  1  0.30246148  0.70401668  0.29934161  1
  Sc  Sc95  1  0.90311118  0.70048431  0.50407690  1
  Sc  Sc96  1  0.49412652  0.91043908  0.89969809  1
  Sc  Sc97  1  0.10253638  0.69442677  0.29697957  1
  Sc  Sc98  1  0.29786624  0.10187731  0.69786481  1
  Sc  Sc99  1  0.90252687  0.11251395  0.50335216  1
  Nb  Nb100  1  0.30278153  0.89734261  0.29612704  1
  Nb  Nb101  1  0.90272949  0.49927544  0.89655758  1
  Nb  Nb102  1  0.71117361  0.89807125  0.69205427  1
  Nb  Nb103  1  0.69993827  0.90481169  0.29573601  1
  Nb  Nb104  1  0.90338129  0.29936794  0.49864492  1
  Nb  Nb105  1  0.49955870  0.49939794  0.29904051  1
  Nb  Nb106  1  0.70309649  0.50259961  0.89599615  1
  Nb  Nb107  1  0.50461075  0.69507766  0.09931862  1
  Nb  Nb108  1  0.49907822  0.49744893  0.70345168  1
  Nb  Nb109  1  0.10299878  0.90254773  0.50044893  1
  Nb  Nb110  1  0.29953437  0.50110478  0.50383263  1
  Nb  Nb111  1  0.29958790  0.90912026  0.49920003  1
  Nb  Nb112  1  0.70152966  0.90033873  0.10648195  1
  Nb  Nb113  1  0.90161031  0.10370229  0.10193871  1
  Nb  Nb114  1  0.29862915  0.50001905  0.89446627  1
  Nb  Nb115  1  0.09311023  0.70142262  0.89220557  1
  Nb  Nb116  1  0.70679503  0.30242998  0.10467983  1
  Nb  Nb117  1  0.70951593  0.90071049  0.51627887  1
  Nb  Nb118  1  0.29478847  0.89514300  0.10801481  1
  Nb  Nb119  1  0.30261270  0.09157529  0.50089566  1
  Nb  Nb120  1  0.70017175  0.29707541  0.29757265  1
  Nb  Nb121  1  0.88680830  0.29928026  0.10286408  1
  Nb  Nb122  1  0.50320073  0.29915018  0.10275803  1
  Nb  Nb123  1  0.69594436  0.49959059  0.50422443  1
  Nb  Nb124  1  0.89130590  0.90135567  0.69023980  1
  Nb  Nb125  1  0.20028276  -0.00743967  0.19845570  1
  Nb  Nb126  1  0.40470155  0.59476376  0.19782694  1
  Nb  Nb127  1  0.79511795  -0.00804741  0.40705722  1
  Nb  Nb128  1  -0.00326146  0.39108980  0.59058011  1
  Nb  Nb129  1  0.19642637  0.59753411  0.80537774  1
  Nb  Nb130  1  0.39729572  0.19679244  0.40670315  1
  Nb  Nb131  1  0.00120862  -0.00360053  0.60029280  1
  Nb  Nb132  1  0.60476147  0.20706675  0.19727993  1
  Nb  Nb133  1  0.40442506  0.40592255  0.79991368  1
  Nb  Nb134  1  0.00043433  0.59770213  -0.00975503  1
  Nb  Nb135  1  0.59954119  0.40781125  0.80206581  1
  Nb  Nb136  1  0.60094574  0.80399137  0.00091893  1
  Nb  Nb137  1  -0.00721698  0.20577634  0.19351780  1
  Nb  Nb138  1  0.39303884  0.80483635  0.59606712  1
  Nb  Nb139  1  0.40608922  0.40119138  0.20096799  1
  Nb  Nb140  1  0.79509755  0.80923813  0.39890159  1
  Nb  Nb141  1  0.79478536  0.60307337  0.20146808  1
  Nb  Nb142  1  -0.00285083  0.79991315  0.19713216  1
  Nb  Nb143  1  0.60184636  0.39730616  0.19977782  1
  Nb  Nb144  1  0.59883056  0.59276543  0.19925644  1
  Nb  Nb145  1  0.60842029  0.80503091  0.80168639  1
  Nb  Nb146  1  0.20203860  0.80864758  0.40503829  1
  Nb  Nb147  1  0.20296627  0.80800508  0.59425323  1
  Nb  Nb148  1  0.79875137  0.80104497  0.20457604  1
  Nb  Nb149  1  -0.00395808  0.38824010  0.19969512  1
  Pd  Pd150  1  0.80141795  0.80261877  0.79766717  1
  Pd  Pd151  1  0.19695656  0.60659716  0.39998401  1
  Pd  Pd152  1  0.40329994  0.39168485  -0.00783201  1
  Pd  Pd153  1  0.20131738  0.19304272  -0.00201767  1
  Pd  Pd154  1  0.39546358  0.20139791  0.59426407  1
  Pd  Pd155  1  0.00323359  0.59653735  0.40559542  1
  Pd  Pd156  1  0.20850279  0.00039170  0.38923914  1
  Pd  Pd157  1  -0.00384290  0.58567485  0.59594775  1
  Pd  Pd158  1  0.80541715  0.00192547  0.80355587  1
  Pd  Pd159  1  0.20234566  0.39840919  0.19153757  1
  Pd  Pd160  1  0.18851966  0.18741129  0.18654083  1
  Pd  Pd161  1  -0.00072094  0.20714121  0.79656058  1
  Pd  Pd162  1  0.19145823  0.59884708  -0.00980321  1
  Pd  Pd163  1  0.39706600  0.60616449  0.00140877  1
  Pd  Pd164  1  0.59643470  -0.00430371  0.01194373  1
  Pd  Pd165  1  0.39994567  0.39248946  0.40292328  1
  Pd  Pd166  1  0.80695689  0.60322666  0.60244824  1
  Pd  Pd167  1  0.21226401  0.59589440  0.20266070  1
  Pd  Pd168  1  0.79613664  0.19661498  0.59858548  1
  Pd  Pd169  1  0.59593751  0.39722307  -0.00695043  1
  Pd  Pd170  1  0.79359031  0.61077951  0.39729032  1
  Pd  Pd171  1  0.58949755  0.60448019  0.59687697  1
  Pd  Pd172  1  0.60754612  0.81448749  0.40957433  1
  Pd  Pd173  1  0.18650726  0.39720542  0.59381227  1
  Pd  Pd174  1  0.80930859  0.59453561  0.00203497  1
  Pd  Pd175  1  -0.01155852  0.01062915  0.41052497  1
  Pd  Pd176  1  0.60145859  0.79399501  0.19498048  1
  Pd  Pd177  1  0.39906577  -0.00441111  0.61083584  1
  Pd  Pd178  1  0.79535082  0.80630942  0.00358042  1
  Pd  Pd179  1  0.60692763  -0.00548746  0.40500447  1
  Pd  Pd180  1  0.60465034  -0.00264527  0.79271954  1
  Pd  Pd181  1  0.41018760  0.80391404  0.00415616  1
  Pd  Pd182  1  0.80239432  0.40010978  0.59532856  1
  Pd  Pd183  1  0.20662996  0.19418223  0.80660645  1
  Pd  Pd184  1  0.79587919  0.20351520  0.80164458  1
  Pd  Pd185  1  0.40805028  0.79367083  0.20026155  1
  Pd  Pd186  1  0.60041547  0.00443299  0.60591149  1
  Pd  Pd187  1  0.80664945  0.60107279  0.79055192  1
  Pd  Pd188  1  0.19411449  0.80147041  -0.00910962  1
  Pd  Pd189  1  -0.00004438  0.39119907  0.78517233  1
  Pd  Pd190  1  -0.00354177  0.20974928  0.00387445  1
  Pd  Pd191  1  0.79264910  0.39890802  0.79897587  1
  Pd  Pd192  1  0.80457073  0.00029673  -0.00556725  1
  Pd  Pd193  1  0.39317181  0.20907996  0.80547648  1
  Pd  Pd194  1  0.59802130  0.00908513  0.19465935  1
  Pd  Pd195  1  0.59974200  0.40171357  0.40277594  1
  Pd  Pd196  1  0.59088080  0.79756361  0.60118608  1
  Pd  Pd197  1  0.40499538  0.60768315  0.60262064  1
  Pd  Pd198  1  -0.00936788  0.59421142  0.19265788  1
  Pd  Pd199  1  0.20393084  -0.00144029  0.00286818  1
  Rh  Rh200  1  0.21306601  0.19086025  0.40659336  1
  Rh  Rh201  1  0.80010144  0.19346073  0.40383493  1
  Rh  Rh202  1  0.40109211  0.00442979  0.79593175  1
  Rh  Rh203  1  0.39743184  0.20520638  -0.00579076  1
  Rh  Rh204  1  0.19589510  -0.00377084  0.60738732  1
  Rh  Rh205  1  0.39695892  0.00417866  0.39413480  1
  Rh  Rh206  1  0.80096106  0.40723005  0.20535846  1
  Rh  Rh207  1  0.81162777  0.00773775  0.59369072  1
  Rh  Rh208  1  -0.00496589  0.40068019  0.00703975  1
  Rh  Rh209  1  0.39162298  0.80898609  0.40554163  1
  Rh  Rh210  1  0.60884786  0.20637391  0.79679272  1
  Rh  Rh211  1  0.80079669  0.19803057  0.20309550  1
  Rh  Rh212  1  0.40768593  0.20546411  0.20909087  1
  Rh  Rh213  1  -0.00478657  0.00023245  -0.00655486  1
  Rh  Rh214  1  0.40784066  0.80341318  0.79477382  1
  Rh  Rh215  1  0.20566254  0.40544242  0.79585363  1
  Rh  Rh216  1  0.00510486  0.79312782  0.39203751  1
  Rh  Rh217  1  0.60090515  0.60161931  0.80359178  1
  Rh  Rh218  1  0.80253597  0.78760600  0.59380509  1
  Rh  Rh219  1  0.20319141  0.00495154  0.80623584  1
  Rh  Rh220  1  -0.01194826  0.19678886  0.38676519  1
  Rh  Rh221  1  0.60729507  0.19938701  0.01114349  1
  Rh  Rh222  1  0.00110128  0.40094171  0.39994672  1
  Rh  Rh223  1  0.80643299  0.40220410  -0.00904422  1
  Rh  Rh224  1  0.60252355  0.40537500  0.60189016  1
  Rh  Rh225  1  0.00118135  0.19903709  0.60708254  1
  Rh  Rh226  1  0.40169738  0.40167091  0.60172266  1
  Rh  Rh227  1  0.80016193  -0.00256974  0.20582563  1
  Rh  Rh228  1  0.59295843  0.19568132  0.39764420  1
  Rh  Rh229  1  0.79650149  0.39855212  0.40787034  1
  Rh  Rh230  1  0.19653118  0.40046551  0.40769236  1
  Rh  Rh231  1  0.00875359  0.00607053  0.19567497  1
  Rh  Rh232  1  0.00524903  0.79447103  0.00141118  1
  Rh  Rh233  1  0.60212483  0.60903303  -0.00353104  1
  Rh  Rh234  1  0.18869000  0.80732476  0.21395646  1
  Rh  Rh235  1  0.80317669  0.20117001  -0.00165981  1
  Rh  Rh236  1  0.39229100  -0.00272409  0.20055899  1
  Rh  Rh237  1  0.00486500  0.59231782  0.80286751  1
  Rh  Rh238  1  -0.00804271  -0.00342961  0.79337599  1
  Rh  Rh239  1  0.00953509  0.81028948  0.61032435  1
  Rh  Rh240  1  -0.00354258  0.80865243  0.79379056  1
  Rh  Rh241  1  0.60051693  0.59058882  0.40293957  1
  Rh  Rh242  1  0.60386897  0.19614092  0.60389650  1
  Rh  Rh243  1  0.39654753  0.59465898  0.39602236  1
  Rh  Rh244  1  0.39138517  0.59312285  0.79993665  1
  Rh  Rh245  1  0.20305444  0.39728975  -0.00002609  1
  Rh  Rh246  1  0.19763787  0.79345734  0.79898854  1
  Rh  Rh247  1  0.20481368  0.19644297  0.59645706  1
  Rh  Rh248  1  0.19818237  0.60847596  0.60469165  1
  Rh  Rh249  1  0.39735625  -0.00771474  0.00901873  1
