# generated using pymatgen
data_ZrScNbPdRh
_symmetry_space_group_name_H-M   'P 1'
_cell_length_a   16.55923687
_cell_length_b   16.55922125
_cell_length_c   16.55749967
_cell_angle_alpha   90.00719571
_cell_angle_beta   89.99770444
_cell_angle_gamma   89.96975661
_symmetry_Int_Tables_number   1
_chemical_formula_structural   ZrScNbPdRh
_chemical_formula_sum   'Zr50 Sc50 Nb50 Pd50 Rh50'
_cell_volume   4540.19930633
_cell_formula_units_Z   50
loop_
 _symmetry_equiv_pos_site_id
 _symmetry_equiv_pos_as_xyz
  1  'x, y, z'
loop_
 _atom_site_type_symbol
 _atom_site_label
 _atom_site_symmetry_multiplicity
 _atom_site_fract_x
 _atom_site_fract_y
 _atom_site_fract_z
 _atom_site_occupancy
  Zr  Zr0  1  0.70179763  0.30236787  0.30339415  1
  Zr  Zr1  1  0.29283518  0.10452718  0.69740037  1
  Zr  Zr2  1  0.29959556  0.70296953  0.89838851  1
  Zr  Zr3  1  0.29564181  0.70572353  0.49725093  1
  Zr  Zr4  1  0.29851353  0.29316504  0.49837758  1
  Zr  Zr5  1  0.09554897  0.29788920  0.69899822  1
  Zr  Zr6  1  0.50113023  0.10272225  0.89693117  1
  Zr  Zr7  1  0.71247621  0.49965243  0.11066268  1
  Zr  Zr8  1  0.49802595  0.69573335  0.30003378  1
  Zr  Zr9  1  0.29348272  0.69497606  0.09089356  1
  Zr  Zr10  1  0.11368301  0.69824813  0.90463819  1
  Zr  Zr11  1  0.09957225  0.49698829  0.69400169  1
  Zr  Zr12  1  0.69966883  0.69349285  0.69399617  1
  Zr  Zr13  1  0.08869891  0.91022747  0.29684268  1
  Zr  Zr14  1  0.49837877  0.30564678  0.30769688  1
  Zr  Zr15  1  0.09953320  0.90663844  0.69910508  1
  Zr  Zr16  1  0.28379242  0.49393576  0.49657780  1
  Zr  Zr17  1  0.29909221  0.70330632  0.70507433  1
  Zr  Zr18  1  0.49996290  0.90235800  0.90349438  1
  Zr  Zr19  1  0.30116063  0.69930740  0.29881757  1
  Zr  Zr20  1  0.50978772  0.10609773  0.70449962  1
  Zr  Zr21  1  0.70354721  0.68566911  0.49488630  1
  Zr  Zr22  1  0.89873974  0.70416675  0.70025909  1
  Zr  Zr23  1  0.89140023  0.29875162  0.90143804  1
  Zr  Zr24  1  0.09423593  0.69342980  0.50121306  1
  Zr  Zr25  1  0.10692898  0.10308432  0.10374965  1
  Zr  Zr26  1  0.09722919  0.89544801  0.49562961  1
  Zr  Zr27  1  0.89253980  0.10262228  0.69735320  1
  Zr  Zr28  1  0.50816278  0.49922240  0.69745637  1
  Zr  Zr29  1  0.90136307  0.29218948  0.29967878  1
  Zr  Zr30  1  0.90795580  0.49960977  0.09916626  1
  Zr  Zr31  1  0.30051925  0.49320608  0.69921474  1
  Zr  Zr32  1  0.09653406  0.10403574  0.70801230  1
  Zr  Zr33  1  0.90693075  0.69120747  0.49899874  1
  Zr  Zr34  1  0.70214811  0.70440323  0.10054030  1
  Zr  Zr35  1  0.89509124  0.49326555  0.28951236  1
  Zr  Zr36  1  0.50658699  0.29496362  0.89197572  1
  Zr  Zr37  1  0.89610384  0.90710107  0.29629499  1
  Zr  Zr38  1  0.90076555  0.49341218  0.90293715  1
  Zr  Zr39  1  0.49918598  0.90237145  0.50069317  1
  Zr  Zr40  1  0.50039199  0.89879219  0.30370528  1
  Zr  Zr41  1  0.70770445  0.90920602  0.70044541  1
  Zr  Zr42  1  0.09870481  0.50626805  0.90349622  1
  Zr  Zr43  1  0.29922302  0.90183756  0.50460493  1
  Zr  Zr44  1  0.30409416  0.09747993  0.91317451  1
  Zr  Zr45  1  0.69729875  0.30053860  0.49360992  1
  Zr  Zr46  1  0.70072542  0.10265964  0.69448723  1
  Zr  Zr47  1  0.50140838  0.29563642  0.49661826  1
  Zr  Zr48  1  0.49311027  0.30007429  0.70032386  1
  Zr  Zr49  1  0.30257892  0.49318015  0.29856103  1
  Sc  Sc50  1  0.90217862  0.89812104  0.09999687  1
  Sc  Sc51  1  0.70629432  0.10930230  0.89973631  1
  Sc  Sc52  1  0.49687705  0.91239646  0.70018182  1
  Sc  Sc53  1  0.70015933  0.10234080  0.50357826  1
  Sc  Sc54  1  0.90265251  0.30341203  0.09745540  1
  Sc  Sc55  1  0.09938750  0.89766523  0.90695382  1
  Sc  Sc56  1  0.90152616  0.09555150  0.09596128  1
  Sc  Sc57  1  0.49742794  0.70540436  0.49585770  1
  Sc  Sc58  1  0.90772926  0.70792210  0.90196253  1
  Sc  Sc59  1  0.89670411  0.90293034  0.90414844  1
  Sc  Sc60  1  0.09771616  0.70082237  0.70424886  1
  Sc  Sc61  1  0.70598490  0.29454366  0.09840543  1
  Sc  Sc62  1  0.49617419  0.69985740  0.10037532  1
  Sc  Sc63  1  0.50248315  0.49567365  0.89196520  1
  Sc  Sc64  1  0.30137746  0.89941702  0.29607996  1
  Sc  Sc65  1  0.51177662  0.48736457  0.49869616  1
  Sc  Sc66  1  0.50930237  0.29083342  0.10911434  1
  Sc  Sc67  1  0.09260062  0.10765733  0.29425066  1
  Sc  Sc68  1  0.50527057  0.69617577  0.69623871  1
  Sc  Sc69  1  0.89895533  0.70264064  0.10235869  1
  Sc  Sc70  1  0.49869379  0.90055393  0.10385177  1
  Sc  Sc71  1  0.09691292  0.09924805  0.90344450  1
  Sc  Sc72  1  0.29414485  0.50898555  0.90643451  1
  Sc  Sc73  1  0.28272220  0.10075967  0.29905241  1
  Sc  Sc74  1  0.09055596  0.69853159  0.08693046  1
  Sc  Sc75  1  0.71059118  0.89938288  0.90448796  1
  Sc  Sc76  1  0.30059266  0.91528906  0.09942725  1
  Sc  Sc77  1  0.91112764  0.49728147  0.69994177  1
  Sc  Sc78  1  0.30619881  0.49966267  0.10787267  1
  Sc  Sc79  1  0.29495929  0.30831638  0.30431265  1
  Sc  Sc80  1  0.50608285  0.10805352  0.50598629  1
  Sc  Sc81  1  0.30879785  0.28675692  0.90089488  1
  Sc  Sc82  1  0.89592871  0.70214511  0.30000583  1
  Sc  Sc83  1  0.89053378  0.29759929  0.49013784  1
  Sc  Sc84  1  0.89275290  0.10447615  0.48760800  1
  Sc  Sc85  1  0.69937282  0.71159834  0.90408955  1
  Sc  Sc86  1  0.08961495  0.28740304  0.90335498  1
  Sc  Sc87  1  0.50247358  0.09735219  0.10643119  1
  Sc  Sc88  1  0.69904294  0.49119237  0.88996490  1
  Sc  Sc89  1  0.90178308  0.90276231  0.48629123  1
  Sc  Sc90  1  0.10696525  0.10311018  0.48514981  1
  Sc  Sc91  1  0.69811407  0.08935058  0.30241242  1
  Sc  Sc92  1  0.71153579  0.89734621  0.09712784  1
  Sc  Sc93  1  0.49769770  0.70819801  0.90531238  1
  Sc  Sc94  1  0.90165838  0.10204889  0.90465485  1
  Sc  Sc95  1  0.09073998  0.70099184  0.31212157  1
  Sc  Sc96  1  0.30578564  0.89717047  0.90085521  1
  Sc  Sc97  1  0.50952051  0.10345752  0.29644974  1
  Sc  Sc98  1  0.30141216  0.90165941  0.69918071  1
  Sc  Sc99  1  0.89823323  0.90225562  0.70931972  1
  Nb  Nb100  1  0.09434148  0.49549121  0.10349787  1
  Nb  Nb101  1  0.70282131  0.89345079  0.30743897  1
  Nb  Nb102  1  0.09502940  0.30307108  0.49461799  1
  Nb  Nb103  1  0.10034847  0.89793603  0.10365972  1
  Nb  Nb104  1  0.69847995  0.10213233  0.10082376  1
  Nb  Nb105  1  0.69856924  0.50842736  0.68789615  1
  Nb  Nb106  1  0.69987520  0.69427005  0.29721182  1
  Nb  Nb107  1  0.70958780  0.29836473  0.70114520  1
  Nb  Nb108  1  0.10261193  0.29339506  0.10790287  1
  Nb  Nb109  1  0.49398400  0.49807792  0.29407979  1
  Nb  Nb110  1  0.09563979  0.29813874  0.29809986  1
  Nb  Nb111  1  0.29670695  0.29564334  0.09892768  1
  Nb  Nb112  1  0.30052330  0.10001033  0.49480299  1
  Nb  Nb113  1  0.90252814  0.09847725  0.29914266  1
  Nb  Nb114  1  0.49828632  0.49757416  0.10564751  1
  Nb  Nb115  1  0.70437793  0.30351938  0.90355799  1
  Nb  Nb116  1  0.69819342  0.50512791  0.30384689  1
  Nb  Nb117  1  0.70835040  0.49918041  0.50239470  1
  Nb  Nb118  1  0.90492745  0.49956000  0.50153895  1
  Nb  Nb119  1  0.69883371  0.90073203  0.49483191  1
  Nb  Nb120  1  0.09952336  0.49417485  0.30014025  1
  Nb  Nb121  1  0.09010171  0.49841037  0.49837570  1
  Nb  Nb122  1  0.29780487  0.30002083  0.70175720  1
  Nb  Nb123  1  0.29550571  0.10905803  0.10191426  1
  Nb  Nb124  1  0.90106837  0.30000932  0.69503510  1
  Nb  Nb125  1  0.40426877  0.39460388  0.00653564  1
  Nb  Nb126  1  0.18965519  0.59818141  0.20127223  1
  Nb  Nb127  1  0.20047692  0.39254351  0.00447273  1
  Nb  Nb128  1  0.79899990  0.40453000  0.59974414  1
  Nb  Nb129  1  0.39678505  0.59522027  0.59550875  1
  Nb  Nb130  1  0.60928843  0.80575455  0.59742299  1
  Nb  Nb131  1  0.39895538  0.59989259  0.79460615  1
  Nb  Nb132  1  0.00291727  0.40211174  0.39825928  1
  Nb  Nb133  1  0.60543350  0.00430002  0.00231663  1
  Nb  Nb134  1  0.60259360  0.80619390  0.79288074  1
  Nb  Nb135  1  0.79565246  0.80080297  0.59248613  1
  Nb  Nb136  1  0.60840940  0.79885404  0.20990191  1
  Nb  Nb137  1  0.39693306  0.00581467  0.40427766  1
  Nb  Nb138  1  0.79864881  0.59855961  0.79983149  1
  Nb  Nb139  1  0.19308167  0.79771431  0.19513842  1
  Nb  Nb140  1  0.79785144  0.59649536  -0.00487349  1
  Nb  Nb141  1  0.39834246  0.59087756  0.40187480  1
  Nb  Nb142  1  0.60084374  0.40827276  0.20335893  1
  Nb  Nb143  1  0.60361014  0.58937684  0.00493306  1
  Nb  Nb144  1  0.00135990  0.00853137  0.59702953  1
  Nb  Nb145  1  -0.00207645  0.20083385  0.59606614  1
  Nb  Nb146  1  0.80044848  0.19148758  0.20143416  1
  Nb  Nb147  1  0.20049945  0.39347918  0.80391298  1
  Nb  Nb148  1  0.38915309  0.20164585  0.19857569  1
  Nb  Nb149  1  0.59995764  0.40161792  0.00571738  1
  Pd  Pd150  1  0.80151406  0.19869641  0.80220810  1
  Pd  Pd151  1  0.00597899  0.80326764  0.80682256  1
  Pd  Pd152  1  -0.00333978  0.60439978  0.80283711  1
  Pd  Pd153  1  0.79699906  0.00245715  0.19795398  1
  Pd  Pd154  1  0.38953953  0.40436153  0.81326685  1
  Pd  Pd155  1  0.60027183  0.60987259  0.81317478  1
  Pd  Pd156  1  0.00831959  0.39117416  0.00048678  1
  Pd  Pd157  1  0.61067941  -0.00329521  0.81122534  1
  Pd  Pd158  1  0.39902519  0.19617605  0.60281568  1
  Pd  Pd159  1  0.40803118  0.79565207  0.60605712  1
  Pd  Pd160  1  0.19085059  0.00664346  0.59581818  1
  Pd  Pd161  1  -0.00517630  0.00129664  0.80093506  1
  Pd  Pd162  1  0.19889098  0.59844846  0.39296012  1
  Pd  Pd163  1  0.19688588  0.39084764  0.60163594  1
  Pd  Pd164  1  0.19769411  -0.00249382  -0.00044219  1
  Pd  Pd165  1  0.40193186  0.01271972  0.59803633  1
  Pd  Pd166  1  0.19410731  0.79714028  0.60525416  1
  Pd  Pd167  1  0.60822528  0.39083119  0.60554381  1
  Pd  Pd168  1  0.79864301  0.40787730  0.78722302  1
  Pd  Pd169  1  0.80843229  0.59416065  0.39293441  1
  Pd  Pd170  1  0.59185610  0.59261159  0.40282329  1
  Pd  Pd171  1  0.80430761  0.79628209  0.40214479  1
  Pd  Pd172  1  0.39952626  0.40188802  0.59055321  1
  Pd  Pd173  1  0.60150896  0.19982084  0.00004516  1
  Pd  Pd174  1  0.41127773  0.20154761  0.01050091  1
  Pd  Pd175  1  0.00341727  0.79538074  0.20007831  1
  Pd  Pd176  1  0.20444829  -0.00310955  0.81036762  1
  Pd  Pd177  1  0.60967650  -0.01320845  0.19390332  1
  Pd  Pd178  1  0.20232147  -0.00618336  0.39453157  1
  Pd  Pd179  1  0.00297792  0.60638758  0.20402862  1
  Pd  Pd180  1  0.00628118  0.39355929  0.80680756  1
  Pd  Pd181  1  0.39520547  0.80668254  0.00940060  1
  Pd  Pd182  1  0.81010782  -0.00626161  0.58783589  1
  Pd  Pd183  1  0.19168298  0.20030629  0.59317766  1
  Pd  Pd184  1  0.00258021  -0.00127842  0.00523446  1
  Pd  Pd185  1  0.59555262  0.00641328  0.40581592  1
  Pd  Pd186  1  0.20280537  0.20299471  0.81017366  1
  Pd  Pd187  1  0.41083778  0.59114807  -0.00770092  1
  Pd  Pd188  1  0.59870871  0.60190341  0.19479272  1
  Pd  Pd189  1  0.39684139  0.19040184  0.38791965  1
  Pd  Pd190  1  0.39669797  0.79840626  0.19243077  1
  Pd  Pd191  1  0.60812976  0.39334649  0.79426819  1
  Pd  Pd192  1  0.19683230  0.80779761  0.38977575  1
  Pd  Pd193  1  0.19692799  0.81100720  0.80041016  1
  Pd  Pd194  1  0.60320192  0.79443055  0.40090472  1
  Pd  Pd195  1  0.39311270  0.00505738  0.79739906  1
  Pd  Pd196  1  0.19960661  0.60425071  0.60350454  1
  Pd  Pd197  1  -0.00966308  0.81161408  0.59964447  1
  Pd  Pd198  1  0.19766256  0.40124984  0.19435693  1
  Pd  Pd199  1  0.39561737  0.01316282  0.21014228  1
  Rh  Rh200  1  -0.00023255  0.80349464  -0.00104081  1
  Rh  Rh201  1  0.39406577  0.80579195  0.39982540  1
  Rh  Rh202  1  -0.01186847  0.20059948  0.79599207  1
  Rh  Rh203  1  0.79711830  0.00231123  0.39892938  1
  Rh  Rh204  1  0.39348051  0.19224602  0.79275785  1
  Rh  Rh205  1  0.80935834  0.79437447  0.00118026  1
  Rh  Rh206  1  0.79443974  0.00561111  0.00034556  1
  Rh  Rh207  1  0.59708370  0.80961725  0.00424659  1
  Rh  Rh208  1  0.00200524  0.39140354  0.20371076  1
  Rh  Rh209  1  0.20378504  0.59079573  0.79267449  1
  Rh  Rh210  1  0.80540412  0.60607570  0.19951829  1
  Rh  Rh211  1  0.58909694  0.60372498  0.58458276  1
  Rh  Rh212  1  0.19518606  -0.00481996  0.19849363  1
  Rh  Rh213  1  0.79342616  0.79206552  0.79369312  1
  Rh  Rh214  1  0.00178381  0.20329481  0.40232145  1
  Rh  Rh215  1  0.41098648  0.79610606  0.79524609  1
  Rh  Rh216  1  0.60391191  0.20864661  0.60472226  1
  Rh  Rh217  1  0.20365712  0.80940670  0.00891096  1
  Rh  Rh218  1  0.19889354  0.20631934  0.39571073  1
  Rh  Rh219  1  0.80269771  0.21034080  0.59615789  1
  Rh  Rh220  1  -0.00101588  0.00796315  0.40256579  1
  Rh  Rh221  1  0.79647496  0.80053913  0.20639068  1
  Rh  Rh222  1  0.20309407  0.20827421  0.20832234  1
  Rh  Rh223  1  0.60844317  0.20585054  0.20787179  1
  Rh  Rh224  1  0.19468648  0.20277634  -0.00299087  1
  Rh  Rh225  1  0.79161288  0.18955028  0.38888754  1
  Rh  Rh226  1  -0.00678722  0.60185646  -0.00285154  1
  Rh  Rh227  1  -0.00580371  0.58822563  0.39168175  1
  Rh  Rh228  1  0.18962669  0.39406897  0.39917630  1
  Rh  Rh229  1  -0.00101694  0.19848274  0.00821256  1
  Rh  Rh230  1  0.80143429  0.00832502  0.80776225  1
  Rh  Rh231  1  0.80507590  0.41103067  0.40365246  1
  Rh  Rh232  1  -0.00819605  0.19823956  0.19380001  1
  Rh  Rh233  1  0.60061647  -0.00252344  0.59606369  1
  Rh  Rh234  1  0.79457273  0.40307438  0.00147452  1
  Rh  Rh235  1  0.19588803  0.58436812  0.01609114  1
  Rh  Rh236  1  0.61145574  0.20780033  0.79548241  1
  Rh  Rh237  1  -0.01000152  0.38899539  0.58716951  1
  Rh  Rh238  1  0.79615880  0.38764982  0.20070716  1
  Rh  Rh239  1  0.81482559  0.59440258  0.60650316  1
  Rh  Rh240  1  0.00016910  0.00646107  0.19392090  1
  Rh  Rh241  1  -0.00651720  0.80142218  0.39728284  1
  Rh  Rh242  1  0.60318217  0.19457377  0.39909109  1
  Rh  Rh243  1  0.40862757  0.38580322  0.19278705  1
  Rh  Rh244  1  0.39836296  0.40529393  0.40919094  1
  Rh  Rh245  1  0.80349048  0.19973508  0.00728029  1
  Rh  Rh246  1  0.39313944  0.60362932  0.20395654  1
  Rh  Rh247  1  0.60526292  0.40810572  0.39234531  1
  Rh  Rh248  1  0.00169484  0.60015244  0.60667006  1
  Rh  Rh249  1  0.40879156  0.00589739  0.00475123  1
