# generated using pymatgen
data_ZrScNbPdRh
_symmetry_space_group_name_H-M   'P 1'
_cell_length_a   16.55390586
_cell_length_b   16.55566809
_cell_length_c   16.55198240
_cell_angle_alpha   90.02311460
_cell_angle_beta   89.99324608
_cell_angle_gamma   89.99557575
_symmetry_Int_Tables_number   1
_chemical_formula_structural   ZrScNbPdRh
_chemical_formula_sum   'Zr50 Sc50 Nb50 Pd50 Rh50'
_cell_volume   4536.25195530
_cell_formula_units_Z   50
loop_
 _symmetry_equiv_pos_site_id
 _symmetry_equiv_pos_as_xyz
  1  'x, y, z'
loop_
 _atom_site_type_symbol
 _atom_site_label
 _atom_site_symmetry_multiplicity
 _atom_site_fract_x
 _atom_site_fract_y
 _atom_site_fract_z
 _atom_site_occupancy
  Zr  Zr0  1  0.30507658  0.69766705  0.89393083  1
  Zr  Zr1  1  0.49338693  0.09756118  0.49924433  1
  Zr  Zr2  1  0.50803182  0.30396576  0.50671887  1
  Zr  Zr3  1  0.29049637  0.30170182  0.48166925  1
  Zr  Zr4  1  0.69977639  0.90573056  0.29587461  1
  Zr  Zr5  1  0.29946259  0.29406273  0.09497588  1
  Zr  Zr6  1  0.50591753  0.29457654  0.89898738  1
  Zr  Zr7  1  0.10383812  0.09236139  0.10563431  1
  Zr  Zr8  1  0.49960938  0.50266616  0.91033759  1
  Zr  Zr9  1  0.69762009  0.49611533  0.29661938  1
  Zr  Zr10  1  0.49513358  0.10494723  0.10078516  1
  Zr  Zr11  1  0.89803539  0.30526437  0.90025705  1
  Zr  Zr12  1  0.30488693  0.50745438  0.50461291  1
  Zr  Zr13  1  0.10214817  0.90169331  0.50155720  1
  Zr  Zr14  1  0.49823280  0.90463978  0.09869680  1
  Zr  Zr15  1  0.29941993  0.30049154  0.90273527  1
  Zr  Zr16  1  0.29570179  0.09017023  0.69531702  1
  Zr  Zr17  1  0.30162615  0.50727281  0.70253955  1
  Zr  Zr18  1  0.89708866  0.69439501  0.09500483  1
  Zr  Zr19  1  0.09790184  0.69961076  0.10033317  1
  Zr  Zr20  1  0.29854457  0.70880328  0.49510333  1
  Zr  Zr21  1  0.50517065  0.50753912  0.29927579  1
  Zr  Zr22  1  0.90607938  0.49552283  0.70884562  1
  Zr  Zr23  1  0.09960826  0.90112380  0.90125467  1
  Zr  Zr24  1  0.90879584  0.49523053  0.10331907  1
  Zr  Zr25  1  0.49683957  0.49586362  0.68368485  1
  Zr  Zr26  1  0.29579900  0.70444334  0.10280682  1
  Zr  Zr27  1  0.50448361  0.09035226  0.69748753  1
  Zr  Zr28  1  0.09143556  0.10020373  0.29852369  1
  Zr  Zr29  1  0.89927156  0.89865174  0.50561074  1
  Zr  Zr30  1  0.90332745  0.90486742  0.30005514  1
  Zr  Zr31  1  0.70134645  0.70255350  0.50174557  1
  Zr  Zr32  1  0.90037682  0.49852427  0.49968797  1
  Zr  Zr33  1  0.10491460  0.70420516  0.90261511  1
  Zr  Zr34  1  0.90172704  0.30152495  0.29269587  1
  Zr  Zr35  1  0.69491769  0.10417657  0.11468248  1
  Zr  Zr36  1  0.69311661  0.30547211  0.90419391  1
  Zr  Zr37  1  0.50193924  0.89950570  0.30489845  1
  Zr  Zr38  1  0.90987734  0.29718945  0.50444168  1
  Zr  Zr39  1  0.09307172  0.50520884  0.29300678  1
  Zr  Zr40  1  0.90253847  0.30230978  0.09739594  1
  Zr  Zr41  1  0.29685246  0.30994492  0.70379194  1
  Zr  Zr42  1  0.69666270  0.69645648  0.70932072  1
  Zr  Zr43  1  0.69480025  0.50192041  0.09210769  1
  Zr  Zr44  1  0.09982593  0.50474606  0.70016483  1
  Zr  Zr45  1  0.69508515  0.08742137  0.70366283  1
  Zr  Zr46  1  0.90641944  0.90255863  0.89179342  1
  Zr  Zr47  1  0.70499665  0.68712742  0.90105710  1
  Zr  Zr48  1  0.10277548  0.90168087  0.69935317  1
  Zr  Zr49  1  0.29616995  0.49387535  0.29962376  1
  Sc  Sc50  1  0.49675127  0.90132825  0.89480736  1
  Sc  Sc51  1  0.30415855  0.49467367  0.09762326  1
  Sc  Sc52  1  0.10932598  0.29616731  0.90312713  1
  Sc  Sc53  1  0.89729805  0.70355362  0.70448231  1
  Sc  Sc54  1  0.90691499  0.09351156  0.89267027  1
  Sc  Sc55  1  0.10069305  0.50844922  0.89994784  1
  Sc  Sc56  1  0.70016392  0.70018650  0.09442462  1
  Sc  Sc57  1  0.68102279  0.30355029  0.70778547  1
  Sc  Sc58  1  0.90293385  0.89375234  0.10219138  1
  Sc  Sc59  1  0.49926825  0.69241699  0.49040280  1
  Sc  Sc60  1  0.49623151  0.89893716  0.50068060  1
  Sc  Sc61  1  0.89638862  0.50157219  0.90444110  1
  Sc  Sc62  1  0.30163314  0.70129241  0.70021273  1
  Sc  Sc63  1  0.49647954  0.29462253  0.09999832  1
  Sc  Sc64  1  0.89911298  0.70510582  0.50441323  1
  Sc  Sc65  1  0.70316055  0.89249763  0.49821892  1
  Sc  Sc66  1  0.49951611  0.09841846  0.90050157  1
  Sc  Sc67  1  0.49193729  0.69897045  0.30171305  1
  Sc  Sc68  1  0.68500454  0.10259923  0.50330740  1
  Sc  Sc69  1  0.69873441  0.29913023  0.29471185  1
  Sc  Sc70  1  0.29911245  0.10099183  0.90272113  1
  Sc  Sc71  1  0.30183906  0.89945734  0.50701535  1
  Sc  Sc72  1  0.30006829  0.49773368  0.90063942  1
  Sc  Sc73  1  0.50265357  0.69152623  0.10089469  1
  Sc  Sc74  1  0.68860611  0.70055324  0.30727293  1
  Sc  Sc75  1  0.90287139  0.69474739  0.89842820  1
  Sc  Sc76  1  0.29705859  0.29475882  0.29110099  1
  Sc  Sc77  1  0.10125661  0.49819086  0.09648447  1
  Sc  Sc78  1  0.51123081  0.10189985  0.30307886  1
  Sc  Sc79  1  0.10219178  0.09121579  0.69886391  1
  Sc  Sc80  1  0.10184976  0.90656310  0.28939337  1
  Sc  Sc81  1  0.69756680  0.89120814  0.89327941  1
  Sc  Sc82  1  0.09824166  0.29568521  0.09889176  1
  Sc  Sc83  1  0.29376997  0.90669421  0.09990162  1
  Sc  Sc84  1  0.10251337  0.09470880  0.89814305  1
  Sc  Sc85  1  0.09560565  0.10121989  0.49642586  1
  Sc  Sc86  1  0.10394089  0.70403977  0.51302841  1
  Sc  Sc87  1  0.10457684  0.69735607  0.70542585  1
  Sc  Sc88  1  0.69511949  0.30023758  0.09938030  1
  Sc  Sc89  1  0.30808896  0.89865593  0.69867179  1
  Sc  Sc90  1  0.91140060  0.69701559  0.29487044  1
  Sc  Sc91  1  0.29879463  0.90277964  0.90046828  1
  Sc  Sc92  1  0.50584786  0.70218250  0.89602048  1
  Sc  Sc93  1  0.90949052  0.11093126  0.11371077  1
  Sc  Sc94  1  0.30085213  0.10521527  0.09983009  1
  Sc  Sc95  1  0.68248952  0.49335820  0.49774211  1
  Sc  Sc96  1  0.29873082  0.88555433  0.30401802  1
  Sc  Sc97  1  0.91205466  0.09496461  0.50135179  1
  Sc  Sc98  1  0.09821316  0.50777382  0.50338738  1
  Sc  Sc99  1  0.70775245  0.89647923  0.10273511  1
  Nb  Nb100  1  0.70138647  0.50273876  0.70282583  1
  Nb  Nb101  1  0.89513478  0.09653678  0.70000313  1
  Nb  Nb102  1  0.10193011  0.90251094  0.09289913  1
  Nb  Nb103  1  0.50580301  0.50516887  0.10479517  1
  Nb  Nb104  1  0.90200766  0.10388789  0.30317123  1
  Nb  Nb105  1  0.49857585  0.70468351  0.70972156  1
  Nb  Nb106  1  0.09948816  0.30097361  0.49918782  1
  Nb  Nb107  1  0.70109309  0.49547962  0.89777334  1
  Nb  Nb108  1  0.49521473  0.29918425  0.29873032  1
  Nb  Nb109  1  0.49069077  0.29963151  0.69764949  1
  Nb  Nb110  1  0.88982767  0.91266786  0.69569398  1
  Nb  Nb111  1  0.70721439  0.29912151  0.50508243  1
  Nb  Nb112  1  0.69894215  0.89899500  0.69552858  1
  Nb  Nb113  1  0.90419035  0.30059277  0.69803921  1
  Nb  Nb114  1  0.29423951  0.70030902  0.30195419  1
  Nb  Nb115  1  0.69479855  0.10718099  0.90116779  1
  Nb  Nb116  1  0.10793141  0.70297837  0.30095345  1
  Nb  Nb117  1  0.29891329  0.10091001  0.49751192  1
  Nb  Nb118  1  0.90089255  0.49876871  0.29874693  1
  Nb  Nb119  1  0.50729114  0.89911163  0.70325868  1
  Nb  Nb120  1  0.49387870  0.49809664  0.49544448  1
  Nb  Nb121  1  0.10856679  0.30385228  0.31615935  1
  Nb  Nb122  1  0.29762011  0.10022334  0.30174348  1
  Nb  Nb123  1  0.09417449  0.30368268  0.69238078  1
  Nb  Nb124  1  0.70658444  0.10148497  0.29786034  1
  Nb  Nb125  1  0.39699329  0.00286302  0.20781270  1
  Nb  Nb126  1  0.40012230  0.20207495  0.79023799  1
  Nb  Nb127  1  0.40701544  0.40171934  0.39843003  1
  Nb  Nb128  1  0.00798660  0.79998547  0.39742176  1
  Nb  Nb129  1  0.80101436  0.59350793  0.20510643  1
  Nb  Nb130  1  0.79644930  0.39734848  0.60573725  1
  Nb  Nb131  1  0.39779670  0.79885982  0.00132461  1
  Nb  Nb132  1  0.39303855  0.20224056  0.59931159  1
  Nb  Nb133  1  0.59679128  0.80445977  0.20094745  1
  Nb  Nb134  1  0.00262345  0.40059399  0.39844048  1
  Nb  Nb135  1  0.80091747  0.19701282  0.40315195  1
  Nb  Nb136  1  0.19912980  0.60726630  0.39496914  1
  Nb  Nb137  1  0.79437256  0.59115345  0.60120796  1
  Nb  Nb138  1  0.79621829  0.00897567  -0.00111750  1
  Nb  Nb139  1  0.80096418  0.19999387  0.79630603  1
  Nb  Nb140  1  0.20360199  0.00347430  0.39752268  1
  Nb  Nb141  1  0.19963313  0.20546105  0.59703449  1
  Nb  Nb142  1  0.80007838  0.20231820  0.60547292  1
  Nb  Nb143  1  0.59812966  0.79750669  0.60971920  1
  Nb  Nb144  1  0.60833456  0.00359382  0.00165508  1
  Nb  Nb145  1  0.80149365  0.59398852  0.39857939  1
  Nb  Nb146  1  0.80056688  0.00973971  0.39510470  1
  Nb  Nb147  1  0.19540635  0.39739429  0.59852750  1
  Nb  Nb148  1  0.79881486  0.19428931  -0.00487898  1
  Nb  Nb149  1  -0.00327886  0.20374305  0.78993167  1
  Pd  Pd150  1  0.80577474  0.80697524  -0.00892412  1
  Pd  Pd151  1  0.19643887  0.19667783  0.79231068  1
  Pd  Pd152  1  0.20510647  0.59695408  0.00058418  1
  Pd  Pd153  1  0.79250359  0.78476433  0.20817988  1
  Pd  Pd154  1  0.00415018  0.18844859  0.60667209  1
  Pd  Pd155  1  0.39125330  -0.00534826  0.39531624  1
  Pd  Pd156  1  0.59902374  0.20046937  0.60724635  1
  Pd  Pd157  1  0.01014158  0.40130536  -0.00774422  1
  Pd  Pd158  1  0.81036146  0.79488719  0.38966054  1
  Pd  Pd159  1  0.60718087  0.20690721  0.39664981  1
  Pd  Pd160  1  0.60799029  -0.00314378  0.40627778  1
  Pd  Pd161  1  0.19398914  0.20169465  0.20111981  1
  Pd  Pd162  1  0.40969757  0.79514375  0.59908490  1
  Pd  Pd163  1  0.20422509  0.00355146  -0.00195805  1
  Pd  Pd164  1  0.59248496  0.39445669  0.19405601  1
  Pd  Pd165  1  0.20323693  0.59635128  0.19881469  1
  Pd  Pd166  1  0.59836661  0.60496632  0.59749933  1
  Pd  Pd167  1  -0.00385472  0.79895244  -0.00038950  1
  Pd  Pd168  1  0.39400332  0.59980908  0.20141081  1
  Pd  Pd169  1  0.59442586  0.80408307  0.00349291  1
  Pd  Pd170  1  0.19187369  0.40551110  0.80029927  1
  Pd  Pd171  1  0.79609147  0.40236654  0.19109003  1
  Pd  Pd172  1  -0.01013658  0.00553141  0.00800444  1
  Pd  Pd173  1  0.40782434  0.40282566  0.80609761  1
  Pd  Pd174  1  0.00619445  0.80141604  0.20147030  1
  Pd  Pd175  1  0.40325555  0.20551979  0.39915853  1
  Pd  Pd176  1  0.59191333  0.58936136  0.80129065  1
  Pd  Pd177  1  0.58887320  0.41026847  0.79704159  1
  Pd  Pd178  1  0.40612208  0.39670423  0.00542184  1
  Pd  Pd179  1  -0.00180918  0.19370697  -0.01098732  1
  Pd  Pd180  1  -0.00151386  0.80080459  0.60496996  1
  Pd  Pd181  1  0.39837381  0.00341126  0.80239181  1
  Pd  Pd182  1  0.00221660  0.60583394  0.40305163  1
  Pd  Pd183  1  0.40506788  0.61498876  0.60193955  1
  Pd  Pd184  1  0.59691123  0.39178944  0.39605877  1
  Pd  Pd185  1  0.01052908  0.39514154  0.81043933  1
  Pd  Pd186  1  0.19408639  0.39494072  0.19228637  1
  Pd  Pd187  1  0.79284523  0.00926248  0.58526726  1
  Pd  Pd188  1  0.40597401  0.39971304  0.20131268  1
  Pd  Pd189  1  -0.00881149  0.60689697  0.60548282  1
  Pd  Pd190  1  -0.00147690  0.80176131  0.79232901  1
  Pd  Pd191  1  0.79268540  0.00102159  0.80918903  1
  Pd  Pd192  1  0.80308839  0.39665616  0.40523059  1
  Pd  Pd193  1  0.20740900  0.80516638  0.79669329  1
  Pd  Pd194  1  0.39848768  0.60628015  0.00296672  1
  Pd  Pd195  1  0.40353584  0.80353286  0.19525223  1
  Pd  Pd196  1  0.79601094  0.39493913  0.79548885  1
  Pd  Pd197  1  0.80211811  0.80066359  0.80077562  1
  Pd  Pd198  1  0.81125209  0.00436156  0.19565222  1
  Pd  Pd199  1  0.19525656  0.80759889  0.19496106  1
  Rh  Rh200  1  0.00033399  0.60383017  0.80303923  1
  Rh  Rh201  1  0.60383244  -0.00537864  0.81001490  1
  Rh  Rh202  1  0.60414345  0.40080615  0.60388244  1
  Rh  Rh203  1  0.00240552  0.00208288  0.79148469  1
  Rh  Rh204  1  0.80194102  0.59148639  0.00322204  1
  Rh  Rh205  1  0.00142205  -0.00963485  0.39978316  1
  Rh  Rh206  1  -0.00159077  0.60325221  0.19469973  1
  Rh  Rh207  1  0.59377534  0.19625540  0.79361378  1
  Rh  Rh208  1  0.60302181  0.19517047  0.00669091  1
  Rh  Rh209  1  0.20249777  0.59946264  0.59748231  1
  Rh  Rh210  1  0.19318845  0.80313556  0.40233304  1
  Rh  Rh211  1  0.40261838  -0.00263600  0.00554913  1
  Rh  Rh212  1  0.60769301  0.60972186  0.19893548  1
  Rh  Rh213  1  0.00204669  0.60156836  -0.00087232  1
  Rh  Rh214  1  0.40242176  0.19175244  0.20991621  1
  Rh  Rh215  1  -0.00289968  0.20860233  0.39383870  1
  Rh  Rh216  1  0.19748213  0.19435839  0.00369691  1
  Rh  Rh217  1  0.59257943  -0.00341167  0.19561075  1
  Rh  Rh218  1  0.19446187  0.41841396  0.40727096  1
  Rh  Rh219  1  0.01029073  0.20932294  0.20770859  1
  Rh  Rh220  1  0.38856942  0.38993116  0.58591000  1
  Rh  Rh221  1  0.19360119  0.18758940  0.40138808  1
  Rh  Rh222  1  0.59900131  -0.01560988  0.59296207  1
  Rh  Rh223  1  0.20061091  -0.00619764  0.80354323  1
  Rh  Rh224  1  0.39962880  0.20127693  -0.01256686  1
  Rh  Rh225  1  0.80126360  0.20393842  0.19969975  1
  Rh  Rh226  1  0.00044729  -0.00152612  0.60543967  1
  Rh  Rh227  1  0.20275262  0.60138026  0.80233779  1
  Rh  Rh228  1  0.79688562  0.39748259  0.00354248  1
  Rh  Rh229  1  0.20336878  0.80151684  0.60786283  1
  Rh  Rh230  1  0.59501542  0.20617722  0.20728005  1
  Rh  Rh231  1  0.59434188  0.80176225  0.40297521  1
  Rh  Rh232  1  0.20009092  0.00403597  0.58885848  1
  Rh  Rh233  1  0.60289970  0.59874959  0.40197899  1
  Rh  Rh234  1  0.59309876  0.40163604  0.00530438  1
  Rh  Rh235  1  0.01085188  0.39269798  0.20710701  1
  Rh  Rh236  1  0.79203633  0.79275308  0.61322484  1
  Rh  Rh237  1  0.60120071  0.80297027  0.79709033  1
  Rh  Rh238  1  0.39068219  0.59505479  0.39173595  1
  Rh  Rh239  1  0.20507680  0.80176943  0.00055737  1
  Rh  Rh240  1  0.40129109  0.80130932  0.80562071  1
  Rh  Rh241  1  0.60117368  0.60001659  -0.00389449  1
  Rh  Rh242  1  0.80330918  0.59401110  0.79832452  1
  Rh  Rh243  1  0.00321040  0.40767697  0.59418482  1
  Rh  Rh244  1  0.40127400  0.79894760  0.40206989  1
  Rh  Rh245  1  0.20013576  0.40015187  0.00164825  1
  Rh  Rh246  1  0.40275254  0.00090614  0.59989551  1
  Rh  Rh247  1  0.20913351  -0.00163570  0.20602621  1
  Rh  Rh248  1  0.40633835  0.59626537  0.79684420  1
  Rh  Rh249  1  -0.00373892  -0.00320196  0.19204820  1
