# generated using pymatgen
data_ZrScNbPdRh
_symmetry_space_group_name_H-M   'P 1'
_cell_length_a   16.56078674
_cell_length_b   16.55987637
_cell_length_c   16.55951043
_cell_angle_alpha   89.96718465
_cell_angle_beta   90.00638319
_cell_angle_gamma   89.97136148
_symmetry_Int_Tables_number   1
_chemical_formula_structural   ZrScNbPdRh
_chemical_formula_sum   'Zr50 Sc50 Nb50 Pd50 Rh50'
_cell_volume   4541.35465861
_cell_formula_units_Z   50
loop_
 _symmetry_equiv_pos_site_id
 _symmetry_equiv_pos_as_xyz
  1  'x, y, z'
loop_
 _atom_site_type_symbol
 _atom_site_label
 _atom_site_symmetry_multiplicity
 _atom_site_fract_x
 _atom_site_fract_y
 _atom_site_fract_z
 _atom_site_occupancy
  Zr  Zr0  1  0.10291310  0.50628080  0.70717112  1
  Zr  Zr1  1  0.90140022  0.49678202  0.29788050  1
  Zr  Zr2  1  0.89940002  0.49240714  0.90558920  1
  Zr  Zr3  1  0.89990926  0.30801466  0.09810958  1
  Zr  Zr4  1  0.10212975  0.29900454  0.29810010  1
  Zr  Zr5  1  0.30271395  0.89631638  0.69402847  1
  Zr  Zr6  1  0.30269012  0.30482842  0.29986019  1
  Zr  Zr7  1  0.08923998  0.70096452  0.90276102  1
  Zr  Zr8  1  0.10102927  0.90340725  0.30273992  1
  Zr  Zr9  1  0.29977872  0.70586598  0.50107990  1
  Zr  Zr10  1  0.89276810  0.29647514  0.50378917  1
  Zr  Zr11  1  0.50008777  0.69770762  0.49418598  1
  Zr  Zr12  1  0.10143223  0.09954818  0.30212836  1
  Zr  Zr13  1  0.89132726  0.10387553  0.50163417  1
  Zr  Zr14  1  0.89476362  0.69692866  0.90468518  1
  Zr  Zr15  1  0.90504266  0.70142650  0.29792886  1
  Zr  Zr16  1  0.29664505  0.10081125  0.69238591  1
  Zr  Zr17  1  0.89873726  0.10565433  0.90240291  1
  Zr  Zr18  1  0.50453781  0.09824014  0.49233273  1
  Zr  Zr19  1  0.90249813  0.69795682  0.70207303  1
  Zr  Zr20  1  0.89313783  0.09641146  0.09734631  1
  Zr  Zr21  1  0.30426310  0.49655103  0.30568966  1
  Zr  Zr22  1  0.69621164  0.09352776  0.30100137  1
  Zr  Zr23  1  0.30630298  0.49663771  0.89712841  1
  Zr  Zr24  1  0.30488713  0.50629702  0.49920363  1
  Zr  Zr25  1  0.09961896  0.10839907  0.90337483  1
  Zr  Zr26  1  0.50975841  0.50378150  0.49779668  1
  Zr  Zr27  1  0.49767294  0.89347499  0.70568454  1
  Zr  Zr28  1  0.89495137  0.89423927  0.70139758  1
  Zr  Zr29  1  0.50660404  0.30711197  0.70354774  1
  Zr  Zr30  1  0.89606526  0.68994482  0.49965478  1
  Zr  Zr31  1  0.30719996  0.49196396  0.09374166  1
  Zr  Zr32  1  0.70726847  0.49585795  0.50646575  1
  Zr  Zr33  1  0.70192275  0.69408617  0.09875095  1
  Zr  Zr34  1  0.49819459  0.89321216  0.89785989  1
  Zr  Zr35  1  0.69481010  0.49040047  0.29154165  1
  Zr  Zr36  1  0.50591064  0.70685364  0.09601071  1
  Zr  Zr37  1  0.09487822  0.70280871  0.51107481  1
  Zr  Zr38  1  0.90244404  0.89851744  0.29866970  1
  Zr  Zr39  1  0.89807603  0.70419067  0.09975382  1
  Zr  Zr40  1  0.29822346  0.08375679  0.30736198  1
  Zr  Zr41  1  0.30366156  0.69977862  0.30248056  1
  Zr  Zr42  1  0.70030624  0.10384249  0.49639331  1
  Zr  Zr43  1  0.70124208  0.89713731  0.70403402  1
  Zr  Zr44  1  0.10660114  0.29765321  0.10065127  1
  Zr  Zr45  1  0.50254359  0.49631965  0.09899888  1
  Zr  Zr46  1  0.90073803  0.30302113  0.90196624  1
  Zr  Zr47  1  0.29577173  0.90768772  0.49033453  1
  Zr  Zr48  1  0.10086705  0.49986188  0.29685019  1
  Zr  Zr49  1  0.69858930  0.68654375  0.50095669  1
  Sc  Sc50  1  0.69384133  0.30224387  0.10180101  1
  Sc  Sc51  1  0.30687532  0.30101948  0.09829757  1
  Sc  Sc52  1  0.30512087  0.10867807  0.08910452  1
  Sc  Sc53  1  0.29532480  0.30624022  0.90388883  1
  Sc  Sc54  1  0.69422566  0.69540634  0.90685882  1
  Sc  Sc55  1  0.90311799  0.89342768  0.49886168  1
  Sc  Sc56  1  0.49905814  0.10984486  0.71178257  1
  Sc  Sc57  1  0.89763673  0.30174943  0.30130828  1
  Sc  Sc58  1  0.90519203  0.09405038  0.30009608  1
  Sc  Sc59  1  0.29746687  0.89476768  0.29612903  1
  Sc  Sc60  1  0.70485294  0.90657454  0.29558611  1
  Sc  Sc61  1  0.09369862  0.70407067  0.10126028  1
  Sc  Sc62  1  0.50498892  0.30391824  0.51059400  1
  Sc  Sc63  1  0.50252879  0.30274100  0.28741961  1
  Sc  Sc64  1  0.69843619  0.89867666  0.89139700  1
  Sc  Sc65  1  0.69420994  0.09828976  0.10148306  1
  Sc  Sc66  1  0.10654062  0.88873758  0.10489278  1
  Sc  Sc67  1  0.10744438  0.51380276  0.49980998  1
  Sc  Sc68  1  0.08977993  0.49364904  0.10382889  1
  Sc  Sc69  1  0.09774270  0.49654997  0.89418571  1
  Sc  Sc70  1  0.09764245  0.10047756  0.51564804  1
  Sc  Sc71  1  0.89530445  0.49998073  0.10298789  1
  Sc  Sc72  1  0.90212652  0.10865850  0.69598072  1
  Sc  Sc73  1  0.10585807  0.10456248  0.10646685  1
  Sc  Sc74  1  0.31085521  0.30769402  0.70341292  1
  Sc  Sc75  1  0.30861926  0.30574293  0.50809321  1
  Sc  Sc76  1  0.30152503  0.49974892  0.70564750  1
  Sc  Sc77  1  0.30348023  0.71557507  0.10150246  1
  Sc  Sc78  1  0.29799463  0.70070513  0.69869577  1
  Sc  Sc79  1  0.70096363  0.10227282  0.70043631  1
  Sc  Sc80  1  0.89181085  0.89111412  0.89969736  1
  Sc  Sc81  1  0.09452791  0.70578484  0.29511304  1
  Sc  Sc82  1  0.90072527  0.49697393  0.69973652  1
  Sc  Sc83  1  0.31185294  0.89524836  0.89974371  1
  Sc  Sc84  1  0.50978529  0.10096200  0.29398203  1
  Sc  Sc85  1  0.09660716  0.89954433  0.50530468  1
  Sc  Sc86  1  0.49932458  0.29456387  0.89657087  1
  Sc  Sc87  1  0.70597123  0.70477837  0.29068549  1
  Sc  Sc88  1  0.30569793  0.69910772  0.89892536  1
  Sc  Sc89  1  0.70278906  0.69040814  0.69472627  1
  Sc  Sc90  1  0.09317134  0.30502918  0.89749672  1
  Sc  Sc91  1  0.50218141  0.70401556  0.29475307  1
  Sc  Sc92  1  0.90032290  0.30054348  0.70138791  1
  Sc  Sc93  1  0.69838852  0.89938251  0.10816029  1
  Sc  Sc94  1  0.69812095  0.09689580  0.90426605  1
  Sc  Sc95  1  0.70232646  0.30149677  0.50690540  1
  Sc  Sc96  1  0.49170739  0.89977289  0.49266820  1
  Sc  Sc97  1  0.50286018  0.49829965  0.70452229  1
  Sc  Sc98  1  0.69786359  0.30138813  0.29891613  1
  Sc  Sc99  1  0.71134536  0.90928846  0.49461186  1
  Nb  Nb100  1  0.09655584  0.90333049  0.69963882  1
  Nb  Nb101  1  0.49833314  0.29174002  0.09639298  1
  Nb  Nb102  1  0.49892228  0.70229247  0.69420670  1
  Nb  Nb103  1  0.50164116  0.69503497  0.89558360  1
  Nb  Nb104  1  0.09805568  0.90057891  0.90268045  1
  Nb  Nb105  1  0.89806543  0.90149500  0.10173549  1
  Nb  Nb106  1  0.69586386  0.31022938  0.70854334  1
  Nb  Nb107  1  0.48634180  0.09705631  0.91136557  1
  Nb  Nb108  1  0.30310657  0.09812708  0.49758311  1
  Nb  Nb109  1  0.49994492  0.50835071  0.90538578  1
  Nb  Nb110  1  0.49473372  0.89737313  0.10052149  1
  Nb  Nb111  1  0.09865132  0.29729755  0.50255168  1
  Nb  Nb112  1  0.69924480  0.49529583  0.89917316  1
  Nb  Nb113  1  0.09656761  0.70004139  0.70267783  1
  Nb  Nb114  1  0.49660327  0.49932295  0.29813138  1
  Nb  Nb115  1  0.49878427  0.10936348  0.09368783  1
  Nb  Nb116  1  0.50991694  0.90465796  0.29131713  1
  Nb  Nb117  1  0.70147342  0.31492148  0.89304525  1
  Nb  Nb118  1  0.30855275  0.89779832  0.09631751  1
  Nb  Nb119  1  0.29899417  0.09825212  0.89837099  1
  Nb  Nb120  1  0.89668326  0.49388242  0.49704765  1
  Nb  Nb121  1  0.09980324  0.09982586  0.70236063  1
  Nb  Nb122  1  0.69777245  0.50065093  0.09420700  1
  Nb  Nb123  1  0.70003490  0.49071168  0.70490660  1
  Nb  Nb124  1  0.09661534  0.29522540  0.69905994  1
  Nb  Nb125  1  0.19714798  0.19644247  0.79515689  1
  Nb  Nb126  1  0.18846420  0.80493907  0.79870729  1
  Nb  Nb127  1  0.00182978  0.40068739  0.40893259  1
  Nb  Nb128  1  0.39714023  0.19745751  0.39992972  1
  Nb  Nb129  1  0.20673339  0.59881159  0.19449238  1
  Nb  Nb130  1  0.59910375  0.40324233  -0.00471593  1
  Nb  Nb131  1  0.79595372  0.58969644  0.80510599  1
  Nb  Nb132  1  0.40582617  0.60404950  0.59752353  1
  Nb  Nb133  1  0.39975799  0.59588043  0.20035284  1
  Nb  Nb134  1  0.40668815  -0.00134813  0.18976489  1
  Nb  Nb135  1  0.40228307  0.00360597  0.59757493  1
  Nb  Nb136  1  0.79400669  0.21009896  0.80544366  1
  Nb  Nb137  1  0.20136879  0.59918582  0.00430376  1
  Nb  Nb138  1  0.00388997  -0.00530441  -0.00184730  1
  Nb  Nb139  1  0.00467167  -0.00087588  0.80195565  1
  Nb  Nb140  1  0.79947087  0.19706111  0.19776781  1
  Nb  Nb141  1  0.00610516  0.39910549  0.59397909  1
  Nb  Nb142  1  0.58370496  0.00017350  0.00209220  1
  Nb  Nb143  1  0.20521332  0.19970443  0.40807575  1
  Nb  Nb144  1  0.19227977  0.39868724  0.60219757  1
  Nb  Nb145  1  0.20199652  -0.00457192  -0.00598046  1
  Nb  Nb146  1  0.19557843  -0.00126436  0.80072890  1
  Nb  Nb147  1  0.59918517  0.80180023  0.59476307  1
  Nb  Nb148  1  0.59452008  -0.00491710  0.60241638  1
  Nb  Nb149  1  0.60358833  0.80304905  0.40104521  1
  Pd  Pd150  1  0.00509080  -0.00506165  0.18915625  1
  Pd  Pd151  1  0.00345194  0.59751751  0.39978657  1
  Pd  Pd152  1  0.59927691  0.39404596  0.40182945  1
  Pd  Pd153  1  0.19600602  0.39477388  0.41186028  1
  Pd  Pd154  1  0.60589821  0.78526570  0.79479309  1
  Pd  Pd155  1  -0.00024939  0.00197823  0.41030394  1
  Pd  Pd156  1  0.21384490  0.19586643  0.20560252  1
  Pd  Pd157  1  0.00453508  0.20122370  0.40329284  1
  Pd  Pd158  1  0.39652682  0.00176908  0.79413377  1
  Pd  Pd159  1  0.60462920  0.60042437  0.79610671  1
  Pd  Pd160  1  0.21011428  -0.00227366  0.18544763  1
  Pd  Pd161  1  -0.00934941  -0.00043237  0.60408685  1
  Pd  Pd162  1  0.80142277  0.59581852  0.20110619  1
  Pd  Pd163  1  -0.00452380  0.59150571  0.60104324  1
  Pd  Pd164  1  0.19187665  0.40597467  -0.00130657  1
  Pd  Pd165  1  0.59321907  0.21250633  0.39595084  1
  Pd  Pd166  1  0.79523729  0.79868611  0.39940144  1
  Pd  Pd167  1  0.59505492  0.60066122  0.20230535  1
  Pd  Pd168  1  0.19505848  0.80246219  0.60486549  1
  Pd  Pd169  1  0.40685023  0.80712065  0.38909549  1
  Pd  Pd170  1  0.00396889  0.59431709  0.00508044  1
  Pd  Pd171  1  0.79289433  -0.00961431  -0.00080633  1
  Pd  Pd172  1  0.79446608  0.79547501  0.59553182  1
  Pd  Pd173  1  0.80754569  0.01100505  0.79764823  1
  Pd  Pd174  1  0.20021481  0.61015940  0.80954604  1
  Pd  Pd175  1  0.40308434  0.60348693  0.79126846  1
  Pd  Pd176  1  0.78751184  0.20860645  0.00102999  1
  Pd  Pd177  1  0.41270510  0.39070246  0.40453076  1
  Pd  Pd178  1  0.00307746  0.19845521  0.01010553  1
  Pd  Pd179  1  -0.00024366  0.80422183  0.80055388  1
  Pd  Pd180  1  0.79705037  0.20051538  0.38774492  1
  Pd  Pd181  1  0.60676052  0.60522291  0.38375864  1
  Pd  Pd182  1  0.78981060  0.80619821  0.00110968  1
  Pd  Pd183  1  0.79300221  0.59355592  0.38804863  1
  Pd  Pd184  1  0.20305235  0.40443374  0.19479954  1
  Pd  Pd185  1  0.39488582  0.19055748  0.20725220  1
  Pd  Pd186  1  0.40709124  0.19664120  0.59627168  1
  Pd  Pd187  1  0.39049033  0.20468460  0.80625205  1
  Pd  Pd188  1  0.19065086  0.79573474  0.39886259  1
  Pd  Pd189  1  0.60493552  0.80803194  -0.00036756  1
  Pd  Pd190  1  0.39527634  0.60979201  0.00877214  1
  Pd  Pd191  1  -0.00966928  0.20190064  0.19750368  1
  Pd  Pd192  1  0.79827283  0.00218697  0.60446204  1
  Pd  Pd193  1  0.19276003  0.61133163  0.39297455  1
  Pd  Pd194  1  0.60501603  0.19492415  0.81048916  1
  Pd  Pd195  1  0.60313529  0.19622367  0.60469542  1
  Pd  Pd196  1  0.59468523  0.00887204  0.80367692  1
  Pd  Pd197  1  0.60502372  0.20261212  -0.00739349  1
  Pd  Pd198  1  0.20482733  0.20907095  0.60088131  1
  Pd  Pd199  1  0.20332759  0.79762656  -0.00771132  1
  Rh  Rh200  1  0.58846855  0.40839174  0.80958246  1
  Rh  Rh201  1  0.00441380  0.39988884  0.00306806  1
  Rh  Rh202  1  0.39332262  0.20851726  -0.00694522  1
  Rh  Rh203  1  0.59310690  0.00214899  0.18694080  1
  Rh  Rh204  1  0.81022816  0.00153366  0.39689461  1
  Rh  Rh205  1  0.80152119  0.00559922  0.20233123  1
  Rh  Rh206  1  0.41110554  0.00240216  0.39247178  1
  Rh  Rh207  1  -0.00254685  0.80567843  0.19754930  1
  Rh  Rh208  1  0.80063844  0.40180044  0.39725736  1
  Rh  Rh209  1  0.40437168  0.79913761  0.59649648  1
  Rh  Rh210  1  0.40627793  0.40177141  0.19744286  1
  Rh  Rh211  1  0.20322854  0.20141024  -0.00604019  1
  Rh  Rh212  1  0.00141180  0.79751942  0.40362251  1
  Rh  Rh213  1  0.79521691  0.39497538  0.19645121  1
  Rh  Rh214  1  0.00233722  0.60265797  0.19603805  1
  Rh  Rh215  1  0.21053574  0.59776173  0.60563991  1
  Rh  Rh216  1  0.18290755  0.00859917  0.41201419  1
  Rh  Rh217  1  0.80749091  0.40096561  0.79534699  1
  Rh  Rh218  1  0.39883029  0.41452854  0.60142148  1
  Rh  Rh219  1  0.40631647  0.79224475  -0.00732878  1
  Rh  Rh220  1  0.39633376  0.78956140  0.80218143  1
  Rh  Rh221  1  0.19687116  0.38922640  0.79173544  1
  Rh  Rh222  1  0.78985313  0.20788204  0.61469444  1
  Rh  Rh223  1  0.20471087  -0.00421994  0.60032534  1
  Rh  Rh224  1  -0.00021381  0.40011059  0.79285879  1
  Rh  Rh225  1  -0.00913647  0.59682952  0.80323389  1
  Rh  Rh226  1  0.60354653  0.40396526  0.60157773  1
  Rh  Rh227  1  0.59578388  0.39792179  0.19132200  1
  Rh  Rh228  1  0.80411188  0.39776309  0.60654530  1
  Rh  Rh229  1  0.59552311  0.59863692  0.60917826  1
  Rh  Rh230  1  -0.00406023  0.79971407  0.60263525  1
  Rh  Rh231  1  0.79236879  0.78314297  0.80223467  1
  Rh  Rh232  1  -0.00404686  0.20299146  0.60039412  1
  Rh  Rh233  1  0.39697829  -0.00084532  0.00543652  1
  Rh  Rh234  1  -0.00791614  0.80922747  0.00641611  1
  Rh  Rh235  1  0.20274512  0.79664862  0.20230228  1
  Rh  Rh236  1  0.60669858  0.20027314  0.19850109  1
  Rh  Rh237  1  -0.00110705  0.39434938  0.20693379  1
  Rh  Rh238  1  0.40296257  0.80299375  0.20488832  1
  Rh  Rh239  1  0.79745954  0.59283421  -0.00389931  1
  Rh  Rh240  1  0.60432081  0.80210464  0.20319098  1
  Rh  Rh241  1  0.40620971  0.40113553  0.80656472  1
  Rh  Rh242  1  0.60069516  -0.01043408  0.40575727  1
  Rh  Rh243  1  0.41372782  0.39142049  -0.00680009  1
  Rh  Rh244  1  0.80368543  0.80338017  0.19710275  1
  Rh  Rh245  1  0.79119791  0.40024863  0.00798543  1
  Rh  Rh246  1  0.60081713  0.59583819  -0.00123794  1
  Rh  Rh247  1  0.80351284  0.59073593  0.60936904  1
  Rh  Rh248  1  0.40548911  0.59887241  0.39738434  1
  Rh  Rh249  1  -0.00325648  0.19832077  0.79702251  1
