# generated using pymatgen
data_ZrScNbPdRh
_symmetry_space_group_name_H-M   'P 1'
_cell_length_a   16.55830169
_cell_length_b   16.55803513
_cell_length_c   16.56078143
_cell_angle_alpha   89.96863496
_cell_angle_beta   90.00425617
_cell_angle_gamma   90.00270234
_symmetry_Int_Tables_number   1
_chemical_formula_structural   ZrScNbPdRh
_chemical_formula_sum   'Zr50 Sc50 Nb50 Pd50 Rh50'
_cell_volume   4540.51745249
_cell_formula_units_Z   50
loop_
 _symmetry_equiv_pos_site_id
 _symmetry_equiv_pos_as_xyz
  1  'x, y, z'
loop_
 _atom_site_type_symbol
 _atom_site_label
 _atom_site_symmetry_multiplicity
 _atom_site_fract_x
 _atom_site_fract_y
 _atom_site_fract_z
 _atom_site_occupancy
  Zr  Zr0  1  0.89748629  0.89933746  0.29590751  1
  Zr  Zr1  1  0.49585237  0.10495216  0.10041591  1
  Zr  Zr2  1  0.90210488  0.89874326  0.90266010  1
  Zr  Zr3  1  0.50164683  0.08946098  0.70658056  1
  Zr  Zr4  1  0.09767033  0.29726028  0.29623045  1
  Zr  Zr5  1  0.29200469  0.89061625  0.90650358  1
  Zr  Zr6  1  0.30668551  0.49703500  0.09925924  1
  Zr  Zr7  1  0.89404764  0.49505972  0.69055730  1
  Zr  Zr8  1  0.11373801  0.10209796  0.70571186  1
  Zr  Zr9  1  0.30500568  0.29770168  0.49635645  1
  Zr  Zr10  1  0.50182454  0.89844048  0.69021721  1
  Zr  Zr11  1  0.90688925  0.89929274  0.70309189  1
  Zr  Zr12  1  0.10157574  0.89153913  0.29499666  1
  Zr  Zr13  1  0.50417555  0.50108438  0.50993029  1
  Zr  Zr14  1  0.69706967  0.10075242  0.69738935  1
  Zr  Zr15  1  0.30101030  0.89789464  0.29598936  1
  Zr  Zr16  1  0.10460393  0.70147249  0.49426242  1
  Zr  Zr17  1  0.10095849  0.49748602  0.90241652  1
  Zr  Zr18  1  0.50596470  0.29593552  0.30206590  1
  Zr  Zr19  1  0.10370160  0.70378435  0.69796281  1
  Zr  Zr20  1  0.09832407  0.89694379  0.09904602  1
  Zr  Zr21  1  0.70027966  0.89649663  0.50116667  1
  Zr  Zr22  1  0.31213576  0.50116369  0.69730835  1
  Zr  Zr23  1  0.30700396  0.50405132  0.90349698  1
  Zr  Zr24  1  0.70582894  0.50663652  0.50051529  1
  Zr  Zr25  1  0.89238836  0.28829563  0.90566448  1
  Zr  Zr26  1  0.89338768  0.89836090  0.49048960  1
  Zr  Zr27  1  0.90079484  0.09400381  0.90539824  1
  Zr  Zr28  1  0.09870456  0.69859792  0.29388762  1
  Zr  Zr29  1  0.69430653  0.30548740  0.89582117  1
  Zr  Zr30  1  0.90090527  0.30389698  0.29815627  1
  Zr  Zr31  1  0.69770222  0.30584429  0.09552974  1
  Zr  Zr32  1  0.89268591  0.10180922  0.31169577  1
  Zr  Zr33  1  0.10420230  0.29501892  0.70267514  1
  Zr  Zr34  1  0.90002510  0.10046467  0.09324998  1
  Zr  Zr35  1  0.88103052  0.70149485  0.50129471  1
  Zr  Zr36  1  0.49424618  0.69691594  0.90000792  1
  Zr  Zr37  1  0.69957547  0.89956720  0.89484265  1
  Zr  Zr38  1  0.89580003  0.30499697  0.50136546  1
  Zr  Zr39  1  0.91508623  0.09758013  0.70030830  1
  Zr  Zr40  1  0.10221467  0.30220167  0.89438151  1
  Zr  Zr41  1  0.30589503  0.50125525  0.49808562  1
  Zr  Zr42  1  0.89939928  0.90560951  0.09847235  1
  Zr  Zr43  1  0.50332528  0.50501130  0.29806755  1
  Zr  Zr44  1  0.70336240  0.29837742  0.69764538  1
  Zr  Zr45  1  0.09966704  0.70493904  0.90836929  1
  Zr  Zr46  1  0.50298667  0.30600105  0.49805169  1
  Zr  Zr47  1  0.30199013  0.89647400  0.50966028  1
  Zr  Zr48  1  0.09133604  0.48499230  0.70163446  1
  Zr  Zr49  1  0.31934540  0.70462729  0.08566961  1
  Sc  Sc50  1  0.10033906  0.09913714  0.51516722  1
  Sc  Sc51  1  0.10698303  0.50127073  0.49594054  1
  Sc  Sc52  1  0.69767659  0.49852825  0.70424012  1
  Sc  Sc53  1  0.10469875  0.91081366  0.70189614  1
  Sc  Sc54  1  0.30524465  0.31097884  0.90210395  1
  Sc  Sc55  1  0.89648397  0.70179985  0.89780777  1
  Sc  Sc56  1  0.70571546  0.10743087  0.89489633  1
  Sc  Sc57  1  0.69612462  0.09667321  0.11008018  1
  Sc  Sc58  1  0.09899518  0.50975157  0.10101815  1
  Sc  Sc59  1  0.48979401  0.30390299  0.10023659  1
  Sc  Sc60  1  0.89664007  0.50160625  0.10953612  1
  Sc  Sc61  1  0.90613309  0.30661582  0.70215779  1
  Sc  Sc62  1  0.50366335  0.10266661  0.29199387  1
  Sc  Sc63  1  0.29868652  0.29068553  0.70595026  1
  Sc  Sc64  1  0.50956187  0.30647091  0.70040668  1
  Sc  Sc65  1  0.30100864  0.09688436  0.09959757  1
  Sc  Sc66  1  0.70305251  0.90988000  0.10920339  1
  Sc  Sc67  1  0.50017431  0.49236069  0.89139800  1
  Sc  Sc68  1  0.49716825  0.90550292  0.29647541  1
  Sc  Sc69  1  0.89559705  0.70303543  0.29352668  1
  Sc  Sc70  1  0.30021529  0.09274734  0.90865811  1
  Sc  Sc71  1  0.90362050  0.69679674  0.09911275  1
  Sc  Sc72  1  0.68795088  0.89571699  0.70274538  1
  Sc  Sc73  1  0.10254886  0.89858508  0.90150143  1
  Sc  Sc74  1  0.30030988  0.10367286  0.50836252  1
  Sc  Sc75  1  0.10140133  0.09746198  0.90000528  1
  Sc  Sc76  1  0.29970447  0.69687729  0.29411814  1
  Sc  Sc77  1  0.69950115  0.69413910  0.88691224  1
  Sc  Sc78  1  0.88571185  0.69952767  0.70612007  1
  Sc  Sc79  1  0.69997578  0.50569015  0.09389198  1
  Sc  Sc80  1  0.29334003  0.69622327  0.50797111  1
  Sc  Sc81  1  0.10329297  0.10299462  0.29776310  1
  Sc  Sc82  1  0.29820574  0.70176219  0.69339024  1
  Sc  Sc83  1  0.50083795  0.90397632  0.88591191  1
  Sc  Sc84  1  0.10774352  0.50826582  0.29367673  1
  Sc  Sc85  1  0.29461641  0.90018488  0.09897487  1
  Sc  Sc86  1  0.50228187  0.69940623  0.28158425  1
  Sc  Sc87  1  0.50151408  0.50385210  0.09575537  1
  Sc  Sc88  1  0.90479975  0.10663581  0.49933830  1
  Sc  Sc89  1  0.49438809  0.09592291  0.50780231  1
  Sc  Sc90  1  0.09912203  0.09507143  0.10047863  1
  Sc  Sc91  1  0.69561568  0.49898936  0.89942048  1
  Sc  Sc92  1  0.29677931  0.30106879  0.29872966  1
  Sc  Sc93  1  0.30142195  0.09909397  0.30146016  1
  Sc  Sc94  1  0.29804103  0.50302317  0.29646927  1
  Sc  Sc95  1  0.71076246  0.90655273  0.29765121  1
  Sc  Sc96  1  0.09975009  0.29515324  0.49555371  1
  Sc  Sc97  1  0.70789354  0.10979913  0.49613960  1
  Sc  Sc98  1  0.49107484  0.89559729  0.10700713  1
  Sc  Sc99  1  0.89218172  0.50119879  0.89858344  1
  Nb  Nb100  1  0.29782967  0.90158324  0.70605064  1
  Nb  Nb101  1  0.49698711  0.10122655  0.90544087  1
  Nb  Nb102  1  0.09264636  0.29520859  0.10218628  1
  Nb  Nb103  1  0.89398197  0.50099484  0.30330165  1
  Nb  Nb104  1  0.69738333  0.10514691  0.29936162  1
  Nb  Nb105  1  0.68732887  0.70272365  0.10125036  1
  Nb  Nb106  1  0.49852495  0.29999284  0.90199859  1
  Nb  Nb107  1  0.69568747  0.29304525  0.30495019  1
  Nb  Nb108  1  0.69409174  0.69869505  0.69898757  1
  Nb  Nb109  1  0.50898018  0.69471016  0.69700349  1
  Nb  Nb110  1  0.90499997  0.29575063  0.10138052  1
  Nb  Nb111  1  0.69234256  0.69415683  0.29471065  1
  Nb  Nb112  1  0.69478012  0.30242525  0.50075892  1
  Nb  Nb113  1  0.10076089  0.89757653  0.50073477  1
  Nb  Nb114  1  0.50418242  0.89802187  0.49955898  1
  Nb  Nb115  1  0.69503415  0.70179595  0.50178842  1
  Nb  Nb116  1  0.29769380  0.30188232  0.09597250  1
  Nb  Nb117  1  0.50854414  0.69982050  0.50673299  1
  Nb  Nb118  1  0.29888206  0.70302278  0.89759576  1
  Nb  Nb119  1  0.70406014  0.50011685  0.29555561  1
  Nb  Nb120  1  0.50587609  0.70077957  0.09835795  1
  Nb  Nb121  1  0.09132943  0.70133189  0.10127613  1
  Nb  Nb122  1  0.89781072  0.50103310  0.50063896  1
  Nb  Nb123  1  0.29586386  0.09784753  0.70512032  1
  Nb  Nb124  1  0.50131899  0.50406342  0.69872020  1
  Nb  Nb125  1  0.59902928  0.79729500  0.40025715  1
  Nb  Nb126  1  0.60165514  -0.00241533  0.40165825  1
  Nb  Nb127  1  -0.01010795  0.59635153  0.40180536  1
  Nb  Nb128  1  0.59589763  0.00223791  -0.00126814  1
  Nb  Nb129  1  0.20517338  0.39653345  0.59898236  1
  Nb  Nb130  1  0.60669742  0.39990451  0.20656394  1
  Nb  Nb131  1  0.00800901  -0.00640492  0.40139763  1
  Nb  Nb132  1  -0.00463827  0.60252005  0.59651254  1
  Nb  Nb133  1  -0.00586742  0.40989092  0.39597466  1
  Nb  Nb134  1  0.60085499  0.80093276  0.00269896  1
  Nb  Nb135  1  -0.00029452  0.79789814  0.59495881  1
  Nb  Nb136  1  0.39685427  0.79865176  0.79380550  1
  Nb  Nb137  1  0.41001370  0.79539899  0.40654343  1
  Nb  Nb138  1  0.80361896  0.00048417  0.79424061  1
  Nb  Nb139  1  0.19944228  0.60070205  0.80328725  1
  Nb  Nb140  1  0.59163872  0.19895517  -0.00230256  1
  Nb  Nb141  1  0.79705931  0.20667369  0.20314562  1
  Nb  Nb142  1  0.19662652  -0.00795433  0.40497324  1
  Nb  Nb143  1  -0.00306356  0.39119948  0.00676845  1
  Nb  Nb144  1  0.19979209  0.20963238  0.00482252  1
  Nb  Nb145  1  0.40867982  0.60740393  0.40512909  1
  Nb  Nb146  1  0.80192603  -0.00044823  0.60369769  1
  Nb  Nb147  1  0.40536369  0.19426478  0.80676939  1
  Nb  Nb148  1  0.78969444  0.79838100  0.00422034  1
  Nb  Nb149  1  0.00414146  0.59791356  0.79522532  1
  Pd  Pd150  1  0.59371731  0.19891831  0.80422907  1
  Pd  Pd151  1  0.20339351  0.60644761  0.00200709  1
  Pd  Pd152  1  0.39648806  0.60852949  0.79486094  1
  Pd  Pd153  1  0.79714963  0.80649075  0.61268827  1
  Pd  Pd154  1  0.19221955  0.39808361  0.01084336  1
  Pd  Pd155  1  0.40003598  0.40720095  0.39102738  1
  Pd  Pd156  1  0.00544514  0.41092912  0.20002551  1
  Pd  Pd157  1  0.80096799  0.39967583  0.80075522  1
  Pd  Pd158  1  0.39681582  0.00183929  0.19711124  1
  Pd  Pd159  1  -0.00742992  0.18954052  0.20356916  1
  Pd  Pd160  1  0.40503876  0.19351434  0.39652022  1
  Pd  Pd161  1  0.40200568  0.79290488  0.60204405  1
  Pd  Pd162  1  0.60757083  0.40673404  0.39791966  1
  Pd  Pd163  1  -0.00092311  0.19891878  0.80500114  1
  Pd  Pd164  1  -0.00178960  0.00665760  0.20806233  1
  Pd  Pd165  1  0.19817159  0.18826058  0.40566390  1
  Pd  Pd166  1  0.78593100  0.19442880  0.00949378  1
  Pd  Pd167  1  0.19292794  0.58684662  0.60900893  1
  Pd  Pd168  1  0.19442364  0.40032290  0.40045335  1
  Pd  Pd169  1  0.80756005  0.19871851  0.60383719  1
  Pd  Pd170  1  0.79408470  0.39646233  0.19818865  1
  Pd  Pd171  1  0.59383715  0.19698397  0.59457257  1
  Pd  Pd172  1  0.20862989  0.60892954  0.18497579  1
  Pd  Pd173  1  0.79587428  0.39590172  0.40168300  1
  Pd  Pd174  1  0.20690444  0.79065565  0.18847591  1
  Pd  Pd175  1  0.79815682  0.60837406  -0.00021928  1
  Pd  Pd176  1  0.40543324  0.39907609  0.20531686  1
  Pd  Pd177  1  -0.00441597  0.79508223  0.40142062  1
  Pd  Pd178  1  0.59746984  0.60199700  -0.00860153  1
  Pd  Pd179  1  0.59708530  0.60560564  0.39716259  1
  Pd  Pd180  1  0.20593531  0.19690288  0.19273659  1
  Pd  Pd181  1  0.40561980  0.20273900  0.61354665  1
  Pd  Pd182  1  0.39116045  0.20402614  0.20338500  1
  Pd  Pd183  1  0.21329295  0.40563820  0.79314364  1
  Pd  Pd184  1  -0.00860215  0.59271070  -0.00491802  1
  Pd  Pd185  1  0.40002415  -0.00326508  0.40212334  1
  Pd  Pd186  1  0.79745948  0.79324734  0.19332528  1
  Pd  Pd187  1  0.59257870  0.18813837  0.40968153  1
  Pd  Pd188  1  0.00194237  0.20766100  0.59962427  1
  Pd  Pd189  1  0.39169134  -0.00279594  0.80379353  1
  Pd  Pd190  1  0.19534626  0.40053900  0.19449885  1
  Pd  Pd191  1  0.21299179  0.79877950  0.39999174  1
  Pd  Pd192  1  0.79807566  0.60613300  0.39249393  1
  Pd  Pd193  1  0.79584249  0.60694393  0.19573085  1
  Pd  Pd194  1  0.00303057  0.79469257  0.79621703  1
  Pd  Pd195  1  0.80781521  0.40458040  0.00223559  1
  Pd  Pd196  1  0.39759308  0.38838251  0.60733130  1
  Pd  Pd197  1  0.40448203  -0.01141376  0.00183304  1
  Pd  Pd198  1  0.60118855  0.81246614  0.20194626  1
  Pd  Pd199  1  0.39454537  0.00103518  0.60282023  1
  Rh  Rh200  1  0.79777728  0.20904874  0.39871220  1
  Rh  Rh201  1  0.01073755  0.40151266  0.58327151  1
  Rh  Rh202  1  0.20228187  0.00031035  0.20734374  1
  Rh  Rh203  1  0.59349573  0.39512026  0.00346204  1
  Rh  Rh204  1  0.20716952  -0.00157510  0.59844106  1
  Rh  Rh205  1  0.59856348  0.59633783  0.79726842  1
  Rh  Rh206  1  0.79618414  0.80365042  0.80210100  1
  Rh  Rh207  1  0.58906184  0.79095681  0.80266083  1
  Rh  Rh208  1  -0.00837599  -0.01212964  0.58761688  1
  Rh  Rh209  1  0.21429055  0.19472511  0.81681602  1
  Rh  Rh210  1  0.80035472  0.59627588  0.79622779  1
  Rh  Rh211  1  0.79638238  0.00531055  0.40607830  1
  Rh  Rh212  1  0.00272138  0.00011727  0.80836965  1
  Rh  Rh213  1  0.00846717  -0.00403576  -0.00155584  1
  Rh  Rh214  1  0.40792139  0.59458503  -0.00130310  1
  Rh  Rh215  1  -0.00489791  0.79824038  0.19390516  1
  Rh  Rh216  1  0.20344094  0.00038491  0.80598167  1
  Rh  Rh217  1  -0.01298254  0.40182745  0.81647280  1
  Rh  Rh218  1  0.60670749  0.40479649  0.60152113  1
  Rh  Rh219  1  0.79057747  0.39688568  0.59660673  1
  Rh  Rh220  1  0.78426065  0.78956891  0.38513030  1
  Rh  Rh221  1  0.39392190  0.20805029  -0.00536841  1
  Rh  Rh222  1  0.19536361  0.79316388  0.00869334  1
  Rh  Rh223  1  0.79422887  0.60145446  0.60651590  1
  Rh  Rh224  1  0.59787542  0.40220661  0.79718673  1
  Rh  Rh225  1  0.60771269  0.59583265  0.60699279  1
  Rh  Rh226  1  0.40020672  0.60140329  0.19794535  1
  Rh  Rh227  1  0.00641097  0.19824262  0.40129093  1
  Rh  Rh228  1  -0.00770946  0.80090361  0.00443503  1
  Rh  Rh229  1  0.41310986  0.80752177  -0.01110619  1
  Rh  Rh230  1  0.60364782  0.79705255  0.60015048  1
  Rh  Rh231  1  0.20562134  0.79669427  0.79564494  1
  Rh  Rh232  1  0.19362450  0.81081460  0.60717575  1
  Rh  Rh233  1  0.39765000  0.79644661  0.20408143  1
  Rh  Rh234  1  0.80638507  0.01504273  0.20231294  1
  Rh  Rh235  1  0.60801630  0.00873679  0.80903136  1
  Rh  Rh236  1  -0.00381743  0.59923100  0.20856603  1
  Rh  Rh237  1  0.19611129  0.00641406  0.00329048  1
  Rh  Rh238  1  0.40519119  0.60735747  0.59576083  1
  Rh  Rh239  1  0.40534252  0.40287312  0.00068948  1
  Rh  Rh240  1  0.59668873  -0.00216276  0.20444295  1
  Rh  Rh241  1  0.60337321  0.58857044  0.19443365  1
  Rh  Rh242  1  0.78803572  -0.00375087  -0.00664657  1
  Rh  Rh243  1  0.20740556  0.60414162  0.39629066  1
  Rh  Rh244  1  0.60976308  0.00651898  0.58743937  1
  Rh  Rh245  1  0.01046471  0.20358967  -0.00471763  1
  Rh  Rh246  1  0.60567040  0.20968558  0.19076927  1
  Rh  Rh247  1  0.40577712  0.39228780  0.79499501  1
  Rh  Rh248  1  0.80901685  0.19434108  0.78857557  1
  Rh  Rh249  1  0.20456642  0.20625015  0.59787563  1
