# generated using pymatgen
data_ZrScNbPdRh
_symmetry_space_group_name_H-M   'P 1'
_cell_length_a   16.55698108
_cell_length_b   16.55503453
_cell_length_c   16.55507829
_cell_angle_alpha   90.00922504
_cell_angle_beta   90.02081893
_cell_angle_gamma   90.03481887
_symmetry_Int_Tables_number   1
_chemical_formula_structural   ZrScNbPdRh
_chemical_formula_sum   'Zr50 Sc50 Nb50 Pd50 Rh50'
_cell_volume   4537.76883269
_cell_formula_units_Z   50
loop_
 _symmetry_equiv_pos_site_id
 _symmetry_equiv_pos_as_xyz
  1  'x, y, z'
loop_
 _atom_site_type_symbol
 _atom_site_label
 _atom_site_symmetry_multiplicity
 _atom_site_fract_x
 _atom_site_fract_y
 _atom_site_fract_z
 _atom_site_occupancy
  Zr  Zr0  1  0.69200591  0.90439141  0.69210455  1
  Zr  Zr1  1  0.50336138  0.50514465  0.90473951  1
  Zr  Zr2  1  0.89913831  0.09804682  0.89764735  1
  Zr  Zr3  1  0.29559139  0.09402811  0.90485736  1
  Zr  Zr4  1  0.10192316  0.09820017  0.90330596  1
  Zr  Zr5  1  0.29447260  0.50585598  0.49552850  1
  Zr  Zr6  1  0.49835362  0.49922966  0.30227805  1
  Zr  Zr7  1  0.90816670  0.90104315  0.69398564  1
  Zr  Zr8  1  0.69758483  0.50489106  0.70311061  1
  Zr  Zr9  1  0.49355468  0.49863989  0.49605046  1
  Zr  Zr10  1  0.69778715  0.29586763  0.70117275  1
  Zr  Zr11  1  0.10584797  0.29877584  0.10526175  1
  Zr  Zr12  1  0.89688654  0.30749997  0.50266149  1
  Zr  Zr13  1  0.70187823  0.69569438  0.69464319  1
  Zr  Zr14  1  0.30173869  0.10269709  0.31199279  1
  Zr  Zr15  1  0.10511331  0.50297056  0.70378481  1
  Zr  Zr16  1  0.90200934  0.70683342  0.90104574  1
  Zr  Zr17  1  0.49832021  0.30371159  0.30173367  1
  Zr  Zr18  1  0.29458043  0.90014634  0.09294822  1
  Zr  Zr19  1  0.29428026  0.28342021  0.50093785  1
  Zr  Zr20  1  0.70095739  0.70037100  0.10498937  1
  Zr  Zr21  1  0.30483697  0.10601547  0.69819771  1
  Zr  Zr22  1  0.09505482  0.30919490  0.90231494  1
  Zr  Zr23  1  0.49603731  0.29370405  0.70982669  1
  Zr  Zr24  1  0.29583474  0.09471924  0.10572430  1
  Zr  Zr25  1  0.90723335  0.89158912  0.30894769  1
  Zr  Zr26  1  0.09511447  0.89926733  0.49742525  1
  Zr  Zr27  1  0.69795745  0.10393864  0.69789602  1
  Zr  Zr28  1  0.89870432  0.70492703  0.29404292  1
  Zr  Zr29  1  0.30096135  0.29971970  0.90294033  1
  Zr  Zr30  1  0.49693463  0.30167491  0.10391332  1
  Zr  Zr31  1  0.90906371  0.50615841  0.90936990  1
  Zr  Zr32  1  0.89796107  0.69641807  0.09165486  1
  Zr  Zr33  1  0.10001949  0.49411381  0.49860700  1
  Zr  Zr34  1  0.89921797  0.10558931  0.29676402  1
  Zr  Zr35  1  0.10227175  0.89941828  0.70294271  1
  Zr  Zr36  1  0.70840664  0.89721178  0.89984570  1
  Zr  Zr37  1  0.09768647  0.29988204  0.29713676  1
  Zr  Zr38  1  0.69872096  0.71325395  0.29450459  1
  Zr  Zr39  1  0.10361521  0.09761459  0.10103382  1
  Zr  Zr40  1  0.30219578  0.69322775  0.49424880  1
  Zr  Zr41  1  0.49751439  0.69769052  0.50309791  1
  Zr  Zr42  1  0.09916621  0.49578450  0.09165142  1
  Zr  Zr43  1  0.70168353  0.49985455  0.50914395  1
  Zr  Zr44  1  0.89126044  0.09654954  0.50763018  1
  Zr  Zr45  1  0.89944353  0.70869717  0.50004956  1
  Zr  Zr46  1  0.09846781  0.89893375  0.29284145  1
  Zr  Zr47  1  0.10404134  0.70864847  0.09743633  1
  Zr  Zr48  1  0.09832520  0.70915630  0.29376703  1
  Zr  Zr49  1  0.48866302  0.90009634  0.89926263  1
  Sc  Sc50  1  0.29210895  0.30043627  0.09744818  1
  Sc  Sc51  1  0.90451998  0.89858702  0.50542475  1
  Sc  Sc52  1  0.29535221  0.30478031  0.30188501  1
  Sc  Sc53  1  0.50001396  0.09309324  0.30294691  1
  Sc  Sc54  1  0.48985865  0.09973871  0.49727193  1
  Sc  Sc55  1  0.70838223  0.69091513  0.89119978  1
  Sc  Sc56  1  0.11491242  0.10472444  0.49379162  1
  Sc  Sc57  1  0.31699779  0.91019613  0.49525861  1
  Sc  Sc58  1  0.69894184  0.29897982  0.50383425  1
  Sc  Sc59  1  0.70215863  0.29869639  0.29966019  1
  Sc  Sc60  1  0.50026470  0.30347448  0.49446544  1
  Sc  Sc61  1  0.69763888  0.90220206  0.09411432  1
  Sc  Sc62  1  0.90192200  0.30270037  0.12221317  1
  Sc  Sc63  1  0.30085780  0.29312481  0.70864340  1
  Sc  Sc64  1  0.89856960  0.49352952  0.69387191  1
  Sc  Sc65  1  0.89770156  0.09854695  0.10314119  1
  Sc  Sc66  1  0.49775521  0.09737364  0.90197586  1
  Sc  Sc67  1  0.11060686  0.69299523  0.49951942  1
  Sc  Sc68  1  0.50256013  0.50028961  0.10213690  1
  Sc  Sc69  1  0.90003305  0.70714063  0.70218749  1
  Sc  Sc70  1  0.90031260  0.29827882  0.70232783  1
  Sc  Sc71  1  0.69486276  0.09691508  0.90178440  1
  Sc  Sc72  1  0.89291696  0.48506269  0.29276383  1
  Sc  Sc73  1  0.89868746  0.89665307  0.08635028  1
  Sc  Sc74  1  0.29421484  0.50255828  0.09703536  1
  Sc  Sc75  1  0.10316102  0.50383354  0.89776361  1
  Sc  Sc76  1  0.50833159  0.90372293  0.50464158  1
  Sc  Sc77  1  0.69964628  0.09555571  0.09419755  1
  Sc  Sc78  1  0.50180992  0.09276577  0.09281616  1
  Sc  Sc79  1  0.09757290  0.30153471  0.70435166  1
  Sc  Sc80  1  0.30175202  0.49835904  0.30644493  1
  Sc  Sc81  1  0.49539600  0.29957994  0.91037447  1
  Sc  Sc82  1  0.10296690  0.89858849  0.90020025  1
  Sc  Sc83  1  0.10116606  0.09606654  0.29447328  1
  Sc  Sc84  1  0.69252498  0.29531765  0.10608358  1
  Sc  Sc85  1  0.10182482  0.69828041  0.89803101  1
  Sc  Sc86  1  0.49584745  0.90384719  0.10445941  1
  Sc  Sc87  1  0.30902913  0.91136598  0.28763814  1
  Sc  Sc88  1  0.10036957  0.70125118  0.70161957  1
  Sc  Sc89  1  0.30030216  0.69834052  0.69772430  1
  Sc  Sc90  1  0.10982908  0.49144290  0.30149952  1
  Sc  Sc91  1  0.49735626  0.69517110  0.10350468  1
  Sc  Sc92  1  0.69623012  0.10735578  0.30063556  1
  Sc  Sc93  1  0.70088641  0.50974835  0.10399567  1
  Sc  Sc94  1  0.10305075  0.09892068  0.70815856  1
  Sc  Sc95  1  0.89506197  0.49176742  0.50308487  1
  Sc  Sc96  1  0.69362831  0.09804271  0.51073976  1
  Sc  Sc97  1  0.30053360  0.69148583  0.29164235  1
  Sc  Sc98  1  0.29299977  0.70012962  0.09590479  1
  Sc  Sc99  1  0.90151127  0.89452500  0.89866656  1
  Nb  Nb100  1  0.30061462  0.10198290  0.49948335  1
  Nb  Nb101  1  0.50612037  0.70595122  0.29514404  1
  Nb  Nb102  1  0.50775975  0.89525657  0.29772301  1
  Nb  Nb103  1  0.29636112  0.50589330  0.89466616  1
  Nb  Nb104  1  0.69782953  0.51496549  0.29984780  1
  Nb  Nb105  1  0.29971976  0.49901184  0.70406568  1
  Nb  Nb106  1  0.30648569  0.70355594  0.90057585  1
  Nb  Nb107  1  0.30040018  0.89263102  0.89348280  1
  Nb  Nb108  1  0.49583434  0.70139445  0.89715248  1
  Nb  Nb109  1  0.90132943  0.30252423  0.89881644  1
  Nb  Nb110  1  0.30354110  0.90054778  0.70475409  1
  Nb  Nb111  1  0.89611859  0.09807256  0.69489191  1
  Nb  Nb112  1  0.69562381  0.89984342  0.30193643  1
  Nb  Nb113  1  0.49390776  0.89706930  0.70252043  1
  Nb  Nb114  1  0.50042586  0.50181396  0.70288208  1
  Nb  Nb115  1  0.89745053  0.29155547  0.30219895  1
  Nb  Nb116  1  0.70403717  0.70107688  0.49915682  1
  Nb  Nb117  1  0.10480400  0.89580489  0.10098278  1
  Nb  Nb118  1  0.50028548  0.69818425  0.70405684  1
  Nb  Nb119  1  0.70179418  0.89672506  0.49707679  1
  Nb  Nb120  1  0.70245698  0.30370133  0.90154076  1
  Nb  Nb121  1  0.70183682  0.49789928  0.90042650  1
  Nb  Nb122  1  0.09776821  0.30117494  0.50350825  1
  Nb  Nb123  1  0.50657781  0.09285287  0.70278623  1
  Nb  Nb124  1  0.89944648  0.50599214  0.10104144  1
  Nb  Nb125  1  0.80563770  0.21110508  -0.00437004  1
  Nb  Nb126  1  0.20590764  0.39984854  0.60158587  1
  Nb  Nb127  1  0.40074326  0.20028111  0.20080334  1
  Nb  Nb128  1  0.39410389  0.40391775  0.60634919  1
  Nb  Nb129  1  0.21085131  -0.00118559  0.60145566  1
  Nb  Nb130  1  0.79814991  -0.00646780  0.21091370  1
  Nb  Nb131  1  0.00074202  0.59727877  0.59343081  1
  Nb  Nb132  1  -0.00542416  0.59764209  0.39586866  1
  Nb  Nb133  1  0.79379044  -0.00694055  0.39813932  1
  Nb  Nb134  1  0.60279745  0.40327314  0.80529558  1
  Nb  Nb135  1  0.79723815  0.60418574  0.39884245  1
  Nb  Nb136  1  0.60469535  0.60630217  0.39974772  1
  Nb  Nb137  1  0.59165771  0.79678785  0.79833485  1
  Nb  Nb138  1  -0.00409004  0.20449318  0.00030545  1
  Nb  Nb139  1  0.40124252  0.59991976  0.80169682  1
  Nb  Nb140  1  0.80202701  0.00267242  0.78952656  1
  Nb  Nb141  1  0.20875602  0.81037995  0.59565504  1
  Nb  Nb142  1  0.21039390  0.80405998  0.39919631  1
  Nb  Nb143  1  -0.00353692  0.20581817  0.40422094  1
  Nb  Nb144  1  0.59455066  0.79456418  -0.00936081  1
  Nb  Nb145  1  -0.00201763  0.59631554  0.19845411  1
  Nb  Nb146  1  0.40675917  0.80013504  0.39079033  1
  Nb  Nb147  1  0.80185707  0.39914070  0.00066101  1
  Nb  Nb148  1  0.00045193  0.19932443  0.59596052  1
  Nb  Nb149  1  0.79698150  0.39932397  0.81061294  1
  Pd  Pd150  1  0.19321077  0.59347203  0.20037047  1
  Pd  Pd151  1  0.40089360  0.59655877  0.19981273  1
  Pd  Pd152  1  0.80314634  0.81219886  0.19101237  1
  Pd  Pd153  1  0.59192137  0.19171677  0.19910150  1
  Pd  Pd154  1  0.79098378  0.40390961  0.39555866  1
  Pd  Pd155  1  0.79938873  0.80434404  0.60312587  1
  Pd  Pd156  1  0.39817042  0.59445110  0.60887879  1
  Pd  Pd157  1  0.39787381  0.80123152  0.59595082  1
  Pd  Pd158  1  0.60552563  0.40092807  0.00289511  1
  Pd  Pd159  1  -0.00838843  -0.00842401  0.19148349  1
  Pd  Pd160  1  0.39613629  0.79825530  0.19907612  1
  Pd  Pd161  1  0.79713262  0.19505230  0.40759823  1
  Pd  Pd162  1  0.20453675  -0.00824084  0.40161138  1
  Pd  Pd163  1  0.59761132  0.19711492  0.40429997  1
  Pd  Pd164  1  0.59745234  0.60026644  0.59516209  1
  Pd  Pd165  1  0.78855150  0.40045147  0.19584606  1
  Pd  Pd166  1  -0.00392453  0.39975320  0.39136191  1
  Pd  Pd167  1  0.60524232  0.00107521  0.19750270  1
  Pd  Pd168  1  0.60762278  0.40558139  0.20162455  1
  Pd  Pd169  1  0.60236175  -0.00624569  0.80456054  1
  Pd  Pd170  1  0.00104442  0.00071642  0.00327317  1
  Pd  Pd171  1  0.40576982  0.40477449  0.80206289  1
  Pd  Pd172  1  -0.00395808  -0.00258241  0.80180631  1
  Pd  Pd173  1  0.60388697  0.20024779  -0.00135847  1
  Pd  Pd174  1  -0.00470535  0.01201665  0.40443803  1
  Pd  Pd175  1  0.20145438  0.79408164  0.79706860  1
  Pd  Pd176  1  0.59070421  0.39616988  0.60795827  1
  Pd  Pd177  1  0.40394181  0.79911215  0.01048169  1
  Pd  Pd178  1  0.60231411  0.00370538  0.40462601  1
  Pd  Pd179  1  0.59442972  0.20341471  0.81271569  1
  Pd  Pd180  1  0.19743063  0.20244566  0.80412522  1
  Pd  Pd181  1  0.59570191  0.79700965  0.40632831  1
  Pd  Pd182  1  0.39376180  0.59779592  -0.00096942  1
  Pd  Pd183  1  0.20021545  0.39643732  0.79913628  1
  Pd  Pd184  1  0.39656453  0.19488693  0.00849520  1
  Pd  Pd185  1  0.39677722  0.00658643  0.80017449  1
  Pd  Pd186  1  0.58789833  0.19845363  0.59436082  1
  Pd  Pd187  1  -0.00895151  0.39163219  0.01229355  1
  Pd  Pd188  1  0.60601982  0.60832436  -0.00071833  1
  Pd  Pd189  1  0.79962605  0.19788640  0.80342196  1
  Pd  Pd190  1  0.40872803  0.20340719  0.59998694  1
  Pd  Pd191  1  -0.00578576  0.59986556  0.79099973  1
  Pd  Pd192  1  0.59646103  0.79832634  0.60345194  1
  Pd  Pd193  1  -0.00043785  0.20008367  0.79714720  1
  Pd  Pd194  1  0.61022904  0.40513984  0.39723857  1
  Pd  Pd195  1  0.81259991  0.59299232  0.79900836  1
  Pd  Pd196  1  0.01563844  0.01365136  0.59620759  1
  Pd  Pd197  1  0.39011445  0.39823360  0.19508059  1
  Pd  Pd198  1  0.40292842  0.00292784  0.60362908  1
  Pd  Pd199  1  0.39403917  0.40743472  0.00469567  1
  Rh  Rh200  1  0.41010167  -0.00882390  0.39456445  1
  Rh  Rh201  1  0.79366462  0.81006729  0.78917634  1
  Rh  Rh202  1  0.39412137  -0.00320950  -0.00103915  1
  Rh  Rh203  1  0.01047067  0.40039647  0.60919589  1
  Rh  Rh204  1  0.80508276  0.20711213  0.59952897  1
  Rh  Rh205  1  0.41166011  0.60995682  0.38678741  1
  Rh  Rh206  1  0.78957846  0.79045184  -0.00142552  1
  Rh  Rh207  1  0.19831513  -0.00212321  0.20196175  1
  Rh  Rh208  1  0.38912382  0.39330460  0.41237690  1
  Rh  Rh209  1  0.20034386  0.60309509  -0.00637629  1
  Rh  Rh210  1  0.40359731  0.20389863  0.39388057  1
  Rh  Rh211  1  0.20807983  -0.00185370  0.79732491  1
  Rh  Rh212  1  0.19096798  0.19666113  0.60642820  1
  Rh  Rh213  1  0.20954845  0.80691451  0.20514686  1
  Rh  Rh214  1  0.80865966  0.59916914  0.20653466  1
  Rh  Rh215  1  0.19898378  -0.00934409  -0.00473490  1
  Rh  Rh216  1  0.79742668  0.80342141  0.40323308  1
  Rh  Rh217  1  0.20830211  0.19635578  0.20683928  1
  Rh  Rh218  1  0.00973251  0.60599806  0.00634677  1
  Rh  Rh219  1  0.59850953  0.80605220  0.18516061  1
  Rh  Rh220  1  0.81120550  0.60282324  0.59365814  1
  Rh  Rh221  1  0.00264513  0.40673703  0.20167310  1
  Rh  Rh222  1  0.00379587  0.19869603  0.20111285  1
  Rh  Rh223  1  0.20508293  0.39196037  0.40944040  1
  Rh  Rh224  1  0.40621470  0.00908899  0.20078794  1
  Rh  Rh225  1  0.79518275  0.59752229  -0.00235151  1
  Rh  Rh226  1  0.19540303  0.59920652  0.60737281  1
  Rh  Rh227  1  0.59310721  0.00188358  0.59845635  1
  Rh  Rh228  1  0.39963264  0.79286296  0.79341533  1
  Rh  Rh229  1  0.19214729  0.20391964  -0.00445299  1
  Rh  Rh230  1  0.20588777  0.40398918  -0.00770883  1
  Rh  Rh231  1  -0.00690980  0.80029480  0.18340443  1
  Rh  Rh232  1  0.00146451  0.80131308  0.80266051  1
  Rh  Rh233  1  0.79339064  0.39437433  0.61163916  1
  Rh  Rh234  1  0.79349633  0.19239107  0.19190302  1
  Rh  Rh235  1  0.59401357  0.60031578  0.80206807  1
  Rh  Rh236  1  0.18977844  0.60809476  0.38567101  1
  Rh  Rh237  1  0.01310774  0.78840410  0.59567668  1
  Rh  Rh238  1  0.40483923  0.19046357  0.80671282  1
  Rh  Rh239  1  0.59224322  0.59944607  0.20418651  1
  Rh  Rh240  1  0.19108086  0.20321272  0.39277433  1
  Rh  Rh241  1  0.01155701  0.79003488  0.40846593  1
  Rh  Rh242  1  0.20136613  0.80039070  -0.00910538  1
  Rh  Rh243  1  0.59606585  -0.01183565  -0.00423380  1
  Rh  Rh244  1  0.21016708  0.60926699  0.80350995  1
  Rh  Rh245  1  0.00809657  0.80037507  -0.00250512  1
  Rh  Rh246  1  0.20339435  0.40352864  0.19810217  1
  Rh  Rh247  1  0.80106882  0.00923138  -0.00428843  1
  Rh  Rh248  1  0.79480439  -0.00751442  0.59827941  1
  Rh  Rh249  1  -0.00717118  0.40723667  0.79702951  1
