# generated using pymatgen
data_ZrScNbPdRh
_symmetry_space_group_name_H-M   'P 1'
_cell_length_a   16.56035858
_cell_length_b   16.55721383
_cell_length_c   16.55785020
_cell_angle_alpha   90.02686966
_cell_angle_beta   89.93653123
_cell_angle_gamma   89.99207806
_symmetry_Int_Tables_number   1
_chemical_formula_structural   ZrScNbPdRh
_chemical_formula_sum   'Zr50 Sc50 Nb50 Pd50 Rh50'
_cell_volume   4540.04988244
_cell_formula_units_Z   50
loop_
 _symmetry_equiv_pos_site_id
 _symmetry_equiv_pos_as_xyz
  1  'x, y, z'
loop_
 _atom_site_type_symbol
 _atom_site_label
 _atom_site_symmetry_multiplicity
 _atom_site_fract_x
 _atom_site_fract_y
 _atom_site_fract_z
 _atom_site_occupancy
  Zr  Zr0  1  0.49973531  0.69150272  0.30106134  1
  Zr  Zr1  1  0.09860916  0.10613904  0.50035550  1
  Zr  Zr2  1  0.10147532  0.50651906  0.29756866  1
  Zr  Zr3  1  0.09758890  0.70186735  0.90109553  1
  Zr  Zr4  1  0.09416978  0.30283323  0.29848831  1
  Zr  Zr5  1  0.70113842  0.90689564  0.50304398  1
  Zr  Zr6  1  0.09731381  0.70663924  0.29643622  1
  Zr  Zr7  1  0.50104816  0.90116587  0.50525185  1
  Zr  Zr8  1  0.51010649  0.69794479  0.10106936  1
  Zr  Zr9  1  0.09496196  0.30293634  0.90022896  1
  Zr  Zr10  1  0.09442978  0.49721398  0.10588473  1
  Zr  Zr11  1  0.69569321  0.89061726  0.89303593  1
  Zr  Zr12  1  0.30046988  0.09253419  0.89291693  1
  Zr  Zr13  1  0.69312807  0.70709348  0.71142903  1
  Zr  Zr14  1  0.29820893  0.50437802  0.50032165  1
  Zr  Zr15  1  0.50277138  0.09880272  0.89740679  1
  Zr  Zr16  1  0.30385865  0.09143111  0.31161659  1
  Zr  Zr17  1  0.90135430  0.70429554  0.30705154  1
  Zr  Zr18  1  0.69190556  0.30049138  0.89681478  1
  Zr  Zr19  1  0.10231770  0.70278687  0.10824567  1
  Zr  Zr20  1  0.70572983  0.49384399  0.49980463  1
  Zr  Zr21  1  0.29793441  0.30032188  0.10331618  1
  Zr  Zr22  1  0.49202319  0.69626584  0.49473386  1
  Zr  Zr23  1  0.49977597  0.48715593  0.90550871  1
  Zr  Zr24  1  0.30392471  0.90390841  0.70430616  1
  Zr  Zr25  1  0.70946547  0.90179442  0.30340539  1
  Zr  Zr26  1  0.09966149  0.89958372  0.91016020  1
  Zr  Zr27  1  0.89469748  0.09726722  0.90383036  1
  Zr  Zr28  1  0.30290852  0.69474915  0.30291448  1
  Zr  Zr29  1  0.90096771  0.69138608  0.69363041  1
  Zr  Zr30  1  0.48083479  0.10166105  0.69758715  1
  Zr  Zr31  1  0.29893374  0.69984845  0.69379823  1
  Zr  Zr32  1  0.70445462  0.70276056  0.28696529  1
  Zr  Zr33  1  0.89578988  0.89883548  0.49107758  1
  Zr  Zr34  1  0.30452606  0.49726962  0.89927656  1
  Zr  Zr35  1  0.71053483  0.10080342  0.10129470  1
  Zr  Zr36  1  0.90485600  0.10559718  0.28112948  1
  Zr  Zr37  1  0.70482640  0.50452070  0.09751948  1
  Zr  Zr38  1  0.49821748  0.09916744  0.49522857  1
  Zr  Zr39  1  0.09895160  0.09136188  0.89907167  1
  Zr  Zr40  1  0.49618198  0.89894248  0.09098321  1
  Zr  Zr41  1  0.69747218  0.10296333  0.29689025  1
  Zr  Zr42  1  0.10040580  0.49963092  0.89518636  1
  Zr  Zr43  1  0.09748236  0.30482231  0.49967846  1
  Zr  Zr44  1  0.50329971  0.30317310  0.49858411  1
  Zr  Zr45  1  0.49892936  0.69843242  0.69988169  1
  Zr  Zr46  1  0.70151297  0.10710399  0.90005395  1
  Zr  Zr47  1  0.10080644  0.49585470  0.50553457  1
  Zr  Zr48  1  0.71065915  0.10283160  0.49893423  1
  Zr  Zr49  1  0.30315997  0.69431969  0.89302882  1
  Sc  Sc50  1  0.09680693  0.31073361  0.10568733  1
  Sc  Sc51  1  0.89613556  0.30147979  0.30022055  1
  Sc  Sc52  1  0.88358725  0.30116942  0.89669896  1
  Sc  Sc53  1  0.09055851  0.50273208  0.69696975  1
  Sc  Sc54  1  0.50719879  0.49917272  0.70286674  1
  Sc  Sc55  1  0.31406949  0.30008025  0.90363336  1
  Sc  Sc56  1  0.31082027  0.28943599  0.69995248  1
  Sc  Sc57  1  0.10484868  0.69675366  0.49652970  1
  Sc  Sc58  1  0.10457979  0.69423140  0.69817230  1
  Sc  Sc59  1  0.08333130  0.09295214  0.10863508  1
  Sc  Sc60  1  0.09964183  0.89855362  0.70209490  1
  Sc  Sc61  1  0.89570204  0.50615008  0.29512373  1
  Sc  Sc62  1  0.30027079  0.70500484  0.09638203  1
  Sc  Sc63  1  0.11016487  0.89175896  0.49190299  1
  Sc  Sc64  1  0.30679960  0.49067083  0.10454410  1
  Sc  Sc65  1  0.49843976  0.91088514  0.30145259  1
  Sc  Sc66  1  0.51246110  0.90473008  0.70736602  1
  Sc  Sc67  1  0.29392573  0.30707662  0.49782775  1
  Sc  Sc68  1  0.69758836  0.89422527  0.09950317  1
  Sc  Sc69  1  0.89068977  0.30371158  0.69783739  1
  Sc  Sc70  1  0.90263034  0.91386698  0.09919702  1
  Sc  Sc71  1  0.90062888  0.49235820  0.89275868  1
  Sc  Sc72  1  0.30982024  0.09184045  0.09500660  1
  Sc  Sc73  1  0.69695238  0.49955404  0.69194829  1
  Sc  Sc74  1  0.30016314  0.89618267  0.49457037  1
  Sc  Sc75  1  0.89223436  0.29586868  0.50089244  1
  Sc  Sc76  1  0.70246458  0.50126275  0.30481386  1
  Sc  Sc77  1  0.70312531  0.30444631  0.09278648  1
  Sc  Sc78  1  0.30920597  0.09987495  0.50631604  1
  Sc  Sc79  1  0.50926004  0.50587371  0.49426010  1
  Sc  Sc80  1  0.70204260  0.29992947  0.31014017  1
  Sc  Sc81  1  0.29852963  0.89589211  0.31136742  1
  Sc  Sc82  1  0.70512662  0.30384427  0.49963970  1
  Sc  Sc83  1  0.90442162  0.89749398  0.90473746  1
  Sc  Sc84  1  0.89810044  0.70741220  0.90487816  1
  Sc  Sc85  1  0.49698932  0.29977061  0.08959822  1
  Sc  Sc86  1  0.09394255  0.09549049  0.69723522  1
  Sc  Sc87  1  0.90191356  0.90482560  0.69593806  1
  Sc  Sc88  1  0.09719125  0.30156483  0.68889226  1
  Sc  Sc89  1  0.30092661  0.51092942  0.70205007  1
  Sc  Sc90  1  0.90073075  0.89612085  0.29862752  1
  Sc  Sc91  1  0.69849879  0.68866836  0.49555439  1
  Sc  Sc92  1  0.88916082  0.69574618  0.10438707  1
  Sc  Sc93  1  0.70067744  0.10109205  0.69766643  1
  Sc  Sc94  1  0.50910546  0.09491886  0.10289865  1
  Sc  Sc95  1  0.29750674  0.70096092  0.49898817  1
  Sc  Sc96  1  0.30635915  0.90325606  0.91249222  1
  Sc  Sc97  1  0.69888547  0.30234646  0.70001578  1
  Sc  Sc98  1  0.69792730  0.49388892  0.90545926  1
  Sc  Sc99  1  0.50014029  0.70169167  0.90416725  1
  Nb  Nb100  1  0.30108656  0.89720077  0.10611203  1
  Nb  Nb101  1  0.48919637  0.49903300  0.29192026  1
  Nb  Nb102  1  0.70040188  0.89797175  0.70136969  1
  Nb  Nb103  1  0.89585802  0.09833146  0.69392342  1
  Nb  Nb104  1  0.09922932  0.10051271  0.30029879  1
  Nb  Nb105  1  0.89658255  0.50451686  0.68860024  1
  Nb  Nb106  1  0.89913463  0.49349629  0.10221089  1
  Nb  Nb107  1  0.50135324  0.11023256  0.30151890  1
  Nb  Nb108  1  0.49906976  0.30193382  0.70328543  1
  Nb  Nb109  1  0.30456020  0.48886161  0.29980924  1
  Nb  Nb110  1  0.89699097  0.10700606  0.09540127  1
  Nb  Nb111  1  0.89813073  0.70060962  0.50067498  1
  Nb  Nb112  1  0.29948996  0.30664852  0.29853232  1
  Nb  Nb113  1  0.09993879  0.90129120  0.29928196  1
  Nb  Nb114  1  0.50075515  0.30227712  0.88810530  1
  Nb  Nb115  1  0.10830798  0.89415629  0.10803956  1
  Nb  Nb116  1  0.29721953  0.09611436  0.70351691  1
  Nb  Nb117  1  0.50460621  0.49718795  0.10385055  1
  Nb  Nb118  1  0.89748060  0.51012718  0.51289093  1
  Nb  Nb119  1  0.70133235  0.70003479  0.08813811  1
  Nb  Nb120  1  0.49667393  0.30067976  0.30152795  1
  Nb  Nb121  1  0.70634161  0.70317850  0.90802119  1
  Nb  Nb122  1  0.50362880  0.90260202  0.90282641  1
  Nb  Nb123  1  0.89878494  0.09626987  0.50927931  1
  Nb  Nb124  1  0.90183180  0.30265670  0.10194215  1
  Nb  Nb125  1  -0.00435194  0.20143516  0.00001007  1
  Nb  Nb126  1  0.19535478  0.59590872  0.00046586  1
  Nb  Nb127  1  0.00100498  0.59589820  0.00558641  1
  Nb  Nb128  1  0.40556920  0.40125069  0.60118072  1
  Nb  Nb129  1  0.79622849  -0.00283021  0.79731068  1
  Nb  Nb130  1  0.40091511  0.20047287  0.21082413  1
  Nb  Nb131  1  0.20242373  0.80132390  0.80497107  1
  Nb  Nb132  1  0.79693434  0.60300594  0.79930016  1
  Nb  Nb133  1  0.60199068  0.79967750  0.39773938  1
  Nb  Nb134  1  0.00342869  0.00681465  0.39619441  1
  Nb  Nb135  1  0.20190229  0.39448027  0.79944729  1
  Nb  Nb136  1  0.19710060  -0.00348190  0.20436269  1
  Nb  Nb137  1  0.59290284  0.20153790  0.59953394  1
  Nb  Nb138  1  -0.00341708  0.19719500  0.80163281  1
  Nb  Nb139  1  0.20324994  0.00157375  0.60103431  1
  Nb  Nb140  1  0.19854210  0.20073716  0.39234312  1
  Nb  Nb141  1  0.40349898  0.79983894  0.60331924  1
  Nb  Nb142  1  0.79853483  0.79838257  0.59920865  1
  Nb  Nb143  1  -0.00631733  0.79575104  0.59252342  1
  Nb  Nb144  1  -0.00389671  0.40795878  0.40654916  1
  Nb  Nb145  1  0.19603482  0.19992191  0.80319938  1
  Nb  Nb146  1  0.19347841  0.19725512  0.00148306  1
  Nb  Nb147  1  0.20331421  0.19322380  0.20247605  1
  Nb  Nb148  1  0.40126124  0.80159037  0.19953282  1
  Nb  Nb149  1  0.59132622  0.40217952  0.20180237  1
  Pd  Pd150  1  0.60191949  0.60183946  0.59854540  1
  Pd  Pd151  1  0.60557328  0.20221527  0.40614135  1
  Pd  Pd152  1  0.60030044  0.01151141  0.60667042  1
  Pd  Pd153  1  0.79283492  -0.00942606  -0.00588800  1
  Pd  Pd154  1  0.60026501  0.59876263  -0.00732977  1
  Pd  Pd155  1  0.40294051  0.80658591  0.79977739  1
  Pd  Pd156  1  -0.00950176  0.80364014  0.19403179  1
  Pd  Pd157  1  0.60397402  -0.00394987  0.19945961  1
  Pd  Pd158  1  0.00980548  -0.01158334  0.58739973  1
  Pd  Pd159  1  0.19504557  0.00574005  0.01519392  1
  Pd  Pd160  1  0.60015626  -0.00079909  0.39719252  1
  Pd  Pd161  1  0.21264060  0.59460439  0.19304820  1
  Pd  Pd162  1  0.00184352  0.79867492  0.79081810  1
  Pd  Pd163  1  0.79191317  0.39704857  0.20231267  1
  Pd  Pd164  1  0.59819922  0.19542093  0.78822887  1
  Pd  Pd165  1  0.81102943  0.80159575  0.79463469  1
  Pd  Pd166  1  0.39065126  0.20680344  0.40153041  1
  Pd  Pd167  1  0.60146405  0.79369213  0.59208265  1
  Pd  Pd168  1  0.81080077  0.59301964  -0.00944984  1
  Pd  Pd169  1  0.79164523  0.41132839  0.79392277  1
  Pd  Pd170  1  0.20118338  0.59962933  0.39866282  1
  Pd  Pd171  1  0.59783012  0.40580433  0.39063431  1
  Pd  Pd172  1  0.40226747  0.40540433  0.40814310  1
  Pd  Pd173  1  0.81387313  0.01312169  0.38864850  1
  Pd  Pd174  1  -0.01003272  0.39931491  -0.00262063  1
  Pd  Pd175  1  0.41079994  0.59340227  0.79953377  1
  Pd  Pd176  1  0.60846744  -0.00108487  -0.00035229  1
  Pd  Pd177  1  0.59650532  0.21278340  0.19512067  1
  Pd  Pd178  1  0.59311865  0.80891763  0.20648089  1
  Pd  Pd179  1  0.60493818  0.59562181  0.81217386  1
  Pd  Pd180  1  0.79399841  0.21197284  0.19920607  1
  Pd  Pd181  1  0.40066448  0.19430791  0.00146065  1
  Pd  Pd182  1  0.59849914  0.20222271  0.00473294  1
  Pd  Pd183  1  -0.00624636  0.20099591  0.40182179  1
  Pd  Pd184  1  0.80578389  0.80641098  0.19025333  1
  Pd  Pd185  1  0.39316395  0.60444419  0.19057525  1
  Pd  Pd186  1  -0.00697877  0.79548720  0.01431485  1
  Pd  Pd187  1  -0.00233585  0.59661289  0.40512393  1
  Pd  Pd188  1  0.20621130  0.19504771  0.60048653  1
  Pd  Pd189  1  0.20454915  0.39866914  -0.00496872  1
  Pd  Pd190  1  0.39691051  -0.00018644  0.20409161  1
  Pd  Pd191  1  -0.00012191  0.39252919  0.78795917  1
  Pd  Pd192  1  0.80009759  0.60013551  0.39751202  1
  Pd  Pd193  1  0.60750763  0.59158166  0.20309642  1
  Pd  Pd194  1  0.21299363  0.40192670  0.61555823  1
  Pd  Pd195  1  -0.00891410  0.20507324  0.60655899  1
  Pd  Pd196  1  -0.00884175  0.00097881  0.79958975  1
  Pd  Pd197  1  -0.00948501  0.60220706  0.80659215  1
  Pd  Pd198  1  0.20732154  0.79480854  -0.00511240  1
  Pd  Pd199  1  0.39657161  0.59773857  0.00809854  1
  Rh  Rh200  1  0.21097644  0.80647207  0.20872153  1
  Rh  Rh201  1  0.19918491  0.79096811  0.39334080  1
  Rh  Rh202  1  0.79386493  0.20181163  0.60268526  1
  Rh  Rh203  1  0.79870045  0.60058472  0.19780742  1
  Rh  Rh204  1  0.19795902  -0.00383209  0.79151401  1
  Rh  Rh205  1  0.39516673  0.40149298  0.78961497  1
  Rh  Rh206  1  0.60026266  0.79705714  -0.00424119  1
  Rh  Rh207  1  0.81223556  0.40693054  0.40538219  1
  Rh  Rh208  1  0.40938908  0.80350530  0.39938311  1
  Rh  Rh209  1  0.60529954  0.00437507  0.80028510  1
  Rh  Rh210  1  0.39612675  0.19993702  0.80604077  1
  Rh  Rh211  1  0.78866518  0.60660307  0.60619778  1
  Rh  Rh212  1  0.80027546  0.39888929  0.59950140  1
  Rh  Rh213  1  0.00432638  -0.00027979  0.00642213  1
  Rh  Rh214  1  0.00811956  0.60711993  0.59418951  1
  Rh  Rh215  1  0.60314261  0.40196798  0.79805420  1
  Rh  Rh216  1  0.00231126  -0.00850722  0.20444636  1
  Rh  Rh217  1  0.40343108  0.21075622  0.59275849  1
  Rh  Rh218  1  0.79919922  -0.00002130  0.19847963  1
  Rh  Rh219  1  0.80654777  0.19408703  0.39742384  1
  Rh  Rh220  1  -0.00884538  0.40315777  0.21200799  1
  Rh  Rh221  1  0.60199025  0.60035914  0.39070186  1
  Rh  Rh222  1  0.40141208  0.79804960  0.00430536  1
  Rh  Rh223  1  0.19689966  0.59832520  0.80389084  1
  Rh  Rh224  1  0.79803933  -0.00619732  0.60823546  1
  Rh  Rh225  1  0.80065453  0.80508715  0.00540142  1
  Rh  Rh226  1  0.19211940  0.39916114  0.39159906  1
  Rh  Rh227  1  0.19225118  0.00769129  0.40519940  1
  Rh  Rh228  1  0.80525450  0.19085648  0.79258348  1
  Rh  Rh229  1  0.40757804  0.39072044  0.19721101  1
  Rh  Rh230  1  0.40393296  0.59824309  0.59728051  1
  Rh  Rh231  1  0.40646690  -0.00259423  0.40293878  1
  Rh  Rh232  1  0.19653597  0.59675448  0.59905628  1
  Rh  Rh233  1  0.40552625  0.00147438  -0.00232340  1
  Rh  Rh234  1  0.40707383  -0.00471481  0.80694432  1
  Rh  Rh235  1  0.59093916  0.79685882  0.80890823  1
  Rh  Rh236  1  0.00495879  0.80405381  0.40458939  1
  Rh  Rh237  1  0.39522713  0.58955533  0.39981085  1
  Rh  Rh238  1  0.78791697  0.79182415  0.40701519  1
  Rh  Rh239  1  0.19943692  0.40107067  0.20591052  1
  Rh  Rh240  1  0.59440389  0.39277234  0.60295138  1
  Rh  Rh241  1  0.59707041  0.39543284  0.00524910  1
  Rh  Rh242  1  0.80371508  0.21025687  0.00492319  1
  Rh  Rh243  1  0.39243914  -0.01021926  0.59730844  1
  Rh  Rh244  1  0.40448729  0.39777870  0.00310637  1
  Rh  Rh245  1  0.20445456  0.80833444  0.61001342  1
  Rh  Rh246  1  0.00405150  0.20909241  0.18995898  1
  Rh  Rh247  1  0.80192271  0.40079677  -0.00036809  1
  Rh  Rh248  1  -0.01340613  0.39934083  0.59467836  1
  Rh  Rh249  1  -0.00998223  0.60137864  0.19477468  1
