# generated using pymatgen
data_ZrScNbPdRh
_symmetry_space_group_name_H-M   'P 1'
_cell_length_a   16.55645562
_cell_length_b   16.55607140
_cell_length_c   16.55316795
_cell_angle_alpha   89.99196025
_cell_angle_beta   89.98935531
_cell_angle_gamma   90.04230789
_symmetry_Int_Tables_number   1
_chemical_formula_structural   ZrScNbPdRh
_chemical_formula_sum   'Zr50 Sc50 Nb50 Pd50 Rh50'
_cell_volume   4537.38521117
_cell_formula_units_Z   50
loop_
 _symmetry_equiv_pos_site_id
 _symmetry_equiv_pos_as_xyz
  1  'x, y, z'
loop_
 _atom_site_type_symbol
 _atom_site_label
 _atom_site_symmetry_multiplicity
 _atom_site_fract_x
 _atom_site_fract_y
 _atom_site_fract_z
 _atom_site_occupancy
  Zr  Zr0  1  0.89608157  0.50736003  0.28859393  1
  Zr  Zr1  1  0.69512300  0.89633204  0.89878411  1
  Zr  Zr2  1  0.29838247  0.48716244  0.30103827  1
  Zr  Zr3  1  0.09725016  0.09972143  0.09532141  1
  Zr  Zr4  1  0.30389640  0.89935201  0.09387911  1
  Zr  Zr5  1  0.50428701  0.29372008  0.09686043  1
  Zr  Zr6  1  0.09718610  0.09468061  0.29951112  1
  Zr  Zr7  1  0.09879993  0.89859002  0.29889072  1
  Zr  Zr8  1  0.29185521  0.68822443  0.90462482  1
  Zr  Zr9  1  0.30534223  0.69381381  0.29500903  1
  Zr  Zr10  1  0.11239081  0.49512800  0.90267226  1
  Zr  Zr11  1  0.09491199  0.89430752  0.90316578  1
  Zr  Zr12  1  0.10071364  0.89152566  0.69727209  1
  Zr  Zr13  1  0.50612727  0.90509080  0.90183776  1
  Zr  Zr14  1  0.30607652  0.10972810  0.69897860  1
  Zr  Zr15  1  0.69796285  0.29625417  0.29914673  1
  Zr  Zr16  1  0.30013617  0.48679175  0.50309623  1
  Zr  Zr17  1  0.50523793  0.89895736  0.69989425  1
  Zr  Zr18  1  0.50459056  0.10077070  0.29778218  1
  Zr  Zr19  1  0.10004785  0.29409637  0.51095512  1
  Zr  Zr20  1  0.89878983  0.70191999  0.68938502  1
  Zr  Zr21  1  0.90447708  0.10080777  0.90202560  1
  Zr  Zr22  1  0.89745437  0.89301726  0.29436614  1
  Zr  Zr23  1  0.49992993  0.09780044  0.50084735  1
  Zr  Zr24  1  0.50065116  0.68969022  0.10435018  1
  Zr  Zr25  1  0.69440582  0.29953786  0.90650571  1
  Zr  Zr26  1  0.10083675  0.49724527  0.50618930  1
  Zr  Zr27  1  0.50635999  0.90644949  0.30284294  1
  Zr  Zr28  1  0.89064123  0.88028008  0.50328526  1
  Zr  Zr29  1  0.70123851  0.91606172  0.69780392  1
  Zr  Zr30  1  0.30341234  0.90142119  0.90677408  1
  Zr  Zr31  1  0.69747199  0.70167967  0.09008153  1
  Zr  Zr32  1  0.89359496  0.50494197  0.69351128  1
  Zr  Zr33  1  0.10484663  0.70521321  0.69964747  1
  Zr  Zr34  1  0.30542392  0.51007960  0.09855832  1
  Zr  Zr35  1  0.89538723  0.30115554  0.49950770  1
  Zr  Zr36  1  0.89170622  0.70363904  0.90298752  1
  Zr  Zr37  1  0.09827869  0.31015304  0.29347536  1
  Zr  Zr38  1  0.69835843  0.69508312  0.90183769  1
  Zr  Zr39  1  0.50861969  0.69995345  0.49898125  1
  Zr  Zr40  1  0.89033013  0.29645046  0.29752353  1
  Zr  Zr41  1  0.09296435  0.70073856  0.29472242  1
  Zr  Zr42  1  0.10813742  0.70300371  0.09551213  1
  Zr  Zr43  1  0.49962782  0.70071749  0.30323398  1
  Zr  Zr44  1  0.90305733  0.29726573  0.90308826  1
  Zr  Zr45  1  0.69762355  0.50346266  0.50498389  1
  Zr  Zr46  1  0.10480088  0.09759152  0.49628186  1
  Zr  Zr47  1  0.09467204  0.29856885  0.90362396  1
  Zr  Zr48  1  0.50837976  0.89534586  0.50130163  1
  Zr  Zr49  1  0.50522318  0.50103282  0.29799971  1
  Sc  Sc50  1  0.10078978  0.30229415  0.70248711  1
  Sc  Sc51  1  0.09541798  0.29949134  0.09543284  1
  Sc  Sc52  1  0.70027997  0.70303749  0.29846649  1
  Sc  Sc53  1  0.89046559  0.90402068  0.10289354  1
  Sc  Sc54  1  0.90219227  0.11240916  0.49488554  1
  Sc  Sc55  1  0.70179414  0.29965913  0.09845677  1
  Sc  Sc56  1  0.89547589  0.90390463  0.89751757  1
  Sc  Sc57  1  0.31639460  0.70213840  0.50303398  1
  Sc  Sc58  1  0.49662583  0.30028429  0.29753482  1
  Sc  Sc59  1  0.69295045  0.09958541  0.50301586  1
  Sc  Sc60  1  0.69321900  0.50377004  0.69978280  1
  Sc  Sc61  1  0.68267505  0.30656525  0.69637870  1
  Sc  Sc62  1  0.50149415  0.10787011  0.90173038  1
  Sc  Sc63  1  0.31101238  0.29764110  0.10508719  1
  Sc  Sc64  1  0.30557508  0.69979953  0.09732004  1
  Sc  Sc65  1  0.31184139  0.09295110  0.30834340  1
  Sc  Sc66  1  0.89497248  0.90063389  0.70293337  1
  Sc  Sc67  1  0.50595707  0.50274065  0.89297942  1
  Sc  Sc68  1  0.30545500  0.89663067  0.49445993  1
  Sc  Sc69  1  0.50560335  0.49879604  0.69873961  1
  Sc  Sc70  1  0.10573569  0.89060622  0.49808258  1
  Sc  Sc71  1  0.30225362  0.49803345  0.71024122  1
  Sc  Sc72  1  0.69882370  0.10176730  0.10118247  1
  Sc  Sc73  1  0.89813299  0.49651193  0.90320684  1
  Sc  Sc74  1  0.50023375  0.30180706  0.50355626  1
  Sc  Sc75  1  0.49711187  0.29777929  0.70150211  1
  Sc  Sc76  1  0.50224535  0.90116618  0.09812125  1
  Sc  Sc77  1  0.69790463  0.90326476  0.10290838  1
  Sc  Sc78  1  0.30551344  0.29932707  0.90258917  1
  Sc  Sc79  1  0.30318442  0.30029924  0.69212690  1
  Sc  Sc80  1  0.69888926  0.10295353  0.29619870  1
  Sc  Sc81  1  0.30259560  0.10106149  0.49693356  1
  Sc  Sc82  1  0.09527680  0.89744113  0.09979316  1
  Sc  Sc83  1  0.09906568  0.49748342  0.10955750  1
  Sc  Sc84  1  0.89456400  0.29860645  0.09682050  1
  Sc  Sc85  1  0.89501519  0.10051042  0.10164781  1
  Sc  Sc86  1  0.50076233  0.50292893  0.49814080  1
  Sc  Sc87  1  0.69447733  0.09537335  0.90095470  1
  Sc  Sc88  1  0.89463672  0.10305278  0.29379677  1
  Sc  Sc89  1  0.88708779  0.70201034  0.10515706  1
  Sc  Sc90  1  0.70037815  0.69400743  0.70361088  1
  Sc  Sc91  1  0.09570263  0.10928093  0.69212580  1
  Sc  Sc92  1  0.31093050  0.10309869  0.08791445  1
  Sc  Sc93  1  0.50622549  0.29958253  0.89567188  1
  Sc  Sc94  1  0.50804312  0.11040992  0.70220850  1
  Sc  Sc95  1  0.50291261  0.09994818  0.09811432  1
  Sc  Sc96  1  0.89862124  0.09376111  0.70274025  1
  Sc  Sc97  1  0.30824069  0.90048114  0.30323383  1
  Sc  Sc98  1  0.50709160  0.69664777  0.90279513  1
  Sc  Sc99  1  0.49889255  0.69286152  0.69300124  1
  Nb  Nb100  1  0.29783901  0.89496181  0.69982211  1
  Nb  Nb101  1  0.29812369  0.30186234  0.49843478  1
  Nb  Nb102  1  0.10301058  0.09930566  0.90273721  1
  Nb  Nb103  1  0.70086079  0.30122889  0.49979734  1
  Nb  Nb104  1  0.70096288  0.10404709  0.70067930  1
  Nb  Nb105  1  0.70169108  0.49999202  0.09711063  1
  Nb  Nb106  1  0.30223598  0.29882919  0.30189482  1
  Nb  Nb107  1  0.10006813  0.49988107  0.70171139  1
  Nb  Nb108  1  0.89660518  0.69666983  0.49559743  1
  Nb  Nb109  1  0.29900966  0.70806815  0.69910933  1
  Nb  Nb110  1  0.71157450  0.70961559  0.50113976  1
  Nb  Nb111  1  0.09567973  0.50316932  0.30353907  1
  Nb  Nb112  1  0.88857200  0.50550741  0.09873419  1
  Nb  Nb113  1  0.09456730  0.69650870  0.90269585  1
  Nb  Nb114  1  0.69552115  0.49773637  0.90122472  1
  Nb  Nb115  1  0.69847871  0.90263818  0.50043282  1
  Nb  Nb116  1  0.89709254  0.70641263  0.31034265  1
  Nb  Nb117  1  0.30403483  0.49991599  0.90745201  1
  Nb  Nb118  1  0.70142272  0.90721996  0.30033508  1
  Nb  Nb119  1  0.30126261  0.09923446  0.89976634  1
  Nb  Nb120  1  0.09768371  0.70019467  0.50245428  1
  Nb  Nb121  1  0.89842104  0.30113923  0.70201247  1
  Nb  Nb122  1  0.70202222  0.49011937  0.29474854  1
  Nb  Nb123  1  0.50636716  0.50048540  0.09804400  1
  Nb  Nb124  1  0.89608081  0.50446124  0.49983706  1
  Nb  Nb125  1  0.79718320  0.20490379  0.79608910  1
  Nb  Nb126  1  0.19927683  0.19340010  0.80914267  1
  Nb  Nb127  1  -0.00610224  0.40778198  0.40142726  1
  Nb  Nb128  1  0.20297497  0.00461895  0.19726536  1
  Nb  Nb129  1  0.00155853  -0.00427669  0.59195430  1
  Nb  Nb130  1  0.20308784  0.20834232  0.39424264  1
  Nb  Nb131  1  0.79739222  0.39501238  0.79895610  1
  Nb  Nb132  1  0.20151358  0.60350026  0.60137412  1
  Nb  Nb133  1  0.79894948  -0.00608214  0.40269675  1
  Nb  Nb134  1  0.20058723  0.00365480  0.80070348  1
  Nb  Nb135  1  0.79496156  0.20466000  0.60677748  1
  Nb  Nb136  1  0.19450642  0.59944798  0.40348950  1
  Nb  Nb137  1  0.20504952  0.19641056  0.20603379  1
  Nb  Nb138  1  -0.00381654  0.60162553  0.40191340  1
  Nb  Nb139  1  0.00510957  0.60129329  0.80347187  1
  Nb  Nb140  1  -0.00048360  0.60122239  -0.00051874  1
  Nb  Nb141  1  0.79794165  0.40644951  0.39999879  1
  Nb  Nb142  1  0.39510070  -0.00148984  0.79801665  1
  Nb  Nb143  1  -0.00797069  -0.00872729  0.40309207  1
  Nb  Nb144  1  0.39881352  -0.00350140  0.60769281  1
  Nb  Nb145  1  0.20350172  -0.00375670  0.60604819  1
  Nb  Nb146  1  0.19990051  0.78647092  0.39697130  1
  Nb  Nb147  1  0.39528575  0.79942403  0.79832157  1
  Nb  Nb148  1  -0.00665206  0.40357330  0.60080787  1
  Nb  Nb149  1  0.40571280  0.40902208  0.00026919  1
  Pd  Pd150  1  0.61136897  0.60207261  0.39872179  1
  Pd  Pd151  1  0.78974565  0.60755295  0.20129187  1
  Pd  Pd152  1  0.40607834  0.40089105  0.60342349  1
  Pd  Pd153  1  0.80883473  0.01086011  0.58929507  1
  Pd  Pd154  1  0.40737700  0.79035915  -0.00591961  1
  Pd  Pd155  1  0.00430994  0.59945689  0.60115420  1
  Pd  Pd156  1  0.79593800  0.59675182  0.39696430  1
  Pd  Pd157  1  0.60203921  0.39590964  0.19417526  1
  Pd  Pd158  1  -0.00554153  -0.00252074  0.00459591  1
  Pd  Pd159  1  0.60950986  0.79417742  0.60719753  1
  Pd  Pd160  1  0.20106997  0.59626496  0.20234639  1
  Pd  Pd161  1  -0.00434091  0.41046492  0.00894762  1
  Pd  Pd162  1  0.79561373  0.80295841  0.79537807  1
  Pd  Pd163  1  0.00112423  0.19615984  0.79546396  1
  Pd  Pd164  1  0.39498379  0.59187214  0.40155231  1
  Pd  Pd165  1  0.60138990  0.80376734  0.19667872  1
  Pd  Pd166  1  0.60054227  0.39810629  0.40424320  1
  Pd  Pd167  1  0.40478234  0.40227603  0.19539947  1
  Pd  Pd168  1  -0.01041463  0.40035012  0.19658429  1
  Pd  Pd169  1  -0.00773849  0.79604718  0.18930338  1
  Pd  Pd170  1  0.21083082  0.39360838  0.00893980  1
  Pd  Pd171  1  -0.01134628  0.79651435  0.00716071  1
  Pd  Pd172  1  0.60917021  0.59867218  0.20139813  1
  Pd  Pd173  1  -0.00582289  0.40910346  0.79563652  1
  Pd  Pd174  1  0.20522818  0.20613120  0.00325110  1
  Pd  Pd175  1  0.39423527  0.59385507  0.60459062  1
  Pd  Pd176  1  0.19676758  -0.00288807  0.00270626  1
  Pd  Pd177  1  0.59485523  0.79070692  0.79497924  1
  Pd  Pd178  1  0.00656572  0.20349738  0.39300352  1
  Pd  Pd179  1  0.20918126  0.80871577  0.20300565  1
  Pd  Pd180  1  0.40470763  0.80314996  0.20044952  1
  Pd  Pd181  1  0.40218318  0.60555396  0.79946518  1
  Pd  Pd182  1  0.19201623  0.39709477  0.40230969  1
  Pd  Pd183  1  0.39754981  0.00475052  0.19399388  1
  Pd  Pd184  1  0.19817096  0.59859837  0.79507388  1
  Pd  Pd185  1  0.59974949  0.20037470  0.40218539  1
  Pd  Pd186  1  0.40133726  0.39735525  0.80638300  1
  Pd  Pd187  1  0.00036475  0.20114416  0.19540476  1
  Pd  Pd188  1  0.60793205  0.80034476  0.39692247  1
  Pd  Pd189  1  0.20781691  0.38937849  0.79851942  1
  Pd  Pd190  1  0.80242646  0.59157367  0.80532249  1
  Pd  Pd191  1  0.79601997  0.39690046  0.60320281  1
  Pd  Pd192  1  -0.00514117  0.60746149  0.19377037  1
  Pd  Pd193  1  0.39912355  0.20613062  0.40349235  1
  Pd  Pd194  1  0.00817045  0.00148056  0.79193942  1
  Pd  Pd195  1  0.79516940  0.00073607  -0.00248165  1
  Pd  Pd196  1  0.79733746  0.40182627  -0.00320338  1
  Pd  Pd197  1  -0.00782775  0.79480982  0.79917214  1
  Pd  Pd198  1  0.20437159  0.80225751  0.81276985  1
  Pd  Pd199  1  0.20471620  0.39394024  0.18921196  1
  Rh  Rh200  1  0.40352916  0.59329868  0.20471970  1
  Rh  Rh201  1  0.59724656  0.80113012  0.00440621  1
  Rh  Rh202  1  0.79007590  0.79918075  0.61031426  1
  Rh  Rh203  1  0.60097510  0.59283703  -0.00042770  1
  Rh  Rh204  1  0.59348726  0.40180013  0.59581767  1
  Rh  Rh205  1  0.79642853  0.80836692  0.00016776  1
  Rh  Rh206  1  0.19274633  0.59584994  0.00624775  1
  Rh  Rh207  1  -0.01174924  0.20058190  0.60769052  1
  Rh  Rh208  1  -0.00317437  0.80199100  0.59914279  1
  Rh  Rh209  1  0.79578749  0.00652165  0.80607828  1
  Rh  Rh210  1  0.59909834  0.20043912  0.19797271  1
  Rh  Rh211  1  0.60721663  0.20074114  0.80056904  1
  Rh  Rh212  1  0.20052423  0.79967347  -0.00218060  1
  Rh  Rh213  1  0.60410571  0.60564039  0.59520519  1
  Rh  Rh214  1  -0.00293691  0.19673538  0.00420546  1
  Rh  Rh215  1  0.20813117  0.19751548  0.59624168  1
  Rh  Rh216  1  0.40540837  0.20762055  -0.00556825  1
  Rh  Rh217  1  0.40999986  -0.00621070  0.41010315  1
  Rh  Rh218  1  0.40298610  0.19907265  0.59275380  1
  Rh  Rh219  1  0.40994086  0.00487235  -0.00583148  1
  Rh  Rh220  1  0.39839799  0.19346781  0.20326146  1
  Rh  Rh221  1  0.79177495  0.60636096  0.59636151  1
  Rh  Rh222  1  0.40949532  0.59601896  -0.00515274  1
  Rh  Rh223  1  0.60429166  0.40290172  0.80029608  1
  Rh  Rh224  1  0.79979410  0.19444147  -0.00627131  1
  Rh  Rh225  1  0.60210833  0.19720715  0.00175609  1
  Rh  Rh226  1  0.40388788  0.80403031  0.60412090  1
  Rh  Rh227  1  0.00083267  -0.00137291  0.20121661  1
  Rh  Rh228  1  0.79512533  0.20069286  0.19464969  1
  Rh  Rh229  1  0.79067032  0.80371606  0.39361620  1
  Rh  Rh230  1  0.60047976  0.00247903  0.19875020  1
  Rh  Rh231  1  0.79330232  0.79889856  0.20201634  1
  Rh  Rh232  1  0.59567828  0.00846743  0.79920441  1
  Rh  Rh233  1  0.40086417  0.80011524  0.39693475  1
  Rh  Rh234  1  0.60721548  0.00224703  0.39859166  1
  Rh  Rh235  1  0.39607795  0.20014644  0.80439088  1
  Rh  Rh236  1  0.79897159  0.39859716  0.19866131  1
  Rh  Rh237  1  0.40722708  0.39784116  0.39877201  1
  Rh  Rh238  1  0.79686864  0.00273481  0.20686290  1
  Rh  Rh239  1  0.60286356  0.20289982  0.59731759  1
  Rh  Rh240  1  0.78819135  0.19687303  0.40768488  1
  Rh  Rh241  1  0.80029255  0.59557020  -0.00252711  1
  Rh  Rh242  1  0.19497357  -0.00551959  0.39769385  1
  Rh  Rh243  1  0.59480447  0.00552706  0.60376182  1
  Rh  Rh244  1  0.59895136  0.60043849  0.79965265  1
  Rh  Rh245  1  0.00464834  0.79650176  0.40428753  1
  Rh  Rh246  1  0.19735180  0.40229228  0.61079467  1
  Rh  Rh247  1  0.59486757  0.40488644  0.00188444  1
  Rh  Rh248  1  0.60049038  0.00115448  0.00267214  1
  Rh  Rh249  1  0.21073069  0.79578429  0.58588527  1
