# generated using pymatgen
data_ZrScNbPdRh
_symmetry_space_group_name_H-M   'P 1'
_cell_length_a   16.55652111
_cell_length_b   16.56201010
_cell_length_c   16.55772923
_cell_angle_alpha   90.01801735
_cell_angle_beta   90.02126841
_cell_angle_gamma   90.02260573
_symmetry_Int_Tables_number   1
_chemical_formula_structural   ZrScNbPdRh
_chemical_formula_sum   'Zr50 Sc50 Nb50 Pd50 Rh50'
_cell_volume   4540.28195457
_cell_formula_units_Z   50
loop_
 _symmetry_equiv_pos_site_id
 _symmetry_equiv_pos_as_xyz
  1  'x, y, z'
loop_
 _atom_site_type_symbol
 _atom_site_label
 _atom_site_symmetry_multiplicity
 _atom_site_fract_x
 _atom_site_fract_y
 _atom_site_fract_z
 _atom_site_occupancy
  Zr  Zr0  1  0.49081990  0.90128633  0.90067750  1
  Zr  Zr1  1  0.31015020  0.50273522  0.09428474  1
  Zr  Zr2  1  0.29787716  0.09833469  0.69971640  1
  Zr  Zr3  1  0.29918907  0.50466705  0.69668393  1
  Zr  Zr4  1  0.09584621  0.09952202  0.50089726  1
  Zr  Zr5  1  0.89694223  0.09954751  0.89442218  1
  Zr  Zr6  1  0.30042453  0.89306980  0.49856315  1
  Zr  Zr7  1  0.51499329  0.09941367  0.30433604  1
  Zr  Zr8  1  0.30341071  0.69378871  0.50129246  1
  Zr  Zr9  1  0.09649010  0.51118281  0.29954550  1
  Zr  Zr10  1  0.29643445  0.30073338  0.49279151  1
  Zr  Zr11  1  0.49787603  0.70172060  0.09780925  1
  Zr  Zr12  1  0.70874095  0.09958476  0.30731939  1
  Zr  Zr13  1  0.90018967  0.50273968  0.70025289  1
  Zr  Zr14  1  0.10623986  0.10080297  0.69495105  1
  Zr  Zr15  1  0.30313342  0.50235496  0.29968216  1
  Zr  Zr16  1  0.50146160  0.09085069  0.69368654  1
  Zr  Zr17  1  0.50062248  0.90231237  0.29438530  1
  Zr  Zr18  1  0.08374820  0.30505622  0.09941560  1
  Zr  Zr19  1  0.90063804  0.89990859  0.70094916  1
  Zr  Zr20  1  0.70224971  0.11456939  0.09957174  1
  Zr  Zr21  1  0.10128817  0.09781865  0.10430244  1
  Zr  Zr22  1  0.29538859  0.09549764  0.50525623  1
  Zr  Zr23  1  0.90250212  0.09797118  0.69062891  1
  Zr  Zr24  1  0.89691117  0.70053803  0.49318282  1
  Zr  Zr25  1  0.28667269  0.70147592  0.30964031  1
  Zr  Zr26  1  0.69825348  0.69628737  0.89550262  1
  Zr  Zr27  1  0.70043551  0.69956151  0.31350429  1
  Zr  Zr28  1  0.10384294  0.90695113  0.10827121  1
  Zr  Zr29  1  0.10403781  0.70449074  0.89104584  1
  Zr  Zr30  1  0.49551453  0.50125562  0.10443792  1
  Zr  Zr31  1  0.29627477  0.89807233  0.29956270  1
  Zr  Zr32  1  0.09894400  0.89267836  0.70406051  1
  Zr  Zr33  1  0.50075725  0.29451350  0.09767241  1
  Zr  Zr34  1  0.29765299  0.90020121  0.90112524  1
  Zr  Zr35  1  0.69986937  0.49715175  0.88296842  1
  Zr  Zr36  1  0.69678195  0.11237019  0.90096766  1
  Zr  Zr37  1  0.30496222  0.90858193  0.69601013  1
  Zr  Zr38  1  0.09290814  0.69941977  0.49434284  1
  Zr  Zr39  1  0.69200617  0.68267647  0.69672599  1
  Zr  Zr40  1  0.49614234  0.89768408  0.10177385  1
  Zr  Zr41  1  0.50253288  0.10169226  0.10296232  1
  Zr  Zr42  1  0.10011315  0.50624900  0.09961366  1
  Zr  Zr43  1  0.90201371  0.10490331  0.49175669  1
  Zr  Zr44  1  0.10610582  0.90036911  0.90095646  1
  Zr  Zr45  1  0.89084968  0.30406328  0.10664042  1
  Zr  Zr46  1  0.10365505  0.69372282  0.69837676  1
  Zr  Zr47  1  0.90085196  0.89683527  0.89366723  1
  Zr  Zr48  1  0.31267316  0.30227134  0.10675940  1
  Zr  Zr49  1  0.30015315  0.69441399  0.69950411  1
  Sc  Sc50  1  0.68727154  0.70332262  0.10774014  1
  Sc  Sc51  1  0.89666961  0.70161276  0.89223339  1
  Sc  Sc52  1  0.90181578  0.50607547  0.89530840  1
  Sc  Sc53  1  0.90901962  0.30075585  0.49219238  1
  Sc  Sc54  1  0.10814902  0.10071998  0.89745134  1
  Sc  Sc55  1  0.50369767  0.50277950  0.29964527  1
  Sc  Sc56  1  0.90897474  0.69904324  0.10521280  1
  Sc  Sc57  1  0.50400696  0.70095889  0.29486704  1
  Sc  Sc58  1  0.09666611  0.90033763  0.49316481  1
  Sc  Sc59  1  0.29960862  0.90382861  0.09922132  1
  Sc  Sc60  1  0.69764330  0.49888033  0.30625863  1
  Sc  Sc61  1  0.90357471  0.69891459  0.69179834  1
  Sc  Sc62  1  0.49457947  0.10633562  0.90555253  1
  Sc  Sc63  1  0.09826212  0.30363773  0.49989689  1
  Sc  Sc64  1  0.49696597  0.89625269  0.69646670  1
  Sc  Sc65  1  0.70725479  0.88848343  0.89682997  1
  Sc  Sc66  1  0.69124750  0.50190590  0.49755007  1
  Sc  Sc67  1  0.69834784  0.89273665  0.50011662  1
  Sc  Sc68  1  0.50299402  0.89596366  0.51026635  1
  Sc  Sc69  1  0.50455992  0.69889411  0.50509818  1
  Sc  Sc70  1  0.69857108  0.90438481  0.30817838  1
  Sc  Sc71  1  0.50347336  0.49546888  0.69957156  1
  Sc  Sc72  1  0.69873112  0.89113259  0.10252096  1
  Sc  Sc73  1  0.89901349  0.10977008  0.11216309  1
  Sc  Sc74  1  0.69937501  0.89956448  0.69259690  1
  Sc  Sc75  1  0.09190050  0.08719386  0.30009098  1
  Sc  Sc76  1  0.29941572  0.69697817  0.89750827  1
  Sc  Sc77  1  0.09477588  0.50960246  0.89784905  1
  Sc  Sc78  1  0.29318642  0.30209563  0.69224032  1
  Sc  Sc79  1  0.90106664  0.89303196  0.50362099  1
  Sc  Sc80  1  0.31281760  0.29893288  0.89849917  1
  Sc  Sc81  1  0.30533539  0.09646501  0.09792632  1
  Sc  Sc82  1  0.69292054  0.09888883  0.49394718  1
  Sc  Sc83  1  0.90138653  0.89918967  0.10954635  1
  Sc  Sc84  1  0.09656334  0.49862005  0.50108919  1
  Sc  Sc85  1  0.09472175  0.50306979  0.69657000  1
  Sc  Sc86  1  0.29973631  0.69648067  0.09789793  1
  Sc  Sc87  1  0.09372806  0.30169605  0.90114298  1
  Sc  Sc88  1  0.49810317  0.29590903  0.30025300  1
  Sc  Sc89  1  0.30197492  0.09487467  0.89998139  1
  Sc  Sc90  1  0.89900679  0.30773817  0.91117133  1
  Sc  Sc91  1  0.09646311  0.89604125  0.29758235  1
  Sc  Sc92  1  0.50751653  0.29887763  0.89100862  1
  Sc  Sc93  1  0.69574755  0.09930046  0.69393832  1
  Sc  Sc94  1  0.90325475  0.49340969  0.09923135  1
  Sc  Sc95  1  0.09991269  0.69403208  0.11115888  1
  Sc  Sc96  1  0.29665532  0.10534918  0.30637050  1
  Sc  Sc97  1  0.70740564  0.30588461  0.31164760  1
  Sc  Sc98  1  0.89661035  0.49165598  0.30654573  1
  Sc  Sc99  1  0.49592450  0.70546756  0.89474096  1
  Nb  Nb100  1  0.90314473  0.30194690  0.69348314  1
  Nb  Nb101  1  0.50419480  0.10322273  0.49695774  1
  Nb  Nb102  1  0.69907850  0.70065286  0.50167512  1
  Nb  Nb103  1  0.48943676  0.49364243  0.90754445  1
  Nb  Nb104  1  0.89372137  0.09848425  0.30577312  1
  Nb  Nb105  1  0.50232840  0.70215451  0.69493017  1
  Nb  Nb106  1  0.90711634  0.70058275  0.30138427  1
  Nb  Nb107  1  0.10167322  0.31071950  0.30098730  1
  Nb  Nb108  1  0.09428224  0.30058166  0.70062799  1
  Nb  Nb109  1  0.30849157  0.49495575  0.89838276  1
  Nb  Nb110  1  0.29551398  0.30509994  0.30152316  1
  Nb  Nb111  1  0.49829700  0.48768031  0.50066380  1
  Nb  Nb112  1  0.30722463  0.49913661  0.50443583  1
  Nb  Nb113  1  0.70132153  0.49575506  0.69867114  1
  Nb  Nb114  1  0.69856767  0.29884355  0.89784868  1
  Nb  Nb115  1  0.70504742  0.30536408  0.08859303  1
  Nb  Nb116  1  0.90319273  0.29625408  0.30250456  1
  Nb  Nb117  1  0.90076452  0.90195518  0.30216581  1
  Nb  Nb118  1  0.51388005  0.29390639  0.69178816  1
  Nb  Nb119  1  0.51090504  0.30053505  0.50115737  1
  Nb  Nb120  1  0.08763167  0.69735570  0.30082617  1
  Nb  Nb121  1  0.69030180  0.30249692  0.50681407  1
  Nb  Nb122  1  0.70277029  0.49947852  0.10356124  1
  Nb  Nb123  1  0.90545145  0.49749631  0.50598064  1
  Nb  Nb124  1  0.69244070  0.30557409  0.70478687  1
  Nb  Nb125  1  0.59805521  -0.00048670  0.80717507  1
  Nb  Nb126  1  0.20095997  0.39939569  0.19818109  1
  Nb  Nb127  1  0.19587445  0.21080582  0.20229053  1
  Nb  Nb128  1  0.39919138  0.39882176  0.40707706  1
  Nb  Nb129  1  0.20191281  0.40322905  0.80421559  1
  Nb  Nb130  1  0.80029939  0.00180205  0.00035072  1
  Nb  Nb131  1  0.60529205  -0.00029640  -0.00182389  1
  Nb  Nb132  1  0.79072671  0.60068803  0.00520872  1
  Nb  Nb133  1  -0.00437434  -0.00167064  0.00011939  1
  Nb  Nb134  1  0.60700969  0.39810171  0.19149429  1
  Nb  Nb135  1  0.79596197  0.39737858  0.60378307  1
  Nb  Nb136  1  0.59918288  0.59089898  -0.00188221  1
  Nb  Nb137  1  0.20497524  0.40083152  -0.00036013  1
  Nb  Nb138  1  0.20114503  0.21024073  0.00901112  1
  Nb  Nb139  1  0.79593793  0.21116717  0.59924336  1
  Nb  Nb140  1  0.20167004  0.79578049  0.59776393  1
  Nb  Nb141  1  0.79867464  0.60118950  0.20150803  1
  Nb  Nb142  1  -0.00457873  0.20374085  0.79146292  1
  Nb  Nb143  1  0.80395518  0.79303452  0.21304369  1
  Nb  Nb144  1  0.80016225  0.21089136  0.79195414  1
  Nb  Nb145  1  0.60562902  0.40166669  -0.00101735  1
  Nb  Nb146  1  0.40499333  0.19988031  0.78373048  1
  Nb  Nb147  1  0.40441070  0.00156097  0.40323939  1
  Nb  Nb148  1  0.40845180  0.20290829  0.59449136  1
  Nb  Nb149  1  0.00485025  0.80566656  -0.00061007  1
  Pd  Pd150  1  -0.00208940  0.40715310  0.20654383  1
  Pd  Pd151  1  0.79825073  0.41166253  -0.00745199  1
  Pd  Pd152  1  0.19636279  0.79422698  0.00941560  1
  Pd  Pd153  1  0.79667390  0.78985726  0.78393499  1
  Pd  Pd154  1  0.39642462  0.79799298  0.79412330  1
  Pd  Pd155  1  0.40989761  0.59729283  0.40122731  1
  Pd  Pd156  1  0.79570288  0.00699381  0.58980281  1
  Pd  Pd157  1  0.41250966  0.59895884  0.60089816  1
  Pd  Pd158  1  0.59185362  0.59938768  0.40585230  1
  Pd  Pd159  1  0.80697508  0.39456271  0.79694676  1
  Pd  Pd160  1  0.40639191  0.59912638  0.80148567  1
  Pd  Pd161  1  0.61344447  0.21281464  0.20821294  1
  Pd  Pd162  1  0.40110805  0.39024515  0.78783182  1
  Pd  Pd163  1  0.61269577  -0.00134116  0.19203158  1
  Pd  Pd164  1  0.19247927  0.40547258  0.60482108  1
  Pd  Pd165  1  0.80262773  0.39910463  0.41251487  1
  Pd  Pd166  1  0.20129142  0.41070217  0.39856738  1
  Pd  Pd167  1  0.00842652  0.20132559  0.39034155  1
  Pd  Pd168  1  0.39546239  0.19210471  0.20947854  1
  Pd  Pd169  1  0.18741148  0.19710340  0.39375779  1
  Pd  Pd170  1  0.39106656  0.79315842  0.20109522  1
  Pd  Pd171  1  0.00368838  0.39910238  0.80290416  1
  Pd  Pd172  1  0.00230004  -0.00723815  0.59529538  1
  Pd  Pd173  1  -0.00819171  0.60943218  -0.00312607  1
  Pd  Pd174  1  0.39603140  0.61032322  0.20742965  1
  Pd  Pd175  1  0.19830411  0.20612463  0.59517711  1
  Pd  Pd176  1  0.41015398  0.80323621  0.40029620  1
  Pd  Pd177  1  0.40396331  0.20074719  0.40348902  1
  Pd  Pd178  1  0.78663005  0.00578616  0.80109440  1
  Pd  Pd179  1  0.40304380  0.39127705  0.60109163  1
  Pd  Pd180  1  0.00843805  0.00728154  0.80185209  1
  Pd  Pd181  1  0.80268726  -0.00905584  0.41100087  1
  Pd  Pd182  1  0.59696137  0.80065574  -0.00544051  1
  Pd  Pd183  1  0.80349912  0.59399822  0.40032047  1
  Pd  Pd184  1  0.79502186  0.79382950  0.60377619  1
  Pd  Pd185  1  0.20151216  0.21136854  0.80943840  1
  Pd  Pd186  1  0.20158248  -0.00086067  0.39655333  1
  Pd  Pd187  1  0.19701003  0.59376058  0.40808336  1
  Pd  Pd188  1  0.39464833  0.00872609  0.20929848  1
  Pd  Pd189  1  0.00275640  0.19748883  0.21264894  1
  Pd  Pd190  1  0.58472674  0.59366148  0.80379510  1
  Pd  Pd191  1  0.80884712  0.79569956  0.01293779  1
  Pd  Pd192  1  0.19786901  0.79375193  0.19872246  1
  Pd  Pd193  1  0.79666842  -0.00569165  0.19483315  1
  Pd  Pd194  1  0.59322556  0.80284363  0.40181202  1
  Pd  Pd195  1  0.79435875  0.21019734  0.21017416  1
  Pd  Pd196  1  0.60062198  0.80694498  0.79350579  1
  Pd  Pd197  1  0.20299096  0.59657693  -0.00752426  1
  Pd  Pd198  1  0.79835180  0.59310985  0.59166626  1
  Pd  Pd199  1  -0.00005755  0.19184016  -0.00748786  1
  Rh  Rh200  1  0.59211987  -0.00747188  0.40694428  1
  Rh  Rh201  1  0.00626675  0.79861965  0.60049118  1
  Rh  Rh202  1  0.40619350  0.40087619  0.21457050  1
  Rh  Rh203  1  0.19741725  0.00979485  0.00231280  1
  Rh  Rh204  1  0.80351177  0.60280050  0.79847284  1
  Rh  Rh205  1  -0.00000970  0.20377308  0.60089782  1
  Rh  Rh206  1  0.59251774  0.40293113  0.80241961  1
  Rh  Rh207  1  0.40549480  0.00684443  0.80421505  1
  Rh  Rh208  1  0.20456535  0.59935922  0.20280242  1
  Rh  Rh209  1  -0.00357681  0.79373710  0.80050833  1
  Rh  Rh210  1  0.40529880  0.38883648  -0.00256985  1
  Rh  Rh211  1  0.00405114  0.40987314  -0.00456018  1
  Rh  Rh212  1  0.40591015  0.60914813  -0.00877560  1
  Rh  Rh213  1  0.40633989  0.00573277  0.58669806  1
  Rh  Rh214  1  0.19643903  0.60038632  0.59154253  1
  Rh  Rh215  1  0.21222113  0.80406931  0.78939568  1
  Rh  Rh216  1  0.60178193  -0.00349441  0.59974742  1
  Rh  Rh217  1  0.59875570  0.19336152  0.79461094  1
  Rh  Rh218  1  0.79717279  0.40022589  0.20610508  1
  Rh  Rh219  1  0.00023763  0.40243126  0.39910701  1
  Rh  Rh220  1  0.60831737  0.80273321  0.21196206  1
  Rh  Rh221  1  -0.00205662  0.80242030  0.20001540  1
  Rh  Rh222  1  -0.00190834  0.40014139  0.59729003  1
  Rh  Rh223  1  0.60403981  0.19428768  0.59688330  1
  Rh  Rh224  1  0.60678553  0.20608918  0.39789796  1
  Rh  Rh225  1  -0.00793851  -0.00362022  0.39915798  1
  Rh  Rh226  1  0.40625233  -0.00003628  0.00346119  1
  Rh  Rh227  1  -0.01114815  0.00248410  0.20085430  1
  Rh  Rh228  1  0.19006151  -0.01314199  0.59943900  1
  Rh  Rh229  1  -0.00194389  0.60619665  0.79520216  1
  Rh  Rh230  1  0.59078942  0.39617174  0.39156748  1
  Rh  Rh231  1  0.60503348  0.40850772  0.60179794  1
  Rh  Rh232  1  0.59635333  0.59362105  0.59561330  1
  Rh  Rh233  1  0.80863678  0.19902287  -0.00620286  1
  Rh  Rh234  1  0.39592664  0.79203330  0.60363801  1
  Rh  Rh235  1  0.80344643  0.80235172  0.39833864  1
  Rh  Rh236  1  -0.00797583  0.59320047  0.40346151  1
  Rh  Rh237  1  0.79942679  0.20698748  0.40702694  1
  Rh  Rh238  1  0.60618720  0.59334453  0.19825243  1
  Rh  Rh239  1  0.60546199  0.79314601  0.60458236  1
  Rh  Rh240  1  0.59552553  0.20404552  -0.00029333  1
  Rh  Rh241  1  -0.00150107  0.60039144  0.59605140  1
  Rh  Rh242  1  0.20336090  0.58751196  0.80499083  1
  Rh  Rh243  1  0.39306463  0.79908983  0.00233354  1
  Rh  Rh244  1  0.39800652  0.20099290  -0.00696651  1
  Rh  Rh245  1  0.20706036  0.00750935  0.20543289  1
  Rh  Rh246  1  -0.00244030  0.80471690  0.39482419  1
  Rh  Rh247  1  -0.01283546  0.59324528  0.20343128  1
  Rh  Rh248  1  0.18944644  0.79736784  0.40287151  1
  Rh  Rh249  1  0.19992308  -0.00301608  0.79846902  1
