# generated using pymatgen
data_ZrScNbPdRh
_symmetry_space_group_name_H-M   'P 1'
_cell_length_a   16.55705365
_cell_length_b   16.55489839
_cell_length_c   16.55561206
_cell_angle_alpha   90.00965255
_cell_angle_beta   90.00777458
_cell_angle_gamma   89.97550462
_symmetry_Int_Tables_number   1
_chemical_formula_structural   ZrScNbPdRh
_chemical_formula_sum   'Zr50 Sc50 Nb50 Pd50 Rh50'
_cell_volume   4537.89838764
_cell_formula_units_Z   50
loop_
 _symmetry_equiv_pos_site_id
 _symmetry_equiv_pos_as_xyz
  1  'x, y, z'
loop_
 _atom_site_type_symbol
 _atom_site_label
 _atom_site_symmetry_multiplicity
 _atom_site_fract_x
 _atom_site_fract_y
 _atom_site_fract_z
 _atom_site_occupancy
  Zr  Zr0  1  0.49842918  0.50129552  0.89840327  1
  Zr  Zr1  1  0.90066637  0.49144782  0.90353726  1
  Zr  Zr2  1  0.48976920  0.50400222  0.10757913  1
  Zr  Zr3  1  0.10318873  0.10052701  0.30295918  1
  Zr  Zr4  1  0.50728996  0.29072750  0.89972732  1
  Zr  Zr5  1  0.29695347  0.49705555  0.28905636  1
  Zr  Zr6  1  0.90085850  0.69596978  0.90106581  1
  Zr  Zr7  1  0.89579734  0.69768832  0.69810793  1
  Zr  Zr8  1  0.71055458  0.50125240  0.49782783  1
  Zr  Zr9  1  0.89714780  0.69606925  0.10034705  1
  Zr  Zr10  1  0.30267324  0.89552537  0.70533528  1
  Zr  Zr11  1  0.90196581  0.49678574  0.30669478  1
  Zr  Zr12  1  0.50095754  0.89550360  0.70079375  1
  Zr  Zr13  1  0.69824910  0.09888093  0.50862468  1
  Zr  Zr14  1  0.29613773  0.70156954  0.30044681  1
  Zr  Zr15  1  0.48990080  0.29917939  0.29271951  1
  Zr  Zr16  1  0.70380092  0.90168160  0.89425906  1
  Zr  Zr17  1  0.29719481  0.70035815  0.50136370  1
  Zr  Zr18  1  0.09387762  0.50132143  0.50282978  1
  Zr  Zr19  1  0.10694578  0.90582058  0.10182197  1
  Zr  Zr20  1  0.50704541  0.71037137  0.49267026  1
  Zr  Zr21  1  0.90175091  0.69677521  0.49359718  1
  Zr  Zr22  1  0.10291155  0.09881905  0.09687625  1
  Zr  Zr23  1  0.69405275  0.10594031  0.89948219  1
  Zr  Zr24  1  0.09969116  0.89472342  0.89358196  1
  Zr  Zr25  1  0.49987180  0.50079196  0.29904875  1
  Zr  Zr26  1  0.29186289  0.90202420  0.29777266  1
  Zr  Zr27  1  0.09731037  0.69654933  0.70428550  1
  Zr  Zr28  1  0.69368812  0.28788547  0.70736885  1
  Zr  Zr29  1  0.70058536  0.69643939  0.49643020  1
  Zr  Zr30  1  0.69673088  0.69910160  0.10255335  1
  Zr  Zr31  1  0.89715747  0.10796005  0.50579489  1
  Zr  Zr32  1  0.70243849  0.29993883  0.29867170  1
  Zr  Zr33  1  0.89518174  0.29924699  0.30077508  1
  Zr  Zr34  1  0.30239927  0.50424510  0.70117898  1
  Zr  Zr35  1  0.29460291  0.10192484  0.49830456  1
  Zr  Zr36  1  0.29634256  0.69621019  0.71385387  1
  Zr  Zr37  1  0.09614662  0.69661259  0.30667340  1
  Zr  Zr38  1  0.30288021  0.89825353  0.49699815  1
  Zr  Zr39  1  0.69142441  0.69217422  0.30212798  1
  Zr  Zr40  1  0.29204260  0.29353587  0.90489302  1
  Zr  Zr41  1  0.89695162  0.91063450  0.70180169  1
  Zr  Zr42  1  0.50148677  0.89750661  0.09506927  1
  Zr  Zr43  1  0.89795714  0.89792940  0.30291895  1
  Zr  Zr44  1  0.30776132  0.10485442  0.70153939  1
  Zr  Zr45  1  0.10479718  0.49957785  0.30240514  1
  Zr  Zr46  1  0.10092448  0.10634665  0.49987620  1
  Zr  Zr47  1  0.50194771  0.09868679  0.29925382  1
  Zr  Zr48  1  0.29620586  0.49254484  0.50713997  1
  Zr  Zr49  1  0.09372207  0.70208022  0.10392287  1
  Sc  Sc50  1  0.10491575  0.30660515  0.30170930  1
  Sc  Sc51  1  0.09693932  0.10524573  0.69237796  1
  Sc  Sc52  1  0.70302277  0.50512671  0.30155979  1
  Sc  Sc53  1  0.69773503  0.91264255  0.30216724  1
  Sc  Sc54  1  0.09646004  0.69699850  0.89423264  1
  Sc  Sc55  1  0.10847465  0.49481015  0.11054535  1
  Sc  Sc56  1  0.69803194  0.50298982  0.70101616  1
  Sc  Sc57  1  0.70401692  0.69894590  0.89148335  1
  Sc  Sc58  1  0.09611401  0.89458390  0.29540759  1
  Sc  Sc59  1  0.70055509  0.29637430  0.10758212  1
  Sc  Sc60  1  0.50026333  0.70411004  0.10826447  1
  Sc  Sc61  1  0.31267968  0.89965081  0.90111870  1
  Sc  Sc62  1  0.31269746  0.70175772  0.10490071  1
  Sc  Sc63  1  0.30444059  0.09773732  0.90169163  1
  Sc  Sc64  1  0.50078005  0.49877497  0.70230837  1
  Sc  Sc65  1  0.90555883  0.70223491  0.30214215  1
  Sc  Sc66  1  0.09741196  0.30252355  0.69993523  1
  Sc  Sc67  1  0.09016101  0.29645637  0.90045110  1
  Sc  Sc68  1  0.09800870  0.49345200  0.90468272  1
  Sc  Sc69  1  0.50281772  0.10597259  0.50334480  1
  Sc  Sc70  1  0.90399084  0.49671534  0.69014536  1
  Sc  Sc71  1  0.48910279  0.70301167  0.90461411  1
  Sc  Sc72  1  0.89672483  0.10351405  0.69933522  1
  Sc  Sc73  1  0.29760771  0.11250452  0.30044752  1
  Sc  Sc74  1  0.69732246  0.49594173  0.89288414  1
  Sc  Sc75  1  0.49241000  0.09944789  0.89891713  1
  Sc  Sc76  1  0.89043072  0.10173235  0.29454790  1
  Sc  Sc77  1  0.30616566  0.30047734  0.50101039  1
  Sc  Sc78  1  0.51010037  0.89785903  0.30234581  1
  Sc  Sc79  1  0.90864938  0.90530757  0.10140122  1
  Sc  Sc80  1  0.30022007  0.29715757  0.68992864  1
  Sc  Sc81  1  0.89903205  0.49846814  0.10181712  1
  Sc  Sc82  1  0.29607654  0.29629840  0.10436748  1
  Sc  Sc83  1  0.49670169  0.90037128  0.89996512  1
  Sc  Sc84  1  0.71314638  0.29430651  0.50492089  1
  Sc  Sc85  1  0.09643653  0.49694694  0.69683134  1
  Sc  Sc86  1  0.10506909  0.91103292  0.49688152  1
  Sc  Sc87  1  0.70745330  0.50310709  0.10806768  1
  Sc  Sc88  1  0.49465633  0.29075461  0.69838533  1
  Sc  Sc89  1  0.10256683  0.10829859  0.90197524  1
  Sc  Sc90  1  0.50622350  0.10596228  0.09402611  1
  Sc  Sc91  1  0.69910301  0.09827206  0.28876180  1
  Sc  Sc92  1  0.89914855  0.09471139  0.09777846  1
  Sc  Sc93  1  0.49211234  0.50147785  0.50698839  1
  Sc  Sc94  1  0.89987390  0.90349387  0.89260808  1
  Sc  Sc95  1  0.10522280  0.30522729  0.50356504  1
  Sc  Sc96  1  0.90751571  0.10287734  0.89431775  1
  Sc  Sc97  1  0.50056795  0.69976158  0.69987476  1
  Sc  Sc98  1  0.70058996  0.70053641  0.69995181  1
  Sc  Sc99  1  0.10624521  0.30009383  0.08838289  1
  Nb  Nb100  1  0.29791258  0.50018125  0.09642020  1
  Nb  Nb101  1  0.50049141  0.30559075  0.09802616  1
  Nb  Nb102  1  0.70432893  0.09108343  0.09842045  1
  Nb  Nb103  1  0.69931677  0.09761298  0.69607721  1
  Nb  Nb104  1  0.89648850  0.49580826  0.50258850  1
  Nb  Nb105  1  0.70605506  0.90452909  0.69984288  1
  Nb  Nb106  1  0.09435414  0.70139447  0.50172375  1
  Nb  Nb107  1  0.70022162  0.90462403  0.09542815  1
  Nb  Nb108  1  0.89500888  0.90134609  0.49596330  1
  Nb  Nb109  1  0.89754810  0.30932098  0.50442053  1
  Nb  Nb110  1  0.10056354  0.89647150  0.69968556  1
  Nb  Nb111  1  0.90238940  0.29897325  0.90362504  1
  Nb  Nb112  1  0.49905583  0.30072602  0.49937867  1
  Nb  Nb113  1  0.30197909  0.90367876  0.09905817  1
  Nb  Nb114  1  0.90050564  0.29492658  0.09662686  1
  Nb  Nb115  1  0.29420639  0.08780779  0.09936225  1
  Nb  Nb116  1  0.50365039  0.69195097  0.30189850  1
  Nb  Nb117  1  0.90405015  0.30085204  0.70697631  1
  Nb  Nb118  1  0.50446385  0.90272120  0.49637370  1
  Nb  Nb119  1  0.30438706  0.30389585  0.30315288  1
  Nb  Nb120  1  0.50125499  0.10105111  0.69832946  1
  Nb  Nb121  1  0.29709670  0.69438414  0.89972553  1
  Nb  Nb122  1  0.69642106  0.29917499  0.89987997  1
  Nb  Nb123  1  0.30345628  0.50672684  0.90095999  1
  Nb  Nb124  1  0.69581209  0.90253173  0.49882153  1
  Nb  Nb125  1  0.59693707  0.59524135  0.00180189  1
  Nb  Nb126  1  0.19235306  0.79835295  0.60414931  1
  Nb  Nb127  1  0.59991780  0.39327909  0.59532367  1
  Nb  Nb128  1  0.60350650  0.00251113  0.79040805  1
  Nb  Nb129  1  -0.00064623  0.80591901  0.59668783  1
  Nb  Nb130  1  0.39531356  0.39730928  0.80760476  1
  Nb  Nb131  1  0.19952613  -0.00324844  0.79453857  1
  Nb  Nb132  1  0.20642928  0.60277004  0.00053231  1
  Nb  Nb133  1  0.79801800  0.80306621  0.00407619  1
  Nb  Nb134  1  -0.00149206  0.20420978  0.19634323  1
  Nb  Nb135  1  -0.00633162  0.00352775  0.40372022  1
  Nb  Nb136  1  0.59842612  0.20746040  0.39944255  1
  Nb  Nb137  1  0.59861443  0.39452225  0.40519641  1
  Nb  Nb138  1  0.39957765  0.39988604  -0.00044498  1
  Nb  Nb139  1  0.20762405  0.40222181  0.80393096  1
  Nb  Nb140  1  0.59591888  0.39938105  0.00363882  1
  Nb  Nb141  1  0.40527792  -0.00345049  0.59613259  1
  Nb  Nb142  1  0.80021076  0.80952243  0.59396840  1
  Nb  Nb143  1  0.20568153  0.79733068  -0.00027249  1
  Nb  Nb144  1  0.79953030  0.20430941  -0.00272822  1
  Nb  Nb145  1  0.39857750  0.60341231  0.39757335  1
  Nb  Nb146  1  0.39686989  0.00013414  0.19879424  1
  Nb  Nb147  1  0.79479744  0.80314119  0.19502044  1
  Nb  Nb148  1  0.80399891  0.38781889  0.80388950  1
  Nb  Nb149  1  0.40206226  -0.00050194  0.40051248  1
  Pd  Pd150  1  0.39700339  0.79824972  0.60249085  1
  Pd  Pd151  1  0.60405035  0.40592214  0.20144097  1
  Pd  Pd152  1  0.59422523  -0.00274781  0.60277215  1
  Pd  Pd153  1  0.39597515  0.19275794  0.19006854  1
  Pd  Pd154  1  0.20190361  0.21297861  0.40193764  1
  Pd  Pd155  1  -0.00234779  0.21024893  0.60136078  1
  Pd  Pd156  1  -0.00223481  0.59497151  0.20166425  1
  Pd  Pd157  1  -0.00960896  0.79996557  0.79449643  1
  Pd  Pd158  1  0.80483476  0.58686093  0.79777602  1
  Pd  Pd159  1  0.00024469  0.00126314  -0.00741058  1
  Pd  Pd160  1  0.40448051  0.60896978  0.59664635  1
  Pd  Pd161  1  0.79322436  0.39417814  0.61369424  1
  Pd  Pd162  1  0.79012684  0.39481585  -0.00082965  1
  Pd  Pd163  1  0.59435139  0.00250527  -0.00833269  1
  Pd  Pd164  1  -0.00185691  0.80422146  0.00016632  1
  Pd  Pd165  1  -0.00243631  0.20171927  0.39428579  1
  Pd  Pd166  1  0.79998040  0.00886465  0.40152086  1
  Pd  Pd167  1  0.78959799  0.79929667  0.39487566  1
  Pd  Pd168  1  0.00217101  0.39120047  0.19431593  1
  Pd  Pd169  1  0.40560516  0.80827703  0.20809932  1
  Pd  Pd170  1  0.20683112  -0.00277853  0.60835525  1
  Pd  Pd171  1  0.59494199  0.60809181  0.80451801  1
  Pd  Pd172  1  0.80502907  0.19867206  0.80452192  1
  Pd  Pd173  1  0.60985071  0.80141404  0.60076364  1
  Pd  Pd174  1  -0.00127864  -0.00245467  0.59390085  1
  Pd  Pd175  1  0.19475094  0.60326218  0.60143679  1
  Pd  Pd176  1  0.79273549  0.19425652  0.40000325  1
  Pd  Pd177  1  0.60500591  0.79173630  -0.00827346  1
  Pd  Pd178  1  0.80151008  0.40105070  0.19882366  1
  Pd  Pd179  1  0.19964967  0.79404852  0.19277987  1
  Pd  Pd180  1  0.00940175  0.59018054  0.00455288  1
  Pd  Pd181  1  0.01069526  0.01010239  0.79816244  1
  Pd  Pd182  1  0.80697669  0.00234253  -0.00594708  1
  Pd  Pd183  1  0.18985898  0.80227324  0.40617175  1
  Pd  Pd184  1  0.40129269  0.40713462  0.40126137  1
  Pd  Pd185  1  -0.00068547  0.00773234  0.20883199  1
  Pd  Pd186  1  0.39427845  0.20024709  0.00750184  1
  Pd  Pd187  1  0.79028903  0.60128764  -0.00473553  1
  Pd  Pd188  1  0.59883795  0.59345913  0.59764132  1
  Pd  Pd189  1  -0.00140137  0.58783422  0.79965915  1
  Pd  Pd190  1  0.19460502  0.20422545  0.19755035  1
  Pd  Pd191  1  0.20261973  -0.00622625  -0.01572473  1
  Pd  Pd192  1  0.40561413  0.80151930  0.38919357  1
  Pd  Pd193  1  0.60639582  0.80606807  0.20609321  1
  Pd  Pd194  1  0.19592120  0.20019566  0.79560400  1
  Pd  Pd195  1  0.60118801  0.19748132  0.19806929  1
  Pd  Pd196  1  0.20396831  0.59450367  0.40431869  1
  Pd  Pd197  1  0.00149783  0.39492421  0.40500776  1
  Pd  Pd198  1  0.00388675  0.40291935  0.00932461  1
  Pd  Pd199  1  0.59877363  0.80187779  0.80339325  1
  Rh  Rh200  1  0.20310108  0.19238961  0.00360967  1
  Rh  Rh201  1  0.59944655  0.59512415  0.19265064  1
  Rh  Rh202  1  0.40042131  0.19344140  0.59297002  1
  Rh  Rh203  1  0.40356401  0.19627062  0.40183276  1
  Rh  Rh204  1  0.59961187  0.20619556  0.59538505  1
  Rh  Rh205  1  0.00775912  0.81138229  0.40717577  1
  Rh  Rh206  1  0.79817909  -0.00815596  0.19610148  1
  Rh  Rh207  1  0.18905320  0.58828660  0.80958005  1
  Rh  Rh208  1  0.80589186  0.20514789  0.60732224  1
  Rh  Rh209  1  0.58917553  0.58771228  0.40894758  1
  Rh  Rh210  1  0.40381307  0.00289631  0.79045912  1
  Rh  Rh211  1  0.19827737  0.39967337  0.60811820  1
  Rh  Rh212  1  0.39602344  0.60452938  0.20804368  1
  Rh  Rh213  1  0.80486619  0.19484927  0.18684120  1
  Rh  Rh214  1  0.79360907  0.01079276  0.80197606  1
  Rh  Rh215  1  0.60617562  0.80327021  0.39494782  1
  Rh  Rh216  1  0.80450654  0.79994726  0.79836808  1
  Rh  Rh217  1  0.59933709  0.39296226  0.79545243  1
  Rh  Rh218  1  0.39093289  0.39450588  0.19176009  1
  Rh  Rh219  1  -0.00380818  0.60281714  0.59553209  1
  Rh  Rh220  1  0.80007255  -0.00186254  0.59722244  1
  Rh  Rh221  1  0.40681894  0.59996103  0.79759920  1
  Rh  Rh222  1  0.19826871  0.00117531  0.39257158  1
  Rh  Rh223  1  0.59729212  0.01011063  0.40535783  1
  Rh  Rh224  1  0.40178073  0.79396411  0.80416394  1
  Rh  Rh225  1  0.20142372  0.60703506  0.19047025  1
  Rh  Rh226  1  0.20703856  0.40769993  -0.00626706  1
  Rh  Rh227  1  0.59332911  0.18994664  0.79763841  1
  Rh  Rh228  1  0.80079343  0.60559168  0.59929494  1
  Rh  Rh229  1  0.79732100  0.39946310  0.39971057  1
  Rh  Rh230  1  0.59467847  -0.00063709  0.18930687  1
  Rh  Rh231  1  -0.00683721  0.79922145  0.19874256  1
  Rh  Rh232  1  0.20507185  0.40041423  0.40067586  1
  Rh  Rh233  1  0.40047932  0.60029125  0.00603998  1
  Rh  Rh234  1  -0.00645765  0.19563586  0.00720043  1
  Rh  Rh235  1  -0.00138913  0.59306545  0.40315371  1
  Rh  Rh236  1  0.80818115  0.59939668  0.39548129  1
  Rh  Rh237  1  0.40076992  0.20360431  0.80154772  1
  Rh  Rh238  1  0.20399252  0.39179378  0.20075548  1
  Rh  Rh239  1  0.19960057  0.20367195  0.59872669  1
  Rh  Rh240  1  0.61065206  0.20511282  0.00980096  1
  Rh  Rh241  1  0.20287819  0.00332257  0.20514996  1
  Rh  Rh242  1  -0.00122640  0.39606102  0.59740428  1
  Rh  Rh243  1  0.20474892  0.80528645  0.80497961  1
  Rh  Rh244  1  0.39385925  0.79835224  0.00033173  1
  Rh  Rh245  1  0.40509646  0.00279856  0.01020807  1
  Rh  Rh246  1  -0.00049313  0.39841795  0.79990415  1
  Rh  Rh247  1  0.40753101  0.39718712  0.61111554  1
  Rh  Rh248  1  0.80704757  0.60640938  0.20896969  1
  Rh  Rh249  1  0.00191080  0.20107288  0.79693242  1
