# generated using pymatgen
data_ZrScNbPdRh
_symmetry_space_group_name_H-M   'P 1'
_cell_length_a   16.55362966
_cell_length_b   16.55232462
_cell_length_c   16.55019376
_cell_angle_alpha   89.98962250
_cell_angle_beta   89.99435460
_cell_angle_gamma   90.01707816
_symmetry_Int_Tables_number   1
_chemical_formula_structural   ZrScNbPdRh
_chemical_formula_sum   'Zr50 Sc50 Nb50 Pd50 Rh50'
_cell_volume   4534.77019979
_cell_formula_units_Z   50
loop_
 _symmetry_equiv_pos_site_id
 _symmetry_equiv_pos_as_xyz
  1  'x, y, z'
loop_
 _atom_site_type_symbol
 _atom_site_label
 _atom_site_symmetry_multiplicity
 _atom_site_fract_x
 _atom_site_fract_y
 _atom_site_fract_z
 _atom_site_occupancy
  Zr  Zr0  1  0.49140147  0.90126624  0.69954924  1
  Zr  Zr1  1  0.30720471  0.50149872  0.89849494  1
  Zr  Zr2  1  0.30133933  0.69278106  0.29065009  1
  Zr  Zr3  1  0.29377279  0.10242889  0.69502727  1
  Zr  Zr4  1  0.30536157  0.89881535  0.50848935  1
  Zr  Zr5  1  0.30262588  0.10062934  0.29445428  1
  Zr  Zr6  1  0.29798272  0.30190339  0.90141514  1
  Zr  Zr7  1  0.10136990  0.29810158  0.89819218  1
  Zr  Zr8  1  0.29249446  0.89705496  0.90519767  1
  Zr  Zr9  1  0.69261439  0.10572147  0.91030742  1
  Zr  Zr10  1  0.30378909  0.49426531  0.69771580  1
  Zr  Zr11  1  0.69157353  0.69540983  0.69935830  1
  Zr  Zr12  1  0.29915792  0.09398745  0.50322356  1
  Zr  Zr13  1  0.50707931  0.70147636  0.49502449  1
  Zr  Zr14  1  0.10856326  0.09433663  0.50200277  1
  Zr  Zr15  1  0.09958192  0.69807186  0.29846744  1
  Zr  Zr16  1  0.29755882  0.49318691  0.50255862  1
  Zr  Zr17  1  0.90361324  0.30350222  0.10729668  1
  Zr  Zr18  1  0.10723374  0.70193007  0.90004161  1
  Zr  Zr19  1  0.69499121  0.91026231  0.50146468  1
  Zr  Zr20  1  0.89805941  0.89925385  0.71079514  1
  Zr  Zr21  1  0.90687965  0.72153065  0.29442235  1
  Zr  Zr22  1  0.70235340  0.91247261  0.09461444  1
  Zr  Zr23  1  0.89885852  0.70423696  0.89657692  1
  Zr  Zr24  1  0.70933228  0.50692009  0.49162795  1
  Zr  Zr25  1  0.89925495  0.89964448  0.49111302  1
  Zr  Zr26  1  0.89662417  0.30342973  0.90050422  1
  Zr  Zr27  1  0.09863844  0.50147116  0.68953993  1
  Zr  Zr28  1  0.09410761  0.90020638  0.89647435  1
  Zr  Zr29  1  0.69662994  0.09902788  0.69032478  1
  Zr  Zr30  1  0.50130986  0.70335300  0.70768315  1
  Zr  Zr31  1  0.30456982  0.70332165  0.70586673  1
  Zr  Zr32  1  0.89897664  0.69102848  0.49550922  1
  Zr  Zr33  1  0.69249510  0.90935436  0.90487947  1
  Zr  Zr34  1  0.50448369  0.10512463  0.29779945  1
  Zr  Zr35  1  0.09917995  0.49598937  0.89622275  1
  Zr  Zr36  1  0.69882307  0.49355223  0.29637858  1
  Zr  Zr37  1  0.50094923  0.50615277  0.70797229  1
  Zr  Zr38  1  0.10294037  0.90106183  0.49920566  1
  Zr  Zr39  1  0.89186014  0.90192156  0.90443245  1
  Zr  Zr40  1  0.10241480  0.10148841  0.10036766  1
  Zr  Zr41  1  0.50482717  0.50032664  0.10077618  1
  Zr  Zr42  1  0.10577090  0.30219811  0.09882153  1
  Zr  Zr43  1  0.09721990  0.49885155  0.11238620  1
  Zr  Zr44  1  0.50470718  0.50196184  0.30735177  1
  Zr  Zr45  1  0.68977691  0.89990639  0.70236345  1
  Zr  Zr46  1  0.09441925  0.69834124  0.70450489  1
  Zr  Zr47  1  0.70655042  0.30273176  0.90233530  1
  Zr  Zr48  1  0.69071974  0.10865065  0.50040649  1
  Zr  Zr49  1  0.89140379  0.89799977  0.10786430  1
  Sc  Sc50  1  0.30882987  0.49562686  0.10383886  1
  Sc  Sc51  1  0.70485943  0.68963601  0.09937089  1
  Sc  Sc52  1  0.89777522  0.48886011  0.89681941  1
  Sc  Sc53  1  0.30412321  0.09735795  0.90039298  1
  Sc  Sc54  1  0.89330558  0.10436588  0.69831770  1
  Sc  Sc55  1  0.69089100  0.69774122  0.90249917  1
  Sc  Sc56  1  0.70898990  0.89974513  0.30298729  1
  Sc  Sc57  1  0.30066424  0.30080037  0.51430152  1
  Sc  Sc58  1  0.09780890  0.09000627  0.29868597  1
  Sc  Sc59  1  0.49222868  0.69102235  0.09608870  1
  Sc  Sc60  1  0.90452123  0.49488424  0.69711566  1
  Sc  Sc61  1  0.70558624  0.30486659  0.30413571  1
  Sc  Sc62  1  0.30153606  0.29541516  0.70283334  1
  Sc  Sc63  1  0.11096197  0.90233237  0.09604515  1
  Sc  Sc64  1  0.88334119  0.09870159  0.50188769  1
  Sc  Sc65  1  0.49438768  0.29508353  0.69910046  1
  Sc  Sc66  1  0.49614239  0.69587938  0.30430260  1
  Sc  Sc67  1  0.89633552  0.10574704  0.89259480  1
  Sc  Sc68  1  0.10366670  0.31693476  0.50018501  1
  Sc  Sc69  1  0.31261414  0.49925553  0.30032538  1
  Sc  Sc70  1  0.89740858  0.30640914  0.70095965  1
  Sc  Sc71  1  0.30404317  0.89980496  0.69750602  1
  Sc  Sc72  1  0.70275042  0.29509203  0.69175271  1
  Sc  Sc73  1  0.89149176  0.10437181  0.11016460  1
  Sc  Sc74  1  0.89333903  0.29698736  0.29553146  1
  Sc  Sc75  1  0.09563154  0.30563312  0.29061899  1
  Sc  Sc76  1  0.30677466  0.70098077  0.50300615  1
  Sc  Sc77  1  0.09204090  0.69225286  0.50366699  1
  Sc  Sc78  1  0.10061266  0.70009819  0.11537395  1
  Sc  Sc79  1  0.30456548  0.89994040  0.09523601  1
  Sc  Sc80  1  0.70305069  0.50077228  0.09641527  1
  Sc  Sc81  1  0.70374909  0.50246428  0.69674008  1
  Sc  Sc82  1  0.49965836  0.50428866  0.90909281  1
  Sc  Sc83  1  0.30853343  0.89465376  0.29177170  1
  Sc  Sc84  1  0.50426134  0.29775504  0.49836668  1
  Sc  Sc85  1  0.49388655  0.10114870  0.70448102  1
  Sc  Sc86  1  0.49222128  0.10130269  0.08968681  1
  Sc  Sc87  1  0.71169640  0.29670292  0.09219556  1
  Sc  Sc88  1  0.10801589  0.29550512  0.70403606  1
  Sc  Sc89  1  0.49993805  0.29141782  0.90203137  1
  Sc  Sc90  1  0.49422633  0.29986550  0.09526946  1
  Sc  Sc91  1  0.08630751  0.89950991  0.30301841  1
  Sc  Sc92  1  0.89864266  0.48987524  0.29847457  1
  Sc  Sc93  1  0.29839880  0.09848627  0.10025633  1
  Sc  Sc94  1  0.70293968  0.29764996  0.49437420  1
  Sc  Sc95  1  0.30485420  0.29955036  0.28689125  1
  Sc  Sc96  1  0.70214735  0.69046224  0.30784884  1
  Sc  Sc97  1  0.49002995  0.91048587  0.89689782  1
  Sc  Sc98  1  0.50667980  0.30764842  0.30121980  1
  Sc  Sc99  1  0.70647612  0.11015559  0.30939225  1
  Nb  Nb100  1  0.90789553  0.10329540  0.30060989  1
  Nb  Nb101  1  0.49066078  0.69328229  0.90088067  1
  Nb  Nb102  1  0.89810074  0.50237326  0.10043495  1
  Nb  Nb103  1  0.50072906  0.90169859  0.49349484  1
  Nb  Nb104  1  0.90368206  0.69895183  0.09847948  1
  Nb  Nb105  1  0.29485277  0.69785484  0.09760115  1
  Nb  Nb106  1  0.89635114  0.70185807  0.70116068  1
  Nb  Nb107  1  0.30056453  0.29587937  0.09691164  1
  Nb  Nb108  1  0.09449398  0.50070916  0.49707401  1
  Nb  Nb109  1  0.69636979  0.10206897  0.09723429  1
  Nb  Nb110  1  0.50454153  0.09831745  0.49242598  1
  Nb  Nb111  1  0.09404658  0.90206693  0.70152193  1
  Nb  Nb112  1  0.69971278  0.49827659  0.89850464  1
  Nb  Nb113  1  0.49542224  0.49730476  0.49547452  1
  Nb  Nb114  1  0.09497580  0.10020045  0.89441185  1
  Nb  Nb115  1  0.90272519  0.30323095  0.50053657  1
  Nb  Nb116  1  0.09821219  0.10126984  0.70031180  1
  Nb  Nb117  1  0.50213095  0.90260132  0.10204981  1
  Nb  Nb118  1  0.50030448  0.09757230  0.89526236  1
  Nb  Nb119  1  0.30403869  0.70128853  0.90927791  1
  Nb  Nb120  1  0.10577337  0.50116826  0.30437698  1
  Nb  Nb121  1  0.90428482  0.90764312  0.30242649  1
  Nb  Nb122  1  0.91699580  0.49037346  0.50383502  1
  Nb  Nb123  1  0.70422939  0.69915891  0.50394825  1
  Nb  Nb124  1  0.50665149  0.89987668  0.29879728  1
  Nb  Nb125  1  0.40613946  0.59670625  0.59979165  1
  Nb  Nb126  1  0.79975089  0.60121326  0.79923969  1
  Nb  Nb127  1  0.19645531  0.59520391  0.39970499  1
  Nb  Nb128  1  -0.00126273  0.60167344  0.00508854  1
  Nb  Nb129  1  0.59778690  0.80567516  0.19575325  1
  Nb  Nb130  1  0.59647551  0.40678001  0.59929987  1
  Nb  Nb131  1  -0.00270350  0.79864506  0.00444002  1
  Nb  Nb132  1  0.60110838  0.00197919  0.19903502  1
  Nb  Nb133  1  0.19955304  0.60137999  0.00385940  1
  Nb  Nb134  1  0.19984530  0.79380507  0.39919264  1
  Nb  Nb135  1  0.60470431  0.19596057  0.19296758  1
  Nb  Nb136  1  -0.00199601  0.00316696  -0.00173467  1
  Nb  Nb137  1  0.40947828  -0.00160648  0.39940632  1
  Nb  Nb138  1  0.39665195  0.19393101  0.40071249  1
  Nb  Nb139  1  -0.00668710  0.80248190  0.60535087  1
  Nb  Nb140  1  0.79702324  0.79483572  0.59884191  1
  Nb  Nb141  1  0.59180327  0.80303952  0.00568691  1
  Nb  Nb142  1  0.78979528  0.00095314  0.80105118  1
  Nb  Nb143  1  0.20059912  0.20162035  0.39974545  1
  Nb  Nb144  1  0.18988964  0.00212191  0.79673922  1
  Nb  Nb145  1  0.00315920  0.19800138  -0.00018849  1
  Nb  Nb146  1  0.00060468  0.00052633  0.60425723  1
  Nb  Nb147  1  0.00227004  0.19842789  0.59405753  1
  Nb  Nb148  1  0.00129853  0.19939944  0.40516734  1
  Nb  Nb149  1  0.60381443  0.40136410  0.79935083  1
  Pd  Pd150  1  0.79381578  0.19742382  0.79514890  1
  Pd  Pd151  1  0.40564273  0.80295701  0.00130615  1
  Pd  Pd152  1  0.80556403  0.59413040  -0.00890619  1
  Pd  Pd153  1  0.19985086  0.19282927  -0.00568766  1
  Pd  Pd154  1  0.20054257  -0.00899864  0.20450372  1
  Pd  Pd155  1  0.80901767  0.59782246  0.60552304  1
  Pd  Pd156  1  0.41112742  0.39361250  0.80589107  1
  Pd  Pd157  1  -0.00315992  0.59682537  0.38928024  1
  Pd  Pd158  1  0.59866675  0.80303788  0.59496192  1
  Pd  Pd159  1  -0.00225867  0.39177439  0.39089627  1
  Pd  Pd160  1  0.40567802  0.00199556  0.19899713  1
  Pd  Pd161  1  0.79470254  0.00989222  0.21125634  1
  Pd  Pd162  1  0.39680007  0.19808618  -0.00327867  1
  Pd  Pd163  1  0.78685128  0.79844715  0.79914285  1
  Pd  Pd164  1  0.79362000  0.79991004  0.40386616  1
  Pd  Pd165  1  0.79482105  0.39961112  0.59485813  1
  Pd  Pd166  1  0.39473451  0.38509437  0.40246793  1
  Pd  Pd167  1  -0.00940692  0.59383171  0.80452466  1
  Pd  Pd168  1  0.79238945  0.79393638  0.00432730  1
  Pd  Pd169  1  0.19587849  0.19973835  0.20654550  1
  Pd  Pd170  1  -0.00479689  0.20592640  0.79504939  1
  Pd  Pd171  1  0.81309088  0.59486441  0.38971587  1
  Pd  Pd172  1  0.39462359  0.80260437  0.39784428  1
  Pd  Pd173  1  0.78804205  0.79517122  0.19829867  1
  Pd  Pd174  1  0.59473891  0.59278131  0.59139952  1
  Pd  Pd175  1  -0.00971840  0.59586851  0.20539843  1
  Pd  Pd176  1  0.60115959  0.39638062  -0.00300012  1
  Pd  Pd177  1  0.58681491  0.00366527  0.60282972  1
  Pd  Pd178  1  0.21219107  -0.01015913  0.38788426  1
  Pd  Pd179  1  0.60772086  0.38753324  0.18893318  1
  Pd  Pd180  1  0.59761684  0.60891624  0.20115446  1
  Pd  Pd181  1  0.40696253  0.19506888  0.59410990  1
  Pd  Pd182  1  0.19200283  0.79579406  0.59842991  1
  Pd  Pd183  1  0.40789450  0.79302577  0.19420200  1
  Pd  Pd184  1  0.58876773  0.80255739  0.81540884  1
  Pd  Pd185  1  0.20831350  0.40433556  0.20281459  1
  Pd  Pd186  1  0.79924412  0.00642059  0.39429546  1
  Pd  Pd187  1  0.40684668  0.39649012  0.19762063  1
  Pd  Pd188  1  0.20779954  0.59887094  0.80387247  1
  Pd  Pd189  1  0.60916806  0.79869856  0.39307392  1
  Pd  Pd190  1  0.19988773  0.40108807  0.79445397  1
  Pd  Pd191  1  -0.00282088  0.40085864  0.00271037  1
  Pd  Pd192  1  0.00000497  -0.00324527  0.19046068  1
  Pd  Pd193  1  0.60129966  0.20516383  0.79640260  1
  Pd  Pd194  1  0.20606541  0.40946263  0.00571712  1
  Pd  Pd195  1  0.20377498  0.80658595  0.79446293  1
  Pd  Pd196  1  0.80824904  0.60184893  0.20788960  1
  Pd  Pd197  1  0.20745789  0.39724134  0.39323031  1
  Pd  Pd198  1  0.20597593  0.60440945  0.59403168  1
  Pd  Pd199  1  0.19812470  0.80863215  0.20370370  1
  Rh  Rh200  1  0.59608586  0.20805513  0.39290116  1
  Rh  Rh201  1  0.80579907  0.40071480  0.40607243  1
  Rh  Rh202  1  0.59477967  0.20123251  0.00407685  1
  Rh  Rh203  1  0.38799153  0.00242345  0.79810668  1
  Rh  Rh204  1  0.39927428  0.39649033  -0.00036608  1
  Rh  Rh205  1  0.79606655  0.40261949  0.19368201  1
  Rh  Rh206  1  0.81067299  0.20335449  0.40077694  1
  Rh  Rh207  1  0.19588109  0.39856518  0.60652044  1
  Rh  Rh208  1  0.40753254  0.00402188  0.59500799  1
  Rh  Rh209  1  0.58700522  0.00146203  0.00261415  1
  Rh  Rh210  1  0.80361202  0.40527286  0.00520602  1
  Rh  Rh211  1  0.60514837  0.59390244  0.81050794  1
  Rh  Rh212  1  0.39851129  0.80162135  0.80890492  1
  Rh  Rh213  1  0.60644552  0.40401272  0.40952755  1
  Rh  Rh214  1  0.60256965  0.59832733  0.40235795  1
  Rh  Rh215  1  0.39228168  0.59698471  0.00605494  1
  Rh  Rh216  1  0.00628693  0.39718280  0.79250524  1
  Rh  Rh217  1  0.41093404  0.79276438  0.59889411  1
  Rh  Rh218  1  0.19065740  0.20812660  0.59280593  1
  Rh  Rh219  1  0.20826977  0.58983177  0.20116860  1
  Rh  Rh220  1  0.19547161  -0.00739438  0.61317492  1
  Rh  Rh221  1  0.00364624  0.19912568  0.20175431  1
  Rh  Rh222  1  0.81190709  0.19839796  0.00396852  1
  Rh  Rh223  1  0.80675959  0.20927848  0.59525728  1
  Rh  Rh224  1  0.00587842  0.39142364  0.60529636  1
  Rh  Rh225  1  0.39600212  0.60337142  0.79923880  1
  Rh  Rh226  1  0.59526601  0.20530059  0.59820848  1
  Rh  Rh227  1  -0.00174682  0.40327150  0.20378502  1
  Rh  Rh228  1  -0.00899174  0.01164844  0.40840159  1
  Rh  Rh229  1  0.60040771  0.00763184  0.79894946  1
  Rh  Rh230  1  0.00144215  0.79575695  0.80223850  1
  Rh  Rh231  1  0.40992104  0.40511035  0.60159714  1
  Rh  Rh232  1  0.40407797  0.59857741  0.19621459  1
  Rh  Rh233  1  0.20601963  0.19171190  0.80532929  1
  Rh  Rh234  1  0.79328908  0.19891233  0.20343274  1
  Rh  Rh235  1  0.79034433  0.40643440  0.79558388  1
  Rh  Rh236  1  0.39449432  0.19800532  0.80324160  1
  Rh  Rh237  1  0.40840506  0.20567277  0.20045337  1
  Rh  Rh238  1  0.39928792  0.00059941  -0.00158364  1
  Rh  Rh239  1  0.00574312  0.79886878  0.40777851  1
  Rh  Rh240  1  0.59845655  0.60414040  -0.00193032  1
  Rh  Rh241  1  0.00239463  0.81168022  0.19178423  1
  Rh  Rh242  1  0.19372882  0.79009402  0.00920466  1
  Rh  Rh243  1  0.19596644  0.00683078  -0.00949475  1
  Rh  Rh244  1  0.80959627  0.01568997  -0.00609781  1
  Rh  Rh245  1  -0.00547162  0.00686298  0.79891472  1
  Rh  Rh246  1  -0.00549238  0.60269382  0.60253824  1
  Rh  Rh247  1  0.39201650  0.59894646  0.40911956  1
  Rh  Rh248  1  0.80311014  -0.01217049  0.60981159  1
  Rh  Rh249  1  0.60119484  -0.00153672  0.39246325  1
