# generated using pymatgen
data_ZrScNbPdRh
_symmetry_space_group_name_H-M   'P 1'
_cell_length_a   16.55211466
_cell_length_b   16.55321796
_cell_length_c   16.55466166
_cell_angle_alpha   90.01439587
_cell_angle_beta   89.97256328
_cell_angle_gamma   90.00866419
_symmetry_Int_Tables_number   1
_chemical_formula_structural   ZrScNbPdRh
_chemical_formula_sum   'Zr50 Sc50 Nb50 Pd50 Rh50'
_cell_volume   4535.82364340
_cell_formula_units_Z   50
loop_
 _symmetry_equiv_pos_site_id
 _symmetry_equiv_pos_as_xyz
  1  'x, y, z'
loop_
 _atom_site_type_symbol
 _atom_site_label
 _atom_site_symmetry_multiplicity
 _atom_site_fract_x
 _atom_site_fract_y
 _atom_site_fract_z
 _atom_site_occupancy
  Zr  Zr0  1  0.69706319  0.70293684  0.29725803  1
  Zr  Zr1  1  0.90074114  0.10454817  0.90166029  1
  Zr  Zr2  1  0.89948240  0.09605826  0.49156120  1
  Zr  Zr3  1  0.90708327  0.69674079  0.29931274  1
  Zr  Zr4  1  0.70146880  0.50472086  0.09098302  1
  Zr  Zr5  1  0.69282765  0.88968396  0.28500143  1
  Zr  Zr6  1  0.50480872  0.90584859  0.10058317  1
  Zr  Zr7  1  0.29349647  0.89083069  0.30278684  1
  Zr  Zr8  1  0.90317486  0.90284573  0.49961309  1
  Zr  Zr9  1  0.70712279  0.49258946  0.28949710  1
  Zr  Zr10  1  0.71202853  0.69562854  0.69324104  1
  Zr  Zr11  1  0.50236582  0.10134660  0.30428312  1
  Zr  Zr12  1  0.29699718  0.70138842  0.49897840  1
  Zr  Zr13  1  0.10934684  0.29718620  0.28898173  1
  Zr  Zr14  1  0.29794551  0.89595274  0.50911227  1
  Zr  Zr15  1  0.10119768  0.69906260  0.29727166  1
  Zr  Zr16  1  0.69882696  0.70363426  0.10017895  1
  Zr  Zr17  1  0.50116384  0.70779060  0.50150296  1
  Zr  Zr18  1  0.49147276  0.89269447  0.89731950  1
  Zr  Zr19  1  0.09907728  0.09873460  0.10460489  1
  Zr  Zr20  1  0.09596689  0.10088829  0.30270567  1
  Zr  Zr21  1  0.89643386  0.49454453  0.90468059  1
  Zr  Zr22  1  0.50319658  0.90024889  0.68962319  1
  Zr  Zr23  1  0.50645806  0.31364373  0.70366777  1
  Zr  Zr24  1  0.30081068  0.50355031  0.29026776  1
  Zr  Zr25  1  0.90689667  0.30372791  0.09079309  1
  Zr  Zr26  1  0.69993610  0.09979822  0.90081413  1
  Zr  Zr27  1  0.29834434  0.09745990  0.89566771  1
  Zr  Zr28  1  0.71097168  0.30364715  0.49687882  1
  Zr  Zr29  1  0.49897164  0.51048790  0.50814996  1
  Zr  Zr30  1  0.29170497  0.90137112  0.90929527  1
  Zr  Zr31  1  0.09195102  0.69765886  0.69654482  1
  Zr  Zr32  1  0.09137675  0.30723227  0.89607723  1
  Zr  Zr33  1  0.90812229  0.09168324  0.70957346  1
  Zr  Zr34  1  0.10268106  0.49931308  0.70123661  1
  Zr  Zr35  1  0.89616896  0.31013590  0.30959361  1
  Zr  Zr36  1  0.09733002  0.50525158  0.89645930  1
  Zr  Zr37  1  0.49000256  0.50140325  0.09820714  1
  Zr  Zr38  1  0.89799389  0.49722310  0.10724585  1
  Zr  Zr39  1  0.70045300  0.08814452  0.09281728  1
  Zr  Zr40  1  0.30155478  0.51216990  0.49959812  1
  Zr  Zr41  1  0.09619041  0.30100688  0.49972654  1
  Zr  Zr42  1  0.50211953  0.50450145  0.70021873  1
  Zr  Zr43  1  0.50412930  0.70179848  0.69850034  1
  Zr  Zr44  1  0.09778509  0.09330663  0.89238558  1
  Zr  Zr45  1  0.29852333  0.70526034  0.90323451  1
  Zr  Zr46  1  0.69904320  0.90440919  0.90283355  1
  Zr  Zr47  1  0.49704726  0.09630537  0.50614904  1
  Zr  Zr48  1  0.90192478  0.30224745  0.89463520  1
  Zr  Zr49  1  0.70211310  0.09617735  0.70762326  1
  Sc  Sc50  1  0.70578163  0.30196330  0.10667005  1
  Sc  Sc51  1  0.49782224  0.09269163  0.70173115  1
  Sc  Sc52  1  0.10199797  0.30956222  0.70071824  1
  Sc  Sc53  1  0.50138899  0.29724557  0.09601393  1
  Sc  Sc54  1  0.29341259  0.69863741  0.70007838  1
  Sc  Sc55  1  0.29315832  0.69624383  0.10152944  1
  Sc  Sc56  1  0.29270845  0.10851436  0.30344164  1
  Sc  Sc57  1  0.09773173  0.90280356  0.70234374  1
  Sc  Sc58  1  0.49951950  0.29660207  0.50269897  1
  Sc  Sc59  1  0.30111098  0.29536132  0.50998500  1
  Sc  Sc60  1  0.30279258  0.50129617  0.69941547  1
  Sc  Sc61  1  0.70048161  0.49272030  0.70152529  1
  Sc  Sc62  1  0.50649064  0.29492720  0.29899212  1
  Sc  Sc63  1  0.70795656  0.09658117  0.49326505  1
  Sc  Sc64  1  0.49438676  0.50573584  0.90128695  1
  Sc  Sc65  1  0.09363630  0.50277317  0.50753211  1
  Sc  Sc66  1  0.70354915  0.49938229  0.51558586  1
  Sc  Sc67  1  0.09999647  0.69737277  0.09496942  1
  Sc  Sc68  1  0.30248034  0.50337503  0.89292422  1
  Sc  Sc69  1  0.89817479  0.70084653  0.09318055  1
  Sc  Sc70  1  0.49865928  0.71007129  0.30839422  1
  Sc  Sc71  1  0.69990739  0.30317973  0.88912803  1
  Sc  Sc72  1  0.29339157  0.90559979  0.70070103  1
  Sc  Sc73  1  0.30202035  0.09254114  0.08486781  1
  Sc  Sc74  1  0.29924326  0.10373788  0.51422842  1
  Sc  Sc75  1  0.49197224  0.69301115  0.08667486  1
  Sc  Sc76  1  0.49997042  0.30194920  0.89698803  1
  Sc  Sc77  1  0.29896058  0.29966014  0.29442687  1
  Sc  Sc78  1  0.10306603  0.09380789  0.70241245  1
  Sc  Sc79  1  0.70198718  0.29612253  0.29949445  1
  Sc  Sc80  1  0.90354677  0.89122028  0.89495354  1
  Sc  Sc81  1  0.89019957  0.90080223  0.10422760  1
  Sc  Sc82  1  0.30304226  0.30225336  0.88900218  1
  Sc  Sc83  1  0.90055716  0.08633800  0.30104896  1
  Sc  Sc84  1  0.70670797  0.10293655  0.30079703  1
  Sc  Sc85  1  0.29780979  0.30493967  0.10987875  1
  Sc  Sc86  1  0.49014576  0.69730855  0.89810264  1
  Sc  Sc87  1  0.29294852  0.69433667  0.30302543  1
  Sc  Sc88  1  0.09209571  0.90132668  0.30233886  1
  Sc  Sc89  1  0.09131431  0.50660720  0.29395848  1
  Sc  Sc90  1  0.90966216  0.70129594  0.50935668  1
  Sc  Sc91  1  0.09403554  0.49989198  0.10590006  1
  Sc  Sc92  1  0.49748427  0.10127920  0.90977587  1
  Sc  Sc93  1  0.70434426  0.89899059  0.50282902  1
  Sc  Sc94  1  0.29711679  0.10099119  0.70322514  1
  Sc  Sc95  1  0.70413401  0.89497900  0.70409460  1
  Sc  Sc96  1  0.89995372  0.50318310  0.70156965  1
  Sc  Sc97  1  0.70946111  0.69368852  0.90140757  1
  Sc  Sc98  1  0.90395052  0.69848447  0.89581057  1
  Sc  Sc99  1  0.70823901  0.50088959  0.89544619  1
  Nb  Nb100  1  0.90057532  0.88742269  0.69549863  1
  Nb  Nb101  1  0.10058195  0.89625368  0.91263985  1
  Nb  Nb102  1  0.10211988  0.89844282  0.09938470  1
  Nb  Nb103  1  0.10117343  0.70164446  0.50416969  1
  Nb  Nb104  1  0.69957595  0.30114906  0.69806634  1
  Nb  Nb105  1  0.89901952  0.89803056  0.30256675  1
  Nb  Nb106  1  0.49856228  0.50421917  0.30335001  1
  Nb  Nb107  1  0.89758193  0.71339813  0.70170440  1
  Nb  Nb108  1  0.10292202  0.30132385  0.10045442  1
  Nb  Nb109  1  0.49556914  0.89735046  0.49550389  1
  Nb  Nb110  1  0.30275291  0.30540726  0.70494564  1
  Nb  Nb111  1  0.49921241  0.89607753  0.30217625  1
  Nb  Nb112  1  0.09841017  0.09939620  0.49867980  1
  Nb  Nb113  1  0.90475297  0.29782920  0.70063026  1
  Nb  Nb114  1  0.70455944  0.69679804  0.49586444  1
  Nb  Nb115  1  0.90272237  0.30377664  0.50248581  1
  Nb  Nb116  1  0.49925367  0.09863184  0.09769618  1
  Nb  Nb117  1  0.69386415  0.89406247  0.09826032  1
  Nb  Nb118  1  0.90138510  0.10096520  0.10060808  1
  Nb  Nb119  1  0.29651186  0.89763325  0.09850219  1
  Nb  Nb120  1  0.90302998  0.48679083  0.48766732  1
  Nb  Nb121  1  0.10270976  0.90098185  0.50712494  1
  Nb  Nb122  1  0.90331154  0.50413787  0.30176487  1
  Nb  Nb123  1  0.30000455  0.49793359  0.10193874  1
  Nb  Nb124  1  0.09959918  0.70727404  0.90446893  1
  Nb  Nb125  1  -0.00399090  0.20070686  0.19724895  1
  Nb  Nb126  1  0.19896867  0.40009641  0.00285415  1
  Nb  Nb127  1  0.80672159  0.20266244  0.60502075  1
  Nb  Nb128  1  0.39691820  0.80710418  0.19768078  1
  Nb  Nb129  1  0.20422863  0.40330933  0.39937203  1
  Nb  Nb130  1  0.60134546  0.80213676  -0.00033778  1
  Nb  Nb131  1  0.59306214  -0.00900156  0.39848776  1
  Nb  Nb132  1  0.39780677  -0.00174190  0.20309265  1
  Nb  Nb133  1  0.40365265  0.18810489  0.19439776  1
  Nb  Nb134  1  -0.00051262  -0.00328658  0.00398231  1
  Nb  Nb135  1  0.59667552  0.41005311  0.40033851  1
  Nb  Nb136  1  0.19800770  0.00061937  0.40572736  1
  Nb  Nb137  1  0.60050897  0.40635591  0.00069443  1
  Nb  Nb138  1  0.60189101  0.60268646  0.79579354  1
  Nb  Nb139  1  0.20276432  -0.00523541  0.20026894  1
  Nb  Nb140  1  0.19459229  0.20742787  -0.00165978  1
  Nb  Nb141  1  0.39831050  -0.00600846  0.39963103  1
  Nb  Nb142  1  0.00010833  0.80441455  0.19771107  1
  Nb  Nb143  1  0.59508987  0.59735116  0.20260883  1
  Nb  Nb144  1  -0.00400839  0.20070161  0.59683137  1
  Nb  Nb145  1  0.40047395  0.40587146  0.39849003  1
  Nb  Nb146  1  0.60666745  0.59753157  0.39875861  1
  Nb  Nb147  1  0.80313162  0.79480843  0.39809012  1
  Nb  Nb148  1  0.80339782  0.59718179  0.40174836  1
  Nb  Nb149  1  0.61116648  0.20147832  0.60545837  1
  Pd  Pd150  1  0.81337894  0.59635878  0.59480459  1
  Pd  Pd151  1  0.59230004  0.40310582  0.19668123  1
  Pd  Pd152  1  0.61021447  0.80064964  0.59610497  1
  Pd  Pd153  1  0.40392201  0.61493603  0.20467372  1
  Pd  Pd154  1  0.40834697  0.20294929  0.61520181  1
  Pd  Pd155  1  -0.00776235  0.59505088  0.59993442  1
  Pd  Pd156  1  0.59093617  0.00042756  0.80603208  1
  Pd  Pd157  1  0.00143229  0.00291882  0.60072934  1
  Pd  Pd158  1  0.18984604  0.80263930  0.40450698  1
  Pd  Pd159  1  0.40766313  0.19966028  0.79499927  1
  Pd  Pd160  1  0.19490124  0.20620533  0.79979370  1
  Pd  Pd161  1  0.60919616  0.79021586  0.80828315  1
  Pd  Pd162  1  0.39126784  0.80237332  0.79083219  1
  Pd  Pd163  1  0.80869985  0.39889528  0.60794603  1
  Pd  Pd164  1  0.79908902  0.80028126  -0.00465364  1
  Pd  Pd165  1  0.81001328  0.20024851  0.20277743  1
  Pd  Pd166  1  0.60582977  0.20067119  0.41004087  1
  Pd  Pd167  1  0.59223453  0.19699262  0.79647618  1
  Pd  Pd168  1  0.20193043  0.59260701  0.00160752  1
  Pd  Pd169  1  -0.00644053  0.20157820  0.39565585  1
  Pd  Pd170  1  0.60094169  0.19365436  0.19224251  1
  Pd  Pd171  1  0.39881391  -0.00353898  0.79973866  1
  Pd  Pd172  1  0.80046983  0.20399897  0.79673146  1
  Pd  Pd173  1  0.79681765  -0.00204073  0.20108219  1
  Pd  Pd174  1  0.39422453  0.79811284  0.60869845  1
  Pd  Pd175  1  0.00758494  0.80168411  0.80119380  1
  Pd  Pd176  1  0.79299807  0.20669490  -0.00092965  1
  Pd  Pd177  1  0.60848862  0.00262201  0.59333697  1
  Pd  Pd178  1  0.39376410  0.20428099  0.39582779  1
  Pd  Pd179  1  -0.00360713  0.59853212  0.00198036  1
  Pd  Pd180  1  0.19074961  0.20174574  0.60963315  1
  Pd  Pd181  1  0.39651264  0.40001041  0.59540033  1
  Pd  Pd182  1  0.79886265  0.60499399  0.20053832  1
  Pd  Pd183  1  0.39616777  0.39541609  -0.00474329  1
  Pd  Pd184  1  0.60878463  0.20947621  0.00224078  1
  Pd  Pd185  1  0.00615822  0.19437863  0.00211943  1
  Pd  Pd186  1  0.59986864  0.00817326  0.20522899  1
  Pd  Pd187  1  0.80966959  -0.00463467  -0.00157911  1
  Pd  Pd188  1  0.20062416  0.60444611  0.80001552  1
  Pd  Pd189  1  0.00118559  0.80140920  0.40045155  1
  Pd  Pd190  1  0.18756365  0.59230661  0.40136018  1
  Pd  Pd191  1  -0.00541648  0.60214926  0.80003484  1
  Pd  Pd192  1  0.19270439  0.80247863  0.79833022  1
  Pd  Pd193  1  0.80082599  0.00211655  0.60569966  1
  Pd  Pd194  1  0.20613644  0.20252734  0.40836705  1
  Pd  Pd195  1  0.38913792  0.20963960  0.00395808  1
  Pd  Pd196  1  0.40800561  0.38933094  0.20628955  1
  Pd  Pd197  1  0.80813084  -0.00998435  0.80201789  1
  Pd  Pd198  1  0.20598717  0.40320273  0.59500799  1
  Pd  Pd199  1  0.01488610  0.40186448  0.39228070  1
  Rh  Rh200  1  0.00645947  0.20213086  0.78949195  1
  Rh  Rh201  1  0.59812178  0.41366759  0.81173690  1
  Rh  Rh202  1  -0.00130084  -0.01307706  0.80738368  1
  Rh  Rh203  1  -0.00256200  0.39231292  0.20507997  1
  Rh  Rh204  1  0.40386699  -0.00510436  -0.00101749  1
  Rh  Rh205  1  0.19273992  0.79680354  0.60600482  1
  Rh  Rh206  1  0.79857052  0.79991962  0.80176825  1
  Rh  Rh207  1  0.60451308  0.60629644  0.60318807  1
  Rh  Rh208  1  0.00551858  0.80290840  0.59986306  1
  Rh  Rh209  1  0.60160415  0.60059189  -0.00508390  1
  Rh  Rh210  1  0.19960327  -0.00710959  0.80314812  1
  Rh  Rh211  1  0.80142364  0.80089126  0.59316925  1
  Rh  Rh212  1  0.39567705  -0.00203071  0.59912849  1
  Rh  Rh213  1  0.00049835  0.80494560  0.00683455  1
  Rh  Rh214  1  0.80751661  0.19968655  0.40061262  1
  Rh  Rh215  1  -0.00159121  0.59868170  0.40964426  1
  Rh  Rh216  1  0.20394807  0.40274821  0.80412004  1
  Rh  Rh217  1  0.19698766  0.00445551  0.59687702  1
  Rh  Rh218  1  0.40352596  0.60346278  0.79542252  1
  Rh  Rh219  1  0.81139804  0.79980336  0.20442330  1
  Rh  Rh220  1  0.00739707  0.40928920  0.00135509  1
  Rh  Rh221  1  0.19881137  0.79266122  0.00458826  1
  Rh  Rh222  1  0.59492754  -0.00443334  -0.00682617  1
  Rh  Rh223  1  0.60980609  0.80285326  0.40937282  1
  Rh  Rh224  1  0.60091922  0.39030216  0.59003454  1
  Rh  Rh225  1  0.19664033  0.60212825  0.60133685  1
  Rh  Rh226  1  0.80858270  0.39421611  0.19871985  1
  Rh  Rh227  1  0.38536638  0.59816851  -0.00266722  1
  Rh  Rh228  1  0.40635655  0.60450821  0.39836478  1
  Rh  Rh229  1  -0.00409814  0.40640283  0.79476937  1
  Rh  Rh230  1  0.19491075  0.80107974  0.19556113  1
  Rh  Rh231  1  0.39483266  0.61027441  0.60472972  1
  Rh  Rh232  1  0.58101749  0.78549410  0.18409646  1
  Rh  Rh233  1  -0.00458268  0.39928133  0.60382815  1
  Rh  Rh234  1  0.80533263  0.39683279  0.79429391  1
  Rh  Rh235  1  0.79161713  0.40852815  0.39897427  1
  Rh  Rh236  1  0.00851289  -0.00695237  0.40649144  1
  Rh  Rh237  1  0.19657148  0.41097049  0.19968369  1
  Rh  Rh238  1  0.80814158  0.60045627  -0.00191097  1
  Rh  Rh239  1  0.78510604  -0.01690345  0.38615228  1
  Rh  Rh240  1  -0.00173869  0.60914824  0.19183520  1
  Rh  Rh241  1  0.40053944  0.80265507  0.00806857  1
  Rh  Rh242  1  0.79228841  0.39354639  -0.00210049  1
  Rh  Rh243  1  0.19632809  0.59721848  0.19477250  1
  Rh  Rh244  1  0.39258376  0.79812194  0.39780818  1
  Rh  Rh245  1  0.19081036  0.00618976  0.00212275  1
  Rh  Rh246  1  0.80147090  0.60142081  0.79626305  1
  Rh  Rh247  1  0.40020790  0.40299010  0.79923703  1
  Rh  Rh248  1  0.20845067  0.18802869  0.18618621  1
  Rh  Rh249  1  0.00119229  -0.00341186  0.19275060  1
