# generated using pymatgen
data_ZrScNbPdRh
_symmetry_space_group_name_H-M   'P 1'
_cell_length_a   16.56341663
_cell_length_b   16.55982564
_cell_length_c   16.56082577
_cell_angle_alpha   89.99261555
_cell_angle_beta   89.98782305
_cell_angle_gamma   90.01966950
_symmetry_Int_Tables_number   1
_chemical_formula_structural   ZrScNbPdRh
_chemical_formula_sum   'Zr50 Sc50 Nb50 Pd50 Rh50'
_cell_volume   4542.42363446
_cell_formula_units_Z   50
loop_
 _symmetry_equiv_pos_site_id
 _symmetry_equiv_pos_as_xyz
  1  'x, y, z'
loop_
 _atom_site_type_symbol
 _atom_site_label
 _atom_site_symmetry_multiplicity
 _atom_site_fract_x
 _atom_site_fract_y
 _atom_site_fract_z
 _atom_site_occupancy
  Zr  Zr0  1  0.69825276  0.10664165  0.29919758  1
  Zr  Zr1  1  0.49907521  0.69913789  0.69014589  1
  Zr  Zr2  1  0.10355146  0.09674957  0.09254184  1
  Zr  Zr3  1  0.49669476  0.30845490  0.70231704  1
  Zr  Zr4  1  0.30515123  0.68137601  0.48679997  1
  Zr  Zr5  1  0.09730365  0.49744389  0.50730634  1
  Zr  Zr6  1  0.29618594  0.30580130  0.70250724  1
  Zr  Zr7  1  0.49166822  0.89800803  0.30353747  1
  Zr  Zr8  1  0.91029008  0.89433872  0.30405347  1
  Zr  Zr9  1  0.31065502  0.09890484  0.49840521  1
  Zr  Zr10  1  0.70240099  0.69588741  0.70155094  1
  Zr  Zr11  1  0.30464627  0.30519894  0.89855555  1
  Zr  Zr12  1  0.49943236  0.89095038  0.09448986  1
  Zr  Zr13  1  0.10247491  0.69511158  0.09389665  1
  Zr  Zr14  1  0.10341748  0.89740890  0.10269190  1
  Zr  Zr15  1  0.49337283  0.29680292  0.90358882  1
  Zr  Zr16  1  0.90563718  0.49773059  0.69792618  1
  Zr  Zr17  1  0.69884611  0.30307239  0.10080026  1
  Zr  Zr18  1  0.10595789  0.10708849  0.49948813  1
  Zr  Zr19  1  0.90750161  0.90463514  0.09693346  1
  Zr  Zr20  1  0.10926676  0.89640235  0.70420735  1
  Zr  Zr21  1  0.49131313  0.49590474  0.90208750  1
  Zr  Zr22  1  0.30215471  0.09716704  0.69251021  1
  Zr  Zr23  1  0.29222495  0.69999083  0.70309743  1
  Zr  Zr24  1  0.09749354  0.10285468  0.90010735  1
  Zr  Zr25  1  0.30134544  0.89772953  0.69829913  1
  Zr  Zr26  1  0.90754700  0.09337477  0.50369647  1
  Zr  Zr27  1  0.90286663  0.69486451  0.50035159  1
  Zr  Zr28  1  0.09293509  0.49201491  0.29083614  1
  Zr  Zr29  1  0.89883850  0.89545408  0.49326842  1
  Zr  Zr30  1  0.90044389  0.09831550  0.30045029  1
  Zr  Zr31  1  0.29284760  0.88940124  0.10229386  1
  Zr  Zr32  1  0.49841386  0.69590405  0.09749064  1
  Zr  Zr33  1  0.50052798  0.11055818  0.10034020  1
  Zr  Zr34  1  0.90480024  0.10651723  0.90665324  1
  Zr  Zr35  1  0.70330852  0.50050364  0.70092643  1
  Zr  Zr36  1  0.69663983  0.89286298  0.89787659  1
  Zr  Zr37  1  0.49385323  0.30768313  0.09695691  1
  Zr  Zr38  1  0.70341916  0.70151185  0.50203888  1
  Zr  Zr39  1  0.10494450  0.10066290  0.29743494  1
  Zr  Zr40  1  0.10428419  0.50114169  0.91038108  1
  Zr  Zr41  1  0.29520855  0.89416750  0.90409158  1
  Zr  Zr42  1  0.10027651  0.50187503  0.70339696  1
  Zr  Zr43  1  0.70339516  0.49976133  0.49231203  1
  Zr  Zr44  1  0.49646050  0.89621030  0.69886682  1
  Zr  Zr45  1  0.10019587  0.90296440  0.50339076  1
  Zr  Zr46  1  0.69554424  0.10317809  0.89064956  1
  Zr  Zr47  1  0.10112118  0.30066759  0.30035279  1
  Zr  Zr48  1  0.89738605  0.50098839  0.30466278  1
  Zr  Zr49  1  0.90190501  0.30357168  0.71094091  1
  Sc  Sc50  1  0.89937066  0.69015105  0.71013415  1
  Sc  Sc51  1  0.49265353  0.49930634  0.49860634  1
  Sc  Sc52  1  0.30465923  0.90851732  0.51000941  1
  Sc  Sc53  1  0.90149645  0.69848332  0.09225349  1
  Sc  Sc54  1  0.30178933  0.49890299  0.50016986  1
  Sc  Sc55  1  0.09716167  0.89819374  0.90448488  1
  Sc  Sc56  1  0.70846619  0.11170601  0.09779623  1
  Sc  Sc57  1  0.70337936  0.50434911  0.90042876  1
  Sc  Sc58  1  0.89974929  0.69699476  0.30912318  1
  Sc  Sc59  1  0.49618797  0.30242865  0.49785218  1
  Sc  Sc60  1  0.69286635  0.30807484  0.30533349  1
  Sc  Sc61  1  0.29485521  0.11686952  0.90362711  1
  Sc  Sc62  1  0.68420880  0.30172691  0.49987977  1
  Sc  Sc63  1  0.89518560  0.29592976  0.09017856  1
  Sc  Sc64  1  0.51480438  0.09693340  0.69527580  1
  Sc  Sc65  1  0.10262828  0.69930960  0.89236328  1
  Sc  Sc66  1  0.91091451  0.50087459  0.09490692  1
  Sc  Sc67  1  0.90883644  0.10606853  0.70859358  1
  Sc  Sc68  1  0.69959139  0.69171826  0.09145073  1
  Sc  Sc69  1  0.30416009  0.30352891  0.29645246  1
  Sc  Sc70  1  0.49985033  0.50468757  0.70318265  1
  Sc  Sc71  1  0.69521810  0.89692975  0.50096522  1
  Sc  Sc72  1  0.49755761  0.89549323  0.50560370  1
  Sc  Sc73  1  0.70637448  0.89641973  0.31265219  1
  Sc  Sc74  1  0.30514209  0.29691127  0.50494163  1
  Sc  Sc75  1  0.30653728  0.10799553  0.30067001  1
  Sc  Sc76  1  0.69310281  0.29583635  0.70690266  1
  Sc  Sc77  1  0.09334213  0.69701284  0.30315921  1
  Sc  Sc78  1  0.90560787  0.30588246  0.30086526  1
  Sc  Sc79  1  0.91620920  0.91207970  0.70492015  1
  Sc  Sc80  1  0.68254486  0.89815692  0.70262220  1
  Sc  Sc81  1  0.10206731  0.68986009  0.49744674  1
  Sc  Sc82  1  0.50299661  0.88878107  0.89858856  1
  Sc  Sc83  1  0.29813033  0.50271786  0.90022576  1
  Sc  Sc84  1  0.90067608  0.89971665  0.90414077  1
  Sc  Sc85  1  0.50116433  0.50143574  0.09547922  1
  Sc  Sc86  1  0.89940718  0.49352662  0.89526613  1
  Sc  Sc87  1  0.70906752  0.30075862  0.89851274  1
  Sc  Sc88  1  0.48916535  0.70371244  0.30457527  1
  Sc  Sc89  1  0.91361721  0.30365803  0.49812912  1
  Sc  Sc90  1  0.90242764  0.29684153  0.89817329  1
  Sc  Sc91  1  0.09374494  0.09816391  0.69687081  1
  Sc  Sc92  1  0.49512554  0.69490087  0.90523744  1
  Sc  Sc93  1  0.90150007  0.50434006  0.49885565  1
  Sc  Sc94  1  0.49601187  0.30018466  0.30172911  1
  Sc  Sc95  1  0.69349318  0.50835836  0.10176976  1
  Sc  Sc96  1  0.70086149  0.89927280  0.09157702  1
  Sc  Sc97  1  0.49924317  0.49353664  0.29833109  1
  Sc  Sc98  1  0.29684507  0.69421236  0.90635696  1
  Sc  Sc99  1  0.10080247  0.29870632  0.89741790  1
  Nb  Nb100  1  0.10658746  0.30488672  0.50153947  1
  Nb  Nb101  1  0.88284843  0.69762360  0.89840545  1
  Nb  Nb102  1  0.28926289  0.49618453  0.09837479  1
  Nb  Nb103  1  0.50207096  0.69460510  0.49941827  1
  Nb  Nb104  1  0.50053014  0.09913871  0.49661480  1
  Nb  Nb105  1  0.29670684  0.30410092  0.09739090  1
  Nb  Nb106  1  0.10511232  0.49386866  0.10131576  1
  Nb  Nb107  1  0.10516303  0.31684733  0.10901969  1
  Nb  Nb108  1  0.29818037  0.50109091  0.70014380  1
  Nb  Nb109  1  0.49623746  0.09729148  0.30218537  1
  Nb  Nb110  1  0.70015256  0.69336847  0.29358388  1
  Nb  Nb111  1  0.49526499  0.10015535  0.90353393  1
  Nb  Nb112  1  0.09894965  0.70065758  0.69996935  1
  Nb  Nb113  1  0.09833380  0.31094471  0.68967973  1
  Nb  Nb114  1  0.71595400  0.70168728  0.89538385  1
  Nb  Nb115  1  0.29932830  0.69866269  0.10354436  1
  Nb  Nb116  1  0.29662256  0.50706072  0.30840323  1
  Nb  Nb117  1  0.10546631  0.89611353  0.29704157  1
  Nb  Nb118  1  0.29838354  0.09723269  0.09539715  1
  Nb  Nb119  1  0.70080800  0.50853845  0.29797154  1
  Nb  Nb120  1  0.69853116  0.09813492  0.69631159  1
  Nb  Nb121  1  0.29976498  0.89197971  0.29429796  1
  Nb  Nb122  1  0.29674781  0.69935605  0.29615290  1
  Nb  Nb123  1  0.90463622  0.10320589  0.09840129  1
  Nb  Nb124  1  0.69087904  0.10231356  0.50858939  1
  Nb  Nb125  1  0.80753145  0.80553918  0.60531806  1
  Nb  Nb126  1  0.59990537  -0.00199145  0.20104274  1
  Nb  Nb127  1  0.20639847  0.00134247  0.80124576  1
  Nb  Nb128  1  0.79863748  0.80059611  0.20170122  1
  Nb  Nb129  1  0.00189782  0.79405179  0.60453794  1
  Nb  Nb130  1  0.59335394  0.00594053  -0.00007308  1
  Nb  Nb131  1  0.39962615  -0.00029202  0.19570507  1
  Nb  Nb132  1  0.79593908  0.00254039  0.60507478  1
  Nb  Nb133  1  0.79784974  0.19670290  0.41033314  1
  Nb  Nb134  1  0.39852867  0.00382153  0.00101827  1
  Nb  Nb135  1  0.59395096  0.00740790  0.39925952  1
  Nb  Nb136  1  0.38832020  0.59934218  0.19965804  1
  Nb  Nb137  1  0.79993847  0.39346296  0.60039247  1
  Nb  Nb138  1  0.19651344  0.40031493  0.40089604  1
  Nb  Nb139  1  0.20160209  0.59585938  0.19840901  1
  Nb  Nb140  1  0.40116289  0.00295009  0.80745030  1
  Nb  Nb141  1  0.80173155  -0.00280699  0.19942832  1
  Nb  Nb142  1  0.79679962  0.19861273  0.59818293  1
  Nb  Nb143  1  0.79746287  0.40717908  0.20212851  1
  Nb  Nb144  1  0.79451564  0.00419975  0.79618675  1
  Nb  Nb145  1  0.20492060  -0.00614702  0.39189912  1
  Nb  Nb146  1  0.60587395  0.79818050  0.20324387  1
  Nb  Nb147  1  0.20445968  0.80361927  0.39384555  1
  Nb  Nb148  1  0.60173684  0.60393053  0.39531916  1
  Nb  Nb149  1  0.00437299  0.20040060  0.19229399  1
  Pd  Pd150  1  -0.00396775  0.79014321  0.19923439  1
  Pd  Pd151  1  0.20194768  0.59856495  0.60209083  1
  Pd  Pd152  1  0.60590452  0.20255124  -0.00337923  1
  Pd  Pd153  1  0.39217095  0.78883187  0.59037454  1
  Pd  Pd154  1  0.19931902  0.78977539  0.58653098  1
  Pd  Pd155  1  0.60282231  0.60193140  -0.01145381  1
  Pd  Pd156  1  0.59931975  0.79730645  0.39734964  1
  Pd  Pd157  1  -0.00584644  0.79624487  0.80010439  1
  Pd  Pd158  1  0.80958740  0.60045116  0.19228873  1
  Pd  Pd159  1  0.19935702  0.20162568  0.60459896  1
  Pd  Pd160  1  0.39913349  0.79599096  0.80575549  1
  Pd  Pd161  1  0.59844732  0.59209375  0.59144992  1
  Pd  Pd162  1  0.21102562  0.20419415  0.40094932  1
  Pd  Pd163  1  -0.00006928  0.59914236  0.80890094  1
  Pd  Pd164  1  -0.00040576  0.60425361  0.19910899  1
  Pd  Pd165  1  -0.00003939  0.39365891  -0.00173148  1
  Pd  Pd166  1  0.59884436  0.60377921  0.80742824  1
  Pd  Pd167  1  0.79942366  0.79907088  0.00815206  1
  Pd  Pd168  1  0.59437954  0.78361278  0.80406688  1
  Pd  Pd169  1  0.60214303  0.40157374  0.80891600  1
  Pd  Pd170  1  0.60338453  0.40259990  0.20124707  1
  Pd  Pd171  1  0.41142563  0.19864334  0.60523477  1
  Pd  Pd172  1  0.78906629  0.00678361  0.40470853  1
  Pd  Pd173  1  0.19596500  0.21143597  0.00518313  1
  Pd  Pd174  1  0.59225707  0.20314032  0.79943432  1
  Pd  Pd175  1  0.40622926  0.19287181  0.79018411  1
  Pd  Pd176  1  -0.00304685  0.20183521  0.39559981  1
  Pd  Pd177  1  0.39564818  0.60055233  0.79671924  1
  Pd  Pd178  1  0.39651450  0.20028510  0.19644227  1
  Pd  Pd179  1  0.60508178  0.40090604  -0.00657138  1
  Pd  Pd180  1  -0.00246759  0.20689463  0.60373097  1
  Pd  Pd181  1  -0.00124858  0.00495051  0.19858586  1
  Pd  Pd182  1  0.59650796  0.19911416  0.39948048  1
  Pd  Pd183  1  0.19331530  0.19797569  0.78861682  1
  Pd  Pd184  1  -0.00524254  0.60402329  -0.01198482  1
  Pd  Pd185  1  0.39052818  0.80265003  0.41188350  1
  Pd  Pd186  1  0.21039094  0.00369646  0.20484752  1
  Pd  Pd187  1  0.80829186  0.81526635  0.78793595  1
  Pd  Pd188  1  0.01189638  -0.00046434  0.39708965  1
  Pd  Pd189  1  0.59603817  0.20533505  0.20317536  1
  Pd  Pd190  1  0.39692630  0.40686536  0.60169249  1
  Pd  Pd191  1  0.60124813  0.40481143  0.60018527  1
  Pd  Pd192  1  0.19685325  0.40370690  0.80358508  1
  Pd  Pd193  1  0.20022317  0.20323433  0.19308623  1
  Pd  Pd194  1  0.79947314  0.38924895  0.40267855  1
  Pd  Pd195  1  0.79262808  0.00709139  -0.00138012  1
  Pd  Pd196  1  0.39430167  0.40893250  0.19853087  1
  Pd  Pd197  1  0.00084358  0.79204058  -0.00855495  1
  Pd  Pd198  1  0.80892527  0.20834363  0.20753684  1
  Pd  Pd199  1  0.79936432  0.40764916  0.00753639  1
  Rh  Rh200  1  0.18952584  0.78661507  0.20498968  1
  Rh  Rh201  1  0.19510855  0.00746388  0.60012429  1
  Rh  Rh202  1  0.39275890  0.20217854  0.00714376  1
  Rh  Rh203  1  0.19582211  0.79244763  -0.00116230  1
  Rh  Rh204  1  0.80379633  0.59342605  -0.00035015  1
  Rh  Rh205  1  0.79521621  0.60525982  0.40025947  1
  Rh  Rh206  1  0.79882825  0.19936710  -0.00485198  1
  Rh  Rh207  1  0.39397821  0.79799989  -0.00159509  1
  Rh  Rh208  1  0.41134872  0.59408370  0.39183177  1
  Rh  Rh209  1  0.01292844  0.79675763  0.40855850  1
  Rh  Rh210  1  0.39133883  0.39826758  0.39998071  1
  Rh  Rh211  1  0.79647829  0.40054197  0.79504268  1
  Rh  Rh212  1  0.00277887  0.59192562  0.39944608  1
  Rh  Rh213  1  0.20197810  0.39514302  -0.00534045  1
  Rh  Rh214  1  0.20185789  0.60096664  0.00330625  1
  Rh  Rh215  1  0.80140944  0.59076466  0.80130873  1
  Rh  Rh216  1  0.39793744  -0.00118331  0.39569738  1
  Rh  Rh217  1  0.00306584  -0.00095909  -0.00232810  1
  Rh  Rh218  1  0.80183734  0.19378445  0.79614729  1
  Rh  Rh219  1  0.80385806  0.59723490  0.60260115  1
  Rh  Rh220  1  0.20378026  0.00053838  -0.00866791  1
  Rh  Rh221  1  0.60799459  0.79220964  -0.00091242  1
  Rh  Rh222  1  0.59478283  0.41138158  0.39839065  1
  Rh  Rh223  1  0.20710885  0.40165811  0.59517626  1
  Rh  Rh224  1  0.59592385  -0.00054728  0.80938993  1
  Rh  Rh225  1  0.39662596  0.59933269  0.60495285  1
  Rh  Rh226  1  0.59689813  0.20744394  0.60265287  1
  Rh  Rh227  1  0.79869770  0.79201906  0.39970730  1
  Rh  Rh228  1  0.21077165  0.40454374  0.20969635  1
  Rh  Rh229  1  0.00934666  0.20760688  0.79485209  1
  Rh  Rh230  1  0.58381304  0.60822638  0.20955571  1
  Rh  Rh231  1  0.59864696  -0.00723136  0.59084151  1
  Rh  Rh232  1  0.39701631  0.40748168  0.79631765  1
  Rh  Rh233  1  0.40277299  0.20514994  0.40130838  1
  Rh  Rh234  1  0.18904731  0.59598667  0.39125619  1
  Rh  Rh235  1  0.41286173  0.00468392  0.60727841  1
  Rh  Rh236  1  0.40559089  0.79554122  0.19456494  1
  Rh  Rh237  1  0.00164684  -0.00477881  0.59886577  1
  Rh  Rh238  1  0.00463613  0.00152746  0.81132031  1
  Rh  Rh239  1  0.39364616  0.59396246  0.00858365  1
  Rh  Rh240  1  0.00898043  0.40046301  0.80451687  1
  Rh  Rh241  1  -0.00486796  0.39854016  0.59906035  1
  Rh  Rh242  1  0.00831650  0.40372691  0.40542244  1
  Rh  Rh243  1  -0.00015479  0.60623053  0.60476399  1
  Rh  Rh244  1  0.19926872  0.59780271  0.79859994  1
  Rh  Rh245  1  -0.01532350  0.39157712  0.18855548  1
  Rh  Rh246  1  0.20055632  0.80001976  0.80409397  1
  Rh  Rh247  1  0.60328442  0.79762990  0.59947936  1
  Rh  Rh248  1  0.39241670  0.40540080  0.00394701  1
  Rh  Rh249  1  0.00941378  0.20965862  0.01048630  1
