# generated using pymatgen
data_ZrScNbPdRh
_symmetry_space_group_name_H-M   'P 1'
_cell_length_a   16.56094566
_cell_length_b   16.56301093
_cell_length_c   16.55759797
_cell_angle_alpha   90.02507546
_cell_angle_beta   90.04868357
_cell_angle_gamma   90.00514369
_symmetry_Int_Tables_number   1
_chemical_formula_structural   ZrScNbPdRh
_chemical_formula_sum   'Zr50 Sc50 Nb50 Pd50 Rh50'
_cell_volume   4541.73252494
_cell_formula_units_Z   50
loop_
 _symmetry_equiv_pos_site_id
 _symmetry_equiv_pos_as_xyz
  1  'x, y, z'
loop_
 _atom_site_type_symbol
 _atom_site_label
 _atom_site_symmetry_multiplicity
 _atom_site_fract_x
 _atom_site_fract_y
 _atom_site_fract_z
 _atom_site_occupancy
  Zr  Zr0  1  0.29990686  0.70501996  0.10705869  1
  Zr  Zr1  1  0.89844461  0.50007387  0.50536873  1
  Zr  Zr2  1  0.09242922  0.90076166  0.89470650  1
  Zr  Zr3  1  0.89665085  0.89871406  0.90348280  1
  Zr  Zr4  1  0.30195393  0.70853263  0.69522047  1
  Zr  Zr5  1  0.49608312  0.70903160  0.09598314  1
  Zr  Zr6  1  0.91282117  0.90009046  0.50032343  1
  Zr  Zr7  1  0.90878465  0.69897696  0.30702739  1
  Zr  Zr8  1  0.69544816  0.50320137  0.89301824  1
  Zr  Zr9  1  0.08865376  0.09900281  0.90181102  1
  Zr  Zr10  1  0.30177860  0.10664795  0.89235533  1
  Zr  Zr11  1  0.50222264  0.49016674  0.89708153  1
  Zr  Zr12  1  0.29583046  0.50095419  0.29846170  1
  Zr  Zr13  1  0.89780429  0.10096040  0.29008418  1
  Zr  Zr14  1  0.09921523  0.70072535  0.70074418  1
  Zr  Zr15  1  0.69826749  0.70091147  0.30200531  1
  Zr  Zr16  1  0.30924503  0.09814493  0.29526651  1
  Zr  Zr17  1  0.49421476  0.71160346  0.30292263  1
  Zr  Zr18  1  0.49486054  0.10133857  0.30181783  1
  Zr  Zr19  1  0.30600417  0.89399196  0.30486750  1
  Zr  Zr20  1  0.89391623  0.11005872  0.70707386  1
  Zr  Zr21  1  0.50197491  0.90950039  0.30163123  1
  Zr  Zr22  1  0.29783428  0.90465708  0.89238975  1
  Zr  Zr23  1  0.10637097  0.10553894  0.30313322  1
  Zr  Zr24  1  0.49251225  0.49655946  0.50858694  1
  Zr  Zr25  1  0.90077535  0.10489864  0.50019503  1
  Zr  Zr26  1  0.09745108  0.10059257  0.09175152  1
  Zr  Zr27  1  0.50812443  0.70147356  0.89257735  1
  Zr  Zr28  1  0.30364329  0.10014798  0.09523159  1
  Zr  Zr29  1  0.49902401  0.90298742  0.10160818  1
  Zr  Zr30  1  0.69433742  0.89939175  0.29686735  1
  Zr  Zr31  1  0.09573220  0.29425543  0.49251373  1
  Zr  Zr32  1  0.50120181  0.48805654  0.09921427  1
  Zr  Zr33  1  0.90410504  0.90014261  0.29584349  1
  Zr  Zr34  1  0.49821926  0.29917989  0.29844696  1
  Zr  Zr35  1  0.10051465  0.09068891  0.50303263  1
  Zr  Zr36  1  0.90711102  0.50571279  0.90239183  1
  Zr  Zr37  1  0.69713402  0.49706268  0.30533617  1
  Zr  Zr38  1  0.11187439  0.90081451  0.69650716  1
  Zr  Zr39  1  0.69953890  0.09458428  0.90051526  1
  Zr  Zr40  1  0.49507679  0.30373990  0.70706767  1
  Zr  Zr41  1  0.90074214  0.29823190  0.51158883  1
  Zr  Zr42  1  0.30273823  0.49197969  0.69170196  1
  Zr  Zr43  1  0.09088434  0.49797566  0.29606535  1
  Zr  Zr44  1  0.29560560  0.29149506  0.29776437  1
  Zr  Zr45  1  0.29784188  0.69840566  0.29637738  1
  Zr  Zr46  1  0.09471118  0.69784596  0.50278013  1
  Zr  Zr47  1  0.70031883  0.29918725  0.30041289  1
  Zr  Zr48  1  0.50696032  0.09627140  0.70336735  1
  Zr  Zr49  1  0.91383016  0.70379731  0.89982739  1
  Sc  Sc50  1  0.50557375  0.49959906  0.70023210  1
  Sc  Sc51  1  0.69282029  0.69267011  0.50090913  1
  Sc  Sc52  1  0.89595856  0.28674127  0.89375758  1
  Sc  Sc53  1  0.69916690  0.90227633  0.09785405  1
  Sc  Sc54  1  0.49518908  0.09793816  0.09645676  1
  Sc  Sc55  1  0.90597832  0.69132614  0.50289355  1
  Sc  Sc56  1  0.29976743  0.08844030  0.49160530  1
  Sc  Sc57  1  0.69048937  0.90538392  0.50912815  1
  Sc  Sc58  1  0.69907208  0.49059475  0.69893679  1
  Sc  Sc59  1  0.70268477  0.71499233  0.10080871  1
  Sc  Sc60  1  0.10493893  0.48943379  0.50070840  1
  Sc  Sc61  1  0.10787865  0.30122397  0.90335078  1
  Sc  Sc62  1  0.30400249  0.71398502  0.89961207  1
  Sc  Sc63  1  0.89857917  0.90725504  0.70639145  1
  Sc  Sc64  1  0.70140641  0.10449219  0.30227025  1
  Sc  Sc65  1  0.90073157  0.29424424  0.31297207  1
  Sc  Sc66  1  0.50405959  0.09511704  0.49453115  1
  Sc  Sc67  1  0.69431790  0.49273236  0.10167041  1
  Sc  Sc68  1  0.90567418  0.71212220  0.09621516  1
  Sc  Sc69  1  0.29664603  0.48640821  0.89433298  1
  Sc  Sc70  1  0.70495273  0.71079691  0.89616138  1
  Sc  Sc71  1  0.50373671  0.10337067  0.90078095  1
  Sc  Sc72  1  0.69516461  0.49578078  0.49795547  1
  Sc  Sc73  1  0.68798255  0.70263016  0.70481780  1
  Sc  Sc74  1  0.71074138  0.10586901  0.09728724  1
  Sc  Sc75  1  0.09504132  0.89693219  0.30387437  1
  Sc  Sc76  1  0.69477584  0.10081605  0.50536044  1
  Sc  Sc77  1  0.49941226  0.89762155  0.49864860  1
  Sc  Sc78  1  0.29669914  0.50302364  0.50714995  1
  Sc  Sc79  1  0.69732152  0.90437493  0.70431825  1
  Sc  Sc80  1  0.09962521  0.30215139  0.69379264  1
  Sc  Sc81  1  0.70073442  0.29883511  0.09724279  1
  Sc  Sc82  1  0.09643248  0.49836733  0.90585282  1
  Sc  Sc83  1  0.90036434  0.29334418  0.09677699  1
  Sc  Sc84  1  0.49839681  0.70090919  0.50984215  1
  Sc  Sc85  1  0.09946438  0.09108297  0.70767585  1
  Sc  Sc86  1  0.70243236  0.29756112  0.70020392  1
  Sc  Sc87  1  0.70314348  0.90357189  0.89727616  1
  Sc  Sc88  1  0.69252756  0.29839616  0.90154925  1
  Sc  Sc89  1  0.29312518  0.31186922  0.50567801  1
  Sc  Sc90  1  0.10318001  0.50393085  0.68885217  1
  Sc  Sc91  1  0.30854152  0.70100602  0.49836144  1
  Sc  Sc92  1  0.29637812  0.50389675  0.10854550  1
  Sc  Sc93  1  0.09742379  0.70190663  0.10598428  1
  Sc  Sc94  1  0.70078753  0.29714561  0.49189524  1
  Sc  Sc95  1  0.90474717  0.90522003  0.10398361  1
  Sc  Sc96  1  0.09795705  0.70145419  0.29865341  1
  Sc  Sc97  1  0.50074074  0.49449340  0.29596683  1
  Sc  Sc98  1  0.50512451  0.90169129  0.90225840  1
  Sc  Sc99  1  0.50528850  0.29492545  0.49842649  1
  Nb  Nb100  1  0.90755804  0.49977287  0.09790715  1
  Nb  Nb101  1  0.10212680  0.70177634  0.90082707  1
  Nb  Nb102  1  0.69630692  0.09043541  0.70159378  1
  Nb  Nb103  1  0.30180031  0.09772671  0.70566722  1
  Nb  Nb104  1  0.89882689  0.09840501  0.90680193  1
  Nb  Nb105  1  0.09903868  0.90618179  0.09918342  1
  Nb  Nb106  1  0.09234377  0.49401976  0.09573643  1
  Nb  Nb107  1  0.29546375  0.90000688  0.50621862  1
  Nb  Nb108  1  0.49058295  0.30319645  0.90872367  1
  Nb  Nb109  1  0.30057974  0.90024069  0.09630765  1
  Nb  Nb110  1  0.89944197  0.50535071  0.29750343  1
  Nb  Nb111  1  0.30109077  0.29383573  0.09213863  1
  Nb  Nb112  1  0.89699516  0.30894138  0.69593666  1
  Nb  Nb113  1  0.49965844  0.30263376  0.09526953  1
  Nb  Nb114  1  0.50235403  0.89154704  0.69367814  1
  Nb  Nb115  1  0.89668476  0.49537857  0.69417493  1
  Nb  Nb116  1  0.29974443  0.90431370  0.69997893  1
  Nb  Nb117  1  0.29994841  0.29426635  0.70934169  1
  Nb  Nb118  1  0.10237220  0.29997541  0.30261532  1
  Nb  Nb119  1  0.10434748  0.90234902  0.50336866  1
  Nb  Nb120  1  0.31076296  0.29854118  0.88962816  1
  Nb  Nb121  1  0.49786789  0.70456819  0.69890405  1
  Nb  Nb122  1  0.90449188  0.10556608  0.09700233  1
  Nb  Nb123  1  0.10053081  0.30066032  0.09842508  1
  Nb  Nb124  1  0.90187051  0.68768924  0.69544212  1
  Nb  Nb125  1  0.39797206  0.60165455  0.79982649  1
  Nb  Nb126  1  0.39647025  0.39925483  0.39816650  1
  Nb  Nb127  1  0.19890310  0.59940958  0.39689101  1
  Nb  Nb128  1  0.59971365  0.60122423  0.00278420  1
  Nb  Nb129  1  0.80291927  0.79656777  0.59927154  1
  Nb  Nb130  1  0.80219821  -0.00594536  0.40092960  1
  Nb  Nb131  1  0.39275735  0.19408771  0.60781376  1
  Nb  Nb132  1  0.80142516  0.80422448  0.40656731  1
  Nb  Nb133  1  0.60235159  0.60531968  0.19733150  1
  Nb  Nb134  1  -0.00870345  0.40068775  0.79159959  1
  Nb  Nb135  1  0.59316649  0.20499603  0.19799503  1
  Nb  Nb136  1  0.20075685  0.60573981  -0.00244045  1
  Nb  Nb137  1  0.80271251  0.59540080  0.19631574  1
  Nb  Nb138  1  0.20358308  0.60469159  0.80379161  1
  Nb  Nb139  1  0.80477130  0.40782861  0.00096172  1
  Nb  Nb140  1  0.20860601  0.19270774  0.60608839  1
  Nb  Nb141  1  0.19615729  0.80463342  0.00175622  1
  Nb  Nb142  1  0.39970561  0.60008048  -0.00564567  1
  Nb  Nb143  1  0.18958619  0.39050313  0.19531900  1
  Nb  Nb144  1  0.80877349  0.59929639  0.79730052  1
  Nb  Nb145  1  0.00854903  0.20458497  0.19919577  1
  Nb  Nb146  1  0.80016377  0.59886520  0.00218888  1
  Nb  Nb147  1  0.20269624  -0.00304919  0.19445826  1
  Nb  Nb148  1  0.39507346  -0.00259016  0.60784405  1
  Nb  Nb149  1  0.80980301  0.40692407  0.20013616  1
  Pd  Pd150  1  0.19978933  -0.00229764  -0.00422921  1
  Pd  Pd151  1  0.18917896  0.19904778  0.79775155  1
  Pd  Pd152  1  0.80080646  -0.00503912  0.59698963  1
  Pd  Pd153  1  0.60567241  0.01519893  0.19282655  1
  Pd  Pd154  1  0.20174785  0.79562064  0.59256110  1
  Pd  Pd155  1  0.19654948  0.79491863  0.40653219  1
  Pd  Pd156  1  0.58590445  0.59697471  0.39674761  1
  Pd  Pd157  1  0.78679735  0.60289221  0.60708669  1
  Pd  Pd158  1  0.20708662  0.40465182  0.00596791  1
  Pd  Pd159  1  -0.00356197  0.00404976  0.61113961  1
  Pd  Pd160  1  0.80285496  -0.00170520  0.00648737  1
  Pd  Pd161  1  0.19722482  0.19705985  0.19227349  1
  Pd  Pd162  1  0.20043704  -0.00644459  0.39069053  1
  Pd  Pd163  1  0.38659373  0.40498332  0.00335598  1
  Pd  Pd164  1  -0.00724499  0.40205038  0.40322379  1
  Pd  Pd165  1  0.38849649  0.39232673  0.20099341  1
  Pd  Pd166  1  0.80411910  0.79222887  0.78924757  1
  Pd  Pd167  1  -0.00428308  0.38805525  0.20208451  1
  Pd  Pd168  1  0.00676791  0.59054258  0.79352612  1
  Pd  Pd169  1  0.39173948  0.20740611  0.41662580  1
  Pd  Pd170  1  0.79415208  0.00126676  0.19926365  1
  Pd  Pd171  1  0.60161377  0.59738647  0.60632394  1
  Pd  Pd172  1  0.00553076  0.20939521  0.79568801  1
  Pd  Pd173  1  0.79079218  0.20005625  0.60116032  1
  Pd  Pd174  1  -0.00141070  0.00482223  0.39508251  1
  Pd  Pd175  1  0.59673984  0.20057018  0.60242133  1
  Pd  Pd176  1  0.59797415  0.19730314  0.00658930  1
  Pd  Pd177  1  0.60339656  0.80092504  0.40928985  1
  Pd  Pd178  1  0.20870202  0.19892527  0.41289234  1
  Pd  Pd179  1  0.80652098  0.79472523  0.20500609  1
  Pd  Pd180  1  -0.00225996  0.80348126  0.78942354  1
  Pd  Pd181  1  0.60021653  0.20408097  0.80215065  1
  Pd  Pd182  1  -0.00276020  0.60621730  0.19285750  1
  Pd  Pd183  1  0.40420315  -0.00002519  -0.00856294  1
  Pd  Pd184  1  -0.00522100  0.80216277  0.60885097  1
  Pd  Pd185  1  0.00928758  0.19404029  0.60930337  1
  Pd  Pd186  1  0.40569123  0.80214868  0.79992739  1
  Pd  Pd187  1  0.41047118  -0.00384681  0.79929286  1
  Pd  Pd188  1  0.20401803  0.20238326  -0.00780967  1
  Pd  Pd189  1  0.80424664  0.40280229  0.80800551  1
  Pd  Pd190  1  0.79068968  0.19757135  0.80182023  1
  Pd  Pd191  1  0.60370220  0.39065059  0.59726588  1
  Pd  Pd192  1  0.80154747  0.60542227  0.40006191  1
  Pd  Pd193  1  -0.00779797  0.38599624  -0.01120966  1
  Pd  Pd194  1  0.18807412  0.40634967  0.79423839  1
  Pd  Pd195  1  0.80689873  0.39969345  0.40013173  1
  Pd  Pd196  1  0.39904551  0.59413008  0.40183870  1
  Pd  Pd197  1  0.60668276  0.80287601  -0.00376544  1
  Pd  Pd198  1  0.19325441  0.80989542  0.19671236  1
  Pd  Pd199  1  0.41194670  0.59878065  0.19476645  1
  Rh  Rh200  1  0.40729502  0.20540767  0.18647850  1
  Rh  Rh201  1  0.40157482  0.40538039  0.79631472  1
  Rh  Rh202  1  0.20684304  0.00477228  0.60107600  1
  Rh  Rh203  1  0.20396978  0.40584816  0.39189509  1
  Rh  Rh204  1  0.00807678  0.59076049  0.40657430  1
  Rh  Rh205  1  0.00224310  0.80013174  0.40368165  1
  Rh  Rh206  1  0.58759357  0.40309524  0.40603727  1
  Rh  Rh207  1  0.00806914  0.80652510  0.00437667  1
  Rh  Rh208  1  0.39361425  -0.00538435  0.19720131  1
  Rh  Rh209  1  0.19678440  0.79800546  0.80387842  1
  Rh  Rh210  1  0.59464246  0.79959695  0.19929264  1
  Rh  Rh211  1  -0.00076860  0.19423899  0.39632145  1
  Rh  Rh212  1  0.00267077  0.40099124  0.60140582  1
  Rh  Rh213  1  0.60528288  0.79885534  0.60178791  1
  Rh  Rh214  1  -0.00816090  0.00161261  0.80051709  1
  Rh  Rh215  1  0.60288241  0.00281769  0.00178584  1
  Rh  Rh216  1  0.60688719  0.00231343  0.39973690  1
  Rh  Rh217  1  0.18593308  0.58846573  0.19770966  1
  Rh  Rh218  1  0.80075539  0.00898549  0.80178116  1
  Rh  Rh219  1  0.00619941  0.60792432  0.00859461  1
  Rh  Rh220  1  0.01083205  0.01086445  0.19834754  1
  Rh  Rh221  1  -0.00938736  -0.00292528  -0.00032773  1
  Rh  Rh222  1  0.59906188  -0.00447901  0.80052493  1
  Rh  Rh223  1  0.80117299  0.20287618  -0.00469241  1
  Rh  Rh224  1  0.39967813  0.80826439  0.59661421  1
  Rh  Rh225  1  -0.00214951  0.20458857  0.00051703  1
  Rh  Rh226  1  0.60172893  0.19566061  0.39171485  1
  Rh  Rh227  1  0.59822187  0.80897586  0.79729496  1
  Rh  Rh228  1  0.19717958  0.00375428  0.80559001  1
  Rh  Rh229  1  0.40414401  0.80918947  0.20128757  1
  Rh  Rh230  1  0.80269207  0.20851370  0.19825869  1
  Rh  Rh231  1  0.80185688  0.80030676  -0.00038480  1
  Rh  Rh232  1  0.59059390  -0.00135722  0.60285404  1
  Rh  Rh233  1  0.40104825  0.60367210  0.61067809  1
  Rh  Rh234  1  0.00264632  0.80284032  0.19987458  1
  Rh  Rh235  1  0.41024717  0.19848998  0.80114460  1
  Rh  Rh236  1  0.39470430  0.80304159  -0.00114867  1
  Rh  Rh237  1  0.60729285  0.39991436  -0.00394652  1
  Rh  Rh238  1  0.19843542  0.39044376  0.60523424  1
  Rh  Rh239  1  0.79203314  0.39786904  0.59360735  1
  Rh  Rh240  1  0.59866409  0.60087132  0.79851566  1
  Rh  Rh241  1  0.39984446  -0.00911207  0.40900228  1
  Rh  Rh242  1  0.40078001  0.80325804  0.40682608  1
  Rh  Rh243  1  0.59828681  0.38972517  0.80086361  1
  Rh  Rh244  1  0.40100388  0.38883257  0.59729737  1
  Rh  Rh245  1  0.20252580  0.60657790  0.59606764  1
  Rh  Rh246  1  0.39928176  0.20206855  -0.00265227  1
  Rh  Rh247  1  0.79890293  0.19135472  0.40660652  1
  Rh  Rh248  1  0.60868731  0.39347259  0.20004064  1
  Rh  Rh249  1  0.00417301  0.59088384  0.59700504  1
