# generated using pymatgen
data_ZrScNbPdRh
_symmetry_space_group_name_H-M   'P 1'
_cell_length_a   16.55591215
_cell_length_b   16.55631956
_cell_length_c   16.55418904
_cell_angle_alpha   90.00005288
_cell_angle_beta   89.97257429
_cell_angle_gamma   89.99170972
_symmetry_Int_Tables_number   1
_chemical_formula_structural   ZrScNbPdRh
_chemical_formula_sum   'Zr50 Sc50 Nb50 Pd50 Rh50'
_cell_volume   4537.58495744
_cell_formula_units_Z   50
loop_
 _symmetry_equiv_pos_site_id
 _symmetry_equiv_pos_as_xyz
  1  'x, y, z'
loop_
 _atom_site_type_symbol
 _atom_site_label
 _atom_site_symmetry_multiplicity
 _atom_site_fract_x
 _atom_site_fract_y
 _atom_site_fract_z
 _atom_site_occupancy
  Zr  Zr0  1  0.89780507  0.49119366  0.70160564  1
  Zr  Zr1  1  0.09521050  0.70571929  0.89967713  1
  Zr  Zr2  1  0.90061787  0.89485886  0.29849872  1
  Zr  Zr3  1  0.50649783  0.10305879  0.90001146  1
  Zr  Zr4  1  0.89761325  0.90014828  0.49923959  1
  Zr  Zr5  1  0.70595719  0.90142662  0.49331565  1
  Zr  Zr6  1  0.50399978  0.09807653  0.29822829  1
  Zr  Zr7  1  0.29602183  0.49188966  0.69710123  1
  Zr  Zr8  1  0.50352085  0.09681702  0.69967065  1
  Zr  Zr9  1  0.69918566  0.49296440  0.10375416  1
  Zr  Zr10  1  0.50385283  0.30408556  0.69941166  1
  Zr  Zr11  1  0.69857022  0.90935140  0.89976606  1
  Zr  Zr12  1  0.09774667  0.90116441  0.90587879  1
  Zr  Zr13  1  0.70317618  0.89681917  0.09615831  1
  Zr  Zr14  1  0.29440461  0.70111332  0.29889138  1
  Zr  Zr15  1  0.70224114  0.09948803  0.48980066  1
  Zr  Zr16  1  0.31178124  0.68845475  0.70398000  1
  Zr  Zr17  1  0.89848328  0.28822827  0.70387822  1
  Zr  Zr18  1  0.90455074  0.29783998  0.90413572  1
  Zr  Zr19  1  0.30412428  0.31166045  0.50154422  1
  Zr  Zr20  1  0.90760404  0.49540047  0.89685663  1
  Zr  Zr21  1  0.29828809  0.29409386  0.29197031  1
  Zr  Zr22  1  0.89488527  0.69602772  0.30360085  1
  Zr  Zr23  1  0.10541357  0.50081084  0.70514126  1
  Zr  Zr24  1  0.70287033  0.29922115  0.69744950  1
  Zr  Zr25  1  0.30030667  0.90394091  0.89545560  1
  Zr  Zr26  1  0.08750984  0.49391123  0.30527562  1
  Zr  Zr27  1  0.29699749  0.69425012  0.10561039  1
  Zr  Zr28  1  0.89458727  0.29505371  0.10167554  1
  Zr  Zr29  1  0.50097914  0.70056919  0.28913238  1
  Zr  Zr30  1  0.69657963  0.49053069  0.70133530  1
  Zr  Zr31  1  0.30291389  0.10687893  0.10335820  1
  Zr  Zr32  1  0.49139833  0.69788069  0.89306046  1
  Zr  Zr33  1  0.89890771  0.70452100  0.49864635  1
  Zr  Zr34  1  0.90005443  0.10519095  0.30057532  1
  Zr  Zr35  1  0.30320311  0.50422055  0.50778402  1
  Zr  Zr36  1  0.10189125  0.70581023  0.09723919  1
  Zr  Zr37  1  0.10144786  0.49260755  0.90485547  1
  Zr  Zr38  1  0.09855734  0.70011107  0.29488161  1
  Zr  Zr39  1  0.09909104  0.29781736  0.30345503  1
  Zr  Zr40  1  0.30139410  0.70804214  0.90297238  1
  Zr  Zr41  1  0.50006857  0.29565395  0.89580920  1
  Zr  Zr42  1  0.69792049  0.49446119  0.49250586  1
  Zr  Zr43  1  0.50691866  0.49856605  0.10637175  1
  Zr  Zr44  1  0.90383835  0.10516121  0.88965929  1
  Zr  Zr45  1  0.90105077  0.50240495  0.49075972  1
  Zr  Zr46  1  0.90046789  0.09740108  0.50747989  1
  Zr  Zr47  1  0.69871554  0.10140310  0.09265752  1
  Zr  Zr48  1  0.29856402  0.91045718  0.08845017  1
  Zr  Zr49  1  0.29547377  0.50187183  0.89714312  1
  Sc  Sc50  1  0.89874272  0.89937405  0.90455300  1
  Sc  Sc51  1  0.08893027  0.90342292  0.09430006  1
  Sc  Sc52  1  0.90542406  0.30283736  0.29825900  1
  Sc  Sc53  1  0.49632993  0.90241463  0.11310279  1
  Sc  Sc54  1  0.51249016  0.49876253  0.89746793  1
  Sc  Sc55  1  0.29587939  0.29120722  0.89387558  1
  Sc  Sc56  1  0.49398295  0.09977396  0.09984658  1
  Sc  Sc57  1  0.30409683  0.09560743  0.51114388  1
  Sc  Sc58  1  0.69699478  0.69559624  0.11116357  1
  Sc  Sc59  1  0.69638127  0.69909115  0.89938566  1
  Sc  Sc60  1  0.50384771  0.29840427  0.10430367  1
  Sc  Sc61  1  0.09725942  0.09342156  0.09478549  1
  Sc  Sc62  1  0.09668951  0.89634825  0.28931314  1
  Sc  Sc63  1  0.10107699  0.29601079  0.90015598  1
  Sc  Sc64  1  0.50618955  0.91802171  0.50617405  1
  Sc  Sc65  1  0.51094335  0.50238664  0.30502851  1
  Sc  Sc66  1  0.70530268  0.69936813  0.69821555  1
  Sc  Sc67  1  0.30130299  0.10216746  0.90654152  1
  Sc  Sc68  1  0.89877438  0.48609529  0.10471461  1
  Sc  Sc69  1  0.09777745  0.70181313  0.50037191  1
  Sc  Sc70  1  0.69273055  0.90148723  0.29992002  1
  Sc  Sc71  1  0.29782794  0.89962314  0.28987416  1
  Sc  Sc72  1  0.89090957  0.71104455  0.10549669  1
  Sc  Sc73  1  0.09055769  0.09951619  0.70203965  1
  Sc  Sc74  1  0.89336776  0.49612230  0.30236598  1
  Sc  Sc75  1  0.48843756  0.68058440  0.49388756  1
  Sc  Sc76  1  0.29940383  0.09914928  0.70910089  1
  Sc  Sc77  1  0.10019991  0.10385864  0.29599220  1
  Sc  Sc78  1  0.70597732  0.10474443  0.70283280  1
  Sc  Sc79  1  0.51505478  0.10629045  0.50215037  1
  Sc  Sc80  1  0.09964222  0.70041145  0.69997852  1
  Sc  Sc81  1  0.29711855  0.10409211  0.29067551  1
  Sc  Sc82  1  0.90368499  0.90312421  0.69747683  1
  Sc  Sc83  1  0.50472591  0.30735257  0.30078999  1
  Sc  Sc84  1  0.90768783  0.10205893  0.09690103  1
  Sc  Sc85  1  0.09609918  0.30825302  0.09502705  1
  Sc  Sc86  1  0.29814839  0.49750233  0.28666370  1
  Sc  Sc87  1  0.89952141  0.29451015  0.49684245  1
  Sc  Sc88  1  0.10061099  0.89648755  0.51691548  1
  Sc  Sc89  1  0.49018314  0.90611341  0.90016712  1
  Sc  Sc90  1  0.29613648  0.69648853  0.50386985  1
  Sc  Sc91  1  0.69056369  0.29749839  0.50055820  1
  Sc  Sc92  1  0.70223634  0.90421826  0.70312820  1
  Sc  Sc93  1  0.70943453  0.69642158  0.49562633  1
  Sc  Sc94  1  0.09887723  0.10208457  0.90000338  1
  Sc  Sc95  1  0.09488814  0.10765054  0.50059714  1
  Sc  Sc96  1  0.70650869  0.30261235  0.30588617  1
  Sc  Sc97  1  0.90403477  0.70811062  0.89512740  1
  Sc  Sc98  1  0.49646824  0.49839210  0.70638522  1
  Sc  Sc99  1  0.10404926  0.30514132  0.48917640  1
  Nb  Nb100  1  0.50008746  0.48945960  0.49900094  1
  Nb  Nb101  1  0.11200607  0.30164078  0.70133935  1
  Nb  Nb102  1  0.49795972  0.90078668  0.70027467  1
  Nb  Nb103  1  0.30073806  0.30076499  0.70073045  1
  Nb  Nb104  1  0.69787108  0.29311854  0.90853156  1
  Nb  Nb105  1  0.30017303  0.90326123  0.50302883  1
  Nb  Nb106  1  0.30276609  0.90707697  0.68969561  1
  Nb  Nb107  1  0.30281280  0.30561818  0.10245259  1
  Nb  Nb108  1  0.50133829  0.69885739  0.09879564  1
  Nb  Nb109  1  0.50140269  0.30397871  0.49797311  1
  Nb  Nb110  1  0.29232684  0.49673900  0.09521222  1
  Nb  Nb111  1  0.70010372  0.50856751  0.29965567  1
  Nb  Nb112  1  0.09946526  0.50203836  0.50198864  1
  Nb  Nb113  1  0.90089750  0.10774845  0.69512052  1
  Nb  Nb114  1  0.70215336  0.10067183  0.30040106  1
  Nb  Nb115  1  0.70168298  0.49920202  0.90267574  1
  Nb  Nb116  1  0.49835055  0.90000840  0.30353263  1
  Nb  Nb117  1  0.69460686  0.09988724  0.89978024  1
  Nb  Nb118  1  0.11017120  0.90245425  0.70304142  1
  Nb  Nb119  1  0.90058030  0.69089921  0.70217277  1
  Nb  Nb120  1  0.89986513  0.90457410  0.10337380  1
  Nb  Nb121  1  0.69466802  0.69140509  0.30210830  1
  Nb  Nb122  1  0.70188616  0.29541769  0.10068766  1
  Nb  Nb123  1  0.49904131  0.70053621  0.69901662  1
  Nb  Nb124  1  0.10446927  0.50285491  0.09860442  1
  Nb  Nb125  1  0.40177479  0.20797104  0.60049728  1
  Nb  Nb126  1  0.59271642  0.79738590  -0.00059722  1
  Nb  Nb127  1  0.80181393  0.59366155  0.80389912  1
  Nb  Nb128  1  0.59727500  0.59816188  0.59790566  1
  Nb  Nb129  1  0.39677991  -0.00021585  0.39992139  1
  Nb  Nb130  1  -0.00395090  0.59492860  0.60164559  1
  Nb  Nb131  1  0.20526304  0.80888677  0.79270459  1
  Nb  Nb132  1  0.59249070  0.79446151  0.59851908  1
  Nb  Nb133  1  0.59111094  0.80176229  0.79705286  1
  Nb  Nb134  1  0.19530037  0.59550436  0.39873903  1
  Nb  Nb135  1  0.00158510  -0.00231555  0.40206075  1
  Nb  Nb136  1  0.40222625  0.20075183  0.40514427  1
  Nb  Nb137  1  0.39999956  0.59523537  0.00600312  1
  Nb  Nb138  1  0.39485913  0.40295958  0.00487712  1
  Nb  Nb139  1  0.80197910  0.59367073  -0.00346190  1
  Nb  Nb140  1  0.79951167  0.00364429  0.19911131  1
  Nb  Nb141  1  0.40418310  0.80611675  0.59802616  1
  Nb  Nb142  1  0.61064793  0.19878204  0.20045528  1
  Nb  Nb143  1  0.20061681  -0.00456577  0.40396237  1
  Nb  Nb144  1  0.00008131  0.59781858  0.19382842  1
  Nb  Nb145  1  0.00494733  0.40192005  0.60065535  1
  Nb  Nb146  1  -0.00278367  0.59794376  0.00574536  1
  Nb  Nb147  1  0.20604454  0.20847809  0.60373760  1
  Nb  Nb148  1  0.59081304  0.79690927  0.40301008  1
  Nb  Nb149  1  0.40195985  0.80864909  0.40389287  1
  Pd  Pd150  1  0.19697779  0.20305198  0.00496204  1
  Pd  Pd151  1  0.01096305  0.21294297  0.59867922  1
  Pd  Pd152  1  0.79338688  0.79099690  -0.00459086  1
  Pd  Pd153  1  0.79861801  0.59621742  0.60336474  1
  Pd  Pd154  1  -0.00317304  0.79534548  0.60927983  1
  Pd  Pd155  1  0.59528815  0.39245680  -0.00125312  1
  Pd  Pd156  1  0.39702935  0.40107115  0.38991436  1
  Pd  Pd157  1  0.19151896  0.39898211  0.19978161  1
  Pd  Pd158  1  0.19172958  0.01358269  0.59746914  1
  Pd  Pd159  1  0.61228762  -0.00059356  0.60530996  1
  Pd  Pd160  1  0.00568935  0.20125418  0.19424044  1
  Pd  Pd161  1  0.40407358  0.79829389  0.01022494  1
  Pd  Pd162  1  0.79459967  0.79570394  0.80035001  1
  Pd  Pd163  1  0.79960223  0.40034171  -0.00385903  1
  Pd  Pd164  1  0.79619810  0.39836910  0.20779294  1
  Pd  Pd165  1  0.60698003  0.20085939  0.79685376  1
  Pd  Pd166  1  0.79709905  0.00358693  0.60683195  1
  Pd  Pd167  1  0.39091821  0.59733133  0.39047735  1
  Pd  Pd168  1  0.60699392  0.60546604  0.79200122  1
  Pd  Pd169  1  0.80168900  0.20491255  0.40244095  1
  Pd  Pd170  1  0.19815361  0.60445076  -0.00470326  1
  Pd  Pd171  1  0.58925338  -0.00827320  0.00443517  1
  Pd  Pd172  1  0.39812587  0.40066357  0.80871176  1
  Pd  Pd173  1  0.18890246  0.20335222  0.18696039  1
  Pd  Pd174  1  0.40196769  0.20771252  0.00285084  1
  Pd  Pd175  1  0.00377531  0.80725869  0.79130126  1
  Pd  Pd176  1  0.20960179  0.79146655  0.60788438  1
  Pd  Pd177  1  0.39582909  0.80318871  0.19844105  1
  Pd  Pd178  1  0.40167198  0.59326368  0.19853623  1
  Pd  Pd179  1  0.79649110  0.80118189  0.60721958  1
  Pd  Pd180  1  0.80871781  0.00862819  0.00191404  1
  Pd  Pd181  1  0.21115716  0.18892915  0.40964939  1
  Pd  Pd182  1  0.19848054  0.00365572  0.80334480  1
  Pd  Pd183  1  0.19542723  -0.00098157  0.20141152  1
  Pd  Pd184  1  0.40488954  0.40085467  0.19878939  1
  Pd  Pd185  1  0.80678776  0.00491386  0.79660435  1
  Pd  Pd186  1  0.19730763  0.60981434  0.80344276  1
  Pd  Pd187  1  0.40067680  0.00662221  0.80110226  1
  Pd  Pd188  1  0.00745566  0.38936151  0.79509214  1
  Pd  Pd189  1  0.60582463  0.00342225  0.19724939  1
  Pd  Pd190  1  0.60183130  0.60568797  0.00245394  1
  Pd  Pd191  1  0.79371487  0.39360245  0.81134825  1
  Pd  Pd192  1  0.20126604  0.80309345  0.40400226  1
  Pd  Pd193  1  0.79076276  0.80446789  0.20816554  1
  Pd  Pd194  1  0.01083589  0.80748680  0.40287602  1
  Pd  Pd195  1  0.80610622  0.39160014  0.58991140  1
  Pd  Pd196  1  0.20780260  0.40920050  0.39600820  1
  Pd  Pd197  1  0.19998921  0.81146392  0.18851525  1
  Pd  Pd198  1  0.80315282  0.19205771  -0.00568335  1
  Pd  Pd199  1  -0.00373080  -0.00320347  0.79751780  1
  Rh  Rh200  1  0.79767107  0.39815504  0.39989230  1
  Rh  Rh201  1  0.59756351  0.20322264  0.00623653  1
  Rh  Rh202  1  0.61077439  0.39295661  0.20566936  1
  Rh  Rh203  1  0.39449368  0.00192335  0.20511450  1
  Rh  Rh204  1  -0.00028766  0.40089629  0.00417525  1
  Rh  Rh205  1  0.00564733  0.20276561  0.79792928  1
  Rh  Rh206  1  0.80459285  0.59520819  0.19531054  1
  Rh  Rh207  1  0.00335251  0.20071503  0.00052421  1
  Rh  Rh208  1  0.40827553  0.59241638  0.60358417  1
  Rh  Rh209  1  0.40772172  0.40085362  0.60463622  1
  Rh  Rh210  1  0.41116327  0.20544597  0.20675281  1
  Rh  Rh211  1  0.19157337  0.60365055  0.59454940  1
  Rh  Rh212  1  0.18861750  0.59107198  0.20807613  1
  Rh  Rh213  1  0.79452498  0.19875148  0.59399326  1
  Rh  Rh214  1  -0.00849598  0.00120702  0.20640451  1
  Rh  Rh215  1  -0.00144010  0.19550352  0.39997035  1
  Rh  Rh216  1  0.60676566  0.39229961  0.80712421  1
  Rh  Rh217  1  -0.00661482  0.00078902  -0.00621785  1
  Rh  Rh218  1  0.20724127  0.39079575  -0.00217530  1
  Rh  Rh219  1  0.40294480  0.00613638  0.00053755  1
  Rh  Rh220  1  0.59508411  0.20391312  0.39023807  1
  Rh  Rh221  1  0.20189552  0.39395650  0.80735988  1
  Rh  Rh222  1  0.40394181  0.00635420  0.59832248  1
  Rh  Rh223  1  0.79765030  0.59935298  0.39679669  1
  Rh  Rh224  1  0.60231561  0.59750520  0.19967631  1
  Rh  Rh225  1  -0.00956609  0.79791591  0.00675022  1
  Rh  Rh226  1  0.59730698  -0.00409194  0.39709623  1
  Rh  Rh227  1  0.40075512  0.58841094  0.80565640  1
  Rh  Rh228  1  0.19820066  0.00493605  -0.00247702  1
  Rh  Rh229  1  0.78719476  0.79795161  0.39156135  1
  Rh  Rh230  1  0.60204425  0.79868368  0.20094831  1
  Rh  Rh231  1  0.00357936  0.60500299  0.39972975  1
  Rh  Rh232  1  0.40172327  0.19570441  0.79368584  1
  Rh  Rh233  1  0.60171102  0.60334921  0.40790668  1
  Rh  Rh234  1  0.60030151  -0.00312374  0.79882963  1
  Rh  Rh235  1  0.79408277  0.19930982  0.80718979  1
  Rh  Rh236  1  0.79511662  0.19445914  0.19957230  1
  Rh  Rh237  1  -0.00253014  0.79397681  0.19425505  1
  Rh  Rh238  1  0.59934095  0.20225282  0.60237241  1
  Rh  Rh239  1  -0.00545250  0.39343172  0.40705253  1
  Rh  Rh240  1  0.19370597  0.39619651  0.59692301  1
  Rh  Rh241  1  0.59585037  0.40503138  0.59919614  1
  Rh  Rh242  1  0.00151435  0.40231710  0.19753501  1
  Rh  Rh243  1  0.39486073  0.80881718  0.78684136  1
  Rh  Rh244  1  0.80847466  -0.00162683  0.38919287  1
  Rh  Rh245  1  0.00247053  -0.00138227  0.60044089  1
  Rh  Rh246  1  0.60481403  0.40022201  0.39582390  1
  Rh  Rh247  1  0.19772458  0.19532414  0.79404764  1
  Rh  Rh248  1  0.20132653  0.80566948  -0.00252114  1
  Rh  Rh249  1  -0.00365176  0.60252754  0.80188161  1
