# generated using pymatgen
data_ZrScNbPdRh
_symmetry_space_group_name_H-M   'P 1'
_cell_length_a   16.54450180
_cell_length_b   16.54793640
_cell_length_c   16.54716477
_cell_angle_alpha   90.00923898
_cell_angle_beta   90.03896333
_cell_angle_gamma   89.99645596
_symmetry_Int_Tables_number   1
_chemical_formula_structural   ZrScNbPdRh
_chemical_formula_sum   'Zr50 Sc50 Nb50 Pd50 Rh50'
_cell_volume   4530.23803182
_cell_formula_units_Z   50
loop_
 _symmetry_equiv_pos_site_id
 _symmetry_equiv_pos_as_xyz
  1  'x, y, z'
loop_
 _atom_site_type_symbol
 _atom_site_label
 _atom_site_symmetry_multiplicity
 _atom_site_fract_x
 _atom_site_fract_y
 _atom_site_fract_z
 _atom_site_occupancy
  Zr  Zr0  1  0.09529012  0.89566099  0.10243692  1
  Zr  Zr1  1  0.70299199  0.69784195  0.69488383  1
  Zr  Zr2  1  0.90056307  0.30465046  0.29587452  1
  Zr  Zr3  1  0.89713241  0.50056958  0.10316949  1
  Zr  Zr4  1  0.10154235  0.50212252  0.30949880  1
  Zr  Zr5  1  0.70266793  0.50087342  0.70646593  1
  Zr  Zr6  1  0.30376645  0.70487476  0.89879140  1
  Zr  Zr7  1  0.29784503  0.89505772  0.09438042  1
  Zr  Zr8  1  0.10585936  0.30534920  0.29212059  1
  Zr  Zr9  1  0.69562899  0.50469403  0.51508189  1
  Zr  Zr10  1  0.89014867  0.09563616  0.89954789  1
  Zr  Zr11  1  0.10842702  0.50581792  0.69851260  1
  Zr  Zr12  1  0.49588132  0.69925278  0.29945752  1
  Zr  Zr13  1  0.89941532  0.09820611  0.09691583  1
  Zr  Zr14  1  0.50968883  0.90104804  0.10511425  1
  Zr  Zr15  1  0.50035597  0.09604970  0.51569115  1
  Zr  Zr16  1  0.08969356  0.90046064  0.70416947  1
  Zr  Zr17  1  0.50840128  0.49598506  0.69349756  1
  Zr  Zr18  1  0.30577278  0.29814186  0.70545034  1
  Zr  Zr19  1  0.49825043  0.50161055  0.90645531  1
  Zr  Zr20  1  0.30648602  0.09672433  0.70240920  1
  Zr  Zr21  1  0.10179454  0.09484756  0.69181235  1
  Zr  Zr22  1  0.69884658  0.50436280  0.89341612  1
  Zr  Zr23  1  0.90062940  0.09896935  0.29660926  1
  Zr  Zr24  1  0.69579766  0.50601204  0.09462995  1
  Zr  Zr25  1  0.49386583  0.70756764  0.69974338  1
  Zr  Zr26  1  0.69374408  0.29231078  0.89034444  1
  Zr  Zr27  1  0.91020194  0.10307570  0.70217866  1
  Zr  Zr28  1  0.70478026  0.90405094  0.90528601  1
  Zr  Zr29  1  0.69854590  0.28974695  0.30691218  1
  Zr  Zr30  1  0.30497365  0.49814724  0.49713884  1
  Zr  Zr31  1  0.69846369  0.69849910  0.49569853  1
  Zr  Zr32  1  0.91065005  0.50366567  0.50057855  1
  Zr  Zr33  1  0.29761162  0.30094102  0.30398678  1
  Zr  Zr34  1  0.10169282  0.68270235  0.50065173  1
  Zr  Zr35  1  0.10292177  0.70502891  0.10549250  1
  Zr  Zr36  1  0.29612118  0.69904138  0.70226060  1
  Zr  Zr37  1  0.90142563  0.29983243  0.10007934  1
  Zr  Zr38  1  0.29940716  0.10153831  0.09495617  1
  Zr  Zr39  1  0.49535677  0.30338922  0.90030636  1
  Zr  Zr40  1  0.30317309  0.90828695  0.89825527  1
  Zr  Zr41  1  0.30703931  0.89987213  0.30692892  1
  Zr  Zr42  1  0.90229022  0.90307449  0.69892642  1
  Zr  Zr43  1  0.88914304  0.50039879  0.70027788  1
  Zr  Zr44  1  0.30660215  0.50240280  0.09732888  1
  Zr  Zr45  1  0.69538188  0.89683398  0.10342131  1
  Zr  Zr46  1  0.29516826  0.10070190  0.30358087  1
  Zr  Zr47  1  0.10254777  0.50269147  0.10056313  1
  Zr  Zr48  1  0.29436878  0.08941957  0.49693177  1
  Zr  Zr49  1  0.70879564  0.70036783  0.09470065  1
  Sc  Sc50  1  0.50056919  0.69700763  0.10058396  1
  Sc  Sc51  1  0.09577613  0.90138770  0.29057236  1
  Sc  Sc52  1  0.49566625  0.50368036  0.29721617  1
  Sc  Sc53  1  0.70323211  0.89858201  0.50439793  1
  Sc  Sc54  1  0.91537540  0.11085021  0.50144963  1
  Sc  Sc55  1  0.69581172  0.70021523  0.29627782  1
  Sc  Sc56  1  0.49732631  0.89688177  0.90193561  1
  Sc  Sc57  1  0.10416946  0.70188087  0.69733758  1
  Sc  Sc58  1  0.49583558  0.29902016  0.50521858  1
  Sc  Sc59  1  0.30137118  0.69191286  0.29327742  1
  Sc  Sc60  1  0.89770940  0.89581494  0.10136903  1
  Sc  Sc61  1  0.29961894  0.89523445  0.70458494  1
  Sc  Sc62  1  0.10049727  0.11048626  0.89444250  1
  Sc  Sc63  1  0.90033555  0.70794813  0.70014306  1
  Sc  Sc64  1  0.70342862  0.70329215  0.89682917  1
  Sc  Sc65  1  0.49030209  0.90894512  0.69654177  1
  Sc  Sc66  1  0.70452941  0.30900378  0.69799801  1
  Sc  Sc67  1  0.90113271  0.90230683  0.29354086  1
  Sc  Sc68  1  0.49891615  0.30347085  0.30088014  1
  Sc  Sc69  1  0.11316230  0.29289835  0.70641966  1
  Sc  Sc70  1  0.90059490  0.89822250  0.89085241  1
  Sc  Sc71  1  0.90027421  0.28130583  0.89345960  1
  Sc  Sc72  1  0.49904104  0.29554132  0.70299618  1
  Sc  Sc73  1  0.49737928  0.68360411  0.49576299  1
  Sc  Sc74  1  0.10520314  0.29842245  0.09983095  1
  Sc  Sc75  1  0.29918399  0.49810943  0.29894596  1
  Sc  Sc76  1  0.69003484  0.10902181  0.69286103  1
  Sc  Sc77  1  0.50139219  0.70095422  0.89718150  1
  Sc  Sc78  1  0.09677054  0.70023278  0.90795609  1
  Sc  Sc79  1  0.89986261  0.89345459  0.50278645  1
  Sc  Sc80  1  0.49277884  0.29944158  0.10103663  1
  Sc  Sc81  1  0.50172007  0.09823616  0.30788251  1
  Sc  Sc82  1  0.10005818  0.10003312  0.31225782  1
  Sc  Sc83  1  0.10297643  0.29235428  0.49495154  1
  Sc  Sc84  1  0.10246916  0.90912742  0.50581710  1
  Sc  Sc85  1  0.30309751  0.50546059  0.89320241  1
  Sc  Sc86  1  0.69066856  0.49717303  0.28865585  1
  Sc  Sc87  1  0.50204111  0.10901513  0.90980141  1
  Sc  Sc88  1  0.69989428  0.89983680  0.70000975  1
  Sc  Sc89  1  0.29697928  0.29851086  0.10902253  1
  Sc  Sc90  1  0.69668423  0.08463559  0.09014243  1
  Sc  Sc91  1  0.89271859  0.70391605  0.29858496  1
  Sc  Sc92  1  0.89764624  0.70796696  0.90521009  1
  Sc  Sc93  1  0.69714117  0.30345562  0.11069501  1
  Sc  Sc94  1  0.89561627  0.70044690  0.50696482  1
  Sc  Sc95  1  0.88949614  0.50677155  0.89757854  1
  Sc  Sc96  1  0.29800251  0.49757718  0.69905819  1
  Sc  Sc97  1  0.30443289  0.30342089  0.50703120  1
  Sc  Sc98  1  0.30252586  0.69575206  0.50259838  1
  Sc  Sc99  1  0.09503939  0.89874065  0.89683488  1
  Nb  Nb100  1  0.10033260  0.50435116  0.50451961  1
  Nb  Nb101  1  0.29621331  0.29988114  0.89714781  1
  Nb  Nb102  1  0.10268910  0.09959949  0.10271763  1
  Nb  Nb103  1  0.69796840  0.10138964  0.30739379  1
  Nb  Nb104  1  0.10571608  0.09633319  0.49876879  1
  Nb  Nb105  1  0.10043039  0.49909721  0.89524326  1
  Nb  Nb106  1  0.70572443  0.29472621  0.49667794  1
  Nb  Nb107  1  0.89550213  0.30554789  0.50837910  1
  Nb  Nb108  1  0.90487453  0.70031588  0.09840939  1
  Nb  Nb109  1  0.30413421  0.90229556  0.49202403  1
  Nb  Nb110  1  0.29089486  0.69757081  0.10392795  1
  Nb  Nb111  1  0.49882954  0.09510974  0.69870051  1
  Nb  Nb112  1  0.69619677  0.09743376  0.89768100  1
  Nb  Nb113  1  0.10402501  0.30407881  0.89466985  1
  Nb  Nb114  1  0.30151335  0.10126789  0.89912369  1
  Nb  Nb115  1  0.69196520  0.90496389  0.29803887  1
  Nb  Nb116  1  0.49433622  0.90427845  0.49678294  1
  Nb  Nb117  1  0.69528360  0.10773504  0.49539993  1
  Nb  Nb118  1  0.50104057  0.49703302  0.49375851  1
  Nb  Nb119  1  0.10548432  0.70182362  0.29793661  1
  Nb  Nb120  1  0.90508693  0.49401487  0.30061672  1
  Nb  Nb121  1  0.50325275  0.49434425  0.09583225  1
  Nb  Nb122  1  0.90270021  0.30448536  0.69655762  1
  Nb  Nb123  1  0.50109345  0.89886894  0.30050962  1
  Nb  Nb124  1  0.50201161  0.09701696  0.10474774  1
  Nb  Nb125  1  0.79804510  0.39548961  -0.00398896  1
  Nb  Nb126  1  0.20516892  0.00064769  0.19657839  1
  Nb  Nb127  1  0.00046508  0.39967217  0.79946794  1
  Nb  Nb128  1  0.19727795  0.79835921  0.39930119  1
  Nb  Nb129  1  0.79819014  0.01113358  0.59225901  1
  Nb  Nb130  1  0.00930659  0.79388236  0.39757189  1
  Nb  Nb131  1  0.19976700  0.39948493  -0.00971654  1
  Nb  Nb132  1  0.60084614  0.40228777  -0.00018141  1
  Nb  Nb133  1  0.60283131  -0.00175766  0.40470560  1
  Nb  Nb134  1  0.40253245  -0.00064967  0.19972847  1
  Nb  Nb135  1  0.00077080  0.00531809  0.00249899  1
  Nb  Nb136  1  0.79903203  0.40164306  0.40461600  1
  Nb  Nb137  1  0.59229840  0.80245651  0.59191493  1
  Nb  Nb138  1  0.59966786  0.19017445  0.20242595  1
  Nb  Nb139  1  0.80108799  0.58691844  0.39669711  1
  Nb  Nb140  1  0.00118026  0.39962249  -0.01003650  1
  Nb  Nb141  1  0.00142975  0.19798563  0.19843417  1
  Nb  Nb142  1  0.60543606  0.39964469  0.40796163  1
  Nb  Nb143  1  0.79405950  0.00633780  0.40255049  1
  Nb  Nb144  1  0.59405179  0.80824626  0.40002278  1
  Nb  Nb145  1  0.59824359  0.00776642  0.80140831  1
  Nb  Nb146  1  0.00228026  0.39916779  0.60352885  1
  Nb  Nb147  1  0.39784049  0.19583728  0.40460855  1
  Nb  Nb148  1  -0.00125251  0.60199532  0.20406400  1
  Nb  Nb149  1  0.00227947  0.59423925  0.80122500  1
  Pd  Pd150  1  0.59520515  0.60431667  0.19726464  1
  Pd  Pd151  1  0.79471384  0.00064799  0.20241218  1
  Pd  Pd152  1  -0.00885754  0.61029804  0.39083956  1
  Pd  Pd153  1  0.00985452  0.20957410  0.60257515  1
  Pd  Pd154  1  0.40029759  0.40636745  0.79674011  1
  Pd  Pd155  1  -0.00105851  0.20898279  0.39519413  1
  Pd  Pd156  1  0.19531369  0.39653754  0.59706650  1
  Pd  Pd157  1  0.40842519  0.00154989  0.00139869  1
  Pd  Pd158  1  0.79572179  0.19756883  0.78734611  1
  Pd  Pd159  1  0.79911571  0.80262904  0.20202765  1
  Pd  Pd160  1  0.00076176  0.39096608  0.40867060  1
  Pd  Pd161  1  0.79901600  0.80472143  0.39540910  1
  Pd  Pd162  1  0.19754744  0.80159648  -0.00788166  1
  Pd  Pd163  1  0.80078865  0.19537621  0.60468161  1
  Pd  Pd164  1  0.80470575  0.59882088  0.20643252  1
  Pd  Pd165  1  0.79326195  0.19002728  0.19191890  1
  Pd  Pd166  1  0.00704861  0.79725067  0.59172170  1
  Pd  Pd167  1  0.78989751  0.00686098  0.78646297  1
  Pd  Pd168  1  0.19959823  0.80382489  0.59130132  1
  Pd  Pd169  1  0.79338454  0.40275511  0.20150550  1
  Pd  Pd170  1  0.20658400  -0.01020424  0.60584333  1
  Pd  Pd171  1  0.18944972  0.00055083  -0.00193804  1
  Pd  Pd172  1  0.39981515  0.60927432  0.00366000  1
  Pd  Pd173  1  0.59925492  0.38960211  0.59626401  1
  Pd  Pd174  1  0.20105348  0.20620828  -0.00306988  1
  Pd  Pd175  1  0.19525271  0.00352503  0.80209122  1
  Pd  Pd176  1  0.40514801  0.19301655  0.80367165  1
  Pd  Pd177  1  0.40021224  0.59355934  0.60421937  1
  Pd  Pd178  1  0.59984656  0.79410531  -0.00197674  1
  Pd  Pd179  1  0.39725078  0.79997846  0.19343803  1
  Pd  Pd180  1  -0.00526142  0.59692618  -0.00152812  1
  Pd  Pd181  1  0.20540324  0.19965391  0.59652241  1
  Pd  Pd182  1  0.59966347  0.21102501  0.60339091  1
  Pd  Pd183  1  0.59529319  0.60486541  0.79802324  1
  Pd  Pd184  1  0.81392010  0.19944779  0.40445511  1
  Pd  Pd185  1  0.20397622  0.59712114  -0.00639507  1
  Pd  Pd186  1  0.59691699  0.81129587  0.79247671  1
  Pd  Pd187  1  0.19371241  0.79791631  0.80654293  1
  Pd  Pd188  1  0.40062828  0.40349796  0.20182251  1
  Pd  Pd189  1  0.78607967  0.20309932  0.00628518  1
  Pd  Pd190  1  0.40392881  0.59636993  0.79392072  1
  Pd  Pd191  1  0.40706744  0.19349001  0.20823289  1
  Pd  Pd192  1  0.40340087  0.79423261  0.00533188  1
  Pd  Pd193  1  0.00731352  0.20051290  0.00226584  1
  Pd  Pd194  1  0.39445957  0.20485030  0.00230600  1
  Pd  Pd195  1  -0.00497634  -0.00955197  0.40514344  1
  Pd  Pd196  1  0.60449624  0.20612188  0.01204864  1
  Pd  Pd197  1  0.40072239  0.80337080  0.59294943  1
  Pd  Pd198  1  0.39939451  0.78919758  0.40634665  1
  Pd  Pd199  1  0.19934629  0.39954802  0.40903238  1
  Rh  Rh200  1  0.59141207  0.60904103  0.60574143  1
  Rh  Rh201  1  0.38913998  -0.00633648  0.60122119  1
  Rh  Rh202  1  0.59528652  0.00745589  0.20887847  1
  Rh  Rh203  1  0.59472649  -0.00171324  -0.01029303  1
  Rh  Rh204  1  0.58783310  0.20221570  0.40008475  1
  Rh  Rh205  1  0.39502938  0.59486872  0.39535905  1
  Rh  Rh206  1  -0.00386564  0.80926583  0.00060338  1
  Rh  Rh207  1  0.59546872  0.39951116  0.80483430  1
  Rh  Rh208  1  0.39465155  0.19555530  0.59848390  1
  Rh  Rh209  1  -0.00640982  0.00073524  0.59183608  1
  Rh  Rh210  1  0.40870695  0.00837495  0.39932708  1
  Rh  Rh211  1  0.39892429  0.80465867  0.80287177  1
  Rh  Rh212  1  0.20347899  0.40052229  0.80241217  1
  Rh  Rh213  1  0.60129787  0.79222385  0.20425665  1
  Rh  Rh214  1  0.39542277  0.39470921  -0.00035832  1
  Rh  Rh215  1  0.00703877  0.40132949  0.19178099  1
  Rh  Rh216  1  0.59217929  0.39209590  0.19945876  1
  Rh  Rh217  1  0.40874954  0.00707888  0.81029814  1
  Rh  Rh218  1  0.19592282  0.60907754  0.80403009  1
  Rh  Rh219  1  0.21007332  0.80729260  0.20862632  1
  Rh  Rh220  1  0.19730761  0.59488546  0.20168549  1
  Rh  Rh221  1  0.80437630  0.60215583  0.59748702  1
  Rh  Rh222  1  0.00282915  0.78838004  0.80042806  1
  Rh  Rh223  1  0.20394352  0.40848731  0.19283173  1
  Rh  Rh224  1  0.40010869  0.59782828  0.19355732  1
  Rh  Rh225  1  0.80669325  -0.00823313  0.00009712  1
  Rh  Rh226  1  0.79333987  0.80612179  0.60469413  1
  Rh  Rh227  1  0.20559030  0.19254576  0.80110407  1
  Rh  Rh228  1  0.59972710  0.60117949  -0.00213985  1
  Rh  Rh229  1  0.40381831  0.40272518  0.60321214  1
  Rh  Rh230  1  0.80286992  0.80324876  0.00210064  1
  Rh  Rh231  1  -0.00746220  0.78927620  0.20583214  1
  Rh  Rh232  1  0.60664551  -0.00622683  0.60176798  1
  Rh  Rh233  1  0.00617787  0.20324758  0.79259886  1
  Rh  Rh234  1  -0.00466469  0.59608704  0.61351962  1
  Rh  Rh235  1  0.18999028  -0.01290073  0.39280694  1
  Rh  Rh236  1  0.60695810  0.59289584  0.39566899  1
  Rh  Rh237  1  0.80209280  0.40285911  0.59519710  1
  Rh  Rh238  1  0.19168911  0.19117473  0.20548422  1
  Rh  Rh239  1  0.40776085  0.39477821  0.40098755  1
  Rh  Rh240  1  0.80039237  0.80126805  0.79829609  1
  Rh  Rh241  1  0.20770083  0.60155443  0.40000340  1
  Rh  Rh242  1  0.59353252  0.19441016  0.79518581  1
  Rh  Rh243  1  0.80745224  0.61497186  0.80053204  1
  Rh  Rh244  1  0.21077018  0.59803576  0.59835461  1
  Rh  Rh245  1  0.00378311  0.00732658  0.80982491  1
  Rh  Rh246  1  0.00696433  0.00819663  0.19312425  1
  Rh  Rh247  1  0.80865828  0.38767090  0.81113055  1
  Rh  Rh248  1  0.20624695  0.20490532  0.40582407  1
  Rh  Rh249  1  0.80177092  0.60046805  -0.00223240  1
