# generated using pymatgen
data_ZrScNbPdRh
_symmetry_space_group_name_H-M   'P 1'
_cell_length_a   16.56779917
_cell_length_b   16.57159308
_cell_length_c   16.56206500
_cell_angle_alpha   90.00817355
_cell_angle_beta   89.97734420
_cell_angle_gamma   89.98133452
_symmetry_Int_Tables_number   1
_chemical_formula_structural   ZrScNbPdRh
_chemical_formula_sum   'Zr50 Sc50 Nb50 Pd50 Rh50'
_cell_volume   4547.19423514
_cell_formula_units_Z   50
loop_
 _symmetry_equiv_pos_site_id
 _symmetry_equiv_pos_as_xyz
  1  'x, y, z'
loop_
 _atom_site_type_symbol
 _atom_site_label
 _atom_site_symmetry_multiplicity
 _atom_site_fract_x
 _atom_site_fract_y
 _atom_site_fract_z
 _atom_site_occupancy
  Zr  Zr0  1  0.50318060  0.10435748  0.09863999  1
  Zr  Zr1  1  0.69798382  0.68875389  0.50620858  1
  Zr  Zr2  1  0.90016903  0.89875048  0.30706669  1
  Zr  Zr3  1  0.09794891  0.70376563  0.49743671  1
  Zr  Zr4  1  0.70471690  0.89690679  0.29499176  1
  Zr  Zr5  1  0.89601524  0.69334759  0.70191754  1
  Zr  Zr6  1  0.69018836  0.30017848  0.30606244  1
  Zr  Zr7  1  0.69976513  0.90122554  0.70600115  1
  Zr  Zr8  1  0.50363596  0.10222629  0.69935598  1
  Zr  Zr9  1  0.90171367  0.10675367  0.70579644  1
  Zr  Zr10  1  0.68957108  0.89878810  0.09454765  1
  Zr  Zr11  1  0.50176478  0.89597358  0.09976001  1
  Zr  Zr12  1  0.70539868  0.10276648  0.49242658  1
  Zr  Zr13  1  0.49322964  0.89587958  0.29438878  1
  Zr  Zr14  1  0.91051574  0.30289208  0.09605031  1
  Zr  Zr15  1  0.70169397  0.10234822  0.71216062  1
  Zr  Zr16  1  0.70048000  0.90570751  0.90627794  1
  Zr  Zr17  1  0.89747259  0.10860390  0.09736225  1
  Zr  Zr18  1  0.48977555  0.70822988  0.50410152  1
  Zr  Zr19  1  0.70117905  0.69903865  0.69787969  1
  Zr  Zr20  1  0.89248513  0.90045065  0.90315384  1
  Zr  Zr21  1  0.09389033  0.30088236  0.09937532  1
  Zr  Zr22  1  0.29601159  0.90167194  0.90438097  1
  Zr  Zr23  1  0.69969675  0.10583453  0.29816295  1
  Zr  Zr24  1  0.70863355  0.89678019  0.50491562  1
  Zr  Zr25  1  0.29861182  0.29373953  0.09581092  1
  Zr  Zr26  1  0.10370947  0.90858805  0.89461475  1
  Zr  Zr27  1  0.09978313  0.30447586  0.49925076  1
  Zr  Zr28  1  0.70378702  0.30090855  0.70024205  1
  Zr  Zr29  1  0.50199000  0.30808908  0.90498068  1
  Zr  Zr30  1  0.90686306  0.70501650  0.29778046  1
  Zr  Zr31  1  0.89671260  0.50393886  0.30349073  1
  Zr  Zr32  1  0.50408317  0.89623567  0.69700130  1
  Zr  Zr33  1  0.89435689  0.90007581  0.10610703  1
  Zr  Zr34  1  0.69721237  0.48912198  0.89788039  1
  Zr  Zr35  1  0.90059355  0.29878076  0.50857619  1
  Zr  Zr36  1  0.50485461  0.89151760  0.90718230  1
  Zr  Zr37  1  0.10730794  0.49916617  0.49653137  1
  Zr  Zr38  1  0.90545118  0.51474136  0.90132313  1
  Zr  Zr39  1  0.09761172  0.09976571  0.90159298  1
  Zr  Zr40  1  0.29476228  0.69742967  0.89798805  1
  Zr  Zr41  1  0.50277923  0.48738984  0.10013625  1
  Zr  Zr42  1  0.09673924  0.30073878  0.29014596  1
  Zr  Zr43  1  0.10216812  0.09495643  0.30142604  1
  Zr  Zr44  1  0.29852378  0.51050482  0.89395842  1
  Zr  Zr45  1  0.69839537  0.09781329  0.09172503  1
  Zr  Zr46  1  0.49534221  0.10235379  0.49404800  1
  Zr  Zr47  1  0.08808804  0.31122936  0.70135211  1
  Zr  Zr48  1  0.70435683  0.69119109  0.30178670  1
  Zr  Zr49  1  0.30309261  0.11059096  0.69938526  1
  Sc  Sc50  1  0.10272163  0.10543834  0.10294347  1
  Sc  Sc51  1  0.09150547  0.89860063  0.50379658  1
  Sc  Sc52  1  0.89508804  0.09621655  0.30304473  1
  Sc  Sc53  1  0.29701329  0.70083191  0.69787442  1
  Sc  Sc54  1  0.69758716  0.29146770  0.89707270  1
  Sc  Sc55  1  0.49861353  0.70135364  0.70006138  1
  Sc  Sc56  1  0.69996643  0.69766837  0.10423237  1
  Sc  Sc57  1  0.09496425  0.90189140  0.69697066  1
  Sc  Sc58  1  0.10107354  0.09486953  0.49921516  1
  Sc  Sc59  1  0.48705996  0.70039286  0.90478124  1
  Sc  Sc60  1  0.29726922  0.09972084  0.30114883  1
  Sc  Sc61  1  0.29193295  0.69758602  0.49967624  1
  Sc  Sc62  1  0.51453653  0.50199628  0.50204284  1
  Sc  Sc63  1  0.49589811  0.10991363  0.30128683  1
  Sc  Sc64  1  0.09591576  0.49328454  0.30714842  1
  Sc  Sc65  1  0.29904724  0.29822392  0.29444794  1
  Sc  Sc66  1  0.09962994  0.50858529  0.89242107  1
  Sc  Sc67  1  0.29990869  0.11071115  0.49311955  1
  Sc  Sc68  1  0.90265568  0.89993418  0.50075722  1
  Sc  Sc69  1  0.70073814  0.28624952  0.09690339  1
  Sc  Sc70  1  0.51075359  0.11297425  0.89576459  1
  Sc  Sc71  1  0.30612322  0.88590668  0.49722666  1
  Sc  Sc72  1  0.10636488  0.70277009  0.69107226  1
  Sc  Sc73  1  0.28880722  0.10081759  0.90547930  1
  Sc  Sc74  1  0.90717153  0.50363501  0.09943228  1
  Sc  Sc75  1  0.10483659  0.90333021  0.11526504  1
  Sc  Sc76  1  0.29826742  0.90067188  0.29699942  1
  Sc  Sc77  1  0.09322066  0.09342681  0.70716882  1
  Sc  Sc78  1  0.69728860  0.50156884  0.68519997  1
  Sc  Sc79  1  0.50101906  0.70940573  0.09999421  1
  Sc  Sc80  1  0.49809344  0.30018559  0.69960713  1
  Sc  Sc81  1  0.29525196  0.30729423  0.69203402  1
  Sc  Sc82  1  0.90016207  0.09393219  0.50049713  1
  Sc  Sc83  1  0.30626620  0.69874336  0.09848393  1
  Sc  Sc84  1  0.50211346  0.69987888  0.29839107  1
  Sc  Sc85  1  0.50417908  0.49167832  0.69720866  1
  Sc  Sc86  1  0.90199233  0.29920145  0.29536217  1
  Sc  Sc87  1  0.90014058  0.68900921  0.10169569  1
  Sc  Sc88  1  0.29186075  0.89191889  0.70566770  1
  Sc  Sc89  1  0.71668862  0.69953888  0.90088633  1
  Sc  Sc90  1  0.89530101  0.10395071  0.89628486  1
  Sc  Sc91  1  0.30308837  0.90000944  0.10645653  1
  Sc  Sc92  1  0.29150094  0.09960281  0.09882733  1
  Sc  Sc93  1  0.30269878  0.70346484  0.31299038  1
  Sc  Sc94  1  0.90180469  0.90464620  0.69417704  1
  Sc  Sc95  1  0.09592771  0.89808327  0.30333775  1
  Sc  Sc96  1  0.70581688  0.30345631  0.49387723  1
  Sc  Sc97  1  0.30031493  0.49664833  0.09670574  1
  Sc  Sc98  1  0.89624274  0.70954385  0.50183389  1
  Sc  Sc99  1  0.30111063  0.30216429  0.50120077  1
  Nb  Nb100  1  0.09955383  0.49549764  0.10093454  1
  Nb  Nb101  1  0.69412689  0.49981999  0.29927182  1
  Nb  Nb102  1  0.29870303  0.50338291  0.49512843  1
  Nb  Nb103  1  0.91077790  0.30368003  0.90001706  1
  Nb  Nb104  1  0.29430744  0.30233104  0.90062599  1
  Nb  Nb105  1  0.50195383  0.49689579  0.89924058  1
  Nb  Nb106  1  0.70445419  0.10356038  0.90209484  1
  Nb  Nb107  1  0.50168073  0.30529621  0.29883955  1
  Nb  Nb108  1  0.90253439  0.30336068  0.70425186  1
  Nb  Nb109  1  0.09389421  0.30115328  0.90375566  1
  Nb  Nb110  1  0.70592459  0.50405172  0.10085828  1
  Nb  Nb111  1  0.50723745  0.49107156  0.29529203  1
  Nb  Nb112  1  0.70721819  0.49908260  0.48318562  1
  Nb  Nb113  1  0.29007502  0.50231602  0.69369374  1
  Nb  Nb114  1  0.50149369  0.90039952  0.50105165  1
  Nb  Nb115  1  0.09672076  0.69716030  0.90716557  1
  Nb  Nb116  1  0.29980673  0.50726312  0.30785228  1
  Nb  Nb117  1  0.10555973  0.50050883  0.69437719  1
  Nb  Nb118  1  0.09881628  0.70149841  0.29571569  1
  Nb  Nb119  1  0.50282101  0.29827810  0.48465873  1
  Nb  Nb120  1  0.91229125  0.49194529  0.70036027  1
  Nb  Nb121  1  0.90419373  0.49316641  0.49825001  1
  Nb  Nb122  1  0.90908581  0.69759552  0.90262510  1
  Nb  Nb123  1  0.49375786  0.29517278  0.10492489  1
  Nb  Nb124  1  0.09753000  0.69855680  0.10713088  1
  Nb  Nb125  1  0.60041135  0.20049957  0.59330978  1
  Nb  Nb126  1  0.40576312  0.40791704  0.39485019  1
  Nb  Nb127  1  0.40188413  0.00050393  0.80068788  1
  Nb  Nb128  1  -0.00066214  0.59040933  0.59876977  1
  Nb  Nb129  1  0.00457608  0.79850958  0.00143080  1
  Nb  Nb130  1  0.40550727  0.00039881  -0.00481844  1
  Nb  Nb131  1  0.19060704  0.79509337  0.00204808  1
  Nb  Nb132  1  0.19393252  0.21113304  0.80390467  1
  Nb  Nb133  1  0.59784619  0.59476152  0.80768862  1
  Nb  Nb134  1  -0.00141434  -0.00486829  0.00226559  1
  Nb  Nb135  1  0.60173962  0.80387933  0.40358198  1
  Nb  Nb136  1  0.19440297  0.39875190  -0.00526654  1
  Nb  Nb137  1  0.00264429  0.20068859  0.39971959  1
  Nb  Nb138  1  0.20993581  0.00095085  0.60024900  1
  Nb  Nb139  1  0.39289592  0.58968532  0.59784940  1
  Nb  Nb140  1  -0.00173964  0.79407432  0.80899699  1
  Nb  Nb141  1  0.79313729  0.40604040  0.19664559  1
  Nb  Nb142  1  0.39262073  0.40528613  0.80334817  1
  Nb  Nb143  1  0.80475660  0.39952221  -0.00105538  1
  Nb  Nb144  1  0.59823206  -0.00703350  0.40075074  1
  Nb  Nb145  1  0.19927497  0.59866935  0.20501277  1
  Nb  Nb146  1  0.60050777  0.59189857  -0.00335737  1
  Nb  Nb147  1  0.39957831  0.58873593  0.20896438  1
  Nb  Nb148  1  0.81333520  0.39914282  0.79933314  1
  Nb  Nb149  1  0.39954311  -0.00283404  0.60203559  1
  Pd  Pd150  1  0.60925030  0.38924503  0.18873128  1
  Pd  Pd151  1  0.40718682  0.20474202  0.59464292  1
  Pd  Pd152  1  0.18735845  0.19574817  0.60912648  1
  Pd  Pd153  1  0.41152854  0.59419954  0.40278692  1
  Pd  Pd154  1  0.60438174  0.39191338  0.58924612  1
  Pd  Pd155  1  0.40637079  0.59331574  0.78678399  1
  Pd  Pd156  1  0.80873161  0.60551680  0.40408746  1
  Pd  Pd157  1  0.01220127  0.60649164  0.78786602  1
  Pd  Pd158  1  0.20509476  0.40636069  0.19587679  1
  Pd  Pd159  1  0.39624192  0.19651639  0.20331194  1
  Pd  Pd160  1  0.20773183  0.79147772  0.19968519  1
  Pd  Pd161  1  -0.00124482  0.60390282  0.40661180  1
  Pd  Pd162  1  0.80431068  0.79037920  0.00997971  1
  Pd  Pd163  1  0.18966888  0.79280806  0.80320802  1
  Pd  Pd164  1  0.39962172  0.19220290  -0.00741266  1
  Pd  Pd165  1  0.60401588  0.79649187  0.59696436  1
  Pd  Pd166  1  0.40963397  0.59752572  0.01121844  1
  Pd  Pd167  1  0.59549396  -0.00018349  0.80977307  1
  Pd  Pd168  1  0.40058735  0.40470382  0.59450298  1
  Pd  Pd169  1  0.19477081  0.80568632  0.39981635  1
  Pd  Pd170  1  0.79681901  0.00320675  0.19758204  1
  Pd  Pd171  1  0.19535207  0.59802081  0.01031493  1
  Pd  Pd172  1  0.60948591  0.39379838  0.00988882  1
  Pd  Pd173  1  0.20529978  -0.00931065  0.40953640  1
  Pd  Pd174  1  0.39873321  0.80352200  0.79844368  1
  Pd  Pd175  1  0.79634300  0.19634218  0.60137010  1
  Pd  Pd176  1  0.39068787  0.40194001  -0.00559794  1
  Pd  Pd177  1  0.39089521  0.40211438  0.20558210  1
  Pd  Pd178  1  0.59630640  0.00492988  0.20789794  1
  Pd  Pd179  1  0.00742888  0.59221378  0.20315442  1
  Pd  Pd180  1  0.80727853  0.80275326  0.79604663  1
  Pd  Pd181  1  0.20001543  0.39938973  0.80280855  1
  Pd  Pd182  1  0.39789153  -0.00442238  0.40439597  1
  Pd  Pd183  1  0.59187478  0.60229366  0.19181840  1
  Pd  Pd184  1  0.60222688  0.78525947  0.81112288  1
  Pd  Pd185  1  0.19556804  0.20526243  0.39603661  1
  Pd  Pd186  1  0.00543543  0.19371271  0.59585893  1
  Pd  Pd187  1  0.80050879  0.40759153  0.60181109  1
  Pd  Pd188  1  0.20935612  0.39274931  0.39673597  1
  Pd  Pd189  1  0.80078531  0.20825486  0.20338723  1
  Pd  Pd190  1  0.79952709  0.79292813  0.19496588  1
  Pd  Pd191  1  -0.00133275  0.00407096  0.19714524  1
  Pd  Pd192  1  0.80510274  0.39392400  0.39168519  1
  Pd  Pd193  1  0.59910972  0.00820543  0.59215828  1
  Pd  Pd194  1  0.79178904  0.58716048  0.79541450  1
  Pd  Pd195  1  0.39249942  0.20657047  0.80667464  1
  Pd  Pd196  1  0.39750994  0.00859069  0.19253993  1
  Pd  Pd197  1  0.80976972  0.58811561  0.59479988  1
  Pd  Pd198  1  0.80229080  0.00435847  0.60433670  1
  Pd  Pd199  1  0.59200340  0.60490934  0.40093441  1
  Rh  Rh200  1  0.59494862  0.20356179  0.19857045  1
  Rh  Rh201  1  0.39410818  0.78755969  0.20447446  1
  Rh  Rh202  1  0.79490526  0.79508197  0.40190994  1
  Rh  Rh203  1  0.00241800  0.40626060  0.59406100  1
  Rh  Rh204  1  0.38786842  0.80687015  0.00247869  1
  Rh  Rh205  1  0.19505988  0.60609483  0.79260046  1
  Rh  Rh206  1  0.80042494  0.00085990  0.80018064  1
  Rh  Rh207  1  0.19997727  0.19898667  0.19903149  1
  Rh  Rh208  1  0.00807817  0.60084830  0.00875874  1
  Rh  Rh209  1  -0.00270247  0.00447974  0.40094709  1
  Rh  Rh210  1  0.21150504  0.01411726  0.78695129  1
  Rh  Rh211  1  0.00152951  0.80043307  0.39738405  1
  Rh  Rh212  1  0.39469648  0.21446110  0.39337672  1
  Rh  Rh213  1  0.19278945  0.20931036  -0.00264511  1
  Rh  Rh214  1  0.19814583  -0.01122971  0.01188796  1
  Rh  Rh215  1  0.00069598  0.40715242  0.80756241  1
  Rh  Rh216  1  0.20169224  0.00251569  0.20567524  1
  Rh  Rh217  1  0.00003741  0.19020508  0.21052876  1
  Rh  Rh218  1  0.80352080  0.00661818  0.00133626  1
  Rh  Rh219  1  0.59890221  0.19399818  0.40118059  1
  Rh  Rh220  1  -0.00907740  0.40835009  0.20456224  1
  Rh  Rh221  1  0.00468088  0.41401503  -0.00765178  1
  Rh  Rh222  1  0.18956037  0.60495499  0.39225521  1
  Rh  Rh223  1  0.79597723  -0.00332639  0.39876967  1
  Rh  Rh224  1  0.20081895  0.40071533  0.59539075  1
  Rh  Rh225  1  0.59741328  0.20377861  0.00093968  1
  Rh  Rh226  1  0.40496072  0.80195021  0.39643202  1
  Rh  Rh227  1  0.59756068  0.39934872  0.79474450  1
  Rh  Rh228  1  0.00331316  0.20265925  0.80217620  1
  Rh  Rh229  1  -0.00178339  0.18971739  -0.00476968  1
  Rh  Rh230  1  0.80065836  0.80252576  0.60596918  1
  Rh  Rh231  1  -0.00583533  0.79047769  0.60988571  1
  Rh  Rh232  1  0.60203829  0.20797124  0.79385812  1
  Rh  Rh233  1  0.79595097  0.59652457  0.00102452  1
  Rh  Rh234  1  0.80535820  0.20955376  0.80614317  1
  Rh  Rh235  1  0.59823567  0.40470524  0.40377666  1
  Rh  Rh236  1  0.81251483  0.20516486  0.39834201  1
  Rh  Rh237  1  0.20020991  0.60014106  0.59604323  1
  Rh  Rh238  1  0.60444226  0.79473416  0.20811947  1
  Rh  Rh239  1  0.60943005  0.78352393  -0.00550398  1
  Rh  Rh240  1  0.80185329  0.59479738  0.20339620  1
  Rh  Rh241  1  -0.00339884  0.80150525  0.19631831  1
  Rh  Rh242  1  0.19857126  0.80972353  0.59574327  1
  Rh  Rh243  1  -0.01188514  -0.00827158  0.80609929  1
  Rh  Rh244  1  0.59420764  0.00830535  -0.00715423  1
  Rh  Rh245  1  0.00671048  0.00383212  0.59954271  1
  Rh  Rh246  1  0.58963174  0.60348522  0.60752212  1
  Rh  Rh247  1  -0.00560055  0.39055127  0.39981780  1
  Rh  Rh248  1  0.39461215  0.79841810  0.60564377  1
  Rh  Rh249  1  0.80511065  0.20675419  -0.00840217  1
