# generated using pymatgen
data_ZrScNbPdRh
_symmetry_space_group_name_H-M   'P 1'
_cell_length_a   16.57296518
_cell_length_b   16.57194602
_cell_length_c   16.56339581
_cell_angle_alpha   89.97565148
_cell_angle_beta   90.04248774
_cell_angle_gamma   89.97095939
_symmetry_Int_Tables_number   1
_chemical_formula_structural   ZrScNbPdRh
_chemical_formula_sum   'Zr50 Sc50 Nb50 Pd50 Rh50'
_cell_volume   4549.07286995
_cell_formula_units_Z   50
loop_
 _symmetry_equiv_pos_site_id
 _symmetry_equiv_pos_as_xyz
  1  'x, y, z'
loop_
 _atom_site_type_symbol
 _atom_site_label
 _atom_site_symmetry_multiplicity
 _atom_site_fract_x
 _atom_site_fract_y
 _atom_site_fract_z
 _atom_site_occupancy
  Zr  Zr0  1  0.10018369  0.10475822  0.09879663  1
  Zr  Zr1  1  0.50070428  0.09284382  0.50140262  1
  Zr  Zr2  1  0.89922266  0.30246139  0.69725137  1
  Zr  Zr3  1  0.09975995  0.30292801  0.49821810  1
  Zr  Zr4  1  0.90114201  0.09976694  0.29326468  1
  Zr  Zr5  1  0.11384020  0.89631684  0.50043343  1
  Zr  Zr6  1  0.69812324  0.49953309  0.50316760  1
  Zr  Zr7  1  0.30860584  0.89380223  0.49689903  1
  Zr  Zr8  1  0.69834928  0.91144191  0.50379836  1
  Zr  Zr9  1  0.31339327  0.29124930  0.09832879  1
  Zr  Zr10  1  0.09129432  0.29681177  0.30753173  1
  Zr  Zr11  1  0.09671938  0.09248482  0.71491404  1
  Zr  Zr12  1  0.50394923  0.89267251  0.10641191  1
  Zr  Zr13  1  0.10451147  0.89496588  0.29144862  1
  Zr  Zr14  1  0.68682702  0.69489641  0.70601921  1
  Zr  Zr15  1  0.30745487  0.29754307  0.90050707  1
  Zr  Zr16  1  0.10309081  0.90050258  0.69941514  1
  Zr  Zr17  1  0.50361094  0.50908855  0.69877082  1
  Zr  Zr18  1  0.90545203  0.29988348  0.49642216  1
  Zr  Zr19  1  0.10004645  0.49681027  0.29878390  1
  Zr  Zr20  1  0.90079741  0.49462659  0.29921678  1
  Zr  Zr21  1  0.09617076  0.30812768  0.70133829  1
  Zr  Zr22  1  0.30793593  0.89542254  0.90595681  1
  Zr  Zr23  1  0.49943554  0.69622233  0.70333424  1
  Zr  Zr24  1  0.90246512  0.09303317  0.09960740  1
  Zr  Zr25  1  0.90337678  0.49162870  0.71149767  1
  Zr  Zr26  1  0.69654918  0.69689204  0.09259067  1
  Zr  Zr27  1  0.70242784  0.10220834  0.30766188  1
  Zr  Zr28  1  0.29726232  0.50283209  0.29005041  1
  Zr  Zr29  1  0.50413183  0.90030807  0.90722458  1
  Zr  Zr30  1  0.89004657  0.29589095  0.09988898  1
  Zr  Zr31  1  0.69749280  0.90303033  0.29112323  1
  Zr  Zr32  1  0.09541301  0.50025121  0.89880785  1
  Zr  Zr33  1  0.70126047  0.50642331  0.90513256  1
  Zr  Zr34  1  0.29382366  0.10488374  0.29142871  1
  Zr  Zr35  1  0.89030167  0.89864880  0.50395749  1
  Zr  Zr36  1  0.49552655  0.49721009  0.09917389  1
  Zr  Zr37  1  0.30918807  0.10445977  0.91116177  1
  Zr  Zr38  1  0.31051154  0.10436181  0.69792644  1
  Zr  Zr39  1  0.89245869  0.70795238  0.10372601  1
  Zr  Zr40  1  0.50293315  0.70385623  0.90023903  1
  Zr  Zr41  1  0.88753477  0.69583826  0.90133432  1
  Zr  Zr42  1  0.10563377  0.69745063  0.30158922  1
  Zr  Zr43  1  0.89064619  0.90276553  0.89967066  1
  Zr  Zr44  1  0.30382444  0.50371682  0.69754494  1
  Zr  Zr45  1  0.48949932  0.70049704  0.50360577  1
  Zr  Zr46  1  0.09979249  0.50127134  0.70090354  1
  Zr  Zr47  1  0.90187787  0.09816988  0.89884743  1
  Zr  Zr48  1  0.70228356  0.30234276  0.29552367  1
  Zr  Zr49  1  0.49164627  0.49697021  0.49864082  1
  Sc  Sc50  1  0.29751864  0.90304698  0.68864331  1
  Sc  Sc51  1  0.69565307  0.49153667  0.09647484  1
  Sc  Sc52  1  0.88182180  0.09962506  0.49455451  1
  Sc  Sc53  1  0.89811496  0.30746104  0.89940170  1
  Sc  Sc54  1  0.10868554  0.70868431  0.10513830  1
  Sc  Sc55  1  0.30937275  0.30221424  0.69951842  1
  Sc  Sc56  1  0.09007615  0.30332123  0.10198585  1
  Sc  Sc57  1  0.70288572  0.70034024  0.50755194  1
  Sc  Sc58  1  0.89492312  0.69467322  0.49822024  1
  Sc  Sc59  1  0.09555425  0.51028545  0.50787234  1
  Sc  Sc60  1  0.70283813  0.90176622  0.70024020  1
  Sc  Sc61  1  0.10098816  0.10339343  0.29221828  1
  Sc  Sc62  1  0.09475367  0.29715962  0.91049056  1
  Sc  Sc63  1  0.30837426  0.30210253  0.51099973  1
  Sc  Sc64  1  0.30269806  0.89585932  0.10271002  1
  Sc  Sc65  1  0.50065042  0.30881703  0.30004755  1
  Sc  Sc66  1  0.30247467  0.09382097  0.49879788  1
  Sc  Sc67  1  0.70779135  0.70384590  0.29273630  1
  Sc  Sc68  1  0.10819674  0.69161524  0.69244724  1
  Sc  Sc69  1  0.10113856  0.49524327  0.10522308  1
  Sc  Sc70  1  0.70471898  0.49748985  0.29885658  1
  Sc  Sc71  1  0.70535698  0.29523305  0.49096759  1
  Sc  Sc72  1  0.49185275  0.29057982  0.70653457  1
  Sc  Sc73  1  0.29715712  0.29851530  0.29623617  1
  Sc  Sc74  1  0.89478966  0.70546297  0.29711620  1
  Sc  Sc75  1  0.50139375  0.29270354  0.90554446  1
  Sc  Sc76  1  0.30073266  0.69615925  0.30035031  1
  Sc  Sc77  1  0.51252309  0.10068159  0.89707865  1
  Sc  Sc78  1  0.10709588  0.69762586  0.90207966  1
  Sc  Sc79  1  0.10078397  0.90183683  0.10696576  1
  Sc  Sc80  1  0.89907608  0.49800049  0.50463845  1
  Sc  Sc81  1  0.90136186  0.29845487  0.30011238  1
  Sc  Sc82  1  0.30074892  0.89429310  0.30066081  1
  Sc  Sc83  1  0.29489891  0.70111757  0.49958542  1
  Sc  Sc84  1  0.88733795  0.69708433  0.70439691  1
  Sc  Sc85  1  0.10608631  0.10689552  0.48117233  1
  Sc  Sc86  1  0.48518678  0.49994517  0.30219360  1
  Sc  Sc87  1  0.71037371  0.29702412  0.70372030  1
  Sc  Sc88  1  0.89453647  0.48900627  0.09655944  1
  Sc  Sc89  1  0.70435740  0.50076162  0.69931010  1
  Sc  Sc90  1  0.70044910  0.90173269  0.09617678  1
  Sc  Sc91  1  0.30534929  0.69927965  0.69393571  1
  Sc  Sc92  1  0.50806212  0.88860136  0.69982781  1
  Sc  Sc93  1  0.69727722  0.70282479  0.90141039  1
  Sc  Sc94  1  0.09906916  0.91299939  0.89544973  1
  Sc  Sc95  1  0.49383503  0.50706315  0.90183191  1
  Sc  Sc96  1  0.48617940  0.09366911  0.09888489  1
  Sc  Sc97  1  0.71330059  0.10313824  0.08976112  1
  Sc  Sc98  1  0.30576633  0.69677965  0.90736770  1
  Sc  Sc99  1  0.50314238  0.08929904  0.29642376  1
  Nb  Nb100  1  0.29708573  0.10094496  0.09983294  1
  Nb  Nb101  1  0.50520748  0.10215227  0.70492032  1
  Nb  Nb102  1  0.30439570  0.49946544  0.49850610  1
  Nb  Nb103  1  0.69345081  0.91394299  0.89932523  1
  Nb  Nb104  1  0.90283941  0.89835571  0.28734841  1
  Nb  Nb105  1  0.50111556  0.29754452  0.50355307  1
  Nb  Nb106  1  0.90236453  0.90309045  0.10738346  1
  Nb  Nb107  1  0.68993356  0.29011894  0.91024742  1
  Nb  Nb108  1  0.30284200  0.50340666  0.09685777  1
  Nb  Nb109  1  0.50332657  0.70168475  0.09781705  1
  Nb  Nb110  1  0.69216323  0.30186788  0.09284246  1
  Nb  Nb111  1  0.30129959  0.69221452  0.09751448  1
  Nb  Nb112  1  0.50215125  0.70435407  0.29880950  1
  Nb  Nb113  1  0.69485856  0.10079798  0.70309937  1
  Nb  Nb114  1  0.49674846  0.89605586  0.49021610  1
  Nb  Nb115  1  0.10445063  0.10303481  0.90318333  1
  Nb  Nb116  1  0.90515919  0.90528371  0.69874636  1
  Nb  Nb117  1  0.69558052  0.09872148  0.50326112  1
  Nb  Nb118  1  0.30008094  0.50146259  0.90495251  1
  Nb  Nb119  1  0.09649789  0.70473826  0.49928542  1
  Nb  Nb120  1  0.89803272  0.10036577  0.69993075  1
  Nb  Nb121  1  0.50147602  0.88953244  0.29823263  1
  Nb  Nb122  1  0.90259504  0.50545855  0.90120250  1
  Nb  Nb123  1  0.70076254  0.09781240  0.89133786  1
  Nb  Nb124  1  0.51245287  0.30351794  0.10090647  1
  Nb  Nb125  1  0.20007354  0.20144558  0.80248982  1
  Nb  Nb126  1  0.59515753  0.60683991  0.39462009  1
  Nb  Nb127  1  0.60204667  0.20449138  0.19317233  1
  Nb  Nb128  1  -0.00358366  -0.00995727  0.39860121  1
  Nb  Nb129  1  -0.00085203  0.80251385  0.60032397  1
  Nb  Nb130  1  0.60158863  0.19567017  0.59971692  1
  Nb  Nb131  1  0.59677325  0.39017090  0.60216932  1
  Nb  Nb132  1  0.20341049  0.00877466  0.00244557  1
  Nb  Nb133  1  0.40555577  0.19926771  0.40219768  1
  Nb  Nb134  1  -0.00511786  0.60430380  0.00444668  1
  Nb  Nb135  1  -0.00244984  0.60147770  0.19663288  1
  Nb  Nb136  1  0.20998003  0.40286229  -0.00046937  1
  Nb  Nb137  1  0.19913292  0.80262540  0.79954332  1
  Nb  Nb138  1  0.60138738  0.39649431  0.80159377  1
  Nb  Nb139  1  0.00034184  0.19053479  0.60210446  1
  Nb  Nb140  1  0.40750095  0.00020187  0.79937306  1
  Nb  Nb141  1  0.20282409  0.40531435  0.40454896  1
  Nb  Nb142  1  0.59341361  0.60303426  0.20259443  1
  Nb  Nb143  1  0.19330797  0.19916790  0.60787817  1
  Nb  Nb144  1  -0.00002568  0.80182376  0.79845704  1
  Nb  Nb145  1  0.20498869  0.40068621  0.80737293  1
  Nb  Nb146  1  0.00040802  0.80396391  0.40305975  1
  Nb  Nb147  1  0.59589751  0.80155883  0.39843241  1
  Nb  Nb148  1  -0.00370723  0.00287503  0.59552241  1
  Nb  Nb149  1  -0.00507774  0.80074392  -0.00268404  1
  Pd  Pd150  1  0.59620208  0.18583835  0.00826326  1
  Pd  Pd151  1  0.41298314  -0.00911112  0.60792101  1
  Pd  Pd152  1  0.20036537  -0.00248094  0.39132562  1
  Pd  Pd153  1  0.59322022  0.20074242  0.39746438  1
  Pd  Pd154  1  -0.00635199  0.60478024  0.39328569  1
  Pd  Pd155  1  0.79824307  0.59086719  0.19276081  1
  Pd  Pd156  1  0.79950592  0.20086335  0.80684651  1
  Pd  Pd157  1  0.80254350  0.39848384  0.40223365  1
  Pd  Pd158  1  0.79068625  0.39923412  0.81091475  1
  Pd  Pd159  1  0.79467212  0.80435353  0.79688115  1
  Pd  Pd160  1  0.80362809  0.59579847  0.60667897  1
  Pd  Pd161  1  0.79896969  0.79689100  0.60799576  1
  Pd  Pd162  1  0.00168206  0.20588401  0.80008586  1
  Pd  Pd163  1  0.41381151  0.20162520  0.20802787  1
  Pd  Pd164  1  0.21773393  0.00107919  0.80952611  1
  Pd  Pd165  1  0.60155940  0.00797878  0.00875878  1
  Pd  Pd166  1  0.80375654  -0.00520470  0.39137833  1
  Pd  Pd167  1  -0.00916239  0.60736434  0.60701028  1
  Pd  Pd168  1  0.59875455  0.40741377  0.20627058  1
  Pd  Pd169  1  0.39277395  0.80467763  0.79165863  1
  Pd  Pd170  1  0.40478490  0.60738067  0.19656979  1
  Pd  Pd171  1  0.59470978  -0.00014287  0.60795518  1
  Pd  Pd172  1  0.59943004  0.40699725  0.40221599  1
  Pd  Pd173  1  -0.00796977  0.20158821  0.00003519  1
  Pd  Pd174  1  -0.00073032  0.61250405  0.80249335  1
  Pd  Pd175  1  0.79858889  0.00183223  0.79373258  1
  Pd  Pd176  1  0.19333600  0.21070909  0.19331549  1
  Pd  Pd177  1  0.19315254  0.01417650  0.59544764  1
  Pd  Pd178  1  0.60049673  0.80024016  0.59132998  1
  Pd  Pd179  1  0.79407789  0.20003834  0.19870217  1
  Pd  Pd180  1  0.60647059  0.01336155  0.18830846  1
  Pd  Pd181  1  0.39315846  0.79221163  0.19718243  1
  Pd  Pd182  1  0.79663730  0.39735513  -0.00618561  1
  Pd  Pd183  1  0.79596317  0.80980005  0.00140703  1
  Pd  Pd184  1  0.79293881  0.60105157  0.39816230  1
  Pd  Pd185  1  0.40539925  0.40630142  0.79972342  1
  Pd  Pd186  1  0.19175018  0.59478334  0.00804646  1
  Pd  Pd187  1  0.20433614  0.39963052  0.60031937  1
  Pd  Pd188  1  0.79631958  0.80203149  0.39743869  1
  Pd  Pd189  1  0.59730767  -0.00664366  0.39615276  1
  Pd  Pd190  1  0.39643897  0.00330329  0.38812462  1
  Pd  Pd191  1  0.20317360  0.59477852  0.40773157  1
  Pd  Pd192  1  0.39393246  -0.00621549  0.20367275  1
  Pd  Pd193  1  0.39008503  0.39089373  0.39717540  1
  Pd  Pd194  1  0.79715897  0.19726328  0.59788171  1
  Pd  Pd195  1  0.00595486  -0.00636356  0.00169146  1
  Pd  Pd196  1  0.20379366  0.39219670  0.19536515  1
  Pd  Pd197  1  0.40339953  0.39790406  0.00054027  1
  Pd  Pd198  1  0.20922171  0.60324129  0.80061796  1
  Pd  Pd199  1  0.19170445  0.81001339  -0.00450279  1
  Rh  Rh200  1  0.21044276  0.79572779  0.19923189  1
  Rh  Rh201  1  0.00265478  0.40798736  -0.00012313  1
  Rh  Rh202  1  0.79788278  0.39614875  0.19638496  1
  Rh  Rh203  1  0.39927533  0.60401464  0.39947903  1
  Rh  Rh204  1  0.79266276  0.80772564  0.19332801  1
  Rh  Rh205  1  0.20013409  0.79203952  0.60463108  1
  Rh  Rh206  1  0.59329406  0.59778567  0.00564449  1
  Rh  Rh207  1  -0.00195221  0.20322002  0.19717277  1
  Rh  Rh208  1  0.00753531  0.41054009  0.40659480  1
  Rh  Rh209  1  0.60077186  0.59351194  0.80786300  1
  Rh  Rh210  1  -0.00741544  0.40135069  0.19938776  1
  Rh  Rh211  1  0.40401599  0.79490028  0.00975485  1
  Rh  Rh212  1  0.00494740  0.00279740  0.20428553  1
  Rh  Rh213  1  0.59633756  -0.00547479  0.79603353  1
  Rh  Rh214  1  0.21826865  0.21412972  0.41271325  1
  Rh  Rh215  1  0.40401427  0.60587865  0.00147413  1
  Rh  Rh216  1  0.79625829  -0.00050125  0.19749232  1
  Rh  Rh217  1  0.80209822  0.20035375  -0.00950494  1
  Rh  Rh218  1  0.39777417  0.39682408  0.19475264  1
  Rh  Rh219  1  0.79444767  0.39850528  0.59563391  1
  Rh  Rh220  1  0.40105603  0.79533704  0.39649234  1
  Rh  Rh221  1  0.00052952  0.79168193  0.19960671  1
  Rh  Rh222  1  0.39601349  0.60353223  0.80407068  1
  Rh  Rh223  1  -0.00764310  -0.00246173  0.80215107  1
  Rh  Rh224  1  0.20034446  0.79714559  0.39719308  1
  Rh  Rh225  1  0.19700294  0.60212265  0.19254719  1
  Rh  Rh226  1  0.20470417  -0.00032462  0.19315718  1
  Rh  Rh227  1  -0.00526971  0.39956361  0.59637312  1
  Rh  Rh228  1  0.19910576  0.20320398  -0.00012104  1
  Rh  Rh229  1  0.80478118  0.59372037  0.00560582  1
  Rh  Rh230  1  0.79448252  0.59515839  0.79818978  1
  Rh  Rh231  1  0.41281625  0.19879512  0.00430845  1
  Rh  Rh232  1  0.40060680  0.19059697  0.80609914  1
  Rh  Rh233  1  0.59538189  0.40372144  -0.01212771  1
  Rh  Rh234  1  0.20450034  0.59948989  0.59285657  1
  Rh  Rh235  1  0.80058865  0.20143138  0.39705597  1
  Rh  Rh236  1  0.59705601  0.59400919  0.58901118  1
  Rh  Rh237  1  0.60494447  0.80341830  -0.00316363  1
  Rh  Rh238  1  -0.01164308  0.18562861  0.40414438  1
  Rh  Rh239  1  0.60857117  0.80580365  0.80718479  1
  Rh  Rh240  1  0.00415668  0.39655957  0.80835829  1
  Rh  Rh241  1  0.40431035  0.19443585  0.59116050  1
  Rh  Rh242  1  0.60577770  0.79181699  0.20140497  1
  Rh  Rh243  1  0.39484634  0.59970514  0.59648639  1
  Rh  Rh244  1  0.40940399  0.40323741  0.60766007  1
  Rh  Rh245  1  0.60759173  0.20853556  0.79361573  1
  Rh  Rh246  1  0.79982999  0.00019929  -0.00216696  1
  Rh  Rh247  1  0.40053896  0.80285840  0.60181855  1
  Rh  Rh248  1  0.79859154  0.00816953  0.60867881  1
  Rh  Rh249  1  0.39729254  -0.00379157  -0.00018854  1
