# generated using pymatgen
data_ZrScNbPdRh
_symmetry_space_group_name_H-M   'P 1'
_cell_length_a   16.55622552
_cell_length_b   16.55409242
_cell_length_c   16.56053813
_cell_angle_alpha   89.98528339
_cell_angle_beta   90.00493709
_cell_angle_gamma   89.98571425
_symmetry_Int_Tables_number   1
_chemical_formula_structural   ZrScNbPdRh
_chemical_formula_sum   'Zr50 Sc50 Nb50 Pd50 Rh50'
_cell_volume   4538.80081949
_cell_formula_units_Z   50
loop_
 _symmetry_equiv_pos_site_id
 _symmetry_equiv_pos_as_xyz
  1  'x, y, z'
loop_
 _atom_site_type_symbol
 _atom_site_label
 _atom_site_symmetry_multiplicity
 _atom_site_fract_x
 _atom_site_fract_y
 _atom_site_fract_z
 _atom_site_occupancy
  Zr  Zr0  1  0.69895652  0.29624092  0.89924800  1
  Zr  Zr1  1  0.30446795  0.49817269  0.49856866  1
  Zr  Zr2  1  0.49708818  0.89700245  0.31302182  1
  Zr  Zr3  1  0.50074872  0.29977253  0.09293684  1
  Zr  Zr4  1  0.50089489  0.30330427  0.90202780  1
  Zr  Zr5  1  0.89606593  0.50345740  0.09691189  1
  Zr  Zr6  1  0.49609704  0.10390893  0.69358676  1
  Zr  Zr7  1  0.29914179  0.90219259  0.10208063  1
  Zr  Zr8  1  0.89658521  0.69796528  0.69330683  1
  Zr  Zr9  1  0.70263383  0.29463010  0.49839510  1
  Zr  Zr10  1  0.69935277  0.50123009  0.09871580  1
  Zr  Zr11  1  0.29853096  0.09805540  0.09974683  1
  Zr  Zr12  1  0.90527963  0.90326255  0.30437682  1
  Zr  Zr13  1  0.50561658  0.88858963  0.09968733  1
  Zr  Zr14  1  0.10608635  0.49966661  0.29741655  1
  Zr  Zr15  1  0.70589931  0.70109473  0.50448922  1
  Zr  Zr16  1  0.70260869  0.30034562  0.10046255  1
  Zr  Zr17  1  0.69429466  0.69458938  0.10010493  1
  Zr  Zr18  1  0.30682732  0.29599739  0.10340854  1
  Zr  Zr19  1  0.09713115  0.29169782  0.09962815  1
  Zr  Zr20  1  0.90744429  0.70497811  0.30053944  1
  Zr  Zr21  1  0.69271669  0.90653664  0.29933520  1
  Zr  Zr22  1  0.09074598  0.49536913  0.69097918  1
  Zr  Zr23  1  0.30227858  0.49796352  0.09719605  1
  Zr  Zr24  1  0.09772627  0.29777386  0.89539860  1
  Zr  Zr25  1  0.69536342  0.49501445  0.29559081  1
  Zr  Zr26  1  0.30073940  0.49527490  0.29263300  1
  Zr  Zr27  1  0.89857889  0.29215865  0.90269843  1
  Zr  Zr28  1  0.69508996  0.90004794  0.49348690  1
  Zr  Zr29  1  0.89942530  0.69601517  0.10002472  1
  Zr  Zr30  1  0.50240769  0.50364319  0.70459167  1
  Zr  Zr31  1  0.90440293  0.90429722  0.10092027  1
  Zr  Zr32  1  0.70618844  0.09395154  0.90582747  1
  Zr  Zr33  1  0.50608782  0.28773351  0.50397312  1
  Zr  Zr34  1  0.89855113  0.29973975  0.50052677  1
  Zr  Zr35  1  0.11143178  0.30473951  0.50322220  1
  Zr  Zr36  1  0.50645641  0.29661660  0.70284766  1
  Zr  Zr37  1  0.49989918  0.09544406  0.90123141  1
  Zr  Zr38  1  0.90413512  0.10195178  0.29651155  1
  Zr  Zr39  1  0.10330369  0.49077716  0.50029219  1
  Zr  Zr40  1  0.70290243  0.89362013  0.69926834  1
  Zr  Zr41  1  0.91013763  0.50287018  0.51479227  1
  Zr  Zr42  1  0.30512083  0.10058798  0.29427331  1
  Zr  Zr43  1  0.90044150  0.70151867  0.50010597  1
  Zr  Zr44  1  0.49476056  0.49946687  0.30224560  1
  Zr  Zr45  1  0.69515906  0.10153441  0.09730340  1
  Zr  Zr46  1  0.89831945  0.90022559  0.70089001  1
  Zr  Zr47  1  0.70345205  0.29409027  0.30305093  1
  Zr  Zr48  1  0.49436614  0.90261069  0.70619134  1
  Zr  Zr49  1  0.69682694  0.90187876  0.09472835  1
  Sc  Sc50  1  0.30345317  0.50606922  0.69708481  1
  Sc  Sc51  1  0.29950833  0.30190961  0.29488126  1
  Sc  Sc52  1  0.89685227  0.29377747  0.70866977  1
  Sc  Sc53  1  0.09156452  0.70124511  0.10231176  1
  Sc  Sc54  1  0.89310422  0.09553815  0.70138555  1
  Sc  Sc55  1  0.90425896  0.11013803  0.09591475  1
  Sc  Sc56  1  0.10121796  0.10350182  0.29306269  1
  Sc  Sc57  1  0.49286191  0.69431692  0.70439479  1
  Sc  Sc58  1  0.49463789  0.10744585  0.09807583  1
  Sc  Sc59  1  0.31145257  0.70939482  0.89946377  1
  Sc  Sc60  1  0.70353696  0.50024233  0.90051039  1
  Sc  Sc61  1  0.69374309  0.90292355  0.89907478  1
  Sc  Sc62  1  0.10910114  0.70551454  0.50639398  1
  Sc  Sc63  1  0.30733847  0.50032276  0.90169282  1
  Sc  Sc64  1  0.29675192  0.89618052  0.71459919  1
  Sc  Sc65  1  0.70464228  0.69913785  0.29998748  1
  Sc  Sc66  1  0.90092307  0.69998820  0.90562901  1
  Sc  Sc67  1  0.08747827  0.71313643  0.90159214  1
  Sc  Sc68  1  0.70222346  0.69592081  0.70114565  1
  Sc  Sc69  1  0.10396647  0.70477310  0.29403601  1
  Sc  Sc70  1  0.70343014  0.10374770  0.69850404  1
  Sc  Sc71  1  0.29787574  0.09781284  0.70485401  1
  Sc  Sc72  1  0.69743274  0.69981658  0.90162954  1
  Sc  Sc73  1  0.09607941  0.09388972  0.10332356  1
  Sc  Sc74  1  0.10377594  0.49033088  0.89530142  1
  Sc  Sc75  1  0.50604910  0.09454231  0.30283447  1
  Sc  Sc76  1  0.09913920  0.50376913  0.10564363  1
  Sc  Sc77  1  0.49656336  0.89628914  0.89813437  1
  Sc  Sc78  1  0.08953515  0.90474291  0.89974881  1
  Sc  Sc79  1  0.30025920  0.31061358  0.90468984  1
  Sc  Sc80  1  0.70502327  0.50449078  0.49594585  1
  Sc  Sc81  1  0.50343192  0.50420445  0.09953761  1
  Sc  Sc82  1  0.10605636  0.30463513  0.29661739  1
  Sc  Sc83  1  0.89427942  0.29919770  0.29189488  1
  Sc  Sc84  1  0.09477604  0.09743303  0.90056692  1
  Sc  Sc85  1  0.50148433  0.30157371  0.30046415  1
  Sc  Sc86  1  0.30399975  0.89504701  0.29644186  1
  Sc  Sc87  1  0.31260107  0.70524943  0.10016805  1
  Sc  Sc88  1  0.10194518  0.30522090  0.70356800  1
  Sc  Sc89  1  0.49778762  0.70042396  0.90605100  1
  Sc  Sc90  1  0.89819583  0.90468213  0.89762681  1
  Sc  Sc91  1  0.09659159  0.89725525  0.29861224  1
  Sc  Sc92  1  0.69881850  0.10752460  0.49316136  1
  Sc  Sc93  1  0.09835407  0.09621635  0.70722785  1
  Sc  Sc94  1  0.90215226  0.90272645  0.49483466  1
  Sc  Sc95  1  0.09750039  0.89949827  0.71162938  1
  Sc  Sc96  1  0.89989024  0.49614002  0.29671116  1
  Sc  Sc97  1  0.30338406  0.70556731  0.29378329  1
  Sc  Sc98  1  0.89610532  0.09234000  0.49985046  1
  Sc  Sc99  1  0.29587957  0.29499641  0.69541332  1
  Nb  Nb100  1  0.10009173  0.70332443  0.70305056  1
  Nb  Nb101  1  0.30333178  0.09282154  0.90716259  1
  Nb  Nb102  1  0.49452586  0.49582918  0.90077949  1
  Nb  Nb103  1  0.29654254  0.10439798  0.50182451  1
  Nb  Nb104  1  0.30106511  0.70034697  0.50550313  1
  Nb  Nb105  1  0.70483390  0.10541117  0.29584585  1
  Nb  Nb106  1  0.09737042  0.90431818  0.49639331  1
  Nb  Nb107  1  0.50360489  0.70065662  0.09973008  1
  Nb  Nb108  1  0.49481594  0.90022540  0.49387243  1
  Nb  Nb109  1  0.70381072  0.49943731  0.70189038  1
  Nb  Nb110  1  0.89237540  0.10116622  0.89887569  1
  Nb  Nb111  1  0.49237821  0.69794673  0.49909451  1
  Nb  Nb112  1  0.69837949  0.29973022  0.69760041  1
  Nb  Nb113  1  0.29939255  0.89722542  0.49310755  1
  Nb  Nb114  1  0.90278993  0.49864591  0.89817047  1
  Nb  Nb115  1  0.30221871  0.90635627  0.90670044  1
  Nb  Nb116  1  0.09954852  0.09954505  0.49808878  1
  Nb  Nb117  1  0.29907416  0.29520356  0.50386055  1
  Nb  Nb118  1  0.89935938  0.50125799  0.70287367  1
  Nb  Nb119  1  0.10333640  0.90204744  0.09403379  1
  Nb  Nb120  1  0.49584180  0.09560249  0.49958561  1
  Nb  Nb121  1  0.49740982  0.69971459  0.29747415  1
  Nb  Nb122  1  0.29175362  0.70357843  0.69458259  1
  Nb  Nb123  1  0.90109517  0.29935389  0.09877386  1
  Nb  Nb124  1  0.49685189  0.50474155  0.50447561  1
  Nb  Nb125  1  0.79936693  0.80062616  0.00760853  1
  Nb  Nb126  1  0.39382993  -0.00438144  0.58978114  1
  Nb  Nb127  1  0.39585469  0.19556703  0.40852107  1
  Nb  Nb128  1  -0.00649636  0.39639009  0.00046893  1
  Nb  Nb129  1  0.19490464  0.60934929  0.79861066  1
  Nb  Nb130  1  0.58884773  0.60256611  0.40299362  1
  Nb  Nb131  1  0.00440878  0.80384503  0.60101060  1
  Nb  Nb132  1  0.00550417  0.20069594  0.40555641  1
  Nb  Nb133  1  0.58739927  0.80170841  0.59440587  1
  Nb  Nb134  1  0.60343997  0.40436711  0.60315779  1
  Nb  Nb135  1  0.79727495  0.00347122  0.19914969  1
  Nb  Nb136  1  0.00057667  0.59750422  0.79439313  1
  Nb  Nb137  1  0.20459195  0.60088510  0.40232037  1
  Nb  Nb138  1  0.39951967  0.19790432  0.80598200  1
  Nb  Nb139  1  0.20231009  0.00089213  0.40572277  1
  Nb  Nb140  1  0.00380217  0.19699079  0.59413909  1
  Nb  Nb141  1  0.59148339  -0.00427505  0.59340395  1
  Nb  Nb142  1  0.39562242  0.80086090  0.59448278  1
  Nb  Nb143  1  0.40797572  0.39760541  0.59573348  1
  Nb  Nb144  1  0.20088040  -0.00339614  0.59163412  1
  Nb  Nb145  1  0.20108850  0.60916165  -0.00619826  1
  Nb  Nb146  1  0.79552109  0.40176743  0.60970994  1
  Nb  Nb147  1  0.20383827  0.19481043  -0.00123966  1
  Nb  Nb148  1  0.00928723  0.59862525  0.40268420  1
  Nb  Nb149  1  0.20081896  0.80648665  0.00107463  1
  Pd  Pd150  1  -0.00199887  0.39717226  0.39390110  1
  Pd  Pd151  1  0.39866796  0.38715042  0.40625553  1
  Pd  Pd152  1  0.40938928  -0.00643297  0.00783928  1
  Pd  Pd153  1  0.79052392  -0.00212885  0.59561329  1
  Pd  Pd154  1  0.40331703  0.60082531  0.19366009  1
  Pd  Pd155  1  0.80325938  0.39983731  -0.00178484  1
  Pd  Pd156  1  -0.00328578  0.19292563  0.79305403  1
  Pd  Pd157  1  0.59386299  0.20128855  0.20362271  1
  Pd  Pd158  1  0.19825765  0.81252972  0.60350480  1
  Pd  Pd159  1  0.59811407  0.40647197  0.40917625  1
  Pd  Pd160  1  0.39471599  0.60688907  0.39541427  1
  Pd  Pd161  1  0.59619942  0.39686474  0.19696648  1
  Pd  Pd162  1  0.19965026  0.79863936  0.39600431  1
  Pd  Pd163  1  -0.00440254  0.00620201  -0.00279255  1
  Pd  Pd164  1  0.39216068  0.60480346  0.80164232  1
  Pd  Pd165  1  0.20059272  0.79796087  0.81428106  1
  Pd  Pd166  1  0.60525460  0.00447854  0.79224508  1
  Pd  Pd167  1  0.59732378  0.00346276  0.19750674  1
  Pd  Pd168  1  0.59596331  0.79174730  0.79537351  1
  Pd  Pd169  1  0.60394201  0.40591037  0.80232101  1
  Pd  Pd170  1  0.19201317  0.19238644  0.60893480  1
  Pd  Pd171  1  0.79644882  0.00548097  0.39513212  1
  Pd  Pd172  1  0.80010706  0.80372240  0.39773087  1
  Pd  Pd173  1  0.80557092  0.40606685  0.40514696  1
  Pd  Pd174  1  0.00407311  0.80452902  0.19631968  1
  Pd  Pd175  1  0.79800998  0.80715706  0.19790690  1
  Pd  Pd176  1  0.39290282  0.39284787  0.79006586  1
  Pd  Pd177  1  0.41128975  -0.00461103  0.19802074  1
  Pd  Pd178  1  0.19509187  -0.00485978  0.20979420  1
  Pd  Pd179  1  0.19174503  0.40125895  0.00654386  1
  Pd  Pd180  1  0.80620105  0.59418973  0.39544352  1
  Pd  Pd181  1  0.80123797  0.59885241  0.20647400  1
  Pd  Pd182  1  0.59462122  0.59511191  -0.00844362  1
  Pd  Pd183  1  0.20862846  0.40953607  0.79257355  1
  Pd  Pd184  1  0.60040414  0.60000344  0.80768054  1
  Pd  Pd185  1  0.00528517  -0.00076547  0.60508329  1
  Pd  Pd186  1  0.20075825  0.19801296  0.39226273  1
  Pd  Pd187  1  0.80234536  0.79751260  0.81138657  1
  Pd  Pd188  1  0.59982150  0.79428834  0.20668175  1
  Pd  Pd189  1  0.00006026  0.39980777  0.19439371  1
  Pd  Pd190  1  0.19701335  0.59546953  0.60027225  1
  Pd  Pd191  1  0.80176808  0.39711827  0.79881719  1
  Pd  Pd192  1  0.60023545  0.19111788  0.80425723  1
  Pd  Pd193  1  0.60334387  0.60226656  0.59696580  1
  Pd  Pd194  1  0.20927007  0.19700445  0.81017410  1
  Pd  Pd195  1  0.20387895  0.61055639  0.19369581  1
  Pd  Pd196  1  0.59874829  0.78763406  0.40182560  1
  Pd  Pd197  1  0.01136299  0.59073058  -0.01044277  1
  Pd  Pd198  1  0.80504102  0.60334568  0.80599281  1
  Pd  Pd199  1  0.19956857  -0.00037263  0.80317524  1
  Rh  Rh200  1  0.39806079  0.79859500  0.79607555  1
  Rh  Rh201  1  0.60528157  0.79763662  -0.00506326  1
  Rh  Rh202  1  0.00964873  0.00895463  0.39166821  1
  Rh  Rh203  1  -0.00235838  0.59866293  0.21142989  1
  Rh  Rh204  1  0.81002720  0.19610497  0.39716614  1
  Rh  Rh205  1  -0.00943488  0.79628497  0.79145314  1
  Rh  Rh206  1  0.80596899  0.20425045  0.60103898  1
  Rh  Rh207  1  -0.00860157  0.00566196  0.80209230  1
  Rh  Rh208  1  0.60903072  0.19452000  0.59844741  1
  Rh  Rh209  1  0.79467366  0.19711880  0.80080684  1
  Rh  Rh210  1  0.40598334  0.40536233  0.00466335  1
  Rh  Rh211  1  0.39477092  0.19998268  0.60177750  1
  Rh  Rh212  1  0.59365913  0.19401274  0.39362827  1
  Rh  Rh213  1  0.79384622  0.59203784  0.60238880  1
  Rh  Rh214  1  -0.01245502  0.38332015  0.61182362  1
  Rh  Rh215  1  0.80332987  0.80815921  0.59460432  1
  Rh  Rh216  1  0.39173409  0.20265286  -0.01012075  1
  Rh  Rh217  1  0.39970771  0.59916804  0.00141826  1
  Rh  Rh218  1  0.79649784  -0.00040794  0.80083103  1
  Rh  Rh219  1  0.80063496  0.19589802  0.19277469  1
  Rh  Rh220  1  0.60232560  0.19915408  -0.00312803  1
  Rh  Rh221  1  0.59143363  -0.00101621  -0.00005704  1
  Rh  Rh222  1  0.21040374  0.40216403  0.39735712  1
  Rh  Rh223  1  0.39755755  0.60257204  0.60495379  1
  Rh  Rh224  1  0.21327171  0.40339263  0.60579528  1
  Rh  Rh225  1  -0.00321747  0.80626253  0.00568105  1
  Rh  Rh226  1  0.20036460  0.20024065  0.19156639  1
  Rh  Rh227  1  0.00147387  0.20492323  0.20747733  1
  Rh  Rh228  1  0.80507969  -0.00365970  0.00513431  1
  Rh  Rh229  1  0.00795155  0.61257001  0.59984904  1
  Rh  Rh230  1  0.19801229  0.80245759  0.18882312  1
  Rh  Rh231  1  0.39449153  0.79043552  0.40110950  1
  Rh  Rh232  1  0.39394232  0.00520603  0.79828762  1
  Rh  Rh233  1  0.59542927  0.60365199  0.20970402  1
  Rh  Rh234  1  0.60463302  0.00888475  0.40312178  1
  Rh  Rh235  1  -0.00112250  -0.00227265  0.19905864  1
  Rh  Rh236  1  0.00550072  0.20050050  -0.00457627  1
  Rh  Rh237  1  0.59989634  0.40641223  -0.00368548  1
  Rh  Rh238  1  0.19535858  -0.00062174  -0.00582956  1
  Rh  Rh239  1  0.79808109  0.39890184  0.19589651  1
  Rh  Rh240  1  0.40860638  0.80255112  0.20168935  1
  Rh  Rh241  1  0.39874965  0.80474762  0.00242702  1
  Rh  Rh242  1  0.40640388  0.39836421  0.19476026  1
  Rh  Rh243  1  0.00767522  0.79022361  0.40903735  1
  Rh  Rh244  1  0.39051005  0.00721905  0.39995700  1
  Rh  Rh245  1  0.40750094  0.20065418  0.21152712  1
  Rh  Rh246  1  0.20052028  0.39726221  0.19312008  1
  Rh  Rh247  1  0.79827264  0.60533497  -0.00514374  1
  Rh  Rh248  1  -0.00497121  0.40351056  0.80402548  1
  Rh  Rh249  1  0.79827473  0.20002579  0.00355653  1
