# generated using pymatgen
data_ZrScNbPdRh
_symmetry_space_group_name_H-M   'P 1'
_cell_length_a   16.56057234
_cell_length_b   16.57019546
_cell_length_c   16.56698874
_cell_angle_alpha   90.01281456
_cell_angle_beta   89.95824855
_cell_angle_gamma   90.01506408
_symmetry_Int_Tables_number   1
_chemical_formula_structural   ZrScNbPdRh
_chemical_formula_sum   'Zr50 Sc50 Nb50 Pd50 Rh50'
_cell_volume   4546.17772180
_cell_formula_units_Z   50
loop_
 _symmetry_equiv_pos_site_id
 _symmetry_equiv_pos_as_xyz
  1  'x, y, z'
loop_
 _atom_site_type_symbol
 _atom_site_label
 _atom_site_symmetry_multiplicity
 _atom_site_fract_x
 _atom_site_fract_y
 _atom_site_fract_z
 _atom_site_occupancy
  Zr  Zr0  1  0.49151208  0.10580517  0.69939405  1
  Zr  Zr1  1  0.89202187  0.70245488  0.51308880  1
  Zr  Zr2  1  0.69588265  0.89905652  0.89438406  1
  Zr  Zr3  1  0.69667273  0.69751139  0.09541299  1
  Zr  Zr4  1  0.10576776  0.30236731  0.70950964  1
  Zr  Zr5  1  0.29928220  0.69543635  0.89910965  1
  Zr  Zr6  1  0.71015690  0.69594541  0.69022942  1
  Zr  Zr7  1  0.49844314  0.49235232  0.70310352  1
  Zr  Zr8  1  0.69898638  0.50505394  0.10159981  1
  Zr  Zr9  1  0.09858317  0.69368926  0.29058058  1
  Zr  Zr10  1  0.49898416  0.70155093  0.90357507  1
  Zr  Zr11  1  0.10836198  0.50203135  0.89838413  1
  Zr  Zr12  1  0.70719223  0.50175744  0.90266352  1
  Zr  Zr13  1  0.28995933  0.29500845  0.49514728  1
  Zr  Zr14  1  0.30398798  0.29666497  0.70217485  1
  Zr  Zr15  1  0.50920315  0.29666350  0.09856708  1
  Zr  Zr16  1  0.50252409  0.29633442  0.29866962  1
  Zr  Zr17  1  0.91264678  0.10938564  0.28611425  1
  Zr  Zr18  1  0.49060311  0.90530315  0.70257060  1
  Zr  Zr19  1  0.91538844  0.29475608  0.69469805  1
  Zr  Zr20  1  0.70139518  0.50888904  0.50575996  1
  Zr  Zr21  1  0.69694737  0.30477741  0.09475237  1
  Zr  Zr22  1  0.49396667  0.30668115  0.89537706  1
  Zr  Zr23  1  0.70447043  0.88939619  0.49178730  1
  Zr  Zr24  1  0.89990905  0.50394722  0.90593084  1
  Zr  Zr25  1  0.49033678  0.09365755  0.30865905  1
  Zr  Zr26  1  0.90416819  0.09649803  0.88964988  1
  Zr  Zr27  1  0.30938569  0.89870786  0.30169331  1
  Zr  Zr28  1  0.69483402  0.50165799  0.69908451  1
  Zr  Zr29  1  0.69670751  0.70152351  0.89889186  1
  Zr  Zr30  1  0.10773189  0.30165718  0.09980385  1
  Zr  Zr31  1  0.69587276  0.09914205  0.49706888  1
  Zr  Zr32  1  0.89907397  0.30918615  0.31363424  1
  Zr  Zr33  1  0.30065437  0.70542973  0.29917350  1
  Zr  Zr34  1  0.50016679  0.70260501  0.09467448  1
  Zr  Zr35  1  0.09077861  0.30403481  0.50850460  1
  Zr  Zr36  1  0.70009570  0.09596553  0.89752943  1
  Zr  Zr37  1  0.10093594  0.70570914  0.09486929  1
  Zr  Zr38  1  0.10259847  0.50640368  0.10276740  1
  Zr  Zr39  1  0.90123964  0.90329602  0.89071431  1
  Zr  Zr40  1  0.69075174  0.09762422  0.69703452  1
  Zr  Zr41  1  0.89875438  0.49692367  0.48641374  1
  Zr  Zr42  1  0.91050243  0.89473463  0.10105448  1
  Zr  Zr43  1  0.30563243  0.08680319  0.09722360  1
  Zr  Zr44  1  0.30365932  0.30379735  0.09990374  1
  Zr  Zr45  1  0.69426863  0.70409093  0.50385421  1
  Zr  Zr46  1  0.90810769  0.69826103  0.10077199  1
  Zr  Zr47  1  0.91388979  0.89791408  0.50156306  1
  Zr  Zr48  1  0.09603756  0.09984936  0.10632862  1
  Zr  Zr49  1  0.90411893  0.69301537  0.89949601  1
  Sc  Sc50  1  0.89272277  0.50104290  0.10228495  1
  Sc  Sc51  1  0.09056488  0.49900057  0.30039381  1
  Sc  Sc52  1  0.30388596  0.09041052  0.70053479  1
  Sc  Sc53  1  0.29939845  0.09963111  0.49522891  1
  Sc  Sc54  1  0.49836639  0.50336351  0.09331267  1
  Sc  Sc55  1  0.91345529  0.10526785  0.49590913  1
  Sc  Sc56  1  0.69094084  0.10910901  0.30487831  1
  Sc  Sc57  1  0.90006320  0.29564941  0.11686153  1
  Sc  Sc58  1  0.29961690  0.50031891  0.29316730  1
  Sc  Sc59  1  0.29783412  0.89679634  0.69787505  1
  Sc  Sc60  1  0.49338371  0.29794151  0.70231326  1
  Sc  Sc61  1  0.10884519  0.89442968  0.90003431  1
  Sc  Sc62  1  0.29671649  0.50203898  0.50878974  1
  Sc  Sc63  1  0.90169226  0.69409077  0.29537758  1
  Sc  Sc64  1  0.09608730  0.70279044  0.50614045  1
  Sc  Sc65  1  0.10708784  0.49850295  0.69794287  1
  Sc  Sc66  1  0.29470431  0.30274827  0.89894951  1
  Sc  Sc67  1  0.91307186  0.09124243  0.70095253  1
  Sc  Sc68  1  0.49553550  0.50577650  0.51368256  1
  Sc  Sc69  1  0.30868972  0.70383114  0.50505647  1
  Sc  Sc70  1  0.90214924  0.50810170  0.71177872  1
  Sc  Sc71  1  0.68654249  0.11079383  0.09759340  1
  Sc  Sc72  1  0.10308485  0.30290922  0.30693476  1
  Sc  Sc73  1  0.10386403  0.08873886  0.49438174  1
  Sc  Sc74  1  0.70132650  0.29671919  0.48534306  1
  Sc  Sc75  1  0.70089846  0.89662379  0.70084739  1
  Sc  Sc76  1  0.69488981  0.89801855  0.09659480  1
  Sc  Sc77  1  0.49901082  0.89190933  0.49640390  1
  Sc  Sc78  1  0.69614731  0.30655527  0.90367360  1
  Sc  Sc79  1  0.50085815  0.09371843  0.89835485  1
  Sc  Sc80  1  0.49466330  0.29357760  0.50590948  1
  Sc  Sc81  1  0.49935066  0.10011381  0.50464880  1
  Sc  Sc82  1  0.10341925  0.69576883  0.90779146  1
  Sc  Sc83  1  0.89775168  0.31000111  0.89421107  1
  Sc  Sc84  1  0.90178861  0.88624359  0.29820305  1
  Sc  Sc85  1  0.30296042  0.90015925  0.89994685  1
  Sc  Sc86  1  0.10073980  0.89392062  0.31281646  1
  Sc  Sc87  1  0.69942098  0.29932129  0.29353261  1
  Sc  Sc88  1  0.49460689  0.50978447  0.28822159  1
  Sc  Sc89  1  0.90429518  0.90244075  0.69656171  1
  Sc  Sc90  1  0.29944858  0.09473677  0.89673691  1
  Sc  Sc91  1  0.70618687  0.70862891  0.30209707  1
  Sc  Sc92  1  0.29831008  0.50089823  0.70122814  1
  Sc  Sc93  1  0.48560545  0.70706236  0.30566963  1
  Sc  Sc94  1  0.68648972  0.30609649  0.70576118  1
  Sc  Sc95  1  0.10160651  0.68924136  0.69699772  1
  Sc  Sc96  1  0.10262184  0.90537511  0.69089167  1
  Sc  Sc97  1  0.30326986  0.50078250  0.09475211  1
  Sc  Sc98  1  0.49146292  0.70561721  0.68941520  1
  Sc  Sc99  1  0.10394489  0.49916148  0.50350981  1
  Nb  Nb100  1  0.09690815  0.10427780  0.70360863  1
  Nb  Nb101  1  0.09751164  0.10325984  0.89316166  1
  Nb  Nb102  1  0.69856716  0.90097339  0.30135870  1
  Nb  Nb103  1  0.29655250  0.10087116  0.30602992  1
  Nb  Nb104  1  0.89161006  0.50121306  0.30041507  1
  Nb  Nb105  1  0.10298420  0.90119399  0.50290868  1
  Nb  Nb106  1  0.90395569  0.09802341  0.10022583  1
  Nb  Nb107  1  0.49674925  0.09920530  0.10074363  1
  Nb  Nb108  1  0.90512986  0.70124606  0.70175028  1
  Nb  Nb109  1  0.49931231  0.70028606  0.49826334  1
  Nb  Nb110  1  0.10358952  0.89734092  0.09546362  1
  Nb  Nb111  1  0.27921055  0.90207282  0.50361782  1
  Nb  Nb112  1  0.31152274  0.50172207  0.90118450  1
  Nb  Nb113  1  0.89906961  0.30165817  0.50327266  1
  Nb  Nb114  1  0.10183589  0.29580692  0.90120992  1
  Nb  Nb115  1  0.29984926  0.89840762  0.10149215  1
  Nb  Nb116  1  0.49935090  0.89702148  0.29938037  1
  Nb  Nb117  1  0.30059034  0.69996989  0.69483707  1
  Nb  Nb118  1  0.48550578  0.90704357  0.10129261  1
  Nb  Nb119  1  0.50297037  0.89516152  0.90717939  1
  Nb  Nb120  1  0.30368008  0.29189819  0.30537614  1
  Nb  Nb121  1  0.48825782  0.50675946  0.89902361  1
  Nb  Nb122  1  0.10900815  0.09901238  0.29826025  1
  Nb  Nb123  1  0.29456081  0.70892735  0.10029107  1
  Nb  Nb124  1  0.70602406  0.50479454  0.30490527  1
  Nb  Nb125  1  0.00627262  0.39517751  0.00106622  1
  Nb  Nb126  1  0.00360525  0.00356116  -0.00090896  1
  Nb  Nb127  1  0.80364868  0.80343308  -0.00373340  1
  Nb  Nb128  1  0.80542190  0.00204093  0.00731095  1
  Nb  Nb129  1  0.80324321  -0.00056822  0.39369215  1
  Nb  Nb130  1  0.59187181  0.80871080  0.20240277  1
  Nb  Nb131  1  0.40127227  0.39824726  0.39777684  1
  Nb  Nb132  1  0.00171306  0.20074012  -0.00413242  1
  Nb  Nb133  1  0.19339452  0.19632028  0.60469036  1
  Nb  Nb134  1  0.80043436  0.00450779  0.59002439  1
  Nb  Nb135  1  0.20746504  0.19460569  0.20615450  1
  Nb  Nb136  1  0.80421883  0.39379853  0.59776126  1
  Nb  Nb137  1  0.80813271  0.19486780  -0.00302940  1
  Nb  Nb138  1  0.59324889  -0.00467093  0.20327433  1
  Nb  Nb139  1  0.79505065  0.00099016  0.20128450  1
  Nb  Nb140  1  0.40327410  0.19755189  0.00511553  1
  Nb  Nb141  1  0.20227781  -0.00284866  0.20208410  1
  Nb  Nb142  1  0.79992218  0.19905014  0.79488050  1
  Nb  Nb143  1  0.00139716  0.79379492  0.79599269  1
  Nb  Nb144  1  0.59623756  0.41247449  0.39706636  1
  Nb  Nb145  1  0.20161471  0.60499717  0.39868716  1
  Nb  Nb146  1  0.39604915  0.19410535  0.20030999  1
  Nb  Nb147  1  0.59689967  0.60199201  0.40234588  1
  Nb  Nb148  1  0.80275518  0.20091696  0.60226066  1
  Nb  Nb149  1  0.59576446  0.60029777  0.79956336  1
  Pd  Pd150  1  0.20628204  0.59903367  0.20042896  1
  Pd  Pd151  1  0.20035224  0.79149932  0.40485379  1
  Pd  Pd152  1  0.59562708  0.80506434  0.60611214  1
  Pd  Pd153  1  0.60175400  0.41095961  0.20618480  1
  Pd  Pd154  1  0.40191315  0.39637868  0.20241482  1
  Pd  Pd155  1  0.39736004  0.59022043  0.40561595  1
  Pd  Pd156  1  0.20381915  0.19227607  0.00228239  1
  Pd  Pd157  1  0.19607231  0.79404088  0.60387072  1
  Pd  Pd158  1  0.80588528  0.19225040  0.40131803  1
  Pd  Pd159  1  0.20519898  0.41137092  0.39703691  1
  Pd  Pd160  1  0.39325446  0.80156679  -0.00041611  1
  Pd  Pd161  1  0.39427636  -0.00499064  0.59090817  1
  Pd  Pd162  1  0.39789731  0.80139678  0.80046173  1
  Pd  Pd163  1  0.19522928  0.80992223  0.20227660  1
  Pd  Pd164  1  0.79243049  0.80308564  0.19229717  1
  Pd  Pd165  1  0.60031702  -0.00251704  0.00690804  1
  Pd  Pd166  1  0.59299963  0.41097968  -0.00534868  1
  Pd  Pd167  1  0.60491927  0.20972492  0.59649285  1
  Pd  Pd168  1  0.00541270  0.40495981  0.80632699  1
  Pd  Pd169  1  0.60179158  -0.01189987  0.59563433  1
  Pd  Pd170  1  0.79662056  0.61209008  0.39968663  1
  Pd  Pd171  1  0.39501371  -0.00820792  0.41308269  1
  Pd  Pd172  1  0.60000445  0.20255296  0.80607070  1
  Pd  Pd173  1  0.59258064  0.79242823  0.78910575  1
  Pd  Pd174  1  0.60576612  0.39046861  0.58715422  1
  Pd  Pd175  1  0.19852668  -0.00187374  0.79599362  1
  Pd  Pd176  1  0.59237551  -0.00266803  0.79730766  1
  Pd  Pd177  1  0.79994894  0.39428639  0.78865822  1
  Pd  Pd178  1  -0.00286267  0.59174940  0.59839489  1
  Pd  Pd179  1  0.79642489  0.40140963  0.20095085  1
  Pd  Pd180  1  0.80745889  0.79598297  0.79881490  1
  Pd  Pd181  1  -0.00372011  -0.00082705  0.38915254  1
  Pd  Pd182  1  0.00876344  0.20191938  0.39927178  1
  Pd  Pd183  1  0.39420163  0.60704920  0.19043084  1
  Pd  Pd184  1  0.20802429  0.19340922  0.79675145  1
  Pd  Pd185  1  0.00533830  0.60306570  0.40262816  1
  Pd  Pd186  1  -0.00132535  0.78689520  0.40139019  1
  Pd  Pd187  1  0.19420323  0.79401713  0.79435782  1
  Pd  Pd188  1  0.20285847  0.59990348  0.79706871  1
  Pd  Pd189  1  0.79135611  0.19334523  0.19497745  1
  Pd  Pd190  1  0.19443477  -0.00032959  0.00049173  1
  Pd  Pd191  1  0.40325825  0.60504826  0.78999985  1
  Pd  Pd192  1  0.20252802  0.40690970  -0.00499714  1
  Pd  Pd193  1  0.39349346  0.39632185  0.59385546  1
  Pd  Pd194  1  -0.00556882  0.41527827  0.60272112  1
  Pd  Pd195  1  0.20248347  0.39693144  0.20888184  1
  Pd  Pd196  1  0.60175175  0.61313746  0.21257837  1
  Pd  Pd197  1  -0.00164291  0.40157480  0.19879286  1
  Pd  Pd198  1  0.60064659  -0.00312942  0.39975253  1
  Pd  Pd199  1  0.00542589  -0.01219148  0.20535546  1
  Rh  Rh200  1  0.00277802  0.58935210  0.00417282  1
  Rh  Rh201  1  0.58941500  0.60857709  0.60273302  1
  Rh  Rh202  1  0.59406803  0.78972648  0.39102650  1
  Rh  Rh203  1  0.39407765  0.80718598  0.59466810  1
  Rh  Rh204  1  0.79882256  0.60107710  0.20009489  1
  Rh  Rh205  1  0.00564300  0.79907276  0.60850652  1
  Rh  Rh206  1  0.59737861  0.59176514  -0.01114970  1
  Rh  Rh207  1  0.00976517  0.60391520  0.80183351  1
  Rh  Rh208  1  0.80573506  0.81142316  0.60383838  1
  Rh  Rh209  1  0.19122720  0.19772133  0.40453526  1
  Rh  Rh210  1  0.81007873  0.79975606  0.40119490  1
  Rh  Rh211  1  0.20569586  0.40427722  0.80421142  1
  Rh  Rh212  1  0.00604172  0.19138525  0.59698177  1
  Rh  Rh213  1  0.81309454  0.38596979  0.01111941  1
  Rh  Rh214  1  0.40464014  0.20326279  0.40120667  1
  Rh  Rh215  1  0.40181065  0.39556889  -0.00119458  1
  Rh  Rh216  1  0.59851064  0.80891423  0.00759863  1
  Rh  Rh217  1  0.00190222  0.40292572  0.39997069  1
  Rh  Rh218  1  0.81330086  0.58798915  0.60433784  1
  Rh  Rh219  1  0.20521780  0.60549191  0.59356943  1
  Rh  Rh220  1  0.79325173  0.60263066  0.79711815  1
  Rh  Rh221  1  0.40191947  -0.00592482  0.80588615  1
  Rh  Rh222  1  0.39299999  0.80756733  0.41085023  1
  Rh  Rh223  1  0.20301446  0.39102109  0.60494022  1
  Rh  Rh224  1  0.39839698  0.00184192  0.20528254  1
  Rh  Rh225  1  0.19834931  0.00890692  0.60248181  1
  Rh  Rh226  1  -0.00251504  0.20546157  0.80589164  1
  Rh  Rh227  1  0.01295648  0.21241850  0.20331390  1
  Rh  Rh228  1  0.79433116  0.00822436  0.78516813  1
  Rh  Rh229  1  -0.00718377  0.59186577  0.19843950  1
  Rh  Rh230  1  0.40428303  -0.00126421  -0.01006215  1
  Rh  Rh231  1  0.01735737  -0.01383463  0.80273989  1
  Rh  Rh232  1  0.59648424  0.41279346  0.81074507  1
  Rh  Rh233  1  0.59537189  0.20007998  -0.00895169  1
  Rh  Rh234  1  0.00315931  0.00316295  0.59689326  1
  Rh  Rh235  1  0.01089289  0.80107235  0.20361268  1
  Rh  Rh236  1  0.80209129  0.60958534  0.00465680  1
  Rh  Rh237  1  0.79086343  0.40079524  0.40219322  1
  Rh  Rh238  1  0.39281974  0.60767286  0.00633780  1
  Rh  Rh239  1  0.39773375  0.60138826  0.60482127  1
  Rh  Rh240  1  0.20875762  0.60004543  0.00343385  1
  Rh  Rh241  1  0.59168444  0.20694113  0.40219286  1
  Rh  Rh242  1  0.38861896  0.19566121  0.59964899  1
  Rh  Rh243  1  0.40312869  0.79642738  0.19233590  1
  Rh  Rh244  1  0.20753604  0.79964980  -0.00255282  1
  Rh  Rh245  1  0.39286744  0.40055485  0.80065043  1
  Rh  Rh246  1  0.20136254  -0.00532090  0.39526352  1
  Rh  Rh247  1  -0.00150762  0.80838106  -0.01361543  1
  Rh  Rh248  1  0.59076301  0.18845375  0.20690583  1
  Rh  Rh249  1  0.39782450  0.19596283  0.80914807  1
