# generated using pymatgen
data_ZrScNbPdRh
_symmetry_space_group_name_H-M   'P 1'
_cell_length_a   16.55464414
_cell_length_b   16.55418322
_cell_length_c   16.55430489
_cell_angle_alpha   90.03376365
_cell_angle_beta   90.00300851
_cell_angle_gamma   90.00152500
_symmetry_Int_Tables_number   1
_chemical_formula_structural   ZrScNbPdRh
_chemical_formula_sum   'Zr50 Sc50 Nb50 Pd50 Rh50'
_cell_volume   4536.68348551
_cell_formula_units_Z   50
loop_
 _symmetry_equiv_pos_site_id
 _symmetry_equiv_pos_as_xyz
  1  'x, y, z'
loop_
 _atom_site_type_symbol
 _atom_site_label
 _atom_site_symmetry_multiplicity
 _atom_site_fract_x
 _atom_site_fract_y
 _atom_site_fract_z
 _atom_site_occupancy
  Zr  Zr0  1  0.49547170  0.49616047  0.69900798  1
  Zr  Zr1  1  0.29754074  0.10379082  0.89964460  1
  Zr  Zr2  1  0.71081381  0.89964134  0.90061828  1
  Zr  Zr3  1  0.29343741  0.69894361  0.91023955  1
  Zr  Zr4  1  0.69600926  0.69496196  0.29237195  1
  Zr  Zr5  1  0.50467728  0.70782862  0.69761239  1
  Zr  Zr6  1  0.89422244  0.09575171  0.30145597  1
  Zr  Zr7  1  0.89747845  0.70755588  0.69537415  1
  Zr  Zr8  1  0.50620437  0.29890688  0.69964277  1
  Zr  Zr9  1  0.50444848  0.09651647  0.10023201  1
  Zr  Zr10  1  0.70108474  0.70174260  0.70358647  1
  Zr  Zr11  1  0.69747358  0.10154961  0.09926642  1
  Zr  Zr12  1  0.10301479  0.29462154  0.50099821  1
  Zr  Zr13  1  0.10095624  0.09904397  0.09481950  1
  Zr  Zr14  1  0.50310462  0.70070406  0.30795768  1
  Zr  Zr15  1  0.70944470  0.30796080  0.10375779  1
  Zr  Zr16  1  0.29823298  0.89622692  0.29651187  1
  Zr  Zr17  1  0.70800001  0.50177278  0.29334396  1
  Zr  Zr18  1  0.29986407  0.08917406  0.10117417  1
  Zr  Zr19  1  0.69891570  0.90088976  0.30428832  1
  Zr  Zr20  1  0.29747890  0.69991807  0.69165355  1
  Zr  Zr21  1  0.10017239  0.08900215  0.29639672  1
  Zr  Zr22  1  0.50305257  0.89475595  0.70302576  1
  Zr  Zr23  1  0.30607602  0.70655265  0.29690261  1
  Zr  Zr24  1  0.89761631  0.30006186  0.09571212  1
  Zr  Zr25  1  0.70587905  0.49827431  0.89610543  1
  Zr  Zr26  1  0.10355944  0.90398884  0.10722615  1
  Zr  Zr27  1  0.49350783  0.69531458  0.49717165  1
  Zr  Zr28  1  0.09374948  0.50058029  0.70540363  1
  Zr  Zr29  1  0.09319443  0.69735599  0.70128999  1
  Zr  Zr30  1  0.29205269  0.49108628  0.29257114  1
  Zr  Zr31  1  0.50360908  0.10138636  0.90454056  1
  Zr  Zr32  1  0.89019662  0.10031855  0.49897519  1
  Zr  Zr33  1  0.29490464  0.09786319  0.69825293  1
  Zr  Zr34  1  0.30325859  0.90121886  0.69592303  1
  Zr  Zr35  1  0.29939806  0.49394482  0.71302486  1
  Zr  Zr36  1  0.29654720  0.30361903  0.69664264  1
  Zr  Zr37  1  0.50426773  0.89410878  0.50604662  1
  Zr  Zr38  1  0.50386685  0.30064329  0.30321373  1
  Zr  Zr39  1  0.29412303  0.30138152  0.30734981  1
  Zr  Zr40  1  0.50239457  0.09837146  0.48931148  1
  Zr  Zr41  1  0.30291721  0.09613088  0.31535832  1
  Zr  Zr42  1  0.09872015  0.29508269  0.09441570  1
  Zr  Zr43  1  0.30802576  0.50380120  0.50788395  1
  Zr  Zr44  1  0.69836671  0.50032100  0.69453747  1
  Zr  Zr45  1  0.90229411  0.30215417  0.89412557  1
  Zr  Zr46  1  0.09484155  0.70149351  0.90644316  1
  Zr  Zr47  1  0.69199219  0.10110834  0.30255307  1
  Zr  Zr48  1  0.29396091  0.30211465  0.88776781  1
  Zr  Zr49  1  0.69791279  0.29726212  0.29784029  1
  Sc  Sc50  1  0.30600440  0.31109147  0.10484023  1
  Sc  Sc51  1  0.50243821  0.09953218  0.70375541  1
  Sc  Sc52  1  0.49894145  0.70736765  0.90091011  1
  Sc  Sc53  1  0.88272185  0.30471419  0.29591403  1
  Sc  Sc54  1  0.70272863  0.29762289  0.89453765  1
  Sc  Sc55  1  0.69939248  0.29911586  0.69536307  1
  Sc  Sc56  1  0.89667159  0.50144093  0.71341233  1
  Sc  Sc57  1  0.09509366  0.90591738  0.68832327  1
  Sc  Sc58  1  0.10892215  0.09627345  0.50456357  1
  Sc  Sc59  1  0.88910993  0.49784154  0.49333603  1
  Sc  Sc60  1  0.89567032  0.09918838  0.88668081  1
  Sc  Sc61  1  0.29206375  0.29930317  0.49812164  1
  Sc  Sc62  1  0.08496303  0.69263443  0.29362339  1
  Sc  Sc63  1  0.30107538  0.90419244  0.50486751  1
  Sc  Sc64  1  0.09378951  0.70007157  0.51498661  1
  Sc  Sc65  1  0.70254660  0.09879449  0.49499145  1
  Sc  Sc66  1  0.90080503  0.89862921  0.50329966  1
  Sc  Sc67  1  0.91346028  0.90165223  0.30223028  1
  Sc  Sc68  1  0.70451797  0.89240298  0.69422928  1
  Sc  Sc69  1  0.29857173  0.88847528  0.10356635  1
  Sc  Sc70  1  0.70346565  0.09937690  0.89967425  1
  Sc  Sc71  1  0.89787180  0.10208376  0.69864507  1
  Sc  Sc72  1  0.89625412  0.10537884  0.09506229  1
  Sc  Sc73  1  0.50040900  0.89765014  0.30185609  1
  Sc  Sc74  1  0.50917219  0.30751366  0.49727050  1
  Sc  Sc75  1  0.90101085  0.70442425  0.90487660  1
  Sc  Sc76  1  0.70266443  0.30350588  0.50140508  1
  Sc  Sc77  1  0.09146130  0.50766724  0.50041178  1
  Sc  Sc78  1  0.50304018  0.29834182  0.10111968  1
  Sc  Sc79  1  0.90501249  0.69733548  0.49874927  1
  Sc  Sc80  1  0.88618899  0.29831751  0.49875898  1
  Sc  Sc81  1  0.30301692  0.89549451  0.91120684  1
  Sc  Sc82  1  0.89495731  0.91145276  0.69830426  1
  Sc  Sc83  1  0.10046515  0.89843497  0.29888052  1
  Sc  Sc84  1  0.89280110  0.49903626  0.10391585  1
  Sc  Sc85  1  0.90917254  0.69965541  0.09872625  1
  Sc  Sc86  1  0.49833876  0.29561380  0.89792908  1
  Sc  Sc87  1  0.69711371  0.49763908  0.50300145  1
  Sc  Sc88  1  0.10364549  0.29850716  0.70708710  1
  Sc  Sc89  1  0.69896801  0.90065330  0.08919265  1
  Sc  Sc90  1  0.10318185  0.90027497  0.91074177  1
  Sc  Sc91  1  0.70495409  0.10491879  0.70031984  1
  Sc  Sc92  1  0.10523166  0.69963892  0.09700904  1
  Sc  Sc93  1  0.09346451  0.10217016  0.69835303  1
  Sc  Sc94  1  0.90015534  0.89792019  0.09053409  1
  Sc  Sc95  1  0.69445533  0.69434118  0.50782477  1
  Sc  Sc96  1  0.09724621  0.51077267  0.89228296  1
  Sc  Sc97  1  0.51155706  0.70220997  0.09915479  1
  Sc  Sc98  1  0.49849040  0.89541721  0.90278214  1
  Sc  Sc99  1  0.70434966  0.90651997  0.50290202  1
  Nb  Nb100  1  0.90257970  0.90754475  0.89886473  1
  Nb  Nb101  1  0.09833005  0.49780040  0.29647885  1
  Nb  Nb102  1  0.10600573  0.30214175  0.30235501  1
  Nb  Nb103  1  0.10753593  0.50065166  0.10514964  1
  Nb  Nb104  1  0.50618652  0.50649047  0.49635460  1
  Nb  Nb105  1  0.89518272  0.69072428  0.29739383  1
  Nb  Nb106  1  0.30243797  0.69415367  0.10066289  1
  Nb  Nb107  1  0.30099686  0.10252776  0.50469867  1
  Nb  Nb108  1  0.90143742  0.49529642  0.90217231  1
  Nb  Nb109  1  0.70527679  0.69777492  0.09656967  1
  Nb  Nb110  1  0.49687247  0.50147871  0.89781859  1
  Nb  Nb111  1  0.10092330  0.89018756  0.50158281  1
  Nb  Nb112  1  0.10340838  0.10629290  0.90340506  1
  Nb  Nb113  1  0.49707127  0.90622322  0.09401077  1
  Nb  Nb114  1  0.30390613  0.49800288  0.90024954  1
  Nb  Nb115  1  0.50426589  0.10454760  0.29820652  1
  Nb  Nb116  1  0.90729374  0.51276807  0.30035853  1
  Nb  Nb117  1  0.50200116  0.50150196  0.30429833  1
  Nb  Nb118  1  0.69615859  0.50590533  0.09804567  1
  Nb  Nb119  1  0.10091475  0.29530079  0.90323442  1
  Nb  Nb120  1  0.29787457  0.50236285  0.09884611  1
  Nb  Nb121  1  0.90169568  0.29967201  0.69610046  1
  Nb  Nb122  1  0.69832240  0.70413242  0.90435816  1
  Nb  Nb123  1  0.29839604  0.70143959  0.49702885  1
  Nb  Nb124  1  0.49685617  0.49819625  0.09775945  1
  Nb  Nb125  1  0.19530887  0.80276518  0.79666350  1
  Nb  Nb126  1  0.79324513  0.59970320  -0.00104300  1
  Nb  Nb127  1  0.19788440  0.79211193  0.40513620  1
  Nb  Nb128  1  0.80279596  0.79296213  0.39127317  1
  Nb  Nb129  1  0.00462193  0.40086563  0.20272483  1
  Nb  Nb130  1  0.39910494  0.59256204  0.00366310  1
  Nb  Nb131  1  0.39958634  0.19414902  0.20812476  1
  Nb  Nb132  1  0.60263955  -0.00546540  0.80212871  1
  Nb  Nb133  1  0.20199418  0.19905996  0.20502266  1
  Nb  Nb134  1  0.00304217  0.20501618  0.20686352  1
  Nb  Nb135  1  0.59899542  0.41127259  0.00049235  1
  Nb  Nb136  1  0.00207782  0.00673516  -0.00657230  1
  Nb  Nb137  1  0.19880760  0.40751555  -0.00358353  1
  Nb  Nb138  1  0.00540024  0.40234622  -0.00134065  1
  Nb  Nb139  1  0.79985517  0.79747842  0.20203733  1
  Nb  Nb140  1  0.19667933  -0.00215702  0.80382199  1
  Nb  Nb141  1  0.39904284  0.19729500  0.59497282  1
  Nb  Nb142  1  0.00164972  0.80850203  0.80184651  1
  Nb  Nb143  1  -0.00005148  0.39733193  0.39407035  1
  Nb  Nb144  1  0.00113448  0.20436731  0.39306074  1
  Nb  Nb145  1  0.79781516  -0.00528245  0.19983974  1
  Nb  Nb146  1  0.60118331  0.60125689  0.80443353  1
  Nb  Nb147  1  0.40199508  0.59341729  0.19559891  1
  Nb  Nb148  1  -0.00626249  0.39496735  0.60030193  1
  Nb  Nb149  1  0.20133111  0.60475784  0.39936330  1
  Pd  Pd150  1  0.20195639  0.60799547  0.20688179  1
  Pd  Pd151  1  0.19742997  -0.01047494  0.40817585  1
  Pd  Pd152  1  0.40806738  0.00653967  0.59883299  1
  Pd  Pd153  1  0.00155231  0.79116746  0.40106652  1
  Pd  Pd154  1  -0.00575084  0.20386896  0.59132252  1
  Pd  Pd155  1  0.40150819  0.20097648  0.79147911  1
  Pd  Pd156  1  0.00143162  0.19887302  0.80085270  1
  Pd  Pd157  1  0.61016483  0.79827668  0.40956644  1
  Pd  Pd158  1  0.80882345  0.80204913  0.80277525  1
  Pd  Pd159  1  0.19887841  0.59388369  0.59769258  1
  Pd  Pd160  1  0.20138416  0.60569388  0.80206147  1
  Pd  Pd161  1  -0.00655551  0.58983074  0.00560869  1
  Pd  Pd162  1  -0.00371256  0.79967979  0.19769625  1
  Pd  Pd163  1  0.59168732  0.59647123  0.19999324  1
  Pd  Pd164  1  0.79301086  0.60467412  0.40693484  1
  Pd  Pd165  1  0.60823839  0.40664237  0.39931289  1
  Pd  Pd166  1  0.39941274  0.40236588  0.40643999  1
  Pd  Pd167  1  0.79931448  0.39369047  0.79202831  1
  Pd  Pd168  1  0.40076557  -0.00180798  0.80754189  1
  Pd  Pd169  1  0.59817047  0.19647453  0.59353935  1
  Pd  Pd170  1  0.40205526  0.00073367  0.20483896  1
  Pd  Pd171  1  0.38951924  0.79674635  0.80354741  1
  Pd  Pd172  1  0.60496367  0.00452246  0.60775020  1
  Pd  Pd173  1  0.40483224  0.39105565  0.59191144  1
  Pd  Pd174  1  0.40373780  0.60179210  0.60528810  1
  Pd  Pd175  1  0.80443672  0.59869743  0.59718888  1
  Pd  Pd176  1  0.18961608  0.40829353  0.59778063  1
  Pd  Pd177  1  0.40108491  0.39828559  -0.00620565  1
  Pd  Pd178  1  0.39851407  -0.00315610  -0.00270493  1
  Pd  Pd179  1  0.80181225  0.60767694  0.80836153  1
  Pd  Pd180  1  0.59880218  0.40196515  0.80484714  1
  Pd  Pd181  1  -0.00140947  0.00294399  0.59169366  1
  Pd  Pd182  1  0.21540481  0.20856857  0.00866113  1
  Pd  Pd183  1  0.79981760  0.19748276  -0.00864425  1
  Pd  Pd184  1  0.40652586  0.39887396  0.20411258  1
  Pd  Pd185  1  0.40361934  0.20746050  0.40500417  1
  Pd  Pd186  1  0.60624925  0.21178098  0.00007564  1
  Pd  Pd187  1  0.60247926  -0.00817251  0.19826930  1
  Pd  Pd188  1  0.40420652  0.60956471  0.80538031  1
  Pd  Pd189  1  0.59916240  0.80549925  0.00133154  1
  Pd  Pd190  1  0.39217424  0.59166852  0.39072436  1
  Pd  Pd191  1  0.41263911  0.79525740  0.19194595  1
  Pd  Pd192  1  0.59820714  0.59813714  -0.00748595  1
  Pd  Pd193  1  0.39465873  0.20615279  0.00914175  1
  Pd  Pd194  1  -0.01544744  0.58653821  0.60105225  1
  Pd  Pd195  1  0.40495999  -0.00914015  0.40073212  1
  Pd  Pd196  1  0.59800261  0.40215486  0.19536780  1
  Pd  Pd197  1  0.00328277  0.00510402  0.41122472  1
  Pd  Pd198  1  0.19362415  0.41448032  0.41316512  1
  Pd  Pd199  1  0.60224228  0.80790887  0.19120313  1
  Rh  Rh200  1  0.00389563  0.39515025  0.80070768  1
  Rh  Rh201  1  0.60615283  0.80192272  0.80460656  1
  Rh  Rh202  1  0.79788545  0.00454438  0.60070666  1
  Rh  Rh203  1  0.60448604  0.20267598  0.40429679  1
  Rh  Rh204  1  0.79118726  -0.00103465  0.79502006  1
  Rh  Rh205  1  0.00060187  0.81028784  -0.00348724  1
  Rh  Rh206  1  0.60399167  0.79773118  0.59565453  1
  Rh  Rh207  1  0.80158268  0.79846133  0.58651283  1
  Rh  Rh208  1  0.19918465  -0.00211793  -0.00442978  1
  Rh  Rh209  1  0.60267009  0.18988737  0.80273710  1
  Rh  Rh210  1  0.59225048  0.59762345  0.60596374  1
  Rh  Rh211  1  -0.01064125  0.19831561  -0.00761567  1
  Rh  Rh212  1  0.19709055  -0.00134386  0.60207381  1
  Rh  Rh213  1  0.59824994  0.40401809  0.59754704  1
  Rh  Rh214  1  0.39395427  0.80718124  0.40744170  1
  Rh  Rh215  1  0.20770930  -0.00022948  0.20283706  1
  Rh  Rh216  1  0.80408894  0.40936853  0.20166781  1
  Rh  Rh217  1  0.60462761  0.59532294  0.39850688  1
  Rh  Rh218  1  0.59590668  0.20344215  0.19696257  1
  Rh  Rh219  1  0.80432376  0.79248121  0.00350391  1
  Rh  Rh220  1  0.79998316  0.40584175  0.39229030  1
  Rh  Rh221  1  0.80850251  0.00480876  0.00326049  1
  Rh  Rh222  1  0.00479339  0.59841447  0.40183150  1
  Rh  Rh223  1  0.19313264  0.79269689  0.20539388  1
  Rh  Rh224  1  -0.01144124  0.61097873  0.80226872  1
  Rh  Rh225  1  0.01056242  -0.00426651  0.81051873  1
  Rh  Rh226  1  0.19428939  0.19269852  0.79398019  1
  Rh  Rh227  1  -0.00013986  0.59517864  0.19041109  1
  Rh  Rh228  1  0.20348878  0.59273846  -0.00133806  1
  Rh  Rh229  1  0.19933444  0.79924659  0.00569109  1
  Rh  Rh230  1  0.79891365  0.40704212  -0.00032856  1
  Rh  Rh231  1  -0.00693203  0.80661716  0.60711578  1
  Rh  Rh232  1  0.80408079  -0.01194006  0.39477756  1
  Rh  Rh233  1  0.19286375  0.18983549  0.39747092  1
  Rh  Rh234  1  0.80552508  0.40059692  0.60614357  1
  Rh  Rh235  1  0.79804950  0.20243235  0.39837324  1
  Rh  Rh236  1  0.79813256  0.20120288  0.60165205  1
  Rh  Rh237  1  0.20147795  0.80313741  0.59906816  1
  Rh  Rh238  1  0.80106102  0.20493834  0.79375212  1
  Rh  Rh239  1  0.40533052  0.39234584  0.80255050  1
  Rh  Rh240  1  0.19473515  0.39257472  0.18969369  1
  Rh  Rh241  1  0.40436193  0.79230762  0.01035305  1
  Rh  Rh242  1  -0.01375497  0.00641043  0.18403999  1
  Rh  Rh243  1  0.39814129  0.79777655  0.59471392  1
  Rh  Rh244  1  0.59490565  -0.00308188  0.39983458  1
  Rh  Rh245  1  0.20485887  0.19922334  0.60388526  1
  Rh  Rh246  1  0.59932936  -0.00525011  -0.00934287  1
  Rh  Rh247  1  0.18961113  0.40457556  0.80890131  1
  Rh  Rh248  1  0.79960862  0.18847561  0.20293097  1
  Rh  Rh249  1  0.80470156  0.60486756  0.18952739  1
