# generated using pymatgen
data_ZrScNbPdRh
_symmetry_space_group_name_H-M   'P 1'
_cell_length_a   16.56408014
_cell_length_b   16.56346338
_cell_length_c   16.57076512
_cell_angle_alpha   89.98393104
_cell_angle_beta   90.01673833
_cell_angle_gamma   89.99557596
_symmetry_Int_Tables_number   1
_chemical_formula_structural   ZrScNbPdRh
_chemical_formula_sum   'Zr50 Sc50 Nb50 Pd50 Rh50'
_cell_volume   4546.33045197
_cell_formula_units_Z   50
loop_
 _symmetry_equiv_pos_site_id
 _symmetry_equiv_pos_as_xyz
  1  'x, y, z'
loop_
 _atom_site_type_symbol
 _atom_site_label
 _atom_site_symmetry_multiplicity
 _atom_site_fract_x
 _atom_site_fract_y
 _atom_site_fract_z
 _atom_site_occupancy
  Zr  Zr0  1  0.90359391  0.31549137  0.09896555  1
  Zr  Zr1  1  0.29393000  0.51295612  0.09447393  1
  Zr  Zr2  1  0.10144426  0.51713779  0.30307612  1
  Zr  Zr3  1  0.10385140  0.69148288  0.49436116  1
  Zr  Zr4  1  0.10463962  0.09413029  0.90587093  1
  Zr  Zr5  1  0.69565907  0.49047996  0.70259662  1
  Zr  Zr6  1  0.50672569  0.10560733  0.49744599  1
  Zr  Zr7  1  0.50170729  0.69889352  0.28481588  1
  Zr  Zr8  1  0.09845858  0.50082004  0.50605867  1
  Zr  Zr9  1  0.89787397  0.69777738  0.90400893  1
  Zr  Zr10  1  0.90025584  0.90332047  0.69768058  1
  Zr  Zr11  1  0.30312878  0.10929327  0.29210108  1
  Zr  Zr12  1  0.70391860  0.70075373  0.49739791  1
  Zr  Zr13  1  0.50513188  0.90312165  0.09872827  1
  Zr  Zr14  1  0.69564668  0.31058807  0.30088452  1
  Zr  Zr15  1  0.90253834  0.09210259  0.89799190  1
  Zr  Zr16  1  0.69652605  0.49866123  0.09986159  1
  Zr  Zr17  1  0.69573957  0.29606032  0.10534268  1
  Zr  Zr18  1  0.31652751  0.10108247  0.50463532  1
  Zr  Zr19  1  0.69394742  0.90216496  0.29007619  1
  Zr  Zr20  1  0.69239591  0.49527431  0.90462601  1
  Zr  Zr21  1  0.30183119  0.70781291  0.68864389  1
  Zr  Zr22  1  0.89761490  0.50320743  0.29223511  1
  Zr  Zr23  1  0.30747306  0.89064644  0.49694328  1
  Zr  Zr24  1  0.30154247  0.29348736  0.10172879  1
  Zr  Zr25  1  0.49611897  0.90332020  0.90805093  1
  Zr  Zr26  1  0.50224911  0.10816253  0.89994243  1
  Zr  Zr27  1  0.70149391  0.10148062  0.89839927  1
  Zr  Zr28  1  0.49398487  0.29426621  0.09079298  1
  Zr  Zr29  1  0.30973082  0.29821617  0.90591669  1
  Zr  Zr30  1  0.90397674  0.10083036  0.31144896  1
  Zr  Zr31  1  0.49877005  0.50250640  0.70806890  1
  Zr  Zr32  1  0.10333873  0.09476828  0.30163356  1
  Zr  Zr33  1  0.29347166  0.10371720  0.09907441  1
  Zr  Zr34  1  0.70493459  0.89659983  0.50143399  1
  Zr  Zr35  1  0.09094711  0.49959693  0.10429425  1
  Zr  Zr36  1  0.10256948  0.29737569  0.09687874  1
  Zr  Zr37  1  0.29784730  0.90223010  0.88628941  1
  Zr  Zr38  1  0.49745982  0.69430474  0.69922671  1
  Zr  Zr39  1  0.90281862  0.51219651  0.50126801  1
  Zr  Zr40  1  0.90159833  0.89957624  0.89828021  1
  Zr  Zr41  1  0.89592717  0.09337985  0.50773924  1
  Zr  Zr42  1  0.30191065  0.50040591  0.30643979  1
  Zr  Zr43  1  0.89864643  0.70283415  0.49452444  1
  Zr  Zr44  1  0.09544953  0.30104092  0.50259334  1
  Zr  Zr45  1  0.89907531  0.90009389  0.50200912  1
  Zr  Zr46  1  0.89901043  0.49977274  0.91420158  1
  Zr  Zr47  1  0.69438199  0.71161964  0.10057097  1
  Zr  Zr48  1  0.49195246  0.90267850  0.28988307  1
  Zr  Zr49  1  0.89571996  0.69902462  0.10516440  1
  Sc  Sc50  1  0.50094028  0.29851556  0.50026708  1
  Sc  Sc51  1  0.08606607  0.10171159  0.49696983  1
  Sc  Sc52  1  0.90630474  0.88969603  0.30545596  1
  Sc  Sc53  1  0.30150124  0.28417924  0.69930939  1
  Sc  Sc54  1  0.09572155  0.50709365  0.90729031  1
  Sc  Sc55  1  0.09859933  0.29549641  0.69325331  1
  Sc  Sc56  1  0.89431523  0.30416872  0.90245923  1
  Sc  Sc57  1  0.90088014  0.68882145  0.70440156  1
  Sc  Sc58  1  0.69527159  0.10624046  0.29256600  1
  Sc  Sc59  1  0.10539910  0.29169626  0.30753823  1
  Sc  Sc60  1  0.50731927  0.29640257  0.70755287  1
  Sc  Sc61  1  0.29381102  0.71194879  0.29358842  1
  Sc  Sc62  1  0.89399661  0.29331536  0.50101572  1
  Sc  Sc63  1  0.30087916  0.09701198  0.89579029  1
  Sc  Sc64  1  0.90125190  0.70169118  0.29991194  1
  Sc  Sc65  1  0.49739138  0.49409117  0.49969002  1
  Sc  Sc66  1  0.89551647  0.10098609  0.70304380  1
  Sc  Sc67  1  0.09416074  0.89879689  0.49307552  1
  Sc  Sc68  1  0.10668825  0.69203293  0.11188675  1
  Sc  Sc69  1  0.48691295  0.89690098  0.69805906  1
  Sc  Sc70  1  0.49733605  0.90642419  0.49374027  1
  Sc  Sc71  1  0.11160404  0.90283786  0.10665338  1
  Sc  Sc72  1  0.69596849  0.69122383  0.69316946  1
  Sc  Sc73  1  0.31374394  0.50039145  0.90182202  1
  Sc  Sc74  1  0.30062378  0.30218284  0.49037229  1
  Sc  Sc75  1  0.49582310  0.09840131  0.10084426  1
  Sc  Sc76  1  0.89271010  0.50162236  0.69654967  1
  Sc  Sc77  1  0.30481226  0.69423231  0.90353360  1
  Sc  Sc78  1  0.10048101  0.29325378  0.89665770  1
  Sc  Sc79  1  0.69723432  0.29580311  0.50676187  1
  Sc  Sc80  1  0.70288202  0.11465165  0.70308491  1
  Sc  Sc81  1  0.69869126  0.90054450  0.91646690  1
  Sc  Sc82  1  0.49181252  0.11098564  0.69556485  1
  Sc  Sc83  1  0.69927597  0.69552643  0.91246777  1
  Sc  Sc84  1  0.49525850  0.70348974  0.09477500  1
  Sc  Sc85  1  0.88849586  0.89961354  0.10027179  1
  Sc  Sc86  1  0.10079481  0.10640290  0.70192003  1
  Sc  Sc87  1  0.29329299  0.49915482  0.49825996  1
  Sc  Sc88  1  0.49997899  0.50834539  0.09791330  1
  Sc  Sc89  1  0.11415950  0.88869190  0.70982494  1
  Sc  Sc90  1  0.50469281  0.30159491  0.30389684  1
  Sc  Sc91  1  0.69327306  0.30044547  0.89977000  1
  Sc  Sc92  1  0.70082498  0.49463445  0.50173913  1
  Sc  Sc93  1  0.89183968  0.30147165  0.30277453  1
  Sc  Sc94  1  0.70147821  0.89467043  0.69289221  1
  Sc  Sc95  1  0.49646488  0.70218202  0.50977103  1
  Sc  Sc96  1  0.31016512  0.90509624  0.10484555  1
  Sc  Sc97  1  0.10403148  0.90206740  0.89373402  1
  Sc  Sc98  1  0.70826594  0.69967608  0.29060920  1
  Sc  Sc99  1  0.10042605  0.70269092  0.88819736  1
  Nb  Nb100  1  0.10038656  0.71184511  0.30091854  1
  Nb  Nb101  1  0.29468329  0.90177945  0.29711624  1
  Nb  Nb102  1  0.50187013  0.49958407  0.30114450  1
  Nb  Nb103  1  0.50354407  0.69695053  0.90114470  1
  Nb  Nb104  1  0.49802146  0.30567627  0.90293633  1
  Nb  Nb105  1  0.10125531  0.49690216  0.69361730  1
  Nb  Nb106  1  0.30296013  0.09343251  0.69590144  1
  Nb  Nb107  1  0.70321873  0.09212313  0.10391832  1
  Nb  Nb108  1  0.90036379  0.09829088  0.10520706  1
  Nb  Nb109  1  0.10238952  0.10046450  0.10161988  1
  Nb  Nb110  1  0.30214158  0.30441887  0.29613129  1
  Nb  Nb111  1  0.70701332  0.29866751  0.70486799  1
  Nb  Nb112  1  0.69890268  0.09691313  0.50447469  1
  Nb  Nb113  1  0.69392851  0.90570630  0.10194031  1
  Nb  Nb114  1  0.50274859  0.49403122  0.90149337  1
  Nb  Nb115  1  0.90889338  0.49856662  0.09723592  1
  Nb  Nb116  1  0.30528746  0.69775278  0.49624369  1
  Nb  Nb117  1  0.29930613  0.90556548  0.69679936  1
  Nb  Nb118  1  0.10996673  0.89291875  0.30023462  1
  Nb  Nb119  1  0.30219043  0.49965790  0.69882555  1
  Nb  Nb120  1  0.68657604  0.49746558  0.29854493  1
  Nb  Nb121  1  0.29746096  0.69825276  0.09461035  1
  Nb  Nb122  1  0.88738035  0.29874529  0.70512257  1
  Nb  Nb123  1  0.50214925  0.10077007  0.29769463  1
  Nb  Nb124  1  0.10324015  0.69542962  0.69603384  1
  Nb  Nb125  1  0.80458305  0.19378270  0.01011394  1
  Nb  Nb126  1  -0.00074617  0.40650594  0.40310046  1
  Nb  Nb127  1  0.59874584  0.80120308  0.80438651  1
  Nb  Nb128  1  0.00297640  0.00329568  0.20013405  1
  Nb  Nb129  1  0.20217099  0.79605355  0.00101994  1
  Nb  Nb130  1  0.20184079  0.40158800  0.00007335  1
  Nb  Nb131  1  0.39653393  0.40170387  0.60792897  1
  Nb  Nb132  1  0.20100875  0.59358150  0.78883586  1
  Nb  Nb133  1  0.79535362  0.79848497  0.80400978  1
  Nb  Nb134  1  0.59870860  0.79574026  0.39519005  1
  Nb  Nb135  1  0.40321859  0.60389174  0.39748973  1
  Nb  Nb136  1  0.00523355  0.80084625  0.00252567  1
  Nb  Nb137  1  0.20741368  -0.00290066  0.40031932  1
  Nb  Nb138  1  0.59630020  0.60052005  0.39350069  1
  Nb  Nb139  1  0.39577621  0.40148248  0.20184243  1
  Nb  Nb140  1  0.20356305  0.40130710  0.19936257  1
  Nb  Nb141  1  0.19993410  0.40625696  0.79803505  1
  Nb  Nb142  1  -0.00450724  0.19122813  0.00641775  1
  Nb  Nb143  1  0.00226136  0.40289955  0.79378053  1
  Nb  Nb144  1  -0.00102233  0.19482580  0.19521504  1
  Nb  Nb145  1  0.00516456  0.79218125  0.60440061  1
  Nb  Nb146  1  0.20747665  -0.00096380  0.59737041  1
  Nb  Nb147  1  0.59840738  -0.00295044  0.79587989  1
  Nb  Nb148  1  0.60079190  0.00587660  0.60241424  1
  Nb  Nb149  1  0.79585210  0.00047909  0.40276000  1
  Pd  Pd150  1  0.80931482  0.78814979  0.61196678  1
  Pd  Pd151  1  0.79584220  0.59815925  0.00990214  1
  Pd  Pd152  1  -0.00618686  0.79708471  0.79763460  1
  Pd  Pd153  1  0.59845814  0.59229560  0.58958361  1
  Pd  Pd154  1  0.60638348  0.20340652  0.39762978  1
  Pd  Pd155  1  0.40421821  0.20643926  0.39442958  1
  Pd  Pd156  1  0.79045809  0.59399987  0.39334558  1
  Pd  Pd157  1  0.78711559  -0.00813563  0.79357179  1
  Pd  Pd158  1  -0.01280661  0.39488957  0.60205392  1
  Pd  Pd159  1  0.39644369  0.39158804  0.79398575  1
  Pd  Pd160  1  0.60734852  0.19450689  0.00549783  1
  Pd  Pd161  1  0.20445993  0.19992698  0.80336508  1
  Pd  Pd162  1  0.20220094  0.19058722  0.40972733  1
  Pd  Pd163  1  0.58493436  0.39744532  0.19196263  1
  Pd  Pd164  1  0.60519399  -0.00455128  0.40164505  1
  Pd  Pd165  1  0.80310349  0.39827602  0.59478073  1
  Pd  Pd166  1  0.40757327  0.79163088  0.39243690  1
  Pd  Pd167  1  0.00231753  0.80672063  0.19175178  1
  Pd  Pd168  1  0.39570454  0.60425971  0.80284466  1
  Pd  Pd169  1  0.79541754  0.59487782  0.19459749  1
  Pd  Pd170  1  0.80393143  0.40383403  0.80709171  1
  Pd  Pd171  1  0.79776433  0.40640846  0.19711638  1
  Pd  Pd172  1  0.20148141  0.19233982  0.58942647  1
  Pd  Pd173  1  -0.01058674  0.20232029  0.60593953  1
  Pd  Pd174  1  0.00825970  0.61429311  0.00442025  1
  Pd  Pd175  1  0.80436790  0.20296787  0.19876851  1
  Pd  Pd176  1  -0.00749405  0.20703555  0.80475190  1
  Pd  Pd177  1  0.78999018  0.19441028  0.40194720  1
  Pd  Pd178  1  0.20719248  0.59971773  0.60023057  1
  Pd  Pd179  1  0.19412008  0.80586483  0.58993625  1
  Pd  Pd180  1  0.00395725  -0.00721111  0.01052973  1
  Pd  Pd181  1  0.39294529  0.59895871  0.20240635  1
  Pd  Pd182  1  0.01789023  -0.01024200  0.61135715  1
  Pd  Pd183  1  0.40869572  0.00668144  0.79738787  1
  Pd  Pd184  1  0.59071641  0.80919320  0.59950647  1
  Pd  Pd185  1  0.79055245  0.60169117  0.80251123  1
  Pd  Pd186  1  0.79914740  0.00172081  0.00200794  1
  Pd  Pd187  1  0.80856447  -0.00481162  0.21174604  1
  Pd  Pd188  1  0.40169195  0.79385566  0.80200980  1
  Pd  Pd189  1  0.39355680  0.80122557  0.00117348  1
  Pd  Pd190  1  0.01050603  -0.00141293  0.79039842  1
  Pd  Pd191  1  0.60575727  0.60566360  0.80613039  1
  Pd  Pd192  1  0.01013126  0.39233707  0.21706681  1
  Pd  Pd193  1  0.20799946  -0.00992495  0.00158766  1
  Pd  Pd194  1  0.21035607  0.38955383  0.60618099  1
  Pd  Pd195  1  0.80275900  0.40555013  0.40544821  1
  Pd  Pd196  1  0.59255580  0.39481959  0.60266453  1
  Pd  Pd197  1  0.00469325  0.58937494  0.79439227  1
  Pd  Pd198  1  0.39628532  0.00294598  0.39122691  1
  Pd  Pd199  1  0.19024782  0.40036597  0.39561101  1
  Rh  Rh200  1  0.39615666  0.59016796  0.58940823  1
  Rh  Rh201  1  0.19474636  0.20564448  0.20293573  1
  Rh  Rh202  1  0.78881933  0.80736110  0.38868376  1
  Rh  Rh203  1  0.20061357  -0.00045922  0.20580347  1
  Rh  Rh204  1  0.59423446  0.00892244  0.19614025  1
  Rh  Rh205  1  0.59892648  0.39436742  0.80189681  1
  Rh  Rh206  1  0.00847134  0.39219007  -0.01506583  1
  Rh  Rh207  1  0.79023678  0.00722305  0.60283178  1
  Rh  Rh208  1  0.41156743  0.20584652  0.20717679  1
  Rh  Rh209  1  0.40197027  0.21138675  0.59789915  1
  Rh  Rh210  1  0.21100655  0.61282213  0.39429502  1
  Rh  Rh211  1  0.80502306  0.80264796  -0.00239672  1
  Rh  Rh212  1  0.59531293  0.39877353  0.00279287  1
  Rh  Rh213  1  0.79994573  0.80632981  0.19967910  1
  Rh  Rh214  1  0.60110813  0.40366459  0.40615665  1
  Rh  Rh215  1  0.40978233  0.59949407  -0.00474217  1
  Rh  Rh216  1  0.59506602  0.19643930  0.19833019  1
  Rh  Rh217  1  0.20349584  0.60269014  0.20754641  1
  Rh  Rh218  1  0.40286951  0.80315694  0.59821720  1
  Rh  Rh219  1  0.59470584  0.60032387  0.00124357  1
  Rh  Rh220  1  0.19736691  0.20185787  -0.00823717  1
  Rh  Rh221  1  0.39888445  0.00691820  0.20165327  1
  Rh  Rh222  1  -0.00052756  0.60660253  0.60406647  1
  Rh  Rh223  1  0.59645073  0.79992906  -0.00346589  1
  Rh  Rh224  1  0.40456561  -0.00270587  0.60104960  1
  Rh  Rh225  1  0.79165395  0.39615357  0.00480361  1
  Rh  Rh226  1  0.39769536  0.18989174  -0.00456137  1
  Rh  Rh227  1  -0.00338121  0.60364282  0.39285144  1
  Rh  Rh228  1  0.59814457  0.80204956  0.19870831  1
  Rh  Rh229  1  0.80380378  0.20405562  0.81096608  1
  Rh  Rh230  1  0.19629270  0.60373692  -0.01127728  1
  Rh  Rh231  1  0.19744544  0.00883696  0.78912418  1
  Rh  Rh232  1  0.39433087  0.80047269  0.19359211  1
  Rh  Rh233  1  0.40353736  0.40389392  0.40031242  1
  Rh  Rh234  1  0.79474267  0.59887980  0.60052262  1
  Rh  Rh235  1  0.00517630  0.79507999  0.40529287  1
  Rh  Rh236  1  0.80006207  0.19978136  0.60276327  1
  Rh  Rh237  1  -0.00363481  0.60817122  0.20351149  1
  Rh  Rh238  1  0.60008808  0.00751091  -0.00092973  1
  Rh  Rh239  1  0.00175498  -0.01056600  0.39030088  1
  Rh  Rh240  1  0.20626060  0.79952601  0.18899991  1
  Rh  Rh241  1  0.39573443  0.00494997  -0.00108213  1
  Rh  Rh242  1  0.59929201  0.20133448  0.80130007  1
  Rh  Rh243  1  0.60306486  0.19922657  0.60431371  1
  Rh  Rh244  1  0.21227200  0.78642601  0.80456012  1
  Rh  Rh245  1  0.60493700  0.60090523  0.19879978  1
  Rh  Rh246  1  -0.00429971  0.21353545  0.39716748  1
  Rh  Rh247  1  0.40067525  0.40855950  0.00815121  1
  Rh  Rh248  1  0.20081009  0.80161222  0.40467403  1
  Rh  Rh249  1  0.39943898  0.19936582  0.80298167  1
