# generated using pymatgen
data_ZrScNbPdRh
_symmetry_space_group_name_H-M   'P 1'
_cell_length_a   16.55265541
_cell_length_b   16.55335079
_cell_length_c   16.55665532
_cell_angle_alpha   89.98932662
_cell_angle_beta   89.99644393
_cell_angle_gamma   90.01185161
_symmetry_Int_Tables_number   1
_chemical_formula_structural   ZrScNbPdRh
_chemical_formula_sum   'Zr50 Sc50 Nb50 Pd50 Rh50'
_cell_volume   4536.55502167
_cell_formula_units_Z   50
loop_
 _symmetry_equiv_pos_site_id
 _symmetry_equiv_pos_as_xyz
  1  'x, y, z'
loop_
 _atom_site_type_symbol
 _atom_site_label
 _atom_site_symmetry_multiplicity
 _atom_site_fract_x
 _atom_site_fract_y
 _atom_site_fract_z
 _atom_site_occupancy
  Zr  Zr0  1  0.68820266  0.49750882  0.28981836  1
  Zr  Zr1  1  0.10200369  0.89866830  0.50155818  1
  Zr  Zr2  1  0.90518424  0.69817655  0.49880292  1
  Zr  Zr3  1  0.91169608  0.30533551  0.49993889  1
  Zr  Zr4  1  0.90387725  0.30548294  0.89289249  1
  Zr  Zr5  1  0.29823773  0.70140933  0.69809996  1
  Zr  Zr6  1  0.29936878  0.50052484  0.69347470  1
  Zr  Zr7  1  0.90260382  0.50305148  0.69920729  1
  Zr  Zr8  1  0.49972060  0.50478668  0.10560161  1
  Zr  Zr9  1  0.70423612  0.70181662  0.10505524  1
  Zr  Zr10  1  0.49946753  0.70951392  0.89881223  1
  Zr  Zr11  1  0.10110408  0.09720920  0.30253165  1
  Zr  Zr12  1  0.30161650  0.70268437  0.10137591  1
  Zr  Zr13  1  0.89928373  0.09546386  0.29575492  1
  Zr  Zr14  1  0.89834878  0.10650801  0.10928211  1
  Zr  Zr15  1  0.10683433  0.08935508  0.10522238  1
  Zr  Zr16  1  0.69068438  0.30104315  0.69427569  1
  Zr  Zr17  1  0.10054064  0.89549902  0.90036044  1
  Zr  Zr18  1  0.10305621  0.10065194  0.49244413  1
  Zr  Zr19  1  0.08979021  0.69779176  0.30056073  1
  Zr  Zr20  1  0.69516675  0.69472145  0.30155991  1
  Zr  Zr21  1  0.49818358  0.70258065  0.70556620  1
  Zr  Zr22  1  0.69422373  0.89474293  0.29143920  1
  Zr  Zr23  1  0.49510443  0.70105104  0.29999868  1
  Zr  Zr24  1  0.69571367  0.09865963  0.51024211  1
  Zr  Zr25  1  0.29440975  0.50318626  0.09827122  1
  Zr  Zr26  1  0.70394208  0.70356443  0.70785933  1
  Zr  Zr27  1  0.30425485  0.50480450  0.30728659  1
  Zr  Zr28  1  0.70107151  0.09151783  0.70034299  1
  Zr  Zr29  1  0.49840746  0.50619331  0.90168931  1
  Zr  Zr30  1  0.10368967  0.89170823  0.09177217  1
  Zr  Zr31  1  0.89718996  0.10067777  0.88947879  1
  Zr  Zr32  1  0.30270011  0.30284549  0.29331546  1
  Zr  Zr33  1  0.10574459  0.09795942  0.70475484  1
  Zr  Zr34  1  0.70813608  0.31526076  0.10809713  1
  Zr  Zr35  1  0.10613370  0.89169233  0.70150088  1
  Zr  Zr36  1  0.49769752  0.10008514  0.09716879  1
  Zr  Zr37  1  0.50032282  0.70069990  0.49714238  1
  Zr  Zr38  1  0.29863903  0.89956770  0.10173989  1
  Zr  Zr39  1  0.30387759  0.69768412  0.50082810  1
  Zr  Zr40  1  0.29668701  0.09036249  0.30105030  1
  Zr  Zr41  1  0.10119541  0.50225414  0.29989276  1
  Zr  Zr42  1  0.30424767  0.09508629  0.49823403  1
  Zr  Zr43  1  0.49746097  0.09039054  0.29741565  1
  Zr  Zr44  1  0.09674263  0.30408518  0.70009450  1
  Zr  Zr45  1  0.29846887  0.50010781  0.50164305  1
  Zr  Zr46  1  0.10152756  0.30452139  0.31302715  1
  Zr  Zr47  1  0.10149316  0.69801451  0.10194832  1
  Zr  Zr48  1  0.30280319  0.29700014  0.69423761  1
  Zr  Zr49  1  0.69660229  0.09682957  0.89279743  1
  Sc  Sc50  1  0.30366032  0.90060680  0.50249385  1
  Sc  Sc51  1  0.90015871  0.50357566  0.50085356  1
  Sc  Sc52  1  0.09850465  0.50292570  0.69688012  1
  Sc  Sc53  1  0.70109730  0.89545304  0.10232802  1
  Sc  Sc54  1  0.30458287  0.10249497  0.88907186  1
  Sc  Sc55  1  0.50381349  0.89806267  0.10710879  1
  Sc  Sc56  1  0.68810723  0.29613757  0.50581386  1
  Sc  Sc57  1  0.30059992  0.29202786  0.89869827  1
  Sc  Sc58  1  0.49204718  0.90044880  0.50411297  1
  Sc  Sc59  1  0.30297492  0.90119373  0.69582027  1
  Sc  Sc60  1  0.89299181  0.70177779  0.89857346  1
  Sc  Sc61  1  0.88944160  0.89149984  0.70314323  1
  Sc  Sc62  1  0.30369731  0.10105404  0.10781729  1
  Sc  Sc63  1  0.69796206  0.30714447  0.89029906  1
  Sc  Sc64  1  0.90016440  0.29165335  0.28638742  1
  Sc  Sc65  1  0.90170285  0.89748130  0.29676199  1
  Sc  Sc66  1  0.49247932  0.30006227  0.10213763  1
  Sc  Sc67  1  0.69644602  0.50210993  0.49936105  1
  Sc  Sc68  1  0.29740384  0.89248217  0.89980037  1
  Sc  Sc69  1  0.69878739  0.69268023  0.49738878  1
  Sc  Sc70  1  0.69971225  0.09352172  0.10873431  1
  Sc  Sc71  1  0.10418762  0.50291422  0.89716010  1
  Sc  Sc72  1  0.50038211  0.10001073  0.51057861  1
  Sc  Sc73  1  0.09716572  0.48763172  0.49307151  1
  Sc  Sc74  1  0.89457970  0.89159049  0.09823854  1
  Sc  Sc75  1  0.89385258  0.70477485  0.10065082  1
  Sc  Sc76  1  0.49154676  0.70382882  0.09986924  1
  Sc  Sc77  1  0.90053127  0.30412456  0.69773117  1
  Sc  Sc78  1  0.10457175  0.09800287  0.89022512  1
  Sc  Sc79  1  0.09920449  0.90417418  0.29908488  1
  Sc  Sc80  1  0.69156163  0.89964782  0.89274110  1
  Sc  Sc81  1  0.30470487  0.30956162  0.50343338  1
  Sc  Sc82  1  0.10036876  0.70003258  0.69573973  1
  Sc  Sc83  1  0.90301600  0.10532854  0.50411040  1
  Sc  Sc84  1  0.90374025  0.51120425  0.31176797  1
  Sc  Sc85  1  0.29999174  0.51205213  0.90204741  1
  Sc  Sc86  1  0.90426317  0.88822784  0.50987292  1
  Sc  Sc87  1  0.49720811  0.90509218  0.70459532  1
  Sc  Sc88  1  0.49811083  0.50083093  0.49919253  1
  Sc  Sc89  1  0.10531114  0.70538573  0.89942001  1
  Sc  Sc90  1  0.30759207  0.69912949  0.90343377  1
  Sc  Sc91  1  0.88128873  0.50040494  0.09642406  1
  Sc  Sc92  1  0.70378201  0.50027197  0.70003200  1
  Sc  Sc93  1  0.89682536  0.50109145  0.88721220  1
  Sc  Sc94  1  0.11285694  0.30777039  0.10519037  1
  Sc  Sc95  1  0.50329483  0.29930074  0.51033473  1
  Sc  Sc96  1  0.50440611  0.50301972  0.69775017  1
  Sc  Sc97  1  0.70125240  0.09650471  0.29296508  1
  Sc  Sc98  1  0.90044233  0.89132995  0.90140409  1
  Sc  Sc99  1  0.70439891  0.49729049  0.89599853  1
  Nb  Nb100  1  0.49700521  0.29862019  0.69924058  1
  Nb  Nb101  1  0.69266335  0.50526698  0.10010245  1
  Nb  Nb102  1  0.09526160  0.71561000  0.49894362  1
  Nb  Nb103  1  0.69495376  0.70265553  0.90313908  1
  Nb  Nb104  1  0.30604825  0.10288537  0.69621180  1
  Nb  Nb105  1  0.49105680  0.09947780  0.70508474  1
  Nb  Nb106  1  0.89673359  0.70114222  0.31116712  1
  Nb  Nb107  1  0.09969775  0.50388112  0.09744747  1
  Nb  Nb108  1  0.69524702  0.30125126  0.30278861  1
  Nb  Nb109  1  0.69838195  0.90178518  0.69170881  1
  Nb  Nb110  1  0.70108163  0.90038398  0.50780115  1
  Nb  Nb111  1  0.49961235  0.29674195  0.90297332  1
  Nb  Nb112  1  0.89914249  0.09477125  0.70216427  1
  Nb  Nb113  1  0.10108783  0.29973706  0.50355346  1
  Nb  Nb114  1  0.90316524  0.29991255  0.09634208  1
  Nb  Nb115  1  0.49628192  0.89739033  0.30285527  1
  Nb  Nb116  1  0.49991268  0.90776457  0.89985209  1
  Nb  Nb117  1  0.50655709  0.30474958  0.30328172  1
  Nb  Nb118  1  0.10208342  0.29942464  0.89798510  1
  Nb  Nb119  1  0.89668345  0.69694095  0.69448182  1
  Nb  Nb120  1  0.30358796  0.29827563  0.09387581  1
  Nb  Nb121  1  0.30198695  0.70294689  0.30388104  1
  Nb  Nb122  1  0.50216137  0.09700783  0.89832095  1
  Nb  Nb123  1  0.49992151  0.50026631  0.29712148  1
  Nb  Nb124  1  0.31308075  0.89888144  0.30423347  1
  Nb  Nb125  1  0.00190202  0.00120614  0.60963206  1
  Nb  Nb126  1  0.40617016  0.00062246  -0.00609195  1
  Nb  Nb127  1  0.19972192  0.19874246  0.59797586  1
  Nb  Nb128  1  0.60379345  -0.00709944  0.40314845  1
  Nb  Nb129  1  0.19846058  0.20196801  0.00033904  1
  Nb  Nb130  1  0.00016740  0.59457695  0.00370917  1
  Nb  Nb131  1  0.40179391  0.39596711  0.80276009  1
  Nb  Nb132  1  0.79462468  -0.00383421  0.40519865  1
  Nb  Nb133  1  0.00040193  0.40600468  0.19172981  1
  Nb  Nb134  1  0.80340641  0.00622245  -0.00327376  1
  Nb  Nb135  1  0.60177580  0.20253262  0.00038023  1
  Nb  Nb136  1  0.79992736  0.20191865  0.00067013  1
  Nb  Nb137  1  0.60472456  0.80326692  0.60322071  1
  Nb  Nb138  1  0.60619080  0.60268417  0.00225500  1
  Nb  Nb139  1  0.79630991  0.80123235  0.40130294  1
  Nb  Nb140  1  -0.00342986  0.00597757  -0.00085562  1
  Nb  Nb141  1  0.00256534  0.40053531  0.00286586  1
  Nb  Nb142  1  0.20538513  0.39632540  0.79936438  1
  Nb  Nb143  1  0.79427879  0.20081374  0.39813278  1
  Nb  Nb144  1  0.79449348  0.39124990  0.39537379  1
  Nb  Nb145  1  0.20414335  0.79585710  0.39642710  1
  Nb  Nb146  1  0.40561082  0.20258402  0.39453764  1
  Nb  Nb147  1  0.59854323  0.20763870  0.20190875  1
  Nb  Nb148  1  0.39760284  0.39642759  -0.00331632  1
  Nb  Nb149  1  0.00438330  0.20270338  0.00090991  1
  Pd  Pd150  1  0.00873152  0.59812577  0.59170622  1
  Pd  Pd151  1  0.59324394  0.40313290  0.79534312  1
  Pd  Pd152  1  0.00460646  0.19328548  0.60672305  1
  Pd  Pd153  1  0.00076934  0.20097706  0.79862392  1
  Pd  Pd154  1  0.20151109  0.59971906  0.80068641  1
  Pd  Pd155  1  -0.00498906  0.80029022  0.19936564  1
  Pd  Pd156  1  0.20758554  0.00987978  -0.00923753  1
  Pd  Pd157  1  0.19110449  0.60694664  0.40782948  1
  Pd  Pd158  1  0.80454165  0.59748461  0.20741476  1
  Pd  Pd159  1  0.40600948  0.39573973  0.40394749  1
  Pd  Pd160  1  0.59772440  0.19863800  0.79954160  1
  Pd  Pd161  1  0.80246313  0.39841527  -0.00771540  1
  Pd  Pd162  1  0.20358440  0.39669774  -0.01026910  1
  Pd  Pd163  1  0.40007455  0.40366270  0.19552293  1
  Pd  Pd164  1  0.40396905  0.20382593  0.80131332  1
  Pd  Pd165  1  0.79704639  0.60180249  0.59813067  1
  Pd  Pd166  1  0.80253255  0.20520191  0.59757225  1
  Pd  Pd167  1  0.60374558  0.00263825  0.00474682  1
  Pd  Pd168  1  0.19756383  0.20102139  0.19682062  1
  Pd  Pd169  1  0.60260197  0.80605867  0.40892796  1
  Pd  Pd170  1  0.39658281  0.80746785  0.79952013  1
  Pd  Pd171  1  0.21363412  0.20885448  0.40833304  1
  Pd  Pd172  1  0.20063053  0.40452834  0.20345693  1
  Pd  Pd173  1  -0.00239711  0.79030442  0.79598777  1
  Pd  Pd174  1  0.79469366  0.80329854  0.80535417  1
  Pd  Pd175  1  -0.00572270  -0.00995758  0.79863830  1
  Pd  Pd176  1  0.60037055  0.40484907  0.40779691  1
  Pd  Pd177  1  0.79766458  0.20811158  0.79539558  1
  Pd  Pd178  1  0.18752702  0.60089675  0.58909219  1
  Pd  Pd179  1  -0.00257805  -0.01162249  0.18998178  1
  Pd  Pd180  1  0.59469331  0.40092002  0.00368134  1
  Pd  Pd181  1  0.40512182  0.20111354  0.20697978  1
  Pd  Pd182  1  -0.00783691  0.20054245  0.39515217  1
  Pd  Pd183  1  0.60502604  0.59908692  0.80662210  1
  Pd  Pd184  1  0.60195339  0.60600403  0.60266974  1
  Pd  Pd185  1  -0.01423838  0.59439066  0.19182848  1
  Pd  Pd186  1  0.00068303  0.60745254  0.80703301  1
  Pd  Pd187  1  0.21128012  -0.00557227  0.80157764  1
  Pd  Pd188  1  0.79812039  0.60096145  -0.00760296  1
  Pd  Pd189  1  -0.01190530  -0.00634837  0.41036890  1
  Pd  Pd190  1  0.01617958  0.20932341  0.19546783  1
  Pd  Pd191  1  0.20548430  0.60209584  0.20411324  1
  Pd  Pd192  1  0.20234475  0.80396207  0.21141837  1
  Pd  Pd193  1  0.81087580  0.40841194  0.21219524  1
  Pd  Pd194  1  0.19950700  0.00344884  0.60037134  1
  Pd  Pd195  1  0.40499740  0.59896367  0.60181772  1
  Pd  Pd196  1  0.79779470  0.39857182  0.59136374  1
  Pd  Pd197  1  0.60015331  0.79825433  0.00483732  1
  Pd  Pd198  1  0.59817118  0.18956744  0.39386715  1
  Pd  Pd199  1  0.81295430  -0.00142450  0.59617238  1
  Rh  Rh200  1  0.20431191  0.79214186  -0.00262859  1
  Rh  Rh201  1  0.39686047  0.59560710  0.79373540  1
  Rh  Rh202  1  0.39634061  -0.00270639  0.80459443  1
  Rh  Rh203  1  0.40885609  0.40451543  0.60692386  1
  Rh  Rh204  1  0.59681096  -0.00128985  0.20436637  1
  Rh  Rh205  1  0.59399714  0.59219917  0.39610789  1
  Rh  Rh206  1  0.79957663  -0.00967410  0.80296639  1
  Rh  Rh207  1  0.00051932  0.79402333  0.00083304  1
  Rh  Rh208  1  0.40613780  0.79896476  0.60229323  1
  Rh  Rh209  1  0.00863961  0.40656480  0.80244760  1
  Rh  Rh210  1  0.59757640  0.40452383  0.60149690  1
  Rh  Rh211  1  -0.01042125  0.39694448  0.38996252  1
  Rh  Rh212  1  -0.00290555  0.80267850  0.61291783  1
  Rh  Rh213  1  0.39769878  0.19818761  0.59285976  1
  Rh  Rh214  1  0.60034898  0.80725988  0.79405979  1
  Rh  Rh215  1  0.20684595  0.39749189  0.40173611  1
  Rh  Rh216  1  0.78812329  0.20435674  0.20024603  1
  Rh  Rh217  1  0.20173265  0.20475012  0.79555146  1
  Rh  Rh218  1  0.59291819  0.79426994  0.19777758  1
  Rh  Rh219  1  0.19446497  0.39572609  0.60185057  1
  Rh  Rh220  1  0.80382107  -0.00911152  0.19696185  1
  Rh  Rh221  1  0.20613510  0.79544211  0.79755525  1
  Rh  Rh222  1  -0.00107312  0.80491777  0.39487910  1
  Rh  Rh223  1  0.00739541  0.60148627  0.40892631  1
  Rh  Rh224  1  0.79228047  0.59739572  0.39733203  1
  Rh  Rh225  1  0.00106690  0.40702805  0.60090065  1
  Rh  Rh226  1  0.59267561  0.19208305  0.61487419  1
  Rh  Rh227  1  0.40652849  0.59769843  0.00395551  1
  Rh  Rh228  1  0.40209662  0.00136657  0.60565251  1
  Rh  Rh229  1  0.39516869  0.79989138  0.40401036  1
  Rh  Rh230  1  0.79356566  0.78845581  0.59495480  1
  Rh  Rh231  1  0.20490357  -0.01456699  0.39486342  1
  Rh  Rh232  1  0.39937514  -0.00871464  0.19260828  1
  Rh  Rh233  1  0.40759714  0.00318669  0.40445101  1
  Rh  Rh234  1  0.59604542  -0.00033285  0.79047321  1
  Rh  Rh235  1  0.79889413  0.39887842  0.78884599  1
  Rh  Rh236  1  0.79158770  0.80799551  -0.00631245  1
  Rh  Rh237  1  0.20365803  -0.00927906  0.20692653  1
  Rh  Rh238  1  0.59115556  -0.00437695  0.60298116  1
  Rh  Rh239  1  0.19443195  0.60753686  -0.00117951  1
  Rh  Rh240  1  0.39946176  0.19626056  -0.00393600  1
  Rh  Rh241  1  0.20611178  0.79639980  0.59300455  1
  Rh  Rh242  1  0.40281492  0.81209221  0.00029449  1
  Rh  Rh243  1  0.79815843  0.60382685  0.80115308  1
  Rh  Rh244  1  0.40697641  0.59795364  0.39765030  1
  Rh  Rh245  1  0.40051441  0.80170819  0.20082126  1
  Rh  Rh246  1  0.59196522  0.39478519  0.19488536  1
  Rh  Rh247  1  0.39457364  0.60038972  0.20357553  1
  Rh  Rh248  1  0.59337639  0.60860246  0.19500653  1
  Rh  Rh249  1  0.80330727  0.79531045  0.21111245  1
