# generated using pymatgen
data_ZrScNbPdRh
_symmetry_space_group_name_H-M   'P 1'
_cell_length_a   16.55841298
_cell_length_b   16.55784021
_cell_length_c   16.55412108
_cell_angle_alpha   89.96584433
_cell_angle_beta   90.01087501
_cell_angle_gamma   90.01925236
_symmetry_Int_Tables_number   1
_chemical_formula_structural   ZrScNbPdRh
_chemical_formula_sum   'Zr50 Sc50 Nb50 Pd50 Rh50'
_cell_volume   4538.66799740
_cell_formula_units_Z   50
loop_
 _symmetry_equiv_pos_site_id
 _symmetry_equiv_pos_as_xyz
  1  'x, y, z'
loop_
 _atom_site_type_symbol
 _atom_site_label
 _atom_site_symmetry_multiplicity
 _atom_site_fract_x
 _atom_site_fract_y
 _atom_site_fract_z
 _atom_site_occupancy
  Zr  Zr0  1  0.30310868  0.70156554  0.50561212  1
  Zr  Zr1  1  0.90162089  0.10527628  0.70806203  1
  Zr  Zr2  1  0.50543330  0.09330852  0.50876502  1
  Zr  Zr3  1  0.09844067  0.50138115  0.09729169  1
  Zr  Zr4  1  0.70218002  0.89462590  0.30713524  1
  Zr  Zr5  1  0.50247103  0.29968979  0.89269497  1
  Zr  Zr6  1  0.89816967  0.29966413  0.09669227  1
  Zr  Zr7  1  0.29529553  0.50026667  0.49371685  1
  Zr  Zr8  1  0.30161692  0.09839530  0.10548758  1
  Zr  Zr9  1  0.50638393  0.50035748  0.70020259  1
  Zr  Zr10  1  0.30126467  0.29779045  0.69388913  1
  Zr  Zr11  1  0.49367474  0.69702794  0.70282109  1
  Zr  Zr12  1  0.30554074  0.09610107  0.69511021  1
  Zr  Zr13  1  0.70112880  0.29703931  0.29638704  1
  Zr  Zr14  1  0.69821162  0.09838638  0.91111184  1
  Zr  Zr15  1  0.69160878  0.49925103  0.89969961  1
  Zr  Zr16  1  0.69949053  0.10477405  0.30293141  1
  Zr  Zr17  1  0.28564795  0.30491578  0.48953255  1
  Zr  Zr18  1  0.08701611  0.09732170  0.29491417  1
  Zr  Zr19  1  0.69390937  0.09639080  0.69990251  1
  Zr  Zr20  1  0.29654833  0.89172012  0.49763280  1
  Zr  Zr21  1  0.50437557  0.50658850  0.49692527  1
  Zr  Zr22  1  0.09782173  0.30372587  0.50097069  1
  Zr  Zr23  1  0.30064579  0.30448167  0.89453555  1
  Zr  Zr24  1  0.69961056  0.70630608  0.49815301  1
  Zr  Zr25  1  0.49829737  0.10025255  0.30857089  1
  Zr  Zr26  1  0.50412562  0.90119570  0.89365689  1
  Zr  Zr27  1  0.09369215  0.90053841  0.50217366  1
  Zr  Zr28  1  0.70297593  0.70025316  0.89080748  1
  Zr  Zr29  1  0.90363007  0.50539819  0.69543269  1
  Zr  Zr30  1  0.49746220  0.10680765  0.70462949  1
  Zr  Zr31  1  0.90162741  0.30124864  0.50498669  1
  Zr  Zr32  1  0.91258740  0.90240911  0.69387847  1
  Zr  Zr33  1  0.70345726  0.30208991  0.90555736  1
  Zr  Zr34  1  0.08741167  0.09497115  0.69836571  1
  Zr  Zr35  1  0.50839979  0.29769782  0.50092357  1
  Zr  Zr36  1  0.09768976  0.88832801  0.90796264  1
  Zr  Zr37  1  0.89748965  0.49935592  0.50298952  1
  Zr  Zr38  1  0.29553644  0.70159982  0.30067740  1
  Zr  Zr39  1  0.30091511  0.88710359  0.70338078  1
  Zr  Zr40  1  0.10233632  0.90003965  0.29635133  1
  Zr  Zr41  1  0.50310338  0.69567263  0.50114881  1
  Zr  Zr42  1  0.70090632  0.90311116  0.09940993  1
  Zr  Zr43  1  0.10148709  0.70176063  0.29314393  1
  Zr  Zr44  1  0.69738319  0.50520082  0.70599577  1
  Zr  Zr45  1  0.11610793  0.69921649  0.49735734  1
  Zr  Zr46  1  0.10228925  0.29444250  0.30999375  1
  Zr  Zr47  1  0.29660756  0.50283509  0.70413561  1
  Zr  Zr48  1  0.09874384  0.70667559  0.09803785  1
  Zr  Zr49  1  0.30002547  0.10134031  0.89525811  1
  Sc  Sc50  1  0.69570507  0.29842355  0.70144243  1
  Sc  Sc51  1  0.10406282  0.49933028  0.50819429  1
  Sc  Sc52  1  0.90084737  0.09879556  0.49255999  1
  Sc  Sc53  1  0.70442022  0.29351959  0.49954744  1
  Sc  Sc54  1  0.09290092  0.10750651  0.49139373  1
  Sc  Sc55  1  0.49812594  0.89928440  0.29960902  1
  Sc  Sc56  1  0.50900699  0.10013935  0.10926441  1
  Sc  Sc57  1  0.30669669  0.51200338  0.09678461  1
  Sc  Sc58  1  0.09152693  0.29771050  0.69010976  1
  Sc  Sc59  1  0.50106423  0.50167230  0.90021907  1
  Sc  Sc60  1  0.89752116  0.89747629  0.49837596  1
  Sc  Sc61  1  0.49728546  0.70066577  0.29981707  1
  Sc  Sc62  1  0.88766993  0.49919721  0.90219898  1
  Sc  Sc63  1  0.50005268  0.28878615  0.29661903  1
  Sc  Sc64  1  0.88811805  0.70014521  0.28597754  1
  Sc  Sc65  1  0.70157338  0.50966587  0.49980885  1
  Sc  Sc66  1  0.30250421  0.29700176  0.09530284  1
  Sc  Sc67  1  0.50137804  0.91299346  0.69870343  1
  Sc  Sc68  1  0.30445482  0.70536353  0.09945976  1
  Sc  Sc69  1  0.69996159  0.48778334  0.09500170  1
  Sc  Sc70  1  0.89314491  0.29477734  0.89426494  1
  Sc  Sc71  1  0.69381050  0.89729551  0.71660457  1
  Sc  Sc72  1  0.30009917  0.70733284  0.89609235  1
  Sc  Sc73  1  0.09736373  0.30463900  0.09976658  1
  Sc  Sc74  1  0.50422704  0.30023169  0.10171933  1
  Sc  Sc75  1  0.50057552  0.90512950  0.49782031  1
  Sc  Sc76  1  0.49362937  0.69675036  0.10311624  1
  Sc  Sc77  1  0.09293403  0.09996285  0.89900788  1
  Sc  Sc78  1  0.10420796  0.30625563  0.90494359  1
  Sc  Sc79  1  0.10327771  0.50714481  0.29559861  1
  Sc  Sc80  1  0.10221700  0.51070218  0.69826925  1
  Sc  Sc81  1  0.89217838  0.70419766  0.51208726  1
  Sc  Sc82  1  0.89839712  0.88971836  0.09048821  1
  Sc  Sc83  1  0.49936965  0.50299962  0.09214629  1
  Sc  Sc84  1  0.30516150  0.10315886  0.49734100  1
  Sc  Sc85  1  0.90359322  0.10301237  0.10429571  1
  Sc  Sc86  1  0.70210170  0.70216764  0.30292508  1
  Sc  Sc87  1  0.09870657  0.89663765  0.10376675  1
  Sc  Sc88  1  0.11049607  0.50374579  0.89639406  1
  Sc  Sc89  1  0.89637844  0.29341419  0.69887506  1
  Sc  Sc90  1  0.70040221  0.29257443  0.09864827  1
  Sc  Sc91  1  0.49598777  0.69290995  0.90163095  1
  Sc  Sc92  1  0.90020232  0.90520732  0.30595138  1
  Sc  Sc93  1  0.69392981  0.09991777  0.49494835  1
  Sc  Sc94  1  0.30472928  0.50390848  0.90046560  1
  Sc  Sc95  1  0.89665507  0.29348685  0.29467755  1
  Sc  Sc96  1  0.88887179  0.70204549  0.89984123  1
  Sc  Sc97  1  0.71264712  0.70081985  0.10775606  1
  Sc  Sc98  1  0.89762846  0.49678397  0.10662783  1
  Sc  Sc99  1  0.49846506  0.89349808  0.10796197  1
  Nb  Nb100  1  0.89473311  0.50068986  0.30412616  1
  Nb  Nb101  1  0.90117018  0.10402215  0.89706942  1
  Nb  Nb102  1  0.90079610  0.69736420  0.09858589  1
  Nb  Nb103  1  0.70054448  0.90038172  0.50243699  1
  Nb  Nb104  1  0.10185723  0.10052055  0.10165480  1
  Nb  Nb105  1  0.90024043  0.10265145  0.29798627  1
  Nb  Nb106  1  0.70750544  0.89693491  0.90498933  1
  Nb  Nb107  1  0.49692533  0.09898320  0.89871443  1
  Nb  Nb108  1  0.29797291  0.89762889  0.90459491  1
  Nb  Nb109  1  0.29725583  0.70064111  0.70255999  1
  Nb  Nb110  1  0.89957269  0.70045044  0.70632516  1
  Nb  Nb111  1  0.10129586  0.89831064  0.69856194  1
  Nb  Nb112  1  0.89599184  0.89794628  0.90020668  1
  Nb  Nb113  1  0.30215426  0.10365877  0.29631599  1
  Nb  Nb114  1  0.29700560  0.90494356  0.28834480  1
  Nb  Nb115  1  0.30544970  0.49688124  0.30270233  1
  Nb  Nb116  1  0.70420305  0.09831358  0.10278435  1
  Nb  Nb117  1  0.29847406  0.29938219  0.30204039  1
  Nb  Nb118  1  0.50013199  0.30173242  0.69584321  1
  Nb  Nb119  1  0.49970370  0.50261586  0.30057374  1
  Nb  Nb120  1  0.09816418  0.70024426  0.89979087  1
  Nb  Nb121  1  0.10625960  0.70017983  0.70734494  1
  Nb  Nb122  1  0.70495525  0.50117945  0.30001928  1
  Nb  Nb123  1  0.70558820  0.70094466  0.70387409  1
  Nb  Nb124  1  0.29871421  0.90117140  0.10007315  1
  Nb  Nb125  1  0.60732594  0.80133021  -0.00330282  1
  Nb  Nb126  1  0.80482061  -0.00117428  0.80642845  1
  Nb  Nb127  1  0.40425119  0.19270135  -0.00617136  1
  Nb  Nb128  1  0.60341132  0.59072820  0.20628999  1
  Nb  Nb129  1  -0.00530352  0.60195121  0.39804700  1
  Nb  Nb130  1  0.00108777  0.79455352  0.79707421  1
  Nb  Nb131  1  0.20149991  0.19901022  0.20415670  1
  Nb  Nb132  1  0.79675433  -0.00277370  0.60551935  1
  Nb  Nb133  1  0.19635239  -0.00411599  0.60021749  1
  Nb  Nb134  1  0.00259825  0.79014241  0.39844427  1
  Nb  Nb135  1  0.60545961  0.79836089  0.60239971  1
  Nb  Nb136  1  -0.00092249  0.19759560  -0.00035910  1
  Nb  Nb137  1  0.19881347  0.19508316  0.79460465  1
  Nb  Nb138  1  0.19683451  -0.00530292  0.79961790  1
  Nb  Nb139  1  0.20367863  -0.00235566  0.00025638  1
  Nb  Nb140  1  0.60286322  0.40626377  0.39024522  1
  Nb  Nb141  1  0.40305675  0.39922858  0.59731662  1
  Nb  Nb142  1  -0.00236044  0.40440041  0.79695643  1
  Nb  Nb143  1  -0.00093139  0.60508903  0.00062616  1
  Nb  Nb144  1  -0.00644879  0.40912166  0.39740949  1
  Nb  Nb145  1  0.20315881  0.00034656  0.39354217  1
  Nb  Nb146  1  0.39810244  -0.00058101  -0.00144030  1
  Nb  Nb147  1  0.39675597  0.40260832  0.20807047  1
  Nb  Nb148  1  0.20920965  0.39816743  0.20563282  1
  Nb  Nb149  1  0.79827408  0.00525236  0.20082079  1
  Pd  Pd150  1  0.41265657  0.80617751  0.60272023  1
  Pd  Pd151  1  0.79992186  0.59754745  0.00595687  1
  Pd  Pd152  1  0.79152369  0.39974499  0.60488032  1
  Pd  Pd153  1  0.79844520  0.00321923  0.40211493  1
  Pd  Pd154  1  0.19696057  0.19589355  -0.00101059  1
  Pd  Pd155  1  0.39486759  -0.00649657  0.80202135  1
  Pd  Pd156  1  0.59063529  -0.00641883  0.00259337  1
  Pd  Pd157  1  0.39512439  0.59177142  0.60145886  1
  Pd  Pd158  1  0.18734016  0.39246954  0.78886943  1
  Pd  Pd159  1  0.59288773  0.40278959  0.20160040  1
  Pd  Pd160  1  0.20752851  0.59679777  0.19696338  1
  Pd  Pd161  1  0.79767150  0.18959219  0.59652049  1
  Pd  Pd162  1  0.40259415  0.39553595  0.00686140  1
  Pd  Pd163  1  0.79983777  0.39890482  0.19762605  1
  Pd  Pd164  1  0.40848903  0.80370580  -0.00181611  1
  Pd  Pd165  1  0.41119670  0.39252152  0.39967255  1
  Pd  Pd166  1  0.00067760  -0.01058298  0.81034583  1
  Pd  Pd167  1  0.59400653  0.80281711  0.40428958  1
  Pd  Pd168  1  0.79241613  0.81033232  0.61181545  1
  Pd  Pd169  1  0.00561641  0.39742379  0.21038010  1
  Pd  Pd170  1  0.20954536  0.40540511  0.00941247  1
  Pd  Pd171  1  0.60435297  -0.00098205  0.20786923  1
  Pd  Pd172  1  0.80546994  0.61054837  0.39970911  1
  Pd  Pd173  1  -0.00664471  0.59783373  0.19877312  1
  Pd  Pd174  1  0.60590974  0.61071544  0.01214484  1
  Pd  Pd175  1  0.60059162  0.78800013  0.19450931  1
  Pd  Pd176  1  0.81144338  0.00546862  0.00330176  1
  Pd  Pd177  1  0.19373559  0.18933284  0.60106216  1
  Pd  Pd178  1  0.20012430  0.60794001  -0.00280151  1
  Pd  Pd179  1  0.59297984  0.79437994  0.80063422  1
  Pd  Pd180  1  0.59406678  0.20032795  0.00492482  1
  Pd  Pd181  1  -0.00676711  0.40283259  -0.01254496  1
  Pd  Pd182  1  -0.01031974  0.80562172  0.20527597  1
  Pd  Pd183  1  0.00744438  0.78698633  0.59863661  1
  Pd  Pd184  1  0.39724238  0.60602258  0.39661246  1
  Pd  Pd185  1  0.00086746  0.00446624  0.00397001  1
  Pd  Pd186  1  0.39361176  -0.00287892  0.40140130  1
  Pd  Pd187  1  -0.01147938  -0.00896588  0.19071310  1
  Pd  Pd188  1  0.40024145  0.20720356  0.58949412  1
  Pd  Pd189  1  0.80455584  0.40042174  0.79340022  1
  Pd  Pd190  1  0.79785664  0.39359122  0.40102854  1
  Pd  Pd191  1  0.40700737  -0.00087990  0.19697165  1
  Pd  Pd192  1  0.40124661  0.20295745  0.40685599  1
  Pd  Pd193  1  0.40491298  0.40419763  0.79335177  1
  Pd  Pd194  1  0.60474155  0.20013622  0.80130931  1
  Pd  Pd195  1  0.60593916  0.40143764  0.59223674  1
  Pd  Pd196  1  0.40159139  0.80174097  0.39455740  1
  Pd  Pd197  1  0.00513561  0.60975021  0.59268135  1
  Pd  Pd198  1  0.79456286  0.60225810  0.60365483  1
  Pd  Pd199  1  -0.00581984  0.59923811  0.81137227  1
  Rh  Rh200  1  0.80305280  0.81188858  0.20072559  1
  Rh  Rh201  1  0.79521777  0.79457735  0.00115613  1
  Rh  Rh202  1  0.60457608  0.59695572  0.39042322  1
  Rh  Rh203  1  0.20486557  0.40401539  0.60452854  1
  Rh  Rh204  1  -0.00342321  0.00689406  0.58966231  1
  Rh  Rh205  1  0.79978382  0.39703789  0.00091485  1
  Rh  Rh206  1  0.20276958  0.80063362  0.00610933  1
  Rh  Rh207  1  0.39473959  0.80079645  0.20439516  1
  Rh  Rh208  1  0.59965025  0.39685328  0.80112446  1
  Rh  Rh209  1  0.79460741  0.59175205  0.19481181  1
  Rh  Rh210  1  0.19847155  0.80752202  0.39154074  1
  Rh  Rh211  1  -0.00071288  0.40297893  0.60336881  1
  Rh  Rh212  1  -0.01057995  0.20978009  0.39976060  1
  Rh  Rh213  1  0.60788914  0.00483032  0.80933198  1
  Rh  Rh214  1  0.80194590  0.59664947  0.79834731  1
  Rh  Rh215  1  0.19524402  0.79932362  0.80171785  1
  Rh  Rh216  1  0.39571117  0.20693820  0.19303998  1
  Rh  Rh217  1  0.78946566  0.19162827  0.80410893  1
  Rh  Rh218  1  0.39759490  0.20650905  0.80229220  1
  Rh  Rh219  1  0.20656589  0.79999564  0.19312511  1
  Rh  Rh220  1  0.60781987  0.61108524  0.60687819  1
  Rh  Rh221  1  0.79927377  0.19332961  0.19712367  1
  Rh  Rh222  1  0.39180667  -0.00636292  0.59628206  1
  Rh  Rh223  1  0.01014356  0.21657090  0.81117864  1
  Rh  Rh224  1  0.60306763  0.19680015  0.19862888  1
  Rh  Rh225  1  0.80935733  0.79800763  0.39915198  1
  Rh  Rh226  1  0.80444459  0.19972870  0.39975771  1
  Rh  Rh227  1  0.59972571  0.20476963  0.40010457  1
  Rh  Rh228  1  0.00686004  0.20545737  0.19098093  1
  Rh  Rh229  1  0.19871342  0.59546972  0.39637546  1
  Rh  Rh230  1  0.59786719  0.60415332  0.79957803  1
  Rh  Rh231  1  0.39614672  0.60035986  0.80207323  1
  Rh  Rh232  1  0.60112789  0.19882118  0.60254646  1
  Rh  Rh233  1  0.59737075  0.39577252  -0.00308533  1
  Rh  Rh234  1  0.20656742  0.60666677  0.80399779  1
  Rh  Rh235  1  0.18650273  0.41057764  0.39217197  1
  Rh  Rh236  1  0.00317010  -0.00639955  0.39962881  1
  Rh  Rh237  1  -0.00539307  0.19555813  0.59426166  1
  Rh  Rh238  1  -0.00856308  0.78774635  -0.00765261  1
  Rh  Rh239  1  0.60805464  -0.00783840  0.59997001  1
  Rh  Rh240  1  0.40509274  0.59637875  0.20178992  1
  Rh  Rh241  1  0.40414169  0.80059544  0.80012228  1
  Rh  Rh242  1  0.19644024  0.79877864  0.60651393  1
  Rh  Rh243  1  0.20559437  0.60381393  0.60530151  1
  Rh  Rh244  1  0.39752529  0.60474953  -0.00492543  1
  Rh  Rh245  1  0.81075269  0.80912664  0.79267255  1
  Rh  Rh246  1  0.20095544  0.18536271  0.39353773  1
  Rh  Rh247  1  0.80786974  0.19507995  0.00284067  1
  Rh  Rh248  1  0.19862669  0.00574579  0.20001482  1
  Rh  Rh249  1  0.60018209  -0.00350906  0.39796605  1
