# generated using pymatgen
data_ZrScNbPdRh
_symmetry_space_group_name_H-M   'P 1'
_cell_length_a   16.55702359
_cell_length_b   16.55498963
_cell_length_c   16.55746277
_cell_angle_alpha   89.96008076
_cell_angle_beta   90.00959273
_cell_angle_gamma   89.98366634
_symmetry_Int_Tables_number   1
_chemical_formula_structural   ZrScNbPdRh
_chemical_formula_sum   'Zr50 Sc50 Nb50 Pd50 Rh50'
_cell_volume   4538.42161441
_cell_formula_units_Z   50
loop_
 _symmetry_equiv_pos_site_id
 _symmetry_equiv_pos_as_xyz
  1  'x, y, z'
loop_
 _atom_site_type_symbol
 _atom_site_label
 _atom_site_symmetry_multiplicity
 _atom_site_fract_x
 _atom_site_fract_y
 _atom_site_fract_z
 _atom_site_occupancy
  Zr  Zr0  1  0.89453563  0.10344247  0.89234859  1
  Zr  Zr1  1  0.10103388  0.89947284  0.70777493  1
  Zr  Zr2  1  0.10304278  0.90949957  0.49658801  1
  Zr  Zr3  1  0.89637922  0.69753103  0.50578090  1
  Zr  Zr4  1  0.09997428  0.49946040  0.31275208  1
  Zr  Zr5  1  0.89550168  0.90375942  0.29624443  1
  Zr  Zr6  1  0.89682293  0.70821361  0.10024049  1
  Zr  Zr7  1  0.89333796  0.30026909  0.10449395  1
  Zr  Zr8  1  0.70448874  0.90311629  0.50356977  1
  Zr  Zr9  1  0.69880149  0.90201139  0.29921597  1
  Zr  Zr10  1  0.30479420  0.90366577  0.69853922  1
  Zr  Zr11  1  0.69039240  0.28814547  0.50207840  1
  Zr  Zr12  1  0.09530749  0.50447373  0.10145241  1
  Zr  Zr13  1  0.09660686  0.70549699  0.89530150  1
  Zr  Zr14  1  0.50001178  0.90472871  0.90096157  1
  Zr  Zr15  1  0.69421103  0.69911755  0.89456992  1
  Zr  Zr16  1  0.09789769  0.10647515  0.50573966  1
  Zr  Zr17  1  0.91139575  0.09944419  0.10228720  1
  Zr  Zr18  1  0.29686212  0.70188645  0.70519476  1
  Zr  Zr19  1  0.89919227  0.70202963  0.89287421  1
  Zr  Zr20  1  0.69251541  0.69685702  0.29774099  1
  Zr  Zr21  1  0.90286111  0.49249042  0.89995665  1
  Zr  Zr22  1  0.09262579  0.69976028  0.50042400  1
  Zr  Zr23  1  0.09917861  0.71056098  0.09918598  1
  Zr  Zr24  1  0.70150393  0.10184351  0.30201547  1
  Zr  Zr25  1  0.89804095  0.49604270  0.10009611  1
  Zr  Zr26  1  0.49575488  0.49769498  0.50291693  1
  Zr  Zr27  1  0.29694622  0.69830278  0.09963072  1
  Zr  Zr28  1  0.49578111  0.90256126  0.50095352  1
  Zr  Zr29  1  0.90356923  0.09868561  0.70158984  1
  Zr  Zr30  1  0.69347473  0.49374228  0.89280637  1
  Zr  Zr31  1  0.29651860  0.90224367  0.09774969  1
  Zr  Zr32  1  0.30147844  0.29293851  0.09841309  1
  Zr  Zr33  1  0.30006787  0.29714781  0.90693288  1
  Zr  Zr34  1  0.70196157  0.70213710  0.70570693  1
  Zr  Zr35  1  0.90257346  0.70819289  0.69565582  1
  Zr  Zr36  1  0.70783575  0.89030272  0.10192455  1
  Zr  Zr37  1  0.90051847  0.89159169  0.50727366  1
  Zr  Zr38  1  0.10746049  0.69500150  0.70309606  1
  Zr  Zr39  1  0.49491352  0.49628105  0.71064706  1
  Zr  Zr40  1  0.09319889  0.09911988  0.30030763  1
  Zr  Zr41  1  0.10159370  0.90174234  0.90476849  1
  Zr  Zr42  1  0.89806082  0.10202167  0.29546361  1
  Zr  Zr43  1  0.69295972  0.90413938  0.89310033  1
  Zr  Zr44  1  0.90077259  0.50166700  0.49972427  1
  Zr  Zr45  1  0.29664743  0.51037884  0.70361909  1
  Zr  Zr46  1  0.09782455  0.29444786  0.69017829  1
  Zr  Zr47  1  0.50613703  0.10555849  0.49652426  1
  Zr  Zr48  1  0.49917847  0.70939971  0.49656165  1
  Zr  Zr49  1  0.70531711  0.50648630  0.50088751  1
  Sc  Sc50  1  0.69852601  0.50077346  0.69981250  1
  Sc  Sc51  1  0.50093206  0.69607429  0.70403185  1
  Sc  Sc52  1  0.70755297  0.69472470  0.50093138  1
  Sc  Sc53  1  0.49472207  0.10011633  0.68851563  1
  Sc  Sc54  1  0.09927651  0.29488727  0.89497267  1
  Sc  Sc55  1  0.90585283  0.89944181  0.09935020  1
  Sc  Sc56  1  0.50549180  0.09051711  0.91271444  1
  Sc  Sc57  1  0.30086335  0.49340276  0.31719083  1
  Sc  Sc58  1  0.49865757  0.09780004  0.09770874  1
  Sc  Sc59  1  0.49944014  0.29759137  0.50362318  1
  Sc  Sc60  1  0.29287202  0.68826373  0.89689407  1
  Sc  Sc61  1  0.49902570  0.49915892  0.90352106  1
  Sc  Sc62  1  0.90036275  0.29406140  0.30084536  1
  Sc  Sc63  1  0.29331515  0.71348609  0.30476156  1
  Sc  Sc64  1  0.30129081  0.89779792  0.50271417  1
  Sc  Sc65  1  0.69392315  0.49604430  0.09674746  1
  Sc  Sc66  1  0.89919870  0.49661447  0.29980784  1
  Sc  Sc67  1  0.29570426  0.09116617  0.50724625  1
  Sc  Sc68  1  0.10778562  0.28467470  0.09446524  1
  Sc  Sc69  1  0.30486764  0.31409717  0.49508073  1
  Sc  Sc70  1  0.10254353  0.09872660  0.89820331  1
  Sc  Sc71  1  0.29676618  0.09835084  0.70123044  1
  Sc  Sc72  1  0.69581127  0.09684578  0.50019026  1
  Sc  Sc73  1  0.50333765  0.50582746  0.30314131  1
  Sc  Sc74  1  0.89409370  0.30036809  0.90098202  1
  Sc  Sc75  1  0.90543768  0.89818568  0.89187920  1
  Sc  Sc76  1  0.09796930  0.49407228  0.50345757  1
  Sc  Sc77  1  0.90204506  0.30389297  0.70717696  1
  Sc  Sc78  1  0.30854862  0.49406126  0.89595001  1
  Sc  Sc79  1  0.29778805  0.10417019  0.28252992  1
  Sc  Sc80  1  0.29953626  0.49689801  0.08547740  1
  Sc  Sc81  1  0.09290067  0.50075198  0.90065384  1
  Sc  Sc82  1  0.89825383  0.90374542  0.69859977  1
  Sc  Sc83  1  0.29885016  0.91585189  0.89837407  1
  Sc  Sc84  1  0.51036844  0.09972913  0.28898603  1
  Sc  Sc85  1  0.30115154  0.70640590  0.51259643  1
  Sc  Sc86  1  0.30144356  0.29512031  0.70106342  1
  Sc  Sc87  1  0.90924573  0.30033613  0.50415670  1
  Sc  Sc88  1  0.90596423  0.09648067  0.49928921  1
  Sc  Sc89  1  0.70545795  0.90620045  0.70281558  1
  Sc  Sc90  1  0.70050194  0.30945768  0.70515918  1
  Sc  Sc91  1  0.49902850  0.90516455  0.70163469  1
  Sc  Sc92  1  0.29911707  0.10578487  0.09129172  1
  Sc  Sc93  1  0.90389853  0.70254322  0.30466846  1
  Sc  Sc94  1  0.69882467  0.29663451  0.09524113  1
  Sc  Sc95  1  0.70509582  0.28789745  0.28952173  1
  Sc  Sc96  1  0.90082589  0.49268277  0.69961265  1
  Sc  Sc97  1  0.68888514  0.10670481  0.09995455  1
  Sc  Sc98  1  0.50250429  0.30066885  0.69368354  1
  Sc  Sc99  1  0.29550526  0.50531389  0.50642075  1
  Nb  Nb100  1  0.10277875  0.49347065  0.70181449  1
  Nb  Nb101  1  0.70033904  0.69661121  0.09746474  1
  Nb  Nb102  1  0.49915552  0.29761805  0.09620071  1
  Nb  Nb103  1  0.70992624  0.10158041  0.70841958  1
  Nb  Nb104  1  0.49640908  0.89395090  0.29975873  1
  Nb  Nb105  1  0.50382256  0.70092974  0.90005658  1
  Nb  Nb106  1  0.10859069  0.89222594  0.29814028  1
  Nb  Nb107  1  0.29961647  0.30058388  0.29697364  1
  Nb  Nb108  1  0.10414089  0.70173409  0.29567087  1
  Nb  Nb109  1  0.49939976  0.70516802  0.29916097  1
  Nb  Nb110  1  0.49896792  0.90071628  0.09711598  1
  Nb  Nb111  1  0.49479529  0.30346621  0.30203835  1
  Nb  Nb112  1  0.09602006  0.30073287  0.49271587  1
  Nb  Nb113  1  0.10315197  0.10620063  0.69752672  1
  Nb  Nb114  1  0.49907549  0.30298004  0.90019436  1
  Nb  Nb115  1  0.70045771  0.10073343  0.89935885  1
  Nb  Nb116  1  0.10123993  0.90392392  0.09693521  1
  Nb  Nb117  1  0.49715135  0.50052588  0.10104756  1
  Nb  Nb118  1  0.70316048  0.49682569  0.29909752  1
  Nb  Nb119  1  0.10402242  0.30234867  0.30618956  1
  Nb  Nb120  1  0.50455895  0.69270542  0.10071478  1
  Nb  Nb121  1  0.30490017  0.10451235  0.89879446  1
  Nb  Nb122  1  0.29900884  0.90029047  0.29911853  1
  Nb  Nb123  1  0.10029644  0.08966165  0.10184619  1
  Nb  Nb124  1  0.69419617  0.29273801  0.89924034  1
  Nb  Nb125  1  0.40668485  0.19837376  0.80928098  1
  Nb  Nb126  1  0.19283690  -0.00598691  0.19827009  1
  Nb  Nb127  1  0.40617181  0.79576968  0.00128986  1
  Nb  Nb128  1  0.01006508  0.39586679  0.20179961  1
  Nb  Nb129  1  0.40042569  0.40195275  0.19825958  1
  Nb  Nb130  1  0.39957404  0.00038438  0.38917117  1
  Nb  Nb131  1  0.20039064  0.59845102  0.20526484  1
  Nb  Nb132  1  0.39917002  0.60195805  0.20291263  1
  Nb  Nb133  1  0.19742909  0.39914369  0.79504650  1
  Nb  Nb134  1  0.79553922  0.60092814  0.19508469  1
  Nb  Nb135  1  0.40144013  0.79934280  0.80927086  1
  Nb  Nb136  1  0.59997515  0.19850141  0.80579518  1
  Nb  Nb137  1  0.40349373  0.61095648  0.39701914  1
  Nb  Nb138  1  0.79179484  0.39791415  0.40135764  1
  Nb  Nb139  1  0.60134766  0.80185372  0.60044066  1
  Nb  Nb140  1  0.60496318  0.39843974  0.39452423  1
  Nb  Nb141  1  0.40655884  0.79933006  0.19781332  1
  Nb  Nb142  1  0.59217871  0.39811664  0.20145945  1
  Nb  Nb143  1  0.79692830  0.60241234  0.00013624  1
  Nb  Nb144  1  0.79936869  0.19727559  0.60649085  1
  Nb  Nb145  1  0.20261391  0.20591708  0.39666617  1
  Nb  Nb146  1  0.39581539  0.19774796  0.39341514  1
  Nb  Nb147  1  0.59559948  0.79490416  0.00532554  1
  Nb  Nb148  1  0.79674436  0.00404700  -0.00438418  1
  Nb  Nb149  1  0.20089324  0.39954230  0.20306673  1
  Pd  Pd150  1  0.40295594  0.60134301  -0.00182602  1
  Pd  Pd151  1  0.60857327  0.80270705  0.40654956  1
  Pd  Pd152  1  0.40285039  0.60484417  0.59760324  1
  Pd  Pd153  1  0.20883300  0.60908770  0.40269620  1
  Pd  Pd154  1  -0.00138813  0.59755245  0.20711064  1
  Pd  Pd155  1  0.00191529  0.59292267  0.60717578  1
  Pd  Pd156  1  0.59242496  0.01243648  0.79058035  1
  Pd  Pd157  1  0.80512917  0.59192594  0.79914755  1
  Pd  Pd158  1  0.20859639  0.80193179  -0.01044797  1
  Pd  Pd159  1  0.00206182  0.80482701  0.39787886  1
  Pd  Pd160  1  0.20959376  0.20753317  0.58883985  1
  Pd  Pd161  1  0.79910495  0.19312856  0.00535292  1
  Pd  Pd162  1  0.00084164  0.20159960  0.80066259  1
  Pd  Pd163  1  -0.00793070  -0.00078575  -0.00757982  1
  Pd  Pd164  1  0.19449302  0.59500835  -0.00306627  1
  Pd  Pd165  1  -0.00118224  0.59591812  0.79265412  1
  Pd  Pd166  1  -0.00696829  0.60798777  -0.00123203  1
  Pd  Pd167  1  0.00638703  0.20890265  0.20000329  1
  Pd  Pd168  1  0.60427346  -0.00045519  0.60713811  1
  Pd  Pd169  1  0.20188131  0.39586642  0.60176111  1
  Pd  Pd170  1  0.80649394  0.20396544  0.41111585  1
  Pd  Pd171  1  0.00018635  0.80567283  0.20331527  1
  Pd  Pd172  1  0.60235671  -0.00483744  0.19516151  1
  Pd  Pd173  1  0.60056246  0.59170959  0.19898101  1
  Pd  Pd174  1  0.59769329  0.60511830  0.60394407  1
  Pd  Pd175  1  0.39467456  0.39982768  0.60723264  1
  Pd  Pd176  1  0.79669954  0.80287237  -0.01187503  1
  Pd  Pd177  1  0.39519536  -0.00281179  0.19919403  1
  Pd  Pd178  1  -0.00486872  -0.00629791  0.39702438  1
  Pd  Pd179  1  0.19814899  0.00699803  0.79820165  1
  Pd  Pd180  1  0.59581065  0.59674880  0.40361764  1
  Pd  Pd181  1  0.20040205  0.79727976  0.41034851  1
  Pd  Pd182  1  0.00727364  0.38655093  0.00643276  1
  Pd  Pd183  1  0.59644659  0.80283902  0.19459045  1
  Pd  Pd184  1  -0.00336484  0.60228568  0.39796152  1
  Pd  Pd185  1  0.59288652  -0.00223666  0.39600688  1
  Pd  Pd186  1  0.80538871  0.00278092  0.40696988  1
  Pd  Pd187  1  0.40740689  0.20217848  0.20076902  1
  Pd  Pd188  1  0.39191779  0.19938928  0.59408470  1
  Pd  Pd189  1  0.19484579  0.80480009  0.59826014  1
  Pd  Pd190  1  0.00414330  -0.00128858  0.60552538  1
  Pd  Pd191  1  0.79570198  0.00782397  0.18652345  1
  Pd  Pd192  1  0.19316610  0.40033169  -0.00392272  1
  Pd  Pd193  1  0.79634052  0.79620410  0.39677086  1
  Pd  Pd194  1  0.79143775  0.40205999  -0.00338790  1
  Pd  Pd195  1  0.59615342  0.39843868  0.00394829  1
  Pd  Pd196  1  0.80023611  0.39140613  0.59497771  1
  Pd  Pd197  1  0.60103323  0.40281819  0.59704486  1
  Pd  Pd198  1  0.00202857  0.20025777  -0.00438387  1
  Pd  Pd199  1  0.20954969  0.01063298  0.39047268  1
  Rh  Rh200  1  0.39369394  0.80364852  0.39445134  1
  Rh  Rh201  1  0.79926961  0.40261489  0.20502157  1
  Rh  Rh202  1  0.61246575  -0.00886236  0.01125143  1
  Rh  Rh203  1  0.40799555  0.40231982  0.39915538  1
  Rh  Rh204  1  -0.00030071  0.80341731  -0.00124705  1
  Rh  Rh205  1  0.59531353  0.39414773  0.79974550  1
  Rh  Rh206  1  0.79892860  0.39920576  0.80564551  1
  Rh  Rh207  1  0.59547502  0.20814365  0.19821338  1
  Rh  Rh208  1  -0.00729883  0.20087629  0.60189376  1
  Rh  Rh209  1  0.21102223  0.80591867  0.80706650  1
  Rh  Rh210  1  0.40370854  0.60682995  0.80592123  1
  Rh  Rh211  1  0.80414571  -0.00470831  0.80689178  1
  Rh  Rh212  1  0.80439856  0.59608421  0.38953023  1
  Rh  Rh213  1  0.40243758  0.00648828  0.79979838  1
  Rh  Rh214  1  0.80333277  0.59974244  0.61034194  1
  Rh  Rh215  1  0.39894933  0.00151075  0.59218491  1
  Rh  Rh216  1  0.79992318  0.19263663  0.19283156  1
  Rh  Rh217  1  0.39284794  0.38996093  0.79699577  1
  Rh  Rh218  1  0.80174542  0.80649614  0.79758385  1
  Rh  Rh219  1  0.00285197  0.20043072  0.40051979  1
  Rh  Rh220  1  0.40861275  0.19705981  -0.00488152  1
  Rh  Rh221  1  0.00747001  0.39558597  0.79834736  1
  Rh  Rh222  1  0.20796843  0.20270604  0.80158586  1
  Rh  Rh223  1  0.59373577  0.20212290  -0.00522007  1
  Rh  Rh224  1  0.00100642  0.80200488  0.79518806  1
  Rh  Rh225  1  0.79313088  0.20942817  0.79571674  1
  Rh  Rh226  1  0.19064191  0.19645936  0.20397759  1
  Rh  Rh227  1  0.00831787  0.80500768  0.60158248  1
  Rh  Rh228  1  0.19137067  0.60038598  0.59549429  1
  Rh  Rh229  1  0.19315085  0.58756585  0.80705488  1
  Rh  Rh230  1  0.40847848  0.80038003  0.61592280  1
  Rh  Rh231  1  0.20135582  0.00817983  0.00286783  1
  Rh  Rh232  1  0.39487521  0.00083956  0.00249922  1
  Rh  Rh233  1  0.40519783  0.39857672  0.00537106  1
  Rh  Rh234  1  0.59267346  0.80207752  0.79563961  1
  Rh  Rh235  1  0.20195341  0.80197641  0.19748527  1
  Rh  Rh236  1  0.00596412  0.00380160  0.79710144  1
  Rh  Rh237  1  0.61235010  0.19480275  0.61749769  1
  Rh  Rh238  1  0.59386859  0.59428744  0.79971323  1
  Rh  Rh239  1  0.19970379  0.39529107  0.40434844  1
  Rh  Rh240  1  0.59121833  0.20509261  0.39057684  1
  Rh  Rh241  1  -0.01077047  0.39681875  0.39623830  1
  Rh  Rh242  1  0.19534303  0.19061053  -0.00612032  1
  Rh  Rh243  1  0.79959489  0.79038368  0.21063761  1
  Rh  Rh244  1  0.00778590  -0.01114234  0.20592970  1
  Rh  Rh245  1  0.00265142  0.39955040  0.59979222  1
  Rh  Rh246  1  0.80072199  0.01021416  0.59870540  1
  Rh  Rh247  1  0.19504961  -0.00237791  0.60738761  1
  Rh  Rh248  1  0.60375255  0.60086655  -0.00347497  1
  Rh  Rh249  1  0.79112028  0.80021699  0.60422269  1
