# generated using pymatgen
data_ZrScNbPdRh
_symmetry_space_group_name_H-M   'P 1'
_cell_length_a   16.55773723
_cell_length_b   16.55698678
_cell_length_c   16.56000567
_cell_angle_alpha   89.99978369
_cell_angle_beta   89.99548132
_cell_angle_gamma   89.98694585
_symmetry_Int_Tables_number   1
_chemical_formula_structural   ZrScNbPdRh
_chemical_formula_sum   'Zr50 Sc50 Nb50 Pd50 Rh50'
_cell_volume   4539.86309648
_cell_formula_units_Z   50
loop_
 _symmetry_equiv_pos_site_id
 _symmetry_equiv_pos_as_xyz
  1  'x, y, z'
loop_
 _atom_site_type_symbol
 _atom_site_label
 _atom_site_symmetry_multiplicity
 _atom_site_fract_x
 _atom_site_fract_y
 _atom_site_fract_z
 _atom_site_occupancy
  Zr  Zr0  1  0.70384154  0.09913046  0.10656857  1
  Zr  Zr1  1  0.09759994  0.30540513  0.89828042  1
  Zr  Zr2  1  0.90643099  0.70417687  0.90921782  1
  Zr  Zr3  1  0.89395428  0.49102737  0.90393873  1
  Zr  Zr4  1  0.88779902  0.70288014  0.29830855  1
  Zr  Zr5  1  0.30119369  0.70030215  0.48904687  1
  Zr  Zr6  1  0.50331525  0.09364502  0.30254626  1
  Zr  Zr7  1  0.89194253  0.89990762  0.70466991  1
  Zr  Zr8  1  0.10725918  0.49252226  0.69827292  1
  Zr  Zr9  1  0.70008941  0.29737066  0.11126550  1
  Zr  Zr10  1  0.09759905  0.69899057  0.08568714  1
  Zr  Zr11  1  0.50533269  0.70463570  0.30193495  1
  Zr  Zr12  1  0.10172273  0.29697681  0.48957909  1
  Zr  Zr13  1  0.49972924  0.30183904  0.50185916  1
  Zr  Zr14  1  0.49824154  0.30528676  0.29405111  1
  Zr  Zr15  1  0.09144999  0.49249413  0.30195508  1
  Zr  Zr16  1  0.09771532  0.10803097  0.30123329  1
  Zr  Zr17  1  0.50374596  0.70296243  0.70255237  1
  Zr  Zr18  1  0.49459285  0.69423726  0.90731663  1
  Zr  Zr19  1  0.89299387  0.50368957  0.09712149  1
  Zr  Zr20  1  0.50187914  0.10302134  0.89747291  1
  Zr  Zr21  1  0.29979163  0.29388421  0.10053084  1
  Zr  Zr22  1  0.50142425  0.50698634  0.09400542  1
  Zr  Zr23  1  0.89637625  0.89498442  0.29900983  1
  Zr  Zr24  1  0.90184979  0.29850025  0.70334672  1
  Zr  Zr25  1  0.09439138  0.90022071  0.30374629  1
  Zr  Zr26  1  0.10285017  0.09483808  0.69740537  1
  Zr  Zr27  1  0.29999528  0.10085555  0.70230165  1
  Zr  Zr28  1  0.10271739  0.89931962  0.49631606  1
  Zr  Zr29  1  0.30026527  0.50471935  0.50397191  1
  Zr  Zr30  1  0.69840449  0.89655669  0.70307881  1
  Zr  Zr31  1  0.10289774  0.49559728  0.49916829  1
  Zr  Zr32  1  0.10531907  0.50327391  0.90310985  1
  Zr  Zr33  1  0.50169996  0.89918911  0.91586803  1
  Zr  Zr34  1  0.90168983  0.09699592  0.69739419  1
  Zr  Zr35  1  0.09918164  0.89775788  0.70018064  1
  Zr  Zr36  1  0.49265226  0.49682625  0.49393772  1
  Zr  Zr37  1  0.70019509  0.49974906  0.69386601  1
  Zr  Zr38  1  0.49820990  0.29654875  0.90006403  1
  Zr  Zr39  1  0.69954815  0.69923439  0.69310970  1
  Zr  Zr40  1  0.29080231  0.70143221  0.89620337  1
  Zr  Zr41  1  0.71002166  0.10193262  0.50205360  1
  Zr  Zr42  1  0.90011046  0.10733916  0.09591946  1
  Zr  Zr43  1  0.49785468  0.50389732  0.68994568  1
  Zr  Zr44  1  0.49745766  0.09111176  0.49788783  1
  Zr  Zr45  1  0.50216449  0.89646345  0.68897131  1
  Zr  Zr46  1  0.50384200  0.69832844  0.10545134  1
  Zr  Zr47  1  0.70810090  0.09312296  0.70015483  1
  Zr  Zr48  1  0.69452669  0.90395555  0.10480947  1
  Zr  Zr49  1  0.69944148  0.30442143  0.70122796  1
  Sc  Sc50  1  0.10189764  0.69799650  0.48443520  1
  Sc  Sc51  1  0.29343799  0.29881365  0.90249952  1
  Sc  Sc52  1  0.70237558  0.89785774  0.29738700  1
  Sc  Sc53  1  0.09240327  0.09709336  0.49582623  1
  Sc  Sc54  1  0.89551326  0.49828093  0.49027304  1
  Sc  Sc55  1  0.28721928  0.09608882  0.29674708  1
  Sc  Sc56  1  0.70614550  0.50248246  0.29935998  1
  Sc  Sc57  1  0.09431673  0.11080019  0.90497951  1
  Sc  Sc58  1  0.30756564  0.50410072  0.10262921  1
  Sc  Sc59  1  0.11192306  0.70475558  0.29786643  1
  Sc  Sc60  1  0.50226668  0.31473177  0.10218405  1
  Sc  Sc61  1  0.69526719  0.29755056  0.90352515  1
  Sc  Sc62  1  0.71134122  0.29793905  0.49530120  1
  Sc  Sc63  1  0.70728670  0.70089301  0.10983724  1
  Sc  Sc64  1  0.09308969  0.10052412  0.10731270  1
  Sc  Sc65  1  0.10599851  0.70741690  0.71560696  1
  Sc  Sc66  1  0.49919005  0.50197969  0.28993555  1
  Sc  Sc67  1  0.31252774  0.49989277  0.30143825  1
  Sc  Sc68  1  0.70770994  0.89744896  0.90016655  1
  Sc  Sc69  1  0.70170309  0.50035581  0.50216197  1
  Sc  Sc70  1  0.30483186  0.69171720  0.69659197  1
  Sc  Sc71  1  0.89553391  0.69553078  0.48817805  1
  Sc  Sc72  1  0.49855615  0.29686078  0.70110922  1
  Sc  Sc73  1  0.49473964  0.10897174  0.70108949  1
  Sc  Sc74  1  0.89395001  0.91216518  0.09846540  1
  Sc  Sc75  1  0.69377852  0.90494454  0.50144122  1
  Sc  Sc76  1  0.89819930  0.10077934  0.29546712  1
  Sc  Sc77  1  0.29977613  0.70134539  0.11113610  1
  Sc  Sc78  1  0.29761131  0.50284622  0.69596868  1
  Sc  Sc79  1  0.89974841  0.30466832  0.29942173  1
  Sc  Sc80  1  0.29901400  0.90470634  0.68881857  1
  Sc  Sc81  1  0.70077040  0.10667868  0.29711544  1
  Sc  Sc82  1  0.70092323  0.50286237  0.09590120  1
  Sc  Sc83  1  0.89034086  0.49388467  0.69699843  1
  Sc  Sc84  1  0.50336474  0.08097952  0.09469663  1
  Sc  Sc85  1  0.10508526  0.29899280  0.71213065  1
  Sc  Sc86  1  0.09602329  0.29325948  0.30149438  1
  Sc  Sc87  1  0.29856931  0.89750658  0.29779876  1
  Sc  Sc88  1  0.29944697  0.08928712  0.50090125  1
  Sc  Sc89  1  0.69464586  0.10300406  0.90611957  1
  Sc  Sc90  1  0.49990091  0.70574668  0.49279235  1
  Sc  Sc91  1  0.49812763  0.89586966  0.11043597  1
  Sc  Sc92  1  0.29783393  0.30951662  0.49525370  1
  Sc  Sc93  1  0.30367019  0.10998702  0.90759780  1
  Sc  Sc94  1  0.10237278  0.49995047  0.09629443  1
  Sc  Sc95  1  0.90111865  0.90220671  0.49045420  1
  Sc  Sc96  1  0.09631238  0.29571289  0.09980523  1
  Sc  Sc97  1  0.89720472  0.49693574  0.30097924  1
  Sc  Sc98  1  0.69954711  0.70635236  0.90857521  1
  Sc  Sc99  1  0.29566863  0.30076736  0.70904337  1
  Nb  Nb100  1  0.30095611  0.89842713  0.90333101  1
  Nb  Nb101  1  0.90245913  0.09913150  0.90063967  1
  Nb  Nb102  1  0.90244513  0.90489456  0.89534133  1
  Nb  Nb103  1  0.31144718  0.50895000  0.89781334  1
  Nb  Nb104  1  0.10337020  0.87522447  0.89751369  1
  Nb  Nb105  1  0.70436009  0.69745924  0.49074078  1
  Nb  Nb106  1  0.30890383  0.89965484  0.49920200  1
  Nb  Nb107  1  0.29796198  0.09393261  0.10378658  1
  Nb  Nb108  1  0.48867401  0.90273601  0.48912040  1
  Nb  Nb109  1  0.89977701  0.69571768  0.69843734  1
  Nb  Nb110  1  0.90553750  0.29442196  0.89942472  1
  Nb  Nb111  1  0.89480014  0.11278810  0.50721521  1
  Nb  Nb112  1  0.70291794  0.70668473  0.30791454  1
  Nb  Nb113  1  0.90405645  0.29146900  0.49989003  1
  Nb  Nb114  1  0.29863285  0.29355857  0.29730026  1
  Nb  Nb115  1  0.50394111  0.89910891  0.31249796  1
  Nb  Nb116  1  0.30276734  0.91179198  0.09682299  1
  Nb  Nb117  1  0.09763425  0.70522652  0.90106255  1
  Nb  Nb118  1  0.89764260  0.29922656  0.09638769  1
  Nb  Nb119  1  0.69308541  0.30230691  0.29759352  1
  Nb  Nb120  1  0.50085975  0.50619478  0.90694546  1
  Nb  Nb121  1  0.90081663  0.69506416  0.10218231  1
  Nb  Nb122  1  0.10154026  0.89709170  0.09838252  1
  Nb  Nb123  1  0.70061357  0.50358040  0.89924807  1
  Nb  Nb124  1  0.30441493  0.69772872  0.30138221  1
  Nb  Nb125  1  0.80225827  0.79493354  0.59789911  1
  Nb  Nb126  1  0.59532975  0.41089462  0.80466959  1
  Nb  Nb127  1  0.19938196  -0.00740519  0.81412951  1
  Nb  Nb128  1  0.00311020  -0.00701678  0.81002848  1
  Nb  Nb129  1  0.00048347  0.60075733  0.60460962  1
  Nb  Nb130  1  0.60479292  0.19850866  0.59629010  1
  Nb  Nb131  1  0.40634755  0.41009737  0.80730841  1
  Nb  Nb132  1  0.19797269  0.80135367  0.59242110  1
  Nb  Nb133  1  0.60150227  0.39621258  0.39611235  1
  Nb  Nb134  1  0.20355084  0.39525160  0.20320242  1
  Nb  Nb135  1  0.39748197  0.19959647  0.39294473  1
  Nb  Nb136  1  -0.00142961  0.60644042  0.19688852  1
  Nb  Nb137  1  0.80806793  0.19976502  0.80505266  1
  Nb  Nb138  1  0.79922911  0.60072159  0.80226913  1
  Nb  Nb139  1  -0.00399763  0.60057680  0.80063717  1
  Nb  Nb140  1  0.39740240  0.19375133  0.20003349  1
  Nb  Nb141  1  0.59432036  -0.00420829  0.80046209  1
  Nb  Nb142  1  0.19778320  -0.00830195  0.00041298  1
  Nb  Nb143  1  0.39943550  0.80612255  0.80365235  1
  Nb  Nb144  1  0.00192087  0.39938851  0.59525737  1
  Nb  Nb145  1  0.19916859  0.19784505  0.59798727  1
  Nb  Nb146  1  -0.00209763  0.79189723  0.60034977  1
  Nb  Nb147  1  0.60206494  0.59607990  0.80482310  1
  Nb  Nb148  1  0.39970703  -0.00612431  0.80513096  1
  Nb  Nb149  1  -0.00034103  0.79745817  0.19273277  1
  Pd  Pd150  1  0.19578719  0.59696951  0.79840785  1
  Pd  Pd151  1  0.39256982  0.79369019  0.00439581  1
  Pd  Pd152  1  -0.00234668  0.60488396  0.39301821  1
  Pd  Pd153  1  0.19497723  0.59007172  0.20563736  1
  Pd  Pd154  1  0.20646557  0.40449699  0.38975430  1
  Pd  Pd155  1  0.19192332  -0.00239521  0.19695172  1
  Pd  Pd156  1  0.60402546  0.79676233  0.58351988  1
  Pd  Pd157  1  0.79522095  0.00212184  -0.00368416  1
  Pd  Pd158  1  0.01147512  0.20823874  0.60285943  1
  Pd  Pd159  1  0.60444198  0.79784681  0.00809830  1
  Pd  Pd160  1  -0.01114000  0.81315267  0.00849090  1
  Pd  Pd161  1  0.19159801  0.19252612  0.00670362  1
  Pd  Pd162  1  0.20858150  0.40467789  0.00484102  1
  Pd  Pd163  1  0.40222948  0.00029959  0.20900422  1
  Pd  Pd164  1  0.20854164  0.59937006  0.00167329  1
  Pd  Pd165  1  0.61161750  -0.00149270  0.39624325  1
  Pd  Pd166  1  0.39391089  0.79462411  0.60108491  1
  Pd  Pd167  1  0.21112395  0.80106964  0.01099862  1
  Pd  Pd168  1  0.80014201  0.00186109  0.39841566  1
  Pd  Pd169  1  0.19847475  0.80394377  0.19648250  1
  Pd  Pd170  1  0.59687156  0.20437889  0.40509943  1
  Pd  Pd171  1  0.79914358  0.20449719  -0.00409013  1
  Pd  Pd172  1  0.79891940  0.40044302  0.20162959  1
  Pd  Pd173  1  0.80494320  0.20360993  0.38963068  1
  Pd  Pd174  1  0.59479666  0.00780830  0.60514477  1
  Pd  Pd175  1  0.39386986  0.40040881  -0.00358584  1
  Pd  Pd176  1  0.39283983  0.20321345  0.58961088  1
  Pd  Pd177  1  0.59342825  0.20049572  0.01466357  1
  Pd  Pd178  1  0.18987926  0.61447342  0.60057274  1
  Pd  Pd179  1  -0.00140654  -0.00392355  0.20077498  1
  Pd  Pd180  1  0.39114681  0.39388205  0.61089581  1
  Pd  Pd181  1  0.58761868  0.19432004  0.19270944  1
  Pd  Pd182  1  0.00272908  0.40204451  0.19150122  1
  Pd  Pd183  1  0.59462749  0.60495133  0.59113843  1
  Pd  Pd184  1  -0.00767687  -0.00823870  0.59829334  1
  Pd  Pd185  1  0.60625520  0.40122332  -0.00155866  1
  Pd  Pd186  1  0.80749669  0.39573295  0.58894828  1
  Pd  Pd187  1  0.20293336  -0.00073950  0.40077923  1
  Pd  Pd188  1  0.79247643  0.38978106  -0.00051229  1
  Pd  Pd189  1  0.00075800  0.39862513  0.00659461  1
  Pd  Pd190  1  0.40988655  0.19532369  0.01286889  1
  Pd  Pd191  1  0.20362236  0.59095440  0.38838515  1
  Pd  Pd192  1  -0.00973591  0.01013093  0.40010951  1
  Pd  Pd193  1  0.01041328  -0.00686337  -0.00650927  1
  Pd  Pd194  1  0.80551337  0.80372831  0.00890193  1
  Pd  Pd195  1  -0.00300085  0.40912391  0.79496635  1
  Pd  Pd196  1  0.40090496  0.80317029  0.20595474  1
  Pd  Pd197  1  0.60194278  0.59105278  0.39921979  1
  Pd  Pd198  1  0.60961226  0.59966785  0.20288815  1
  Pd  Pd199  1  0.80162780  0.78933062  0.80004945  1
  Rh  Rh200  1  0.79186734  0.39512521  0.81063491  1
  Rh  Rh201  1  0.79742190  0.60496696  -0.00439300  1
  Rh  Rh202  1  0.39127323  0.39545978  0.19539757  1
  Rh  Rh203  1  0.39665335  0.80157606  0.39088286  1
  Rh  Rh204  1  -0.00085050  0.79358578  0.39398507  1
  Rh  Rh205  1  0.80780671  -0.01214182  0.58925387  1
  Rh  Rh206  1  0.40344596  0.60658553  0.20273097  1
  Rh  Rh207  1  0.60749413  0.41049120  0.20347781  1
  Rh  Rh208  1  0.20099280  0.20333559  0.19657104  1
  Rh  Rh209  1  0.21452398  0.40922038  0.80881217  1
  Rh  Rh210  1  0.60445954  0.80584778  0.40165085  1
  Rh  Rh211  1  0.80521418  0.20577006  0.20294086  1
  Rh  Rh212  1  0.79879955  0.00339257  0.20267219  1
  Rh  Rh213  1  0.39217172  0.00225195  0.39191655  1
  Rh  Rh214  1  0.21653316  0.80455064  0.78689706  1
  Rh  Rh215  1  -0.00751170  0.20526701  0.19891121  1
  Rh  Rh216  1  0.40487823  0.00075358  0.60461970  1
  Rh  Rh217  1  0.19798691  0.19082542  0.79812754  1
  Rh  Rh218  1  0.80600300  0.60649614  0.59578658  1
  Rh  Rh219  1  0.39340216  0.20630728  0.80528587  1
  Rh  Rh220  1  -0.00047778  0.20567217  0.00288901  1
  Rh  Rh221  1  -0.00925384  0.79821011  0.79684086  1
  Rh  Rh222  1  -0.00171970  0.59370107  -0.00328796  1
  Rh  Rh223  1  0.20173584  -0.00041309  0.59624132  1
  Rh  Rh224  1  0.40356738  0.39558025  0.39473428  1
  Rh  Rh225  1  0.80373320  0.80413333  0.19329805  1
  Rh  Rh226  1  0.79654167  0.20583067  0.60966056  1
  Rh  Rh227  1  0.58909894  0.80027852  0.81036931  1
  Rh  Rh228  1  0.39329252  0.60863253  0.00902523  1
  Rh  Rh229  1  0.40361306  0.60613735  0.59080848  1
  Rh  Rh230  1  0.60137641  -0.00383208  0.20748419  1
  Rh  Rh231  1  0.39195722  0.00667246  -0.00383237  1
  Rh  Rh232  1  0.79706238  0.01018842  0.81394686  1
  Rh  Rh233  1  0.60067504  0.80138622  0.20717664  1
  Rh  Rh234  1  0.61235186  0.19546258  0.78794189  1
  Rh  Rh235  1  0.60891191  -0.00353018  -0.00442175  1
  Rh  Rh236  1  0.79580613  0.59508098  0.39725705  1
  Rh  Rh237  1  -0.00948884  0.19553336  0.39634901  1
  Rh  Rh238  1  0.80094335  0.59943592  0.20348971  1
  Rh  Rh239  1  0.40749119  0.60111222  0.79688995  1
  Rh  Rh240  1  0.79191158  0.80761690  0.40983717  1
  Rh  Rh241  1  0.60841748  0.60670559  0.00143197  1
  Rh  Rh242  1  0.20928611  0.80707021  0.40165652  1
  Rh  Rh243  1  0.20863696  0.19345906  0.40933948  1
  Rh  Rh244  1  0.40398223  0.60308298  0.39626535  1
  Rh  Rh245  1  0.60311228  0.38970849  0.59393444  1
  Rh  Rh246  1  -0.00256852  0.19161256  0.80137201  1
  Rh  Rh247  1  -0.00707777  0.39399820  0.40687281  1
  Rh  Rh248  1  0.19576301  0.38676416  0.60108625  1
  Rh  Rh249  1  0.79558053  0.39513492  0.39826614  1
