# generated using pymatgen
data_ZrScNbPdRh
_symmetry_space_group_name_H-M   'P 1'
_cell_length_a   16.56183808
_cell_length_b   16.55921058
_cell_length_c   16.56114249
_cell_angle_alpha   90.01240864
_cell_angle_beta   90.00162159
_cell_angle_gamma   90.02721421
_symmetry_Int_Tables_number   1
_chemical_formula_structural   ZrScNbPdRh
_chemical_formula_sum   'Zr50 Sc50 Nb50 Pd50 Rh50'
_cell_volume   4541.90867831
_cell_formula_units_Z   50
loop_
 _symmetry_equiv_pos_site_id
 _symmetry_equiv_pos_as_xyz
  1  'x, y, z'
loop_
 _atom_site_type_symbol
 _atom_site_label
 _atom_site_symmetry_multiplicity
 _atom_site_fract_x
 _atom_site_fract_y
 _atom_site_fract_z
 _atom_site_occupancy
  Zr  Zr0  1  0.50129127  0.49395440  0.49241364  1
  Zr  Zr1  1  0.29741089  0.89585452  0.30521980  1
  Zr  Zr2  1  0.09886283  0.30022584  0.70025744  1
  Zr  Zr3  1  0.89932735  0.69517138  0.30626741  1
  Zr  Zr4  1  0.10441427  0.90071953  0.09755806  1
  Zr  Zr5  1  0.69833665  0.30247541  0.10589449  1
  Zr  Zr6  1  0.30189989  0.30103139  0.70207660  1
  Zr  Zr7  1  0.89812831  0.90053255  0.69544533  1
  Zr  Zr8  1  0.30322708  0.29956708  0.89643799  1
  Zr  Zr9  1  0.50271626  0.49392246  0.90274779  1
  Zr  Zr10  1  0.70862299  0.90045239  0.10615900  1
  Zr  Zr11  1  0.89656865  0.30243590  0.10899585  1
  Zr  Zr12  1  0.70079974  0.89453617  0.49899277  1
  Zr  Zr13  1  0.09680431  0.90214025  0.48931541  1
  Zr  Zr14  1  0.89693548  0.09293283  0.50023676  1
  Zr  Zr15  1  0.49427407  0.89156993  0.50284311  1
  Zr  Zr16  1  0.70600333  0.70046290  0.09386465  1
  Zr  Zr17  1  0.09492978  0.70965455  0.48868187  1
  Zr  Zr18  1  0.10111247  0.29883263  0.89653622  1
  Zr  Zr19  1  0.90486873  0.69805814  0.69249538  1
  Zr  Zr20  1  0.30709300  0.30898848  0.49947372  1
  Zr  Zr21  1  0.50536039  0.10142330  0.90066386  1
  Zr  Zr22  1  0.69323627  0.50242047  0.09853665  1
  Zr  Zr23  1  0.50337870  0.49798307  0.10766374  1
  Zr  Zr24  1  0.50531525  0.89786814  0.69622768  1
  Zr  Zr25  1  0.50583362  0.89909645  0.30701649  1
  Zr  Zr26  1  0.30785534  0.70217384  0.49970644  1
  Zr  Zr27  1  0.29846684  0.89336340  0.10269827  1
  Zr  Zr28  1  0.50599498  0.10268545  0.10224628  1
  Zr  Zr29  1  0.29995259  0.10271488  0.29932837  1
  Zr  Zr30  1  0.28992181  0.70242090  0.89680873  1
  Zr  Zr31  1  0.09349739  0.10121376  0.50029619  1
  Zr  Zr32  1  0.10064586  0.50469406  0.69757706  1
  Zr  Zr33  1  0.09103346  0.49863462  0.29927122  1
  Zr  Zr34  1  0.70158786  0.69596560  0.49610779  1
  Zr  Zr35  1  0.50237773  0.90149607  0.89697984  1
  Zr  Zr36  1  0.89481658  0.30365247  0.89751126  1
  Zr  Zr37  1  0.10636499  0.11083403  0.11030587  1
  Zr  Zr38  1  0.30004375  0.69573659  0.69765036  1
  Zr  Zr39  1  0.69605946  0.10141367  0.10729687  1
  Zr  Zr40  1  0.09879820  0.70378093  0.89570491  1
  Zr  Zr41  1  0.90163276  0.89618628  0.90084547  1
  Zr  Zr42  1  0.09823948  0.10481631  0.69891425  1
  Zr  Zr43  1  0.09795312  0.09947453  0.30667007  1
  Zr  Zr44  1  0.50328990  0.68979185  0.10603983  1
  Zr  Zr45  1  0.50796211  0.10665655  0.30544803  1
  Zr  Zr46  1  0.90098258  0.50156947  0.69708771  1
  Zr  Zr47  1  0.09510433  0.50954610  0.89955282  1
  Zr  Zr48  1  0.30237437  0.09652003  0.50256424  1
  Zr  Zr49  1  0.89757746  0.50157203  0.29865355  1
  Sc  Sc50  1  0.30648108  0.48750188  0.10306650  1
  Sc  Sc51  1  0.09242840  0.70327053  0.08823526  1
  Sc  Sc52  1  0.30796250  0.91173552  0.69134830  1
  Sc  Sc53  1  0.30041412  0.10504151  0.69653854  1
  Sc  Sc54  1  0.30732883  0.10268222  0.89706147  1
  Sc  Sc55  1  0.88680847  0.90005272  0.30518577  1
  Sc  Sc56  1  0.89649520  0.50604872  0.49832991  1
  Sc  Sc57  1  0.70170231  0.50249407  0.68819003  1
  Sc  Sc58  1  0.70011767  0.89685088  0.90791565  1
  Sc  Sc59  1  0.49978503  0.10542055  0.50158759  1
  Sc  Sc60  1  0.70136825  0.10416377  0.50376647  1
  Sc  Sc61  1  0.51012790  0.90441153  0.09598887  1
  Sc  Sc62  1  0.89466890  0.10323701  0.30750823  1
  Sc  Sc63  1  0.09255426  0.29964755  0.29280725  1
  Sc  Sc64  1  0.69784975  0.09881393  0.29893652  1
  Sc  Sc65  1  0.50376386  0.29662597  0.49587580  1
  Sc  Sc66  1  0.50271687  0.30695242  0.09974843  1
  Sc  Sc67  1  0.29904204  0.50078504  0.69114614  1
  Sc  Sc68  1  0.69719133  0.49865931  0.49466259  1
  Sc  Sc69  1  0.50329095  0.70140264  0.69550891  1
  Sc  Sc70  1  0.88959509  0.89617156  0.10071816  1
  Sc  Sc71  1  0.49780688  0.29046233  0.69205134  1
  Sc  Sc72  1  0.69741437  0.90366769  0.69628172  1
  Sc  Sc73  1  0.29297091  0.90571673  0.90481740  1
  Sc  Sc74  1  0.88836277  0.09708348  0.11346799  1
  Sc  Sc75  1  0.10283617  0.10494804  0.88859406  1
  Sc  Sc76  1  0.89896811  0.29870302  0.30860141  1
  Sc  Sc77  1  0.10109726  0.89029658  0.90261835  1
  Sc  Sc78  1  0.90233674  0.09764480  0.88812198  1
  Sc  Sc79  1  0.49243113  0.29835423  0.89781970  1
  Sc  Sc80  1  0.50042543  0.69400462  0.29809075  1
  Sc  Sc81  1  0.49800637  0.50629598  0.70394080  1
  Sc  Sc82  1  0.30750850  0.70488621  0.28988703  1
  Sc  Sc83  1  0.29615002  0.10010098  0.09699697  1
  Sc  Sc84  1  0.69462555  0.29823016  0.30790838  1
  Sc  Sc85  1  0.29096687  0.29936056  0.10001251  1
  Sc  Sc86  1  0.68930686  0.69543331  0.69906788  1
  Sc  Sc87  1  0.10126768  0.69812152  0.70629448  1
  Sc  Sc88  1  0.51600529  0.69418677  0.88843825  1
  Sc  Sc89  1  0.10381553  0.49394767  0.50253024  1
  Sc  Sc90  1  0.89694405  0.08932318  0.69849544  1
  Sc  Sc91  1  0.09602572  0.90309899  0.70116433  1
  Sc  Sc92  1  0.30571436  0.49086670  0.88903515  1
  Sc  Sc93  1  0.30781499  0.48684414  0.29537679  1
  Sc  Sc94  1  0.70131644  0.90294970  0.30626894  1
  Sc  Sc95  1  0.70205868  0.49912324  0.90897692  1
  Sc  Sc96  1  0.69753412  0.30908466  0.90458809  1
  Sc  Sc97  1  0.91446962  0.69761354  0.91121704  1
  Sc  Sc98  1  0.50094814  0.09771090  0.70031063  1
  Sc  Sc99  1  0.09860326  0.30588462  0.49752995  1
  Nb  Nb100  1  0.10100380  0.88982216  0.30090669  1
  Nb  Nb101  1  0.70184616  0.69929424  0.89478722  1
  Nb  Nb102  1  0.30754604  0.29636789  0.30196593  1
  Nb  Nb103  1  0.69416338  0.50436984  0.30239935  1
  Nb  Nb104  1  0.10048140  0.70264021  0.30333740  1
  Nb  Nb105  1  0.90009494  0.50602561  0.09823794  1
  Nb  Nb106  1  0.89550317  0.89632782  0.50707106  1
  Nb  Nb107  1  0.70251849  0.29815668  0.68947191  1
  Nb  Nb108  1  0.30305747  0.89573434  0.49935553  1
  Nb  Nb109  1  0.09821866  0.49375743  0.10329603  1
  Nb  Nb110  1  0.49762992  0.30507608  0.30674884  1
  Nb  Nb111  1  0.70409241  0.70157281  0.30121423  1
  Nb  Nb112  1  0.70110136  0.29624856  0.51063959  1
  Nb  Nb113  1  0.09412722  0.30421658  0.09812596  1
  Nb  Nb114  1  0.89870328  0.70248265  0.10468123  1
  Nb  Nb115  1  0.30641800  0.69364754  0.10062320  1
  Nb  Nb116  1  0.70121177  0.10715753  0.89763728  1
  Nb  Nb117  1  0.88893737  0.29039303  0.50564476  1
  Nb  Nb118  1  0.50752769  0.49329901  0.29625493  1
  Nb  Nb119  1  0.89216928  0.30105379  0.69783855  1
  Nb  Nb120  1  0.89992074  0.49741328  0.90297203  1
  Nb  Nb121  1  0.89663983  0.71054315  0.49998706  1
  Nb  Nb122  1  0.29858455  0.50277795  0.49513459  1
  Nb  Nb123  1  0.69688505  0.10682263  0.70097215  1
  Nb  Nb124  1  0.49919208  0.70683435  0.49701728  1
  Nb  Nb125  1  0.60845532  0.79553635  0.20209099  1
  Nb  Nb126  1  0.80405057  0.60169441  0.80443557  1
  Nb  Nb127  1  0.79974203  0.79078957  0.80193917  1
  Nb  Nb128  1  -0.01006576  0.20509229  0.60047373  1
  Nb  Nb129  1  0.39945163  0.59386445  0.40028420  1
  Nb  Nb130  1  0.39751010  0.60186509  -0.00019165  1
  Nb  Nb131  1  -0.00069106  0.40130663  0.00269135  1
  Nb  Nb132  1  -0.00686271  0.40220017  0.80048389  1
  Nb  Nb133  1  0.19588566  0.59803358  0.19716559  1
  Nb  Nb134  1  0.79643881  0.40955380  0.20405170  1
  Nb  Nb135  1  0.20467177  0.59964007  0.39233949  1
  Nb  Nb136  1  0.40297011  0.20037336  0.20570613  1
  Nb  Nb137  1  0.20420497  0.20303224  0.39834247  1
  Nb  Nb138  1  0.00459427  -0.00784960  0.20312460  1
  Nb  Nb139  1  0.79955123  0.19828561  -0.00437656  1
  Nb  Nb140  1  0.40209522  0.79144051  -0.00321450  1
  Nb  Nb141  1  0.60471653  0.39566314  0.79143693  1
  Nb  Nb142  1  -0.00396268  0.20102539  0.00413212  1
  Nb  Nb143  1  0.00105754  0.00797905  0.00757822  1
  Nb  Nb144  1  0.40299206  0.00302824  0.20350944  1
  Nb  Nb145  1  0.20388273  0.80410134  0.59175387  1
  Nb  Nb146  1  0.40094153  0.80246189  0.80314075  1
  Nb  Nb147  1  -0.00020310  0.80015128  0.20616166  1
  Nb  Nb148  1  0.20426023  0.59548075  0.00626814  1
  Nb  Nb149  1  0.79119009  0.20286042  0.79538960  1
  Pd  Pd150  1  0.19516639  0.40561859  0.79630296  1
  Pd  Pd151  1  -0.00770731  0.19299450  0.20103388  1
  Pd  Pd152  1  0.19961700  0.39928355  0.39093926  1
  Pd  Pd153  1  0.60857278  -0.00265952  0.80212910  1
  Pd  Pd154  1  0.00579660  0.60878827  0.19441870  1
  Pd  Pd155  1  0.39847960  -0.00541986  0.00755403  1
  Pd  Pd156  1  0.79453215  0.59735670  0.20060699  1
  Pd  Pd157  1  0.60099976  0.21059114  0.79816086  1
  Pd  Pd158  1  -0.00553390  0.39548437  0.59944671  1
  Pd  Pd159  1  0.59361711  0.59998195  0.59406604  1
  Pd  Pd160  1  0.60371361  0.00358322  0.41061392  1
  Pd  Pd161  1  -0.00965441  -0.00879980  0.39313016  1
  Pd  Pd162  1  0.19885618  0.40627498  -0.00331690  1
  Pd  Pd163  1  0.59614245  0.79343549  0.00393442  1
  Pd  Pd164  1  0.19208656  0.01034884  -0.00769529  1
  Pd  Pd165  1  0.20925902  0.81304266  0.78412353  1
  Pd  Pd166  1  0.59978916  0.00540405  0.59338562  1
  Pd  Pd167  1  0.79308060  0.40512925  0.79503938  1
  Pd  Pd168  1  0.20023092  -0.00129120  0.79972660  1
  Pd  Pd169  1  0.19229133  0.60821936  0.58845792  1
  Pd  Pd170  1  0.01050057  0.80296823  0.60257468  1
  Pd  Pd171  1  0.20115527  -0.00165327  0.20450531  1
  Pd  Pd172  1  0.40350010  0.00043389  0.39972733  1
  Pd  Pd173  1  0.80393523  0.60508589  -0.00598762  1
  Pd  Pd174  1  0.79587446  0.39945457  0.40044252  1
  Pd  Pd175  1  0.39838823  0.60558555  0.80627462  1
  Pd  Pd176  1  0.19583741  0.19733728  -0.00591931  1
  Pd  Pd177  1  0.79177212  0.19778751  0.39874118  1
  Pd  Pd178  1  0.19861078  0.39700913  0.20606054  1
  Pd  Pd179  1  0.60921651  0.00175471  -0.00197859  1
  Pd  Pd180  1  0.39884944  0.20514657  0.01047185  1
  Pd  Pd181  1  0.40521685  0.40316592  0.60272618  1
  Pd  Pd182  1  0.00366943  0.59588826  0.40838597  1
  Pd  Pd183  1  0.59402523  0.39880047  0.60293640  1
  Pd  Pd184  1  0.41479459  0.80990217  0.19442400  1
  Pd  Pd185  1  0.40932051  0.59714615  0.59312537  1
  Pd  Pd186  1  0.20207824  0.00259039  0.40062416  1
  Pd  Pd187  1  0.00621328  0.60319213  0.58850185  1
  Pd  Pd188  1  0.80010289  0.40690856  0.59043292  1
  Pd  Pd189  1  0.19300277  0.78723579  0.19347419  1
  Pd  Pd190  1  0.00652915  -0.00524253  0.80701958  1
  Pd  Pd191  1  0.19533124  -0.00664443  0.59876900  1
  Pd  Pd192  1  0.39985493  -0.00053791  0.79841207  1
  Pd  Pd193  1  0.19608738  0.20837093  0.59155158  1
  Pd  Pd194  1  0.78970709  0.79326658  0.60947734  1
  Pd  Pd195  1  0.59314935  0.60390535  0.39860921  1
  Pd  Pd196  1  -0.00828271  0.39567356  0.40665971  1
  Pd  Pd197  1  0.80454407  0.01068274  -0.00394973  1
  Pd  Pd198  1  0.79028034  -0.00387778  0.80057322  1
  Pd  Pd199  1  0.60423024  0.20795217  -0.00143832  1
  Rh  Rh200  1  0.60402970  0.20330909  0.40605919  1
  Rh  Rh201  1  0.80100173  0.79966104  0.40245065  1
  Rh  Rh202  1  0.00383414  0.59377000  0.00896622  1
  Rh  Rh203  1  -0.01047532  0.40388459  0.19726631  1
  Rh  Rh204  1  0.00420223  0.20768413  0.40880523  1
  Rh  Rh205  1  0.20450895  0.21177974  0.20797227  1
  Rh  Rh206  1  0.40284032  0.19514793  0.79762529  1
  Rh  Rh207  1  0.39725470  0.20157989  0.40066345  1
  Rh  Rh208  1  0.80527290  0.79239950  -0.00920597  1
  Rh  Rh209  1  0.61526430  0.58233323  0.80120847  1
  Rh  Rh210  1  0.00083859  0.00185808  0.59882285  1
  Rh  Rh211  1  0.79637487  -0.00037289  0.40737157  1
  Rh  Rh212  1  0.60131769  0.79277378  0.39518123  1
  Rh  Rh213  1  0.60618346  0.39422314  0.40210424  1
  Rh  Rh214  1  -0.01436085  0.80690721  0.39440814  1
  Rh  Rh215  1  0.59498225  0.39622402  -0.00641218  1
  Rh  Rh216  1  -0.00751275  0.81136791  0.01176115  1
  Rh  Rh217  1  0.40523488  0.38901775  0.19934000  1
  Rh  Rh218  1  0.59214098  0.21001437  0.20666279  1
  Rh  Rh219  1  0.79583034  0.20766879  0.20456419  1
  Rh  Rh220  1  0.59493422  0.60091517  -0.00498728  1
  Rh  Rh221  1  0.80405283  0.19014096  0.60777866  1
  Rh  Rh222  1  -0.00779797  0.80028343  0.79509984  1
  Rh  Rh223  1  0.20371641  0.59239926  0.80416519  1
  Rh  Rh224  1  0.79291358  0.00100699  0.59923541  1
  Rh  Rh225  1  0.80001028  0.79481585  0.20611876  1
  Rh  Rh226  1  0.21058781  0.79373139  0.40302641  1
  Rh  Rh227  1  0.20445306  0.39967415  0.60111391  1
  Rh  Rh228  1  0.39510965  0.58619895  0.20323715  1
  Rh  Rh229  1  0.60052857  -0.01194815  0.20317856  1
  Rh  Rh230  1  0.60636226  0.39719587  0.20890503  1
  Rh  Rh231  1  0.79952448  0.60116913  0.40352260  1
  Rh  Rh232  1  0.39632306  0.79923930  0.61026651  1
  Rh  Rh233  1  0.21071344  0.19831002  0.80000197  1
  Rh  Rh234  1  0.40112491  0.79215322  0.39376870  1
  Rh  Rh235  1  0.39899445  0.19874370  0.59799726  1
  Rh  Rh236  1  0.80343734  0.39983662  0.01488809  1
  Rh  Rh237  1  0.40605859  0.00224213  0.59524740  1
  Rh  Rh238  1  0.59969131  0.19766654  0.59845477  1
  Rh  Rh239  1  0.39995001  0.40191218  0.00265678  1
  Rh  Rh240  1  0.80059324  0.00239546  0.20842714  1
  Rh  Rh241  1  0.80006477  0.60395522  0.59846701  1
  Rh  Rh242  1  0.40327533  0.40443387  0.39876404  1
  Rh  Rh243  1  0.60290148  0.79558302  0.59578871  1
  Rh  Rh244  1  0.60897945  0.60694617  0.20713149  1
  Rh  Rh245  1  0.60313173  0.80715880  0.79689093  1
  Rh  Rh246  1  -0.00862334  0.59706396  0.79839429  1
  Rh  Rh247  1  0.20733254  0.79115118  0.00724566  1
  Rh  Rh248  1  0.41052468  0.39567608  0.78922609  1
  Rh  Rh249  1  -0.01362222  0.20728062  0.79213301  1
