# generated using pymatgen
data_ZrScNbPdRh
_symmetry_space_group_name_H-M   'P 1'
_cell_length_a   16.55370882
_cell_length_b   16.55410969
_cell_length_c   16.55519997
_cell_angle_alpha   90.05739972
_cell_angle_beta   90.01006004
_cell_angle_gamma   90.05952014
_symmetry_Int_Tables_number   1
_chemical_formula_structural   ZrScNbPdRh
_chemical_formula_sum   'Zr50 Sc50 Nb50 Pd50 Rh50'
_cell_volume   4536.64829971
_cell_formula_units_Z   50
loop_
 _symmetry_equiv_pos_site_id
 _symmetry_equiv_pos_as_xyz
  1  'x, y, z'
loop_
 _atom_site_type_symbol
 _atom_site_label
 _atom_site_symmetry_multiplicity
 _atom_site_fract_x
 _atom_site_fract_y
 _atom_site_fract_z
 _atom_site_occupancy
  Zr  Zr0  1  0.50047416  0.89965883  0.69657456  1
  Zr  Zr1  1  0.90354226  0.50009770  0.89126756  1
  Zr  Zr2  1  0.91392858  0.10967475  0.30071256  1
  Zr  Zr3  1  0.29320532  0.90627408  0.09937751  1
  Zr  Zr4  1  0.68730745  0.30149413  0.29624564  1
  Zr  Zr5  1  0.49728303  0.90529489  0.49765702  1
  Zr  Zr6  1  0.90380049  0.29302814  0.49873493  1
  Zr  Zr7  1  0.89898395  0.10382805  0.10429795  1
  Zr  Zr8  1  0.29076579  0.29459750  0.70065022  1
  Zr  Zr9  1  0.89776537  0.29887210  0.69536425  1
  Zr  Zr10  1  0.69061211  0.50978083  0.50018521  1
  Zr  Zr11  1  0.71410496  0.69763294  0.10361318  1
  Zr  Zr12  1  0.49568891  0.89861153  0.30413206  1
  Zr  Zr13  1  0.30294867  0.50928427  0.49837245  1
  Zr  Zr14  1  0.50269478  0.50575944  0.89195686  1
  Zr  Zr15  1  0.28572170  0.09335951  0.50668413  1
  Zr  Zr16  1  0.50284534  0.30448863  0.49516127  1
  Zr  Zr17  1  0.29903574  0.10011084  0.29401845  1
  Zr  Zr18  1  0.69071062  0.90239657  0.49975120  1
  Zr  Zr19  1  0.09694955  0.30740321  0.10212994  1
  Zr  Zr20  1  0.30094362  0.50872050  0.90080426  1
  Zr  Zr21  1  0.49968403  0.09627321  0.29317093  1
  Zr  Zr22  1  0.90316060  0.49743710  0.49991889  1
  Zr  Zr23  1  0.10345448  0.69975262  0.90326858  1
  Zr  Zr24  1  0.29489837  0.49992855  0.29830871  1
  Zr  Zr25  1  0.10038794  0.09281180  0.90142740  1
  Zr  Zr26  1  0.89922049  0.88908700  0.09982294  1
  Zr  Zr27  1  0.50618991  0.89199526  0.89469968  1
  Zr  Zr28  1  0.69951579  0.10232331  0.50938019  1
  Zr  Zr29  1  0.88805789  0.09355385  0.90653284  1
  Zr  Zr30  1  0.10203332  0.09909209  0.10877358  1
  Zr  Zr31  1  0.90764611  0.69183247  0.69823563  1
  Zr  Zr32  1  0.49784061  0.70376058  0.10453572  1
  Zr  Zr33  1  0.89782637  0.69197172  0.49154076  1
  Zr  Zr34  1  0.30180511  0.89758471  0.49826235  1
  Zr  Zr35  1  0.90235531  0.89913433  0.90340621  1
  Zr  Zr36  1  0.10987807  0.09836930  0.69396264  1
  Zr  Zr37  1  0.10795877  0.90183739  0.49984155  1
  Zr  Zr38  1  0.10477566  0.69552949  0.49817461  1
  Zr  Zr39  1  0.09728258  0.49865484  0.89892271  1
  Zr  Zr40  1  0.69017276  0.70614853  0.89829650  1
  Zr  Zr41  1  0.69940474  0.29813399  0.90355681  1
  Zr  Zr42  1  0.69386608  0.29531431  0.50005070  1
  Zr  Zr43  1  0.49877231  0.50059111  0.10419752  1
  Zr  Zr44  1  0.70117758  0.90643955  0.69594955  1
  Zr  Zr45  1  0.10063074  0.50122174  0.48780021  1
  Zr  Zr46  1  0.69272696  0.69801112  0.69333201  1
  Zr  Zr47  1  0.89837506  0.69977163  0.29952080  1
  Zr  Zr48  1  0.10788049  0.89443697  0.90315033  1
  Zr  Zr49  1  0.50416305  0.10565862  0.90613642  1
  Sc  Sc50  1  0.50453477  0.29790053  0.10522961  1
  Sc  Sc51  1  0.10721650  0.70235040  0.10278180  1
  Sc  Sc52  1  0.70852705  0.90551089  0.90654239  1
  Sc  Sc53  1  0.70006409  0.89525424  0.10109567  1
  Sc  Sc54  1  0.09322644  0.50836520  0.69856442  1
  Sc  Sc55  1  0.30010110  0.09473547  0.70076060  1
  Sc  Sc56  1  0.30018931  0.10186955  0.10211785  1
  Sc  Sc57  1  0.30074617  0.69811250  0.49904331  1
  Sc  Sc58  1  0.09572210  0.30298171  0.88451602  1
  Sc  Sc59  1  0.30601802  0.10265031  0.89591109  1
  Sc  Sc60  1  0.09086287  0.31206938  0.29541027  1
  Sc  Sc61  1  0.09997924  0.70282018  0.69626921  1
  Sc  Sc62  1  0.89968582  0.49529604  0.69659326  1
  Sc  Sc63  1  0.69421141  0.10861922  0.29852473  1
  Sc  Sc64  1  0.30238094  0.69977197  0.30296562  1
  Sc  Sc65  1  0.90485648  0.30327259  0.89271852  1
  Sc  Sc66  1  0.10600367  0.49702011  0.10772188  1
  Sc  Sc67  1  0.91171577  0.89365625  0.30427148  1
  Sc  Sc68  1  0.50168476  0.29292957  0.90357078  1
  Sc  Sc69  1  0.70022657  0.49715273  0.10686042  1
  Sc  Sc70  1  0.09292591  0.09782576  0.49717472  1
  Sc  Sc71  1  0.69699419  0.50045934  0.30235313  1
  Sc  Sc72  1  0.89480310  0.09434321  0.68927084  1
  Sc  Sc73  1  0.09536039  0.29187696  0.69714422  1
  Sc  Sc74  1  0.49931753  0.69222211  0.49544508  1
  Sc  Sc75  1  0.49799685  0.10162384  0.69783424  1
  Sc  Sc76  1  0.50491418  0.90160322  0.11298300  1
  Sc  Sc77  1  0.30102267  0.89949687  0.30721597  1
  Sc  Sc78  1  0.30426486  0.29889332  0.10896360  1
  Sc  Sc79  1  0.29672878  0.50361637  0.10861892  1
  Sc  Sc80  1  0.68935638  0.90193818  0.30548320  1
  Sc  Sc81  1  0.89780984  0.70349520  0.90874701  1
  Sc  Sc82  1  0.30499703  0.30673258  0.49094712  1
  Sc  Sc83  1  0.50389923  0.30504327  0.69107183  1
  Sc  Sc84  1  0.70510213  0.69764569  0.31510900  1
  Sc  Sc85  1  0.30315347  0.50710413  0.69277627  1
  Sc  Sc86  1  0.09999194  0.90015181  0.09523943  1
  Sc  Sc87  1  0.50371658  0.09898432  0.49742606  1
  Sc  Sc88  1  0.29847972  0.68997802  0.10539467  1
  Sc  Sc89  1  0.70211893  0.29800220  0.10716322  1
  Sc  Sc90  1  0.90074377  0.49707311  0.30228537  1
  Sc  Sc91  1  0.50152956  0.49898478  0.30770585  1
  Sc  Sc92  1  0.70443022  0.10544454  0.09306205  1
  Sc  Sc93  1  0.91423985  0.90241539  0.49880896  1
  Sc  Sc94  1  0.89723141  0.30140960  0.10902895  1
  Sc  Sc95  1  0.30665419  0.70146307  0.69455060  1
  Sc  Sc96  1  0.10301334  0.89643218  0.30748384  1
  Sc  Sc97  1  0.30514042  0.90047042  0.69992533  1
  Sc  Sc98  1  0.69726999  0.30213642  0.69130399  1
  Sc  Sc99  1  0.50068922  0.70006271  0.70967888  1
  Nb  Nb100  1  0.09975865  0.69523102  0.30592415  1
  Nb  Nb101  1  0.50329032  0.50347169  0.69405114  1
  Nb  Nb102  1  0.68641899  0.50178280  0.70571320  1
  Nb  Nb103  1  0.49778531  0.50043841  0.50667318  1
  Nb  Nb104  1  0.89769247  0.69625744  0.10528385  1
  Nb  Nb105  1  0.50041970  0.29446507  0.30424188  1
  Nb  Nb106  1  0.09036801  0.89829703  0.69992969  1
  Nb  Nb107  1  0.30694374  0.29874131  0.30166217  1
  Nb  Nb108  1  0.10105077  0.10567810  0.30271263  1
  Nb  Nb109  1  0.30224440  0.30181259  0.89976607  1
  Nb  Nb110  1  0.69701653  0.49829664  0.89687745  1
  Nb  Nb111  1  0.70159721  0.09786753  0.69885069  1
  Nb  Nb112  1  0.10138052  0.29983150  0.49802393  1
  Nb  Nb113  1  0.49510687  0.69925201  0.29867229  1
  Nb  Nb114  1  0.49322104  0.69939064  0.89909583  1
  Nb  Nb115  1  0.89625050  0.29976454  0.30068361  1
  Nb  Nb116  1  0.90054942  0.89457185  0.70022916  1
  Nb  Nb117  1  0.89725646  0.10333767  0.48957547  1
  Nb  Nb118  1  0.89485641  0.50702298  0.10066853  1
  Nb  Nb119  1  0.30518914  0.70014154  0.89782336  1
  Nb  Nb120  1  0.70338130  0.10085957  0.89966608  1
  Nb  Nb121  1  0.30200757  0.89709503  0.90086875  1
  Nb  Nb122  1  0.09805360  0.50314282  0.29772693  1
  Nb  Nb123  1  0.49352686  0.09593721  0.09658525  1
  Nb  Nb124  1  0.70597466  0.69808973  0.50043245  1
  Nb  Nb125  1  -0.00210293  0.60087937  0.19904907  1
  Nb  Nb126  1  0.00368223  0.19897057  0.00078453  1
  Nb  Nb127  1  0.80562721  0.00137553  0.20745627  1
  Nb  Nb128  1  0.20307251  0.60575128  0.80361350  1
  Nb  Nb129  1  0.19694420  0.40075504  0.59246181  1
  Nb  Nb130  1  0.80146086  0.79741915  0.59734706  1
  Nb  Nb131  1  0.19838195  0.20491146  0.39322328  1
  Nb  Nb132  1  0.79083945  0.59905069  0.79946822  1
  Nb  Nb133  1  0.59784069  0.60640901  0.20045584  1
  Nb  Nb134  1  0.59998037  0.60166861  0.00059036  1
  Nb  Nb135  1  0.40279402  -0.00605703  -0.00142194  1
  Nb  Nb136  1  -0.00083579  -0.00729308  0.79440757  1
  Nb  Nb137  1  0.39876143  0.40165576  0.80085228  1
  Nb  Nb138  1  0.39660281  0.40049872  -0.00452593  1
  Nb  Nb139  1  0.39483536  0.20232480  0.59490392  1
  Nb  Nb140  1  0.39723832  0.80046266  -0.00388491  1
  Nb  Nb141  1  0.79874164  0.39299032  0.40284641  1
  Nb  Nb142  1  0.80154570  0.79839364  0.79122774  1
  Nb  Nb143  1  0.79284914  0.19263135  0.79812770  1
  Nb  Nb144  1  0.80098547  0.40808692  -0.00295082  1
  Nb  Nb145  1  -0.00451532  0.59797341  0.00965403  1
  Nb  Nb146  1  0.20632704  0.39554131  -0.00529900  1
  Nb  Nb147  1  0.80481013  0.00711780  0.39868569  1
  Nb  Nb148  1  0.19722659  0.20703037  -0.00249964  1
  Nb  Nb149  1  0.60838144  0.00791649  0.80233799  1
  Pd  Pd150  1  -0.00268732  0.79413099  0.59068722  1
  Pd  Pd151  1  -0.00042567  0.19110843  0.59717156  1
  Pd  Pd152  1  0.79348654  0.20068533  0.39353247  1
  Pd  Pd153  1  0.80268569  0.81481807  0.40690695  1
  Pd  Pd154  1  0.79351008  0.80896364  0.21359312  1
  Pd  Pd155  1  0.19924620  0.39466495  0.39643404  1
  Pd  Pd156  1  0.20175927  0.79937587  0.20515868  1
  Pd  Pd157  1  0.39611544  0.00760799  0.40124099  1
  Pd  Pd158  1  0.39426038  0.19056567  0.40660616  1
  Pd  Pd159  1  0.60372662  0.19983707  0.79169787  1
  Pd  Pd160  1  0.60954419  0.79098665  0.21104045  1
  Pd  Pd161  1  0.20972563  0.79234017  0.00579217  1
  Pd  Pd162  1  0.38984847  0.80410542  0.19687325  1
  Pd  Pd163  1  0.59644328  0.79343914  0.59250097  1
  Pd  Pd164  1  -0.00066397  0.00134939  0.00134670  1
  Pd  Pd165  1  0.19973445  0.19563210  0.80731319  1
  Pd  Pd166  1  0.19545876  -0.00720236  0.20845373  1
  Pd  Pd167  1  0.80074140  0.40253113  0.20322124  1
  Pd  Pd168  1  0.59893276  -0.00143276  0.00002679  1
  Pd  Pd169  1  0.40886731  0.00018005  0.80525694  1
  Pd  Pd170  1  0.39156874  0.39534938  0.60561897  1
  Pd  Pd171  1  0.00012816  -0.00773837  0.20530274  1
  Pd  Pd172  1  0.19785721  -0.00692710  0.79776640  1
  Pd  Pd173  1  -0.01181883  0.18513583  0.80229581  1
  Pd  Pd174  1  0.61133909  0.00702998  0.19405527  1
  Pd  Pd175  1  0.79001784  0.40525735  0.59390599  1
  Pd  Pd176  1  0.00996822  0.40070701  0.60117676  1
  Pd  Pd177  1  0.20235384  0.41036069  0.79265007  1
  Pd  Pd178  1  0.40682366  0.79393459  0.59507933  1
  Pd  Pd179  1  0.20585667  0.79665850  0.79034786  1
  Pd  Pd180  1  0.00961057  0.79392869  0.19908300  1
  Pd  Pd181  1  -0.00143212  0.00492915  0.60016040  1
  Pd  Pd182  1  0.59386681  0.79103553  0.40232212  1
  Pd  Pd183  1  0.79950825  0.59599328  0.60723695  1
  Pd  Pd184  1  0.40310039  0.60099690  0.00504855  1
  Pd  Pd185  1  0.60215401  0.20178586  0.00948991  1
  Pd  Pd186  1  0.40466504  0.40658166  0.39653139  1
  Pd  Pd187  1  0.60050643  0.40393803  0.00441496  1
  Pd  Pd188  1  0.59250525  0.39160828  0.79869634  1
  Pd  Pd189  1  -0.00356050  0.40049774  0.00351034  1
  Pd  Pd190  1  0.79698178  0.59516488  -0.00863103  1
  Pd  Pd191  1  0.40472301  0.20755966  0.79050902  1
  Pd  Pd192  1  0.40364770  0.39945090  0.20109943  1
  Pd  Pd193  1  0.80839856  -0.00687109  0.58753190  1
  Pd  Pd194  1  0.59636995  0.79734067  0.00536710  1
  Pd  Pd195  1  0.40585911  0.20090526  0.19618874  1
  Pd  Pd196  1  0.20236846  0.80193161  0.60433213  1
  Pd  Pd197  1  0.79567536  0.39848800  0.79972485  1
  Pd  Pd198  1  0.19611748  0.21082964  0.20349051  1
  Pd  Pd199  1  -0.00381563  0.79778239  0.80531549  1
  Rh  Rh200  1  0.40146007  0.59767602  0.39750690  1
  Rh  Rh201  1  0.60244927  0.40650687  0.59620682  1
  Rh  Rh202  1  0.59579647  0.60339465  0.39659460  1
  Rh  Rh203  1  0.00166748  0.60649245  0.80869798  1
  Rh  Rh204  1  0.19784685  0.59581472  0.60591707  1
  Rh  Rh205  1  0.60080987  0.60337757  0.80330863  1
  Rh  Rh206  1  -0.00129330  0.59939918  0.39238715  1
  Rh  Rh207  1  0.60852247  0.81044615  0.79640640  1
  Rh  Rh208  1  0.59270976  0.60296143  0.59778978  1
  Rh  Rh209  1  0.79810947  0.19487101  0.20605852  1
  Rh  Rh210  1  0.60574153  0.00798748  0.39844622  1
  Rh  Rh211  1  0.20639630  0.21246854  0.58573311  1
  Rh  Rh212  1  0.80128950  0.19919281  0.60463894  1
  Rh  Rh213  1  0.79954555  0.58709619  0.39800632  1
  Rh  Rh214  1  0.00176903  0.00102490  0.39799488  1
  Rh  Rh215  1  0.40461705  0.59786187  0.20948494  1
  Rh  Rh216  1  0.40201948  0.79668389  0.40202565  1
  Rh  Rh217  1  0.79828209  -0.00647981  0.01697184  1
  Rh  Rh218  1  0.39677874  0.59781650  0.79112668  1
  Rh  Rh219  1  0.20528782  0.39710840  0.20171387  1
  Rh  Rh220  1  0.00336681  0.20807599  0.19781741  1
  Rh  Rh221  1  0.80905637  0.21578410  -0.00903693  1
  Rh  Rh222  1  0.59342300  0.19455392  0.19397155  1
  Rh  Rh223  1  -0.00679596  0.39529568  0.39655834  1
  Rh  Rh224  1  -0.00894017  0.40950253  0.20124301  1
  Rh  Rh225  1  0.19605190  0.00757802  0.39366871  1
  Rh  Rh226  1  0.20190574  0.79477840  0.40044902  1
  Rh  Rh227  1  0.59992552  0.40273714  0.40175013  1
  Rh  Rh228  1  0.59442690  0.19597395  0.39868953  1
  Rh  Rh229  1  0.21163322  0.01170367  -0.00465136  1
  Rh  Rh230  1  0.39682411  0.79986988  0.80278653  1
  Rh  Rh231  1  0.00662988  0.79471709  0.40551485  1
  Rh  Rh232  1  0.20514809  0.60355367  0.39425073  1
  Rh  Rh233  1  0.19289770  0.59460621  -0.00339291  1
  Rh  Rh234  1  0.39971420  0.00694475  0.59688979  1
  Rh  Rh235  1  0.59364287  0.40423152  0.20520845  1
  Rh  Rh236  1  0.39474332  0.19837077  0.00656332  1
  Rh  Rh237  1  0.80179001  -0.00100944  0.79691946  1
  Rh  Rh238  1  0.01030262  0.20805795  0.39764272  1
  Rh  Rh239  1  0.79872456  0.59828831  0.21143765  1
  Rh  Rh240  1  0.39812515  -0.00450676  0.19515109  1
  Rh  Rh241  1  0.40822463  0.60436560  0.60156288  1
  Rh  Rh242  1  0.19959998  -0.01366284  0.60860157  1
  Rh  Rh243  1  0.59238662  0.00611070  0.60624967  1
  Rh  Rh244  1  0.00190433  0.39987409  0.78555749  1
  Rh  Rh245  1  0.00182119  0.79154648  0.00775843  1
  Rh  Rh246  1  0.19151313  0.60367069  0.20717258  1
  Rh  Rh247  1  0.59114224  0.19676452  0.60177025  1
  Rh  Rh248  1  0.80107815  0.80075256  -0.00370508  1
  Rh  Rh249  1  0.00315698  0.59890427  0.59192794  1
