# generated using pymatgen
data_ZrScNbPdRh
_symmetry_space_group_name_H-M   'P 1'
_cell_length_a   16.55556976
_cell_length_b   16.55696418
_cell_length_c   16.55670215
_cell_angle_alpha   90.04684780
_cell_angle_beta   89.98187395
_cell_angle_gamma   89.98831535
_symmetry_Int_Tables_number   1
_chemical_formula_structural   ZrScNbPdRh
_chemical_formula_sum   'Zr50 Sc50 Nb50 Pd50 Rh50'
_cell_volume   4538.35538098
_cell_formula_units_Z   50
loop_
 _symmetry_equiv_pos_site_id
 _symmetry_equiv_pos_as_xyz
  1  'x, y, z'
loop_
 _atom_site_type_symbol
 _atom_site_label
 _atom_site_symmetry_multiplicity
 _atom_site_fract_x
 _atom_site_fract_y
 _atom_site_fract_z
 _atom_site_occupancy
  Zr  Zr0  1  0.10296919  0.09866092  0.49541718  1
  Zr  Zr1  1  0.50066626  0.29137384  0.09824167  1
  Zr  Zr2  1  0.69383378  0.50062253  0.70070289  1
  Zr  Zr3  1  0.09719264  0.30717440  0.69865734  1
  Zr  Zr4  1  0.29469283  0.70554639  0.89350575  1
  Zr  Zr5  1  0.69882097  0.10585374  0.10262758  1
  Zr  Zr6  1  0.49568522  0.30007806  0.70189844  1
  Zr  Zr7  1  0.89999461  0.89329680  0.09893419  1
  Zr  Zr8  1  0.69631492  0.30245001  0.09455171  1
  Zr  Zr9  1  0.89701912  0.10102606  0.50733379  1
  Zr  Zr10  1  0.09553350  0.69534439  0.10557957  1
  Zr  Zr11  1  0.50368461  0.90208137  0.90089499  1
  Zr  Zr12  1  0.90015186  0.49145414  0.49579105  1
  Zr  Zr13  1  0.10177832  0.71373733  0.50230090  1
  Zr  Zr14  1  0.70990626  0.10018598  0.68475776  1
  Zr  Zr15  1  0.90710914  0.11107446  0.90000526  1
  Zr  Zr16  1  0.89776996  0.30630545  0.30686373  1
  Zr  Zr17  1  0.29759120  0.69372094  0.50251086  1
  Zr  Zr18  1  0.30277921  0.90130509  0.89969771  1
  Zr  Zr19  1  0.89664007  0.91042417  0.29562994  1
  Zr  Zr20  1  0.29842557  0.70432306  0.10004955  1
  Zr  Zr21  1  0.89324876  0.29550222  0.09548972  1
  Zr  Zr22  1  0.89703696  0.09791933  0.10280788  1
  Zr  Zr23  1  0.30080041  0.89368795  0.50171195  1
  Zr  Zr24  1  0.09243695  0.69937864  0.88755538  1
  Zr  Zr25  1  0.70433863  0.69632624  0.09535974  1
  Zr  Zr26  1  0.49853300  0.70334622  0.90638173  1
  Zr  Zr27  1  0.29206272  0.90364526  0.29964938  1
  Zr  Zr28  1  0.89156912  0.10510174  0.29935213  1
  Zr  Zr29  1  0.50024190  0.30219285  0.89968391  1
  Zr  Zr30  1  0.10669777  0.50868733  0.29243527  1
  Zr  Zr31  1  0.69713307  0.70103756  0.50408494  1
  Zr  Zr32  1  0.89893611  0.69751851  0.29307836  1
  Zr  Zr33  1  0.49526092  0.69898276  0.30110804  1
  Zr  Zr34  1  0.49911396  0.50119673  0.89105454  1
  Zr  Zr35  1  0.29510512  0.09596477  0.89355937  1
  Zr  Zr36  1  0.29521795  0.10862679  0.09823971  1
  Zr  Zr37  1  0.29794468  0.90176345  0.70647865  1
  Zr  Zr38  1  0.29975127  0.50332448  0.29817255  1
  Zr  Zr39  1  0.89755372  0.50565150  0.10254666  1
  Zr  Zr40  1  0.10349408  0.30742645  0.08329685  1
  Zr  Zr41  1  0.69745728  0.90303401  0.69599866  1
  Zr  Zr42  1  0.89835200  0.69963589  0.89914853  1
  Zr  Zr43  1  0.49872577  0.29459518  0.30353004  1
  Zr  Zr44  1  0.70067567  0.50378330  0.50370624  1
  Zr  Zr45  1  0.10330448  0.29561983  0.50547625  1
  Zr  Zr46  1  0.49165570  0.90410214  0.69747751  1
  Zr  Zr47  1  0.69798247  0.49833299  0.09603284  1
  Zr  Zr48  1  0.10435550  0.09894409  0.69961876  1
  Zr  Zr49  1  0.90383934  0.89058860  0.89520357  1
  Sc  Sc50  1  0.89931333  0.89870084  0.69451471  1
  Sc  Sc51  1  0.10752210  0.70137625  0.30542665  1
  Sc  Sc52  1  0.10208442  0.09551662  0.30038864  1
  Sc  Sc53  1  0.69683466  0.28838991  0.50584597  1
  Sc  Sc54  1  0.50411734  0.89237906  0.50090458  1
  Sc  Sc55  1  0.70442069  0.50538917  0.89924842  1
  Sc  Sc56  1  0.29201373  0.09968193  0.29583962  1
  Sc  Sc57  1  0.49781529  0.10249394  0.50116399  1
  Sc  Sc58  1  0.90323040  0.30657057  0.70418630  1
  Sc  Sc59  1  0.29391375  0.29413221  0.49621656  1
  Sc  Sc60  1  0.70500882  0.28921702  0.30339814  1
  Sc  Sc61  1  0.50459162  0.90540059  0.09897201  1
  Sc  Sc62  1  0.69881398  0.30036102  0.69893911  1
  Sc  Sc63  1  0.30177535  0.30276077  0.69644725  1
  Sc  Sc64  1  0.69338586  0.09583230  0.89089511  1
  Sc  Sc65  1  0.49477548  0.70251234  0.49651054  1
  Sc  Sc66  1  0.49925887  0.50492489  0.10745459  1
  Sc  Sc67  1  0.50545207  0.69538802  0.10232825  1
  Sc  Sc68  1  0.10442008  0.29445882  0.31486411  1
  Sc  Sc69  1  0.49643387  0.10337755  0.69707822  1
  Sc  Sc70  1  0.10282741  0.10774517  0.90795714  1
  Sc  Sc71  1  0.10236960  0.89600932  0.68939462  1
  Sc  Sc72  1  0.91085528  0.30858715  0.89841522  1
  Sc  Sc73  1  0.11134216  0.49839103  0.70835191  1
  Sc  Sc74  1  0.10546775  0.90050469  0.10276213  1
  Sc  Sc75  1  0.51284847  0.09544700  0.29846108  1
  Sc  Sc76  1  0.49879241  0.28791793  0.50484310  1
  Sc  Sc77  1  0.29904408  0.29783153  0.29641063  1
  Sc  Sc78  1  0.30668896  0.09459988  0.69670857  1
  Sc  Sc79  1  0.69769472  0.69352152  0.30376736  1
  Sc  Sc80  1  0.29355241  0.90752095  0.10072698  1
  Sc  Sc81  1  0.49738541  0.51249210  0.29611830  1
  Sc  Sc82  1  0.49912189  0.50456029  0.51778184  1
  Sc  Sc83  1  0.90664642  0.30141589  0.49743530  1
  Sc  Sc84  1  0.29982785  0.69218852  0.31055317  1
  Sc  Sc85  1  0.10629707  0.48688869  0.50117158  1
  Sc  Sc86  1  0.29945573  0.10119253  0.50498230  1
  Sc  Sc87  1  0.71298115  0.49974077  0.30702268  1
  Sc  Sc88  1  0.69742865  0.30792005  0.90107320  1
  Sc  Sc89  1  0.29473813  0.49565672  0.88099454  1
  Sc  Sc90  1  0.69905554  0.89944187  0.09589526  1
  Sc  Sc91  1  0.10894386  0.89795373  0.89664430  1
  Sc  Sc92  1  0.69418631  0.09409381  0.49459226  1
  Sc  Sc93  1  0.89813054  0.50060683  0.71031040  1
  Sc  Sc94  1  0.48637132  0.68885027  0.70335635  1
  Sc  Sc95  1  0.90025681  0.70635560  0.50739860  1
  Sc  Sc96  1  0.49980714  0.11007742  0.89258823  1
  Sc  Sc97  1  0.29973983  0.29729525  0.89771670  1
  Sc  Sc98  1  0.71348932  0.69823156  0.69535475  1
  Sc  Sc99  1  0.10568413  0.10199511  0.09791282  1
  Nb  Nb100  1  0.90205741  0.70237149  0.09736388  1
  Nb  Nb101  1  0.91855073  0.69917424  0.70852194  1
  Nb  Nb102  1  0.49846520  0.89922199  0.30234209  1
  Nb  Nb103  1  0.69847247  0.89380580  0.50030391  1
  Nb  Nb104  1  0.48722145  0.49525601  0.70490876  1
  Nb  Nb105  1  0.30391281  0.30454500  0.10106095  1
  Nb  Nb106  1  0.90608550  0.50351536  0.89877436  1
  Nb  Nb107  1  0.09729002  0.30320061  0.89321477  1
  Nb  Nb108  1  0.09622947  0.89709038  0.48884186  1
  Nb  Nb109  1  0.90514339  0.49941108  0.30254976  1
  Nb  Nb110  1  0.91839935  0.89454516  0.49326530  1
  Nb  Nb111  1  0.50047139  0.10297865  0.09501925  1
  Nb  Nb112  1  0.28315685  0.68947103  0.70198752  1
  Nb  Nb113  1  0.10214811  0.50063969  0.09913503  1
  Nb  Nb114  1  0.09474171  0.48799462  0.90497322  1
  Nb  Nb115  1  0.29326014  0.49683889  0.10580960  1
  Nb  Nb116  1  0.70516471  0.08955961  0.30234924  1
  Nb  Nb117  1  0.31402733  0.50909662  0.69599045  1
  Nb  Nb118  1  0.30237661  0.50081949  0.49387919  1
  Nb  Nb119  1  0.90204892  0.10196680  0.70077331  1
  Nb  Nb120  1  0.10164355  0.69777304  0.69755749  1
  Nb  Nb121  1  0.69362461  0.91359053  0.30935461  1
  Nb  Nb122  1  0.09640361  0.89852617  0.31356066  1
  Nb  Nb123  1  0.69889163  0.89694240  0.89447903  1
  Nb  Nb124  1  0.69522549  0.70532635  0.90186303  1
  Nb  Nb125  1  -0.00215075  0.20922870  0.20000169  1
  Nb  Nb126  1  0.60366850  0.79924851  0.80156798  1
  Nb  Nb127  1  0.00085918  0.40156895  0.19934473  1
  Nb  Nb128  1  0.39441960  0.40320475  0.00641494  1
  Nb  Nb129  1  0.40321490  0.40323010  0.40148956  1
  Nb  Nb130  1  0.80507725  0.19827409  0.79620564  1
  Nb  Nb131  1  0.59979826  0.80441467  0.20829350  1
  Nb  Nb132  1  -0.00154443  0.80076016  0.20357777  1
  Nb  Nb133  1  0.19422060  0.20396141  0.79775715  1
  Nb  Nb134  1  0.79814795  0.40343040  0.59998640  1
  Nb  Nb135  1  -0.00455156  -0.00256702  -0.00352106  1
  Nb  Nb136  1  0.00119388  0.19715689  0.60297495  1
  Nb  Nb137  1  0.40315736  0.00909428  0.00287200  1
  Nb  Nb138  1  0.19632023  0.59083959  -0.00164381  1
  Nb  Nb139  1  0.38772034  0.59250542  -0.00027062  1
  Nb  Nb140  1  0.79769439  0.81033332  0.40270695  1
  Nb  Nb141  1  0.80243609  -0.00202993  -0.00857213  1
  Nb  Nb142  1  0.59428142  0.39916055  0.39975588  1
  Nb  Nb143  1  -0.00043169  0.59866709  0.40370241  1
  Nb  Nb144  1  -0.00072682  0.00363409  0.80114443  1
  Nb  Nb145  1  0.60093872  0.39806660  0.20610641  1
  Nb  Nb146  1  0.00420116  0.60078492  0.60267279  1
  Nb  Nb147  1  0.40147709  -0.00562012  0.39596736  1
  Nb  Nb148  1  0.00126589  0.59611373  -0.00032192  1
  Nb  Nb149  1  0.40393172  0.80509637  0.20570020  1
  Pd  Pd150  1  0.39502940  0.20037577  -0.00487601  1
  Pd  Pd151  1  0.00950187  0.00098443  0.19525910  1
  Pd  Pd152  1  0.01285583  0.40535037  0.39256810  1
  Pd  Pd153  1  0.79279391  0.80503279  0.20973691  1
  Pd  Pd154  1  0.59312265  0.78978380  0.61369224  1
  Pd  Pd155  1  0.80472090  -0.01196183  0.59009368  1
  Pd  Pd156  1  0.78955754  0.19634621  -0.01464637  1
  Pd  Pd157  1  0.20064609  -0.00541091  0.59376835  1
  Pd  Pd158  1  0.79872378  0.60358267  0.80186820  1
  Pd  Pd159  1  0.39292489  0.79092553  0.60862924  1
  Pd  Pd160  1  0.40094011  0.00173944  0.19848719  1
  Pd  Pd161  1  0.40386160  0.80696875  0.01225798  1
  Pd  Pd162  1  0.40796057  0.40083861  0.20220175  1
  Pd  Pd163  1  0.79789488  0.39968996  0.20307504  1
  Pd  Pd164  1  0.79639890  0.79553364  0.79466995  1
  Pd  Pd165  1  0.80395630  -0.00536477  0.41402785  1
  Pd  Pd166  1  -0.00327928  0.01029582  0.39706215  1
  Pd  Pd167  1  0.60434078  0.79858289  0.39522018  1
  Pd  Pd168  1  0.59332747  0.00181201  0.59376720  1
  Pd  Pd169  1  0.59531896  -0.00041066  0.79205375  1
  Pd  Pd170  1  0.19122923  0.79584260  -0.00210023  1
  Pd  Pd171  1  0.40228967  0.79562899  0.79393722  1
  Pd  Pd172  1  0.00255633  0.00066079  0.60322484  1
  Pd  Pd173  1  0.60289336  -0.00296129  0.19672708  1
  Pd  Pd174  1  0.80809337  0.80533397  0.59732091  1
  Pd  Pd175  1  0.60215899  0.60950401  0.79406682  1
  Pd  Pd176  1  0.60946167  0.20054088  0.79379511  1
  Pd  Pd177  1  0.39560287  0.19176910  0.39509109  1
  Pd  Pd178  1  0.19921438  0.79829633  0.20794279  1
  Pd  Pd179  1  0.80894430  0.61065284  0.40667716  1
  Pd  Pd180  1  0.19167857  0.38945614  0.20634799  1
  Pd  Pd181  1  0.60158924  0.39499037  0.59599853  1
  Pd  Pd182  1  0.60149670  0.00728352  -0.00252187  1
  Pd  Pd183  1  0.59311498  0.59489957  -0.00114734  1
  Pd  Pd184  1  0.60499463  0.20155214  0.20593789  1
  Pd  Pd185  1  0.40103550  0.18994102  0.20539283  1
  Pd  Pd186  1  0.21069634  0.40206942  -0.00873448  1
  Pd  Pd187  1  0.79595450  0.59735155  0.20019784  1
  Pd  Pd188  1  0.21322499  0.40546309  0.60474762  1
  Pd  Pd189  1  0.80640672  0.40344657  -0.00929784  1
  Pd  Pd190  1  0.79426927  0.80295798  -0.00292730  1
  Pd  Pd191  1  0.59269076  0.60750344  0.60949449  1
  Pd  Pd192  1  0.18928987  0.20855267  0.19835149  1
  Pd  Pd193  1  0.60226947  0.40021590  0.79882806  1
  Pd  Pd194  1  0.19352522  0.59031490  0.59359355  1
  Pd  Pd195  1  0.39424192  0.39349968  0.58933858  1
  Pd  Pd196  1  0.59410652  0.59167017  0.40337299  1
  Pd  Pd197  1  0.81499638  0.59606867  0.60439038  1
  Pd  Pd198  1  0.79753133  0.20102893  0.40814604  1
  Pd  Pd199  1  0.80713542  0.00520138  0.80366813  1
  Rh  Rh200  1  0.79959383  0.20132712  0.20319524  1
  Rh  Rh201  1  0.39380065  0.80545074  0.39421994  1
  Rh  Rh202  1  -0.00165717  0.19329471  0.40080524  1
  Rh  Rh203  1  0.39493908  0.60440373  0.80825144  1
  Rh  Rh204  1  0.00069136  0.79661181  0.60534591  1
  Rh  Rh205  1  0.20296098  0.20869120  -0.00633839  1
  Rh  Rh206  1  0.39782237  0.60436336  0.59703963  1
  Rh  Rh207  1  0.80546427  0.60205659  -0.00586073  1
  Rh  Rh208  1  -0.00033281  0.40801237  0.79712979  1
  Rh  Rh209  1  0.18988001  0.59696332  0.40998655  1
  Rh  Rh210  1  0.40637089  0.00350145  0.80822106  1
  Rh  Rh211  1  0.61249812  0.59779230  0.20163463  1
  Rh  Rh212  1  0.78834758  -0.00209341  0.19155900  1
  Rh  Rh213  1  -0.00783470  0.40340141  0.60505396  1
  Rh  Rh214  1  0.20137166  -0.00010566  0.00025098  1
  Rh  Rh215  1  0.19418426  0.59586409  0.80533058  1
  Rh  Rh216  1  0.39198990  0.61010384  0.19264444  1
  Rh  Rh217  1  0.19589427  0.80218422  0.79125990  1
  Rh  Rh218  1  0.20452585  0.19368321  0.40033365  1
  Rh  Rh219  1  0.20448173  0.80264889  0.60264840  1
  Rh  Rh220  1  0.78615319  0.39233492  0.41199883  1
  Rh  Rh221  1  0.00820718  0.81177628  0.79001881  1
  Rh  Rh222  1  0.59723180  0.19427791  0.60485973  1
  Rh  Rh223  1  0.79771385  0.39705174  0.79846927  1
  Rh  Rh224  1  0.19161629  -0.00104920  0.20197146  1
  Rh  Rh225  1  0.00586271  0.19829041  0.00890684  1
  Rh  Rh226  1  0.21043979  0.40123117  0.39558077  1
  Rh  Rh227  1  0.00744847  0.59050545  0.79966912  1
  Rh  Rh228  1  0.81199663  0.21325081  0.60639969  1
  Rh  Rh229  1  0.19726173  0.19959336  0.60650373  1
  Rh  Rh230  1  -0.00113130  0.60040866  0.20189935  1
  Rh  Rh231  1  0.39005797  0.20158854  0.79463035  1
  Rh  Rh232  1  0.20604255  0.79987526  0.39922052  1
  Rh  Rh233  1  0.58663884  0.40463384  0.00755276  1
  Rh  Rh234  1  0.20724521  0.60629048  0.19570102  1
  Rh  Rh235  1  0.40277321  -0.00219506  0.58925134  1
  Rh  Rh236  1  0.20569703  -0.00124650  0.40480406  1
  Rh  Rh237  1  -0.00858745  0.79222410  0.38919948  1
  Rh  Rh238  1  0.00424435  0.19798445  0.79273016  1
  Rh  Rh239  1  0.19186211  0.00428263  0.80005436  1
  Rh  Rh240  1  -0.00885039  0.40606150  0.00589167  1
  Rh  Rh241  1  0.20359780  0.39301615  0.79667817  1
  Rh  Rh242  1  0.39679128  0.20172623  0.60248660  1
  Rh  Rh243  1  0.59241444  -0.00074420  0.40759767  1
  Rh  Rh244  1  0.60354829  0.19682578  -0.00666003  1
  Rh  Rh245  1  0.40632332  0.59115226  0.40954727  1
  Rh  Rh246  1  0.39659765  0.39571073  0.80151173  1
  Rh  Rh247  1  0.60382891  0.79984141  0.00208116  1
  Rh  Rh248  1  0.00782778  0.79831901  0.00863549  1
  Rh  Rh249  1  0.60363663  0.19732528  0.39801294  1
