# generated using pymatgen
data_ZrScNbPdRh
_symmetry_space_group_name_H-M   'P 1'
_cell_length_a   16.55974059
_cell_length_b   16.55858734
_cell_length_c   16.55517853
_cell_angle_alpha   90.04724094
_cell_angle_beta   89.96218836
_cell_angle_gamma   89.96828941
_symmetry_Int_Tables_number   1
_chemical_formula_structural   ZrScNbPdRh
_chemical_formula_sum   'Zr50 Sc50 Nb50 Pd50 Rh50'
_cell_volume   4539.52457944
_cell_formula_units_Z   50
loop_
 _symmetry_equiv_pos_site_id
 _symmetry_equiv_pos_as_xyz
  1  'x, y, z'
loop_
 _atom_site_type_symbol
 _atom_site_label
 _atom_site_symmetry_multiplicity
 _atom_site_fract_x
 _atom_site_fract_y
 _atom_site_fract_z
 _atom_site_occupancy
  Zr  Zr0  1  0.10554886  0.29515593  0.30213484  1
  Zr  Zr1  1  0.08560628  0.10760592  0.91034060  1
  Zr  Zr2  1  0.10109047  0.29910148  0.49557847  1
  Zr  Zr3  1  0.29868583  0.50092292  0.89505099  1
  Zr  Zr4  1  0.89974687  0.50568897  0.29378506  1
  Zr  Zr5  1  0.89029683  0.90288589  0.90558915  1
  Zr  Zr6  1  0.49877791  0.10204344  0.10530281  1
  Zr  Zr7  1  0.49944225  0.29912595  0.90020463  1
  Zr  Zr8  1  0.30094431  0.29169736  0.10231927  1
  Zr  Zr9  1  0.49611794  0.90231409  0.09069372  1
  Zr  Zr10  1  0.29329363  0.50934047  0.10832274  1
  Zr  Zr11  1  0.09553380  0.50814715  0.89522701  1
  Zr  Zr12  1  0.09603789  0.69867763  0.50180477  1
  Zr  Zr13  1  0.90077907  0.10126616  0.50241810  1
  Zr  Zr14  1  0.09972350  0.90052918  0.69483174  1
  Zr  Zr15  1  0.88833928  0.69028323  0.69212474  1
  Zr  Zr16  1  0.49970664  0.50657078  0.30842802  1
  Zr  Zr17  1  0.70720245  0.10268319  0.49746088  1
  Zr  Zr18  1  0.30195389  0.09429240  0.10156927  1
  Zr  Zr19  1  0.29458410  0.89740037  0.69815851  1
  Zr  Zr20  1  0.11994965  0.49385432  0.29531855  1
  Zr  Zr21  1  0.30469969  0.29845232  0.90047598  1
  Zr  Zr22  1  0.69585780  0.50085796  0.29948416  1
  Zr  Zr23  1  0.49788533  0.10545828  0.49431003  1
  Zr  Zr24  1  0.10797498  0.69553780  0.08771648  1
  Zr  Zr25  1  0.88914545  0.30756324  0.70234064  1
  Zr  Zr26  1  0.70567812  0.50808128  0.10019610  1
  Zr  Zr27  1  0.30523371  0.89881122  0.89702327  1
  Zr  Zr28  1  0.10114700  0.10164619  0.10443345  1
  Zr  Zr29  1  0.30367760  0.68395378  0.29506231  1
  Zr  Zr30  1  0.29575812  0.89919462  0.29895620  1
  Zr  Zr31  1  0.90669394  0.09770162  0.09469322  1
  Zr  Zr32  1  0.90668022  0.88779895  0.29471770  1
  Zr  Zr33  1  0.50242871  0.30048315  0.69698211  1
  Zr  Zr34  1  0.90260493  0.50603693  0.09580043  1
  Zr  Zr35  1  0.09928471  0.09748879  0.29980041  1
  Zr  Zr36  1  0.70551203  0.89645016  0.29976308  1
  Zr  Zr37  1  0.70290143  0.69691305  0.50952610  1
  Zr  Zr38  1  0.30344135  0.89206495  0.09275857  1
  Zr  Zr39  1  0.49433051  0.70209018  0.10057451  1
  Zr  Zr40  1  0.30646602  0.08944654  0.50403916  1
  Zr  Zr41  1  0.69994567  0.11120045  0.30002854  1
  Zr  Zr42  1  0.49831931  0.29799834  0.09972787  1
  Zr  Zr43  1  0.50119068  0.09604191  0.89956802  1
  Zr  Zr44  1  0.51273386  0.49696710  0.10077325  1
  Zr  Zr45  1  0.09730664  0.31384550  0.70572736  1
  Zr  Zr46  1  0.70688302  0.49727554  0.70019870  1
  Zr  Zr47  1  0.30392610  0.10140647  0.89557095  1
  Zr  Zr48  1  0.29249556  0.31055963  0.30319265  1
  Zr  Zr49  1  0.69825729  0.29897018  0.11133587  1
  Sc  Sc50  1  0.90103803  0.69693195  0.88836982  1
  Sc  Sc51  1  0.28450845  0.69727400  0.50316858  1
  Sc  Sc52  1  0.09317379  0.89609031  0.29807513  1
  Sc  Sc53  1  0.70642255  0.30289253  0.30556247  1
  Sc  Sc54  1  0.09928247  0.89730166  0.49798430  1
  Sc  Sc55  1  0.08695303  0.09883227  0.49826308  1
  Sc  Sc56  1  0.50417156  0.69666506  0.70155244  1
  Sc  Sc57  1  0.09293788  0.09459821  0.69330268  1
  Sc  Sc58  1  0.09377838  0.90549699  0.10825283  1
  Sc  Sc59  1  0.89388633  0.10173931  0.69706996  1
  Sc  Sc60  1  0.29588322  0.69571390  0.70384437  1
  Sc  Sc61  1  0.89589145  0.49965322  0.90389367  1
  Sc  Sc62  1  0.70482464  0.10233002  0.11142195  1
  Sc  Sc63  1  0.50025970  0.10707490  0.70374066  1
  Sc  Sc64  1  0.28839032  0.89668288  0.50545950  1
  Sc  Sc65  1  0.29949250  0.50318511  0.49610127  1
  Sc  Sc66  1  0.29577164  0.70406799  0.90673310  1
  Sc  Sc67  1  0.69913050  0.08206761  0.88937139  1
  Sc  Sc68  1  0.30273842  0.10527064  0.29190358  1
  Sc  Sc69  1  0.50181604  0.89946360  0.89495878  1
  Sc  Sc70  1  0.49792596  0.90101620  0.30743846  1
  Sc  Sc71  1  0.49375728  0.90756072  0.49445258  1
  Sc  Sc72  1  0.89579769  0.30906519  0.09291411  1
  Sc  Sc73  1  0.69894847  0.89602077  0.49421755  1
  Sc  Sc74  1  0.09788311  0.70438644  0.30530262  1
  Sc  Sc75  1  0.90194125  0.89831498  0.10672877  1
  Sc  Sc76  1  0.50808477  0.68861020  0.50155327  1
  Sc  Sc77  1  0.30151638  0.30901343  0.70192497  1
  Sc  Sc78  1  0.09659102  0.69064787  0.70745226  1
  Sc  Sc79  1  0.89832320  0.10378914  0.30631160  1
  Sc  Sc80  1  0.90671247  0.30030182  0.89612164  1
  Sc  Sc81  1  0.09654783  0.50519085  0.09186594  1
  Sc  Sc82  1  0.89450207  0.29589850  0.50007129  1
  Sc  Sc83  1  0.89404526  0.90016359  0.70120802  1
  Sc  Sc84  1  0.89873555  0.69901562  0.11275834  1
  Sc  Sc85  1  0.50197884  0.69232846  0.30115197  1
  Sc  Sc86  1  0.69693987  0.89546126  0.70422698  1
  Sc  Sc87  1  0.69507441  0.49559485  0.49754489  1
  Sc  Sc88  1  0.70513943  0.31124942  0.88620154  1
  Sc  Sc89  1  0.71478483  0.89881589  0.09700966  1
  Sc  Sc90  1  0.50365022  0.88888736  0.70840169  1
  Sc  Sc91  1  0.70265714  0.70074067  0.30277473  1
  Sc  Sc92  1  0.70181655  0.30264467  0.69393052  1
  Sc  Sc93  1  0.90172907  0.90621972  0.49452902  1
  Sc  Sc94  1  0.29888937  0.09257390  0.70085211  1
  Sc  Sc95  1  0.30687814  0.30320413  0.49918103  1
  Sc  Sc96  1  0.70035427  0.30450682  0.50116485  1
  Sc  Sc97  1  0.70202329  0.09883994  0.69982957  1
  Sc  Sc98  1  0.29065911  0.50510754  0.69758589  1
  Sc  Sc99  1  0.50217195  0.50044260  0.50162410  1
  Nb  Nb100  1  0.69459453  0.50876160  0.90353523  1
  Nb  Nb101  1  0.69972251  0.69717138  0.89685117  1
  Nb  Nb102  1  0.90523032  0.69206175  0.50032002  1
  Nb  Nb103  1  0.90424086  0.70162168  0.30431747  1
  Nb  Nb104  1  0.89930609  0.10001384  0.90149557  1
  Nb  Nb105  1  0.09688924  0.89934729  0.90112909  1
  Nb  Nb106  1  0.30351114  0.70094598  0.09574821  1
  Nb  Nb107  1  0.50167655  0.10192694  0.30286078  1
  Nb  Nb108  1  0.09452975  0.49965334  0.51016515  1
  Nb  Nb109  1  0.09932136  0.30428350  0.90272628  1
  Nb  Nb110  1  0.30481335  0.49874089  0.29805382  1
  Nb  Nb111  1  0.90255992  0.30351102  0.30002109  1
  Nb  Nb112  1  0.49799301  0.50419468  0.70267488  1
  Nb  Nb113  1  0.50015276  0.30025993  0.49948121  1
  Nb  Nb114  1  0.09751061  0.70045437  0.90036503  1
  Nb  Nb115  1  0.90722734  0.50858510  0.50682665  1
  Nb  Nb116  1  0.49782247  0.29313825  0.30535577  1
  Nb  Nb117  1  0.50655808  0.50256082  0.90014509  1
  Nb  Nb118  1  0.50266061  0.69969859  0.89370143  1
  Nb  Nb119  1  0.69876377  0.69934878  0.69685618  1
  Nb  Nb120  1  0.69798300  0.69966609  0.10238190  1
  Nb  Nb121  1  0.69727415  0.89345304  0.89761146  1
  Nb  Nb122  1  0.90547247  0.49947030  0.69127960  1
  Nb  Nb123  1  0.09895980  0.49922898  0.69967583  1
  Nb  Nb124  1  0.09963931  0.29937978  0.09603547  1
  Nb  Nb125  1  0.40686239  0.59891494  -0.00397617  1
  Nb  Nb126  1  0.40981697  0.41011943  0.80101654  1
  Nb  Nb127  1  0.59972545  -0.00236626  0.20488537  1
  Nb  Nb128  1  0.19173010  0.20379151  0.79937034  1
  Nb  Nb129  1  0.60855881  0.79517575  -0.00419602  1
  Nb  Nb130  1  0.79608310  0.19734781  -0.00545484  1
  Nb  Nb131  1  0.19948507  0.00125617  0.39650517  1
  Nb  Nb132  1  0.19724321  -0.00149742  -0.00355497  1
  Nb  Nb133  1  0.81089192  0.60093197  0.40327212  1
  Nb  Nb134  1  0.60205019  0.80368308  0.19309791  1
  Nb  Nb135  1  0.00397960  0.39743915  0.20227870  1
  Nb  Nb136  1  0.00275357  0.79886032  -0.00571042  1
  Nb  Nb137  1  0.19132940  0.80275266  0.80732369  1
  Nb  Nb138  1  -0.00483500  0.00006623  0.80846130  1
  Nb  Nb139  1  0.00009181  0.40631921  0.39929205  1
  Nb  Nb140  1  -0.00533048  0.79218114  0.59970219  1
  Nb  Nb141  1  0.40012046  0.40250083  0.20643453  1
  Nb  Nb142  1  0.19822972  0.20203453  0.60369510  1
  Nb  Nb143  1  0.19700076  0.39650052  -0.00282456  1
  Nb  Nb144  1  0.39811610  0.79664213  0.59694063  1
  Nb  Nb145  1  0.20691908  0.79329496  0.19265701  1
  Nb  Nb146  1  0.60785951  0.19861588  -0.00272959  1
  Nb  Nb147  1  -0.00013866  0.20861347  0.19870695  1
  Nb  Nb148  1  0.59807260  0.00277545  0.59617825  1
  Nb  Nb149  1  0.39301498  0.79359192  0.40562946  1
  Pd  Pd150  1  0.01168362  0.59976366  0.20272927  1
  Pd  Pd151  1  0.19613850  0.59619025  0.40355347  1
  Pd  Pd152  1  0.80533608  0.61161700  -0.00168285  1
  Pd  Pd153  1  0.61008564  0.19864430  0.80488143  1
  Pd  Pd154  1  0.20477092  0.39883866  0.59496005  1
  Pd  Pd155  1  0.40581513  0.40214232  0.40036714  1
  Pd  Pd156  1  0.39232324  0.20010165  0.39699353  1
  Pd  Pd157  1  0.00112500  0.19570756  0.79092258  1
  Pd  Pd158  1  0.20991865  0.18887050  0.41039424  1
  Pd  Pd159  1  -0.00853299  0.40881445  0.80437504  1
  Pd  Pd160  1  0.39888027  0.60253707  0.80346318  1
  Pd  Pd161  1  0.20120778  0.19788684  -0.00493177  1
  Pd  Pd162  1  0.40765722  -0.00211080  0.79169171  1
  Pd  Pd163  1  0.59820207  0.40412926  0.79667098  1
  Pd  Pd164  1  0.18801572  0.00577431  0.80698982  1
  Pd  Pd165  1  0.39167239  0.20152537  0.60586295  1
  Pd  Pd166  1  0.41120310  -0.01017914  0.61074610  1
  Pd  Pd167  1  0.60397527  0.20907862  0.40361779  1
  Pd  Pd168  1  0.59297603  0.39398510  0.21316478  1
  Pd  Pd169  1  0.39351608  0.41179918  0.00391386  1
  Pd  Pd170  1  0.60358439  0.00241351  0.39979436  1
  Pd  Pd171  1  0.80514635  0.80731614  0.59386626  1
  Pd  Pd172  1  0.79506835  0.19576006  0.80506312  1
  Pd  Pd173  1  0.80387495  -0.00082144  0.39325671  1
  Pd  Pd174  1  0.80945075  0.40891478  0.40731696  1
  Pd  Pd175  1  0.59682658  0.60818553  -0.00012291  1
  Pd  Pd176  1  -0.00674761  0.39246591  0.59377608  1
  Pd  Pd177  1  0.79139924  -0.00709939  0.60164861  1
  Pd  Pd178  1  0.60403697  0.19505084  0.59657723  1
  Pd  Pd179  1  0.59673394  0.40437041  0.59921838  1
  Pd  Pd180  1  0.80025885  0.59269429  0.80107017  1
  Pd  Pd181  1  0.80293548  0.00318803  0.20742474  1
  Pd  Pd182  1  0.39715116  0.60485733  0.59659281  1
  Pd  Pd183  1  0.80479085  0.40161816  0.19824955  1
  Pd  Pd184  1  0.00132635  0.20809187  0.60804297  1
  Pd  Pd185  1  -0.00107018  0.80409901  0.79604647  1
  Pd  Pd186  1  0.00572208  0.59257914  0.39301418  1
  Pd  Pd187  1  0.61169272  -0.00020054  0.00886272  1
  Pd  Pd188  1  0.79543605  0.79820379  0.79767169  1
  Pd  Pd189  1  0.80681377  0.79256795  0.40634291  1
  Pd  Pd190  1  0.80506669  0.78879868  0.00123607  1
  Pd  Pd191  1  0.61291769  0.39280669  -0.00329227  1
  Pd  Pd192  1  0.59119120  0.79434697  0.39861745  1
  Pd  Pd193  1  0.79256169  0.00739858  0.00113956  1
  Pd  Pd194  1  0.79195310  0.39606046  -0.00460220  1
  Pd  Pd195  1  0.40046991  0.40842556  0.60455861  1
  Pd  Pd196  1  0.40682510  -0.00279162  0.20647069  1
  Pd  Pd197  1  0.60626067  0.60034956  0.79260301  1
  Pd  Pd198  1  0.59121562  0.80726815  0.59430924  1
  Pd  Pd199  1  0.40259000  0.79951713  0.21117598  1
  Rh  Rh200  1  0.41015385  0.19061427  -0.00127253  1
  Rh  Rh201  1  -0.01191031  0.21245285  0.00653864  1
  Rh  Rh202  1  0.39031231  0.79388168  0.79501897  1
  Rh  Rh203  1  0.19131277  0.80865847  0.00141944  1
  Rh  Rh204  1  0.38954457  -0.00440165  0.39379653  1
  Rh  Rh205  1  0.19722209  0.60634076  0.80307477  1
  Rh  Rh206  1  0.00101345  -0.01110296  -0.00229528  1
  Rh  Rh207  1  0.20258495  0.80390956  0.38891844  1
  Rh  Rh208  1  0.19004259  0.01168808  0.58676332  1
  Rh  Rh209  1  0.19717958  0.20104518  0.19919011  1
  Rh  Rh210  1  0.80427920  -0.00253347  0.79805740  1
  Rh  Rh211  1  -0.00744383  0.20673255  0.39525617  1
  Rh  Rh212  1  0.19484117  0.79031479  0.61419864  1
  Rh  Rh213  1  -0.00500339  0.80112792  0.40981980  1
  Rh  Rh214  1  0.41202063  0.79121209  -0.01406390  1
  Rh  Rh215  1  -0.01124612  0.61173663  -0.00230710  1
  Rh  Rh216  1  0.79604656  0.79351051  0.20158578  1
  Rh  Rh217  1  0.60719326  0.79252135  0.80425980  1
  Rh  Rh218  1  0.20528961  0.39684787  0.80622904  1
  Rh  Rh219  1  0.59227538  0.39357833  0.40050309  1
  Rh  Rh220  1  0.81473587  0.20443640  0.19349111  1
  Rh  Rh221  1  0.20132090  0.39573304  0.18658370  1
  Rh  Rh222  1  -0.00665358  0.59302903  0.79497825  1
  Rh  Rh223  1  0.59740568  -0.00449678  0.78827317  1
  Rh  Rh224  1  0.19442482  0.60940007  0.19932863  1
  Rh  Rh225  1  0.00604853  0.60391843  0.61020753  1
  Rh  Rh226  1  0.20811519  0.59353448  -0.00800102  1
  Rh  Rh227  1  -0.00620916  -0.01096444  0.60567213  1
  Rh  Rh228  1  0.80417908  0.41079743  0.80254008  1
  Rh  Rh229  1  0.39326327  0.20786533  0.79234047  1
  Rh  Rh230  1  0.40987906  0.59005337  0.19089884  1
  Rh  Rh231  1  0.00358788  -0.00397574  0.39532258  1
  Rh  Rh232  1  0.79406616  0.60554820  0.20820350  1
  Rh  Rh233  1  0.79309818  0.58976877  0.59312444  1
  Rh  Rh234  1  0.19260317  0.59604571  0.60213094  1
  Rh  Rh235  1  0.80398809  0.40446051  0.59398288  1
  Rh  Rh236  1  0.60475984  0.59298124  0.60805976  1
  Rh  Rh237  1  0.60276121  0.60779503  0.20167377  1
  Rh  Rh238  1  0.20345976  -0.01034759  0.19629537  1
  Rh  Rh239  1  0.59421204  0.19735967  0.20131283  1
  Rh  Rh240  1  0.39466949  0.00447161  -0.00469932  1
  Rh  Rh241  1  0.01196452  0.78662300  0.18873735  1
  Rh  Rh242  1  0.19674668  0.40875417  0.41290254  1
  Rh  Rh243  1  0.61321382  0.60219060  0.40194947  1
  Rh  Rh244  1  0.80238473  0.20395635  0.40190485  1
  Rh  Rh245  1  0.40047249  0.20799907  0.20865706  1
  Rh  Rh246  1  0.39667417  0.60512914  0.40976178  1
  Rh  Rh247  1  0.00667832  0.40047502  0.00222655  1
  Rh  Rh248  1  0.79755767  0.20309526  0.60112994  1
  Rh  Rh249  1  -0.00884321  0.00882618  0.20829164  1
