# generated using pymatgen
data_ZrScNbPdRh
_symmetry_space_group_name_H-M   'P 1'
_cell_length_a   16.55830989
_cell_length_b   16.55228947
_cell_length_c   16.55613761
_cell_angle_alpha   89.97792184
_cell_angle_beta   90.00585595
_cell_angle_gamma   90.03061465
_symmetry_Int_Tables_number   1
_chemical_formula_structural   ZrScNbPdRh
_chemical_formula_sum   'Zr50 Sc50 Nb50 Pd50 Rh50'
_cell_volume   4537.67105589
_cell_formula_units_Z   50
loop_
 _symmetry_equiv_pos_site_id
 _symmetry_equiv_pos_as_xyz
  1  'x, y, z'
loop_
 _atom_site_type_symbol
 _atom_site_label
 _atom_site_symmetry_multiplicity
 _atom_site_fract_x
 _atom_site_fract_y
 _atom_site_fract_z
 _atom_site_occupancy
  Zr  Zr0  1  0.09920161  0.29751184  0.09740410  1
  Zr  Zr1  1  0.10617244  0.90778947  0.89629048  1
  Zr  Zr2  1  0.69818886  0.50084538  0.30262382  1
  Zr  Zr3  1  0.49268474  0.90378786  0.70395764  1
  Zr  Zr4  1  0.89948477  0.49738753  0.10303187  1
  Zr  Zr5  1  0.49548630  0.70775000  0.30369158  1
  Zr  Zr6  1  0.08980492  0.70299220  0.49192157  1
  Zr  Zr7  1  0.29132954  0.89373340  0.70963491  1
  Zr  Zr8  1  0.09907921  0.89761950  0.50695396  1
  Zr  Zr9  1  0.50502230  0.50041976  0.10173946  1
  Zr  Zr10  1  0.50103967  0.69627673  0.70250402  1
  Zr  Zr11  1  0.09487096  0.09984012  0.90544165  1
  Zr  Zr12  1  0.70024018  0.29564303  0.49923074  1
  Zr  Zr13  1  0.50662868  0.30784265  0.30275258  1
  Zr  Zr14  1  0.70895913  0.29938646  0.90333442  1
  Zr  Zr15  1  0.70457049  0.50751265  0.11252730  1
  Zr  Zr16  1  0.70266193  0.09669199  0.90343137  1
  Zr  Zr17  1  0.29298275  0.30222842  0.90069125  1
  Zr  Zr18  1  0.50020908  0.09762732  0.50380228  1
  Zr  Zr19  1  0.49551927  0.09975893  0.69831822  1
  Zr  Zr20  1  0.49902647  0.29965327  0.89990478  1
  Zr  Zr21  1  0.29932986  0.89419379  0.30050045  1
  Zr  Zr22  1  0.50064085  0.90039158  0.30102082  1
  Zr  Zr23  1  0.29745863  0.49696717  0.89805508  1
  Zr  Zr24  1  0.30174832  0.49794886  0.70065520  1
  Zr  Zr25  1  0.09407153  0.49513099  0.70170329  1
  Zr  Zr26  1  0.89880768  0.29836637  0.10229696  1
  Zr  Zr27  1  0.70147660  0.10568205  0.30749775  1
  Zr  Zr28  1  0.30123262  0.49430458  0.49345737  1
  Zr  Zr29  1  0.29644615  0.89871972  0.50058503  1
  Zr  Zr30  1  0.29670029  0.29059922  0.09773880  1
  Zr  Zr31  1  0.09183665  0.09820085  0.50990979  1
  Zr  Zr32  1  0.71200361  0.08864743  0.70536489  1
  Zr  Zr33  1  0.89881101  0.69245385  0.70237117  1
  Zr  Zr34  1  0.09747232  0.29699989  0.70050041  1
  Zr  Zr35  1  0.90271372  0.29952131  0.29614478  1
  Zr  Zr36  1  0.89991367  0.49626701  0.69974270  1
  Zr  Zr37  1  0.09870831  0.09997371  0.70844740  1
  Zr  Zr38  1  0.09628476  0.90715937  0.69814288  1
  Zr  Zr39  1  0.50851711  0.09876777  0.29952332  1
  Zr  Zr40  1  0.50203610  0.29934708  0.10103890  1
  Zr  Zr41  1  0.88813106  0.69970194  0.90219450  1
  Zr  Zr42  1  0.90132804  0.51406510  0.49859610  1
  Zr  Zr43  1  0.70732270  0.69255729  0.49006819  1
  Zr  Zr44  1  0.90899859  0.09827610  0.69393990  1
  Zr  Zr45  1  0.29364043  0.70296239  0.89501682  1
  Zr  Zr46  1  0.70666136  0.71188839  0.09389245  1
  Zr  Zr47  1  0.49569487  0.90067651  0.49531360  1
  Zr  Zr48  1  0.90127209  0.50201826  0.89603211  1
  Zr  Zr49  1  0.69757821  0.09823424  0.10608290  1
  Sc  Sc50  1  0.30829273  0.29750575  0.71223731  1
  Sc  Sc51  1  0.29632201  0.09603986  0.90504178  1
  Sc  Sc52  1  0.51068995  0.50110311  0.30453358  1
  Sc  Sc53  1  0.10502183  0.89690093  0.29073338  1
  Sc  Sc54  1  0.29571950  0.90247152  0.09958531  1
  Sc  Sc55  1  0.70079955  0.49887787  0.70227955  1
  Sc  Sc56  1  0.29840998  0.70096723  0.09623201  1
  Sc  Sc57  1  0.50596912  0.50344825  0.89423201  1
  Sc  Sc58  1  0.88933966  0.90218390  0.69847219  1
  Sc  Sc59  1  0.29001166  0.30365919  0.30047074  1
  Sc  Sc60  1  0.50155833  0.48959314  0.69998001  1
  Sc  Sc61  1  0.90505063  0.50456633  0.29196565  1
  Sc  Sc62  1  0.89691842  0.90356792  0.90610783  1
  Sc  Sc63  1  0.09343927  0.49783651  0.49367218  1
  Sc  Sc64  1  0.90125658  0.10056314  0.49645455  1
  Sc  Sc65  1  0.69823372  0.69481042  0.29499266  1
  Sc  Sc66  1  0.10061791  0.09967061  0.10128458  1
  Sc  Sc67  1  0.49208080  0.70926113  0.90463127  1
  Sc  Sc68  1  0.90239246  0.89920465  0.11354457  1
  Sc  Sc69  1  0.50704570  0.70615896  0.49330273  1
  Sc  Sc70  1  0.10599801  0.50250802  0.90433852  1
  Sc  Sc71  1  0.89840255  0.69211976  0.10414619  1
  Sc  Sc72  1  0.49827305  0.10435172  0.08933411  1
  Sc  Sc73  1  0.70452206  0.30711123  0.09921166  1
  Sc  Sc74  1  0.70410334  0.70117086  0.70491576  1
  Sc  Sc75  1  0.89699675  0.10716423  0.89987410  1
  Sc  Sc76  1  0.09574552  0.90904158  0.10604129  1
  Sc  Sc77  1  0.49900792  0.48969561  0.49816183  1
  Sc  Sc78  1  0.49767646  0.89839571  0.09098463  1
  Sc  Sc79  1  0.49507443  0.70793630  0.09677122  1
  Sc  Sc80  1  0.09514373  0.30184022  0.49096273  1
  Sc  Sc81  1  0.30738766  0.10052649  0.70089783  1
  Sc  Sc82  1  0.90352092  0.30476140  0.70312696  1
  Sc  Sc83  1  0.50359100  0.30002932  0.51118236  1
  Sc  Sc84  1  0.28935363  0.10510018  0.29827276  1
  Sc  Sc85  1  0.30222930  0.09667018  0.50114209  1
  Sc  Sc86  1  0.09665045  0.50989954  0.10222705  1
  Sc  Sc87  1  0.69845623  0.30643829  0.69700494  1
  Sc  Sc88  1  0.10670393  0.29410734  0.89969578  1
  Sc  Sc89  1  0.28700420  0.50364161  0.09280388  1
  Sc  Sc90  1  0.30348445  0.30270370  0.49155243  1
  Sc  Sc91  1  0.10681223  0.70853570  0.69828602  1
  Sc  Sc92  1  0.09713784  0.30159529  0.29758394  1
  Sc  Sc93  1  0.70640983  0.88637135  0.50513131  1
  Sc  Sc94  1  0.90303312  0.10893162  0.29787030  1
  Sc  Sc95  1  0.90953657  0.29748466  0.49830529  1
  Sc  Sc96  1  0.09926925  0.10193634  0.29642176  1
  Sc  Sc97  1  0.70461345  0.49827335  0.89316065  1
  Sc  Sc98  1  0.70593932  0.89688506  0.90392179  1
  Sc  Sc99  1  0.69811272  0.49673517  0.50215249  1
  Nb  Nb100  1  0.91171405  0.10225071  0.09491753  1
  Nb  Nb101  1  0.70818358  0.89924560  0.10550155  1
  Nb  Nb102  1  0.90062174  0.70297871  0.48849019  1
  Nb  Nb103  1  0.11030407  0.50391369  0.29517855  1
  Nb  Nb104  1  0.50273104  0.08585384  0.89933116  1
  Nb  Nb105  1  0.30083158  0.69971885  0.69743766  1
  Nb  Nb106  1  0.69764847  0.70198910  0.89537978  1
  Nb  Nb107  1  0.10893899  0.69466335  0.28926498  1
  Nb  Nb108  1  0.30143907  0.10007501  0.10598528  1
  Nb  Nb109  1  0.49938735  0.29078716  0.70276824  1
  Nb  Nb110  1  0.70389829  0.91146488  0.28021228  1
  Nb  Nb111  1  0.90666326  0.70429555  0.32091427  1
  Nb  Nb112  1  0.90351260  0.87925257  0.48562653  1
  Nb  Nb113  1  0.10037393  0.70172204  0.09614272  1
  Nb  Nb114  1  0.70248641  0.09897952  0.49921727  1
  Nb  Nb115  1  0.30497624  0.89750848  0.89771557  1
  Nb  Nb116  1  0.89163735  0.30395063  0.91206384  1
  Nb  Nb117  1  0.90335481  0.89941807  0.30106379  1
  Nb  Nb118  1  0.70027416  0.89781540  0.70306582  1
  Nb  Nb119  1  0.48494737  0.90662290  0.89906806  1
  Nb  Nb120  1  0.09521675  0.69940814  0.90500651  1
  Nb  Nb121  1  0.29386302  0.69908958  0.30130532  1
  Nb  Nb122  1  0.70568988  0.30083337  0.30448818  1
  Nb  Nb123  1  0.29728354  0.69920741  0.50071851  1
  Nb  Nb124  1  0.29500160  0.50094830  0.29919345  1
  Nb  Nb125  1  0.19949815  0.39989669  0.60095430  1
  Nb  Nb126  1  0.80001816  0.00157868  0.01389102  1
  Nb  Nb127  1  0.39528796  0.60230714  0.79686077  1
  Nb  Nb128  1  0.39605369  0.40638275  0.19777365  1
  Nb  Nb129  1  0.60788050  -0.00314082  0.60149040  1
  Nb  Nb130  1  0.39206477  0.60240703  0.39544952  1
  Nb  Nb131  1  0.79937603  0.19462002  0.59895489  1
  Nb  Nb132  1  0.59641844  0.19394667  0.80143460  1
  Nb  Nb133  1  0.80289166  -0.00877471  0.39484327  1
  Nb  Nb134  1  0.20438904  0.59947790  0.59656925  1
  Nb  Nb135  1  0.39356107  0.59712833  0.20744924  1
  Nb  Nb136  1  -0.00500570  0.39908907  0.00040516  1
  Nb  Nb137  1  0.39839423  0.00463715  0.19950070  1
  Nb  Nb138  1  -0.00516510  -0.01002083  0.39838170  1
  Nb  Nb139  1  0.19937585  0.20572850  0.60203552  1
  Nb  Nb140  1  -0.00043061  0.79850933  0.80678181  1
  Nb  Nb141  1  0.40007053  0.39867209  0.00417860  1
  Nb  Nb142  1  0.40607131  0.19976483  0.39695156  1
  Nb  Nb143  1  0.19249404  0.80165452  -0.00464643  1
  Nb  Nb144  1  0.00404469  0.79677932  -0.00019197  1
  Nb  Nb145  1  0.59894232  0.60241774  0.60031711  1
  Nb  Nb146  1  0.59881338  0.80657441  0.80309964  1
  Nb  Nb147  1  0.39386010  0.79503681  0.60062872  1
  Nb  Nb148  1  0.60671333  0.60828405  -0.00339227  1
  Nb  Nb149  1  0.80210653  0.39765413  0.39700613  1
  Pd  Pd150  1  0.20222658  -0.00131960  0.00440196  1
  Pd  Pd151  1  0.61523591  -0.01206876  0.40784832  1
  Pd  Pd152  1  0.58663395  -0.00254718  0.18728627  1
  Pd  Pd153  1  0.59968016  0.80498825  -0.00816160  1
  Pd  Pd154  1  -0.01020877  -0.00511825  0.80512561  1
  Pd  Pd155  1  0.19396093  0.79957531  0.39791176  1
  Pd  Pd156  1  0.79937107  0.20756350  0.79048581  1
  Pd  Pd157  1  0.59328076  0.20468795  0.40490774  1
  Pd  Pd158  1  0.60379057  0.41021992  -0.00277673  1
  Pd  Pd159  1  0.80839918  0.79098543  0.20782685  1
  Pd  Pd160  1  0.59910210  0.80046946  0.19894560  1
  Pd  Pd161  1  0.59669129  0.79949306  0.60728351  1
  Pd  Pd162  1  0.00013464  0.79246796  0.19967433  1
  Pd  Pd163  1  0.39840062  0.20054922  0.20999321  1
  Pd  Pd164  1  0.00619980  0.60597331  0.80102827  1
  Pd  Pd165  1  0.40705116  0.59464526  -0.00264768  1
  Pd  Pd166  1  0.81257239  0.01269491  0.20139895  1
  Pd  Pd167  1  0.59206671  0.61448425  0.19212599  1
  Pd  Pd168  1  0.79311598  0.59457340  -0.00211331  1
  Pd  Pd169  1  -0.00446712  0.40834160  0.39175578  1
  Pd  Pd170  1  0.19758012  0.60151459  0.79343141  1
  Pd  Pd171  1  0.39249412  0.00947099  0.38917129  1
  Pd  Pd172  1  0.19721603  0.59852394  0.40623126  1
  Pd  Pd173  1  0.39299273  0.80189554  0.19408398  1
  Pd  Pd174  1  -0.00696134  0.20753651  0.80915424  1
  Pd  Pd175  1  0.78613970  0.80541099  0.38310428  1
  Pd  Pd176  1  0.20053741  0.19937188  0.40813847  1
  Pd  Pd177  1  0.79331368  0.60235007  0.60217532  1
  Pd  Pd178  1  0.60617974  0.20727344  0.19906896  1
  Pd  Pd179  1  0.60374821  0.19975557  -0.00519015  1
  Pd  Pd180  1  0.61010857  0.19109352  0.61029403  1
  Pd  Pd181  1  0.80435960  0.79149805  0.60252988  1
  Pd  Pd182  1  0.61350283  0.80859594  0.39044724  1
  Pd  Pd183  1  0.40438750  0.60343567  0.59454707  1
  Pd  Pd184  1  0.39779891  0.19831602  -0.00733753  1
  Pd  Pd185  1  -0.01033973  0.80010714  0.61027268  1
  Pd  Pd186  1  0.19958958  0.40031599  0.19335508  1
  Pd  Pd187  1  0.39610901  0.38879385  0.60418525  1
  Pd  Pd188  1  0.20673479  0.00912970  0.60691067  1
  Pd  Pd189  1  -0.00187707  0.60759450  0.20414236  1
  Pd  Pd190  1  0.60578310  -0.01142808  0.00468881  1
  Pd  Pd191  1  0.80361418  -0.00341318  0.58497646  1
  Pd  Pd192  1  0.18989455  0.00070503  0.39664456  1
  Pd  Pd193  1  0.80722482  0.39358014  0.59155809  1
  Pd  Pd194  1  0.60267875  -0.00437148  0.79875003  1
  Pd  Pd195  1  0.60036550  0.39150567  0.79883957  1
  Pd  Pd196  1  0.00276015  0.39225426  0.81437763  1
  Pd  Pd197  1  0.00769020  0.60458504  0.60116062  1
  Pd  Pd198  1  0.79940521  0.19738970  0.19533674  1
  Pd  Pd199  1  0.40252656  0.19047917  0.81302478  1
  Rh  Rh200  1  0.80131742  0.39716649  0.79756827  1
  Rh  Rh201  1  0.39984780  0.39936535  0.38594155  1
  Rh  Rh202  1  0.19429181  0.39779317  0.79496140  1
  Rh  Rh203  1  0.20577340  0.60521067  0.19338800  1
  Rh  Rh204  1  0.79585578  0.40003151  0.20927538  1
  Rh  Rh205  1  -0.00005913  0.20429923  0.59987720  1
  Rh  Rh206  1  0.59178555  0.59545433  0.41161950  1
  Rh  Rh207  1  0.80458956  -0.00437709  0.81163165  1
  Rh  Rh208  1  -0.00085348  0.00674751  0.20725108  1
  Rh  Rh209  1  -0.00817231  -0.00636616  0.00592933  1
  Rh  Rh210  1  0.80197698  0.40985380  0.00201431  1
  Rh  Rh211  1  0.38745101  0.80706773  0.00180151  1
  Rh  Rh212  1  0.00400626  0.19077961  0.39811418  1
  Rh  Rh213  1  0.80688796  0.60828996  0.21089708  1
  Rh  Rh214  1  0.19429766  0.40054750  0.00273036  1
  Rh  Rh215  1  0.59609744  0.60948927  0.80275408  1
  Rh  Rh216  1  0.00007291  0.20802483  -0.00353110  1
  Rh  Rh217  1  0.79574973  0.59552693  0.79715940  1
  Rh  Rh218  1  0.80200761  0.59216154  0.39424574  1
  Rh  Rh219  1  0.00933625  0.59741643  0.38952050  1
  Rh  Rh220  1  0.39393075  0.79329314  0.40772067  1
  Rh  Rh221  1  0.80536898  0.20320272  0.40762647  1
  Rh  Rh222  1  -0.01613343  -0.01518573  0.58667677  1
  Rh  Rh223  1  0.59781675  0.40405864  0.60321634  1
  Rh  Rh224  1  0.39794697  -0.01113850  0.60025363  1
  Rh  Rh225  1  0.38969195  0.20616733  0.59028676  1
  Rh  Rh226  1  0.20313412  0.79375682  0.59656573  1
  Rh  Rh227  1  0.80076933  0.80277876  0.79959061  1
  Rh  Rh228  1  0.19660181  0.60753966  0.00094881  1
  Rh  Rh229  1  0.20282189  0.19419289  0.79609465  1
  Rh  Rh230  1  0.19900906  0.18989073  0.00147458  1
  Rh  Rh231  1  0.01524263  0.80430119  0.38636247  1
  Rh  Rh232  1  0.60927555  0.39749484  0.40577677  1
  Rh  Rh233  1  0.60400186  0.39461748  0.20024976  1
  Rh  Rh234  1  0.20698843  0.00197921  0.20060276  1
  Rh  Rh235  1  0.19082976  0.79975074  0.80606988  1
  Rh  Rh236  1  0.39020563  0.00533848  0.80488012  1
  Rh  Rh237  1  0.40728830  0.40457102  0.80737401  1
  Rh  Rh238  1  0.39452902  0.00171754  0.00552168  1
  Rh  Rh239  1  0.20041528  0.79581704  0.19043019  1
  Rh  Rh240  1  -0.00241868  0.59713697  -0.00017981  1
  Rh  Rh241  1  0.00231160  0.40080460  0.59660122  1
  Rh  Rh242  1  0.00349437  0.19933603  0.19877830  1
  Rh  Rh243  1  0.80000991  0.18981573  0.01004654  1
  Rh  Rh244  1  0.00948625  0.40213785  0.19456423  1
  Rh  Rh245  1  0.19444712  0.20050981  0.19835170  1
  Rh  Rh246  1  0.20535147  0.00650046  0.79887579  1
  Rh  Rh247  1  0.40524278  0.79470420  0.79606880  1
  Rh  Rh248  1  0.19204887  0.40156000  0.40039339  1
  Rh  Rh249  1  0.81117247  0.80966137  0.00821308  1
