# generated using pymatgen
data_ZrScNbPdRh
_symmetry_space_group_name_H-M   'P 1'
_cell_length_a   16.55306665
_cell_length_b   16.54924154
_cell_length_c   16.55142471
_cell_angle_alpha   90.01520101
_cell_angle_beta   90.02902952
_cell_angle_gamma   89.99321118
_symmetry_Int_Tables_number   1
_chemical_formula_structural   ZrScNbPdRh
_chemical_formula_sum   'Zr50 Sc50 Nb50 Pd50 Rh50'
_cell_volume   4534.10806590
_cell_formula_units_Z   50
loop_
 _symmetry_equiv_pos_site_id
 _symmetry_equiv_pos_as_xyz
  1  'x, y, z'
loop_
 _atom_site_type_symbol
 _atom_site_label
 _atom_site_symmetry_multiplicity
 _atom_site_fract_x
 _atom_site_fract_y
 _atom_site_fract_z
 _atom_site_occupancy
  Zr  Zr0  1  0.70235270  0.11299486  0.90248635  1
  Zr  Zr1  1  0.70832444  0.88986328  0.49390928  1
  Zr  Zr2  1  0.70418642  0.09679434  0.10150931  1
  Zr  Zr3  1  0.08977700  0.49197761  0.09762062  1
  Zr  Zr4  1  0.30189371  0.69566485  0.70348448  1
  Zr  Zr5  1  0.89563361  0.49641832  0.50267467  1
  Zr  Zr6  1  0.30406389  0.90189744  0.69358687  1
  Zr  Zr7  1  0.70076543  0.70316840  0.89829711  1
  Zr  Zr8  1  0.49945459  0.70460638  0.90026116  1
  Zr  Zr9  1  0.49576438  0.90672578  0.69724408  1
  Zr  Zr10  1  0.50373479  0.50621539  0.49863098  1
  Zr  Zr11  1  0.09797745  0.49439171  0.50631521  1
  Zr  Zr12  1  0.90478284  0.10246765  0.68710875  1
  Zr  Zr13  1  0.09783508  0.90010928  0.70781463  1
  Zr  Zr14  1  0.29306884  0.69937648  0.90345416  1
  Zr  Zr15  1  0.51329117  0.30633746  0.89977008  1
  Zr  Zr16  1  0.69513896  0.29499855  0.09638872  1
  Zr  Zr17  1  0.70721014  0.69567031  0.10212264  1
  Zr  Zr18  1  0.50440678  0.90505155  0.09546231  1
  Zr  Zr19  1  0.90728992  0.89998910  0.89982587  1
  Zr  Zr20  1  0.10577593  0.29804296  0.50991123  1
  Zr  Zr21  1  0.30220660  0.29365964  0.11091050  1
  Zr  Zr22  1  0.49494169  0.49768027  0.89783172  1
  Zr  Zr23  1  0.50471886  0.88954343  0.29161919  1
  Zr  Zr24  1  0.10387008  0.69887832  0.50043186  1
  Zr  Zr25  1  0.49503805  0.10248614  0.69364305  1
  Zr  Zr26  1  0.29715180  0.30026872  0.29831532  1
  Zr  Zr27  1  0.09196041  0.29019719  0.89731418  1
  Zr  Zr28  1  0.29752052  0.10742147  0.29385756  1
  Zr  Zr29  1  0.89580398  0.30210594  0.88769530  1
  Zr  Zr30  1  0.70471857  0.30162505  0.71096604  1
  Zr  Zr31  1  0.89928945  0.49537741  0.70259838  1
  Zr  Zr32  1  0.09823708  0.09810347  0.09133468  1
  Zr  Zr33  1  0.89743029  0.49825407  0.29680457  1
  Zr  Zr34  1  0.50147654  0.09702082  0.30333365  1
  Zr  Zr35  1  0.30003444  0.89464629  0.09130768  1
  Zr  Zr36  1  0.29820588  0.69765452  0.30387056  1
  Zr  Zr37  1  0.10296372  0.90458983  0.90777464  1
  Zr  Zr38  1  0.30079635  0.50173334  0.70472499  1
  Zr  Zr39  1  0.69831362  0.90670715  0.10038785  1
  Zr  Zr40  1  0.69775451  0.09838619  0.69584207  1
  Zr  Zr41  1  0.09975890  0.69560511  0.10272639  1
  Zr  Zr42  1  0.10112408  0.69926524  0.70426876  1
  Zr  Zr43  1  0.29661142  0.50443378  0.89846793  1
  Zr  Zr44  1  0.09944713  0.10356384  0.50473658  1
  Zr  Zr45  1  0.30144482  0.69689654  0.50493935  1
  Zr  Zr46  1  0.69849743  0.89801563  0.89963478  1
  Zr  Zr47  1  0.10242010  0.29831526  0.28932453  1
  Zr  Zr48  1  0.70866189  0.29657429  0.30395457  1
  Zr  Zr49  1  0.29509921  0.29820199  0.49860193  1
  Sc  Sc50  1  0.11515931  0.90340977  0.50501457  1
  Sc  Sc51  1  0.09449090  0.90140457  0.09886506  1
  Sc  Sc52  1  0.30489249  0.49309999  0.30723076  1
  Sc  Sc53  1  0.89163451  0.70744266  0.51195051  1
  Sc  Sc54  1  0.89614003  0.70304064  0.28993432  1
  Sc  Sc55  1  0.90027655  0.70205762  0.90567790  1
  Sc  Sc56  1  0.10069091  0.50146002  0.28871266  1
  Sc  Sc57  1  0.50058116  0.69406759  0.49863488  1
  Sc  Sc58  1  0.49625445  0.49847275  0.70185026  1
  Sc  Sc59  1  0.89318494  0.89990776  0.50148787  1
  Sc  Sc60  1  0.28999541  0.09481452  0.49384133  1
  Sc  Sc61  1  0.69896071  0.50382789  0.10733066  1
  Sc  Sc62  1  0.29984656  0.29347552  0.69327273  1
  Sc  Sc63  1  0.50238022  0.29519422  0.50824099  1
  Sc  Sc64  1  0.09068910  0.49448755  0.69731927  1
  Sc  Sc65  1  0.69349547  0.70429804  0.30277824  1
  Sc  Sc66  1  0.90539824  0.49722617  0.90183794  1
  Sc  Sc67  1  0.49761124  0.69261117  0.69773080  1
  Sc  Sc68  1  0.29003861  0.49183531  0.09552121  1
  Sc  Sc69  1  0.70528544  0.89564245  0.30078374  1
  Sc  Sc70  1  0.69337290  0.50762274  0.29266623  1
  Sc  Sc71  1  0.29610539  0.70558178  0.10017221  1
  Sc  Sc72  1  0.49222275  0.90147003  0.50649488  1
  Sc  Sc73  1  0.69312281  0.49055663  0.89126548  1
  Sc  Sc74  1  0.90619937  0.10191191  0.89922901  1
  Sc  Sc75  1  0.09880972  0.69819152  0.29052352  1
  Sc  Sc76  1  0.50448769  0.10445484  0.50670277  1
  Sc  Sc77  1  0.09753722  0.90136610  0.28987119  1
  Sc  Sc78  1  0.70586386  0.09502919  0.30052046  1
  Sc  Sc79  1  0.30615958  0.29226733  0.90365024  1
  Sc  Sc80  1  0.89180358  0.29512906  0.49865977  1
  Sc  Sc81  1  0.89490869  0.90061461  0.29852262  1
  Sc  Sc82  1  0.91482224  0.29109003  0.10439806  1
  Sc  Sc83  1  0.10021654  0.11048903  0.69694347  1
  Sc  Sc84  1  0.11053438  0.09566466  0.29847694  1
  Sc  Sc85  1  0.10053553  0.70129257  0.89957411  1
  Sc  Sc86  1  0.70351010  0.10928229  0.50026685  1
  Sc  Sc87  1  0.29329297  0.90925494  0.30448637  1
  Sc  Sc88  1  0.89253730  0.09845901  0.29054372  1
  Sc  Sc89  1  0.49560953  0.29483274  0.69728017  1
  Sc  Sc90  1  0.69072827  0.50549949  0.69318014  1
  Sc  Sc91  1  0.30060875  0.49943360  0.50078621  1
  Sc  Sc92  1  0.49549589  0.71909849  0.11032340  1
  Sc  Sc93  1  0.10099728  0.50181616  0.90664593  1
  Sc  Sc94  1  0.49573462  0.30684111  0.09962388  1
  Sc  Sc95  1  0.49222670  0.10703076  0.88990312  1
  Sc  Sc96  1  0.49441730  0.31186901  0.28914871  1
  Sc  Sc97  1  0.89660647  0.90320347  0.70319905  1
  Sc  Sc98  1  0.90537844  0.70552855  0.69969610  1
  Sc  Sc99  1  0.90030834  0.69608534  0.10072789  1
  Nb  Nb100  1  0.70252140  0.69320765  0.50826654  1
  Nb  Nb101  1  0.90398297  0.09685313  0.49714786  1
  Nb  Nb102  1  0.10101673  0.30542489  0.10128348  1
  Nb  Nb103  1  0.30246349  0.89295383  0.49956483  1
  Nb  Nb104  1  0.30979522  0.10598632  0.71497787  1
  Nb  Nb105  1  0.29605265  0.10112164  0.90169281  1
  Nb  Nb106  1  0.70455285  0.70038320  0.69594972  1
  Nb  Nb107  1  0.50499004  0.50670888  0.29764588  1
  Nb  Nb108  1  0.09713907  0.30080920  0.69915878  1
  Nb  Nb109  1  0.89829681  0.08866091  0.10320811  1
  Nb  Nb110  1  0.91101232  0.30596444  0.70221854  1
  Nb  Nb111  1  0.70023628  0.30690747  0.49754861  1
  Nb  Nb112  1  0.30731671  0.10332947  0.09563657  1
  Nb  Nb113  1  0.89678862  0.49665433  0.10065418  1
  Nb  Nb114  1  0.90697542  0.91187753  0.10371246  1
  Nb  Nb115  1  0.50149538  0.09755203  0.10635005  1
  Nb  Nb116  1  0.70043354  0.50232873  0.50018684  1
  Nb  Nb117  1  0.49839328  0.90056369  0.90015271  1
  Nb  Nb118  1  0.30246691  0.90225683  0.90097751  1
  Nb  Nb119  1  0.69887247  0.89792438  0.70487309  1
  Nb  Nb120  1  0.90083256  0.29956082  0.30016972  1
  Nb  Nb121  1  0.50571704  0.49869471  0.11202095  1
  Nb  Nb122  1  0.70324879  0.30109511  0.90064128  1
  Nb  Nb123  1  0.49814398  0.69587140  0.30207372  1
  Nb  Nb124  1  0.11015479  0.10187823  0.89776020  1
  Nb  Nb125  1  0.79563764  0.39793940  0.59958343  1
  Nb  Nb126  1  0.80049568  0.39504566  0.00332824  1
  Nb  Nb127  1  0.39626192  0.79956463  0.40161956  1
  Nb  Nb128  1  -0.00270489  0.39546239  0.39673167  1
  Nb  Nb129  1  0.39856236  0.00418950  -0.00184960  1
  Nb  Nb130  1  0.60102978  -0.00522520  0.40265596  1
  Nb  Nb131  1  0.59975026  0.19653428  0.19949956  1
  Nb  Nb132  1  0.80454694  0.39477765  0.19678203  1
  Nb  Nb133  1  0.00080903  0.79984879  0.40135117  1
  Nb  Nb134  1  0.20748477  0.00649737  0.80429565  1
  Nb  Nb135  1  0.39761889  0.20148743  0.39626850  1
  Nb  Nb136  1  0.60781396  0.79754177  0.60348916  1
  Nb  Nb137  1  -0.00139389  0.00204864  0.40292614  1
  Nb  Nb138  1  0.40465846  0.59772209  0.19983004  1
  Nb  Nb139  1  0.79686452  0.60198100  0.79649913  1
  Nb  Nb140  1  -0.00567755  0.60111898  0.40206468  1
  Nb  Nb141  1  0.79752759  0.60024635  0.40531921  1
  Nb  Nb142  1  0.60005698  -0.00297115  0.80005661  1
  Nb  Nb143  1  0.59187874  0.60032827  0.00449319  1
  Nb  Nb144  1  0.40008379  0.00130643  0.19273400  1
  Nb  Nb145  1  0.39890418  0.80615698  0.80259313  1
  Nb  Nb146  1  0.40681711  0.59916227  0.00891564  1
  Nb  Nb147  1  0.60443614  0.40331295  0.40141149  1
  Nb  Nb148  1  -0.00136780  0.19908590  0.39810166  1
  Nb  Nb149  1  0.19566954  0.39158333  0.79796357  1
  Pd  Pd150  1  0.19986144  0.79818301  0.60419223  1
  Pd  Pd151  1  0.38944015  0.01066498  0.59056246  1
  Pd  Pd152  1  0.80516676  -0.00178925  -0.00767160  1
  Pd  Pd153  1  0.79536327  -0.00289219  0.59625905  1
  Pd  Pd154  1  0.59154266  0.80065558  0.41029192  1
  Pd  Pd155  1  0.80831485  0.79469865  0.79773647  1
  Pd  Pd156  1  0.80848146  0.19221050  0.79260213  1
  Pd  Pd157  1  0.79060479  0.58554062  -0.01119496  1
  Pd  Pd158  1  0.59299202  0.01318630  -0.01364729  1
  Pd  Pd159  1  0.39830818  0.40475067  0.00567478  1
  Pd  Pd160  1  0.00022489  0.79743635  0.00631145  1
  Pd  Pd161  1  0.00793419  0.00943872  0.80027995  1
  Pd  Pd162  1  0.80687470  0.19183990  0.40049935  1
  Pd  Pd163  1  -0.00491385  0.60488117  0.59724470  1
  Pd  Pd164  1  0.00294255  0.80917696  0.59433123  1
  Pd  Pd165  1  0.40389836  -0.00159855  0.39830515  1
  Pd  Pd166  1  0.59023410  0.19456577  0.00493102  1
  Pd  Pd167  1  0.00171004  -0.01034727  0.59485895  1
  Pd  Pd168  1  0.59332752  0.20481851  0.39443902  1
  Pd  Pd169  1  0.79690065  0.00669459  0.80358713  1
  Pd  Pd170  1  -0.00405313  0.60034133  0.80488393  1
  Pd  Pd171  1  0.20082864  0.80432579  0.20006079  1
  Pd  Pd172  1  0.00431230  0.18815869  0.20494851  1
  Pd  Pd173  1  0.81342733  0.20550436  0.00612101  1
  Pd  Pd174  1  -0.00130229  0.60128190  0.00017801  1
  Pd  Pd175  1  0.80119121  0.80495542  0.19496456  1
  Pd  Pd176  1  0.19009785  0.40388036  0.39578588  1
  Pd  Pd177  1  0.19979122  0.20763382  0.00513641  1
  Pd  Pd178  1  0.19871664  0.38738674  -0.00844349  1
  Pd  Pd179  1  0.40944430  0.19922213  -0.00190198  1
  Pd  Pd180  1  0.20977193  0.59182682  0.19694757  1
  Pd  Pd181  1  0.60240809  0.39611500  0.60095052  1
  Pd  Pd182  1  0.19596136  0.80519334  0.39392481  1
  Pd  Pd183  1  0.60281842  0.60004406  0.80185320  1
  Pd  Pd184  1  0.80725219  0.80954316  0.00792232  1
  Pd  Pd185  1  0.60661037  0.41046711  0.00522621  1
  Pd  Pd186  1  0.19775806  0.59299852  0.60509677  1
  Pd  Pd187  1  -0.00492901  0.19626347  -0.00037447  1
  Pd  Pd188  1  0.39846851  0.40208208  0.59725183  1
  Pd  Pd189  1  0.20502246  0.80746667  0.80202210  1
  Pd  Pd190  1  0.59188971  0.80249990  0.79060113  1
  Pd  Pd191  1  0.20711317  0.00901110  0.61076388  1
  Pd  Pd192  1  0.60935386  -0.00820304  0.59407691  1
  Pd  Pd193  1  0.20490679  0.00069087  0.18753189  1
  Pd  Pd194  1  0.60309417  0.79416614  0.00719842  1
  Pd  Pd195  1  0.41174787  0.39412721  0.40644871  1
  Pd  Pd196  1  0.80050023  0.20761546  0.60292023  1
  Pd  Pd197  1  0.59641612  0.19711736  0.79419572  1
  Pd  Pd198  1  0.19151964  0.59143082  0.39694948  1
  Pd  Pd199  1  0.39262442  0.39001541  0.79830654  1
  Rh  Rh200  1  0.79933761  0.00340449  0.40239833  1
  Rh  Rh201  1  0.79588006  0.80589847  0.60890590  1
  Rh  Rh202  1  0.80345948  0.59249086  0.60573260  1
  Rh  Rh203  1  0.20639794  0.40303309  0.61232559  1
  Rh  Rh204  1  -0.00871374  0.38951483  0.59023405  1
  Rh  Rh205  1  0.59219518  0.61507083  0.19250946  1
  Rh  Rh206  1  0.60697167  0.59730410  0.40119616  1
  Rh  Rh207  1  0.38809374  0.80169013  0.21442932  1
  Rh  Rh208  1  -0.00443677  0.60004695  0.19904785  1
  Rh  Rh209  1  -0.00092136  0.00448179  0.20659059  1
  Rh  Rh210  1  0.61082637  0.39014090  0.20832888  1
  Rh  Rh211  1  0.20156943  0.60356611  0.00714280  1
  Rh  Rh212  1  0.39917625  0.60404088  0.39515630  1
  Rh  Rh213  1  0.79726895  0.20375233  0.19242676  1
  Rh  Rh214  1  0.39310273  0.41242338  0.19656603  1
  Rh  Rh215  1  -0.00251084  0.00602106  -0.00333768  1
  Rh  Rh216  1  0.20550275  0.00170628  -0.00025988  1
  Rh  Rh217  1  -0.00534674  0.20790337  0.59476172  1
  Rh  Rh218  1  0.80040667  -0.00604521  0.20041470  1
  Rh  Rh219  1  0.18848577  0.58788449  0.79513913  1
  Rh  Rh220  1  0.39852176  0.79971205  -0.00819647  1
  Rh  Rh221  1  -0.00133510  0.19456940  0.79412865  1
  Rh  Rh222  1  0.19813003  0.20239192  0.39885523  1
  Rh  Rh223  1  0.59720213  0.39758115  0.79205372  1
  Rh  Rh224  1  -0.00663485  0.39395111  -0.00280783  1
  Rh  Rh225  1  -0.00113106  0.79977509  0.80243854  1
  Rh  Rh226  1  0.19277920  -0.00425716  0.40118055  1
  Rh  Rh227  1  -0.00335413  0.80252421  0.20071425  1
  Rh  Rh228  1  0.41055815  0.19520246  0.20576832  1
  Rh  Rh229  1  0.80865038  0.78594073  0.39813474  1
  Rh  Rh230  1  0.40276069  0.20887849  0.80419139  1
  Rh  Rh231  1  0.20032753  0.20122503  0.79610243  1
  Rh  Rh232  1  0.60056012  0.00346886  0.21151871  1
  Rh  Rh233  1  0.39013720  0.19280593  0.58855338  1
  Rh  Rh234  1  0.79717309  0.40880957  0.79789840  1
  Rh  Rh235  1  0.60841347  0.20833889  0.60420672  1
  Rh  Rh236  1  0.19063527  0.79861805  0.00121281  1
  Rh  Rh237  1  0.61172636  0.79758240  0.19523014  1
  Rh  Rh238  1  0.19165385  0.19631885  0.18732943  1
  Rh  Rh239  1  0.40652115  0.79179781  0.59888472  1
  Rh  Rh240  1  -0.00549873  0.40025778  0.20129484  1
  Rh  Rh241  1  0.20201082  0.40290199  0.19930726  1
  Rh  Rh242  1  0.79644600  0.40818841  0.39672293  1
  Rh  Rh243  1  0.40013602  -0.00246158  0.80799680  1
  Rh  Rh244  1  0.40167890  0.59440021  0.59933460  1
  Rh  Rh245  1  0.01068210  0.40195089  0.80730577  1
  Rh  Rh246  1  0.40024339  0.60775012  0.80855156  1
  Rh  Rh247  1  0.80128709  0.59529159  0.20582115  1
  Rh  Rh248  1  0.20638928  0.19361224  0.60785292  1
  Rh  Rh249  1  0.59656421  0.60523702  0.60043379  1
