# generated using pymatgen
data_ZrScNbPdRh
_symmetry_space_group_name_H-M   'P 1'
_cell_length_a   16.55633661
_cell_length_b   16.55360059
_cell_length_c   16.55802366
_cell_angle_alpha   89.97597841
_cell_angle_beta   90.01496222
_cell_angle_gamma   89.98407998
_symmetry_Int_Tables_number   1
_chemical_formula_structural   ZrScNbPdRh
_chemical_formula_sum   'Zr50 Sc50 Nb50 Pd50 Rh50'
_cell_volume   4538.00687017
_cell_formula_units_Z   50
loop_
 _symmetry_equiv_pos_site_id
 _symmetry_equiv_pos_as_xyz
  1  'x, y, z'
loop_
 _atom_site_type_symbol
 _atom_site_label
 _atom_site_symmetry_multiplicity
 _atom_site_fract_x
 _atom_site_fract_y
 _atom_site_fract_z
 _atom_site_occupancy
  Zr  Zr0  1  0.30830458  0.49755148  0.49618634  1
  Zr  Zr1  1  0.49590924  0.09770863  0.70879803  1
  Zr  Zr2  1  0.09540343  0.49864153  0.29002671  1
  Zr  Zr3  1  0.50338487  0.69954677  0.50085808  1
  Zr  Zr4  1  0.69486010  0.10718628  0.10418693  1
  Zr  Zr5  1  0.30371315  0.09702228  0.70705854  1
  Zr  Zr6  1  0.09495871  0.29957465  0.89842141  1
  Zr  Zr7  1  0.10428401  0.89497997  0.48984222  1
  Zr  Zr8  1  0.90169084  0.10224642  0.70281861  1
  Zr  Zr9  1  0.09492091  0.49938271  0.70279241  1
  Zr  Zr10  1  0.49758222  0.89148471  0.89543310  1
  Zr  Zr11  1  0.29675178  0.09402122  0.50308632  1
  Zr  Zr12  1  0.90491647  0.89729417  0.10226418  1
  Zr  Zr13  1  0.70422652  0.69409833  0.09524740  1
  Zr  Zr14  1  0.28885040  0.49265690  0.09809631  1
  Zr  Zr15  1  0.69858032  0.10315565  0.89905784  1
  Zr  Zr16  1  0.30043618  0.50255099  0.90084109  1
  Zr  Zr17  1  0.69702195  0.49534677  0.89914770  1
  Zr  Zr18  1  0.90942515  0.89642346  0.29777152  1
  Zr  Zr19  1  0.90411821  0.89630017  0.90073949  1
  Zr  Zr20  1  0.69973065  0.69364642  0.90209585  1
  Zr  Zr21  1  0.70482032  0.30615711  0.29775355  1
  Zr  Zr22  1  0.90756249  0.29058615  0.49575766  1
  Zr  Zr23  1  0.09403558  0.10696313  0.50085523  1
  Zr  Zr24  1  0.50475597  0.49935042  0.89626472  1
  Zr  Zr25  1  0.09401594  0.89685529  0.09573298  1
  Zr  Zr26  1  0.09744531  0.10434755  0.29419168  1
  Zr  Zr27  1  0.49901496  0.10784269  0.10581953  1
  Zr  Zr28  1  0.50110396  0.70683981  0.10147997  1
  Zr  Zr29  1  0.90734631  0.30578214  0.29552492  1
  Zr  Zr30  1  0.89732248  0.70110267  0.10426791  1
  Zr  Zr31  1  0.10525217  0.29680759  0.49988427  1
  Zr  Zr32  1  0.49203359  0.31043690  0.29292670  1
  Zr  Zr33  1  0.70022409  0.89544863  0.50097164  1
  Zr  Zr34  1  0.10496700  0.70494277  0.49639139  1
  Zr  Zr35  1  0.50402328  0.50266833  0.69692391  1
  Zr  Zr36  1  0.90367938  0.30538681  0.70728627  1
  Zr  Zr37  1  0.69794238  0.90599596  0.30686475  1
  Zr  Zr38  1  0.50769222  0.90091950  0.70057364  1
  Zr  Zr39  1  0.10059003  0.90052742  0.90106604  1
  Zr  Zr40  1  0.70121281  0.10128911  0.49318308  1
  Zr  Zr41  1  0.70213364  0.89191807  0.89356531  1
  Zr  Zr42  1  0.69450909  0.10662624  0.29968196  1
  Zr  Zr43  1  0.50135291  0.69732153  0.89872861  1
  Zr  Zr44  1  0.30203888  0.90388077  0.30913983  1
  Zr  Zr45  1  0.70287325  0.50276153  0.50206248  1
  Zr  Zr46  1  0.70034122  0.29816524  0.70652855  1
  Zr  Zr47  1  0.49386475  0.89950984  0.29237020  1
  Zr  Zr48  1  0.49419100  0.70068621  0.29516516  1
  Zr  Zr49  1  0.89703729  0.50781215  0.49802570  1
  Sc  Sc50  1  0.10045237  0.30414343  0.11181033  1
  Sc  Sc51  1  0.50340736  0.90217303  0.48424381  1
  Sc  Sc52  1  0.49665094  0.30257643  0.90697069  1
  Sc  Sc53  1  0.10623350  0.50218363  0.50233757  1
  Sc  Sc54  1  0.69278003  0.30572662  0.10936098  1
  Sc  Sc55  1  0.49547779  0.30456660  0.10109221  1
  Sc  Sc56  1  0.70732709  0.70171857  0.49980168  1
  Sc  Sc57  1  0.09343202  0.69542212  0.30602664  1
  Sc  Sc58  1  0.09938897  0.69611845  0.69306929  1
  Sc  Sc59  1  0.70678271  0.69862609  0.28970303  1
  Sc  Sc60  1  0.30237922  0.10126126  0.29570332  1
  Sc  Sc61  1  0.68769842  0.09761840  0.69485356  1
  Sc  Sc62  1  0.29765669  0.69775805  0.69740266  1
  Sc  Sc63  1  0.89743195  0.49793665  0.30360185  1
  Sc  Sc64  1  0.89884664  0.30154469  0.89501620  1
  Sc  Sc65  1  0.30273684  0.69935320  0.30243433  1
  Sc  Sc66  1  0.49313362  0.30883457  0.51177064  1
  Sc  Sc67  1  0.30119414  0.10249760  0.10613158  1
  Sc  Sc68  1  0.49950223  0.70129353  0.70402343  1
  Sc  Sc69  1  0.90005744  0.69929652  0.49980420  1
  Sc  Sc70  1  0.50049175  0.10155028  0.50731040  1
  Sc  Sc71  1  0.49139776  0.50292303  0.29306819  1
  Sc  Sc72  1  0.90922895  0.10664408  0.89586651  1
  Sc  Sc73  1  0.29562280  0.90079873  0.90631166  1
  Sc  Sc74  1  0.09759726  0.69398591  0.91126918  1
  Sc  Sc75  1  0.89543860  0.70773634  0.90223268  1
  Sc  Sc76  1  0.10058152  0.89570563  0.70106038  1
  Sc  Sc77  1  0.29691692  0.90466023  0.70023770  1
  Sc  Sc78  1  0.29336196  0.50534630  0.69462212  1
  Sc  Sc79  1  0.70272691  0.70757875  0.69174266  1
  Sc  Sc80  1  0.90023141  0.10922170  0.30587174  1
  Sc  Sc81  1  0.69540841  0.49679981  0.70420675  1
  Sc  Sc82  1  0.10315937  0.08866796  0.89937044  1
  Sc  Sc83  1  0.09988847  0.30224113  0.68991514  1
  Sc  Sc84  1  0.49950465  0.29925485  0.70216060  1
  Sc  Sc85  1  0.30597387  0.49860614  0.29700299  1
  Sc  Sc86  1  0.31427055  0.30667538  0.91000793  1
  Sc  Sc87  1  0.49572041  0.09087084  0.29954659  1
  Sc  Sc88  1  0.70119930  0.88928098  0.10296770  1
  Sc  Sc89  1  0.30316465  0.30231754  0.69104100  1
  Sc  Sc90  1  0.29156665  0.69574763  0.49840752  1
  Sc  Sc91  1  0.90203767  0.69563740  0.30318768  1
  Sc  Sc92  1  0.29967791  0.89815610  0.09457789  1
  Sc  Sc93  1  0.90392888  0.88298265  0.70760786  1
  Sc  Sc94  1  0.09328438  0.10028080  0.09682424  1
  Sc  Sc95  1  0.09988914  0.50189461  0.91239348  1
  Sc  Sc96  1  0.10417095  0.09128097  0.70468695  1
  Sc  Sc97  1  0.30167779  0.70491003  0.09874126  1
  Sc  Sc98  1  0.70124059  0.49950363  0.10214418  1
  Sc  Sc99  1  0.90476966  0.48814952  0.89975562  1
  Nb  Nb100  1  0.90928058  0.49233124  0.10390045  1
  Nb  Nb101  1  0.70210426  0.90315502  0.69884943  1
  Nb  Nb102  1  0.30062213  0.29712505  0.10839782  1
  Nb  Nb103  1  0.29527438  0.30093742  0.28896467  1
  Nb  Nb104  1  0.50013331  0.50279243  0.09611148  1
  Nb  Nb105  1  0.09697873  0.89820990  0.29657440  1
  Nb  Nb106  1  0.30984265  0.70610871  0.89646155  1
  Nb  Nb107  1  0.70712909  0.30116500  0.89438066  1
  Nb  Nb108  1  0.10388079  0.29692126  0.29948780  1
  Nb  Nb109  1  0.90131185  0.50222067  0.69715319  1
  Nb  Nb110  1  0.49451102  0.90275521  0.09983533  1
  Nb  Nb111  1  0.09555978  0.51180025  0.10228970  1
  Nb  Nb112  1  0.90041199  0.90378103  0.49453529  1
  Nb  Nb113  1  0.49537658  0.10342040  0.90202830  1
  Nb  Nb114  1  0.29746477  0.30132053  0.49546921  1
  Nb  Nb115  1  0.69943426  0.49596989  0.30322878  1
  Nb  Nb116  1  0.89959905  0.68783580  0.70010140  1
  Nb  Nb117  1  0.89861617  0.10094570  0.50198460  1
  Nb  Nb118  1  0.30473914  0.10419784  0.90258950  1
  Nb  Nb119  1  0.69768013  0.29655550  0.50390971  1
  Nb  Nb120  1  0.89778102  0.30009081  0.10185618  1
  Nb  Nb121  1  0.29627934  0.89593136  0.50064268  1
  Nb  Nb122  1  0.89832659  0.10119014  0.10285545  1
  Nb  Nb123  1  0.50091557  0.50356234  0.49448464  1
  Nb  Nb124  1  0.09491262  0.68993582  0.10710414  1
  Nb  Nb125  1  0.19264641  -0.00801834  0.20061656  1
  Nb  Nb126  1  0.20457747  0.20279694  -0.00173272  1
  Nb  Nb127  1  -0.00826686  -0.00464190  0.59317065  1
  Nb  Nb128  1  0.60084979  0.59408668  0.39632623  1
  Nb  Nb129  1  0.80354991  0.00337599  0.19713065  1
  Nb  Nb130  1  0.59573593  -0.00073583  -0.00092078  1
  Nb  Nb131  1  0.40703876  0.00455941  -0.00035608  1
  Nb  Nb132  1  0.59349980  0.21183782  0.40167248  1
  Nb  Nb133  1  0.59817414  0.40373641  0.40342518  1
  Nb  Nb134  1  0.80287539  0.39514475  0.59938135  1
  Nb  Nb135  1  0.80164049  0.20254751  0.00417038  1
  Nb  Nb136  1  0.80446369  -0.00243165  0.59985745  1
  Nb  Nb137  1  0.79816265  0.00522793  0.00166500  1
  Nb  Nb138  1  0.79726774  -0.00331985  0.79658867  1
  Nb  Nb139  1  0.39757094  0.80581155  0.59485647  1
  Nb  Nb140  1  0.39586853  0.20970106  0.40107475  1
  Nb  Nb141  1  0.20896217  0.20389619  0.80764630  1
  Nb  Nb142  1  0.40209311  0.59887692  -0.00275243  1
  Nb  Nb143  1  0.80038585  0.19897324  0.59914491  1
  Nb  Nb144  1  0.19139962  0.80249915  0.20220817  1
  Nb  Nb145  1  0.20212273  0.79410884  0.80708449  1
  Nb  Nb146  1  0.59717777  0.19977084  0.80689667  1
  Nb  Nb147  1  0.19990275  0.39722771  0.80402595  1
  Nb  Nb148  1  0.20345798  0.39111165  0.39326905  1
  Nb  Nb149  1  0.80546146  0.59836377  0.79553273  1
  Pd  Pd150  1  0.60516541  0.79147193  0.79333341  1
  Pd  Pd151  1  0.39838983  0.40586062  0.60496629  1
  Pd  Pd152  1  0.20726956  0.19902172  0.39432910  1
  Pd  Pd153  1  0.39960552  0.59850978  0.79901802  1
  Pd  Pd154  1  -0.00673149  0.00495982  -0.00298215  1
  Pd  Pd155  1  0.60375816  0.80125562  0.20261922  1
  Pd  Pd156  1  0.80950441  0.80374186  0.60126902  1
  Pd  Pd157  1  0.60061063  0.80334293  0.00191726  1
  Pd  Pd158  1  0.60390709  0.20766145  -0.00440917  1
  Pd  Pd159  1  0.01507729  0.19838709  0.79368500  1
  Pd  Pd160  1  0.20353053  0.19687134  0.61038462  1
  Pd  Pd161  1  0.60506592  0.78862920  0.39196653  1
  Pd  Pd162  1  0.60182843  0.39565525  0.00136704  1
  Pd  Pd163  1  0.60105393  -0.00357921  0.59177179  1
  Pd  Pd164  1  0.80565450  0.58974600  0.20149678  1
  Pd  Pd165  1  0.80446014  0.20070402  0.19838399  1
  Pd  Pd166  1  0.00538374  0.60213576  0.59174800  1
  Pd  Pd167  1  0.18922821  -0.00510368  0.60018142  1
  Pd  Pd168  1  0.80463126  0.00261447  0.39495071  1
  Pd  Pd169  1  0.00048727  0.00581197  0.39999336  1
  Pd  Pd170  1  0.01145452  0.78727155  0.80189416  1
  Pd  Pd171  1  0.39452057  0.79380634  0.40742147  1
  Pd  Pd172  1  0.39520011  0.40033893  0.79293471  1
  Pd  Pd173  1  0.19676118  0.00611495  0.39439213  1
  Pd  Pd174  1  0.39474005  -0.00885260  0.80900534  1
  Pd  Pd175  1  0.19429931  0.39134932  -0.00000674  1
  Pd  Pd176  1  0.20546027  0.60775727  0.20423167  1
  Pd  Pd177  1  0.60303643  0.39960167  0.59863654  1
  Pd  Pd178  1  0.00535859  0.39437049  0.00778634  1
  Pd  Pd179  1  0.79894132  0.39499531  0.40720462  1
  Pd  Pd180  1  0.60552379  0.60539953  0.59978890  1
  Pd  Pd181  1  0.80267500  0.79514740  0.39523721  1
  Pd  Pd182  1  0.39872183  0.60760787  0.59921359  1
  Pd  Pd183  1  -0.01365991  0.60173253  -0.00195285  1
  Pd  Pd184  1  0.40551232  -0.00931972  0.59340515  1
  Pd  Pd185  1  0.19595892  0.60157982  0.80347655  1
  Pd  Pd186  1  0.60550297  -0.00594271  0.19368161  1
  Pd  Pd187  1  0.00050974  0.20442197  0.00379800  1
  Pd  Pd188  1  -0.00405692  0.40272905  0.59247136  1
  Pd  Pd189  1  0.39816209  0.19924985  0.59653119  1
  Pd  Pd190  1  -0.00386980  0.60079911  0.81019303  1
  Pd  Pd191  1  0.20916588  0.60943687  0.00005003  1
  Pd  Pd192  1  0.01066140  0.40443884  0.40339922  1
  Pd  Pd193  1  0.20033361  0.58935907  0.39245647  1
  Pd  Pd194  1  0.80904152  0.58890021  -0.00650019  1
  Pd  Pd195  1  0.19657545  0.79026426  0.00204143  1
  Pd  Pd196  1  0.39234029  0.59782936  0.18795848  1
  Pd  Pd197  1  -0.00435963  0.80149802  0.59536169  1
  Pd  Pd198  1  0.60231956  0.59505574  0.20303413  1
  Pd  Pd199  1  0.79792607  0.39445127  0.00616952  1
  Rh  Rh200  1  0.38949018  0.80419891  0.78707194  1
  Rh  Rh201  1  0.00808986  0.40416379  0.80096333  1
  Rh  Rh202  1  -0.00137607  0.79698529  0.40196002  1
  Rh  Rh203  1  0.80187732  0.80714744  0.20523451  1
  Rh  Rh204  1  0.39723440  0.39549545  0.39942994  1
  Rh  Rh205  1  0.80019469  0.80393392  0.00341070  1
  Rh  Rh206  1  0.79274654  0.19235584  0.79947297  1
  Rh  Rh207  1  0.00136400  0.59692504  0.40333775  1
  Rh  Rh208  1  0.39622293  0.40637674  0.19047872  1
  Rh  Rh209  1  0.00227740  0.19994428  0.39425189  1
  Rh  Rh210  1  0.00208486  0.39965076  0.19743481  1
  Rh  Rh211  1  0.20156035  0.79765993  0.38948393  1
  Rh  Rh212  1  0.00087302  0.79109175  0.00329296  1
  Rh  Rh213  1  0.40247386  0.20087766  0.20757202  1
  Rh  Rh214  1  -0.00752825  -0.00559189  0.79289017  1
  Rh  Rh215  1  0.59979260  0.20277629  0.60355254  1
  Rh  Rh216  1  0.59503443  0.39005987  0.80469363  1
  Rh  Rh217  1  0.39906951  0.00889980  0.40722627  1
  Rh  Rh218  1  0.00564272  0.78672118  0.20128244  1
  Rh  Rh219  1  0.60388688  0.00575259  0.80691174  1
  Rh  Rh220  1  0.79822618  0.79374718  0.79522381  1
  Rh  Rh221  1  -0.00233762  0.20334367  0.19844932  1
  Rh  Rh222  1  0.80317043  0.41124685  0.79433885  1
  Rh  Rh223  1  0.59528955  0.40954575  0.20286227  1
  Rh  Rh224  1  0.40121930  0.20729728  0.80012811  1
  Rh  Rh225  1  0.79692044  0.59366834  0.60838914  1
  Rh  Rh226  1  0.59018845  0.20749638  0.21165591  1
  Rh  Rh227  1  0.19545882  0.19314533  0.19149157  1
  Rh  Rh228  1  0.20967740  0.01285131  0.00838971  1
  Rh  Rh229  1  0.39391116  0.19770802  0.00803881  1
  Rh  Rh230  1  0.20407718  -0.00306527  0.80635598  1
  Rh  Rh231  1  0.79559196  0.20733373  0.40261384  1
  Rh  Rh232  1  0.40412779  0.79997004  0.00087881  1
  Rh  Rh233  1  0.19573730  0.40292660  0.20258985  1
  Rh  Rh234  1  -0.00066598  0.19344256  0.60750912  1
  Rh  Rh235  1  0.59436791  0.59917894  0.00503567  1
  Rh  Rh236  1  0.40588348  0.60390498  0.40007156  1
  Rh  Rh237  1  0.38857987  0.80690342  0.19918887  1
  Rh  Rh238  1  0.19735792  0.59800381  0.59726918  1
  Rh  Rh239  1  -0.00975942  0.59853096  0.20210600  1
  Rh  Rh240  1  0.80369409  0.40597771  0.19466008  1
  Rh  Rh241  1  0.40091400  0.40837829  0.00872099  1
  Rh  Rh242  1  0.79361265  0.60408564  0.39468107  1
  Rh  Rh243  1  0.59295018  0.80395060  0.59870398  1
  Rh  Rh244  1  -0.00219528  0.00669538  0.20315671  1
  Rh  Rh245  1  0.20271795  0.40354050  0.59772425  1
  Rh  Rh246  1  0.61104765  0.60521466  0.79298169  1
  Rh  Rh247  1  0.59531417  0.00969239  0.40094844  1
  Rh  Rh248  1  0.38956721  -0.00600671  0.19174801  1
  Rh  Rh249  1  0.20777197  0.80220193  0.60859797  1
