# generated using pymatgen
data_ZrScNbPdRh
_symmetry_space_group_name_H-M   'P 1'
_cell_length_a   16.55242840
_cell_length_b   16.55183721
_cell_length_c   16.55375801
_cell_angle_alpha   90.02243177
_cell_angle_beta   89.97487867
_cell_angle_gamma   89.99258007
_symmetry_Int_Tables_number   1
_chemical_formula_structural   ZrScNbPdRh
_chemical_formula_sum   'Zr50 Sc50 Nb50 Pd50 Rh50'
_cell_volume   4535.28358253
_cell_formula_units_Z   50
loop_
 _symmetry_equiv_pos_site_id
 _symmetry_equiv_pos_as_xyz
  1  'x, y, z'
loop_
 _atom_site_type_symbol
 _atom_site_label
 _atom_site_symmetry_multiplicity
 _atom_site_fract_x
 _atom_site_fract_y
 _atom_site_fract_z
 _atom_site_occupancy
  Zr  Zr0  1  0.50466954  0.90507865  0.10565346  1
  Zr  Zr1  1  0.10826823  0.70448392  0.30231339  1
  Zr  Zr2  1  0.90162451  0.69344315  0.69701647  1
  Zr  Zr3  1  0.70291836  0.09160150  0.30431196  1
  Zr  Zr4  1  0.69931369  0.10178359  0.89685195  1
  Zr  Zr5  1  0.09991384  0.10169137  0.49769660  1
  Zr  Zr6  1  0.90022324  0.10304422  0.90288203  1
  Zr  Zr7  1  0.30130804  0.29268368  0.89687088  1
  Zr  Zr8  1  0.29421032  0.70048882  0.69577620  1
  Zr  Zr9  1  0.29871167  0.70226215  0.49302150  1
  Zr  Zr10  1  0.09544283  0.90253477  0.50325895  1
  Zr  Zr11  1  0.90146092  0.51144650  0.10550429  1
  Zr  Zr12  1  0.89804804  0.30163847  0.69924102  1
  Zr  Zr13  1  0.50397077  0.68917539  0.89933370  1
  Zr  Zr14  1  0.49776348  0.29942284  0.90132555  1
  Zr  Zr15  1  0.09391121  0.09577677  0.89876359  1
  Zr  Zr16  1  0.90036279  0.49612696  0.70646411  1
  Zr  Zr17  1  0.89357454  0.30191265  0.89693478  1
  Zr  Zr18  1  0.50746178  0.49910740  0.69735924  1
  Zr  Zr19  1  0.09190974  0.51331039  0.69674298  1
  Zr  Zr20  1  0.30164388  0.70439654  0.89400596  1
  Zr  Zr21  1  0.89492909  0.89678183  0.69874544  1
  Zr  Zr22  1  0.29905660  0.89110155  0.70465187  1
  Zr  Zr23  1  0.30667513  0.50524853  0.89992225  1
  Zr  Zr24  1  0.09230359  0.69406932  0.10269989  1
  Zr  Zr25  1  0.50372035  0.29712267  0.09623590  1
  Zr  Zr26  1  0.29975033  0.10832865  0.89970774  1
  Zr  Zr27  1  0.70216213  0.90011867  0.69458148  1
  Zr  Zr28  1  0.69686051  0.09470726  0.50268258  1
  Zr  Zr29  1  0.89868983  0.90338949  0.49783744  1
  Zr  Zr30  1  0.10519634  0.28789930  0.69099346  1
  Zr  Zr31  1  0.91030926  0.90218695  0.90891066  1
  Zr  Zr32  1  0.30896072  0.90205397  0.30388375  1
  Zr  Zr33  1  0.89441735  0.70475463  0.49766204  1
  Zr  Zr34  1  0.70231273  0.09691667  0.69928236  1
  Zr  Zr35  1  0.90117474  0.30956254  0.10266895  1
  Zr  Zr36  1  0.50340611  0.10620272  0.90343166  1
  Zr  Zr37  1  0.50779251  0.49835115  0.50687433  1
  Zr  Zr38  1  0.30340618  0.69579453  0.29801354  1
  Zr  Zr39  1  0.10409217  0.89944501  0.89479400  1
  Zr  Zr40  1  0.10238656  0.29207358  0.29911197  1
  Zr  Zr41  1  0.70022699  0.70320558  0.90247666  1
  Zr  Zr42  1  0.90287731  0.70591762  0.09826347  1
  Zr  Zr43  1  0.29985001  0.29736043  0.51326402  1
  Zr  Zr44  1  0.70562995  0.69706701  0.09619438  1
  Zr  Zr45  1  0.10285874  0.10707093  0.10522121  1
  Zr  Zr46  1  0.30007516  0.50103817  0.69192241  1
  Zr  Zr47  1  0.49992922  0.09506222  0.50377527  1
  Zr  Zr48  1  0.10060446  0.70105945  0.50138034  1
  Zr  Zr49  1  0.30580922  0.49667372  0.29329646  1
  Sc  Sc50  1  0.49826738  0.08168077  0.29956072  1
  Sc  Sc51  1  0.29876846  0.10283886  0.10494452  1
  Sc  Sc52  1  0.50468795  0.69776507  0.30499214  1
  Sc  Sc53  1  0.30535689  0.90418858  0.50250144  1
  Sc  Sc54  1  0.49782729  0.49797806  0.09841644  1
  Sc  Sc55  1  0.10348641  0.29765929  0.49415379  1
  Sc  Sc56  1  0.70183787  0.50412094  0.50812541  1
  Sc  Sc57  1  0.69594730  0.50516630  0.28884121  1
  Sc  Sc58  1  0.29668376  0.90187789  0.10532961  1
  Sc  Sc59  1  0.70689709  0.89791004  0.89873365  1
  Sc  Sc60  1  0.09169282  0.50140103  0.89876880  1
  Sc  Sc61  1  0.29290859  0.50302668  0.49973572  1
  Sc  Sc62  1  0.10262015  0.69536539  0.90343815  1
  Sc  Sc63  1  0.69246316  0.70394172  0.30630413  1
  Sc  Sc64  1  0.49733655  0.50680987  0.29211734  1
  Sc  Sc65  1  0.30016630  0.49872417  0.10434346  1
  Sc  Sc66  1  0.69703316  0.69972433  0.50049006  1
  Sc  Sc67  1  0.51097683  0.09702753  0.69369095  1
  Sc  Sc68  1  0.89223896  0.10105731  0.10953215  1
  Sc  Sc69  1  0.69512553  0.29263990  0.90348222  1
  Sc  Sc70  1  0.70230443  0.49601422  0.69231721  1
  Sc  Sc71  1  0.10484494  0.30421628  0.10485831  1
  Sc  Sc72  1  0.50561246  0.69928424  0.49616695  1
  Sc  Sc73  1  0.90666607  0.09954802  0.70661195  1
  Sc  Sc74  1  0.09940486  0.09410960  0.70135419  1
  Sc  Sc75  1  0.68210673  0.50533730  0.89850534  1
  Sc  Sc76  1  0.90889129  0.29400945  0.49846005  1
  Sc  Sc77  1  0.69439347  0.10231623  0.10331887  1
  Sc  Sc78  1  0.10254424  0.30351010  0.90996643  1
  Sc  Sc79  1  0.29529392  0.29877521  0.09610001  1
  Sc  Sc80  1  0.50436957  0.31109336  0.28519965  1
  Sc  Sc81  1  0.29304990  0.11085888  0.70147055  1
  Sc  Sc82  1  0.89023900  0.90727199  0.30831226  1
  Sc  Sc83  1  0.89675524  0.70558996  0.90540468  1
  Sc  Sc84  1  0.10683249  0.48669141  0.30067417  1
  Sc  Sc85  1  0.90126258  0.70012298  0.29152958  1
  Sc  Sc86  1  0.89477775  0.10042851  0.31192370  1
  Sc  Sc87  1  0.69128682  0.90199424  0.09707237  1
  Sc  Sc88  1  0.50281845  0.09838643  0.10044119  1
  Sc  Sc89  1  0.70126021  0.89402769  0.49535245  1
  Sc  Sc90  1  0.29063947  0.69385426  0.10259112  1
  Sc  Sc91  1  0.10407951  0.90093201  0.30765200  1
  Sc  Sc92  1  0.89994256  0.49441031  0.51626046  1
  Sc  Sc93  1  0.08905831  0.89263153  0.09302970  1
  Sc  Sc94  1  0.29009232  0.09258085  0.29931052  1
  Sc  Sc95  1  0.49384734  0.70001304  0.69006969  1
  Sc  Sc96  1  0.70009071  0.29993498  0.70285116  1
  Sc  Sc97  1  0.51086865  0.70144756  0.09954366  1
  Sc  Sc98  1  0.51356978  0.89823843  0.90431190  1
  Sc  Sc99  1  0.70172835  0.29914086  0.50738093  1
  Nb  Nb100  1  0.29899338  0.30419071  0.30038737  1
  Nb  Nb101  1  0.30220857  0.10279109  0.49198730  1
  Nb  Nb102  1  0.90402982  0.49611405  0.89916619  1
  Nb  Nb103  1  0.29986338  0.30344999  0.70120815  1
  Nb  Nb104  1  0.69354350  0.30794027  0.10925499  1
  Nb  Nb105  1  0.69572791  0.30372742  0.29980558  1
  Nb  Nb106  1  0.89808616  0.09552504  0.50091431  1
  Nb  Nb107  1  0.69419104  0.89986750  0.29829895  1
  Nb  Nb108  1  0.50076459  0.29757391  0.50227096  1
  Nb  Nb109  1  0.89932866  0.30671738  0.30089292  1
  Nb  Nb110  1  0.49466540  0.49871003  0.89558691  1
  Nb  Nb111  1  0.70991483  0.70266488  0.70003680  1
  Nb  Nb112  1  0.09618650  0.50410399  0.49934527  1
  Nb  Nb113  1  0.09334779  0.49590222  0.09083817  1
  Nb  Nb114  1  0.49477282  0.30468079  0.68118193  1
  Nb  Nb115  1  0.70429459  0.50369970  0.09831069  1
  Nb  Nb116  1  0.49489481  0.89764274  0.69088598  1
  Nb  Nb117  1  0.10206958  0.89477755  0.70104412  1
  Nb  Nb118  1  0.09851717  0.70171659  0.70025295  1
  Nb  Nb119  1  0.89756077  0.50013337  0.29995602  1
  Nb  Nb120  1  0.10000934  0.09976292  0.29813483  1
  Nb  Nb121  1  0.30082830  0.89816060  0.89904308  1
  Nb  Nb122  1  0.49777398  0.90265207  0.50128124  1
  Nb  Nb123  1  0.50764778  0.89783276  0.30178606  1
  Nb  Nb124  1  0.89836286  0.90280927  0.10223232  1
  Nb  Nb125  1  -0.00029915  0.00316208  0.20534323  1
  Nb  Nb126  1  0.80366605  0.00180966  0.00320064  1
  Nb  Nb127  1  0.80558950  0.19227972  0.59779649  1
  Nb  Nb128  1  0.40216349  0.20368241  0.39680088  1
  Nb  Nb129  1  0.20537713  0.39921167  0.79391344  1
  Nb  Nb130  1  0.79497454  0.21525945  0.20969431  1
  Nb  Nb131  1  0.80624647  0.59282860  0.39620977  1
  Nb  Nb132  1  0.20161149  -0.00099188  -0.00489003  1
  Nb  Nb133  1  0.59388189  0.20581620  0.39813202  1
  Nb  Nb134  1  -0.00208035  0.59380914  0.40034711  1
  Nb  Nb135  1  0.39486231  -0.00361082  -0.00650839  1
  Nb  Nb136  1  0.39905458  0.20238187  0.20945998  1
  Nb  Nb137  1  0.40468391  0.80245037  0.20002482  1
  Nb  Nb138  1  0.80119488  0.59772276  0.80091238  1
  Nb  Nb139  1  0.79518798  0.80711928  0.19903613  1
  Nb  Nb140  1  0.40484574  0.39216704  0.40381373  1
  Nb  Nb141  1  0.79974074  0.39997926  0.39326548  1
  Nb  Nb142  1  0.40139432  0.39783584  0.79390744  1
  Nb  Nb143  1  0.79466257  0.40696958  0.00474967  1
  Nb  Nb144  1  0.60226602  0.79832260  0.79022522  1
  Nb  Nb145  1  0.39929257  0.80347848  0.00139753  1
  Nb  Nb146  1  0.40174004  -0.00450304  0.80205498  1
  Nb  Nb147  1  0.60097376  0.39759256  0.39938954  1
  Nb  Nb148  1  -0.00575026  0.20139386  0.00488162  1
  Nb  Nb149  1  0.00499914  0.79901054  0.79421122  1
  Pd  Pd150  1  0.18960592  -0.00922117  0.19312395  1
  Pd  Pd151  1  0.00786100  0.39414970  0.59874583  1
  Pd  Pd152  1  0.60276908  0.40492265  0.00189187  1
  Pd  Pd153  1  0.79640229  0.40364258  0.20089705  1
  Pd  Pd154  1  0.20244140  0.80271353  0.59343929  1
  Pd  Pd155  1  0.80284601  0.59130107  -0.01153905  1
  Pd  Pd156  1  0.59691766  0.19120882  0.20938199  1
  Pd  Pd157  1  0.59382850  0.20775998  0.78949872  1
  Pd  Pd158  1  0.00525259  0.20867743  0.80657220  1
  Pd  Pd159  1  0.39583506  0.39777074  -0.00161382  1
  Pd  Pd160  1  0.59441404  -0.00940691  0.79738542  1
  Pd  Pd161  1  0.20311438  0.80214628  0.00442842  1
  Pd  Pd162  1  0.20009800  -0.00284891  0.40450714  1
  Pd  Pd163  1  0.79728565  0.20340131  0.01442270  1
  Pd  Pd164  1  0.20689834  0.00372345  0.60112579  1
  Pd  Pd165  1  0.41179990  0.19873383  0.78492177  1
  Pd  Pd166  1  0.00724167  0.40529560  0.20084569  1
  Pd  Pd167  1  0.79354539  0.20794201  0.40311786  1
  Pd  Pd168  1  0.19732336  0.59342872  -0.00021384  1
  Pd  Pd169  1  0.19123680  0.58840775  0.19816391  1
  Pd  Pd170  1  0.19494603  0.59325355  0.39628583  1
  Pd  Pd171  1  0.39087171  0.00646585  0.61027475  1
  Pd  Pd172  1  0.59609135  0.39253491  0.79656497  1
  Pd  Pd173  1  0.01143181  0.59243317  0.21200933  1
  Pd  Pd174  1  -0.00548159  0.40525973  0.40447002  1
  Pd  Pd175  1  -0.00415620  0.79672190  0.39263377  1
  Pd  Pd176  1  0.60667699  0.60740324  0.78752223  1
  Pd  Pd177  1  -0.00718719  0.81389153  0.21230858  1
  Pd  Pd178  1  0.40233664  0.60756742  0.01047308  1
  Pd  Pd179  1  0.78522499  0.40845402  0.81291995  1
  Pd  Pd180  1  0.20696933  0.39809205  0.40520769  1
  Pd  Pd181  1  -0.00108478  0.00292879  0.60474966  1
  Pd  Pd182  1  0.40438220  0.59005929  0.40368248  1
  Pd  Pd183  1  -0.00253019  0.79913116  0.60275896  1
  Pd  Pd184  1  0.01354785  0.39115026  0.79833065  1
  Pd  Pd185  1  0.20737712  0.00211593  0.79987346  1
  Pd  Pd186  1  0.80552011  -0.00058496  0.80747352  1
  Pd  Pd187  1  -0.01088404  0.19640170  0.20190433  1
  Pd  Pd188  1  0.40179029  0.59711457  0.79040066  1
  Pd  Pd189  1  0.41492690  0.80504656  0.80668060  1
  Pd  Pd190  1  0.19762916  0.59560776  0.80135186  1
  Pd  Pd191  1  0.20309796  0.40748073  -0.00530989  1
  Pd  Pd192  1  0.18934601  0.40492784  0.60175375  1
  Pd  Pd193  1  0.20293971  0.80560193  0.19926554  1
  Pd  Pd194  1  0.39831023  0.19024510  0.60180845  1
  Pd  Pd195  1  0.40696248  0.80038214  0.39766283  1
  Pd  Pd196  1  0.40012875  0.60212645  0.59205965  1
  Pd  Pd197  1  0.60017438  0.79833408  0.60025950  1
  Pd  Pd198  1  0.60007363  0.60162839  0.19608921  1
  Pd  Pd199  1  -0.00011008  0.19579627  0.39761724  1
  Rh  Rh200  1  0.60106141  -0.01124151  0.59602254  1
  Rh  Rh201  1  0.59753323  0.79602256  -0.00689293  1
  Rh  Rh202  1  0.80222181  0.00328265  0.59659572  1
  Rh  Rh203  1  0.59559482  0.80616676  0.40473101  1
  Rh  Rh204  1  -0.00098791  0.60402310  0.59028585  1
  Rh  Rh205  1  0.19290691  0.79265612  0.80045785  1
  Rh  Rh206  1  0.39873556  0.40613355  0.59712723  1
  Rh  Rh207  1  0.79961305  0.60149636  0.60098517  1
  Rh  Rh208  1  0.60436582  0.20057786  0.00355156  1
  Rh  Rh209  1  0.60874155  0.58926668  0.40297928  1
  Rh  Rh210  1  0.59856527  -0.00448536  0.40538491  1
  Rh  Rh211  1  0.79495023  0.61232151  0.20742491  1
  Rh  Rh212  1  0.20048153  0.19153456  0.59488657  1
  Rh  Rh213  1  0.40299212  0.61232614  0.19476520  1
  Rh  Rh214  1  0.40256486  0.00216823  0.40175469  1
  Rh  Rh215  1  -0.00206095  0.60080773  -0.00405531  1
  Rh  Rh216  1  0.19107289  0.20729859  0.80390692  1
  Rh  Rh217  1  0.79880304  0.19739841  0.78868947  1
  Rh  Rh218  1  -0.00741463  0.39807337  0.00099037  1
  Rh  Rh219  1  0.00312970  0.00613701  0.39474091  1
  Rh  Rh220  1  0.20366511  0.80856812  0.40484703  1
  Rh  Rh221  1  0.20591443  0.19788130  0.39876484  1
  Rh  Rh222  1  0.79951424  0.79988321  0.59429062  1
  Rh  Rh223  1  0.40075935  -0.00025030  0.19535088  1
  Rh  Rh224  1  0.60797021  0.39531793  0.59694691  1
  Rh  Rh225  1  0.21031069  0.20474478  0.20759838  1
  Rh  Rh226  1  0.59817245  0.41149378  0.19784159  1
  Rh  Rh227  1  -0.00987224  0.61099167  0.80913499  1
  Rh  Rh228  1  0.60445773  0.60734701  0.60373201  1
  Rh  Rh229  1  0.19029428  0.19350133  -0.00286837  1
  Rh  Rh230  1  0.00002496  0.01413700  0.01813877  1
  Rh  Rh231  1  0.19672106  0.60338278  0.59714865  1
  Rh  Rh232  1  0.79711295  0.81222683  0.01051649  1
  Rh  Rh233  1  0.39666125  0.39319849  0.19850385  1
  Rh  Rh234  1  0.80300983  0.79402783  0.79990650  1
  Rh  Rh235  1  0.60107663  0.79982495  0.20484369  1
  Rh  Rh236  1  0.79704938  0.79374476  0.39144013  1
  Rh  Rh237  1  0.40210155  0.19390952  0.01479100  1
  Rh  Rh238  1  -0.00410777  0.19298437  0.59628343  1
  Rh  Rh239  1  0.60853495  0.20327534  0.59899337  1
  Rh  Rh240  1  0.80257671  0.38775206  0.59414772  1
  Rh  Rh241  1  0.79419214  -0.00490584  0.40604409  1
  Rh  Rh242  1  0.59447450  0.59319557  0.00445331  1
  Rh  Rh243  1  0.00416885  0.79203395  -0.00713787  1
  Rh  Rh244  1  0.39852138  0.79689066  0.58917742  1
  Rh  Rh245  1  0.79921456  -0.00375892  0.19627449  1
  Rh  Rh246  1  0.60597488  0.00706336  -0.00450329  1
  Rh  Rh247  1  0.60458262  0.00263646  0.20167753  1
  Rh  Rh248  1  0.19919745  0.40001997  0.19417816  1
  Rh  Rh249  1  -0.00217450  -0.01237371  0.79013669  1
