# generated using pymatgen
data_ZrScNbPdRh
_symmetry_space_group_name_H-M   'P 1'
_cell_length_a   16.55385241
_cell_length_b   16.55110363
_cell_length_c   16.55330302
_cell_angle_alpha   90.02003690
_cell_angle_beta   90.00877926
_cell_angle_gamma   90.00292081
_symmetry_Int_Tables_number   1
_chemical_formula_structural   ZrScNbPdRh
_chemical_formula_sum   'Zr50 Sc50 Nb50 Pd50 Rh50'
_cell_volume   4535.34855714
_cell_formula_units_Z   50
loop_
 _symmetry_equiv_pos_site_id
 _symmetry_equiv_pos_as_xyz
  1  'x, y, z'
loop_
 _atom_site_type_symbol
 _atom_site_label
 _atom_site_symmetry_multiplicity
 _atom_site_fract_x
 _atom_site_fract_y
 _atom_site_fract_z
 _atom_site_occupancy
  Zr  Zr0  1  0.90120903  0.89507613  0.69819510  1
  Zr  Zr1  1  0.50578768  0.69567033  0.09728187  1
  Zr  Zr2  1  0.69974350  0.51988561  0.49969502  1
  Zr  Zr3  1  0.29892444  0.30102782  0.50478496  1
  Zr  Zr4  1  0.09638249  0.69162210  0.09898259  1
  Zr  Zr5  1  0.09186462  0.29571344  0.29782979  1
  Zr  Zr6  1  0.89781623  0.70543817  0.09552219  1
  Zr  Zr7  1  0.09289595  0.49763716  0.29771139  1
  Zr  Zr8  1  0.09963652  0.30212816  0.50607069  1
  Zr  Zr9  1  0.69955847  0.69316649  0.31428287  1
  Zr  Zr10  1  0.49863696  0.30790022  0.70344974  1
  Zr  Zr11  1  0.89511581  0.30467551  0.29090922  1
  Zr  Zr12  1  0.69586301  0.10970246  0.30181685  1
  Zr  Zr13  1  0.90441807  0.29750893  0.90310760  1
  Zr  Zr14  1  0.90938024  0.90339536  0.89966454  1
  Zr  Zr15  1  0.10811086  0.70984677  0.90607980  1
  Zr  Zr16  1  0.70321155  0.29130149  0.49718839  1
  Zr  Zr17  1  0.09204997  0.10232283  0.49341390  1
  Zr  Zr18  1  0.69678796  0.30036252  0.29658989  1
  Zr  Zr19  1  0.09417442  0.89189224  0.50044692  1
  Zr  Zr20  1  0.89054881  0.70141702  0.50317289  1
  Zr  Zr21  1  0.29890063  0.88790962  0.50193569  1
  Zr  Zr22  1  0.30557553  0.90021731  0.30467141  1
  Zr  Zr23  1  0.90194038  0.49396038  0.89228573  1
  Zr  Zr24  1  0.70489291  0.89623390  0.09868275  1
  Zr  Zr25  1  0.29273597  0.30686893  0.90095227  1
  Zr  Zr26  1  0.29618212  0.49749419  0.10203669  1
  Zr  Zr27  1  0.89742842  0.90669272  0.09620189  1
  Zr  Zr28  1  0.29010667  0.29102365  0.09460946  1
  Zr  Zr29  1  0.69842817  0.49712782  0.29527209  1
  Zr  Zr30  1  0.50269112  0.09767914  0.69764398  1
  Zr  Zr31  1  0.30060355  0.69914234  0.30519020  1
  Zr  Zr32  1  0.90238255  0.31322213  0.70905403  1
  Zr  Zr33  1  0.50272215  0.49748328  0.89518560  1
  Zr  Zr34  1  0.90776402  0.51170201  0.70097818  1
  Zr  Zr35  1  0.49969831  0.09053839  0.30124906  1
  Zr  Zr36  1  0.69627522  0.89562320  0.89784617  1
  Zr  Zr37  1  0.49592315  0.90689743  0.49833628  1
  Zr  Zr38  1  0.49013994  0.08944459  0.09333410  1
  Zr  Zr39  1  0.50159888  0.10053237  0.90524017  1
  Zr  Zr40  1  0.50541623  0.29352781  0.29797209  1
  Zr  Zr41  1  0.09470729  0.88780772  0.09407626  1
  Zr  Zr42  1  0.10851179  0.50499398  0.70216591  1
  Zr  Zr43  1  0.70479729  0.10242765  0.09781098  1
  Zr  Zr44  1  0.70445989  0.50379934  0.90671442  1
  Zr  Zr45  1  0.09582476  0.30287689  0.89380327  1
  Zr  Zr46  1  0.49678458  0.50528988  0.69699077  1
  Zr  Zr47  1  0.29202629  0.69650486  0.10433407  1
  Zr  Zr48  1  0.30223294  0.10159750  0.91173660  1
  Zr  Zr49  1  0.50750109  0.71212324  0.89504348  1
  Sc  Sc50  1  0.09892304  0.89176357  0.71173279  1
  Sc  Sc51  1  0.49860036  0.69051466  0.50071451  1
  Sc  Sc52  1  0.09045686  0.10167756  0.29890571  1
  Sc  Sc53  1  0.49458134  0.70498048  0.69507706  1
  Sc  Sc54  1  0.70003650  0.09531175  0.89980340  1
  Sc  Sc55  1  0.10501192  0.11576015  0.10323814  1
  Sc  Sc56  1  0.91020489  0.50573347  0.10126797  1
  Sc  Sc57  1  0.09683574  0.50572637  0.50399829  1
  Sc  Sc58  1  0.70718798  0.69139255  0.68699558  1
  Sc  Sc59  1  0.69985288  0.70043557  0.09542712  1
  Sc  Sc60  1  0.50464165  0.69327223  0.29928243  1
  Sc  Sc61  1  0.30090759  0.69550777  0.69690016  1
  Sc  Sc62  1  0.30706070  0.30327556  0.29697714  1
  Sc  Sc63  1  0.09843078  0.69856241  0.69805878  1
  Sc  Sc64  1  0.08897303  0.89938191  0.29877354  1
  Sc  Sc65  1  0.90777242  0.10132215  0.29982034  1
  Sc  Sc66  1  0.50402594  0.29906261  0.90109531  1
  Sc  Sc67  1  0.49670319  0.30237647  0.49236774  1
  Sc  Sc68  1  0.29941145  0.50923448  0.50762064  1
  Sc  Sc69  1  0.50021158  0.89520153  0.70136462  1
  Sc  Sc70  1  0.68863376  0.89832388  0.30085611  1
  Sc  Sc71  1  0.30307084  0.90271428  0.10030346  1
  Sc  Sc72  1  0.28780999  0.09769400  0.70480395  1
  Sc  Sc73  1  0.90058935  0.90153336  0.29408384  1
  Sc  Sc74  1  0.49680062  0.50340970  0.49931171  1
  Sc  Sc75  1  0.69862675  0.09783276  0.69342541  1
  Sc  Sc76  1  0.50605137  0.29430237  0.09444916  1
  Sc  Sc77  1  0.70092828  0.29386903  0.11113511  1
  Sc  Sc78  1  0.30344198  0.50364302  0.29223897  1
  Sc  Sc79  1  0.30153127  0.10146245  0.29782200  1
  Sc  Sc80  1  0.30108649  0.88966456  0.69837995  1
  Sc  Sc81  1  0.10494803  0.69819036  0.50412363  1
  Sc  Sc82  1  0.10084112  0.30785813  0.09264180  1
  Sc  Sc83  1  0.89735122  0.89300765  0.50179450  1
  Sc  Sc84  1  0.10360954  0.50001268  0.90226334  1
  Sc  Sc85  1  0.70463613  0.29992576  0.69902440  1
  Sc  Sc86  1  0.70632118  0.91045776  0.69584085  1
  Sc  Sc87  1  0.90588482  0.49959381  0.50115782  1
  Sc  Sc88  1  0.71361125  0.49845866  0.70191719  1
  Sc  Sc89  1  0.09827548  0.69614596  0.29792288  1
  Sc  Sc90  1  0.70415681  0.70122276  0.91132715  1
  Sc  Sc91  1  0.90373077  0.69038878  0.90457330  1
  Sc  Sc92  1  0.30385974  0.09839006  0.50462675  1
  Sc  Sc93  1  0.90166876  0.30050597  0.50040009  1
  Sc  Sc94  1  0.89975491  0.09668636  0.90714257  1
  Sc  Sc95  1  0.49906935  0.49957441  0.29151131  1
  Sc  Sc96  1  0.69255822  0.29834041  0.90810741  1
  Sc  Sc97  1  0.09573963  0.10080876  0.88852212  1
  Sc  Sc98  1  0.90649401  0.49744564  0.30062053  1
  Sc  Sc99  1  0.89319535  0.09135809  0.70903228  1
  Nb  Nb100  1  0.30331031  0.70357276  0.90134516  1
  Nb  Nb101  1  0.10580107  0.90051949  0.90176342  1
  Nb  Nb102  1  0.30331707  0.49614543  0.71117024  1
  Nb  Nb103  1  0.69781142  0.50558456  0.10034624  1
  Nb  Nb104  1  0.10493199  0.50705407  0.10418476  1
  Nb  Nb105  1  0.90015251  0.09932503  0.49975183  1
  Nb  Nb106  1  0.88885908  0.10419480  0.09548312  1
  Nb  Nb107  1  0.49887631  0.50906142  0.09607683  1
  Nb  Nb108  1  0.89551218  0.69324616  0.29897230  1
  Nb  Nb109  1  0.88860074  0.29532143  0.09624266  1
  Nb  Nb110  1  0.10063047  0.10291485  0.69601650  1
  Nb  Nb111  1  0.70249490  0.89878913  0.50151525  1
  Nb  Nb112  1  0.29872327  0.70337005  0.50430163  1
  Nb  Nb113  1  0.30159603  0.50312023  0.88936248  1
  Nb  Nb114  1  0.50370414  0.09734214  0.51001732  1
  Nb  Nb115  1  0.29525063  0.30211793  0.69901793  1
  Nb  Nb116  1  0.29297058  0.89729156  0.89640557  1
  Nb  Nb117  1  0.49906588  0.89916919  0.10103980  1
  Nb  Nb118  1  0.10730982  0.29129513  0.70072571  1
  Nb  Nb119  1  0.90501759  0.70550397  0.70059710  1
  Nb  Nb120  1  0.49596936  0.90341396  0.29197254  1
  Nb  Nb121  1  0.69992884  0.70350757  0.49752463  1
  Nb  Nb122  1  0.70324170  0.09479062  0.50601307  1
  Nb  Nb123  1  0.29710752  0.10121914  0.09744902  1
  Nb  Nb124  1  0.49628549  0.90030644  0.90265838  1
  Nb  Nb125  1  0.80170209  0.40021779  0.00910053  1
  Nb  Nb126  1  0.19031234  -0.00206058  0.59795573  1
  Nb  Nb127  1  0.80622578  0.79801168  0.79676535  1
  Nb  Nb128  1  0.39993145  0.19341620  0.19301828  1
  Nb  Nb129  1  0.19980854  0.00076714  0.19763430  1
  Nb  Nb130  1  0.39801375  0.40934233  -0.00031173  1
  Nb  Nb131  1  0.79583362  0.00419570  0.40701364  1
  Nb  Nb132  1  0.80056575  0.60085160  0.20144979  1
  Nb  Nb133  1  0.19870663  0.20212675  0.40168157  1
  Nb  Nb134  1  0.40636506  0.80244303  0.19846595  1
  Nb  Nb135  1  0.80189475  0.20225062  0.80406150  1
  Nb  Nb136  1  0.39925759  0.80044985  -0.00084874  1
  Nb  Nb137  1  0.60368279  0.40313386  0.59656128  1
  Nb  Nb138  1  0.00197237  0.00275139  0.60051876  1
  Nb  Nb139  1  0.39628010  0.20048322  0.79684442  1
  Nb  Nb140  1  0.60720013  0.80039341  0.58953530  1
  Nb  Nb141  1  0.39806863  -0.00071203  0.80803075  1
  Nb  Nb142  1  0.39751135  0.60115834  -0.00651753  1
  Nb  Nb143  1  0.60116328  0.60179442  0.79925458  1
  Nb  Nb144  1  0.00007659  0.19620803  0.60829632  1
  Nb  Nb145  1  0.19751699  0.39812893  0.40066706  1
  Nb  Nb146  1  0.79463512  0.40020863  0.39736876  1
  Nb  Nb147  1  0.19639728  0.00019428  0.40065442  1
  Nb  Nb148  1  0.39898735  0.20184967  0.60771924  1
  Nb  Nb149  1  0.19699877  -0.00292367  -0.00019961  1
  Pd  Pd150  1  0.60270702  0.40052920  0.01002256  1
  Pd  Pd151  1  -0.00774380  0.20128912  0.18815417  1
  Pd  Pd152  1  0.61108401  0.40666463  0.79201848  1
  Pd  Pd153  1  0.00444209  0.39877834  0.60731635  1
  Pd  Pd154  1  0.79589603  0.61132401  0.80141653  1
  Pd  Pd155  1  0.39239079  0.40913654  0.39917140  1
  Pd  Pd156  1  0.79636553  0.00406447  0.21234532  1
  Pd  Pd157  1  0.19752878  0.39635327  0.20651939  1
  Pd  Pd158  1  0.20296167  0.80673151  0.20476510  1
  Pd  Pd159  1  -0.00203269  0.40513062  0.00625359  1
  Pd  Pd160  1  0.60332248  0.40718613  0.40648657  1
  Pd  Pd161  1  0.01082217  0.60646940  0.80719562  1
  Pd  Pd162  1  0.59422774  0.20894188  0.59725685  1
  Pd  Pd163  1  0.79585129  0.40631204  0.58884622  1
  Pd  Pd164  1  0.40492728  0.60979656  0.80095666  1
  Pd  Pd165  1  0.20195242  0.41013695  0.59992396  1
  Pd  Pd166  1  0.01107669  0.01167488  0.00830190  1
  Pd  Pd167  1  -0.00592833  0.79331567  0.39701756  1
  Pd  Pd168  1  0.19186100  0.80102598  0.39370165  1
  Pd  Pd169  1  0.39830137  0.19243236  0.40186990  1
  Pd  Pd170  1  0.59268311  0.19290715  0.41022378  1
  Pd  Pd171  1  0.39003607  0.00201282  0.61147319  1
  Pd  Pd172  1  0.39957393  0.59688952  0.39946478  1
  Pd  Pd173  1  -0.00096480  0.39719252  0.18778865  1
  Pd  Pd174  1  0.59987958  0.79429568  0.20006316  1
  Pd  Pd175  1  0.20439736  0.19805228  0.80558770  1
  Pd  Pd176  1  0.60580474  -0.00389474  0.00347429  1
  Pd  Pd177  1  0.20319758  0.79200587  0.79270074  1
  Pd  Pd178  1  -0.00401160  0.79415462  0.20196344  1
  Pd  Pd179  1  0.20017837  0.59271657  0.39912576  1
  Pd  Pd180  1  0.59196252  0.40183234  0.19070388  1
  Pd  Pd181  1  0.60579497  0.00170409  0.19449116  1
  Pd  Pd182  1  0.40768259  0.39018644  0.18912675  1
  Pd  Pd183  1  0.20393953  0.59452561  -0.00704083  1
  Pd  Pd184  1  0.60482506  0.00090337  0.40498483  1
  Pd  Pd185  1  0.59560777  -0.00275559  0.79697206  1
  Pd  Pd186  1  0.40320032  0.40012476  0.59701735  1
  Pd  Pd187  1  0.00234589  0.19504332  0.00365725  1
  Pd  Pd188  1  0.79379667  0.79318170  0.20913766  1
  Pd  Pd189  1  0.80171583  0.81056199  0.39221835  1
  Pd  Pd190  1  0.80826009  0.19957003  0.39599207  1
  Pd  Pd191  1  0.60503784  0.19916325  0.79933861  1
  Pd  Pd192  1  0.80990852  0.19662755  0.61170640  1
  Pd  Pd193  1  0.58959460  0.80121719  0.40499744  1
  Pd  Pd194  1  0.00436783  0.00042391  0.79419354  1
  Pd  Pd195  1  0.00530049  0.00730329  0.18664229  1
  Pd  Pd196  1  0.41186964  0.79250040  0.39688816  1
  Pd  Pd197  1  0.39470138  0.00572962  0.40487635  1
  Pd  Pd198  1  -0.00249047  0.60535377  0.40636903  1
  Pd  Pd199  1  0.61631275  0.79331168  0.78179717  1
  Rh  Rh200  1  0.79722868  -0.00372137  -0.00422537  1
  Rh  Rh201  1  0.20587228  0.60061363  0.60445438  1
  Rh  Rh202  1  -0.00953514  0.19937350  0.79184173  1
  Rh  Rh203  1  0.59122344  0.59487035  0.39737005  1
  Rh  Rh204  1  0.39998321  0.21499649  -0.00050684  1
  Rh  Rh205  1  0.20183596  0.19321004  0.59411838  1
  Rh  Rh206  1  0.39311048  -0.00042046  0.19863829  1
  Rh  Rh207  1  0.40079962  0.60939253  0.19530141  1
  Rh  Rh208  1  0.20814712  0.19864076  0.21222440  1
  Rh  Rh209  1  0.39312533  0.60117383  0.60150326  1
  Rh  Rh210  1  0.80642885  0.80684107  -0.01144110  1
  Rh  Rh211  1  0.58817038  0.18801950  0.19248785  1
  Rh  Rh212  1  0.20199030  -0.00366212  0.79963848  1
  Rh  Rh213  1  0.60867837  0.60137753  0.20065560  1
  Rh  Rh214  1  0.79444521  0.79969872  0.60663026  1
  Rh  Rh215  1  -0.00440127  0.79675776  -0.00599707  1
  Rh  Rh216  1  0.80986201  0.59896692  0.59933996  1
  Rh  Rh217  1  0.20778703  0.80658646  0.00485090  1
  Rh  Rh218  1  0.18805865  0.19412470  -0.01087804  1
  Rh  Rh219  1  0.20184712  0.60451765  0.80130480  1
  Rh  Rh220  1  -0.00854124  -0.01003123  0.40659298  1
  Rh  Rh221  1  0.39464086  0.80566322  0.80451356  1
  Rh  Rh222  1  0.59818750  0.60094229  0.60582975  1
  Rh  Rh223  1  0.59584437  0.59959602  -0.00855742  1
  Rh  Rh224  1  0.80917753  0.59121378  0.39459328  1
  Rh  Rh225  1  -0.00146643  0.60713917  0.59719115  1
  Rh  Rh226  1  -0.00483081  0.60515879  0.20039304  1
  Rh  Rh227  1  -0.00252282  0.79397873  0.80823639  1
  Rh  Rh228  1  0.00537630  0.59665470  -0.00304424  1
  Rh  Rh229  1  0.80837171  0.00133409  0.59262956  1
  Rh  Rh230  1  0.38988809  -0.01299544  -0.00570025  1
  Rh  Rh231  1  0.20171686  0.40938251  -0.00207928  1
  Rh  Rh232  1  0.79255455  0.38950511  0.81694391  1
  Rh  Rh233  1  0.19591584  0.59780218  0.20893935  1
  Rh  Rh234  1  0.80537380  0.59051522  0.00986713  1
  Rh  Rh235  1  0.60343794  0.19394485  0.00419918  1
  Rh  Rh236  1  0.79480535  0.20509429  -0.00696203  1
  Rh  Rh237  1  -0.00128012  0.39742527  0.40164398  1
  Rh  Rh238  1  0.19775763  0.79977567  0.60501892  1
  Rh  Rh239  1  0.39597857  0.39060566  0.80624180  1
  Rh  Rh240  1  0.40813190  0.79598138  0.59185553  1
  Rh  Rh241  1  0.00223995  0.79838309  0.60148178  1
  Rh  Rh242  1  0.80545585  0.19197683  0.20506148  1
  Rh  Rh243  1  0.80281746  0.41082849  0.19616585  1
  Rh  Rh244  1  0.59734820  0.80739892  0.00591526  1
  Rh  Rh245  1  0.01283231  0.40433889  0.79303763  1
  Rh  Rh246  1  -0.00280037  0.21015545  0.40499078  1
  Rh  Rh247  1  0.19659484  0.40169047  0.79684765  1
  Rh  Rh248  1  0.60038204  -0.00878185  0.59679741  1
  Rh  Rh249  1  0.79738072  -0.00077396  0.80756557  1
