# generated using pymatgen
data_ZrScNbPdRh
_symmetry_space_group_name_H-M   'P 1'
_cell_length_a   16.56015053
_cell_length_b   16.55727411
_cell_length_c   16.55664574
_cell_angle_alpha   89.99820207
_cell_angle_beta   89.94736780
_cell_angle_gamma   90.01449225
_symmetry_Int_Tables_number   1
_chemical_formula_structural   ZrScNbPdRh
_chemical_formula_sum   'Zr50 Sc50 Nb50 Pd50 Rh50'
_cell_volume   4539.68038863
_cell_formula_units_Z   50
loop_
 _symmetry_equiv_pos_site_id
 _symmetry_equiv_pos_as_xyz
  1  'x, y, z'
loop_
 _atom_site_type_symbol
 _atom_site_label
 _atom_site_symmetry_multiplicity
 _atom_site_fract_x
 _atom_site_fract_y
 _atom_site_fract_z
 _atom_site_occupancy
  Zr  Zr0  1  0.09955765  0.89546296  0.89582422  1
  Zr  Zr1  1  0.09881833  0.10178409  0.89475543  1
  Zr  Zr2  1  0.69529640  0.88779301  0.29884423  1
  Zr  Zr3  1  0.90192249  0.09573168  0.50011382  1
  Zr  Zr4  1  0.90635643  0.29538387  0.89821967  1
  Zr  Zr5  1  0.10247615  0.49627707  0.10415563  1
  Zr  Zr6  1  0.88929374  0.30092960  0.70420235  1
  Zr  Zr7  1  0.90381194  0.50227813  0.69633119  1
  Zr  Zr8  1  0.29227009  0.70237829  0.91117494  1
  Zr  Zr9  1  0.69763251  0.10580081  0.50349143  1
  Zr  Zr10  1  0.30054937  0.29445450  0.89863762  1
  Zr  Zr11  1  0.29766083  0.29539163  0.09713938  1
  Zr  Zr12  1  0.69604150  0.30506141  0.31031082  1
  Zr  Zr13  1  0.29758260  0.50238148  0.50574935  1
  Zr  Zr14  1  0.49965630  0.70044633  0.70628332  1
  Zr  Zr15  1  0.50231211  0.90085521  0.29755300  1
  Zr  Zr16  1  0.08388908  0.89820386  0.49852799  1
  Zr  Zr17  1  0.70213103  0.69632134  0.89652961  1
  Zr  Zr18  1  0.48985544  0.29897878  0.89990349  1
  Zr  Zr19  1  0.49619759  0.10238845  0.29858248  1
  Zr  Zr20  1  0.30388694  0.89644826  0.89692838  1
  Zr  Zr21  1  0.49922984  0.30701964  0.30356780  1
  Zr  Zr22  1  0.90800061  0.90424000  0.29844814  1
  Zr  Zr23  1  0.09054663  0.70412308  0.50013676  1
  Zr  Zr24  1  0.69839433  0.90336694  0.09995481  1
  Zr  Zr25  1  0.89700375  0.89921197  0.09763993  1
  Zr  Zr26  1  0.09792957  0.10254324  0.50205235  1
  Zr  Zr27  1  0.70423438  0.69749698  0.70267913  1
  Zr  Zr28  1  0.89968776  0.90805428  0.70256769  1
  Zr  Zr29  1  0.29479551  0.49891424  0.70181110  1
  Zr  Zr30  1  0.51274226  0.30144613  0.49633465  1
  Zr  Zr31  1  0.30437462  0.50160883  0.29676583  1
  Zr  Zr32  1  0.50592367  0.50043975  0.29139324  1
  Zr  Zr33  1  0.09659227  0.30191309  0.09839875  1
  Zr  Zr34  1  0.31170804  0.89889214  0.09496120  1
  Zr  Zr35  1  0.49893032  0.08519729  0.09762377  1
  Zr  Zr36  1  0.50598428  0.91210942  0.49911127  1
  Zr  Zr37  1  0.70359305  0.29848942  0.88910837  1
  Zr  Zr38  1  0.30121497  0.09845944  0.89248069  1
  Zr  Zr39  1  0.10603410  0.30136510  0.50035883  1
  Zr  Zr40  1  0.70567496  0.69745487  0.48740951  1
  Zr  Zr41  1  0.10709744  0.50035402  0.69689182  1
  Zr  Zr42  1  0.30848692  0.49539533  0.89327529  1
  Zr  Zr43  1  0.10021420  0.29452616  0.90551466  1
  Zr  Zr44  1  0.89977502  0.08998025  0.88645311  1
  Zr  Zr45  1  0.70018086  0.09505765  0.09792489  1
  Zr  Zr46  1  0.10283687  0.30006047  0.70687433  1
  Zr  Zr47  1  0.89829560  0.49092615  0.90252571  1
  Zr  Zr48  1  0.30278638  0.10764377  0.50163836  1
  Zr  Zr49  1  0.90262750  0.69768608  0.70318293  1
  Sc  Sc50  1  0.29998059  0.30178124  0.69913816  1
  Sc  Sc51  1  0.48876982  0.89981845  0.69926900  1
  Sc  Sc52  1  0.09496041  0.49635671  0.30081654  1
  Sc  Sc53  1  0.89170370  0.70780862  0.09184244  1
  Sc  Sc54  1  0.30381625  0.69651649  0.70628641  1
  Sc  Sc55  1  0.30992192  0.30058271  0.50121201  1
  Sc  Sc56  1  0.50244065  0.10037944  0.49971362  1
  Sc  Sc57  1  0.09654626  0.09942239  0.30310228  1
  Sc  Sc58  1  0.49816000  0.09940762  0.69742037  1
  Sc  Sc59  1  0.90447400  0.30901172  0.09220002  1
  Sc  Sc60  1  0.70460557  0.50060201  0.69719638  1
  Sc  Sc61  1  0.09952893  0.90011493  0.30264244  1
  Sc  Sc62  1  0.29578653  0.89629547  0.30037620  1
  Sc  Sc63  1  0.30097844  0.89507906  0.71070417  1
  Sc  Sc64  1  0.09968687  0.09578292  0.70808426  1
  Sc  Sc65  1  0.09500991  0.90602668  0.10433289  1
  Sc  Sc66  1  0.69480198  0.91062302  0.49739244  1
  Sc  Sc67  1  0.70636490  0.10148176  0.69661888  1
  Sc  Sc68  1  0.09797929  0.51001681  0.49682941  1
  Sc  Sc69  1  0.71787409  0.90549586  0.90375290  1
  Sc  Sc70  1  0.31204428  0.29692145  0.29742061  1
  Sc  Sc71  1  0.49532923  0.29885921  0.10234920  1
  Sc  Sc72  1  0.12149720  0.70438445  0.31082983  1
  Sc  Sc73  1  0.69419230  0.29904345  0.10475400  1
  Sc  Sc74  1  0.49299767  0.70910341  0.49686234  1
  Sc  Sc75  1  0.49699423  0.68825224  0.89880892  1
  Sc  Sc76  1  0.69898458  0.49211460  0.49922310  1
  Sc  Sc77  1  0.49129488  0.10048682  0.89468570  1
  Sc  Sc78  1  0.31471704  0.89539760  0.49812644  1
  Sc  Sc79  1  0.09668639  0.89440417  0.70455873  1
  Sc  Sc80  1  0.90328885  0.50954357  0.49510471  1
  Sc  Sc81  1  0.90643011  0.49478499  0.10050526  1
  Sc  Sc82  1  0.09380390  0.30577423  0.30057245  1
  Sc  Sc83  1  0.89420167  0.08860316  0.11252434  1
  Sc  Sc84  1  0.48595880  0.50768242  0.70693575  1
  Sc  Sc85  1  0.11076029  0.50139970  0.89446101  1
  Sc  Sc86  1  0.89457576  0.30293670  0.30670937  1
  Sc  Sc87  1  0.90408565  0.49922694  0.30321466  1
  Sc  Sc88  1  0.30257871  0.10344802  0.29669388  1
  Sc  Sc89  1  0.09825853  0.69675697  0.70795091  1
  Sc  Sc90  1  0.30577448  0.10065364  0.10643288  1
  Sc  Sc91  1  0.70131116  0.70558175  0.11067451  1
  Sc  Sc92  1  0.87885293  0.69818719  0.30921131  1
  Sc  Sc93  1  0.29787223  0.50911796  0.10279131  1
  Sc  Sc94  1  0.50262670  0.29624795  0.70016260  1
  Sc  Sc95  1  0.10107359  0.10015756  0.10348238  1
  Sc  Sc96  1  0.49429892  0.49360959  0.49845981  1
  Sc  Sc97  1  0.88661285  0.30442248  0.49573734  1
  Sc  Sc98  1  0.49186867  0.69363601  0.09399473  1
  Sc  Sc99  1  0.70566120  0.10765533  0.29353570  1
  Nb  Nb100  1  0.89608690  0.10254605  0.30173044  1
  Nb  Nb101  1  0.90728379  0.89697087  0.49996606  1
  Nb  Nb102  1  0.30490232  0.69639446  0.29166270  1
  Nb  Nb103  1  0.90403292  0.10007728  0.69465935  1
  Nb  Nb104  1  0.29485706  0.69648437  0.10865890  1
  Nb  Nb105  1  0.28762758  0.70032968  0.48313702  1
  Nb  Nb106  1  0.11308901  0.69195965  0.09776594  1
  Nb  Nb107  1  0.29783368  0.09575796  0.70373429  1
  Nb  Nb108  1  0.68769321  0.69189964  0.30027625  1
  Nb  Nb109  1  0.50133550  0.89822849  0.09754406  1
  Nb  Nb110  1  0.90659632  0.88788344  0.90285856  1
  Nb  Nb111  1  0.09930007  0.70300057  0.90299272  1
  Nb  Nb112  1  0.69926419  0.51554009  0.29378018  1
  Nb  Nb113  1  0.49339556  0.90061328  0.90708462  1
  Nb  Nb114  1  0.69742200  0.30184324  0.51111691  1
  Nb  Nb115  1  0.68823686  0.50044866  0.90696710  1
  Nb  Nb116  1  0.69505646  0.49799294  0.09895985  1
  Nb  Nb117  1  0.50776136  0.49775358  0.90262189  1
  Nb  Nb118  1  0.50630159  0.69917877  0.29522403  1
  Nb  Nb119  1  0.69694283  0.90111353  0.69735865  1
  Nb  Nb120  1  0.69575633  0.09731944  0.90092398  1
  Nb  Nb121  1  0.69887727  0.30211939  0.68561829  1
  Nb  Nb122  1  0.90458300  0.70896983  0.50432387  1
  Nb  Nb123  1  0.51138668  0.49470425  0.08929472  1
  Nb  Nb124  1  0.90074424  0.70349188  0.90159435  1
  Nb  Nb125  1  0.80574688  0.00073722  0.39877686  1
  Nb  Nb126  1  0.59681546  0.80697275  -0.00424168  1
  Nb  Nb127  1  0.60073013  0.80952439  0.80395461  1
  Nb  Nb128  1  0.20039615  0.00178934  0.41183928  1
  Nb  Nb129  1  0.60287340  0.19296224  -0.00555976  1
  Nb  Nb130  1  0.59814424  0.60672146  0.59929369  1
  Nb  Nb131  1  0.00346029  0.78627455  0.19963131  1
  Nb  Nb132  1  0.20193970  -0.00471150  0.59845734  1
  Nb  Nb133  1  0.00175480  0.60683002  -0.00135039  1
  Nb  Nb134  1  0.60625431  0.79933759  0.60448559  1
  Nb  Nb135  1  0.79806383  0.59334984  -0.00167744  1
  Nb  Nb136  1  0.39762177  0.60673215  0.39159517  1
  Nb  Nb137  1  0.00322485  0.61444454  0.19524179  1
  Nb  Nb138  1  0.40157158  0.79306795  0.19942565  1
  Nb  Nb139  1  -0.00671652  0.20047623  0.20280659  1
  Nb  Nb140  1  0.20595234  0.40145278  0.40159604  1
  Nb  Nb141  1  0.79666137  0.19511007  -0.00482325  1
  Nb  Nb142  1  0.59988414  0.40394788  0.80412625  1
  Nb  Nb143  1  0.20101698  0.80053070  0.59400288  1
  Nb  Nb144  1  0.20235348  -0.00121032  -0.00524167  1
  Nb  Nb145  1  0.60239553  -0.00646474  0.80394529  1
  Nb  Nb146  1  0.00029537  0.39634024  0.60073125  1
  Nb  Nb147  1  0.78936975  0.40937835  0.20163011  1
  Nb  Nb148  1  0.80246177  0.80359780  0.59589802  1
  Nb  Nb149  1  -0.00457773  0.20356777  0.60382921  1
  Pd  Pd150  1  0.20383855  0.18756429  0.00335636  1
  Pd  Pd151  1  0.40561684  0.39532949  0.60594457  1
  Pd  Pd152  1  0.60146969  0.19559967  0.39838158  1
  Pd  Pd153  1  0.19118830  0.20369718  0.20738314  1
  Pd  Pd154  1  0.59087286  0.41288731  0.61257292  1
  Pd  Pd155  1  0.19642079  0.19341965  0.61021449  1
  Pd  Pd156  1  0.40119761  0.60990920  0.58897766  1
  Pd  Pd157  1  -0.00577888  0.20654276  0.40047671  1
  Pd  Pd158  1  0.80451501  0.80090555  0.20329990  1
  Pd  Pd159  1  0.59481559  0.60418171  0.18601947  1
  Pd  Pd160  1  0.80841529  0.21486960  0.19136734  1
  Pd  Pd161  1  0.00875015  0.79480978  0.00945122  1
  Pd  Pd162  1  0.20233565  -0.00141928  0.20150428  1
  Pd  Pd163  1  0.39562761  0.59410309  0.00054424  1
  Pd  Pd164  1  -0.00153198  0.61180763  0.38678764  1
  Pd  Pd165  1  0.39574374  0.40586934  0.00740512  1
  Pd  Pd166  1  0.79706891  0.19232748  0.79845765  1
  Pd  Pd167  1  0.20539581  0.20389459  0.39000925  1
  Pd  Pd168  1  0.39243172  0.00341289  0.39490298  1
  Pd  Pd169  1  0.00268028  0.00422168  -0.00040745  1
  Pd  Pd170  1  0.40601290  0.20305182  0.60153508  1
  Pd  Pd171  1  0.80125505  0.81016258  0.40440238  1
  Pd  Pd172  1  0.80137073  0.58923805  0.80819343  1
  Pd  Pd173  1  0.79968179  -0.00486837  0.59382335  1
  Pd  Pd174  1  0.00575053  0.40310817  0.79934253  1
  Pd  Pd175  1  0.79153756  0.40742739  0.79653193  1
  Pd  Pd176  1  0.79125690  0.39653603  0.00624670  1
  Pd  Pd177  1  0.40300050  0.79682045  0.38977268  1
  Pd  Pd178  1  0.59674893  0.80012258  0.40814611  1
  Pd  Pd179  1  0.60035680  0.19721875  0.79647354  1
  Pd  Pd180  1  0.80977503  0.00411745  -0.00317413  1
  Pd  Pd181  1  0.20485601  0.39377190  0.20817105  1
  Pd  Pd182  1  0.39374748  0.00101425  0.60468575  1
  Pd  Pd183  1  0.58980199  0.59429854  0.41006229  1
  Pd  Pd184  1  0.40097687  0.40528415  0.18767904  1
  Pd  Pd185  1  -0.01401084  0.18446981  0.01156433  1
  Pd  Pd186  1  0.79881484  0.60192283  0.59100103  1
  Pd  Pd187  1  0.00299573  0.59750284  0.80960076  1
  Pd  Pd188  1  0.60487178  0.00201519  0.20789389  1
  Pd  Pd189  1  0.19757066  0.61344975  0.60150935  1
  Pd  Pd190  1  0.20321625  0.40542337  -0.00266408  1
  Pd  Pd191  1  0.79467168  0.41089250  0.39624491  1
  Pd  Pd192  1  0.60689785  0.61259542  0.00808346  1
  Pd  Pd193  1  0.59367138  0.20034927  0.19409359  1
  Pd  Pd194  1  0.60087606  0.38355898  -0.00370964  1
  Pd  Pd195  1  0.20009538  0.80539791  0.19454411  1
  Pd  Pd196  1  0.19517557  0.80916610  0.00957787  1
  Pd  Pd197  1  0.39486270  0.79350346  0.60042614  1
  Pd  Pd198  1  0.80036847  0.80678648  0.79676765  1
  Pd  Pd199  1  0.80970845  0.59531313  0.19147363  1
  Rh  Rh200  1  0.20312849  0.39346747  0.80468405  1
  Rh  Rh201  1  0.40672814  0.39710562  0.79626699  1
  Rh  Rh202  1  0.58982020  0.79337378  0.18985177  1
  Rh  Rh203  1  0.20610103  0.58861016  0.39333455  1
  Rh  Rh204  1  0.39823843  -0.00929658  0.20621376  1
  Rh  Rh205  1  0.59954138  0.59163198  0.79019254  1
  Rh  Rh206  1  -0.00526845  0.79073575  0.38534537  1
  Rh  Rh207  1  0.79503813  0.19568809  0.40713792  1
  Rh  Rh208  1  0.00038297  -0.00658430  0.79877943  1
  Rh  Rh209  1  -0.00351074  0.79816923  0.79940856  1
  Rh  Rh210  1  0.61214643  0.00891526  0.39082662  1
  Rh  Rh211  1  0.80707040  0.40387412  0.59736939  1
  Rh  Rh212  1  -0.01345558  0.39505591  0.20526086  1
  Rh  Rh213  1  0.00729295  0.39837655  0.41139102  1
  Rh  Rh214  1  0.59925693  0.19776598  0.60460763  1
  Rh  Rh215  1  0.60526728  0.40884877  0.39705909  1
  Rh  Rh216  1  0.39461626  0.19953920  0.78998093  1
  Rh  Rh217  1  0.39295639  0.00557628  -0.00360084  1
  Rh  Rh218  1  0.79023852  0.79402190  -0.00407746  1
  Rh  Rh219  1  0.19917785  0.79281651  0.79464015  1
  Rh  Rh220  1  0.00281412  0.00463902  0.20415035  1
  Rh  Rh221  1  0.20392994  0.60635099  0.80495285  1
  Rh  Rh222  1  0.20355101  0.20202142  0.79665940  1
  Rh  Rh223  1  0.79855712  0.59440119  0.40157624  1
  Rh  Rh224  1  0.19986513  -0.00394776  0.79924619  1
  Rh  Rh225  1  -0.00126220  0.79756233  0.61157176  1
  Rh  Rh226  1  0.39473592  0.60124523  0.80932207  1
  Rh  Rh227  1  0.00651747  0.00538084  0.60764424  1
  Rh  Rh228  1  0.79330126  -0.00905094  0.21210649  1
  Rh  Rh229  1  0.79667595  0.00093642  0.79574868  1
  Rh  Rh230  1  0.40617521  0.19304352  0.00582596  1
  Rh  Rh231  1  -0.00063123  0.00401022  0.39494702  1
  Rh  Rh232  1  0.40609221  0.19928882  0.19692469  1
  Rh  Rh233  1  0.19627322  0.40151814  0.59302396  1
  Rh  Rh234  1  0.59543270  -0.00168514  -0.00988161  1
  Rh  Rh235  1  -0.00184527  0.19903406  0.79216587  1
  Rh  Rh236  1  0.40366285  0.79154530  0.00402526  1
  Rh  Rh237  1  0.19022663  0.59678399  0.20926176  1
  Rh  Rh238  1  0.59458149  -0.00153734  0.61056982  1
  Rh  Rh239  1  0.40661775  -0.00010146  0.79668210  1
  Rh  Rh240  1  0.60369821  0.40154510  0.20156210  1
  Rh  Rh241  1  0.39483086  0.40644155  0.40081492  1
  Rh  Rh242  1  0.80441222  0.20272478  0.59698594  1
  Rh  Rh243  1  0.40435773  0.79347398  0.81036638  1
  Rh  Rh244  1  0.00144245  0.59772137  0.60137832  1
  Rh  Rh245  1  0.19954324  0.59450233  -0.00431978  1
  Rh  Rh246  1  0.19983851  0.81640283  0.41050816  1
  Rh  Rh247  1  0.40741309  0.20145770  0.40230670  1
  Rh  Rh248  1  0.01399642  0.40994029  -0.00829179  1
  Rh  Rh249  1  0.40926269  0.59997061  0.19827049  1
