# generated using pymatgen
data_ZrScNbPdRh
_symmetry_space_group_name_H-M   'P 1'
_cell_length_a   16.55427985
_cell_length_b   16.55130210
_cell_length_c   16.55173112
_cell_angle_alpha   89.96035613
_cell_angle_beta   89.98027242
_cell_angle_gamma   89.96464868
_symmetry_Int_Tables_number   1
_chemical_formula_structural   ZrScNbPdRh
_chemical_formula_sum   'Zr50 Sc50 Nb50 Pd50 Rh50'
_cell_volume   4535.08748153
_cell_formula_units_Z   50
loop_
 _symmetry_equiv_pos_site_id
 _symmetry_equiv_pos_as_xyz
  1  'x, y, z'
loop_
 _atom_site_type_symbol
 _atom_site_label
 _atom_site_symmetry_multiplicity
 _atom_site_fract_x
 _atom_site_fract_y
 _atom_site_fract_z
 _atom_site_occupancy
  Zr  Zr0  1  0.29598355  0.49568132  0.29831053  1
  Zr  Zr1  1  0.70235546  0.91052887  0.89328411  1
  Zr  Zr2  1  0.30055641  0.49070930  0.90247878  1
  Zr  Zr3  1  0.29996019  0.90580697  0.30012744  1
  Zr  Zr4  1  0.08542434  0.09695301  0.50333253  1
  Zr  Zr5  1  0.09826709  0.30097658  0.49842919  1
  Zr  Zr6  1  0.89537312  0.10107254  0.90172940  1
  Zr  Zr7  1  0.30045968  0.70042335  0.09411223  1
  Zr  Zr8  1  0.91179190  0.70556688  0.89905251  1
  Zr  Zr9  1  0.49632224  0.89979268  0.10591173  1
  Zr  Zr10  1  0.09992964  0.90505805  0.50473913  1
  Zr  Zr11  1  0.30689460  0.10555111  0.70046079  1
  Zr  Zr12  1  0.69202396  0.50070270  0.50909791  1
  Zr  Zr13  1  0.70816663  0.50239279  0.10039675  1
  Zr  Zr14  1  0.69524483  0.28957595  0.29893407  1
  Zr  Zr15  1  0.29561878  0.69180938  0.90361436  1
  Zr  Zr16  1  0.50301578  0.91117989  0.70355999  1
  Zr  Zr17  1  0.51183384  0.71163432  0.70117261  1
  Zr  Zr18  1  0.29283873  0.29044622  0.29596171  1
  Zr  Zr19  1  0.89804784  0.09664937  0.09296449  1
  Zr  Zr20  1  0.09838498  0.30516719  0.90731965  1
  Zr  Zr21  1  0.50263650  0.90266651  0.89531014  1
  Zr  Zr22  1  0.09188281  0.70025919  0.29098492  1
  Zr  Zr23  1  0.10705548  0.08877673  0.69577993  1
  Zr  Zr24  1  0.49793163  0.70018098  0.10122328  1
  Zr  Zr25  1  0.69617561  0.50808921  0.70669350  1
  Zr  Zr26  1  0.90173477  0.28489522  0.50872449  1
  Zr  Zr27  1  0.50134808  0.49197841  0.89896800  1
  Zr  Zr28  1  0.89377962  0.69762815  0.70644968  1
  Zr  Zr29  1  0.89759896  0.89675446  0.09897947  1
  Zr  Zr30  1  0.10048541  0.30162327  0.10501753  1
  Zr  Zr31  1  0.70496300  0.49973268  0.29702876  1
  Zr  Zr32  1  0.69263554  0.89092580  0.69480639  1
  Zr  Zr33  1  0.30053797  0.90464274  0.10235241  1
  Zr  Zr34  1  0.69831847  0.70941691  0.30472355  1
  Zr  Zr35  1  0.09870899  0.50076462  0.50281874  1
  Zr  Zr36  1  0.29921329  0.09695215  0.49460151  1
  Zr  Zr37  1  0.29603355  0.69505900  0.69842688  1
  Zr  Zr38  1  0.69972259  0.29583773  0.90157163  1
  Zr  Zr39  1  0.09639944  0.10433395  0.90120498  1
  Zr  Zr40  1  0.69809138  0.29931625  0.09920526  1
  Zr  Zr41  1  0.49617062  0.49800162  0.50865471  1
  Zr  Zr42  1  0.29708724  0.50044966  0.69911951  1
  Zr  Zr43  1  0.49203691  0.30014788  0.69788179  1
  Zr  Zr44  1  0.71452493  0.09518990  0.50069613  1
  Zr  Zr45  1  0.30773783  0.29709736  0.49306715  1
  Zr  Zr46  1  0.30373046  0.49891327  0.09414300  1
  Zr  Zr47  1  0.30495041  0.09804972  0.10275209  1
  Zr  Zr48  1  0.70684296  0.10329880  0.30132569  1
  Zr  Zr49  1  0.49618555  0.49646171  0.09228881  1
  Sc  Sc50  1  0.50524811  0.70500233  0.30041667  1
  Sc  Sc51  1  0.89635928  0.70868702  0.49471970  1
  Sc  Sc52  1  0.70335440  0.10553964  0.10348859  1
  Sc  Sc53  1  0.09392769  0.31054854  0.70479318  1
  Sc  Sc54  1  0.49790077  0.28941221  0.09528721  1
  Sc  Sc55  1  0.70008257  0.29049499  0.50261095  1
  Sc  Sc56  1  0.90652602  0.70018082  0.29773064  1
  Sc  Sc57  1  0.48964304  0.09615237  0.49935127  1
  Sc  Sc58  1  0.49649531  0.10569880  0.89650402  1
  Sc  Sc59  1  0.89854905  0.90230130  0.90578241  1
  Sc  Sc60  1  0.29057591  0.70438901  0.30291208  1
  Sc  Sc61  1  0.30028707  0.91185835  0.70393343  1
  Sc  Sc62  1  0.49817347  0.30301222  0.90091718  1
  Sc  Sc63  1  0.70700038  0.90003899  0.10745924  1
  Sc  Sc64  1  0.10520400  0.10374113  0.30929307  1
  Sc  Sc65  1  0.10321131  0.88526002  0.29997409  1
  Sc  Sc66  1  0.90462186  0.69826048  0.10115918  1
  Sc  Sc67  1  0.89521421  0.89486671  0.70301640  1
  Sc  Sc68  1  0.50795594  0.09901472  0.29582496  1
  Sc  Sc69  1  0.09688151  0.69568010  0.71104720  1
  Sc  Sc70  1  0.71151304  0.69808838  0.88982058  1
  Sc  Sc71  1  0.29743866  0.50232484  0.50016410  1
  Sc  Sc72  1  0.89576409  0.29370433  0.30051513  1
  Sc  Sc73  1  0.10641006  0.09608193  0.09129728  1
  Sc  Sc74  1  0.89775983  0.90737895  0.49610410  1
  Sc  Sc75  1  0.10328521  0.49508816  0.69938123  1
  Sc  Sc76  1  0.30073238  0.30023651  0.70683013  1
  Sc  Sc77  1  0.90273296  0.50794604  0.89895849  1
  Sc  Sc78  1  0.69977814  0.09312621  0.70733909  1
  Sc  Sc79  1  0.30632103  0.90529773  0.90598536  1
  Sc  Sc80  1  0.90484647  0.49745230  0.70510973  1
  Sc  Sc81  1  0.09956916  0.70268393  0.48215263  1
  Sc  Sc82  1  0.29663715  0.29306962  0.10285371  1
  Sc  Sc83  1  0.29341837  0.69080774  0.49823156  1
  Sc  Sc84  1  0.09221746  0.49724308  0.29081843  1
  Sc  Sc85  1  0.89620630  0.89122737  0.30336670  1
  Sc  Sc86  1  0.08962374  0.48720086  0.09840411  1
  Sc  Sc87  1  0.10510134  0.89999376  0.10107071  1
  Sc  Sc88  1  0.90349969  0.50771255  0.29063600  1
  Sc  Sc89  1  0.90733728  0.30320804  0.09260853  1
  Sc  Sc90  1  0.30182858  0.90966915  0.49753734  1
  Sc  Sc91  1  0.09303715  0.90455300  0.90543414  1
  Sc  Sc92  1  0.49717617  0.70642856  0.89542295  1
  Sc  Sc93  1  0.90520294  0.29640585  0.89330090  1
  Sc  Sc94  1  0.69971345  0.29811598  0.70481023  1
  Sc  Sc95  1  0.49617154  0.50852053  0.30738325  1
  Sc  Sc96  1  0.71556883  0.70630837  0.10218509  1
  Sc  Sc97  1  0.90401699  0.50266566  0.50141072  1
  Sc  Sc98  1  0.69676518  0.89973325  0.30230530  1
  Sc  Sc99  1  0.50697594  0.90963220  0.50188572  1
  Nb  Nb100  1  0.70565989  0.88972401  0.49847948  1
  Nb  Nb101  1  0.90247958  0.09745813  0.30872343  1
  Nb  Nb102  1  0.09859984  0.90031269  0.69945282  1
  Nb  Nb103  1  0.30309483  0.10246321  0.29939164  1
  Nb  Nb104  1  0.50042479  0.29762491  0.29953369  1
  Nb  Nb105  1  0.09826247  0.30147022  0.29400328  1
  Nb  Nb106  1  0.90256551  0.10838841  0.68252496  1
  Nb  Nb107  1  0.69655920  0.49677200  0.90268196  1
  Nb  Nb108  1  0.70329025  0.09955556  0.90575679  1
  Nb  Nb109  1  0.89729037  0.30390009  0.69810730  1
  Nb  Nb110  1  0.70537541  0.70328143  0.68951993  1
  Nb  Nb111  1  0.09947296  0.69969611  0.90361280  1
  Nb  Nb112  1  0.29972192  0.29914272  0.89724507  1
  Nb  Nb113  1  0.50246622  0.70313446  0.49672518  1
  Nb  Nb114  1  0.49627696  0.10379751  0.69607449  1
  Nb  Nb115  1  0.49733419  0.09539387  0.09745795  1
  Nb  Nb116  1  0.10134746  0.49350169  0.89979004  1
  Nb  Nb117  1  0.69573857  0.70603550  0.50803318  1
  Nb  Nb118  1  0.50468590  0.89411839  0.30171219  1
  Nb  Nb119  1  0.29274172  0.10586119  0.90064003  1
  Nb  Nb120  1  0.49959194  0.49726646  0.70095199  1
  Nb  Nb121  1  0.89707738  0.49979823  0.10356570  1
  Nb  Nb122  1  0.50248483  0.30242054  0.50178470  1
  Nb  Nb123  1  0.90269121  0.09940161  0.49603696  1
  Nb  Nb124  1  0.10408841  0.70309862  0.09893019  1
  Nb  Nb125  1  0.59365716  0.40034496  0.20345161  1
  Nb  Nb126  1  0.19653504  0.60085077  0.19051631  1
  Nb  Nb127  1  0.00156655  0.19274070  0.20270983  1
  Nb  Nb128  1  -0.00315073  0.00464135  0.20323168  1
  Nb  Nb129  1  0.20009004  0.19871782  0.59714543  1
  Nb  Nb130  1  0.40391184  0.39390076  0.20489181  1
  Nb  Nb131  1  0.00450321  0.79891362  0.60403330  1
  Nb  Nb132  1  0.79250415  0.59971681  0.40433344  1
  Nb  Nb133  1  -0.00261215  0.00523570  0.79227059  1
  Nb  Nb134  1  0.79913873  0.40559956  -0.00280666  1
  Nb  Nb135  1  0.00117923  0.60844912  0.59939372  1
  Nb  Nb136  1  0.80097302  0.39787802  0.60127250  1
  Nb  Nb137  1  0.40477148  0.59416688  0.79343959  1
  Nb  Nb138  1  0.39980051  0.79985749  0.59648756  1
  Nb  Nb139  1  0.19743490  0.80173224  0.60549266  1
  Nb  Nb140  1  0.59856962  0.39485207  0.39956618  1
  Nb  Nb141  1  0.60323381  0.59806086  0.19444757  1
  Nb  Nb142  1  -0.00348394  0.39487650  0.39977406  1
  Nb  Nb143  1  0.60431263  0.80278057  -0.00101592  1
  Nb  Nb144  1  0.59250164  0.19612451  0.60100144  1
  Nb  Nb145  1  0.60490648  0.60324187  -0.00018356  1
  Nb  Nb146  1  0.59926391  0.00133498  0.00110230  1
  Nb  Nb147  1  0.40563180  0.80291426  0.40518293  1
  Nb  Nb148  1  0.79853405  0.40065905  0.40524261  1
  Nb  Nb149  1  0.19391922  0.80017264  0.80278553  1
  Pd  Pd150  1  0.40372629  0.80152266  -0.00281073  1
  Pd  Pd151  1  0.80849039  0.59595024  0.59680335  1
  Pd  Pd152  1  0.59309908  0.60430585  0.60341841  1
  Pd  Pd153  1  0.59955621  0.39369644  0.79513522  1
  Pd  Pd154  1  0.19622306  -0.00724464  0.81086928  1
  Pd  Pd155  1  0.19853946  0.80868637  -0.00672538  1
  Pd  Pd156  1  0.80980795  0.00547525  0.79152025  1
  Pd  Pd157  1  0.79872232  0.80338737  0.80299673  1
  Pd  Pd158  1  0.40808423  0.19420836  0.39302965  1
  Pd  Pd159  1  0.00641169  0.59248490  0.79783746  1
  Pd  Pd160  1  0.00525213  0.59590253  0.00454435  1
  Pd  Pd161  1  0.59620720  0.19709405  0.79637352  1
  Pd  Pd162  1  0.60440788  0.00822259  0.59528119  1
  Pd  Pd163  1  0.39665774  0.19922451  -0.00530859  1
  Pd  Pd164  1  0.59745633  0.60734233  0.80621456  1
  Pd  Pd165  1  0.60365087  0.59793216  0.39761655  1
  Pd  Pd166  1  0.19301367  -0.00133886  0.39604370  1
  Pd  Pd167  1  0.39076629  0.39841457  0.60122040  1
  Pd  Pd168  1  0.60407852  0.00271182  0.19481099  1
  Pd  Pd169  1  0.19328841  0.20744351  0.79264916  1
  Pd  Pd170  1  0.18655526  0.58868072  0.00556080  1
  Pd  Pd171  1  0.59316730  0.19580936  0.41105410  1
  Pd  Pd172  1  0.00171241  0.19496844  0.79077169  1
  Pd  Pd173  1  0.80274058  0.40496621  0.80257140  1
  Pd  Pd174  1  0.20810584  0.39102055  0.59928962  1
  Pd  Pd175  1  0.19104645  0.40310805  0.39592210  1
  Pd  Pd176  1  0.80122886  0.60025532  -0.00665834  1
  Pd  Pd177  1  0.81182705  0.20175603  0.19376887  1
  Pd  Pd178  1  0.19518757  0.19805152  0.40521066  1
  Pd  Pd179  1  0.80544902  -0.00253071  0.20726583  1
  Pd  Pd180  1  0.18992941  0.00466376  0.20536717  1
  Pd  Pd181  1  0.40472901  0.00407895  0.20846273  1
  Pd  Pd182  1  0.01285956  0.20503455  0.61171130  1
  Pd  Pd183  1  0.39866069  0.00977585  0.80662683  1
  Pd  Pd184  1  0.59801575  0.19103263  0.00112348  1
  Pd  Pd185  1  0.60462057  0.00036529  0.40262967  1
  Pd  Pd186  1  0.80160568  0.19513105  0.79509453  1
  Pd  Pd187  1  0.80431137  0.39123760  0.19974424  1
  Pd  Pd188  1  0.80300099  -0.00658200  0.60455222  1
  Pd  Pd189  1  0.00305548  -0.01061771  0.38908916  1
  Pd  Pd190  1  0.00358464  0.80350124  0.00589509  1
  Pd  Pd191  1  0.19138475  0.59384048  0.38808181  1
  Pd  Pd192  1  0.39757746  0.59912208  0.20803909  1
  Pd  Pd193  1  0.39810294  0.60892280  0.39752787  1
  Pd  Pd194  1  0.20179031  0.20301737  0.00313131  1
  Pd  Pd195  1  0.40734406  0.60744615  0.60418113  1
  Pd  Pd196  1  0.40433238  0.40008103  0.39537814  1
  Pd  Pd197  1  0.19776143  0.59717797  0.80388742  1
  Pd  Pd198  1  0.39470420  0.79666092  0.21084712  1
  Pd  Pd199  1  0.38790466  0.79712636  0.79297919  1
  Rh  Rh200  1  0.18440559  0.60863278  0.59496521  1
  Rh  Rh201  1  0.20508459  0.79377422  0.19377306  1
  Rh  Rh202  1  0.19878216  0.39692207  0.80396933  1
  Rh  Rh203  1  -0.00196727  0.20557344  0.39113128  1
  Rh  Rh204  1  0.80709853  0.80333897  0.59679404  1
  Rh  Rh205  1  0.80317768  0.20985416  -0.00169854  1
  Rh  Rh206  1  -0.00198639  0.80445312  0.40579195  1
  Rh  Rh207  1  0.60464642  0.38974644  0.60120228  1
  Rh  Rh208  1  -0.01504829  -0.00901586  0.60691787  1
  Rh  Rh209  1  0.39867963  -0.00392650  0.60269714  1
  Rh  Rh210  1  0.20905420  0.00226174  0.59804139  1
  Rh  Rh211  1  0.59389812  0.19836449  0.19302437  1
  Rh  Rh212  1  -0.00083083  0.40153105  0.80534255  1
  Rh  Rh213  1  0.60814235  0.40353158  0.00603307  1
  Rh  Rh214  1  0.80426194  0.79847113  0.20575339  1
  Rh  Rh215  1  0.00601911  0.80846751  0.80085861  1
  Rh  Rh216  1  0.79006469  0.20216297  0.60840221  1
  Rh  Rh217  1  0.39815288  0.40180697  0.79789743  1
  Rh  Rh218  1  -0.01100327  0.40658642  -0.00816844  1
  Rh  Rh219  1  0.40831686  -0.00471306  0.38909797  1
  Rh  Rh220  1  0.59719629  0.01130740  0.80620412  1
  Rh  Rh221  1  0.19271115  0.19027470  0.19959050  1
  Rh  Rh222  1  0.79020897  -0.00073905  0.00367705  1
  Rh  Rh223  1  0.39827337  0.20158062  0.59519950  1
  Rh  Rh224  1  0.00084166  0.19828961  0.00718886  1
  Rh  Rh225  1  0.40189040  0.00819828  -0.00437836  1
  Rh  Rh226  1  0.79984294  0.61128654  0.20921519  1
  Rh  Rh227  1  0.79741743  0.80238806  -0.00527518  1
  Rh  Rh228  1  -0.00032647  0.80803734  0.19345847  1
  Rh  Rh229  1  0.20628422  0.00022475  -0.00426688  1
  Rh  Rh230  1  0.79871757  0.59669262  0.80045138  1
  Rh  Rh231  1  0.20774613  0.40541275  0.19532631  1
  Rh  Rh232  1  -0.00673094  0.59315854  0.40396616  1
  Rh  Rh233  1  -0.01062272  0.39009695  0.20702433  1
  Rh  Rh234  1  0.20262779  0.39585995  0.00191065  1
  Rh  Rh235  1  0.21134286  0.80710414  0.41126624  1
  Rh  Rh236  1  0.59563785  0.80686042  0.40923663  1
  Rh  Rh237  1  0.41160195  0.60323894  -0.01618703  1
  Rh  Rh238  1  0.80549414  0.20015253  0.40225176  1
  Rh  Rh239  1  -0.00066706  0.00095591  0.00098300  1
  Rh  Rh240  1  0.39967552  0.20205313  0.80651347  1
  Rh  Rh241  1  0.60283772  0.79538551  0.19104959  1
  Rh  Rh242  1  0.61265426  0.79655778  0.80646955  1
  Rh  Rh243  1  0.39174727  0.38409277  0.00632005  1
  Rh  Rh244  1  0.79839482  0.79586754  0.40153106  1
  Rh  Rh245  1  0.79745320  -0.00290919  0.39631582  1
  Rh  Rh246  1  0.59413129  0.80445018  0.59225945  1
  Rh  Rh247  1  -0.00938566  0.40601577  0.59705047  1
  Rh  Rh248  1  0.00699700  0.60200858  0.18587401  1
  Rh  Rh249  1  0.40343427  0.19720175  0.20348452  1
