# generated using pymatgen
data_ZrScNbPdRh
_symmetry_space_group_name_H-M   'P 1'
_cell_length_a   16.55657350
_cell_length_b   16.55608667
_cell_length_c   16.55186745
_cell_angle_alpha   89.98284683
_cell_angle_beta   90.01911866
_cell_angle_gamma   90.00503168
_symmetry_Int_Tables_number   1
_chemical_formula_structural   ZrScNbPdRh
_chemical_formula_sum   'Zr50 Sc50 Nb50 Pd50 Rh50'
_cell_volume   4537.06610736
_cell_formula_units_Z   50
loop_
 _symmetry_equiv_pos_site_id
 _symmetry_equiv_pos_as_xyz
  1  'x, y, z'
loop_
 _atom_site_type_symbol
 _atom_site_label
 _atom_site_symmetry_multiplicity
 _atom_site_fract_x
 _atom_site_fract_y
 _atom_site_fract_z
 _atom_site_occupancy
  Zr  Zr0  1  0.50531330  0.50180212  0.30300819  1
  Zr  Zr1  1  0.69072891  0.89924089  0.50663351  1
  Zr  Zr2  1  0.89053599  0.70811360  0.69834427  1
  Zr  Zr3  1  0.89947347  0.89741072  0.70466470  1
  Zr  Zr4  1  0.29907346  0.50280992  0.70251552  1
  Zr  Zr5  1  0.49816634  0.69938708  0.50472184  1
  Zr  Zr6  1  0.50414395  0.30485517  0.69465733  1
  Zr  Zr7  1  0.70206127  0.30203256  0.69546608  1
  Zr  Zr8  1  0.70369308  0.50063385  0.90217885  1
  Zr  Zr9  1  0.70643418  0.08739880  0.90194797  1
  Zr  Zr10  1  0.30244470  0.89516578  0.50048367  1
  Zr  Zr11  1  0.89881674  0.30009515  0.10277283  1
  Zr  Zr12  1  0.29518530  0.70155741  0.30061129  1
  Zr  Zr13  1  0.69699015  0.50253065  0.49518399  1
  Zr  Zr14  1  0.70420803  0.90573391  0.09646057  1
  Zr  Zr15  1  0.69154539  0.49521213  0.70642303  1
  Zr  Zr16  1  0.90234532  0.29996611  0.49938485  1
  Zr  Zr17  1  0.09818202  0.10080867  0.69941940  1
  Zr  Zr18  1  0.50842053  0.89465944  0.09996428  1
  Zr  Zr19  1  0.49421314  0.09581022  0.09793696  1
  Zr  Zr20  1  0.50114077  0.90550587  0.49574324  1
  Zr  Zr21  1  0.89332900  0.50081067  0.90861518  1
  Zr  Zr22  1  0.10119914  0.08982540  0.90710393  1
  Zr  Zr23  1  0.89918799  0.89662760  0.29440880  1
  Zr  Zr24  1  0.30166709  0.30339923  0.49952815  1
  Zr  Zr25  1  0.69859399  0.29266213  0.29860087  1
  Zr  Zr26  1  0.29592521  0.49063825  0.89848088  1
  Zr  Zr27  1  0.30541760  0.90080954  0.29848363  1
  Zr  Zr28  1  0.09636594  0.50241740  0.30474018  1
  Zr  Zr29  1  0.49169809  0.69210844  0.28501540  1
  Zr  Zr30  1  0.90263611  0.29515444  0.70000613  1
  Zr  Zr31  1  0.89827442  0.89829064  0.48374981  1
  Zr  Zr32  1  0.29501662  0.49266143  0.09030842  1
  Zr  Zr33  1  0.29672905  0.09564086  0.28625973  1
  Zr  Zr34  1  0.89859664  0.49487456  0.10159846  1
  Zr  Zr35  1  0.90100915  0.70545905  0.90157679  1
  Zr  Zr36  1  0.30081175  0.29231262  0.09443356  1
  Zr  Zr37  1  0.70318807  0.90139205  0.29639637  1
  Zr  Zr38  1  0.70567474  0.89665045  0.70480581  1
  Zr  Zr39  1  0.49433697  0.50794833  0.10634443  1
  Zr  Zr40  1  0.09528691  0.90313654  0.29384208  1
  Zr  Zr41  1  0.09284953  0.30015099  0.89191926  1
  Zr  Zr42  1  0.30153600  0.90679965  0.90044124  1
  Zr  Zr43  1  0.29916529  0.09994142  0.91587457  1
  Zr  Zr44  1  0.29977043  0.29794525  0.29676726  1
  Zr  Zr45  1  0.69603218  0.70380432  0.69666798  1
  Zr  Zr46  1  0.50883571  0.29756191  0.50004850  1
  Zr  Zr47  1  0.30124191  0.68992598  0.89212198  1
  Zr  Zr48  1  0.50909909  0.29863187  0.30374681  1
  Zr  Zr49  1  0.09687432  0.90277320  0.70174323  1
  Sc  Sc50  1  0.70883863  0.50642504  0.10634824  1
  Sc  Sc51  1  0.09988549  0.49192828  0.70546805  1
  Sc  Sc52  1  0.70072579  0.70584169  0.09954356  1
  Sc  Sc53  1  0.70243296  0.50142413  0.29828990  1
  Sc  Sc54  1  0.30287916  0.69988195  0.69478143  1
  Sc  Sc55  1  0.90231519  0.90405867  0.90399020  1
  Sc  Sc56  1  0.49522677  0.49797122  0.49788764  1
  Sc  Sc57  1  0.70805397  0.70111721  0.50079773  1
  Sc  Sc58  1  0.09234779  0.70689439  0.29825589  1
  Sc  Sc59  1  0.30654910  0.29876123  0.70123373  1
  Sc  Sc60  1  0.09922409  0.30839285  0.10043346  1
  Sc  Sc61  1  0.09453035  0.89783694  0.10299138  1
  Sc  Sc62  1  0.70066589  0.09672193  0.69369746  1
  Sc  Sc63  1  0.30442856  0.69388045  0.10431522  1
  Sc  Sc64  1  0.69762122  0.29810958  0.50462578  1
  Sc  Sc65  1  0.69118951  0.10181135  0.50188262  1
  Sc  Sc66  1  0.09295109  0.30727572  0.30261968  1
  Sc  Sc67  1  0.09570310  0.70774560  0.10444139  1
  Sc  Sc68  1  0.90251936  0.08726048  0.30505407  1
  Sc  Sc69  1  0.70388788  0.31298493  0.89435430  1
  Sc  Sc70  1  0.90080972  0.09712219  0.70088568  1
  Sc  Sc71  1  0.30259526  0.50312698  0.31378240  1
  Sc  Sc72  1  0.49168522  0.50164533  0.89295912  1
  Sc  Sc73  1  0.89267661  0.09895977  0.09466176  1
  Sc  Sc74  1  0.89816558  0.50349127  0.29911264  1
  Sc  Sc75  1  0.70733052  0.29815592  0.11196595  1
  Sc  Sc76  1  0.90334696  0.30175564  0.90636964  1
  Sc  Sc77  1  0.30148328  0.91135942  0.10520343  1
  Sc  Sc78  1  0.70442655  0.70454724  0.90088055  1
  Sc  Sc79  1  0.51222798  0.89852848  0.89987360  1
  Sc  Sc80  1  0.70495360  0.69380636  0.30057643  1
  Sc  Sc81  1  0.49997125  0.09196989  0.90436944  1
  Sc  Sc82  1  0.89045850  0.49440409  0.69921076  1
  Sc  Sc83  1  0.10635867  0.49584637  0.90103291  1
  Sc  Sc84  1  0.29928108  0.69361678  0.50430433  1
  Sc  Sc85  1  0.30042935  0.10850957  0.69889935  1
  Sc  Sc86  1  0.90184113  0.69924097  0.09560917  1
  Sc  Sc87  1  0.51555740  0.88765075  0.70046542  1
  Sc  Sc88  1  0.70174494  0.10021644  0.28959970  1
  Sc  Sc89  1  0.29426954  0.09329544  0.50051670  1
  Sc  Sc90  1  0.90145564  0.30457938  0.30096981  1
  Sc  Sc91  1  0.09270474  0.49825136  0.10070175  1
  Sc  Sc92  1  0.09345475  0.70089277  0.90518191  1
  Sc  Sc93  1  0.50738548  0.09439609  0.30170363  1
  Sc  Sc94  1  0.90493861  0.10161777  0.90574618  1
  Sc  Sc95  1  0.29575476  0.89483465  0.69282331  1
  Sc  Sc96  1  0.48942238  0.30582889  0.89741767  1
  Sc  Sc97  1  0.89911023  0.49890066  0.49321525  1
  Sc  Sc98  1  0.50224399  0.29785701  0.10567163  1
  Sc  Sc99  1  0.10619924  0.69568413  0.49495054  1
  Nb  Nb100  1  0.09731755  0.10037845  0.30097347  1
  Nb  Nb101  1  0.50019955  0.89716649  0.30030963  1
  Nb  Nb102  1  0.90199599  0.89967406  0.09997663  1
  Nb  Nb103  1  0.10972074  0.09632443  0.10493770  1
  Nb  Nb104  1  0.29711122  0.09930976  0.09912684  1
  Nb  Nb105  1  0.49765210  0.70431431  0.89614719  1
  Nb  Nb106  1  0.50124545  0.69211760  0.70987498  1
  Nb  Nb107  1  0.50549294  0.50372642  0.70066530  1
  Nb  Nb108  1  0.50214226  0.69915674  0.09365123  1
  Nb  Nb109  1  0.90191374  0.70425071  0.49749071  1
  Nb  Nb110  1  0.28732264  0.50509022  0.50025782  1
  Nb  Nb111  1  0.09761703  0.29688073  0.69859346  1
  Nb  Nb112  1  0.10278238  0.89896570  0.90241094  1
  Nb  Nb113  1  0.09410276  0.09854058  0.49341858  1
  Nb  Nb114  1  0.90183030  0.71057696  0.32095726  1
  Nb  Nb115  1  0.29414707  0.30407693  0.90183528  1
  Nb  Nb116  1  0.69911202  0.90313146  0.89933185  1
  Nb  Nb117  1  0.70192306  0.10483508  0.09775746  1
  Nb  Nb118  1  0.90269065  0.10088458  0.49657075  1
  Nb  Nb119  1  0.10608816  0.90317986  0.50424026  1
  Nb  Nb120  1  0.50722957  0.09946169  0.50259648  1
  Nb  Nb121  1  0.49981045  0.10639941  0.69845554  1
  Nb  Nb122  1  0.09287378  0.70776423  0.69939295  1
  Nb  Nb123  1  0.10543136  0.49884951  0.49929730  1
  Nb  Nb124  1  0.09527543  0.29882798  0.49696762  1
  Nb  Nb125  1  0.19322408  0.19709746  0.40042893  1
  Nb  Nb126  1  -0.00416341  0.60437385  0.79434289  1
  Nb  Nb127  1  0.00453223  0.19884337  0.59257262  1
  Nb  Nb128  1  0.39837488  0.19618282  0.40144094  1
  Nb  Nb129  1  0.20619406  0.80263694  -0.00415101  1
  Nb  Nb130  1  0.00000119  0.60402418  0.60188709  1
  Nb  Nb131  1  0.39809387  0.39986331  0.20217139  1
  Nb  Nb132  1  0.59233139  0.80177547  0.39235065  1
  Nb  Nb133  1  0.19443199  0.80139880  0.80398546  1
  Nb  Nb134  1  0.40167795  0.79564987  -0.00322449  1
  Nb  Nb135  1  0.59372233  0.60226246  -0.00044293  1
  Nb  Nb136  1  0.60190347  0.19933137  0.80294703  1
  Nb  Nb137  1  0.19566424  0.39735540  0.59475160  1
  Nb  Nb138  1  0.59857211  0.40434333  0.00276334  1
  Nb  Nb139  1  0.79645853  0.19959499  0.79945199  1
  Nb  Nb140  1  0.00044820  0.79894683  0.59289352  1
  Nb  Nb141  1  0.60592606  0.20272121  -0.00333325  1
  Nb  Nb142  1  0.20063530  0.80758963  0.40111892  1
  Nb  Nb143  1  0.19762869  0.59733412  0.20287512  1
  Nb  Nb144  1  0.41079879  0.00298153  0.60407452  1
  Nb  Nb145  1  0.80427636  0.19702064  0.40441034  1
  Nb  Nb146  1  0.00440508  0.19250220  0.20179262  1
  Nb  Nb147  1  0.40338766  0.00059265  0.79183784  1
  Nb  Nb148  1  0.80503711  -0.00216467  0.59399125  1
  Nb  Nb149  1  0.19805128  0.20284274  0.80608706  1
  Pd  Pd150  1  0.19154164  0.60850519  0.00978374  1
  Pd  Pd151  1  0.59882571  0.60985832  0.39883406  1
  Pd  Pd152  1  0.80167051  0.80639047  -0.00240306  1
  Pd  Pd153  1  -0.00183456  0.60754408  0.20303450  1
  Pd  Pd154  1  0.60403865  0.79289964  0.20631693  1
  Pd  Pd155  1  0.19715777  -0.00121593  0.39609383  1
  Pd  Pd156  1  0.20670991  0.00327330  0.60473631  1
  Pd  Pd157  1  0.40200902  0.59343449  0.60095760  1
  Pd  Pd158  1  0.40193785  0.01011398  0.40310721  1
  Pd  Pd159  1  0.39529174  0.40922563  0.59992649  1
  Pd  Pd160  1  0.39669549  0.80358721  0.18936173  1
  Pd  Pd161  1  0.18886810  0.20517651  0.20374397  1
  Pd  Pd162  1  0.40016294  0.19418256  0.58970297  1
  Pd  Pd163  1  0.79497697  0.39426680  0.39635961  1
  Pd  Pd164  1  0.80269777  0.60189741  0.79807028  1
  Pd  Pd165  1  0.79227655  0.20809592  -0.00926949  1
  Pd  Pd166  1  0.40796221  0.20010436  0.20575848  1
  Pd  Pd167  1  0.81017370  0.61021747  0.20351596  1
  Pd  Pd168  1  0.80487853  0.59499750  0.59644060  1
  Pd  Pd169  1  -0.00743340  0.40999562  0.80318536  1
  Pd  Pd170  1  0.19499741  0.20397867  0.59783703  1
  Pd  Pd171  1  0.80497195  0.79222321  0.19966401  1
  Pd  Pd172  1  0.20975520  0.00378983  0.79344307  1
  Pd  Pd173  1  0.39948730  0.19363874  0.81008413  1
  Pd  Pd174  1  0.39627897  0.80760467  0.79969752  1
  Pd  Pd175  1  0.40267220  0.39713350  0.39774081  1
  Pd  Pd176  1  0.00749389  0.19694030  0.01228065  1
  Pd  Pd177  1  0.40013894  0.79121212  0.39963211  1
  Pd  Pd178  1  0.40796505  0.20369699  -0.00426363  1
  Pd  Pd179  1  0.18907826  0.20641622  -0.00245558  1
  Pd  Pd180  1  0.60024103  0.59967480  0.59715677  1
  Pd  Pd181  1  -0.00549302  0.00747616  0.19155720  1
  Pd  Pd182  1  0.79652637  0.40499709  0.59566132  1
  Pd  Pd183  1  0.18804784  0.60786236  0.79350203  1
  Pd  Pd184  1  0.60205537  0.60386491  0.80984705  1
  Pd  Pd185  1  0.00438189  0.59622493  -0.00352010  1
  Pd  Pd186  1  -0.00033664  0.59847700  0.40640889  1
  Pd  Pd187  1  0.40042420  0.40187093  0.79400295  1
  Pd  Pd188  1  0.59980339  0.00284193  0.19730318  1
  Pd  Pd189  1  0.19672166  0.39483481  0.40076413  1
  Pd  Pd190  1  0.60004985  0.40560844  0.19394297  1
  Pd  Pd191  1  0.19000203  0.59752775  0.60913614  1
  Pd  Pd192  1  0.40223931  0.60122051  -0.00638305  1
  Pd  Pd193  1  0.40799550  0.80356381  0.60822947  1
  Pd  Pd194  1  0.20374410  0.40664993  0.20377370  1
  Pd  Pd195  1  0.59581791  0.00555388  0.79272618  1
  Pd  Pd196  1  -0.00523932  0.00208046  0.80703763  1
  Pd  Pd197  1  -0.00636756  -0.00214741  0.59223536  1
  Pd  Pd198  1  0.78731324  0.00855634  0.40476562  1
  Pd  Pd199  1  0.00451358  0.40331302  0.59745746  1
  Rh  Rh200  1  0.79637638  0.80550432  0.81120362  1
  Rh  Rh201  1  0.19207748  0.79661074  0.59831817  1
  Rh  Rh202  1  0.59779752  0.79433465  -0.00702022  1
  Rh  Rh203  1  0.19684006  -0.00397884  0.19808272  1
  Rh  Rh204  1  -0.00174346  0.19842542  0.39634540  1
  Rh  Rh205  1  0.80402307  0.00214487  0.19232513  1
  Rh  Rh206  1  0.60650959  0.79346763  0.80567356  1
  Rh  Rh207  1  0.60362878  -0.00366735  0.39239616  1
  Rh  Rh208  1  0.00172879  -0.00225684  0.00648987  1
  Rh  Rh209  1  0.59990950  0.00217397  0.60788950  1
  Rh  Rh210  1  -0.00531715  0.39511197  0.20237651  1
  Rh  Rh211  1  0.78665952  0.79871377  0.39985852  1
  Rh  Rh212  1  0.19381040  -0.00871404  0.01227938  1
  Rh  Rh213  1  0.60334714  0.00478987  0.00595732  1
  Rh  Rh214  1  0.80142481  0.40064769  0.20423702  1
  Rh  Rh215  1  0.38590113  0.58867307  0.20312439  1
  Rh  Rh216  1  0.20425337  0.79693364  0.19952869  1
  Rh  Rh217  1  0.80682109  0.80989325  0.59085679  1
  Rh  Rh218  1  0.80400083  0.00287401  0.79710735  1
  Rh  Rh219  1  0.80946326  0.18922740  0.59817536  1
  Rh  Rh220  1  0.81413057  0.19265134  0.21161649  1
  Rh  Rh221  1  0.19290250  0.39366595  -0.00173964  1
  Rh  Rh222  1  0.59103919  0.39558334  0.80517163  1
  Rh  Rh223  1  0.79292412  0.60398282  0.00466401  1
  Rh  Rh224  1  0.00365926  0.80725085  0.00154958  1
  Rh  Rh225  1  0.60685101  0.60410497  0.19245887  1
  Rh  Rh226  1  0.40110759  0.59570826  0.79535424  1
  Rh  Rh227  1  0.20371375  0.38774025  0.79099585  1
  Rh  Rh228  1  0.60715496  0.40094511  0.40241055  1
  Rh  Rh229  1  0.80962958  0.39167724  0.80043963  1
  Rh  Rh230  1  0.00312037  0.79909742  0.80177201  1
  Rh  Rh231  1  0.60424730  0.19495429  0.39857247  1
  Rh  Rh232  1  0.00610820  -0.00725285  0.40111608  1
  Rh  Rh233  1  0.01428284  0.80677850  0.40667060  1
  Rh  Rh234  1  0.59717119  0.19145165  0.18976406  1
  Rh  Rh235  1  0.00111914  0.40348451  -0.00267806  1
  Rh  Rh236  1  0.40691144  -0.01009057  -0.00199066  1
  Rh  Rh237  1  0.80374893  -0.00536589  0.00184204  1
  Rh  Rh238  1  0.40552982  0.39361775  0.00929818  1
  Rh  Rh239  1  0.60148842  0.19957741  0.60712239  1
  Rh  Rh240  1  0.39850338  0.60148111  0.40549665  1
  Rh  Rh241  1  0.59980476  0.41000465  0.59551424  1
  Rh  Rh242  1  -0.01231214  0.79554817  0.19778066  1
  Rh  Rh243  1  0.19588262  0.60840832  0.39331717  1
  Rh  Rh244  1  0.79304647  0.39641833  0.00838553  1
  Rh  Rh245  1  0.40647980  -0.00120667  0.19782395  1
  Rh  Rh246  1  -0.00086309  0.40815526  0.40084513  1
  Rh  Rh247  1  0.59550720  0.79004411  0.59632593  1
  Rh  Rh248  1  0.80433588  0.60146789  0.40078057  1
  Rh  Rh249  1  -0.00098957  0.19348694  0.79350760  1
