# generated using pymatgen
data_ZrScNbPdRh
_symmetry_space_group_name_H-M   'P 1'
_cell_length_a   16.55977807
_cell_length_b   16.55761626
_cell_length_c   16.55812674
_cell_angle_alpha   90.00501940
_cell_angle_beta   90.02691254
_cell_angle_gamma   90.01033654
_symmetry_Int_Tables_number   1
_chemical_formula_structural   ZrScNbPdRh
_chemical_formula_sum   'Zr50 Sc50 Nb50 Pd50 Rh50'
_cell_volume   4540.07963925
_cell_formula_units_Z   50
loop_
 _symmetry_equiv_pos_site_id
 _symmetry_equiv_pos_as_xyz
  1  'x, y, z'
loop_
 _atom_site_type_symbol
 _atom_site_label
 _atom_site_symmetry_multiplicity
 _atom_site_fract_x
 _atom_site_fract_y
 _atom_site_fract_z
 _atom_site_occupancy
  Zr  Zr0  1  0.89502483  0.71575460  0.29973545  1
  Zr  Zr1  1  0.30653827  0.09514317  0.69913317  1
  Zr  Zr2  1  0.69756689  0.69803726  0.49638480  1
  Zr  Zr3  1  0.89267795  0.09233310  0.29879059  1
  Zr  Zr4  1  0.09851721  0.31016263  0.89160367  1
  Zr  Zr5  1  0.70473581  0.50205763  0.49766478  1
  Zr  Zr6  1  0.89555286  0.10813875  0.89576878  1
  Zr  Zr7  1  0.08276375  0.90359011  0.09933623  1
  Zr  Zr8  1  0.49067588  0.30065132  0.50295256  1
  Zr  Zr9  1  0.30103453  0.69832834  0.10021741  1
  Zr  Zr10  1  0.09688625  0.09930137  0.10460198  1
  Zr  Zr11  1  0.89181767  0.50109863  0.09920979  1
  Zr  Zr12  1  0.89612216  0.30387506  0.50205215  1
  Zr  Zr13  1  0.69532648  0.29891013  0.50356362  1
  Zr  Zr14  1  0.09385413  0.28802573  0.49411816  1
  Zr  Zr15  1  0.30329727  0.70529544  0.29829828  1
  Zr  Zr16  1  0.29797699  0.09935359  0.89191524  1
  Zr  Zr17  1  0.69111737  0.49936281  0.10454809  1
  Zr  Zr18  1  0.69833792  0.89874851  0.89901735  1
  Zr  Zr19  1  0.70277258  0.89766374  0.69732523  1
  Zr  Zr20  1  0.69764041  0.09408246  0.30123003  1
  Zr  Zr21  1  0.50840386  0.49409945  0.70365541  1
  Zr  Zr22  1  0.70321317  0.89786171  0.29482557  1
  Zr  Zr23  1  0.90230253  0.31006489  0.10327542  1
  Zr  Zr24  1  0.90370169  0.70937235  0.09844989  1
  Zr  Zr25  1  0.89176636  0.49820130  0.49883520  1
  Zr  Zr26  1  0.90087307  0.89825678  0.90030431  1
  Zr  Zr27  1  0.29890511  0.49700535  0.89867680  1
  Zr  Zr28  1  0.10453038  0.10866845  0.70542111  1
  Zr  Zr29  1  0.09914555  0.71205432  0.09489366  1
  Zr  Zr30  1  0.89451030  0.69396940  0.50496894  1
  Zr  Zr31  1  0.10404922  0.49597796  0.71328742  1
  Zr  Zr32  1  0.30139216  0.90150706  0.89829226  1
  Zr  Zr33  1  0.10688858  0.09714664  0.49146288  1
  Zr  Zr34  1  0.49955038  0.29678733  0.29724132  1
  Zr  Zr35  1  0.51281251  0.50939841  0.90484953  1
  Zr  Zr36  1  0.09787097  0.90843341  0.30629518  1
  Zr  Zr37  1  0.69185429  0.70200723  0.89586891  1
  Zr  Zr38  1  0.10531130  0.90005102  0.50703581  1
  Zr  Zr39  1  0.29955939  0.69667901  0.90206056  1
  Zr  Zr40  1  0.30573021  0.28989427  0.69736309  1
  Zr  Zr41  1  0.30194955  0.09763406  0.09859352  1
  Zr  Zr42  1  0.90289100  0.89431728  0.49307800  1
  Zr  Zr43  1  0.29698370  0.09559266  0.29387809  1
  Zr  Zr44  1  0.70357611  0.10070233  0.69623349  1
  Zr  Zr45  1  0.68907479  0.69861075  0.30092157  1
  Zr  Zr46  1  0.09160930  0.69839913  0.89784801  1
  Zr  Zr47  1  0.89292911  0.69555999  0.90411764  1
  Zr  Zr48  1  0.09982622  0.69793841  0.70211689  1
  Zr  Zr49  1  0.89706181  0.49923751  0.69722635  1
  Sc  Sc50  1  0.51009990  0.29478496  0.89859836  1
  Sc  Sc51  1  0.50771284  0.50518909  0.28929766  1
  Sc  Sc52  1  0.09632406  0.70321253  0.50424628  1
  Sc  Sc53  1  0.90122645  0.29669786  0.29895810  1
  Sc  Sc54  1  0.70382614  0.09840732  0.49760833  1
  Sc  Sc55  1  0.30596838  0.30144937  0.29777984  1
  Sc  Sc56  1  0.89793319  0.89240789  0.69734389  1
  Sc  Sc57  1  0.30583700  0.49366943  0.70417102  1
  Sc  Sc58  1  0.30686071  0.50012704  0.49648643  1
  Sc  Sc59  1  0.28819883  0.89295009  0.11028295  1
  Sc  Sc60  1  0.70380455  0.51393510  0.90097586  1
  Sc  Sc61  1  0.09497009  0.50868149  0.48939112  1
  Sc  Sc62  1  0.70111630  0.90361942  0.50315217  1
  Sc  Sc63  1  0.89969620  0.10913766  0.69414399  1
  Sc  Sc64  1  0.49677296  0.49573584  0.50550977  1
  Sc  Sc65  1  0.09826963  0.29973018  0.70110800  1
  Sc  Sc66  1  0.10169669  0.89146039  0.69720692  1
  Sc  Sc67  1  0.90232340  0.50317822  0.90562347  1
  Sc  Sc68  1  0.90552701  0.09051703  0.10733371  1
  Sc  Sc69  1  0.68868476  0.29800376  0.69909310  1
  Sc  Sc70  1  0.30429092  0.29855028  0.89367958  1
  Sc  Sc71  1  0.70055307  0.50245535  0.30401405  1
  Sc  Sc72  1  0.09897915  0.49507924  0.30180191  1
  Sc  Sc73  1  0.49718210  0.70877916  0.69533280  1
  Sc  Sc74  1  0.49833530  0.29895173  0.69680966  1
  Sc  Sc75  1  0.91346245  0.30046822  0.69733669  1
  Sc  Sc76  1  0.50127434  0.89638253  0.50344782  1
  Sc  Sc77  1  0.30386319  0.90555292  0.69763762  1
  Sc  Sc78  1  0.29595879  0.49935440  0.30009902  1
  Sc  Sc79  1  0.30063192  0.90557720  0.51377018  1
  Sc  Sc80  1  0.90220318  0.70032160  0.70003009  1
  Sc  Sc81  1  0.69688729  0.70625599  0.09783785  1
  Sc  Sc82  1  0.10072312  0.90095856  0.90928003  1
  Sc  Sc83  1  0.70401911  0.29828269  0.29246986  1
  Sc  Sc84  1  0.30563468  0.49684879  0.10664291  1
  Sc  Sc85  1  0.69190156  0.89655627  0.09721677  1
  Sc  Sc86  1  0.30554364  0.70424176  0.69455519  1
  Sc  Sc87  1  0.09837769  0.47978878  0.10102593  1
  Sc  Sc88  1  0.49280680  0.90491398  0.69695949  1
  Sc  Sc89  1  0.69961859  0.50219323  0.70683452  1
  Sc  Sc90  1  0.50390195  0.09985513  0.49577698  1
  Sc  Sc91  1  0.50675582  0.89625843  0.89761230  1
  Sc  Sc92  1  0.69583570  0.10407255  0.09757601  1
  Sc  Sc93  1  0.10138814  0.69478797  0.31179646  1
  Sc  Sc94  1  0.69931918  0.30202192  0.09946762  1
  Sc  Sc95  1  0.89489974  0.48930769  0.30410381  1
  Sc  Sc96  1  0.89869732  0.10922427  0.49661611  1
  Sc  Sc97  1  0.50008326  0.10561043  0.90614289  1
  Sc  Sc98  1  0.49783308  0.11183308  0.09837447  1
  Sc  Sc99  1  0.29976047  0.30610481  0.10697310  1
  Nb  Nb100  1  0.71147953  0.27921709  0.90419330  1
  Nb  Nb101  1  0.49155176  0.89328706  0.29205860  1
  Nb  Nb102  1  0.09514933  0.11193902  0.30051415  1
  Nb  Nb103  1  0.11150277  0.50069235  0.89388051  1
  Nb  Nb104  1  0.89459509  0.90461888  0.28846315  1
  Nb  Nb105  1  0.49598941  0.09407338  0.29668007  1
  Nb  Nb106  1  0.29958189  0.69853819  0.50081821  1
  Nb  Nb107  1  0.09859885  0.29401841  0.28894090  1
  Nb  Nb108  1  0.49954575  0.69666403  0.90558764  1
  Nb  Nb109  1  0.89863880  0.30005743  0.90152999  1
  Nb  Nb110  1  0.70111808  0.10324334  0.90047397  1
  Nb  Nb111  1  0.49894698  0.69918398  0.49690395  1
  Nb  Nb112  1  0.49351458  0.09658255  0.70393829  1
  Nb  Nb113  1  0.09748803  0.10063721  0.90352496  1
  Nb  Nb114  1  0.30149465  0.10274155  0.50391835  1
  Nb  Nb115  1  0.50325656  0.50075442  0.09733463  1
  Nb  Nb116  1  0.49666155  0.89687137  0.10093868  1
  Nb  Nb117  1  0.89799589  0.90275720  0.11143729  1
  Nb  Nb118  1  0.50521279  0.31319229  0.10156542  1
  Nb  Nb119  1  0.09663074  0.29719387  0.10480711  1
  Nb  Nb120  1  0.50275486  0.70574820  0.30235458  1
  Nb  Nb121  1  0.30764552  0.89742522  0.29650444  1
  Nb  Nb122  1  0.49838311  0.68984704  0.10171459  1
  Nb  Nb123  1  0.30345964  0.29965252  0.50150360  1
  Nb  Nb124  1  0.70312601  0.69683956  0.69879256  1
  Nb  Nb125  1  0.19527425  0.59351611  0.00010409  1
  Nb  Nb126  1  0.58740355  -0.00264095  0.20280946  1
  Nb  Nb127  1  0.39903802  -0.00330600  0.39123349  1
  Nb  Nb128  1  0.00370179  0.20586938  -0.00023620  1
  Nb  Nb129  1  0.19182698  0.20201130  0.00034386  1
  Nb  Nb130  1  0.40710498  0.60082724  0.80487740  1
  Nb  Nb131  1  0.20305268  0.59477526  0.59976605  1
  Nb  Nb132  1  0.60071657  0.60510714  0.59724589  1
  Nb  Nb133  1  0.60634288  0.00685935  0.80022360  1
  Nb  Nb134  1  0.40091920  -0.00853515  0.00540617  1
  Nb  Nb135  1  0.80110574  0.39019576  0.80966003  1
  Nb  Nb136  1  0.19959302  0.38854553  0.40559416  1
  Nb  Nb137  1  0.20908542  0.80485327  0.40312307  1
  Nb  Nb138  1  0.79764008  0.00051176  -0.00314467  1
  Nb  Nb139  1  -0.00172311  0.60131781  0.19778862  1
  Nb  Nb140  1  0.59741095  0.39616290  0.40180158  1
  Nb  Nb141  1  0.40607416  0.61079026  0.39918528  1
  Nb  Nb142  1  0.19248311  0.60168031  0.19333037  1
  Nb  Nb143  1  0.80324124  0.60537139  0.19971139  1
  Nb  Nb144  1  0.41198188  0.40340444  0.00327924  1
  Nb  Nb145  1  0.20190253  0.39835115  0.59094622  1
  Nb  Nb146  1  0.20125495  0.79651628  0.80213858  1
  Nb  Nb147  1  0.40457953  0.79746980  0.00363804  1
  Nb  Nb148  1  0.00373203  0.00221971  0.60101364  1
  Nb  Nb149  1  0.00075826  0.00385649  0.79830050  1
  Pd  Pd150  1  0.39444761  0.20990492  0.00271261  1
  Pd  Pd151  1  0.79796169  0.20314987  0.39866264  1
  Pd  Pd152  1  0.78826704  0.40178946  -0.00696250  1
  Pd  Pd153  1  0.20468051  0.20269359  0.19599151  1
  Pd  Pd154  1  -0.01214364  0.60065012  0.39051148  1
  Pd  Pd155  1  0.59272227  0.19163254  0.59902480  1
  Pd  Pd156  1  0.20993178  0.20501923  0.39311602  1
  Pd  Pd157  1  0.59530640  0.80277638  0.79076667  1
  Pd  Pd158  1  0.79251471  0.39443294  0.61405707  1
  Pd  Pd159  1  0.60106453  0.79710152  0.60236633  1
  Pd  Pd160  1  0.61570213  0.39441848  0.81403416  1
  Pd  Pd161  1  0.60743399  0.39348622  -0.00984784  1
  Pd  Pd162  1  0.40297938  0.41048683  0.39189874  1
  Pd  Pd163  1  0.00700578  0.59300800  0.60160123  1
  Pd  Pd164  1  0.59540055  0.19277464  0.79711048  1
  Pd  Pd165  1  0.20946803  0.39626894  0.00208152  1
  Pd  Pd166  1  0.40205490  0.59752362  0.60292897  1
  Pd  Pd167  1  0.00728734  0.79943060  0.39940119  1
  Pd  Pd168  1  0.40860385  0.40097222  0.80900959  1
  Pd  Pd169  1  0.39783418  0.79662843  0.80287424  1
  Pd  Pd170  1  0.00116252  0.40118987  -0.00622527  1
  Pd  Pd171  1  0.80171296  0.79358970  0.79645833  1
  Pd  Pd172  1  0.19035948  -0.00979242  0.79446588  1
  Pd  Pd173  1  0.59955971  0.81014857  0.40128011  1
  Pd  Pd174  1  0.40070092  0.20442315  0.19516082  1
  Pd  Pd175  1  -0.00689278  0.00473632  0.40300180  1
  Pd  Pd176  1  0.60006068  0.20374174  0.39769912  1
  Pd  Pd177  1  0.80268854  0.00111122  0.79997125  1
  Pd  Pd178  1  0.39560095  0.80455130  0.41094090  1
  Pd  Pd179  1  0.59912376  0.19635651  0.19808774  1
  Pd  Pd180  1  0.01008826  0.58838729  0.00769250  1
  Pd  Pd181  1  0.39579641  0.19018801  0.39956800  1
  Pd  Pd182  1  0.80360953  0.19692747  0.19314026  1
  Pd  Pd183  1  0.59594702  0.00434732  0.60533087  1
  Pd  Pd184  1  0.21303729  -0.00568531  0.40042588  1
  Pd  Pd185  1  0.00497613  0.39352751  0.39606209  1
  Pd  Pd186  1  0.59684879  0.00499165  0.00187559  1
  Pd  Pd187  1  -0.00774921  0.59510727  0.80086519  1
  Pd  Pd188  1  0.81057327  0.19273352  0.01497088  1
  Pd  Pd189  1  0.80281606  0.20951095  0.78493359  1
  Pd  Pd190  1  0.18752238  0.79791057  0.21228784  1
  Pd  Pd191  1  0.79300888  0.80348088  0.40312685  1
  Pd  Pd192  1  0.20468491  0.00120497  0.00434865  1
  Pd  Pd193  1  0.39774892  0.59743129  0.20806344  1
  Pd  Pd194  1  0.81243123  0.00028339  0.59414938  1
  Pd  Pd195  1  0.01257481  0.40740277  0.59498554  1
  Pd  Pd196  1  0.80060744  0.80753198  0.00551591  1
  Pd  Pd197  1  0.59227921  -0.00936247  0.39460616  1
  Pd  Pd198  1  0.19976879  0.20092515  0.59993300  1
  Pd  Pd199  1  0.19311538  -0.00228403  0.20049089  1
  Rh  Rh200  1  0.60323696  0.60527036  0.19666001  1
  Rh  Rh201  1  0.40702804  0.19848912  0.80020501  1
  Rh  Rh202  1  0.60766811  0.60708803  0.00716511  1
  Rh  Rh203  1  0.40575890  0.19113032  0.59750564  1
  Rh  Rh204  1  0.60394373  0.40882793  0.59257656  1
  Rh  Rh205  1  0.58775554  0.58925804  0.40810506  1
  Rh  Rh206  1  0.20413572  0.78919976  0.60204303  1
  Rh  Rh207  1  0.19615356  0.40137364  0.21094923  1
  Rh  Rh208  1  0.79350817  0.60502065  0.00747256  1
  Rh  Rh209  1  0.00512935  0.00353438  0.21217136  1
  Rh  Rh210  1  0.59276974  0.80004617  0.19652918  1
  Rh  Rh211  1  0.19598485  0.00943228  0.60697585  1
  Rh  Rh212  1  -0.00721719  0.80655975  -0.00395978  1
  Rh  Rh213  1  0.20010328  0.20513815  0.80727073  1
  Rh  Rh214  1  0.80679295  0.60442329  0.38767721  1
  Rh  Rh215  1  -0.01338364  0.00636774  -0.00860881  1
  Rh  Rh216  1  0.00167786  0.19824429  0.80671681  1
  Rh  Rh217  1  0.79304373  0.60177664  0.60599054  1
  Rh  Rh218  1  0.20508325  0.79643918  -0.00876464  1
  Rh  Rh219  1  -0.00531168  0.80366486  0.59874157  1
  Rh  Rh220  1  -0.01063579  0.40747638  0.80475737  1
  Rh  Rh221  1  0.39639436  0.59566630  -0.00364095  1
  Rh  Rh222  1  0.00622720  0.80036222  0.20983848  1
  Rh  Rh223  1  -0.00145134  0.40336646  0.20611404  1
  Rh  Rh224  1  0.80203798  -0.00416000  0.40319168  1
  Rh  Rh225  1  0.79020512  0.39051387  0.39868507  1
  Rh  Rh226  1  0.41425584  0.00355422  0.81269403  1
  Rh  Rh227  1  -0.00647897  0.19820062  0.39328644  1
  Rh  Rh228  1  0.79387175  0.79812015  0.19522054  1
  Rh  Rh229  1  0.59237496  0.61292735  0.78717407  1
  Rh  Rh230  1  0.58934094  0.79240214  0.00530415  1
  Rh  Rh231  1  0.79601015  0.40658509  0.20187786  1
  Rh  Rh232  1  -0.00856323  0.19828677  0.19861392  1
  Rh  Rh233  1  0.79942588  0.79605289  0.59748210  1
  Rh  Rh234  1  0.21265606  0.60298796  0.40224268  1
  Rh  Rh235  1  0.78412526  -0.00222148  0.18805756  1
  Rh  Rh236  1  0.21114867  0.60710126  0.79609638  1
  Rh  Rh237  1  0.40524414  0.00658196  0.58861418  1
  Rh  Rh238  1  0.60086176  0.39870812  0.20898038  1
  Rh  Rh239  1  0.00628965  0.80733952  0.80323374  1
  Rh  Rh240  1  0.60109910  0.20533153  0.00373222  1
  Rh  Rh241  1  0.40707508  0.79259621  0.19032190  1
  Rh  Rh242  1  0.40675117  0.40435030  0.19768149  1
  Rh  Rh243  1  0.39923526  0.80446558  0.59575941  1
  Rh  Rh244  1  0.79900861  0.20782751  0.60051060  1
  Rh  Rh245  1  0.39387689  0.39744589  0.60565490  1
  Rh  Rh246  1  0.00366864  0.19233067  0.59483587  1
  Rh  Rh247  1  0.80424911  0.59689463  0.79755308  1
  Rh  Rh248  1  0.40295009  -0.00076982  0.19538201  1
  Rh  Rh249  1  0.20769584  0.38929330  0.78817470  1
