# generated using pymatgen
data_ZrScNbPdRh
_symmetry_space_group_name_H-M   'P 1'
_cell_length_a   16.55843665
_cell_length_b   16.56106703
_cell_length_c   16.55641940
_cell_angle_alpha   89.96212594
_cell_angle_beta   89.98243136
_cell_angle_gamma   89.98086826
_symmetry_Int_Tables_number   1
_chemical_formula_structural   ZrScNbPdRh
_chemical_formula_sum   'Zr50 Sc50 Nb50 Pd50 Rh50'
_cell_volume   4540.18893030
_cell_formula_units_Z   50
loop_
 _symmetry_equiv_pos_site_id
 _symmetry_equiv_pos_as_xyz
  1  'x, y, z'
loop_
 _atom_site_type_symbol
 _atom_site_label
 _atom_site_symmetry_multiplicity
 _atom_site_fract_x
 _atom_site_fract_y
 _atom_site_fract_z
 _atom_site_occupancy
  Zr  Zr0  1  0.10218155  0.70605839  0.70081398  1
  Zr  Zr1  1  0.29641024  0.88644580  0.09517643  1
  Zr  Zr2  1  0.90731314  0.90508092  0.10254381  1
  Zr  Zr3  1  0.30240731  0.49964132  0.09575833  1
  Zr  Zr4  1  0.30965292  0.71606013  0.70232280  1
  Zr  Zr5  1  0.89583140  0.28762275  0.70658660  1
  Zr  Zr6  1  0.50061817  0.29686510  0.10220523  1
  Zr  Zr7  1  0.30453602  0.89856937  0.30549108  1
  Zr  Zr8  1  0.50095011  0.70248427  0.08771244  1
  Zr  Zr9  1  0.49324529  0.09541177  0.29231144  1
  Zr  Zr10  1  0.30048441  0.11051459  0.90229844  1
  Zr  Zr11  1  0.90580361  0.49874988  0.29616272  1
  Zr  Zr12  1  0.50531414  0.10433504  0.70217401  1
  Zr  Zr13  1  0.10602798  0.09953125  0.31126501  1
  Zr  Zr14  1  0.89692327  0.69906615  0.50209332  1
  Zr  Zr15  1  0.89854332  0.30898868  0.29988181  1
  Zr  Zr16  1  0.70210856  0.50072454  0.09682947  1
  Zr  Zr17  1  0.29967098  0.29551830  0.09496921  1
  Zr  Zr18  1  0.09722026  0.89533448  0.29769913  1
  Zr  Zr19  1  0.09796327  0.89738073  0.10047313  1
  Zr  Zr20  1  0.08777964  0.10935008  0.69386934  1
  Zr  Zr21  1  0.10794106  0.50153548  0.90216683  1
  Zr  Zr22  1  0.69794978  0.70152270  0.31151656  1
  Zr  Zr23  1  0.70879419  0.89150548  0.89820617  1
  Zr  Zr24  1  0.68819147  0.30315063  0.49271864  1
  Zr  Zr25  1  0.70681713  0.09211282  0.29569089  1
  Zr  Zr26  1  0.90573731  0.09897912  0.50115669  1
  Zr  Zr27  1  0.70660791  0.90542054  0.70114870  1
  Zr  Zr28  1  0.30574886  0.69673684  0.30428786  1
  Zr  Zr29  1  0.09440009  0.69949125  0.90833921  1
  Zr  Zr30  1  0.30419202  0.48810810  0.89661613  1
  Zr  Zr31  1  0.49173976  0.50288252  0.31522680  1
  Zr  Zr32  1  0.50721082  0.89419114  0.30182987  1
  Zr  Zr33  1  0.50082929  0.30951768  0.50124829  1
  Zr  Zr34  1  0.50364645  0.09587132  0.09763737  1
  Zr  Zr35  1  0.69783587  0.89799866  0.49294516  1
  Zr  Zr36  1  0.50332022  0.30387577  0.31105986  1
  Zr  Zr37  1  0.50262347  0.49952363  0.08987611  1
  Zr  Zr38  1  0.89444382  0.89788629  0.70394633  1
  Zr  Zr39  1  0.29752563  0.90121535  0.89023304  1
  Zr  Zr40  1  0.30311898  0.09670915  0.70532683  1
  Zr  Zr41  1  0.89785201  0.90522413  0.50541664  1
  Zr  Zr42  1  0.50375725  0.49532748  0.50608800  1
  Zr  Zr43  1  0.70302087  0.09598788  0.09857727  1
  Zr  Zr44  1  0.88976473  0.09649503  0.69465615  1
  Zr  Zr45  1  0.09575868  0.89234408  0.90215206  1
  Zr  Zr46  1  0.69736393  0.69623511  0.90183135  1
  Zr  Zr47  1  0.89831692  0.10327773  0.10104463  1
  Zr  Zr48  1  0.89800621  0.69678896  0.69105565  1
  Zr  Zr49  1  0.70136692  0.69879443  0.09474688  1
  Sc  Sc50  1  0.49820142  0.30617867  0.88938154  1
  Sc  Sc51  1  0.48337631  0.90536465  0.69169851  1
  Sc  Sc52  1  0.09374275  0.30646471  0.30239238  1
  Sc  Sc53  1  0.90204713  0.49569031  0.69079739  1
  Sc  Sc54  1  0.10114264  0.49133114  0.49806674  1
  Sc  Sc55  1  0.30733018  0.11017428  0.10437883  1
  Sc  Sc56  1  0.31210394  0.50476164  0.69882627  1
  Sc  Sc57  1  0.09513494  0.49876887  0.68616689  1
  Sc  Sc58  1  0.89502775  0.71036382  0.90575357  1
  Sc  Sc59  1  0.89759230  0.49761200  0.10513156  1
  Sc  Sc60  1  0.70512036  0.69636075  0.50110163  1
  Sc  Sc61  1  0.69321364  0.08894421  0.89256867  1
  Sc  Sc62  1  0.49691088  0.09817234  0.89817718  1
  Sc  Sc63  1  0.50991267  0.09700852  0.50529337  1
  Sc  Sc64  1  0.10281146  0.29622344  0.10675408  1
  Sc  Sc65  1  0.28179417  0.10232720  0.49899217  1
  Sc  Sc66  1  0.70396321  0.09555587  0.50107961  1
  Sc  Sc67  1  0.50223729  0.50357049  0.89271227  1
  Sc  Sc68  1  0.09771100  0.51134297  0.10217618  1
  Sc  Sc69  1  0.30280329  0.69939510  0.10209703  1
  Sc  Sc70  1  0.50278933  0.90010088  0.10072686  1
  Sc  Sc71  1  0.09809220  0.11151173  0.90141959  1
  Sc  Sc72  1  0.49963728  0.90049488  0.91057786  1
  Sc  Sc73  1  0.70396611  0.69081702  0.69383070  1
  Sc  Sc74  1  0.31002933  0.70618048  0.89823538  1
  Sc  Sc75  1  0.29009175  0.29656531  0.29174546  1
  Sc  Sc76  1  0.89915092  0.10433828  0.29819614  1
  Sc  Sc77  1  0.50460713  0.68972569  0.49503091  1
  Sc  Sc78  1  0.30879352  0.49525239  0.49490891  1
  Sc  Sc79  1  0.71421933  0.50467934  0.30299943  1
  Sc  Sc80  1  0.10531975  0.70740101  0.10147366  1
  Sc  Sc81  1  0.90094855  0.90630050  0.29944868  1
  Sc  Sc82  1  0.90077666  0.10811676  0.89850200  1
  Sc  Sc83  1  0.71260487  0.30928676  0.09172762  1
  Sc  Sc84  1  0.29183941  0.50202358  0.30258730  1
  Sc  Sc85  1  0.30486718  0.89678927  0.50449413  1
  Sc  Sc86  1  0.09253191  0.10444708  0.10199695  1
  Sc  Sc87  1  0.69426424  0.48943179  0.90190965  1
  Sc  Sc88  1  0.29866784  0.10009692  0.29955204  1
  Sc  Sc89  1  0.29505059  0.30078059  0.70753662  1
  Sc  Sc90  1  0.90302794  0.49965515  0.50111049  1
  Sc  Sc91  1  0.50526467  0.50251633  0.70342905  1
  Sc  Sc92  1  0.88837216  0.29682836  0.90396162  1
  Sc  Sc93  1  0.50135985  0.90575219  0.49690013  1
  Sc  Sc94  1  0.10655212  0.29455412  0.50587983  1
  Sc  Sc95  1  0.89983004  0.69136955  0.09628377  1
  Sc  Sc96  1  0.69149506  0.89896557  0.09837176  1
  Sc  Sc97  1  0.90062826  0.30087914  0.10143107  1
  Sc  Sc98  1  0.89976887  0.29804574  0.49018370  1
  Sc  Sc99  1  0.69443948  0.50757254  0.50392290  1
  Nb  Nb100  1  0.89714800  0.90020858  0.90058806  1
  Nb  Nb101  1  0.69933741  0.49672630  0.70266815  1
  Nb  Nb102  1  0.29017030  0.30117785  0.89837615  1
  Nb  Nb103  1  0.09673502  0.30012384  0.70371823  1
  Nb  Nb104  1  0.50255035  0.69999477  0.88866802  1
  Nb  Nb105  1  0.09808788  0.70164194  0.50084237  1
  Nb  Nb106  1  0.30367757  0.29825910  0.50616039  1
  Nb  Nb107  1  0.50223661  0.69677190  0.29898120  1
  Nb  Nb108  1  0.50090600  0.69635947  0.70780778  1
  Nb  Nb109  1  0.09485631  0.50119035  0.29975505  1
  Nb  Nb110  1  0.10403957  0.89907698  0.70661375  1
  Nb  Nb111  1  0.11248936  0.30462545  0.89398571  1
  Nb  Nb112  1  0.69722542  0.09692416  0.69808651  1
  Nb  Nb113  1  0.69372616  0.30053663  0.70666518  1
  Nb  Nb114  1  0.50438906  0.29934287  0.69943513  1
  Nb  Nb115  1  0.09844098  0.09317318  0.50170645  1
  Nb  Nb116  1  0.69900459  0.30277668  0.90210717  1
  Nb  Nb117  1  0.10078356  0.69939235  0.30226990  1
  Nb  Nb118  1  0.28978459  0.90189642  0.70305816  1
  Nb  Nb119  1  0.69915521  0.30205460  0.30131163  1
  Nb  Nb120  1  0.90778028  0.49857396  0.89841011  1
  Nb  Nb121  1  0.89496962  0.69372672  0.30106931  1
  Nb  Nb122  1  0.70102564  0.89836360  0.29894800  1
  Nb  Nb123  1  0.09684001  0.90743818  0.49751622  1
  Nb  Nb124  1  0.29443889  0.69927349  0.50080615  1
  Nb  Nb125  1  0.40019849  0.20439596  0.59940705  1
  Nb  Nb126  1  0.19976800  0.00070264  0.00221962  1
  Nb  Nb127  1  0.59574118  0.79693161  0.79273340  1
  Nb  Nb128  1  0.40351807  0.40174024  0.19899471  1
  Nb  Nb129  1  0.79829515  0.79808135  0.20578323  1
  Nb  Nb130  1  0.60488330  0.20399458  -0.00026610  1
  Nb  Nb131  1  0.20358437  0.60885944  0.59754686  1
  Nb  Nb132  1  0.59762006  0.79800359  0.60593105  1
  Nb  Nb133  1  -0.00052167  0.59650810  0.80110306  1
  Nb  Nb134  1  0.00865101  0.80753593  0.59768433  1
  Nb  Nb135  1  0.19895389  -0.00520041  0.19583758  1
  Nb  Nb136  1  0.60612452  0.20632900  0.20026725  1
  Nb  Nb137  1  0.00420137  0.39614455  0.80232518  1
  Nb  Nb138  1  0.80484414  -0.00284871  -0.00221424  1
  Nb  Nb139  1  0.39885364  0.20376552  0.40887198  1
  Nb  Nb140  1  0.19343792  0.79483031  0.40515696  1
  Nb  Nb141  1  0.00597006  0.60484303  0.39466405  1
  Nb  Nb142  1  0.59548598  0.59928725  0.20363323  1
  Nb  Nb143  1  0.80539821  0.59140492  0.80102556  1
  Nb  Nb144  1  0.00518144  0.40094036  -0.00845668  1
  Nb  Nb145  1  0.19978898  0.60408643  0.79486478  1
  Nb  Nb146  1  0.79010872  0.39200280  0.60620243  1
  Nb  Nb147  1  -0.00174630  -0.00446824  0.79890969  1
  Nb  Nb148  1  0.19145256  -0.00565677  0.60538499  1
  Nb  Nb149  1  0.60082813  0.40283646  0.20494408  1
  Pd  Pd150  1  0.60411540  0.79174861  0.19992190  1
  Pd  Pd151  1  0.59646398  0.18620462  0.39353233  1
  Pd  Pd152  1  0.58908390  -0.01332634  0.79570748  1
  Pd  Pd153  1  0.39159880  -0.00898654  0.19122841  1
  Pd  Pd154  1  0.19749146  0.41212739  0.78381607  1
  Pd  Pd155  1  -0.00606388  0.00350285  0.39326721  1
  Pd  Pd156  1  0.60186720  0.20039685  0.59985504  1
  Pd  Pd157  1  0.79626388  0.20996084  0.19904546  1
  Pd  Pd158  1  0.60147274  0.00439890  0.39482237  1
  Pd  Pd159  1  -0.00219581  0.79719733  0.40396822  1
  Pd  Pd160  1  0.80352521  0.59062799  -0.00935883  1
  Pd  Pd161  1  0.78976694  0.20567027  0.59267908  1
  Pd  Pd162  1  -0.00751683  0.79678177  0.79700921  1
  Pd  Pd163  1  0.19821151  0.19540945  0.79364430  1
  Pd  Pd164  1  0.39986889  0.60551702  0.59725848  1
  Pd  Pd165  1  0.80583750  0.40369964  0.79740459  1
  Pd  Pd166  1  0.40563629  -0.00227678  0.80306238  1
  Pd  Pd167  1  0.19967607  0.40596968  0.19530726  1
  Pd  Pd168  1  0.38942417  0.01063487  0.59179608  1
  Pd  Pd169  1  0.60331622  0.20110019  0.80888231  1
  Pd  Pd170  1  -0.00963458  0.38618699  0.60024428  1
  Pd  Pd171  1  0.40923941  0.20767368  -0.01121186  1
  Pd  Pd172  1  0.79937716  0.19689172  0.40095514  1
  Pd  Pd173  1  0.21170610  0.60845590  -0.00543932  1
  Pd  Pd174  1  0.39954727  0.39483424  0.61178904  1
  Pd  Pd175  1  0.79744543  0.40698445  0.41021937  1
  Pd  Pd176  1  0.00057420  0.00559775  -0.01007030  1
  Pd  Pd177  1  0.18776087  0.01155852  0.80356817  1
  Pd  Pd178  1  0.19666657  0.80546061  0.59341594  1
  Pd  Pd179  1  0.41111766  0.79435618  0.59077856  1
  Pd  Pd180  1  0.19566604  0.59867458  0.40649832  1
  Pd  Pd181  1  0.20044649  0.60333225  0.19982828  1
  Pd  Pd182  1  0.40565504  0.59430294  0.19923667  1
  Pd  Pd183  1  0.19168805  0.39797552  0.01259771  1
  Pd  Pd184  1  0.39895578  0.60293573  -0.01080588  1
  Pd  Pd185  1  -0.00274479  0.20874026  0.59122498  1
  Pd  Pd186  1  0.00209417  0.60630090  0.20059636  1
  Pd  Pd187  1  0.00177192  0.20114709  0.20937526  1
  Pd  Pd188  1  0.39017177  -0.00102877  0.00481236  1
  Pd  Pd189  1  0.20757409  0.40612249  0.60418169  1
  Pd  Pd190  1  0.20116727  0.20954682  0.40082507  1
  Pd  Pd191  1  0.80626109  0.80486112  0.39608129  1
  Pd  Pd192  1  0.78669066  0.19220880  0.80514214  1
  Pd  Pd193  1  0.39414378  0.01272165  0.41082337  1
  Pd  Pd194  1  -0.01083494  0.78894433  0.19826770  1
  Pd  Pd195  1  0.40449657  0.39202594  -0.00296646  1
  Pd  Pd196  1  0.40459745  0.79361118  0.40887434  1
  Pd  Pd197  1  0.00374821  0.21512390  -0.00533907  1
  Pd  Pd198  1  0.40433794  0.79973034  0.19802357  1
  Pd  Pd199  1  0.19978738  0.39449267  0.40084780  1
  Rh  Rh200  1  0.79040252  0.60920015  0.20203759  1
  Rh  Rh201  1  0.59833636  0.60348900  0.60580963  1
  Rh  Rh202  1  0.38299686  0.38947210  0.38913827  1
  Rh  Rh203  1  0.39954473  0.20775927  0.79549157  1
  Rh  Rh204  1  0.00355671  0.40118943  0.19031531  1
  Rh  Rh205  1  0.40121848  0.39635254  0.79655555  1
  Rh  Rh206  1  0.00127950  0.20506822  0.80635384  1
  Rh  Rh207  1  0.20667610  0.79950044  0.21265560  1
  Rh  Rh208  1  0.19781200  0.19704823  0.00334466  1
  Rh  Rh209  1  0.20155723  0.79206296  0.80829800  1
  Rh  Rh210  1  0.59706012  0.39944690  0.79718522  1
  Rh  Rh211  1  0.79571532  -0.01326851  0.19250242  1
  Rh  Rh212  1  0.39752220  0.60290060  0.40708709  1
  Rh  Rh213  1  0.00911533  0.01093231  0.20877746  1
  Rh  Rh214  1  0.78855955  0.18872094  -0.00777220  1
  Rh  Rh215  1  0.40643331  0.21042163  0.21442997  1
  Rh  Rh216  1  0.19495551  0.18714715  0.20016302  1
  Rh  Rh217  1  0.79377362  0.00091023  0.59550284  1
  Rh  Rh218  1  0.81014069  0.40480417  -0.00297152  1
  Rh  Rh219  1  0.59671715  0.79933913  -0.01022751  1
  Rh  Rh220  1  0.20316565  0.19492300  0.60697919  1
  Rh  Rh221  1  0.79729566  0.58429187  0.60272898  1
  Rh  Rh222  1  0.20298834  0.79904255  -0.00808642  1
  Rh  Rh223  1  0.39418286  0.59770685  0.80230427  1
  Rh  Rh224  1  0.80331552  0.00097128  0.39947936  1
  Rh  Rh225  1  0.59758038  0.39286392  -0.00139520  1
  Rh  Rh226  1  0.79433765  0.80493642  0.59854551  1
  Rh  Rh227  1  0.80563641  0.81110984  0.01649709  1
  Rh  Rh228  1  0.60467208  0.40174965  0.60856829  1
  Rh  Rh229  1  0.60025223  0.00062526  0.20344441  1
  Rh  Rh230  1  0.40309251  0.79953029  -0.00397754  1
  Rh  Rh231  1  0.79260189  0.78455472  0.79510663  1
  Rh  Rh232  1  0.00493012  -0.00819420  0.61068244  1
  Rh  Rh233  1  0.00431328  0.20006753  0.40214767  1
  Rh  Rh234  1  -0.00727167  0.79587844  0.00737054  1
  Rh  Rh235  1  0.59730817  0.59941554  -0.00293306  1
  Rh  Rh236  1  0.00377793  0.40572643  0.40100803  1
  Rh  Rh237  1  0.81010254  0.59472607  0.40496781  1
  Rh  Rh238  1  0.00756153  0.60582691  0.59586357  1
  Rh  Rh239  1  0.80890718  0.00898986  0.80761381  1
  Rh  Rh240  1  -0.00307624  0.59714593  -0.00092804  1
  Rh  Rh241  1  0.60490568  -0.00826382  0.60441999  1
  Rh  Rh242  1  0.40895481  0.81201427  0.80111546  1
  Rh  Rh243  1  0.60128069  0.59775412  0.39631763  1
  Rh  Rh244  1  0.59405601  0.79789773  0.40938231  1
  Rh  Rh245  1  0.79704288  0.39816773  0.20129297  1
  Rh  Rh246  1  0.20308406  -0.01112320  0.40053072  1
  Rh  Rh247  1  0.61135714  0.41589490  0.39374184  1
  Rh  Rh248  1  0.61078145  0.60108771  0.79912110  1
  Rh  Rh249  1  0.60572184  0.00284490  -0.00122263  1
