# generated using pymatgen
data_ZrScNbPdRh
_symmetry_space_group_name_H-M   'P 1'
_cell_length_a   16.55641917
_cell_length_b   16.55624063
_cell_length_c   16.55731131
_cell_angle_alpha   89.97200797
_cell_angle_beta   89.97201901
_cell_angle_gamma   90.00307279
_symmetry_Int_Tables_number   1
_chemical_formula_structural   ZrScNbPdRh
_chemical_formula_sum   'Zr50 Sc50 Nb50 Pd50 Rh50'
_cell_volume   4538.55761745
_cell_formula_units_Z   50
loop_
 _symmetry_equiv_pos_site_id
 _symmetry_equiv_pos_as_xyz
  1  'x, y, z'
loop_
 _atom_site_type_symbol
 _atom_site_label
 _atom_site_symmetry_multiplicity
 _atom_site_fract_x
 _atom_site_fract_y
 _atom_site_fract_z
 _atom_site_occupancy
  Zr  Zr0  1  0.70054394  0.50226628  0.10318910  1
  Zr  Zr1  1  0.10436687  0.69846592  0.30595049  1
  Zr  Zr2  1  0.70070513  0.71095376  0.10244775  1
  Zr  Zr3  1  0.31132755  0.08892305  0.68661082  1
  Zr  Zr4  1  0.69923676  0.10811496  0.49813038  1
  Zr  Zr5  1  0.30394030  0.09528045  0.30034300  1
  Zr  Zr6  1  0.89245205  0.10172945  0.49634085  1
  Zr  Zr7  1  0.89653449  0.50219222  0.89878994  1
  Zr  Zr8  1  0.89987510  0.29899044  0.29786761  1
  Zr  Zr9  1  0.68367662  0.10569443  0.70571067  1
  Zr  Zr10  1  0.69212926  0.30668137  0.09301396  1
  Zr  Zr11  1  0.49805580  0.30692348  0.09922915  1
  Zr  Zr12  1  0.90936863  0.70065101  0.89878054  1
  Zr  Zr13  1  0.29939146  0.49937461  0.69423043  1
  Zr  Zr14  1  0.90749192  0.10707856  0.10386702  1
  Zr  Zr15  1  0.09738964  0.50055541  0.09965444  1
  Zr  Zr16  1  0.31567745  0.30573019  0.49925579  1
  Zr  Zr17  1  0.10466437  0.70155371  0.89761665  1
  Zr  Zr18  1  0.10765017  0.30892169  0.29930781  1
  Zr  Zr19  1  0.10371091  0.29947460  0.89092431  1
  Zr  Zr20  1  0.49977905  0.09525907  0.30690387  1
  Zr  Zr21  1  0.10302825  0.50644579  0.49134595  1
  Zr  Zr22  1  0.09934316  0.10143968  0.89861332  1
  Zr  Zr23  1  0.89266473  0.50429890  0.30316661  1
  Zr  Zr24  1  0.09539804  0.89117731  0.89487133  1
  Zr  Zr25  1  0.49440764  0.89124335  0.87925831  1
  Zr  Zr26  1  0.69827424  0.29415931  0.89526469  1
  Zr  Zr27  1  0.89403989  0.30674434  0.89594844  1
  Zr  Zr28  1  0.09891479  0.89581865  0.49523662  1
  Zr  Zr29  1  0.29035299  0.48961931  0.30762919  1
  Zr  Zr30  1  0.09717250  0.10101040  0.70576690  1
  Zr  Zr31  1  0.12028248  0.89723110  0.10209712  1
  Zr  Zr32  1  0.09766857  0.70159426  0.09659488  1
  Zr  Zr33  1  0.68820248  0.89846624  0.70331805  1
  Zr  Zr34  1  0.30458656  0.50748796  0.89669851  1
  Zr  Zr35  1  0.30620548  0.29871175  0.10205930  1
  Zr  Zr36  1  0.69887921  0.50339259  0.70045296  1
  Zr  Zr37  1  0.70086160  0.50047538  0.49957304  1
  Zr  Zr38  1  0.50778174  0.50219592  0.70051735  1
  Zr  Zr39  1  0.10461011  0.89819099  0.30520058  1
  Zr  Zr40  1  0.10701489  0.89572516  0.69555565  1
  Zr  Zr41  1  0.30235665  0.30302297  0.89942331  1
  Zr  Zr42  1  0.49755786  0.10512431  0.50581447  1
  Zr  Zr43  1  0.69599007  0.30819179  0.69885223  1
  Zr  Zr44  1  0.30317855  0.30002167  0.30215306  1
  Zr  Zr45  1  0.49792354  0.50225142  0.90486433  1
  Zr  Zr46  1  0.89055983  0.70147067  0.29447191  1
  Zr  Zr47  1  0.89759649  0.50708719  0.09444564  1
  Zr  Zr48  1  0.50251393  0.90262223  0.30343771  1
  Zr  Zr49  1  0.89853610  0.90494654  0.30808236  1
  Sc  Sc50  1  0.30386971  0.69989738  0.30002514  1
  Sc  Sc51  1  0.70139337  0.29896900  0.29604944  1
  Sc  Sc52  1  0.90525339  0.90038990  0.71174206  1
  Sc  Sc53  1  0.31302041  0.49167368  0.10282255  1
  Sc  Sc54  1  0.69830453  0.90434478  0.29458291  1
  Sc  Sc55  1  0.30451336  0.71580563  0.10249132  1
  Sc  Sc56  1  0.28952852  0.90671919  0.51364322  1
  Sc  Sc57  1  0.30106824  0.90020385  0.28793204  1
  Sc  Sc58  1  0.89613232  0.69196978  0.69804597  1
  Sc  Sc59  1  0.70776666  0.09506551  0.09527566  1
  Sc  Sc60  1  0.50728181  0.29761092  0.90919572  1
  Sc  Sc61  1  0.69719150  0.10134846  0.30112151  1
  Sc  Sc62  1  0.70247869  0.69234418  0.50521495  1
  Sc  Sc63  1  0.50094086  0.51740523  0.30257574  1
  Sc  Sc64  1  0.50816174  0.68699195  0.49337405  1
  Sc  Sc65  1  0.10102596  0.50238493  0.69655424  1
  Sc  Sc66  1  0.89516296  0.30122944  0.09502458  1
  Sc  Sc67  1  0.48979687  0.69519657  0.90386480  1
  Sc  Sc68  1  0.29875832  0.30465990  0.69674421  1
  Sc  Sc69  1  0.09419256  0.30800967  0.50398351  1
  Sc  Sc70  1  0.50541328  0.29904716  0.68769815  1
  Sc  Sc71  1  0.30544310  0.10118805  0.49305004  1
  Sc  Sc72  1  0.10377693  0.10110685  0.30192078  1
  Sc  Sc73  1  0.68808421  0.70553337  0.90665385  1
  Sc  Sc74  1  0.09772451  0.69396429  0.69924096  1
  Sc  Sc75  1  0.89888398  0.90016523  0.90466146  1
  Sc  Sc76  1  0.89785191  0.10192009  0.90008745  1
  Sc  Sc77  1  0.89664895  0.69095478  0.50511007  1
  Sc  Sc78  1  0.49439634  0.49827263  0.50444680  1
  Sc  Sc79  1  0.09907980  0.30179641  0.70296168  1
  Sc  Sc80  1  0.50403379  0.28885675  0.29656274  1
  Sc  Sc81  1  0.50193224  0.50261131  0.09874283  1
  Sc  Sc82  1  0.49508913  0.10196882  0.10413054  1
  Sc  Sc83  1  0.89736704  0.49718151  0.49899048  1
  Sc  Sc84  1  0.29623607  0.69140995  0.50461092  1
  Sc  Sc85  1  0.69867851  0.49082269  0.89675611  1
  Sc  Sc86  1  0.09437917  0.50173124  0.89039861  1
  Sc  Sc87  1  0.88084423  0.89757286  0.09903888  1
  Sc  Sc88  1  0.89904285  0.50496499  0.70207335  1
  Sc  Sc89  1  0.29668842  0.10478269  0.90548467  1
  Sc  Sc90  1  0.29232557  0.69489053  0.70001429  1
  Sc  Sc91  1  0.89282697  0.69679158  0.09789321  1
  Sc  Sc92  1  0.49966543  0.89172821  0.11052476  1
  Sc  Sc93  1  0.69522203  0.69439890  0.30317389  1
  Sc  Sc94  1  0.90600205  0.10365328  0.70646372  1
  Sc  Sc95  1  0.11059190  0.09246039  0.49380521  1
  Sc  Sc96  1  0.10541238  0.69921979  0.50252528  1
  Sc  Sc97  1  0.89059126  0.10274143  0.29885055  1
  Sc  Sc98  1  0.09017596  0.29379471  0.10007710  1
  Sc  Sc99  1  0.90286679  0.29906830  0.69223455  1
  Nb  Nb100  1  0.50837231  0.70707200  0.70471976  1
  Nb  Nb101  1  0.31030382  0.90006747  0.70356476  1
  Nb  Nb102  1  0.30118613  0.69954635  0.90285294  1
  Nb  Nb103  1  0.69717827  0.69991636  0.69666247  1
  Nb  Nb104  1  0.30249260  0.49797608  0.50294439  1
  Nb  Nb105  1  0.50786191  0.29931082  0.49860715  1
  Nb  Nb106  1  0.30320124  0.90865764  0.09789749  1
  Nb  Nb107  1  0.10368579  0.09764293  0.09936652  1
  Nb  Nb108  1  0.49654713  0.09166918  0.70540487  1
  Nb  Nb109  1  0.30301344  0.88825048  0.89866486  1
  Nb  Nb110  1  0.49184249  0.90418066  0.69835545  1
  Nb  Nb111  1  0.70529120  0.49725476  0.30606125  1
  Nb  Nb112  1  0.49889255  0.69620656  0.11470150  1
  Nb  Nb113  1  0.50402265  0.09570666  0.89168561  1
  Nb  Nb114  1  0.50636966  0.89708709  0.49926159  1
  Nb  Nb115  1  0.49774582  0.70816541  0.29662854  1
  Nb  Nb116  1  0.89033701  0.29468941  0.49669564  1
  Nb  Nb117  1  0.29426542  0.08905217  0.10034756  1
  Nb  Nb118  1  0.70109941  0.89771322  0.08382416  1
  Nb  Nb119  1  0.89722582  0.90359086  0.50097573  1
  Nb  Nb120  1  0.70320834  0.89971177  0.50292051  1
  Nb  Nb121  1  0.69098756  0.09820788  0.89733121  1
  Nb  Nb122  1  0.69956421  0.29942804  0.50273803  1
  Nb  Nb123  1  0.70048975  0.89894005  0.90677335  1
  Nb  Nb124  1  0.10114649  0.49932921  0.29966114  1
  Nb  Nb125  1  0.20591027  0.59975355  0.00302326  1
  Nb  Nb126  1  0.19992271  0.40275257  -0.00137778  1
  Nb  Nb127  1  -0.00417372  0.20484502  0.40225276  1
  Nb  Nb128  1  0.79932666  -0.00278575  0.60453542  1
  Nb  Nb129  1  0.20876633  -0.00873948  0.80017963  1
  Nb  Nb130  1  -0.00438633  0.80563896  0.59618104  1
  Nb  Nb131  1  0.19919996  0.59467882  0.19879052  1
  Nb  Nb132  1  -0.00051431  0.80587674  0.20284314  1
  Nb  Nb133  1  0.79811387  0.80560663  0.40838786  1
  Nb  Nb134  1  0.40552607  0.39869170  0.79844364  1
  Nb  Nb135  1  0.40814389  0.80106929  0.40644559  1
  Nb  Nb136  1  0.40799010  0.80243820  0.60090380  1
  Nb  Nb137  1  0.78751085  -0.00129345  0.80190942  1
  Nb  Nb138  1  0.39947009  -0.00629589  -0.00359275  1
  Nb  Nb139  1  0.59646273  0.80151939  0.60024716  1
  Nb  Nb140  1  0.20434789  0.19540505  0.19444379  1
  Nb  Nb141  1  -0.00102170  0.40768488  0.20508091  1
  Nb  Nb142  1  0.79177712  0.80085222  0.80067126  1
  Nb  Nb143  1  0.20359930  0.19899217  0.59793023  1
  Nb  Nb144  1  -0.00374309  -0.00364924  0.59542259  1
  Nb  Nb145  1  0.40717952  0.19732002  0.79634481  1
  Nb  Nb146  1  0.60425939  0.39919904  0.40269745  1
  Nb  Nb147  1  0.00582021  0.00011056  0.00936439  1
  Nb  Nb148  1  0.59612395  -0.00570541  -0.00707315  1
  Nb  Nb149  1  0.00347654  -0.00312543  0.19478686  1
  Pd  Pd150  1  0.60548267  0.19279346  0.19305496  1
  Pd  Pd151  1  0.20145865  -0.00655741  -0.01346269  1
  Pd  Pd152  1  0.80072072  0.80290831  0.60437450  1
  Pd  Pd153  1  -0.00150338  0.19931084  -0.00761168  1
  Pd  Pd154  1  0.60564682  0.79382625  0.40524985  1
  Pd  Pd155  1  0.41697687  0.40165437  0.39299214  1
  Pd  Pd156  1  0.59719740  0.18985944  0.00698195  1
  Pd  Pd157  1  0.19751267  0.39630474  0.59581758  1
  Pd  Pd158  1  0.40535100  0.60922603  0.60415763  1
  Pd  Pd159  1  0.00943890  0.19184217  0.58941001  1
  Pd  Pd160  1  0.60621194  0.00208255  0.40486891  1
  Pd  Pd161  1  0.80011680  0.00058022  0.19816392  1
  Pd  Pd162  1  0.60708107  0.80320454  0.20337778  1
  Pd  Pd163  1  0.60491428  0.60059573  0.20233251  1
  Pd  Pd164  1  0.00195202  0.60324886  0.20359982  1
  Pd  Pd165  1  0.39639979  0.19344056  0.20077579  1
  Pd  Pd166  1  0.39025857  0.59931327  0.19997214  1
  Pd  Pd167  1  0.20634475  0.79815102  0.79355334  1
  Pd  Pd168  1  -0.00359955  0.40620287  0.59964943  1
  Pd  Pd169  1  0.19862423  0.20798199  0.00759062  1
  Pd  Pd170  1  0.58268820  0.80285107  0.00001588  1
  Pd  Pd171  1  0.41467130  0.40640232  0.21353167  1
  Pd  Pd172  1  0.60184896  0.00132170  0.18841732  1
  Pd  Pd173  1  -0.00472300  0.40049945  0.79115675  1
  Pd  Pd174  1  0.80544953  0.40371321  0.60231499  1
  Pd  Pd175  1  -0.00088392  0.01202784  0.39807170  1
  Pd  Pd176  1  0.60374941  0.60476345  0.80682948  1
  Pd  Pd177  1  0.40686171  0.80201803  0.00423164  1
  Pd  Pd178  1  0.21908455  0.80214233  0.40308414  1
  Pd  Pd179  1  -0.01110048  0.78817733  0.40418836  1
  Pd  Pd180  1  0.40175642  0.60212888  0.78964937  1
  Pd  Pd181  1  -0.00802953  0.81051709  0.01346608  1
  Pd  Pd182  1  0.80515369  0.39966808  0.19574378  1
  Pd  Pd183  1  0.19642678  0.20849129  0.40505413  1
  Pd  Pd184  1  0.39338186  -0.01246201  0.40806489  1
  Pd  Pd185  1  0.21538540  0.19090535  0.78680431  1
  Pd  Pd186  1  0.60018853  0.00012694  0.59605529  1
  Pd  Pd187  1  0.59430031  0.40699442  0.21289760  1
  Pd  Pd188  1  0.78999850  0.60522332  -0.00817995  1
  Pd  Pd189  1  -0.00492660  0.60511360  0.40128553  1
  Pd  Pd190  1  0.79084806  0.60933049  0.80682434  1
  Pd  Pd191  1  0.79737028  0.19358176  0.61185933  1
  Pd  Pd192  1  0.40436662  0.19117171  -0.00394885  1
  Pd  Pd193  1  0.00368635  0.39918655  0.00164114  1
  Pd  Pd194  1  -0.00501145  0.39706434  0.39897807  1
  Pd  Pd195  1  0.59988711  0.60130438  0.00428254  1
  Pd  Pd196  1  0.79081705  0.20259158  0.19465257  1
  Pd  Pd197  1  0.39430017  0.60418482  0.40076974  1
  Pd  Pd198  1  0.80110276  0.19651988  0.79387332  1
  Pd  Pd199  1  0.79758532  0.19755566  -0.00111827  1
  Rh  Rh200  1  0.79235026  0.39314153  0.40327139  1
  Rh  Rh201  1  0.80138158  0.39894565  0.79297218  1
  Rh  Rh202  1  0.79613589  0.80379862  0.20639825  1
  Rh  Rh203  1  0.19178432  0.39694091  0.18584834  1
  Rh  Rh204  1  0.80426941  0.79052353  -0.00936938  1
  Rh  Rh205  1  0.79884582  0.60875147  0.40139826  1
  Rh  Rh206  1  0.40648582  0.40093972  0.60516029  1
  Rh  Rh207  1  0.80077311  0.00783971  -0.00820805  1
  Rh  Rh208  1  0.19621207  0.00692809  0.20639126  1
  Rh  Rh209  1  0.79105348  0.60036276  0.19907648  1
  Rh  Rh210  1  -0.00877057  0.78984651  0.78729860  1
  Rh  Rh211  1  0.40709013  0.20146850  0.39866948  1
  Rh  Rh212  1  0.58946246  0.20907442  0.79673151  1
  Rh  Rh213  1  0.39196416  0.78495507  0.79067129  1
  Rh  Rh214  1  0.60405729  0.59256387  0.39824890  1
  Rh  Rh215  1  0.78929121  -0.00281479  0.40356685  1
  Rh  Rh216  1  0.60140208  -0.00610373  0.80611333  1
  Rh  Rh217  1  0.79471047  0.40212953  -0.00009251  1
  Rh  Rh218  1  0.20634727  0.40743806  0.80373083  1
  Rh  Rh219  1  0.20184730  0.79527694  0.60227857  1
  Rh  Rh220  1  0.59976840  0.40292214  0.59032685  1
  Rh  Rh221  1  0.01187315  0.20020276  0.21288679  1
  Rh  Rh222  1  0.39947906  0.40083879  -0.00704239  1
  Rh  Rh223  1  0.19922409  0.59923707  0.80550554  1
  Rh  Rh224  1  0.19727309  0.59441033  0.59625397  1
  Rh  Rh225  1  0.19133627  0.00849182  0.60871439  1
  Rh  Rh226  1  0.60174910  0.20668283  0.40062530  1
  Rh  Rh227  1  0.38938301  0.00947743  0.81171878  1
  Rh  Rh228  1  0.00174836  0.60331504  0.59763533  1
  Rh  Rh229  1  0.59193457  0.39586163  0.80367434  1
  Rh  Rh230  1  0.20160225  0.39772700  0.41399625  1
  Rh  Rh231  1  -0.00792842  0.20995341  0.80469536  1
  Rh  Rh232  1  0.79831212  0.20624607  0.39415860  1
  Rh  Rh233  1  0.39990805  0.80347378  0.20654007  1
  Rh  Rh234  1  0.00333843  -0.00025265  0.80734962  1
  Rh  Rh235  1  0.60078147  0.40585730  -0.00243811  1
  Rh  Rh236  1  0.20932764  -0.00688042  0.39374428  1
  Rh  Rh237  1  0.19917921  0.79078214  0.20364677  1
  Rh  Rh238  1  0.59713355  0.19771181  0.60172001  1
  Rh  Rh239  1  0.00605947  0.59978007  -0.00810437  1
  Rh  Rh240  1  0.40807553  -0.00800692  0.58846022  1
  Rh  Rh241  1  0.40604499  0.00012078  0.19426053  1
  Rh  Rh242  1  0.79813152  0.59276555  0.60180784  1
  Rh  Rh243  1  0.60295011  0.79516281  0.79938171  1
  Rh  Rh244  1  0.39973236  0.20359360  0.60325736  1
  Rh  Rh245  1  0.59835527  0.60398022  0.60068520  1
  Rh  Rh246  1  0.20702285  0.59803338  0.39736981  1
  Rh  Rh247  1  0.00163559  0.59970995  0.79760395  1
  Rh  Rh248  1  0.39676137  0.61025017  0.01383631  1
  Rh  Rh249  1  0.20788807  0.79544739  -0.00258494  1
