# generated using pymatgen
data_ZrScNbPdRh
_symmetry_space_group_name_H-M   'P 1'
_cell_length_a   16.55756663
_cell_length_b   16.55552782
_cell_length_c   16.55550858
_cell_angle_alpha   90.02123945
_cell_angle_beta   90.00132669
_cell_angle_gamma   89.99721407
_symmetry_Int_Tables_number   1
_chemical_formula_structural   ZrScNbPdRh
_chemical_formula_sum   'Zr50 Sc50 Nb50 Pd50 Rh50'
_cell_volume   4538.18336060
_cell_formula_units_Z   50
loop_
 _symmetry_equiv_pos_site_id
 _symmetry_equiv_pos_as_xyz
  1  'x, y, z'
loop_
 _atom_site_type_symbol
 _atom_site_label
 _atom_site_symmetry_multiplicity
 _atom_site_fract_x
 _atom_site_fract_y
 _atom_site_fract_z
 _atom_site_occupancy
  Zr  Zr0  1  0.49470523  0.49435652  0.29370330  1
  Zr  Zr1  1  0.30035639  0.71291420  0.30114019  1
  Zr  Zr2  1  0.69574796  0.49948302  0.10567664  1
  Zr  Zr3  1  0.50380183  0.10631722  0.90092073  1
  Zr  Zr4  1  0.09370453  0.10083083  0.70530969  1
  Zr  Zr5  1  0.09650996  0.69725068  0.10731860  1
  Zr  Zr6  1  0.49914622  0.29630288  0.50286155  1
  Zr  Zr7  1  0.70475950  0.30353380  0.49682387  1
  Zr  Zr8  1  0.69551403  0.30285058  0.29583199  1
  Zr  Zr9  1  0.29049052  0.10893782  0.70149426  1
  Zr  Zr10  1  0.50450124  0.30643895  0.10041494  1
  Zr  Zr11  1  0.69440786  0.10125056  0.28784821  1
  Zr  Zr12  1  0.50621085  0.90598067  0.50118897  1
  Zr  Zr13  1  0.30442170  0.11177337  0.90621896  1
  Zr  Zr14  1  0.50764706  0.08908904  0.09816974  1
  Zr  Zr15  1  0.49966536  0.50090895  0.49744733  1
  Zr  Zr16  1  0.09764353  0.89217506  0.29478079  1
  Zr  Zr17  1  0.30711679  0.69765483  0.69842672  1
  Zr  Zr18  1  0.70224942  0.10134646  0.90199910  1
  Zr  Zr19  1  0.49827490  0.49573319  0.90479675  1
  Zr  Zr20  1  0.50187203  0.90468086  0.90057120  1
  Zr  Zr21  1  0.09508541  0.90201105  0.10832364  1
  Zr  Zr22  1  0.30758033  0.89308459  0.49471941  1
  Zr  Zr23  1  0.50436776  0.69329284  0.50463745  1
  Zr  Zr24  1  0.30249739  0.30092808  0.29166050  1
  Zr  Zr25  1  0.29855759  0.49256995  0.30095131  1
  Zr  Zr26  1  0.70528455  0.91166015  0.10851451  1
  Zr  Zr27  1  0.30188977  0.89770620  0.90558931  1
  Zr  Zr28  1  0.89805311  0.89425423  0.49091011  1
  Zr  Zr29  1  0.30393775  0.49587564  0.49739648  1
  Zr  Zr30  1  0.69339834  0.29811201  0.90110223  1
  Zr  Zr31  1  0.10166712  0.68734507  0.70439892  1
  Zr  Zr32  1  0.49946654  0.69571244  0.11005796  1
  Zr  Zr33  1  0.88747169  0.09653411  0.10150403  1
  Zr  Zr34  1  0.10523258  0.49397524  0.50238160  1
  Zr  Zr35  1  0.69655174  0.09633450  0.70399946  1
  Zr  Zr36  1  0.89724786  0.29845430  0.49611175  1
  Zr  Zr37  1  0.10080629  0.49339012  0.69977948  1
  Zr  Zr38  1  0.29997370  0.69441889  0.89626629  1
  Zr  Zr39  1  0.10710009  0.29720344  0.69919581  1
  Zr  Zr40  1  0.30410003  0.10090595  0.29763273  1
  Zr  Zr41  1  0.89675180  0.30498647  0.89809878  1
  Zr  Zr42  1  0.30590819  0.29374402  0.70504520  1
  Zr  Zr43  1  0.89751190  0.69326790  0.09921108  1
  Zr  Zr44  1  0.89665557  0.49941535  0.29629295  1
  Zr  Zr45  1  0.89820269  0.10215562  0.50178941  1
  Zr  Zr46  1  0.09943351  0.89525748  0.90456420  1
  Zr  Zr47  1  0.89141684  0.30640717  0.30790743  1
  Zr  Zr48  1  0.90950687  0.49739766  0.70021100  1
  Zr  Zr49  1  0.49951532  0.50376940  0.68934814  1
  Sc  Sc50  1  0.50244987  0.10838644  0.30122385  1
  Sc  Sc51  1  0.09901416  0.49775221  0.29613157  1
  Sc  Sc52  1  0.70044227  0.50064054  0.68937973  1
  Sc  Sc53  1  0.89845563  0.50184156  0.49864092  1
  Sc  Sc54  1  0.30427738  0.11198443  0.10078400  1
  Sc  Sc55  1  0.88834784  0.89797467  0.89460853  1
  Sc  Sc56  1  0.89864164  0.69885986  0.49712551  1
  Sc  Sc57  1  0.08675419  0.70709489  0.50163911  1
  Sc  Sc58  1  0.70921902  0.90267550  0.31260043  1
  Sc  Sc59  1  0.09088282  0.90217555  0.69269237  1
  Sc  Sc60  1  0.09944558  0.30484682  0.30164883  1
  Sc  Sc61  1  0.70974433  0.69693902  0.10540510  1
  Sc  Sc62  1  0.09520122  0.89687401  0.50533121  1
  Sc  Sc63  1  0.69338240  0.09817499  0.49348805  1
  Sc  Sc64  1  0.70191432  0.70978931  0.69090523  1
  Sc  Sc65  1  0.89008321  0.10102381  0.30410629  1
  Sc  Sc66  1  0.30382880  0.49455044  0.90406962  1
  Sc  Sc67  1  0.70441542  0.50077729  0.29661569  1
  Sc  Sc68  1  0.29625528  0.30102327  0.50305814  1
  Sc  Sc69  1  0.10179116  0.09639482  0.28671884  1
  Sc  Sc70  1  0.30701805  0.09802938  0.50780737  1
  Sc  Sc71  1  0.90222980  0.09961986  0.89718890  1
  Sc  Sc72  1  0.49681287  0.69245949  0.29879893  1
  Sc  Sc73  1  0.30209458  0.89752538  0.68907514  1
  Sc  Sc74  1  0.71232148  0.71266248  0.89861419  1
  Sc  Sc75  1  0.89798965  0.30645116  0.09155389  1
  Sc  Sc76  1  0.90445184  0.69507555  0.69151818  1
  Sc  Sc77  1  0.09008784  0.49738533  0.10356086  1
  Sc  Sc78  1  0.09417762  0.29288506  0.90804071  1
  Sc  Sc79  1  0.49072839  0.90944545  0.29846600  1
  Sc  Sc80  1  0.89862336  0.89790008  0.70104549  1
  Sc  Sc81  1  0.70087824  0.29941454  0.09882364  1
  Sc  Sc82  1  0.50038294  0.09961165  0.49626387  1
  Sc  Sc83  1  0.30351758  0.69709898  0.10916363  1
  Sc  Sc84  1  0.90047321  0.70106167  0.30230867  1
  Sc  Sc85  1  0.30230609  0.49956773  0.70285853  1
  Sc  Sc86  1  0.10158068  0.30309429  0.50200761  1
  Sc  Sc87  1  0.10404563  0.10856634  0.10097465  1
  Sc  Sc88  1  0.70158158  0.29790239  0.69063061  1
  Sc  Sc89  1  0.09515345  0.50040820  0.89718329  1
  Sc  Sc90  1  0.10239023  0.30261866  0.09926294  1
  Sc  Sc91  1  0.50301499  0.10532665  0.69561537  1
  Sc  Sc92  1  0.51038287  0.89985042  0.70199536  1
  Sc  Sc93  1  0.49617032  0.50215490  0.10547370  1
  Sc  Sc94  1  0.70272851  0.90491287  0.88215438  1
  Sc  Sc95  1  0.31034992  0.90186516  0.10811991  1
  Sc  Sc96  1  0.90311468  0.30299864  0.69334914  1
  Sc  Sc97  1  0.90596179  0.49573225  0.90670134  1
  Sc  Sc98  1  0.70272729  0.49227155  0.90058981  1
  Sc  Sc99  1  0.09773588  0.09967417  0.51037633  1
  Nb  Nb100  1  0.50021804  0.70042712  0.89908091  1
  Nb  Nb101  1  0.49989294  0.29968271  0.70648739  1
  Nb  Nb102  1  0.30766688  0.29644143  0.90135759  1
  Nb  Nb103  1  0.90426743  0.89842438  0.11066031  1
  Nb  Nb104  1  0.50087384  0.69397139  0.70731252  1
  Nb  Nb105  1  0.30150577  0.70241458  0.50075792  1
  Nb  Nb106  1  0.90065978  0.69979329  0.90335764  1
  Nb  Nb107  1  0.29437304  0.49140243  0.10415989  1
  Nb  Nb108  1  0.10090339  0.09624289  0.90113051  1
  Nb  Nb109  1  0.50208134  0.30249307  0.30088465  1
  Nb  Nb110  1  0.89765513  0.50694633  0.10377920  1
  Nb  Nb111  1  0.29875962  0.90338424  0.30732590  1
  Nb  Nb112  1  0.69606920  0.70194190  0.30269883  1
  Nb  Nb113  1  0.10065775  0.70021840  0.29905783  1
  Nb  Nb114  1  0.10194052  0.69633307  0.90654739  1
  Nb  Nb115  1  0.70068079  0.89321208  0.50418928  1
  Nb  Nb116  1  0.69799315  0.70753369  0.48746181  1
  Nb  Nb117  1  0.89912927  0.09810092  0.69491982  1
  Nb  Nb118  1  0.29332111  0.30058268  0.09227845  1
  Nb  Nb119  1  0.50454899  0.89757045  0.09869947  1
  Nb  Nb120  1  0.90482137  0.90409092  0.29532477  1
  Nb  Nb121  1  0.49394038  0.30038806  0.89395624  1
  Nb  Nb122  1  0.70220663  0.90534968  0.69576353  1
  Nb  Nb123  1  0.70006886  0.10204926  0.10124457  1
  Nb  Nb124  1  0.69173905  0.51008022  0.49937958  1
  Nb  Nb125  1  0.20059350  0.61026483  0.40144975  1
  Nb  Nb126  1  0.59901066  0.60831805  -0.00589659  1
  Nb  Nb127  1  0.20131068  0.19265962  0.39640739  1
  Nb  Nb128  1  0.19576236  0.79815313  0.80071819  1
  Nb  Nb129  1  0.79457922  -0.00460968  0.59765717  1
  Nb  Nb130  1  0.60191691  0.60227718  0.80204882  1
  Nb  Nb131  1  -0.00817621  0.20345627  0.20188381  1
  Nb  Nb132  1  0.40992027  0.79589600  0.00021584  1
  Nb  Nb133  1  0.80127542  0.19903516  0.79618315  1
  Nb  Nb134  1  0.59250537  0.39996086  0.79618487  1
  Nb  Nb135  1  0.20016409  -0.00165488  0.80501684  1
  Nb  Nb136  1  0.60125605  0.80379440  0.20027963  1
  Nb  Nb137  1  0.19945283  0.59832798  0.00409657  1
  Nb  Nb138  1  0.59795035  0.40172162  0.40123988  1
  Nb  Nb139  1  0.20513659  0.60343764  0.59173173  1
  Nb  Nb140  1  0.39435631  0.00430705  0.80190474  1
  Nb  Nb141  1  0.20545801  0.38977455  0.80573618  1
  Nb  Nb142  1  0.00275872  0.79057948  0.80824596  1
  Nb  Nb143  1  -0.00557424  0.79899766  0.00202697  1
  Nb  Nb144  1  0.19999363  -0.00284402  0.39742542  1
  Nb  Nb145  1  0.59982334  0.79970541  0.00462669  1
  Nb  Nb146  1  0.19786927  0.00167875  -0.00132278  1
  Nb  Nb147  1  0.80127151  0.60022477  0.79983640  1
  Nb  Nb148  1  0.00223214  -0.00194863  0.39472741  1
  Nb  Nb149  1  0.00020601  -0.00492632  0.00439207  1
  Pd  Pd150  1  0.60544628  0.79511137  0.80195279  1
  Pd  Pd151  1  0.19954340  -0.00193001  0.59822912  1
  Pd  Pd152  1  0.59590037  0.79727556  0.60183456  1
  Pd  Pd153  1  0.20576413  0.79621827  0.00734411  1
  Pd  Pd154  1  0.78929029  0.19384513  0.39819446  1
  Pd  Pd155  1  0.40339602  0.59098632  0.80109219  1
  Pd  Pd156  1  0.39336169  0.60349093  0.39603970  1
  Pd  Pd157  1  0.80357584  0.20949723  0.19710896  1
  Pd  Pd158  1  0.39667399  0.39492841  0.60192647  1
  Pd  Pd159  1  0.59979496  0.39716046  0.59837358  1
  Pd  Pd160  1  0.79284744  0.59391418  -0.00826696  1
  Pd  Pd161  1  0.39318033  0.20296955  0.40318192  1
  Pd  Pd162  1  0.60034062  0.59382643  0.38980475  1
  Pd  Pd163  1  0.79900083  0.81048013  0.00428844  1
  Pd  Pd164  1  0.40523131  0.00201968  0.60825051  1
  Pd  Pd165  1  0.20639567  0.80443100  0.19434516  1
  Pd  Pd166  1  -0.00800699  0.60088217  0.80693575  1
  Pd  Pd167  1  0.80575195  0.80108820  0.59886604  1
  Pd  Pd168  1  0.19310885  0.40494879  -0.00695937  1
  Pd  Pd169  1  0.60209383  0.19826093  0.59714489  1
  Pd  Pd170  1  0.01135456  0.19064521  0.39116838  1
  Pd  Pd171  1  0.79733472  0.60216963  0.39828002  1
  Pd  Pd172  1  0.80305498  0.40711361  0.59520663  1
  Pd  Pd173  1  0.19115154  0.80082950  0.40661770  1
  Pd  Pd174  1  0.39687583  0.80749426  0.79901456  1
  Pd  Pd175  1  0.40129099  0.00418901  0.19870413  1
  Pd  Pd176  1  0.39702594  0.60189727  0.00769941  1
  Pd  Pd177  1  0.59207466  0.80496509  0.39042040  1
  Pd  Pd178  1  0.41432736  0.79850135  0.60290551  1
  Pd  Pd179  1  0.00185603  0.20604316  0.59943705  1
  Pd  Pd180  1  -0.00733293  0.20449419  0.79929119  1
  Pd  Pd181  1  0.79743380  0.79998213  0.20943231  1
  Pd  Pd182  1  0.80265077  -0.00557158  -0.00318670  1
  Pd  Pd183  1  0.20860457  -0.00002795  0.19592165  1
  Pd  Pd184  1  0.79170965  0.40043201  0.79131710  1
  Pd  Pd185  1  -0.00548489  0.39304513  0.19678941  1
  Pd  Pd186  1  0.61151716  -0.00648549  -0.00493953  1
  Pd  Pd187  1  0.00689299  0.59800686  0.39840691  1
  Pd  Pd188  1  0.39940994  0.39627649  0.00667520  1
  Pd  Pd189  1  -0.00203977  -0.00845793  0.80539160  1
  Pd  Pd190  1  0.40886683  0.20246757  0.19282728  1
  Pd  Pd191  1  0.59825415  0.20254320  0.00574863  1
  Pd  Pd192  1  0.00098362  0.40483497  0.40190498  1
  Pd  Pd193  1  -0.00601525  0.19313586  0.00833686  1
  Pd  Pd194  1  0.79855245  0.40563538  0.00487721  1
  Pd  Pd195  1  0.60066658  -0.00200095  0.39454850  1
  Pd  Pd196  1  0.20126371  0.59535621  0.20267214  1
  Pd  Pd197  1  0.41437154  0.79892347  0.39814814  1
  Pd  Pd198  1  0.79573488  0.60259842  0.59956921  1
  Pd  Pd199  1  0.19364951  0.79394753  0.60492970  1
  Rh  Rh200  1  0.19972890  0.19886199  -0.00062351  1
  Rh  Rh201  1  0.59983323  -0.00487699  0.20708031  1
  Rh  Rh202  1  0.39594571  0.60324957  0.59667515  1
  Rh  Rh203  1  0.60770318  0.60607066  0.19957655  1
  Rh  Rh204  1  -0.01081951  0.01487498  0.20075269  1
  Rh  Rh205  1  0.00484590  0.60017868  0.00335386  1
  Rh  Rh206  1  0.01093646  0.39134575  0.80332959  1
  Rh  Rh207  1  0.19737716  0.39747394  0.19772481  1
  Rh  Rh208  1  0.59565012  0.19990271  0.19318060  1
  Rh  Rh209  1  0.60796193  0.61092866  0.60415755  1
  Rh  Rh210  1  0.79988102  0.20068973  -0.00758392  1
  Rh  Rh211  1  -0.01383653  -0.00427087  0.59102671  1
  Rh  Rh212  1  0.80881869  0.79042313  0.78862575  1
  Rh  Rh213  1  0.60497379  0.00007846  0.59723428  1
  Rh  Rh214  1  0.19417580  0.20291710  0.81242531  1
  Rh  Rh215  1  0.39653907  0.39517650  0.19196028  1
  Rh  Rh216  1  0.40623048  0.39126592  0.40144236  1
  Rh  Rh217  1  0.80370648  -0.00034494  0.40663627  1
  Rh  Rh218  1  0.39998844  0.40150241  0.79938691  1
  Rh  Rh219  1  0.20069469  0.39423702  0.39544757  1
  Rh  Rh220  1  0.20798170  0.40296551  0.61069666  1
  Rh  Rh221  1  0.19303203  0.21037303  0.20386229  1
  Rh  Rh222  1  0.80592587  0.00808429  0.79002467  1
  Rh  Rh223  1  0.39609116  0.00449350  0.40254069  1
  Rh  Rh224  1  0.40329077  0.20126985  0.60139571  1
  Rh  Rh225  1  0.40878864  0.20835451  0.00873640  1
  Rh  Rh226  1  0.38771620  0.59277697  0.20376590  1
  Rh  Rh227  1  0.79766909  0.18956946  0.60536247  1
  Rh  Rh228  1  -0.00496214  0.39616315  0.59248984  1
  Rh  Rh229  1  0.79992211  0.60200504  0.20744897  1
  Rh  Rh230  1  -0.00787188  0.78873204  0.20049040  1
  Rh  Rh231  1  -0.00160625  0.80314126  0.39279466  1
  Rh  Rh232  1  -0.00037292  0.40488182  0.00351268  1
  Rh  Rh233  1  0.40561268  0.80516064  0.20212477  1
  Rh  Rh234  1  -0.00443237  0.60039110  0.20660040  1
  Rh  Rh235  1  0.80355338  0.40025779  0.19284051  1
  Rh  Rh236  1  0.60413629  0.20766518  0.79682458  1
  Rh  Rh237  1  0.80106477  0.79654949  0.39544831  1
  Rh  Rh238  1  0.20304947  0.59352216  0.80364361  1
  Rh  Rh239  1  0.39396899  -0.00301997  -0.00050613  1
  Rh  Rh240  1  -0.00448033  0.79827560  0.60833649  1
  Rh  Rh241  1  0.60129141  0.20773405  0.39824164  1
  Rh  Rh242  1  0.59188585  0.00357166  0.79894188  1
  Rh  Rh243  1  0.00713849  0.59501117  0.59144498  1
  Rh  Rh244  1  0.40611121  0.19228689  0.79699425  1
  Rh  Rh245  1  0.78930137  0.41344908  0.40756639  1
  Rh  Rh246  1  0.60090173  0.40115094  0.20443470  1
  Rh  Rh247  1  0.19949386  0.19887445  0.58940149  1
  Rh  Rh248  1  0.59928708  0.40496062  -0.00365778  1
  Rh  Rh249  1  0.80092584  0.00028482  0.20771458  1
