# generated using pymatgen
data_ZrScNbPdRh
_symmetry_space_group_name_H-M   'P 1'
_cell_length_a   16.55592890
_cell_length_b   16.55362962
_cell_length_c   16.55476012
_cell_angle_alpha   90.00823707
_cell_angle_beta   89.99429355
_cell_angle_gamma   89.99896373
_symmetry_Int_Tables_number   1
_chemical_formula_structural   ZrScNbPdRh
_chemical_formula_sum   'Zr50 Sc50 Nb50 Pd50 Rh50'
_cell_volume   4537.00932599
_cell_formula_units_Z   50
loop_
 _symmetry_equiv_pos_site_id
 _symmetry_equiv_pos_as_xyz
  1  'x, y, z'
loop_
 _atom_site_type_symbol
 _atom_site_label
 _atom_site_symmetry_multiplicity
 _atom_site_fract_x
 _atom_site_fract_y
 _atom_site_fract_z
 _atom_site_occupancy
  Zr  Zr0  1  0.29277028  0.69526508  0.30546076  1
  Zr  Zr1  1  0.49821528  0.90666634  0.69116345  1
  Zr  Zr2  1  0.30377269  0.29924780  0.09170168  1
  Zr  Zr3  1  0.69684845  0.30416354  0.49332277  1
  Zr  Zr4  1  0.30126196  0.30050526  0.89631143  1
  Zr  Zr5  1  0.89720756  0.51161460  0.49436457  1
  Zr  Zr6  1  0.49996795  0.49860925  0.29913624  1
  Zr  Zr7  1  0.91054276  0.30488597  0.10202421  1
  Zr  Zr8  1  0.70393120  0.90783017  0.29912111  1
  Zr  Zr9  1  0.09705148  0.70139485  0.30592749  1
  Zr  Zr10  1  0.90004042  0.10281678  0.69141307  1
  Zr  Zr11  1  0.10370369  0.49410214  0.10095373  1
  Zr  Zr12  1  0.30058528  0.50955451  0.50278474  1
  Zr  Zr13  1  0.90570953  0.70152945  0.50102545  1
  Zr  Zr14  1  0.49883867  0.08837787  0.50741786  1
  Zr  Zr15  1  0.68589560  0.90081373  0.50280725  1
  Zr  Zr16  1  0.10052838  0.89986703  0.30650912  1
  Zr  Zr17  1  0.49792213  0.90160941  0.10179540  1
  Zr  Zr18  1  0.89172403  0.10114734  0.89380883  1
  Zr  Zr19  1  0.69854543  0.70251226  0.09598946  1
  Zr  Zr20  1  0.70416356  0.70218460  0.70162781  1
  Zr  Zr21  1  0.49781568  0.50244413  0.50518637  1
  Zr  Zr22  1  0.90833007  0.49857035  0.09582815  1
  Zr  Zr23  1  0.49612540  0.90595316  0.30578324  1
  Zr  Zr24  1  0.90631288  0.30527205  0.29895653  1
  Zr  Zr25  1  0.09924655  0.09397747  0.29993958  1
  Zr  Zr26  1  0.30223123  0.90340807  0.10388148  1
  Zr  Zr27  1  0.30225074  0.90062923  0.30175167  1
  Zr  Zr28  1  0.91265948  0.29591411  0.70837604  1
  Zr  Zr29  1  0.70190612  0.90357321  0.90534090  1
  Zr  Zr30  1  0.69418947  0.29843785  0.09100408  1
  Zr  Zr31  1  0.50028574  0.49937508  0.90042484  1
  Zr  Zr32  1  0.90133845  0.69626874  0.30895371  1
  Zr  Zr33  1  0.29680406  0.70729191  0.89949514  1
  Zr  Zr34  1  0.69840389  0.10822688  0.30205573  1
  Zr  Zr35  1  0.10399711  0.50137082  0.70250729  1
  Zr  Zr36  1  0.10160459  0.89456798  0.89750366  1
  Zr  Zr37  1  0.49780149  0.10281172  0.70053820  1
  Zr  Zr38  1  0.10772593  0.70457891  0.50034236  1
  Zr  Zr39  1  0.71231023  0.10244000  0.50516263  1
  Zr  Zr40  1  0.69365554  0.49107274  0.89578314  1
  Zr  Zr41  1  0.90380571  0.90808385  0.50287612  1
  Zr  Zr42  1  0.10099638  0.69886318  0.70231871  1
  Zr  Zr43  1  0.50677764  0.28966067  0.30035890  1
  Zr  Zr44  1  0.69424096  0.10295722  0.89938512  1
  Zr  Zr45  1  0.29925467  0.30434459  0.50029548  1
  Zr  Zr46  1  0.29645583  0.49149224  0.10341854  1
  Zr  Zr47  1  0.49681133  0.49439765  0.09393884  1
  Zr  Zr48  1  0.09309867  0.70366160  0.90795623  1
  Zr  Zr49  1  0.29723408  0.70029916  0.10174944  1
  Sc  Sc50  1  0.30180713  0.09278164  0.30250478  1
  Sc  Sc51  1  0.29951773  0.89825189  0.70440015  1
  Sc  Sc52  1  0.10027951  0.50510267  0.90238195  1
  Sc  Sc53  1  0.70074584  0.49845982  0.31621016  1
  Sc  Sc54  1  0.09972917  0.30468668  0.29872134  1
  Sc  Sc55  1  0.89691561  0.10296591  0.09878102  1
  Sc  Sc56  1  0.49938225  0.70495938  0.70229992  1
  Sc  Sc57  1  0.90389816  0.71159668  0.09793313  1
  Sc  Sc58  1  0.90044399  0.29826476  0.50480594  1
  Sc  Sc59  1  0.90467448  0.69889600  0.69498264  1
  Sc  Sc60  1  0.10461436  0.30526005  0.69489451  1
  Sc  Sc61  1  0.09485525  0.89590147  0.08430617  1
  Sc  Sc62  1  0.29098247  0.90948442  0.89361905  1
  Sc  Sc63  1  0.10455022  0.49614607  0.50124410  1
  Sc  Sc64  1  0.09822736  0.89594557  0.49511496  1
  Sc  Sc65  1  0.50061536  0.69731660  0.89570378  1
  Sc  Sc66  1  0.69715902  0.69789196  0.30088954  1
  Sc  Sc67  1  0.30280262  0.29490866  0.69142124  1
  Sc  Sc68  1  0.30038285  0.10506059  0.49509616  1
  Sc  Sc69  1  0.50273112  0.69262221  0.09658873  1
  Sc  Sc70  1  0.29537718  0.49664782  0.90472442  1
  Sc  Sc71  1  0.49165626  0.10954803  0.09225389  1
  Sc  Sc72  1  0.70411401  0.09715317  0.09256046  1
  Sc  Sc73  1  0.49578616  0.70426910  0.29242757  1
  Sc  Sc74  1  0.50258528  0.29328947  0.89999131  1
  Sc  Sc75  1  0.91026813  0.49168219  0.90030210  1
  Sc  Sc76  1  0.11281059  0.08658496  0.90477026  1
  Sc  Sc77  1  0.10719416  0.29917715  0.50152851  1
  Sc  Sc78  1  0.89560147  0.09526489  0.29893778  1
  Sc  Sc79  1  0.29895517  0.29684489  0.29850447  1
  Sc  Sc80  1  0.69634724  0.89183936  0.70664828  1
  Sc  Sc81  1  0.89991351  0.89792311  0.29370779  1
  Sc  Sc82  1  0.10830650  0.49702986  0.30277068  1
  Sc  Sc83  1  0.50225173  0.29610373  0.50689032  1
  Sc  Sc84  1  0.10389436  0.31081001  0.89439846  1
  Sc  Sc85  1  0.30549569  0.09852680  0.90102251  1
  Sc  Sc86  1  0.50055351  0.29152123  0.69911128  1
  Sc  Sc87  1  0.89532615  0.89217151  0.70069277  1
  Sc  Sc88  1  0.69895893  0.50265373  0.50630054  1
  Sc  Sc89  1  0.10626228  0.89281245  0.70191288  1
  Sc  Sc90  1  0.50546221  0.50694610  0.69964018  1
  Sc  Sc91  1  0.70142383  0.69942549  0.50638557  1
  Sc  Sc92  1  0.69868758  0.30003436  0.89768519  1
  Sc  Sc93  1  0.68868835  0.50209709  0.09012917  1
  Sc  Sc94  1  0.29672359  0.69726798  0.69684045  1
  Sc  Sc95  1  0.69119228  0.30113764  0.70431788  1
  Sc  Sc96  1  0.69774690  0.10127931  0.70144136  1
  Sc  Sc97  1  0.30787037  0.09394072  0.70389234  1
  Sc  Sc98  1  0.09256831  0.10643396  0.69417884  1
  Sc  Sc99  1  0.69592382  0.71156329  0.89418943  1
  Nb  Nb100  1  0.29572197  0.49829850  0.30029753  1
  Nb  Nb101  1  0.90958887  0.09891902  0.50668025  1
  Nb  Nb102  1  0.09663723  0.29702624  0.10603411  1
  Nb  Nb103  1  0.88716280  0.90601950  0.09784742  1
  Nb  Nb104  1  0.49573135  0.70113924  0.50552537  1
  Nb  Nb105  1  0.90060777  0.50543114  0.30063560  1
  Nb  Nb106  1  0.69883788  0.30161932  0.30237691  1
  Nb  Nb107  1  0.49530366  0.30072958  0.09867327  1
  Nb  Nb108  1  0.50316295  0.90447341  0.89877825  1
  Nb  Nb109  1  0.28998539  0.10209249  0.09154832  1
  Nb  Nb110  1  0.90306147  0.69483565  0.89531495  1
  Nb  Nb111  1  0.29899771  0.89872396  0.50351479  1
  Nb  Nb112  1  0.29922018  0.70098513  0.50190373  1
  Nb  Nb113  1  0.90205852  0.89575805  0.90433810  1
  Nb  Nb114  1  0.49803361  0.09980250  0.89202846  1
  Nb  Nb115  1  0.29746458  0.49739636  0.69886683  1
  Nb  Nb116  1  0.90165226  0.50135006  0.69769285  1
  Nb  Nb117  1  0.10189116  0.69780200  0.10035730  1
  Nb  Nb118  1  0.70652409  0.49955695  0.70438189  1
  Nb  Nb119  1  0.49884826  0.09797255  0.30209511  1
  Nb  Nb120  1  0.09409375  0.09202993  0.49725424  1
  Nb  Nb121  1  0.70512794  0.90241453  0.10190870  1
  Nb  Nb122  1  0.09805908  0.10091640  0.09767262  1
  Nb  Nb123  1  0.49696826  0.89595086  0.50368511  1
  Nb  Nb124  1  0.90559099  0.29607268  0.90315699  1
  Nb  Nb125  1  0.39168591  0.59190945  0.20076751  1
  Nb  Nb126  1  -0.00488056  -0.00285051  0.80338663  1
  Nb  Nb127  1  0.20248823  0.19907919  0.79953118  1
  Nb  Nb128  1  0.80303357  0.60183365  -0.00662872  1
  Nb  Nb129  1  0.40113592  0.80597699  -0.00329917  1
  Nb  Nb130  1  0.80506049  0.59505203  0.80101767  1
  Nb  Nb131  1  0.59787931  0.00322736  0.20045419  1
  Nb  Nb132  1  0.80446182  0.59419285  0.19647902  1
  Nb  Nb133  1  0.19654457  0.19400808  0.18986038  1
  Nb  Nb134  1  0.80353204  0.40512624  0.60930122  1
  Nb  Nb135  1  0.39842193  0.40259033  0.79536784  1
  Nb  Nb136  1  0.00086673  0.19154168  0.40432810  1
  Nb  Nb137  1  0.60350311  0.81160581  0.19706235  1
  Nb  Nb138  1  0.58971778  0.60451891  0.40656586  1
  Nb  Nb139  1  0.00131486  0.60138806  0.20049110  1
  Nb  Nb140  1  0.60278416  0.39277856  0.20183620  1
  Nb  Nb141  1  0.19927798  0.00006839  0.59399634  1
  Nb  Nb142  1  0.79553915  0.40273901  0.20210229  1
  Nb  Nb143  1  0.19534282  0.79877720  0.19914486  1
  Nb  Nb144  1  0.39941423  0.40355522  0.39912391  1
  Nb  Nb145  1  0.79780127  0.80388012  0.40324614  1
  Nb  Nb146  1  0.40072529  0.79797683  0.41162193  1
  Nb  Nb147  1  -0.00058359  -0.00237917  0.19009848  1
  Nb  Nb148  1  0.79667176  0.21217923  0.20222539  1
  Nb  Nb149  1  0.00430268  0.20193749  -0.00181573  1
  Pd  Pd150  1  0.59974147  -0.00201589  0.79511611  1
  Pd  Pd151  1  0.19223613  0.20583101  -0.00642994  1
  Pd  Pd152  1  0.19091424  -0.00361887  0.19211739  1
  Pd  Pd153  1  0.80271516  -0.00495398  0.79512081  1
  Pd  Pd154  1  0.19254197  0.19861551  0.39138421  1
  Pd  Pd155  1  0.00261697  0.39810869  0.40465303  1
  Pd  Pd156  1  0.60334898  0.59424504  0.20668676  1
  Pd  Pd157  1  0.79896731  0.80494916  0.59385911  1
  Pd  Pd158  1  0.00893209  -0.01091806  0.61188079  1
  Pd  Pd159  1  0.20136172  0.60238233  0.80655484  1
  Pd  Pd160  1  0.40141040  0.40087013  0.60351441  1
  Pd  Pd161  1  0.79565116  0.79212836  0.20696089  1
  Pd  Pd162  1  0.40358819  0.60288497  0.39440461  1
  Pd  Pd163  1  0.79729535  0.21315139  0.60719459  1
  Pd  Pd164  1  0.79442858  0.20809544  0.79465270  1
  Pd  Pd165  1  0.80647876  0.20493066  0.00366060  1
  Pd  Pd166  1  0.80425180  0.79527461  -0.00620201  1
  Pd  Pd167  1  0.40363664  0.01477428  0.19579013  1
  Pd  Pd168  1  0.60036935  0.00859907  0.39989904  1
  Pd  Pd169  1  0.80530256  -0.00241522  0.40277657  1
  Pd  Pd170  1  0.40307066  0.39700003  0.20724228  1
  Pd  Pd171  1  0.59675561  0.00726706  0.00591320  1
  Pd  Pd172  1  0.60636510  0.60394476  0.80127075  1
  Pd  Pd173  1  0.59201141  0.80088176  0.00239320  1
  Pd  Pd174  1  -0.00430010  0.80278352  0.79682774  1
  Pd  Pd175  1  0.39418018  0.79676401  0.60243618  1
  Pd  Pd176  1  0.81182795  0.20180999  0.39781228  1
  Pd  Pd177  1  0.60132035  0.60564714  0.60077708  1
  Pd  Pd178  1  0.39679654  -0.00203400  -0.00595764  1
  Pd  Pd179  1  -0.00331762  0.40045246  0.59512084  1
  Pd  Pd180  1  0.59785443  0.79224383  0.39540155  1
  Pd  Pd181  1  0.20064694  0.59762951  -0.00284299  1
  Pd  Pd182  1  0.39543449  0.60482057  0.00252353  1
  Pd  Pd183  1  0.00485376  0.40472508  0.80037476  1
  Pd  Pd184  1  0.01521519  0.19039029  0.81324005  1
  Pd  Pd185  1  0.00471434  0.80443685  0.19262181  1
  Pd  Pd186  1  0.80139881  0.40475247  0.00047176  1
  Pd  Pd187  1  0.60499160  0.40041728  0.60628644  1
  Pd  Pd188  1  0.80460563  0.40051831  0.40461273  1
  Pd  Pd189  1  0.59531695  0.19202602  0.41208733  1
  Pd  Pd190  1  0.00790000  0.59990887  0.59747462  1
  Pd  Pd191  1  0.79256964  -0.00714754  0.60898970  1
  Pd  Pd192  1  0.20166922  0.18980925  0.60408725  1
  Pd  Pd193  1  0.60325238  0.19643547  0.19124689  1
  Pd  Pd194  1  0.80744083  0.39704375  0.79853346  1
  Pd  Pd195  1  0.39394265  0.59401565  0.79593757  1
  Pd  Pd196  1  0.40455550  0.20287852  0.40424994  1
  Pd  Pd197  1  -0.00890205  0.00573378  -0.00242749  1
  Pd  Pd198  1  0.40184925  0.80809239  0.80588356  1
  Pd  Pd199  1  0.38975773  0.19285321  0.19977181  1
  Rh  Rh200  1  0.60883319  0.60453722  -0.01375298  1
  Rh  Rh201  1  0.00400995  0.80142415  0.60050351  1
  Rh  Rh202  1  -0.00755230  0.79977941  0.00136655  1
  Rh  Rh203  1  0.58802373  0.39833648  0.79536057  1
  Rh  Rh204  1  0.20964468  0.39367613  0.79051984  1
  Rh  Rh205  1  0.19431017  0.39588008  0.00347084  1
  Rh  Rh206  1  0.19619974  0.60564276  0.20111962  1
  Rh  Rh207  1  0.39957942  0.19493202  0.59663354  1
  Rh  Rh208  1  0.59243742  0.80696614  0.79914926  1
  Rh  Rh209  1  0.60532205  0.19635959  0.59689640  1
  Rh  Rh210  1  0.39565237  0.20441386  0.80074457  1
  Rh  Rh211  1  0.19925655  0.59988618  0.59996896  1
  Rh  Rh212  1  0.80100304  0.00079415  -0.00460379  1
  Rh  Rh213  1  0.20336393  -0.00616062  0.00462818  1
  Rh  Rh214  1  -0.00237233  0.60579546  0.00642467  1
  Rh  Rh215  1  0.80657980  0.79344278  0.80477052  1
  Rh  Rh216  1  0.20879423  0.40023242  0.40148934  1
  Rh  Rh217  1  -0.00206874  0.59714752  0.79908608  1
  Rh  Rh218  1  0.39662861  0.78739209  0.19767366  1
  Rh  Rh219  1  0.00239189  0.41391083  0.20696626  1
  Rh  Rh220  1  0.40151146  0.19852208  -0.00604049  1
  Rh  Rh221  1  -0.01049089  0.80696828  0.40560176  1
  Rh  Rh222  1  0.18846871  0.01002206  0.78238516  1
  Rh  Rh223  1  0.39734875  0.60526288  0.60867738  1
  Rh  Rh224  1  0.01204110  0.59341386  0.39852679  1
  Rh  Rh225  1  0.00553935  0.20721004  0.58999235  1
  Rh  Rh226  1  0.39785154  -0.00421388  0.40860440  1
  Rh  Rh227  1  0.60586272  0.00235087  0.60497024  1
  Rh  Rh228  1  -0.00712608  0.00194318  0.39068394  1
  Rh  Rh229  1  0.59711615  0.79675878  0.60501820  1
  Rh  Rh230  1  0.59879075  0.19821285  0.80227178  1
  Rh  Rh231  1  0.20165380  0.40385087  0.60101001  1
  Rh  Rh232  1  0.59425702  0.19655705  -0.00323053  1
  Rh  Rh233  1  0.20113552  0.38684539  0.19993314  1
  Rh  Rh234  1  0.00194078  0.18737527  0.20119325  1
  Rh  Rh235  1  0.20217155  0.80469420  0.60038236  1
  Rh  Rh236  1  0.80044819  0.59550518  0.60760967  1
  Rh  Rh237  1  0.59114771  0.39059994  0.00027261  1
  Rh  Rh238  1  0.38935580  0.00005576  0.59669535  1
  Rh  Rh239  1  0.20922577  0.80497013  0.00513902  1
  Rh  Rh240  1  0.59082837  0.40539618  0.39935666  1
  Rh  Rh241  1  0.20878577  0.80336245  0.39843082  1
  Rh  Rh242  1  0.40357736  0.39577240  -0.01297175  1
  Rh  Rh243  1  0.00952078  0.39098504  -0.00538657  1
  Rh  Rh244  1  0.79983827  0.01137828  0.19524325  1
  Rh  Rh245  1  0.20065329  0.79302663  0.79876621  1
  Rh  Rh246  1  0.20634164  -0.00096329  0.41026493  1
  Rh  Rh247  1  0.40656827  -0.00359408  0.80238436  1
  Rh  Rh248  1  0.19548240  0.59631837  0.40625628  1
  Rh  Rh249  1  0.78902105  0.60885168  0.39892079  1
