# generated using pymatgen
data_ZrScNbPdRh
_symmetry_space_group_name_H-M   'P 1'
_cell_length_a   16.56084299
_cell_length_b   16.55769131
_cell_length_c   16.56170411
_cell_angle_alpha   89.97103999
_cell_angle_beta   89.97643025
_cell_angle_gamma   90.01411665
_symmetry_Int_Tables_number   1
_chemical_formula_structural   ZrScNbPdRh
_chemical_formula_sum   'Zr50 Sc50 Nb50 Pd50 Rh50'
_cell_volume   4541.37262077
_cell_formula_units_Z   50
loop_
 _symmetry_equiv_pos_site_id
 _symmetry_equiv_pos_as_xyz
  1  'x, y, z'
loop_
 _atom_site_type_symbol
 _atom_site_label
 _atom_site_symmetry_multiplicity
 _atom_site_fract_x
 _atom_site_fract_y
 _atom_site_fract_z
 _atom_site_occupancy
  Zr  Zr0  1  0.09884065  0.08916150  0.89831807  1
  Zr  Zr1  1  0.29911569  0.49845730  0.69858761  1
  Zr  Zr2  1  0.69659751  0.90078095  0.10010920  1
  Zr  Zr3  1  0.50521180  0.90072335  0.90131227  1
  Zr  Zr4  1  0.09887098  0.49712684  0.50151302  1
  Zr  Zr5  1  0.29672671  0.70662661  0.10107179  1
  Zr  Zr6  1  0.30270641  0.89366555  0.10341067  1
  Zr  Zr7  1  0.10180199  0.49230083  0.30011581  1
  Zr  Zr8  1  0.89626800  0.10568162  0.69150407  1
  Zr  Zr9  1  0.90685363  0.48647909  0.70032217  1
  Zr  Zr10  1  0.89968775  0.09907795  0.91208154  1
  Zr  Zr11  1  0.69945041  0.09291573  0.69355691  1
  Zr  Zr12  1  0.50091839  0.49875988  0.29809146  1
  Zr  Zr13  1  0.50872291  0.90159535  0.68848441  1
  Zr  Zr14  1  0.89857514  0.70138519  0.10810191  1
  Zr  Zr15  1  0.29376386  0.09815377  0.50450575  1
  Zr  Zr16  1  0.89684556  0.50026594  0.89890666  1
  Zr  Zr17  1  0.90749594  0.29567945  0.51440442  1
  Zr  Zr18  1  0.70021726  0.50314123  0.10645304  1
  Zr  Zr19  1  0.71036278  0.30213249  0.10386887  1
  Zr  Zr20  1  0.70477334  0.69096435  0.50464345  1
  Zr  Zr21  1  0.69516375  0.30154474  0.49424470  1
  Zr  Zr22  1  0.69757880  0.89859202  0.30336029  1
  Zr  Zr23  1  0.29888095  0.10252311  0.69977621  1
  Zr  Zr24  1  0.50006450  0.50681453  0.70696894  1
  Zr  Zr25  1  0.70005516  0.70118314  0.69581066  1
  Zr  Zr26  1  0.09940766  0.69790094  0.70547423  1
  Zr  Zr27  1  0.09230563  0.70651039  0.29513825  1
  Zr  Zr28  1  0.89780343  0.69685757  0.49556350  1
  Zr  Zr29  1  0.10544246  0.30189370  0.49308192  1
  Zr  Zr30  1  0.28910921  0.49071305  0.09370050  1
  Zr  Zr31  1  0.29685415  0.29881841  0.70612073  1
  Zr  Zr32  1  0.70725064  0.70024999  0.10244260  1
  Zr  Zr33  1  0.30208215  0.90952276  0.68872090  1
  Zr  Zr34  1  0.90268537  0.89674518  0.49614304  1
  Zr  Zr35  1  0.90553779  0.09992669  0.50153688  1
  Zr  Zr36  1  0.10467149  0.50345875  0.90037508  1
  Zr  Zr37  1  0.50378198  0.10423774  0.69453412  1
  Zr  Zr38  1  0.69903477  0.30475342  0.90179465  1
  Zr  Zr39  1  0.29367207  0.30480373  0.90060173  1
  Zr  Zr40  1  0.69472079  0.50504018  0.69551402  1
  Zr  Zr41  1  0.70841570  0.69553964  0.29925712  1
  Zr  Zr42  1  0.50282023  0.30524904  0.89645524  1
  Zr  Zr43  1  0.49256806  0.50588068  0.50518666  1
  Zr  Zr44  1  0.89503423  0.30348656  0.89709035  1
  Zr  Zr45  1  0.90216154  0.70415401  0.69261397  1
  Zr  Zr46  1  0.29721458  0.09291075  0.10398231  1
  Zr  Zr47  1  0.09489971  0.10630687  0.50189098  1
  Zr  Zr48  1  0.30045337  0.70767500  0.29749068  1
  Zr  Zr49  1  0.49902755  0.49493865  0.10016378  1
  Sc  Sc50  1  0.09493029  0.91179314  0.49786282  1
  Sc  Sc51  1  0.70824889  0.69602905  0.89861680  1
  Sc  Sc52  1  0.50151318  0.11050069  0.49864923  1
  Sc  Sc53  1  0.09505713  0.09938822  0.09432651  1
  Sc  Sc54  1  0.29940561  0.69274376  0.69759000  1
  Sc  Sc55  1  0.10266343  0.50391380  0.69832381  1
  Sc  Sc56  1  0.30071130  0.90671559  0.29822142  1
  Sc  Sc57  1  0.30068751  0.30126276  0.30568362  1
  Sc  Sc58  1  0.89505249  0.49688946  0.50182475  1
  Sc  Sc59  1  0.71070530  0.29726201  0.69757853  1
  Sc  Sc60  1  0.50079448  0.09866964  0.10116996  1
  Sc  Sc61  1  0.49993292  0.70552751  0.50676532  1
  Sc  Sc62  1  0.50949812  0.10112362  0.90730163  1
  Sc  Sc63  1  0.49850068  0.70840749  0.30499367  1
  Sc  Sc64  1  0.09619936  0.90221139  0.71249666  1
  Sc  Sc65  1  0.29201875  0.10384934  0.89502331  1
  Sc  Sc66  1  0.69414038  0.49263461  0.89773938  1
  Sc  Sc67  1  0.30954131  0.09784118  0.30409853  1
  Sc  Sc68  1  0.48943493  0.30199737  0.69840088  1
  Sc  Sc69  1  0.10009655  0.69324873  0.10454069  1
  Sc  Sc70  1  0.28833655  0.70098426  0.89826863  1
  Sc  Sc71  1  0.28669253  0.89448195  0.90541270  1
  Sc  Sc72  1  0.89606214  0.50834101  0.09833527  1
  Sc  Sc73  1  0.70375041  0.09852543  0.09484658  1
  Sc  Sc74  1  0.49534191  0.71235196  0.10900153  1
  Sc  Sc75  1  0.31490522  0.69666570  0.50203746  1
  Sc  Sc76  1  0.10303340  0.10097490  0.30623756  1
  Sc  Sc77  1  0.70126528  0.09901466  0.31157840  1
  Sc  Sc78  1  0.70528382  0.09669383  0.90473055  1
  Sc  Sc79  1  0.50353536  0.90213898  0.29766584  1
  Sc  Sc80  1  0.49625425  0.29728676  0.31024831  1
  Sc  Sc81  1  0.71231373  0.90972524  0.89682557  1
  Sc  Sc82  1  0.29560682  0.49299900  0.29977039  1
  Sc  Sc83  1  0.08930208  0.69818287  0.51339003  1
  Sc  Sc84  1  0.90085837  0.90433717  0.89141647  1
  Sc  Sc85  1  0.89733453  0.10896207  0.30516584  1
  Sc  Sc86  1  0.50412403  0.49374969  0.89261340  1
  Sc  Sc87  1  0.49562266  0.89411811  0.49802678  1
  Sc  Sc88  1  0.90134596  0.69843261  0.89880544  1
  Sc  Sc89  1  0.89424271  0.89211249  0.09600265  1
  Sc  Sc90  1  0.49972665  0.69207078  0.89149054  1
  Sc  Sc91  1  0.09986385  0.89990042  0.29760524  1
  Sc  Sc92  1  0.70067597  0.10175716  0.50209428  1
  Sc  Sc93  1  0.89260615  0.49957173  0.29954633  1
  Sc  Sc94  1  0.11307391  0.90547555  0.09927870  1
  Sc  Sc95  1  0.70367079  0.48738072  0.29673137  1
  Sc  Sc96  1  0.10249651  0.29192419  0.09103055  1
  Sc  Sc97  1  0.89075682  0.29773112  0.29278925  1
  Sc  Sc98  1  0.10765756  0.09621331  0.69875451  1
  Sc  Sc99  1  0.49416492  0.29817647  0.09252431  1
  Nb  Nb100  1  0.29957348  0.29444757  0.09642623  1
  Nb  Nb101  1  0.90537156  0.29996337  0.70433852  1
  Nb  Nb102  1  0.69973396  0.50303003  0.49821246  1
  Nb  Nb103  1  0.09909318  0.89549335  0.90009664  1
  Nb  Nb104  1  0.89989474  0.10790441  0.10558523  1
  Nb  Nb105  1  0.09899402  0.71102827  0.89230953  1
  Nb  Nb106  1  0.49856805  0.10601650  0.29951114  1
  Nb  Nb107  1  0.69324305  0.90109020  0.50277158  1
  Nb  Nb108  1  0.29947600  0.89701842  0.49989736  1
  Nb  Nb109  1  0.88537069  0.89863719  0.70428815  1
  Nb  Nb110  1  0.10056114  0.29627810  0.89565230  1
  Nb  Nb111  1  0.90614784  0.88433296  0.29606134  1
  Nb  Nb112  1  0.90418765  0.28626175  0.09869998  1
  Nb  Nb113  1  0.29705577  0.50003265  0.89835716  1
  Nb  Nb114  1  0.50278798  0.89901958  0.09738225  1
  Nb  Nb115  1  0.90350751  0.70854454  0.30028126  1
  Nb  Nb116  1  0.10475367  0.30420641  0.30046563  1
  Nb  Nb117  1  0.09567596  0.49445397  0.09902155  1
  Nb  Nb118  1  0.29597889  0.50151352  0.50708984  1
  Nb  Nb119  1  0.09348306  0.30664134  0.70699302  1
  Nb  Nb120  1  0.50438192  0.70174680  0.69937199  1
  Nb  Nb121  1  0.49604867  0.30045104  0.50669645  1
  Nb  Nb122  1  0.30624813  0.30233042  0.50819368  1
  Nb  Nb123  1  0.70067587  0.29824966  0.29445588  1
  Nb  Nb124  1  0.70456275  0.90133072  0.70039874  1
  Nb  Nb125  1  0.19677924  0.60358740  0.40400595  1
  Nb  Nb126  1  0.20243420  0.80445204  0.59493858  1
  Nb  Nb127  1  0.60324388  0.80309667  0.79646404  1
  Nb  Nb128  1  0.39955304  -0.00584946  -0.00096348  1
  Nb  Nb129  1  0.59554230  0.60378383  0.00601947  1
  Nb  Nb130  1  0.00216933  0.39767165  0.00253638  1
  Nb  Nb131  1  0.40544187  0.80494517  0.79278407  1
  Nb  Nb132  1  0.59708072  0.40251946  0.59350278  1
  Nb  Nb133  1  -0.01039781  0.00089053  0.19906819  1
  Nb  Nb134  1  0.60405971  0.59518008  0.40164352  1
  Nb  Nb135  1  0.80260938  0.59584423  0.79188558  1
  Nb  Nb136  1  0.60112659  0.20041498  0.20699835  1
  Nb  Nb137  1  0.00012722  0.60200130  0.39550688  1
  Nb  Nb138  1  0.40264713  -0.00366113  0.80279589  1
  Nb  Nb139  1  0.39796090  0.59719843  0.00268901  1
  Nb  Nb140  1  0.00190902  0.39358855  0.19186231  1
  Nb  Nb141  1  0.20324176  0.20366372  0.19952836  1
  Nb  Nb142  1  0.00785013  0.79977340  -0.00606014  1
  Nb  Nb143  1  0.60301984  0.20090516  0.79806977  1
  Nb  Nb144  1  0.80777652  -0.00156130  0.20420476  1
  Nb  Nb145  1  0.39499521  0.59688752  0.19406162  1
  Nb  Nb146  1  0.19998974  0.79676001  0.40830774  1
  Nb  Nb147  1  0.60112788  0.79808764  -0.00412873  1
  Nb  Nb148  1  -0.00130163  0.20316904  0.79911412  1
  Nb  Nb149  1  0.39674538  0.40057123  0.41483872  1
  Pd  Pd150  1  0.80556416  0.39320086  0.40250696  1
  Pd  Pd151  1  0.20027631  0.19310554  0.00228498  1
  Pd  Pd152  1  -0.00427106  -0.01177236  0.00991266  1
  Pd  Pd153  1  0.59309579  0.38570535  0.19784923  1
  Pd  Pd154  1  0.80658151  0.40353242  0.00799261  1
  Pd  Pd155  1  -0.00520489  0.59054007  0.20609384  1
  Pd  Pd156  1  0.60452704  0.20263663  0.00396024  1
  Pd  Pd157  1  -0.00834802  0.00701568  0.79275360  1
  Pd  Pd158  1  0.80721094  -0.00688435  0.39649344  1
  Pd  Pd159  1  0.39199089  0.60446092  0.80580884  1
  Pd  Pd160  1  0.19493374  0.39403482  0.60490163  1
  Pd  Pd161  1  0.80295532  0.80192177  -0.01105690  1
  Pd  Pd162  1  0.80290642  0.20719431  0.40591323  1
  Pd  Pd163  1  0.80029874  -0.00534520  0.59178050  1
  Pd  Pd164  1  0.59847014  0.19989785  0.39681565  1
  Pd  Pd165  1  0.59104699  0.60986007  0.20303309  1
  Pd  Pd166  1  0.40068609  0.20551987  0.20057581  1
  Pd  Pd167  1  0.20941326  0.19954636  0.39514843  1
  Pd  Pd168  1  0.19623303  0.38778025  0.19174084  1
  Pd  Pd169  1  0.79449444  0.39894600  0.59917391  1
  Pd  Pd170  1  0.00675073  0.81289833  0.60558667  1
  Pd  Pd171  1  0.00340964  0.60451616  -0.00149566  1
  Pd  Pd172  1  0.39811981  0.39556700  0.20561650  1
  Pd  Pd173  1  0.39760148  0.59514771  0.39167191  1
  Pd  Pd174  1  0.00099656  -0.00559309  0.61017558  1
  Pd  Pd175  1  -0.00431403  0.59950598  0.79884075  1
  Pd  Pd176  1  0.40826876  0.19206848  0.80863017  1
  Pd  Pd177  1  0.79619633  0.80670697  0.59309760  1
  Pd  Pd178  1  0.40822310  0.00765463  0.59322599  1
  Pd  Pd179  1  0.60541723  0.01085008  0.20222307  1
  Pd  Pd180  1  -0.00593829  -0.00013502  0.38735293  1
  Pd  Pd181  1  0.39945157  0.40411303  -0.00816280  1
  Pd  Pd182  1  0.01207755  0.19984435  0.20739542  1
  Pd  Pd183  1  0.19430866  0.20800321  0.60487559  1
  Pd  Pd184  1  0.79824373  0.19421859  0.80237008  1
  Pd  Pd185  1  0.19799051  0.60589488  -0.00130787  1
  Pd  Pd186  1  -0.01158023  0.39936180  0.39184461  1
  Pd  Pd187  1  0.21022370  0.80558070  0.78687308  1
  Pd  Pd188  1  0.79489180  0.80305437  0.40379662  1
  Pd  Pd189  1  0.59399553  0.40389822  0.40377411  1
  Pd  Pd190  1  0.39670209  0.19060058  -0.00666166  1
  Pd  Pd191  1  0.40567334  0.79486283  -0.01211376  1
  Pd  Pd192  1  0.20032668  -0.00475497  0.39820954  1
  Pd  Pd193  1  -0.00283705  0.20987211  0.39193239  1
  Pd  Pd194  1  0.40762009  0.00012015  0.40403802  1
  Pd  Pd195  1  0.59134175  0.00286467  0.40618098  1
  Pd  Pd196  1  0.20360564  0.59783609  0.20568015  1
  Pd  Pd197  1  0.60016739  0.00322650  0.80138789  1
  Pd  Pd198  1  0.40744526  -0.00406399  0.19582706  1
  Pd  Pd199  1  0.60318097  0.79097371  0.40510766  1
  Rh  Rh200  1  0.60353609  0.79890678  0.19685060  1
  Rh  Rh201  1  0.61024093  0.60944845  0.80746371  1
  Rh  Rh202  1  -0.00083858  0.20585227  -0.01094803  1
  Rh  Rh203  1  0.80631590  0.59929409  0.20684363  1
  Rh  Rh204  1  0.20162491  0.60943205  0.59337418  1
  Rh  Rh205  1  0.81083288  0.39840489  0.19347080  1
  Rh  Rh206  1  0.79756999  0.19995115  -0.00056958  1
  Rh  Rh207  1  0.79292910  0.40712889  0.79270065  1
  Rh  Rh208  1  0.59377417  0.59874726  0.59280859  1
  Rh  Rh209  1  0.39439935  0.19580197  0.59795523  1
  Rh  Rh210  1  0.19900962  0.40536055  0.79961181  1
  Rh  Rh211  1  0.18884926  0.20050338  0.79615496  1
  Rh  Rh212  1  0.19161446  0.01304117  0.20433193  1
  Rh  Rh213  1  0.00671658  0.39786812  0.59870195  1
  Rh  Rh214  1  0.21065637  0.40292265  0.40810480  1
  Rh  Rh215  1  0.60767262  0.80194851  0.59920940  1
  Rh  Rh216  1  0.20562743  0.00112843  -0.00339128  1
  Rh  Rh217  1  0.79733544  0.20171619  0.59347040  1
  Rh  Rh218  1  0.18836031  0.79386483  0.00550101  1
  Rh  Rh219  1  0.60225019  0.21085540  0.60742784  1
  Rh  Rh220  1  0.80062006  0.59747662  0.39388924  1
  Rh  Rh221  1  0.39374056  0.40288734  0.80243336  1
  Rh  Rh222  1  0.40239617  0.60236600  0.60795467  1
  Rh  Rh223  1  0.19117844  -0.00395011  0.59610166  1
  Rh  Rh224  1  0.60239822  0.40477355  0.00825288  1
  Rh  Rh225  1  0.79908503  0.79402641  0.79851302  1
  Rh  Rh226  1  0.40352089  0.80547897  0.20794065  1
  Rh  Rh227  1  0.59856390  -0.00529570  0.00332839  1
  Rh  Rh228  1  0.81049108  0.59083250  0.60695690  1
  Rh  Rh229  1  0.20697128  -0.00500772  0.80276583  1
  Rh  Rh230  1  0.78837895  0.18946492  0.20105761  1
  Rh  Rh231  1  0.80428265  0.00861374  0.79646797  1
  Rh  Rh232  1  0.79517243  0.80502515  0.20503249  1
  Rh  Rh233  1  0.00692871  0.39789986  0.81036768  1
  Rh  Rh234  1  0.00816428  0.79473948  0.40640670  1
  Rh  Rh235  1  0.19278476  0.39515684  -0.00313054  1
  Rh  Rh236  1  0.19968944  0.59824185  0.80130637  1
  Rh  Rh237  1  0.39320345  0.79475534  0.60715284  1
  Rh  Rh238  1  0.40234080  0.40392867  0.60234706  1
  Rh  Rh239  1  0.39358147  0.80851571  0.39670831  1
  Rh  Rh240  1  0.00689427  0.81118309  0.18252316  1
  Rh  Rh241  1  0.19577791  0.80369762  0.20580667  1
  Rh  Rh242  1  0.39573082  0.20420647  0.40795430  1
  Rh  Rh243  1  -0.00594849  0.59099846  0.59538164  1
  Rh  Rh244  1  0.01113698  0.20305838  0.61008921  1
  Rh  Rh245  1  0.80761569  -0.00032536  0.00997487  1
  Rh  Rh246  1  -0.00953945  0.80256410  0.80251819  1
  Rh  Rh247  1  0.78981780  0.59251802  -0.00819256  1
  Rh  Rh248  1  0.60231806  0.38598952  0.78384090  1
  Rh  Rh249  1  0.60115666  -0.00112633  0.58946199  1
