# generated using pymatgen
data_ZrScNbPdRh
_symmetry_space_group_name_H-M   'P 1'
_cell_length_a   16.55152305
_cell_length_b   16.55750465
_cell_length_c   16.55562403
_cell_angle_alpha   89.97817265
_cell_angle_beta   89.99787148
_cell_angle_gamma   90.02010714
_symmetry_Int_Tables_number   1
_chemical_formula_structural   ZrScNbPdRh
_chemical_formula_sum   'Zr50 Sc50 Nb50 Pd50 Rh50'
_cell_volume   4537.09993767
_cell_formula_units_Z   50
loop_
 _symmetry_equiv_pos_site_id
 _symmetry_equiv_pos_as_xyz
  1  'x, y, z'
loop_
 _atom_site_type_symbol
 _atom_site_label
 _atom_site_symmetry_multiplicity
 _atom_site_fract_x
 _atom_site_fract_y
 _atom_site_fract_z
 _atom_site_occupancy
  Zr  Zr0  1  0.09431321  0.69821708  0.50376078  1
  Zr  Zr1  1  0.70410606  0.70118162  0.29875545  1
  Zr  Zr2  1  0.10111408  0.90191358  0.10311164  1
  Zr  Zr3  1  0.30083684  0.30469347  0.09770010  1
  Zr  Zr4  1  0.29691573  0.90748251  0.69626862  1
  Zr  Zr5  1  0.09332839  0.29779243  0.90143731  1
  Zr  Zr6  1  0.50099139  0.09893186  0.90927923  1
  Zr  Zr7  1  0.51245522  0.09419722  0.10169757  1
  Zr  Zr8  1  0.90020301  0.10833223  0.90445760  1
  Zr  Zr9  1  0.30994812  0.29597532  0.29273363  1
  Zr  Zr10  1  0.50177754  0.89734826  0.70048723  1
  Zr  Zr11  1  0.50486101  0.10311074  0.29631473  1
  Zr  Zr12  1  0.70631996  0.70855551  0.48967625  1
  Zr  Zr13  1  0.11284886  0.10341249  0.69438823  1
  Zr  Zr14  1  0.70117101  0.10571272  0.92260502  1
  Zr  Zr15  1  0.70030106  0.89831084  0.69319123  1
  Zr  Zr16  1  0.49344446  0.69446967  0.70196120  1
  Zr  Zr17  1  0.30327279  0.49809788  0.09555235  1
  Zr  Zr18  1  0.29789164  0.50109937  0.90594697  1
  Zr  Zr19  1  0.48795001  0.49618898  0.50223365  1
  Zr  Zr20  1  0.69163866  0.29676798  0.30238226  1
  Zr  Zr21  1  0.89328130  0.09093831  0.09781369  1
  Zr  Zr22  1  0.49871731  0.10307067  0.49297884  1
  Zr  Zr23  1  0.30601744  0.50589097  0.30192774  1
  Zr  Zr24  1  0.70681500  0.49997325  0.09411509  1
  Zr  Zr25  1  0.29970089  0.89488138  0.90523289  1
  Zr  Zr26  1  0.50509541  0.30573000  0.70253989  1
  Zr  Zr27  1  0.89558105  0.50719212  0.90468101  1
  Zr  Zr28  1  0.70600192  0.30379732  0.70326793  1
  Zr  Zr29  1  0.10271285  0.50542530  0.50071718  1
  Zr  Zr30  1  0.89811403  0.30534981  0.70780551  1
  Zr  Zr31  1  0.29902882  0.90298153  0.49127311  1
  Zr  Zr32  1  0.30298992  0.49947782  0.49915807  1
  Zr  Zr33  1  0.49385466  0.50075355  0.09558180  1
  Zr  Zr34  1  0.90192232  0.30360950  0.50976430  1
  Zr  Zr35  1  0.49897788  0.70389340  0.90135894  1
  Zr  Zr36  1  0.70437547  0.49878320  0.49995885  1
  Zr  Zr37  1  0.89921713  0.10608766  0.49475464  1
  Zr  Zr38  1  0.28858819  0.89781223  0.10298890  1
  Zr  Zr39  1  0.49600101  0.10451271  0.70326729  1
  Zr  Zr40  1  0.90442797  0.69597711  0.49096659  1
  Zr  Zr41  1  0.49599438  0.69328793  0.49987328  1
  Zr  Zr42  1  0.70222139  0.70274425  0.90318196  1
  Zr  Zr43  1  0.70728753  0.49183444  0.30185991  1
  Zr  Zr44  1  0.09979435  0.10574494  0.50063811  1
  Zr  Zr45  1  0.29438794  0.69630597  0.71831542  1
  Zr  Zr46  1  0.89915015  0.89568794  0.90013706  1
  Zr  Zr47  1  0.10086763  0.89709490  0.91132311  1
  Zr  Zr48  1  0.09555463  0.89089085  0.70327464  1
  Zr  Zr49  1  0.70736427  0.10073024  0.49526856  1
  Sc  Sc50  1  0.69604377  0.70188253  0.70181124  1
  Sc  Sc51  1  0.29830180  0.49805252  0.69586778  1
  Sc  Sc52  1  0.10626048  0.09822113  0.29411749  1
  Sc  Sc53  1  0.09718727  0.30668767  0.29211428  1
  Sc  Sc54  1  0.10045955  0.30694097  0.70329109  1
  Sc  Sc55  1  0.69346657  0.70312842  0.09479976  1
  Sc  Sc56  1  0.50010661  0.90020279  0.49870089  1
  Sc  Sc57  1  0.49798012  0.29804175  0.90234101  1
  Sc  Sc58  1  0.49920360  0.50419545  0.89835300  1
  Sc  Sc59  1  0.90750187  0.69804745  0.09548264  1
  Sc  Sc60  1  0.89570007  0.30462051  0.09734229  1
  Sc  Sc61  1  0.70290341  0.89187272  0.29370610  1
  Sc  Sc62  1  0.70058128  0.50984110  0.89829515  1
  Sc  Sc63  1  0.09806609  0.50281314  0.69997194  1
  Sc  Sc64  1  0.29598876  0.69419096  0.90668287  1
  Sc  Sc65  1  0.10443760  0.09540482  0.09168009  1
  Sc  Sc66  1  0.70089633  0.10375193  0.68955847  1
  Sc  Sc67  1  0.29580116  0.68785473  0.48836679  1
  Sc  Sc68  1  0.69847189  0.89957340  0.10198399  1
  Sc  Sc69  1  0.49326673  0.90261217  0.29461618  1
  Sc  Sc70  1  0.69725137  0.30051366  0.50192290  1
  Sc  Sc71  1  0.89218136  0.11175934  0.69910020  1
  Sc  Sc72  1  0.10559689  0.30059289  0.09868248  1
  Sc  Sc73  1  0.49758545  0.50405405  0.69670300  1
  Sc  Sc74  1  0.09983912  0.70692351  0.08990104  1
  Sc  Sc75  1  0.69896463  0.29361748  0.09831174  1
  Sc  Sc76  1  0.10346030  0.89687938  0.49355880  1
  Sc  Sc77  1  0.90589061  0.30939181  0.30713640  1
  Sc  Sc78  1  0.49977327  0.70161069  0.09673565  1
  Sc  Sc79  1  0.69332339  0.49588056  0.70131735  1
  Sc  Sc80  1  0.90943292  0.89666052  0.09754023  1
  Sc  Sc81  1  0.30810808  0.09464057  0.29885682  1
  Sc  Sc82  1  0.90834397  0.49778381  0.49458363  1
  Sc  Sc83  1  0.29047226  0.30382831  0.90653692  1
  Sc  Sc84  1  0.89975951  0.89572330  0.28711853  1
  Sc  Sc85  1  0.49815449  0.30015009  0.11036330  1
  Sc  Sc86  1  0.29782862  0.09366360  0.50663237  1
  Sc  Sc87  1  0.91123151  0.70352707  0.69845559  1
  Sc  Sc88  1  0.09205928  0.30503661  0.50395309  1
  Sc  Sc89  1  0.09624832  0.70274148  0.31167651  1
  Sc  Sc90  1  0.29571790  0.10803024  0.90205194  1
  Sc  Sc91  1  0.49811660  0.29635203  0.30655274  1
  Sc  Sc92  1  0.89247795  0.89305670  0.50092560  1
  Sc  Sc93  1  0.89868549  0.89150755  0.70142578  1
  Sc  Sc94  1  0.09132727  0.49759958  0.10464659  1
  Sc  Sc95  1  0.30107980  0.70753139  0.30127708  1
  Sc  Sc96  1  0.90221810  0.49669739  0.69804251  1
  Sc  Sc97  1  0.50256424  0.89946512  0.09715256  1
  Sc  Sc98  1  0.49834752  0.70820156  0.29508447  1
  Sc  Sc99  1  0.90004836  0.70145705  0.89755776  1
  Nb  Nb100  1  0.70283092  0.09689363  0.29715694  1
  Nb  Nb101  1  0.48941065  0.29755791  0.49859188  1
  Nb  Nb102  1  0.89443642  0.69164015  0.30605852  1
  Nb  Nb103  1  0.30036316  0.10530513  0.10141452  1
  Nb  Nb104  1  0.69719062  0.09847135  0.10958103  1
  Nb  Nb105  1  0.89261494  0.29702077  0.89511417  1
  Nb  Nb106  1  0.09586207  0.49658396  0.29809295  1
  Nb  Nb107  1  0.10057325  0.70217989  0.70224034  1
  Nb  Nb108  1  0.11155470  0.90261450  0.29853708  1
  Nb  Nb109  1  0.91226064  0.50146402  0.29210230  1
  Nb  Nb110  1  0.90115851  0.50184225  0.10192963  1
  Nb  Nb111  1  0.31198662  0.30785706  0.49611384  1
  Nb  Nb112  1  0.30074879  0.10406024  0.70350741  1
  Nb  Nb113  1  0.09652087  0.09721228  0.90301046  1
  Nb  Nb114  1  0.69964730  0.90191968  0.49861736  1
  Nb  Nb115  1  0.50225270  0.90371534  0.90287471  1
  Nb  Nb116  1  0.70092115  0.29919280  0.89876322  1
  Nb  Nb117  1  0.50392581  0.49888270  0.29746211  1
  Nb  Nb118  1  0.09768292  0.49688038  0.89695534  1
  Nb  Nb119  1  0.30392119  0.29264939  0.70563701  1
  Nb  Nb120  1  0.69892385  0.89547331  0.89628552  1
  Nb  Nb121  1  0.28740990  0.90092869  0.30120670  1
  Nb  Nb122  1  0.29657400  0.69238594  0.10187122  1
  Nb  Nb123  1  0.89659631  0.09821339  0.29998640  1
  Nb  Nb124  1  0.10559544  0.69864565  0.88609610  1
  Nb  Nb125  1  0.19954233  0.60040371  0.19989985  1
  Nb  Nb126  1  -0.00209986  0.00238489  0.39671999  1
  Nb  Nb127  1  0.19818165  0.00329148  0.80267021  1
  Nb  Nb128  1  0.39865604  0.19785927  0.00758801  1
  Nb  Nb129  1  0.79549036  0.00033994  0.80544765  1
  Nb  Nb130  1  0.39636443  0.20526804  0.60226446  1
  Nb  Nb131  1  0.39634782  0.39507230  0.79949411  1
  Nb  Nb132  1  0.80652077  0.59564913  0.20171308  1
  Nb  Nb133  1  0.20298284  0.79475373  0.60183506  1
  Nb  Nb134  1  0.60431786  0.19723194  0.80579938  1
  Nb  Nb135  1  -0.00857402  0.19398057  0.19977090  1
  Nb  Nb136  1  0.59926834  0.59530111  0.39468393  1
  Nb  Nb137  1  0.60990173  0.00004541  0.39937547  1
  Nb  Nb138  1  -0.00010670  0.00151753  0.59908605  1
  Nb  Nb139  1  0.60247517  0.00055144  0.80733281  1
  Nb  Nb140  1  0.39103158  0.79523271  0.60132245  1
  Nb  Nb141  1  0.60278829  0.39889357  -0.00282137  1
  Nb  Nb142  1  0.80138456  0.60115470  0.59415724  1
  Nb  Nb143  1  -0.00776755  0.40315397  -0.00711556  1
  Nb  Nb144  1  0.60430338  0.59432828  0.20395605  1
  Nb  Nb145  1  0.20491508  0.39886356  0.39878387  1
  Nb  Nb146  1  0.80150591  0.19325413  0.20481243  1
  Nb  Nb147  1  0.00064832  0.00564326  0.80007087  1
  Nb  Nb148  1  0.20578912  0.21026985  0.40171181  1
  Nb  Nb149  1  0.39909904  0.00179091  0.80361582  1
  Pd  Pd150  1  0.18868324  0.59576165  0.00637946  1
  Pd  Pd151  1  0.40203810  0.60539952  0.20213952  1
  Pd  Pd152  1  0.40305746  0.00196922  0.60152229  1
  Pd  Pd153  1  0.19445464  0.19974559  0.80747562  1
  Pd  Pd154  1  0.39656111  0.79613809  0.00861124  1
  Pd  Pd155  1  -0.00089591  0.20008629  0.61095188  1
  Pd  Pd156  1  0.01044411  0.19856142  0.38810721  1
  Pd  Pd157  1  0.59994299  0.80079501  0.80068088  1
  Pd  Pd158  1  0.59147246  0.40155888  0.40839928  1
  Pd  Pd159  1  -0.00107201  0.59917787  0.79649681  1
  Pd  Pd160  1  0.80971417  -0.00089144  0.60646096  1
  Pd  Pd161  1  0.20092637  0.39335117  0.59717481  1
  Pd  Pd162  1  0.80557504  0.78967785  0.18997805  1
  Pd  Pd163  1  0.39827847  0.80601928  0.79956376  1
  Pd  Pd164  1  0.19654011  0.01146793  0.39869409  1
  Pd  Pd165  1  -0.00508473  0.81208228  0.39402191  1
  Pd  Pd166  1  0.59543030  0.80483991  0.39633375  1
  Pd  Pd167  1  0.59887714  0.00217308  0.59504373  1
  Pd  Pd168  1  0.59879891  0.40161792  0.19238715  1
  Pd  Pd169  1  0.00510236  0.61180517  0.20192661  1
  Pd  Pd170  1  0.00721493  0.59855648  -0.00457105  1
  Pd  Pd171  1  0.39529952  -0.00373336  0.19679509  1
  Pd  Pd172  1  0.20349226  0.40836097  0.20335958  1
  Pd  Pd173  1  0.80151271  0.21097441  0.39547141  1
  Pd  Pd174  1  0.59381630  0.79460237  0.59466584  1
  Pd  Pd175  1  0.80265219  0.79076173  0.60223815  1
  Pd  Pd176  1  0.59686109  0.39940863  0.59371251  1
  Pd  Pd177  1  0.20314018  0.60640324  0.60599581  1
  Pd  Pd178  1  0.79819280  0.39675403  -0.00615153  1
  Pd  Pd179  1  0.39124990  0.00471311  0.00140533  1
  Pd  Pd180  1  0.79838051  0.41090875  0.80368360  1
  Pd  Pd181  1  0.20444063  0.40180464  0.79913728  1
  Pd  Pd182  1  0.00429969  0.79235590  0.20642309  1
  Pd  Pd183  1  -0.00287193  0.20644307  0.01052386  1
  Pd  Pd184  1  0.80556697  0.39411632  0.20186117  1
  Pd  Pd185  1  0.79619847  -0.01070854  0.00091994  1
  Pd  Pd186  1  0.39866305  0.80230641  0.40269864  1
  Pd  Pd187  1  0.19558700  0.19755706  0.20281074  1
  Pd  Pd188  1  0.80210928  -0.01187255  0.39310948  1
  Pd  Pd189  1  0.80318884  0.60375031  0.78655156  1
  Pd  Pd190  1  0.00454542  0.00335477  0.20393866  1
  Pd  Pd191  1  0.60842872  0.60322146  0.59262996  1
  Pd  Pd192  1  0.39647653  0.80457034  0.19320658  1
  Pd  Pd193  1  0.80767832  0.39678602  0.40215543  1
  Pd  Pd194  1  0.20905337  0.21479525  0.59097437  1
  Pd  Pd195  1  0.80226654  0.79844733  0.00711801  1
  Pd  Pd196  1  0.59858457  0.59941810  0.80117902  1
  Pd  Pd197  1  0.19275280  0.78802569  0.20374651  1
  Pd  Pd198  1  0.59674396  0.20448090  0.60070782  1
  Pd  Pd199  1  0.00429614  0.19624442  0.79296846  1
  Rh  Rh200  1  -0.00370924  0.39132579  0.18923031  1
  Rh  Rh201  1  0.59516072  0.39613992  0.81092460  1
  Rh  Rh202  1  0.80115841  0.60979484  0.00843584  1
  Rh  Rh203  1  -0.00462477  0.40347851  0.80783975  1
  Rh  Rh204  1  0.78845794  0.19174603  0.80267015  1
  Rh  Rh205  1  0.79682005  -0.00044193  0.19808914  1
  Rh  Rh206  1  0.60926057  -0.01091669  0.00049448  1
  Rh  Rh207  1  0.18378366  0.40719883  0.00031305  1
  Rh  Rh208  1  0.39049668  0.19150652  0.40651212  1
  Rh  Rh209  1  0.20396148  0.19753135  0.00090621  1
  Rh  Rh210  1  0.59368133  0.21140811  0.00243847  1
  Rh  Rh211  1  0.40797581  0.39140313  -0.00623782  1
  Rh  Rh212  1  0.79911547  0.20840255  0.59705077  1
  Rh  Rh213  1  0.80146563  0.58995810  0.39824801  1
  Rh  Rh214  1  0.20216021  0.79705235  0.40439327  1
  Rh  Rh215  1  0.19522625  0.59036318  0.80138627  1
  Rh  Rh216  1  0.20125514  0.79194872  -0.00100566  1
  Rh  Rh217  1  0.39640642  0.58800169  0.80375149  1
  Rh  Rh218  1  0.39889465  0.39417161  0.61220788  1
  Rh  Rh219  1  0.79909274  0.80034048  0.79496238  1
  Rh  Rh220  1  0.80183647  0.40638216  0.60109764  1
  Rh  Rh221  1  0.40232113  0.60748780  -0.00316977  1
  Rh  Rh222  1  0.00237239  0.79381826  -0.00738373  1
  Rh  Rh223  1  0.20478891  0.00476163  -0.00164194  1
  Rh  Rh224  1  0.59625132  0.79661758  0.19650506  1
  Rh  Rh225  1  0.40517130  0.19394671  0.19240847  1
  Rh  Rh226  1  0.41208656  0.60230047  0.39008395  1
  Rh  Rh227  1  0.60256298  0.19496837  0.40168521  1
  Rh  Rh228  1  0.00870837  0.40478405  0.40212784  1
  Rh  Rh229  1  0.00208710  0.40326829  0.60407940  1
  Rh  Rh230  1  0.80580039  0.80776379  0.39448588  1
  Rh  Rh231  1  0.19960062  0.80529978  0.80268222  1
  Rh  Rh232  1  0.60427512  0.20176737  0.20174940  1
  Rh  Rh233  1  0.60450861  -0.00778517  0.20885712  1
  Rh  Rh234  1  0.40391825  0.20209952  0.80443578  1
  Rh  Rh235  1  0.59787549  0.59464611  0.00466383  1
  Rh  Rh236  1  0.18897057  -0.01076182  0.60311911  1
  Rh  Rh237  1  -0.00179943  -0.00177113  -0.00336230  1
  Rh  Rh238  1  0.00383513  0.59326960  0.39582750  1
  Rh  Rh239  1  0.40386931  0.40155157  0.20420528  1
  Rh  Rh240  1  0.19229521  0.59220285  0.38781882  1
  Rh  Rh241  1  0.59821694  0.80422622  -0.00233439  1
  Rh  Rh242  1  0.40188605  0.40292285  0.38991860  1
  Rh  Rh243  1  0.38851871  0.60830577  0.60579078  1
  Rh  Rh244  1  0.80180299  0.20531471  0.01090300  1
  Rh  Rh245  1  0.40475736  -0.00078082  0.39508093  1
  Rh  Rh246  1  -0.00576911  0.59911600  0.60359662  1
  Rh  Rh247  1  0.00137377  0.79927638  0.80831003  1
  Rh  Rh248  1  0.20419852  0.00563324  0.19782737  1
  Rh  Rh249  1  0.00660002  0.80392039  0.59417399  1
