# generated using pymatgen
data_ZrScNbPdRh
_symmetry_space_group_name_H-M   'P 1'
_cell_length_a   16.56504110
_cell_length_b   16.56569029
_cell_length_c   16.55637946
_cell_angle_alpha   89.98719522
_cell_angle_beta   89.99450683
_cell_angle_gamma   90.04026276
_symmetry_Int_Tables_number   1
_chemical_formula_structural   ZrScNbPdRh
_chemical_formula_sum   'Zr50 Sc50 Nb50 Pd50 Rh50'
_cell_volume   4543.25702474
_cell_formula_units_Z   50
loop_
 _symmetry_equiv_pos_site_id
 _symmetry_equiv_pos_as_xyz
  1  'x, y, z'
loop_
 _atom_site_type_symbol
 _atom_site_label
 _atom_site_symmetry_multiplicity
 _atom_site_fract_x
 _atom_site_fract_y
 _atom_site_fract_z
 _atom_site_occupancy
  Zr  Zr0  1  0.29413253  0.69027184  0.51231939  1
  Zr  Zr1  1  0.70882975  0.69379069  0.91656438  1
  Zr  Zr2  1  0.89734441  0.90261273  0.28976714  1
  Zr  Zr3  1  0.31285121  0.50173711  0.09887629  1
  Zr  Zr4  1  0.11113741  0.90388737  0.69534015  1
  Zr  Zr5  1  0.30101707  0.28616399  0.29880925  1
  Zr  Zr6  1  0.50415083  0.70272134  0.50581499  1
  Zr  Zr7  1  0.09673573  0.30483258  0.09311254  1
  Zr  Zr8  1  0.10122398  0.09686762  0.70096285  1
  Zr  Zr9  1  0.89684159  0.29747733  0.70418999  1
  Zr  Zr10  1  0.50112650  0.49722946  0.28945373  1
  Zr  Zr11  1  0.89497517  0.10298890  0.70895574  1
  Zr  Zr12  1  0.89610016  0.29242014  0.48689935  1
  Zr  Zr13  1  0.89328655  0.49336702  0.90306736  1
  Zr  Zr14  1  0.28919636  0.89628550  0.50073923  1
  Zr  Zr15  1  0.69810014  0.48942229  0.30005025  1
  Zr  Zr16  1  0.89565755  0.10047662  0.49789308  1
  Zr  Zr17  1  0.90314149  0.90371838  0.50158888  1
  Zr  Zr18  1  0.11230895  0.50803938  0.49987776  1
  Zr  Zr19  1  0.30037453  0.50049057  0.30191250  1
  Zr  Zr20  1  0.89680681  0.49915106  0.49908111  1
  Zr  Zr21  1  0.49672175  0.70265531  0.29994484  1
  Zr  Zr22  1  0.50792664  0.48946334  0.90729634  1
  Zr  Zr23  1  0.29635647  0.70686131  0.71216094  1
  Zr  Zr24  1  0.69439980  0.48995199  0.49989550  1
  Zr  Zr25  1  0.89893616  0.70751162  0.09611304  1
  Zr  Zr26  1  0.09560552  0.90366495  0.90150226  1
  Zr  Zr27  1  0.09650477  0.50488569  0.30007135  1
  Zr  Zr28  1  0.29991637  0.29744717  0.09106758  1
  Zr  Zr29  1  0.70236214  0.89700380  0.10508183  1
  Zr  Zr30  1  0.90341346  0.10314418  0.90041924  1
  Zr  Zr31  1  0.10404215  0.89860241  0.29593190  1
  Zr  Zr32  1  0.50300423  0.90130958  0.49858192  1
  Zr  Zr33  1  0.69639685  0.29192709  0.69978578  1
  Zr  Zr34  1  0.89667826  0.70470782  0.50307487  1
  Zr  Zr35  1  0.29843048  0.90439690  0.29702289  1
  Zr  Zr36  1  0.90422158  0.90513476  0.90074409  1
  Zr  Zr37  1  0.69332349  0.10092297  0.90461215  1
  Zr  Zr38  1  0.30459706  0.51320332  0.69365438  1
  Zr  Zr39  1  0.49965452  0.28956812  0.90137302  1
  Zr  Zr40  1  0.50407482  0.29284743  0.70218966  1
  Zr  Zr41  1  0.49905961  0.29999125  0.09289739  1
  Zr  Zr42  1  0.69790686  0.10281105  0.49975720  1
  Zr  Zr43  1  0.09931967  0.90016455  0.50144258  1
  Zr  Zr44  1  0.90450835  0.89954192  0.70503710  1
  Zr  Zr45  1  0.10072985  0.70515299  0.50027852  1
  Zr  Zr46  1  0.09582207  0.50236525  0.10121918  1
  Zr  Zr47  1  0.30214696  0.70421339  0.89845228  1
  Zr  Zr48  1  0.69725731  0.50209037  0.08463166  1
  Zr  Zr49  1  0.50358730  0.89866743  0.70304863  1
  Sc  Sc50  1  0.69251893  0.09996071  0.10182845  1
  Sc  Sc51  1  0.50047732  0.69701386  0.10508139  1
  Sc  Sc52  1  0.70164460  0.70408811  0.69377775  1
  Sc  Sc53  1  0.30680845  0.51202742  0.90604333  1
  Sc  Sc54  1  0.29268661  0.11222864  0.90158918  1
  Sc  Sc55  1  0.49570783  0.69466149  0.70505749  1
  Sc  Sc56  1  0.10478484  0.09420204  0.29480760  1
  Sc  Sc57  1  0.49147653  0.70171927  0.90066130  1
  Sc  Sc58  1  0.09154047  0.09276587  0.49740054  1
  Sc  Sc59  1  0.29108643  0.29595099  0.49725303  1
  Sc  Sc60  1  0.69373502  0.89533478  0.89986396  1
  Sc  Sc61  1  0.90004322  0.49134826  0.70184057  1
  Sc  Sc62  1  0.70300238  0.29975792  0.49525082  1
  Sc  Sc63  1  0.69709849  0.29316138  0.30192392  1
  Sc  Sc64  1  0.31277107  0.70212537  0.09731461  1
  Sc  Sc65  1  0.90644251  0.70064590  0.29774914  1
  Sc  Sc66  1  0.89557996  0.10058196  0.30562116  1
  Sc  Sc67  1  0.50446029  0.89861231  0.09982776  1
  Sc  Sc68  1  0.09770538  0.30131413  0.49986112  1
  Sc  Sc69  1  0.30078585  0.10282144  0.49163699  1
  Sc  Sc70  1  0.09662738  0.70996135  0.10200870  1
  Sc  Sc71  1  0.90730115  0.49479309  0.09788817  1
  Sc  Sc72  1  0.10325768  0.50182579  0.89998005  1
  Sc  Sc73  1  0.91220413  0.49951712  0.29739235  1
  Sc  Sc74  1  0.50317207  0.29787315  0.29606478  1
  Sc  Sc75  1  0.50241409  0.09939996  0.30361553  1
  Sc  Sc76  1  0.69477621  0.90129931  0.70461274  1
  Sc  Sc77  1  0.70313752  0.48395057  0.69896948  1
  Sc  Sc78  1  0.89692872  0.10525900  0.09690710  1
  Sc  Sc79  1  0.69335324  0.89701023  0.50077734  1
  Sc  Sc80  1  0.69787094  0.90379592  0.29557596  1
  Sc  Sc81  1  0.69963278  0.70569472  0.50268651  1
  Sc  Sc82  1  0.09802314  0.29937768  0.69898851  1
  Sc  Sc83  1  0.50330676  0.89436876  0.90319553  1
  Sc  Sc84  1  0.29860131  0.28083340  0.69522795  1
  Sc  Sc85  1  0.09535055  0.91172010  0.10492498  1
  Sc  Sc86  1  0.50000888  0.89808095  0.30231586  1
  Sc  Sc87  1  0.30283235  0.71103430  0.29552445  1
  Sc  Sc88  1  0.90383073  0.29714178  0.90149902  1
  Sc  Sc89  1  0.50752507  0.49939581  0.69736924  1
  Sc  Sc90  1  0.69779936  0.30827145  0.90070649  1
  Sc  Sc91  1  0.50914319  0.29386287  0.50033759  1
  Sc  Sc92  1  0.69769227  0.71003331  0.29614196  1
  Sc  Sc93  1  0.90872674  0.71457433  0.89277963  1
  Sc  Sc94  1  0.09434836  0.30221481  0.30750653  1
  Sc  Sc95  1  0.90151303  0.30033077  0.08837165  1
  Sc  Sc96  1  0.09872275  0.49629912  0.69913773  1
  Sc  Sc97  1  0.09394815  0.10237319  0.90409746  1
  Sc  Sc98  1  0.28633736  0.10732606  0.10056069  1
  Sc  Sc99  1  0.09513142  0.70145818  0.30004440  1
  Nb  Nb100  1  0.09636454  0.70104503  0.71310567  1
  Nb  Nb101  1  0.30013381  0.30247481  0.90286465  1
  Nb  Nb102  1  0.49754494  0.49764084  0.10065398  1
  Nb  Nb103  1  0.90237443  0.69919198  0.70065798  1
  Nb  Nb104  1  0.89985938  0.30035820  0.29854631  1
  Nb  Nb105  1  0.69927881  0.09722850  0.29437547  1
  Nb  Nb106  1  0.49894225  0.49938262  0.50205884  1
  Nb  Nb107  1  0.90389583  0.90162386  0.09931229  1
  Nb  Nb108  1  0.30033206  0.09272095  0.69645160  1
  Nb  Nb109  1  0.30356425  0.09929754  0.29277536  1
  Nb  Nb110  1  0.49993810  0.09888711  0.90645898  1
  Nb  Nb111  1  0.10542854  0.29920931  0.90244277  1
  Nb  Nb112  1  0.70635496  0.29430997  0.09753138  1
  Nb  Nb113  1  0.69559812  0.10144676  0.69835974  1
  Nb  Nb114  1  0.50441144  0.09256697  0.51071782  1
  Nb  Nb115  1  0.70866481  0.69721898  0.10284358  1
  Nb  Nb116  1  0.29843830  0.90544251  0.70213409  1
  Nb  Nb117  1  0.30099506  0.50122186  0.50260036  1
  Nb  Nb118  1  0.70276451  0.49910154  0.89953015  1
  Nb  Nb119  1  0.30394564  0.89756877  0.89780511  1
  Nb  Nb120  1  0.50300380  0.10185205  0.69986076  1
  Nb  Nb121  1  0.30260301  0.90186888  0.09700581  1
  Nb  Nb122  1  0.50277105  0.09641282  0.08644170  1
  Nb  Nb123  1  0.09349267  0.10226950  0.10130086  1
  Nb  Nb124  1  0.10313427  0.70454130  0.89779421  1
  Nb  Nb125  1  0.79932070  0.59996848  0.80147044  1
  Nb  Nb126  1  0.80087093  0.39776544  0.19775062  1
  Nb  Nb127  1  0.21150060  0.39511131  0.80307502  1
  Nb  Nb128  1  0.20127202  0.40181189  0.19911836  1
  Nb  Nb129  1  0.39979674  0.00168175  0.60410561  1
  Nb  Nb130  1  0.39871436  0.00580032  0.80038340  1
  Nb  Nb131  1  0.00136828  0.60744229  -0.00622272  1
  Nb  Nb132  1  0.61170600  0.59480643  0.80796071  1
  Nb  Nb133  1  -0.00254918  0.60693150  0.60524437  1
  Nb  Nb134  1  0.40317760  0.59478252  0.40580675  1
  Nb  Nb135  1  0.39821966  0.40033558  0.59726430  1
  Nb  Nb136  1  -0.00142634  0.20192541  0.19996174  1
  Nb  Nb137  1  0.80032102  -0.00309054  0.00095261  1
  Nb  Nb138  1  0.39683006  0.00222391  -0.00204142  1
  Nb  Nb139  1  0.79485963  0.59731244  0.39553863  1
  Nb  Nb140  1  0.39626387  0.00533837  0.19332018  1
  Nb  Nb141  1  0.79733355  0.59684880  0.19708084  1
  Nb  Nb142  1  0.39973483  0.40370338  0.40634384  1
  Nb  Nb143  1  -0.00855162  0.19790547  0.60069611  1
  Nb  Nb144  1  0.79676258  0.00542908  0.60531478  1
  Nb  Nb145  1  0.59847830  0.59595492  0.40000536  1
  Nb  Nb146  1  0.20141588  0.59651054  0.19718084  1
  Nb  Nb147  1  0.20388797  0.80662195  -0.00372319  1
  Nb  Nb148  1  0.39524472  0.39476199  0.79707981  1
  Nb  Nb149  1  0.39426864  0.80675385  0.60525978  1
  Pd  Pd150  1  0.80124352  0.00721994  0.19141699  1
  Pd  Pd151  1  0.18703062  0.20729056  0.20043556  1
  Pd  Pd152  1  0.59950547  0.19586343  0.39973849  1
  Pd  Pd153  1  0.79184856  0.20523463  0.81080803  1
  Pd  Pd154  1  -0.00237238  0.80399909  0.39438985  1
  Pd  Pd155  1  0.00137504  -0.00056989  0.38944605  1
  Pd  Pd156  1  0.00571477  0.79707700  0.60791230  1
  Pd  Pd157  1  0.79689569  0.81247516  0.60452226  1
  Pd  Pd158  1  0.40149928  0.19842182  0.59084127  1
  Pd  Pd159  1  0.20668262  0.61181982  0.38889711  1
  Pd  Pd160  1  0.19860219  0.59127789  0.79929810  1
  Pd  Pd161  1  0.80047672  0.59742716  0.60363896  1
  Pd  Pd162  1  0.20318922  0.79693043  0.18999771  1
  Pd  Pd163  1  0.39930802  0.00455971  0.39912744  1
  Pd  Pd164  1  -0.00189724  0.39856198  0.59350396  1
  Pd  Pd165  1  0.80205386  0.81079665  -0.00172636  1
  Pd  Pd166  1  0.79168994  -0.00125245  0.80389628  1
  Pd  Pd167  1  0.18902830  0.19178882  0.59117700  1
  Pd  Pd168  1  0.20257508  0.00010393  -0.00022402  1
  Pd  Pd169  1  0.80129577  0.38956054  0.59792168  1
  Pd  Pd170  1  0.20456071  0.39534771  0.39502615  1
  Pd  Pd171  1  0.59033199  0.60651106  -0.00114638  1
  Pd  Pd172  1  0.60838571  0.39230032  0.18905307  1
  Pd  Pd173  1  0.19510955  0.61281094  0.00740715  1
  Pd  Pd174  1  0.79848742  0.79836479  0.39462912  1
  Pd  Pd175  1  0.19048995  0.19180637  0.39971905  1
  Pd  Pd176  1  0.40844946  0.19050296  0.19117365  1
  Pd  Pd177  1  0.19980941  0.00564792  0.40000778  1
  Pd  Pd178  1  0.60762214  0.59762120  0.60405225  1
  Pd  Pd179  1  0.19556011  0.20234136  0.80097768  1
  Pd  Pd180  1  0.20329138  0.00467496  0.81130388  1
  Pd  Pd181  1  0.00850476  0.39626480  0.80608468  1
  Pd  Pd182  1  0.00163162  0.40393433  0.40571238  1
  Pd  Pd183  1  0.39743041  0.19586900  0.80251998  1
  Pd  Pd184  1  0.79448548  0.79439396  0.80044066  1
  Pd  Pd185  1  0.60327611  0.78403368  0.80268996  1
  Pd  Pd186  1  0.80599974  0.20351787  0.20085794  1
  Pd  Pd187  1  0.59408258  0.00357027  0.80323869  1
  Pd  Pd188  1  0.59787624  0.79298032  0.00642413  1
  Pd  Pd189  1  0.20304215  0.40730804  -0.00204000  1
  Pd  Pd190  1  0.79148730  -0.00485463  0.40461180  1
  Pd  Pd191  1  -0.00771295  0.59565359  0.80179507  1
  Pd  Pd192  1  0.40781319  0.20168872  0.40578793  1
  Pd  Pd193  1  0.20850409  0.39597309  0.61014095  1
  Pd  Pd194  1  0.39357252  0.79327552  0.41032127  1
  Pd  Pd195  1  0.39489844  0.39065428  0.20488864  1
  Pd  Pd196  1  0.59494813  0.19478841  0.19498705  1
  Pd  Pd197  1  0.59683529  0.80036194  0.19788584  1
  Pd  Pd198  1  0.60393042  0.00096122  0.39347590  1
  Pd  Pd199  1  0.60677351  0.60191631  0.20104586  1
  Rh  Rh200  1  0.59457415  0.39099972  0.59993652  1
  Rh  Rh201  1  0.59389038  0.80069222  0.60537384  1
  Rh  Rh202  1  0.79472591  0.19447853  -0.00421862  1
  Rh  Rh203  1  0.19505671  0.80808055  0.80542882  1
  Rh  Rh204  1  0.00366732  0.40604450  -0.01000237  1
  Rh  Rh205  1  0.39641876  0.60342760  0.20387625  1
  Rh  Rh206  1  0.80122528  0.19690387  0.60021260  1
  Rh  Rh207  1  -0.00792431  0.00495758  0.00739799  1
  Rh  Rh208  1  0.39569610  0.19215178  0.00181277  1
  Rh  Rh209  1  0.80503465  0.79519094  0.20269100  1
  Rh  Rh210  1  0.58903213  0.39973318  0.40123928  1
  Rh  Rh211  1  0.60296592  0.39212169  0.00610460  1
  Rh  Rh212  1  0.39840368  0.80577729  0.00256232  1
  Rh  Rh213  1  0.19884641  0.79727494  0.39663753  1
  Rh  Rh214  1  0.59143811  0.00315856  0.20089192  1
  Rh  Rh215  1  0.41008463  0.60108481  0.00068440  1
  Rh  Rh216  1  -0.01116415  0.00719004  0.60779181  1
  Rh  Rh217  1  0.80671495  0.40325656  0.38908802  1
  Rh  Rh218  1  0.20456302  0.00260040  0.19599828  1
  Rh  Rh219  1  0.18552000  0.60719978  0.61401967  1
  Rh  Rh220  1  -0.00085218  0.60845105  0.18772304  1
  Rh  Rh221  1  0.40207598  0.80955145  0.79576204  1
  Rh  Rh222  1  0.19280712  0.19923075  -0.00116502  1
  Rh  Rh223  1  0.60384471  0.79624404  0.39762167  1
  Rh  Rh224  1  0.00203480  0.19647333  0.39706429  1
  Rh  Rh225  1  0.40446065  0.81243498  0.19695999  1
  Rh  Rh226  1  0.60227663  -0.00748066  0.00091107  1
  Rh  Rh227  1  0.00625989  -0.00029745  0.79602627  1
  Rh  Rh228  1  0.60345269  0.00093056  0.60412443  1
  Rh  Rh229  1  0.40099864  0.39980724  -0.00627701  1
  Rh  Rh230  1  0.20627823  0.00855426  0.59010760  1
  Rh  Rh231  1  0.59523565  0.40265807  0.79731963  1
  Rh  Rh232  1  0.60253425  0.19912458  0.59727823  1
  Rh  Rh233  1  0.20038827  0.79292707  0.60908714  1
  Rh  Rh234  1  0.79904037  0.39774424  0.80109304  1
  Rh  Rh235  1  0.40596109  0.60388596  0.59911346  1
  Rh  Rh236  1  0.41718655  0.58502594  0.80582734  1
  Rh  Rh237  1  0.60608485  0.20621125  0.00202506  1
  Rh  Rh238  1  -0.00655010  0.01047565  0.19957455  1
  Rh  Rh239  1  0.00743929  0.20492967  0.79635834  1
  Rh  Rh240  1  0.00678041  0.80812025  0.79549569  1
  Rh  Rh241  1  0.81483915  0.60018697  0.00046332  1
  Rh  Rh242  1  0.79712834  0.39398189  0.00455528  1
  Rh  Rh243  1  -0.00106674  0.38585243  0.20039147  1
  Rh  Rh244  1  -0.00068763  0.80594034  0.20018432  1
  Rh  Rh245  1  0.79111823  0.19576655  0.38891073  1
  Rh  Rh246  1  0.60283284  0.19490787  0.80451951  1
  Rh  Rh247  1  -0.00806111  0.60292143  0.41426871  1
  Rh  Rh248  1  0.00429080  0.20001236  0.00311083  1
  Rh  Rh249  1  0.00910471  0.80121827  0.00122870  1
