# generated using pymatgen
data_ZrScNbPdRh
_symmetry_space_group_name_H-M   'P 1'
_cell_length_a   16.56059609
_cell_length_b   16.56459564
_cell_length_c   16.56175628
_cell_angle_alpha   90.01817980
_cell_angle_beta   89.97926913
_cell_angle_gamma   89.98554134
_symmetry_Int_Tables_number   1
_chemical_formula_structural   ZrScNbPdRh
_chemical_formula_sum   'Zr50 Sc50 Nb50 Pd50 Rh50'
_cell_volume   4543.21332074
_cell_formula_units_Z   50
loop_
 _symmetry_equiv_pos_site_id
 _symmetry_equiv_pos_as_xyz
  1  'x, y, z'
loop_
 _atom_site_type_symbol
 _atom_site_label
 _atom_site_symmetry_multiplicity
 _atom_site_fract_x
 _atom_site_fract_y
 _atom_site_fract_z
 _atom_site_occupancy
  Zr  Zr0  1  0.89900280  0.69844824  0.29878279  1
  Zr  Zr1  1  0.09554446  0.30155573  0.69442271  1
  Zr  Zr2  1  0.89742646  0.89886455  0.90428365  1
  Zr  Zr3  1  0.29913796  0.69799156  0.51398834  1
  Zr  Zr4  1  0.10058652  0.51095730  0.70313719  1
  Zr  Zr5  1  0.28904351  0.09940412  0.50325248  1
  Zr  Zr6  1  0.10116406  0.09813044  0.10331706  1
  Zr  Zr7  1  0.50122927  0.89388272  0.30232879  1
  Zr  Zr8  1  0.89138574  0.50038035  0.49835420  1
  Zr  Zr9  1  0.69400066  0.90706959  0.70045279  1
  Zr  Zr10  1  0.69304012  0.29588245  0.70250980  1
  Zr  Zr11  1  0.10705814  0.89759365  0.90459737  1
  Zr  Zr12  1  0.10082201  0.29478369  0.49668279  1
  Zr  Zr13  1  0.89377661  0.69583357  0.89978816  1
  Zr  Zr14  1  0.89579656  0.69853829  0.49373897  1
  Zr  Zr15  1  0.29961036  0.70626081  0.90033525  1
  Zr  Zr16  1  0.90934717  0.70549123  0.70106969  1
  Zr  Zr17  1  0.89739203  0.09331528  0.10808978  1
  Zr  Zr18  1  0.29834151  0.29580793  0.49668199  1
  Zr  Zr19  1  0.11161122  0.70898441  0.10000383  1
  Zr  Zr20  1  0.90355173  0.29129111  0.10669192  1
  Zr  Zr21  1  0.69639692  0.49376713  0.70364445  1
  Zr  Zr22  1  0.51625368  0.30807399  0.30719612  1
  Zr  Zr23  1  0.49690300  0.70608534  0.70264393  1
  Zr  Zr24  1  0.29779797  0.09890745  0.70112712  1
  Zr  Zr25  1  0.89077086  0.09255962  0.90177445  1
  Zr  Zr26  1  0.09057102  0.89566208  0.69916118  1
  Zr  Zr27  1  0.30531410  0.30028873  0.70175186  1
  Zr  Zr28  1  0.10273955  0.89763888  0.49874566  1
  Zr  Zr29  1  0.90325776  0.50673620  0.90196510  1
  Zr  Zr30  1  0.09978094  0.09287716  0.69646400  1
  Zr  Zr31  1  0.89445116  0.09316042  0.69594187  1
  Zr  Zr32  1  0.30247678  0.10284653  0.09358333  1
  Zr  Zr33  1  0.10188223  0.70412710  0.30113797  1
  Zr  Zr34  1  0.30003655  0.89619752  0.50410068  1
  Zr  Zr35  1  0.30296129  0.50335668  0.49692755  1
  Zr  Zr36  1  0.71116164  0.90406862  0.09711716  1
  Zr  Zr37  1  0.30114083  0.09581355  0.90417812  1
  Zr  Zr38  1  0.29981384  0.70126092  0.70420811  1
  Zr  Zr39  1  0.71236657  0.10634885  0.30763043  1
  Zr  Zr40  1  0.10193250  0.49879128  0.29485824  1
  Zr  Zr41  1  0.90221732  0.29863143  0.90648195  1
  Zr  Zr42  1  0.90449486  0.31437143  0.49844735  1
  Zr  Zr43  1  0.49973152  0.50905699  0.49094697  1
  Zr  Zr44  1  0.49838560  0.69168948  0.10365173  1
  Zr  Zr45  1  0.30117271  0.51291415  0.69562982  1
  Zr  Zr46  1  0.69578145  0.69327028  0.89830234  1
  Zr  Zr47  1  0.10271677  0.29128249  0.09821916  1
  Zr  Zr48  1  0.09348256  0.29944728  0.29189735  1
  Zr  Zr49  1  0.90375587  0.90135640  0.09462093  1
  Sc  Sc50  1  0.69957032  0.69960324  0.30342064  1
  Sc  Sc51  1  0.10827580  0.70282443  0.69994280  1
  Sc  Sc52  1  0.31351869  0.29325885  0.90460661  1
  Sc  Sc53  1  0.69675415  0.10530670  0.10950115  1
  Sc  Sc54  1  0.88643291  0.08839831  0.49875495  1
  Sc  Sc55  1  0.70661849  0.90098673  0.89483092  1
  Sc  Sc56  1  0.08801399  0.49122098  0.49457010  1
  Sc  Sc57  1  0.30196381  0.89557950  0.70336646  1
  Sc  Sc58  1  0.70515334  0.68874715  0.10211021  1
  Sc  Sc59  1  0.10657957  0.89742813  0.30514331  1
  Sc  Sc60  1  0.69954985  0.90225464  0.30243169  1
  Sc  Sc61  1  0.30168807  0.90362885  0.10000361  1
  Sc  Sc62  1  0.50344748  0.50405127  0.29899891  1
  Sc  Sc63  1  0.30005501  0.89885400  0.30117492  1
  Sc  Sc64  1  0.70316001  0.10011073  0.69943893  1
  Sc  Sc65  1  0.50563835  0.49886689  0.09880989  1
  Sc  Sc66  1  0.89996426  0.90025692  0.50268177  1
  Sc  Sc67  1  0.89482639  0.49553986  0.69536457  1
  Sc  Sc68  1  0.50146994  0.90395483  0.88722026  1
  Sc  Sc69  1  0.50126115  0.89936774  0.69528994  1
  Sc  Sc70  1  0.09970502  0.09146335  0.29836588  1
  Sc  Sc71  1  0.88885678  0.30051959  0.29856384  1
  Sc  Sc72  1  0.28680903  0.30071745  0.29959200  1
  Sc  Sc73  1  0.51246183  0.09459528  0.29293345  1
  Sc  Sc74  1  0.49964715  0.50280728  0.70306131  1
  Sc  Sc75  1  0.29987210  0.90497536  0.89785058  1
  Sc  Sc76  1  0.29270206  0.09782159  0.29674478  1
  Sc  Sc77  1  0.89834619  0.90381271  0.70213246  1
  Sc  Sc78  1  0.30572101  0.50943545  0.09604641  1
  Sc  Sc79  1  0.10265641  0.69316737  0.89573344  1
  Sc  Sc80  1  0.69298017  0.90142817  0.49534920  1
  Sc  Sc81  1  0.89063584  0.30180535  0.69637672  1
  Sc  Sc82  1  0.68883247  0.69382944  0.70207547  1
  Sc  Sc83  1  0.10554287  0.09331196  0.90893029  1
  Sc  Sc84  1  0.30727337  0.50754226  0.90051347  1
  Sc  Sc85  1  0.50659776  0.49854554  0.90867812  1
  Sc  Sc86  1  0.09852023  0.50408428  0.09934334  1
  Sc  Sc87  1  0.69778681  0.49687868  0.29593332  1
  Sc  Sc88  1  0.30327128  0.70595442  0.28856866  1
  Sc  Sc89  1  0.89357831  0.90396151  0.30126127  1
  Sc  Sc90  1  0.69414983  0.50301517  0.10198915  1
  Sc  Sc91  1  0.68860693  0.30067017  0.89504974  1
  Sc  Sc92  1  0.49669316  0.10667997  0.90127526  1
  Sc  Sc93  1  0.50452656  0.69512108  0.30223518  1
  Sc  Sc94  1  0.50381827  0.30039293  0.89973521  1
  Sc  Sc95  1  0.89539311  0.50927429  0.10196915  1
  Sc  Sc96  1  0.89870230  0.49827220  0.30205475  1
  Sc  Sc97  1  0.90076648  0.70337652  0.10193801  1
  Sc  Sc98  1  0.48948991  0.91173336  0.10667997  1
  Sc  Sc99  1  0.51294845  0.09454911  0.70224715  1
  Nb  Nb100  1  0.30756571  0.70505999  0.09437062  1
  Nb  Nb101  1  0.29999025  0.49669967  0.30186795  1
  Nb  Nb102  1  0.09503956  0.90183203  0.09281804  1
  Nb  Nb103  1  0.70072962  0.30376099  0.30167437  1
  Nb  Nb104  1  0.09787867  0.29904282  0.90308544  1
  Nb  Nb105  1  0.09783018  0.09702345  0.50244003  1
  Nb  Nb106  1  0.69773865  0.50669526  0.50685304  1
  Nb  Nb107  1  0.68990740  0.29756441  0.48283656  1
  Nb  Nb108  1  0.50891949  0.70327459  0.50146229  1
  Nb  Nb109  1  0.50384297  0.29886776  0.49591188  1
  Nb  Nb110  1  0.09886988  0.49674525  0.89929597  1
  Nb  Nb111  1  0.10142191  0.70547223  0.49960325  1
  Nb  Nb112  1  0.50603546  0.29747559  0.09713969  1
  Nb  Nb113  1  0.50274824  0.70615531  0.90226974  1
  Nb  Nb114  1  0.30148457  0.29668074  0.10093057  1
  Nb  Nb115  1  0.70305717  0.49789018  0.90403043  1
  Nb  Nb116  1  0.50208286  0.30339147  0.69878275  1
  Nb  Nb117  1  0.69357832  0.30244126  0.10180332  1
  Nb  Nb118  1  0.89797862  0.10198528  0.29953079  1
  Nb  Nb119  1  0.69210701  0.69270038  0.50230353  1
  Nb  Nb120  1  0.50028562  0.89999697  0.49992881  1
  Nb  Nb121  1  0.69373324  0.10123559  0.90018107  1
  Nb  Nb122  1  0.49954118  0.10418946  0.09540257  1
  Nb  Nb123  1  0.69529011  0.10260289  0.50353559  1
  Nb  Nb124  1  0.50435377  0.09996349  0.49936312  1
  Nb  Nb125  1  0.00421421  0.39799456  0.80604418  1
  Nb  Nb126  1  0.20080375  0.60102645  0.39686655  1
  Nb  Nb127  1  0.40629928  0.80072996  0.41083405  1
  Nb  Nb128  1  0.79252081  0.20387491  0.00345743  1
  Nb  Nb129  1  0.59899479  0.00200255  0.00149904  1
  Nb  Nb130  1  0.79561720  0.39588737  0.00207725  1
  Nb  Nb131  1  -0.00100154  0.60577773  0.59368839  1
  Nb  Nb132  1  0.59929600  0.80139159  0.19124373  1
  Nb  Nb133  1  0.19445242  0.20481767  0.80336151  1
  Nb  Nb134  1  0.59562613  0.39545488  0.59160584  1
  Nb  Nb135  1  0.00153606  0.19977658  0.79849330  1
  Nb  Nb136  1  -0.00382026  0.19313265  0.40247834  1
  Nb  Nb137  1  0.40626088  0.20671871  0.19895968  1
  Nb  Nb138  1  0.59595455  0.80381143  0.00365497  1
  Nb  Nb139  1  0.40431180  0.39527597  0.59533800  1
  Nb  Nb140  1  0.20472606  0.40182538  0.60265466  1
  Nb  Nb141  1  0.19864968  0.39856434  0.80463957  1
  Nb  Nb142  1  0.39931957  0.39247720  0.19905652  1
  Nb  Nb143  1  0.40490686  0.00191846  0.40788111  1
  Nb  Nb144  1  0.41026749  0.20161411  0.59456065  1
  Nb  Nb145  1  0.40641971  0.79803385  0.00046372  1
  Nb  Nb146  1  -0.00266088  0.19244281  0.59499165  1
  Nb  Nb147  1  0.19853956  0.39581382  -0.00567033  1
  Nb  Nb148  1  0.79299527  0.79418226  0.59765990  1
  Nb  Nb149  1  0.40781993  0.19572733  0.39912333  1
  Pd  Pd150  1  0.80799822  0.20452183  0.40978084  1
  Pd  Pd151  1  0.20360971  0.80974555  0.19523195  1
  Pd  Pd152  1  0.19539525  0.40540027  0.40381948  1
  Pd  Pd153  1  0.20013258  -0.00729936  0.19536361  1
  Pd  Pd154  1  0.20056474  0.59505738  -0.00181336  1
  Pd  Pd155  1  0.78335195  0.39094663  0.59154235  1
  Pd  Pd156  1  -0.00447143  0.80655356  0.39765944  1
  Pd  Pd157  1  0.00037887  0.60369579  0.19584191  1
  Pd  Pd158  1  0.59898980  0.20095939  0.60111992  1
  Pd  Pd159  1  0.39814400  0.39913446  0.00590842  1
  Pd  Pd160  1  0.79719918  0.40277481  0.19292288  1
  Pd  Pd161  1  0.79361447  0.79810164  0.79029205  1
  Pd  Pd162  1  0.00030301  0.80818048  0.20496960  1
  Pd  Pd163  1  0.00165572  -0.00885509  0.20636159  1
  Pd  Pd164  1  0.40061852  0.40638923  0.79997485  1
  Pd  Pd165  1  0.00612265  0.59988119  0.40160877  1
  Pd  Pd166  1  0.39230950  0.61440025  0.39404975  1
  Pd  Pd167  1  0.00488864  0.79755399  0.81081863  1
  Pd  Pd168  1  0.79252050  0.79026537  0.00138093  1
  Pd  Pd169  1  0.40838409  0.60126094  0.80776224  1
  Pd  Pd170  1  0.60137244  0.20170943  0.20576266  1
  Pd  Pd171  1  -0.00477795  0.18629404  -0.00384974  1
  Pd  Pd172  1  0.79292513  0.80323528  0.40591605  1
  Pd  Pd173  1  0.39929739  0.39255599  0.39382477  1
  Pd  Pd174  1  0.39882695  0.59226532  0.20421981  1
  Pd  Pd175  1  0.80369902  0.39856132  0.80965577  1
  Pd  Pd176  1  0.79454020  0.79823402  0.20072922  1
  Pd  Pd177  1  -0.00158403  0.00186844  0.40033915  1
  Pd  Pd178  1  0.20782541  0.40706909  0.18563451  1
  Pd  Pd179  1  0.80097053  0.20663441  0.58908433  1
  Pd  Pd180  1  0.60112781  0.00414026  0.40091589  1
  Pd  Pd181  1  0.00216628  0.00343095  0.80883996  1
  Pd  Pd182  1  0.19906803  -0.01164064  0.60549885  1
  Pd  Pd183  1  0.80037544  0.19951148  0.80654246  1
  Pd  Pd184  1  0.60501699  0.80264854  0.60001301  1
  Pd  Pd185  1  0.40499703  0.19471655  0.79352340  1
  Pd  Pd186  1  -0.00137234  0.40458635  0.00609523  1
  Pd  Pd187  1  0.40446395  0.00625264  0.60094582  1
  Pd  Pd188  1  -0.00625892  0.40396401  0.19602613  1
  Pd  Pd189  1  0.59337910  0.59327538  0.80443564  1
  Pd  Pd190  1  0.80069160  0.59827574  0.79099150  1
  Pd  Pd191  1  0.60622245  -0.00543668  0.19409125  1
  Pd  Pd192  1  0.39780296  0.00988623  0.20981588  1
  Pd  Pd193  1  0.00192347  0.79049667  -0.00610764  1
  Pd  Pd194  1  0.40383568  0.00191746  0.79695040  1
  Pd  Pd195  1  0.80256497  0.60803848  0.60941124  1
  Pd  Pd196  1  0.19340175  0.19274607  0.38919025  1
  Pd  Pd197  1  0.79073193  0.59423482  0.39324361  1
  Pd  Pd198  1  0.00478777  0.60892201  0.00629289  1
  Pd  Pd199  1  0.20767595  0.59945661  0.20096873  1
  Rh  Rh200  1  0.60886324  0.41446840  0.40477653  1
  Rh  Rh201  1  0.59573307  0.40341655  0.79914693  1
  Rh  Rh202  1  0.59900128  0.19012875  0.39339066  1
  Rh  Rh203  1  0.40751434  0.79912031  0.19699418  1
  Rh  Rh204  1  0.60353882  0.19526679  -0.00156702  1
  Rh  Rh205  1  0.40523695  0.20238838  0.00499083  1
  Rh  Rh206  1  0.20884821  0.80542359  0.00433265  1
  Rh  Rh207  1  0.59615909  0.40082203  0.19697759  1
  Rh  Rh208  1  0.20145654  -0.00551822  0.00750221  1
  Rh  Rh209  1  0.60139702  0.60265298  -0.00184593  1
  Rh  Rh210  1  0.79732533  0.59446842  0.00211627  1
  Rh  Rh211  1  0.78831111  0.01261902  0.00150889  1
  Rh  Rh212  1  -0.00527795  0.79560416  0.59301894  1
  Rh  Rh213  1  0.80175261  0.60022848  0.20565713  1
  Rh  Rh214  1  0.39934839  0.80290622  0.80449355  1
  Rh  Rh215  1  0.79514179  -0.00096942  0.40153950  1
  Rh  Rh216  1  0.40503761  0.60806493  -0.00435674  1
  Rh  Rh217  1  0.20612224  0.20440916  -0.00524884  1
  Rh  Rh218  1  -0.00033317  0.19264353  0.21084870  1
  Rh  Rh219  1  0.59456623  0.59322466  0.60305542  1
  Rh  Rh220  1  0.79511369  0.20289324  0.19741400  1
  Rh  Rh221  1  0.78969311  -0.01095907  0.59567580  1
  Rh  Rh222  1  0.00227378  0.00120268  -0.00148272  1
  Rh  Rh223  1  -0.00401384  0.59737234  0.79351925  1
  Rh  Rh224  1  0.20441564  -0.00024234  0.40147667  1
  Rh  Rh225  1  0.60299493  0.80309606  0.80449720  1
  Rh  Rh226  1  0.19693562  0.20305979  0.60852137  1
  Rh  Rh227  1  0.19699657  0.80455423  0.60727771  1
  Rh  Rh228  1  0.21222304  0.78976835  0.40075169  1
  Rh  Rh229  1  0.60660285  0.59902913  0.39766342  1
  Rh  Rh230  1  0.00444594  0.40954207  0.61020064  1
  Rh  Rh231  1  0.79072204  0.40355358  0.40138696  1
  Rh  Rh232  1  0.79593623  0.00055933  0.79846408  1
  Rh  Rh233  1  0.19795983  0.80358293  0.79796088  1
  Rh  Rh234  1  0.20310972  0.19535006  0.19958524  1
  Rh  Rh235  1  0.41320393  0.60170915  0.60199040  1
  Rh  Rh236  1  -0.00442890  0.39256990  0.38469817  1
  Rh  Rh237  1  0.60252940  0.60431783  0.20291542  1
  Rh  Rh238  1  0.59519068  0.19838381  0.79894177  1
  Rh  Rh239  1  0.59763461  0.79448632  0.39543173  1
  Rh  Rh240  1  -0.00287206  0.00026110  0.59385129  1
  Rh  Rh241  1  0.40895558  -0.00558712  -0.00704623  1
  Rh  Rh242  1  0.20459581  0.59910974  0.80870570  1
  Rh  Rh243  1  0.40471894  0.79707131  0.59841508  1
  Rh  Rh244  1  0.80012021  0.00034297  0.20538736  1
  Rh  Rh245  1  0.60314259  0.00338241  0.80730702  1
  Rh  Rh246  1  0.19845952  0.00194022  0.79882702  1
  Rh  Rh247  1  0.18317768  0.59113366  0.58243239  1
  Rh  Rh248  1  0.60671745  0.39942015  0.00045526  1
  Rh  Rh249  1  0.60278592  0.00115264  0.59570896  1
