# generated using pymatgen
data_ZrScNbPdRh
_symmetry_space_group_name_H-M   'P 1'
_cell_length_a   16.56348155
_cell_length_b   16.57372331
_cell_length_c   16.56805765
_cell_angle_alpha   90.02944659
_cell_angle_beta   89.98173210
_cell_angle_gamma   90.02736030
_symmetry_Int_Tables_number   1
_chemical_formula_structural   ZrScNbPdRh
_chemical_formula_sum   'Zr50 Sc50 Nb50 Pd50 Rh50'
_cell_volume   4548.23798213
_cell_formula_units_Z   50
loop_
 _symmetry_equiv_pos_site_id
 _symmetry_equiv_pos_as_xyz
  1  'x, y, z'
loop_
 _atom_site_type_symbol
 _atom_site_label
 _atom_site_symmetry_multiplicity
 _atom_site_fract_x
 _atom_site_fract_y
 _atom_site_fract_z
 _atom_site_occupancy
  Zr  Zr0  1  0.29365847  0.90533579  0.30636857  1
  Zr  Zr1  1  0.90180625  0.29468169  0.70588473  1
  Zr  Zr2  1  0.30846362  0.50075818  0.09518076  1
  Zr  Zr3  1  0.89028812  0.50089747  0.29999983  1
  Zr  Zr4  1  0.09400760  0.49411122  0.89707901  1
  Zr  Zr5  1  0.30759108  0.70509389  0.29644466  1
  Zr  Zr6  1  0.89245088  0.49756465  0.49803361  1
  Zr  Zr7  1  0.69843005  0.70251306  0.90188390  1
  Zr  Zr8  1  0.50694475  0.11072381  0.29943528  1
  Zr  Zr9  1  0.89638938  0.09884022  0.90751439  1
  Zr  Zr10  1  0.70227860  0.30493734  0.49968439  1
  Zr  Zr11  1  0.09908997  0.49410553  0.49804903  1
  Zr  Zr12  1  0.89418979  0.09959645  0.10142348  1
  Zr  Zr13  1  0.89978032  0.90402643  0.09697771  1
  Zr  Zr14  1  0.30958118  0.89495758  0.70336136  1
  Zr  Zr15  1  0.50370558  0.69540059  0.69770144  1
  Zr  Zr16  1  0.10023071  0.30469936  0.30046973  1
  Zr  Zr17  1  0.30497931  0.71082784  0.49775805  1
  Zr  Zr18  1  0.50828126  0.69900272  0.90811969  1
  Zr  Zr19  1  0.30318713  0.11286397  0.70525221  1
  Zr  Zr20  1  0.30452878  0.49198513  0.70418022  1
  Zr  Zr21  1  0.30677351  0.10266390  0.90023742  1
  Zr  Zr22  1  0.89881933  0.70008322  0.90166360  1
  Zr  Zr23  1  0.50409321  0.09922572  0.90297607  1
  Zr  Zr24  1  0.10410707  0.09262943  0.30000801  1
  Zr  Zr25  1  0.09705663  0.90217419  0.10241618  1
  Zr  Zr26  1  0.50324887  0.29615277  0.49638221  1
  Zr  Zr27  1  0.50406960  0.50094911  0.50768831  1
  Zr  Zr28  1  0.70477680  0.50274213  0.49865934  1
  Zr  Zr29  1  0.70499307  0.30180190  0.90412425  1
  Zr  Zr30  1  0.10018639  0.10799196  0.89561304  1
  Zr  Zr31  1  0.30518947  0.69785737  0.69974313  1
  Zr  Zr32  1  0.50431156  0.50238039  0.28442166  1
  Zr  Zr33  1  0.70478724  0.90495983  0.70497865  1
  Zr  Zr34  1  0.09394817  0.49887891  0.30238084  1
  Zr  Zr35  1  0.09589129  0.89460064  0.70443674  1
  Zr  Zr36  1  0.10082248  0.49135580  0.09644731  1
  Zr  Zr37  1  0.29236376  0.30075582  0.10654720  1
  Zr  Zr38  1  0.49844036  0.29167681  0.69671229  1
  Zr  Zr39  1  0.30039767  0.49988447  0.50575274  1
  Zr  Zr40  1  0.69728029  0.70023345  0.09448191  1
  Zr  Zr41  1  0.51145085  0.29458143  0.09877767  1
  Zr  Zr42  1  0.09635274  0.70785650  0.09419233  1
  Zr  Zr43  1  0.08894478  0.30074925  0.90392630  1
  Zr  Zr44  1  0.69338840  0.50404082  0.69895964  1
  Zr  Zr45  1  0.30688341  0.30322602  0.50549542  1
  Zr  Zr46  1  0.49587004  0.50385139  0.90424691  1
  Zr  Zr47  1  0.88959987  0.50013474  0.10461271  1
  Zr  Zr48  1  0.09978717  0.49790250  0.70105071  1
  Zr  Zr49  1  0.10471059  0.29148811  0.70114112  1
  Sc  Sc50  1  0.09590876  0.90424642  0.30019702  1
  Sc  Sc51  1  0.30069938  0.29701042  0.89395455  1
  Sc  Sc52  1  0.10276080  0.69930812  0.50029813  1
  Sc  Sc53  1  0.09239330  0.10680171  0.69782980  1
  Sc  Sc54  1  0.09406453  0.70354221  0.89578135  1
  Sc  Sc55  1  0.30508882  0.90146697  0.49510109  1
  Sc  Sc56  1  0.10041141  0.90498805  0.48934756  1
  Sc  Sc57  1  0.30317254  0.10380235  0.29851669  1
  Sc  Sc58  1  0.51020963  0.89864625  0.09500112  1
  Sc  Sc59  1  0.49605204  0.50677944  0.70474058  1
  Sc  Sc60  1  0.30565093  0.09540824  0.49379190  1
  Sc  Sc61  1  0.90046184  0.09421139  0.69600458  1
  Sc  Sc62  1  0.09215459  0.10344450  0.10223514  1
  Sc  Sc63  1  0.89952721  0.09418759  0.50407502  1
  Sc  Sc64  1  0.50705797  0.88946022  0.29996784  1
  Sc  Sc65  1  0.90221473  0.49939334  0.70544551  1
  Sc  Sc66  1  0.70543978  0.90072870  0.49165317  1
  Sc  Sc67  1  0.09538643  0.88321885  0.90687661  1
  Sc  Sc68  1  0.89561996  0.70699560  0.29389088  1
  Sc  Sc69  1  0.09497523  0.09890533  0.50914699  1
  Sc  Sc70  1  0.30773763  0.89506835  0.09025489  1
  Sc  Sc71  1  0.49359290  0.90073338  0.49820365  1
  Sc  Sc72  1  0.50513591  0.10056532  0.50030211  1
  Sc  Sc73  1  0.69933331  0.29416484  0.29922514  1
  Sc  Sc74  1  0.30693433  0.48875476  0.29314700  1
  Sc  Sc75  1  0.09065936  0.69375183  0.70721746  1
  Sc  Sc76  1  0.50421823  0.50133620  0.09681255  1
  Sc  Sc77  1  0.88866227  0.29495463  0.29916778  1
  Sc  Sc78  1  0.89600877  0.29551135  0.90327005  1
  Sc  Sc79  1  0.89734187  0.48291610  0.89830160  1
  Sc  Sc80  1  0.89930728  0.89966085  0.29971339  1
  Sc  Sc81  1  0.88836465  0.89630148  0.90123494  1
  Sc  Sc82  1  0.29943269  0.10715370  0.10123740  1
  Sc  Sc83  1  0.50339265  0.91088748  0.70065416  1
  Sc  Sc84  1  0.49544170  0.29800452  0.29819446  1
  Sc  Sc85  1  0.69763051  0.70251343  0.70471194  1
  Sc  Sc86  1  0.69549024  0.29496518  0.70644601  1
  Sc  Sc87  1  0.89317036  0.10045333  0.29591934  1
  Sc  Sc88  1  0.89274811  0.70446631  0.10510463  1
  Sc  Sc89  1  0.69688300  0.89865189  0.90101174  1
  Sc  Sc90  1  0.50367027  0.29433049  0.90701143  1
  Sc  Sc91  1  0.69433458  0.09808076  0.49025665  1
  Sc  Sc92  1  0.31242190  0.70277819  0.09525545  1
  Sc  Sc93  1  0.89281967  0.90429255  0.49584216  1
  Sc  Sc94  1  0.70408153  0.90021047  0.29955023  1
  Sc  Sc95  1  0.89770443  0.70052429  0.70545717  1
  Sc  Sc96  1  0.70998712  0.70136102  0.49937878  1
  Sc  Sc97  1  0.09301223  0.70967448  0.30058225  1
  Sc  Sc98  1  0.30924682  0.71296568  0.90381567  1
  Sc  Sc99  1  0.70000390  0.70932442  0.29023531  1
  Nb  Nb100  1  0.09560229  0.30137957  0.49773482  1
  Nb  Nb101  1  0.69263829  0.09450067  0.10122261  1
  Nb  Nb102  1  0.51806473  0.10439558  0.70356542  1
  Nb  Nb103  1  0.69602756  0.10015811  0.89327199  1
  Nb  Nb104  1  0.50315719  0.69968064  0.11010112  1
  Nb  Nb105  1  0.69653622  0.49878268  0.90916618  1
  Nb  Nb106  1  0.89822376  0.29431168  0.09868383  1
  Nb  Nb107  1  0.89917808  0.90083851  0.69660746  1
  Nb  Nb108  1  0.50108454  0.70334452  0.49571164  1
  Nb  Nb109  1  0.70341973  0.30373750  0.09510135  1
  Nb  Nb110  1  0.70194911  0.10024818  0.29607171  1
  Nb  Nb111  1  0.30356274  0.29246069  0.30252695  1
  Nb  Nb112  1  0.69806696  0.50108201  0.29376881  1
  Nb  Nb113  1  0.89672920  0.30221049  0.49882568  1
  Nb  Nb114  1  0.30560436  0.50516096  0.89981713  1
  Nb  Nb115  1  0.69580199  0.49478972  0.10368911  1
  Nb  Nb116  1  0.30438590  0.29823725  0.69973305  1
  Nb  Nb117  1  0.68541875  0.09992686  0.70479089  1
  Nb  Nb118  1  0.50223800  0.69825392  0.29458054  1
  Nb  Nb119  1  0.70363195  0.89939717  0.09893124  1
  Nb  Nb120  1  0.09197293  0.30141752  0.09775810  1
  Nb  Nb121  1  0.30491725  0.90311028  0.89965773  1
  Nb  Nb122  1  0.48991296  0.90104330  0.90286221  1
  Nb  Nb123  1  0.90002975  0.70015934  0.49982135  1
  Nb  Nb124  1  0.50463372  0.10007552  0.10298748  1
  Nb  Nb125  1  0.60278802  0.40949895  0.39417144  1
  Nb  Nb126  1  -0.00369931  0.80155300  0.59774490  1
  Nb  Nb127  1  0.20273169  -0.00238799  -0.00901968  1
  Nb  Nb128  1  0.20384723  0.59912700  0.39367038  1
  Nb  Nb129  1  0.59882764  0.80038627  0.59713290  1
  Nb  Nb130  1  0.19987938  0.60373225  0.19744924  1
  Nb  Nb131  1  0.60041809  0.40315007  0.80713158  1
  Nb  Nb132  1  0.19961862  0.59865734  -0.00328960  1
  Nb  Nb133  1  0.79304997  0.59566558  0.80928591  1
  Nb  Nb134  1  0.19705197  0.20792133  0.40144410  1
  Nb  Nb135  1  0.40576266  0.60258749  0.39715869  1
  Nb  Nb136  1  0.20768108  0.59535711  0.80735912  1
  Nb  Nb137  1  -0.00372467  0.59973013  0.40269601  1
  Nb  Nb138  1  0.20154117  0.79974619  0.19777189  1
  Nb  Nb139  1  0.00224883  0.20652174  0.40384688  1
  Nb  Nb140  1  0.41009743  0.00535994  0.19639837  1
  Nb  Nb141  1  -0.00036967  0.39258183  0.59486270  1
  Nb  Nb142  1  0.59772657  0.60197442  0.39400590  1
  Nb  Nb143  1  0.79466859  0.19841113  0.60099068  1
  Nb  Nb144  1  0.20072273  -0.00381033  0.80300252  1
  Nb  Nb145  1  0.00056707  -0.00533621  0.80171246  1
  Nb  Nb146  1  0.20331593  -0.00455541  0.60999542  1
  Nb  Nb147  1  0.00045222  0.59533723  0.00229160  1
  Nb  Nb148  1  -0.00485206  0.39309351  0.19538575  1
  Nb  Nb149  1  0.19725306  0.80404065  0.60333264  1
  Pd  Pd150  1  0.60592165  0.79485514  0.40506641  1
  Pd  Pd151  1  0.20111887  0.39720855  0.80481541  1
  Pd  Pd152  1  0.00200545  0.59775222  0.19976501  1
  Pd  Pd153  1  0.39952123  0.00775749  0.60591915  1
  Pd  Pd154  1  0.00771535  -0.00121982  -0.00871794  1
  Pd  Pd155  1  0.40685308  0.39033238  0.19177343  1
  Pd  Pd156  1  0.79928765  0.80018635  0.60175107  1
  Pd  Pd157  1  -0.00361126  0.79650410  0.40590259  1
  Pd  Pd158  1  0.80383245  0.00493618  0.80123371  1
  Pd  Pd159  1  0.40044475  0.81376672  0.19930203  1
  Pd  Pd160  1  0.19712075  0.19831723  0.00115227  1
  Pd  Pd161  1  0.40009069  0.60148476  0.59538043  1
  Pd  Pd162  1  0.79688677  0.61180595  0.38924846  1
  Pd  Pd163  1  0.20505586  0.19455919  0.59059298  1
  Pd  Pd164  1  0.19672465  0.39353695  0.60380011  1
  Pd  Pd165  1  0.80253786  0.60420170  0.61228309  1
  Pd  Pd166  1  0.39909242  0.00414040  0.00899261  1
  Pd  Pd167  1  -0.00588436  0.59947156  0.59482356  1
  Pd  Pd168  1  0.79951689  -0.00345512  0.20267287  1
  Pd  Pd169  1  0.40807504  0.40562163  0.39773908  1
  Pd  Pd170  1  0.60483673  -0.00827749  0.59192100  1
  Pd  Pd171  1  0.60378818  -0.00265783  -0.00499006  1
  Pd  Pd172  1  0.40513500  0.19030984  0.59588018  1
  Pd  Pd173  1  0.59607822  0.39788695  0.60631771  1
  Pd  Pd174  1  0.79138288  0.19350018  0.00556311  1
  Pd  Pd175  1  0.39986498  0.38974293  0.00176681  1
  Pd  Pd176  1  0.79752049  0.39140373  0.20134228  1
  Pd  Pd177  1  0.59432830  0.80948222  0.79535350  1
  Pd  Pd178  1  0.40999172  0.39127647  0.80226556  1
  Pd  Pd179  1  0.80377258  0.19198593  0.40710703  1
  Pd  Pd180  1  0.41123024  0.00196996  0.38723664  1
  Pd  Pd181  1  0.19808819  0.40251153  0.20177616  1
  Pd  Pd182  1  0.19914797  0.60810230  0.60281146  1
  Pd  Pd183  1  0.59765547  -0.00661506  0.20595440  1
  Pd  Pd184  1  0.20283247  0.79471323  0.80033113  1
  Pd  Pd185  1  0.21081659  0.39930585  0.39811314  1
  Pd  Pd186  1  0.60844885  0.20496537  0.19919190  1
  Pd  Pd187  1  0.80077761  0.18860628  0.79388045  1
  Pd  Pd188  1  -0.00685841  0.00911927  0.39777460  1
  Pd  Pd189  1  0.21277661  -0.00607878  0.18637735  1
  Pd  Pd190  1  0.41333862  0.79624242  0.80026637  1
  Pd  Pd191  1  0.80443398  0.39422489  0.61320318  1
  Pd  Pd192  1  0.19541361  0.20004727  0.20475615  1
  Pd  Pd193  1  0.39968059  0.20423820  0.00694120  1
  Pd  Pd194  1  0.59780788  -0.00297791  0.39448958  1
  Pd  Pd195  1  0.40372540  0.00842236  0.79434813  1
  Pd  Pd196  1  0.80451118  0.59502344  -0.00299956  1
  Pd  Pd197  1  0.20802926  0.39845285  -0.00865728  1
  Pd  Pd198  1  0.78883000  0.00825449  0.59846952  1
  Pd  Pd199  1  -0.00277689  0.20164062  0.20797795  1
  Rh  Rh200  1  0.40621444  0.39870798  0.60776837  1
  Rh  Rh201  1  0.60419497  0.80331224  0.19325915  1
  Rh  Rh202  1  0.41036149  0.20007032  0.80053462  1
  Rh  Rh203  1  0.60882464  0.19628800  0.59304212  1
  Rh  Rh204  1  0.40699525  0.80271556  0.60177362  1
  Rh  Rh205  1  0.79779859  0.80521124  0.00377556  1
  Rh  Rh206  1  0.19653587  0.01185809  0.41045518  1
  Rh  Rh207  1  0.40222782  0.19788668  0.19467601  1
  Rh  Rh208  1  0.20389707  0.80199428  0.00355910  1
  Rh  Rh209  1  0.60476387  0.61371312  0.58853668  1
  Rh  Rh210  1  -0.01389649  0.20700001  0.59178837  1
  Rh  Rh211  1  -0.00690111  0.59537349  0.81242802  1
  Rh  Rh212  1  -0.00771435  0.00284529  0.20209418  1
  Rh  Rh213  1  0.60000300  0.40112166  -0.00120803  1
  Rh  Rh214  1  0.79280280  0.39793945  0.39142110  1
  Rh  Rh215  1  -0.01451159  0.39970187  0.01012076  1
  Rh  Rh216  1  -0.00309310  0.19979684  0.00239730  1
  Rh  Rh217  1  -0.00992129  0.19223946  0.80579431  1
  Rh  Rh218  1  0.59780508  0.80449216  0.00165179  1
  Rh  Rh219  1  0.60593125  0.59218530  0.80882938  1
  Rh  Rh220  1  0.61096302  0.19226608  -0.00006127  1
  Rh  Rh221  1  0.00165600  0.80820411  0.19971178  1
  Rh  Rh222  1  0.78580697  0.40863034  0.79799632  1
  Rh  Rh223  1  0.40506658  0.80038266  0.39459837  1
  Rh  Rh224  1  -0.01331883  0.79523670  0.00371479  1
  Rh  Rh225  1  0.80103282  0.39932269  0.00527356  1
  Rh  Rh226  1  0.60691743  0.60383717  0.19613291  1
  Rh  Rh227  1  0.00490599  -0.01163119  0.60547646  1
  Rh  Rh228  1  0.19813735  0.79865747  0.39746645  1
  Rh  Rh229  1  -0.01665394  0.39908526  0.39776660  1
  Rh  Rh230  1  0.59699976  -0.00558731  0.80964867  1
  Rh  Rh231  1  -0.01389113  0.80662592  0.79484247  1
  Rh  Rh232  1  0.79852142  0.00478782  0.39299922  1
  Rh  Rh233  1  0.79803881  0.80737514  0.19439456  1
  Rh  Rh234  1  0.60289907  0.20591952  0.39853196  1
  Rh  Rh235  1  0.80347156  0.79911027  0.39718539  1
  Rh  Rh236  1  0.78937052  0.19673291  0.19049899  1
  Rh  Rh237  1  0.79937030  0.79515346  0.79911810  1
  Rh  Rh238  1  0.40165639  0.60744586  0.00139576  1
  Rh  Rh239  1  0.59866802  0.59781790  0.00859187  1
  Rh  Rh240  1  0.39529128  0.19889050  0.40291556  1
  Rh  Rh241  1  0.59918257  0.20741962  0.81007559  1
  Rh  Rh242  1  0.41240537  0.79882793  0.00176907  1
  Rh  Rh243  1  0.00272185  0.39241543  0.78978078  1
  Rh  Rh244  1  0.20101726  0.20235719  0.80161098  1
  Rh  Rh245  1  0.39612998  0.60883285  0.80641616  1
  Rh  Rh246  1  0.60453003  0.39315100  0.19997754  1
  Rh  Rh247  1  0.78951972  0.60514806  0.19916252  1
  Rh  Rh248  1  0.78701222  0.00324999  -0.00062738  1
  Rh  Rh249  1  0.39652155  0.59959610  0.19890585  1
