# generated using pymatgen
data_ZrScNbPdRh
_symmetry_space_group_name_H-M   'P 1'
_cell_length_a   16.56104960
_cell_length_b   16.56279103
_cell_length_c   16.56162108
_cell_angle_alpha   90.00252277
_cell_angle_beta   90.01486536
_cell_angle_gamma   89.99456279
_symmetry_Int_Tables_number   1
_chemical_formula_structural   ZrScNbPdRh
_chemical_formula_sum   'Zr50 Sc50 Nb50 Pd50 Rh50'
_cell_volume   4542.80617398
_cell_formula_units_Z   50
loop_
 _symmetry_equiv_pos_site_id
 _symmetry_equiv_pos_as_xyz
  1  'x, y, z'
loop_
 _atom_site_type_symbol
 _atom_site_label
 _atom_site_symmetry_multiplicity
 _atom_site_fract_x
 _atom_site_fract_y
 _atom_site_fract_z
 _atom_site_occupancy
  Zr  Zr0  1  0.09749075  0.50374305  0.49419873  1
  Zr  Zr1  1  0.69240027  0.09535906  0.09740990  1
  Zr  Zr2  1  0.69831900  0.70042002  0.49918013  1
  Zr  Zr3  1  0.70207629  0.30700709  0.70061954  1
  Zr  Zr4  1  0.09632143  0.10186477  0.30333887  1
  Zr  Zr5  1  0.89353952  0.30489253  0.29638733  1
  Zr  Zr6  1  0.10204249  0.89713520  0.70876148  1
  Zr  Zr7  1  0.49420694  0.10197932  0.50044915  1
  Zr  Zr8  1  0.30518648  0.49672673  0.49587742  1
  Zr  Zr9  1  0.30168272  0.69600454  0.70549678  1
  Zr  Zr10  1  0.89733893  0.69836524  0.69373597  1
  Zr  Zr11  1  0.09653492  0.70263189  0.10052443  1
  Zr  Zr12  1  0.50325775  0.88585662  0.90290754  1
  Zr  Zr13  1  0.68947067  0.89803906  0.30063483  1
  Zr  Zr14  1  0.29652564  0.69524752  0.10234320  1
  Zr  Zr15  1  0.09649671  0.69574275  0.29376625  1
  Zr  Zr16  1  0.49892089  0.09409432  0.69823493  1
  Zr  Zr17  1  0.90118882  0.89458841  0.70298515  1
  Zr  Zr18  1  0.10829234  0.50997969  0.10456400  1
  Zr  Zr19  1  0.50703364  0.10285005  0.91516190  1
  Zr  Zr20  1  0.69972515  0.89314494  0.70257594  1
  Zr  Zr21  1  0.90242132  0.09414243  0.49562972  1
  Zr  Zr22  1  0.89777137  0.09186920  0.90060164  1
  Zr  Zr23  1  0.08983144  0.10651628  0.09493267  1
  Zr  Zr24  1  0.28850062  0.90336638  0.90919135  1
  Zr  Zr25  1  0.29366174  0.49868162  0.89273423  1
  Zr  Zr26  1  0.90951841  0.09793877  0.69840523  1
  Zr  Zr27  1  0.29913080  0.30185826  0.09588210  1
  Zr  Zr28  1  0.50152092  0.89047253  0.10427077  1
  Zr  Zr29  1  0.69939516  0.08783509  0.70349699  1
  Zr  Zr30  1  0.89809841  0.70317759  0.10184896  1
  Zr  Zr31  1  0.70484423  0.88954908  0.49227988  1
  Zr  Zr32  1  0.31358315  0.49920941  0.09665444  1
  Zr  Zr33  1  0.29938194  0.30354548  0.70093494  1
  Zr  Zr34  1  0.10665771  0.30633897  0.90594476  1
  Zr  Zr35  1  0.29781388  0.09947596  0.70074849  1
  Zr  Zr36  1  0.10589056  0.29677698  0.49971745  1
  Zr  Zr37  1  0.89847218  0.09871483  0.29355789  1
  Zr  Zr38  1  0.10256875  0.89692688  0.08507003  1
  Zr  Zr39  1  0.09821832  0.10610090  0.50474729  1
  Zr  Zr40  1  0.89806932  0.89461240  0.90125183  1
  Zr  Zr41  1  0.89872582  0.50056217  0.89592688  1
  Zr  Zr42  1  0.30477980  0.10482855  0.30389705  1
  Zr  Zr43  1  0.09711087  0.50612873  0.30083268  1
  Zr  Zr44  1  0.31066230  0.69661676  0.49944733  1
  Zr  Zr45  1  0.69716174  0.10037758  0.48886002  1
  Zr  Zr46  1  0.49902826  0.30426865  0.09965373  1
  Zr  Zr47  1  0.29836728  0.11614925  0.50319266  1
  Zr  Zr48  1  0.49991906  0.68788616  0.08952836  1
  Zr  Zr49  1  0.50702265  0.10310424  0.30393849  1
  Sc  Sc50  1  0.50070897  0.50178056  0.28119455  1
  Sc  Sc51  1  0.30213752  0.70217872  0.30563438  1
  Sc  Sc52  1  0.90311464  0.30083018  0.50286489  1
  Sc  Sc53  1  0.09961263  0.10239777  0.70165253  1
  Sc  Sc54  1  0.30078337  0.89427890  0.71222349  1
  Sc  Sc55  1  0.10398866  0.70237256  0.90118639  1
  Sc  Sc56  1  0.49539308  0.30335007  0.49676192  1
  Sc  Sc57  1  0.90223739  0.30035286  0.10409215  1
  Sc  Sc58  1  0.70366770  0.69710324  0.30240728  1
  Sc  Sc59  1  0.89188400  0.90011533  0.30337333  1
  Sc  Sc60  1  0.70014669  0.09544548  0.29798404  1
  Sc  Sc61  1  0.69796417  0.51549149  0.50642408  1
  Sc  Sc62  1  0.09296865  0.89180132  0.49440024  1
  Sc  Sc63  1  0.09329306  0.69619449  0.70694797  1
  Sc  Sc64  1  0.50259982  0.29766470  0.29301581  1
  Sc  Sc65  1  0.09755734  0.29532543  0.70682468  1
  Sc  Sc66  1  0.89734242  0.31148980  0.89783298  1
  Sc  Sc67  1  0.30519095  0.89166346  0.48988908  1
  Sc  Sc68  1  0.70271607  0.89438422  0.90132246  1
  Sc  Sc69  1  0.69957592  0.89915284  0.09900074  1
  Sc  Sc70  1  0.09177007  0.30509896  0.30401317  1
  Sc  Sc71  1  0.70428956  0.69636946  0.09694573  1
  Sc  Sc72  1  0.70083251  0.30329205  0.49949847  1
  Sc  Sc73  1  0.88842921  0.69871316  0.89806066  1
  Sc  Sc74  1  0.70004646  0.30079962  0.10489510  1
  Sc  Sc75  1  0.69723545  0.29144745  0.29582996  1
  Sc  Sc76  1  0.30819470  0.30171758  0.30650921  1
  Sc  Sc77  1  0.10543146  0.10099608  0.89759901  1
  Sc  Sc78  1  0.49633451  0.70719430  0.70374464  1
  Sc  Sc79  1  0.50107353  0.50757122  0.50288133  1
  Sc  Sc80  1  0.90099689  0.90045593  0.09490136  1
  Sc  Sc81  1  0.90062943  0.50693547  0.70505447  1
  Sc  Sc82  1  0.09592393  0.89426719  0.30411866  1
  Sc  Sc83  1  0.69788792  0.50000919  0.69613123  1
  Sc  Sc84  1  0.90118045  0.50419224  0.28868647  1
  Sc  Sc85  1  0.69926688  0.08326010  0.90599543  1
  Sc  Sc86  1  0.30419113  0.70296052  0.89587805  1
  Sc  Sc87  1  0.50290544  0.70436764  0.29520385  1
  Sc  Sc88  1  0.50394991  0.31205199  0.70425731  1
  Sc  Sc89  1  0.30405908  0.50540464  0.29765858  1
  Sc  Sc90  1  0.50368071  0.89745399  0.69928192  1
  Sc  Sc91  1  0.70497440  0.30905878  0.90352890  1
  Sc  Sc92  1  0.90286333  0.30724965  0.70267841  1
  Sc  Sc93  1  0.08971750  0.69638416  0.48994244  1
  Sc  Sc94  1  0.49673626  0.49951671  0.70340465  1
  Sc  Sc95  1  0.29712165  0.30435608  0.90646905  1
  Sc  Sc96  1  0.50164679  0.89489377  0.49818031  1
  Sc  Sc97  1  0.71376519  0.50237309  0.90857831  1
  Sc  Sc98  1  0.50236178  0.10400114  0.10182438  1
  Sc  Sc99  1  0.69559263  0.70060311  0.69514967  1
  Nb  Nb100  1  0.88839958  0.50014606  0.09341146  1
  Nb  Nb101  1  0.10442805  0.89330408  0.89890481  1
  Nb  Nb102  1  0.29660755  0.90341427  0.10061141  1
  Nb  Nb103  1  0.29337030  0.50065709  0.70081548  1
  Nb  Nb104  1  0.70241736  0.49940383  0.10552602  1
  Nb  Nb105  1  0.29603601  0.30019147  0.50114632  1
  Nb  Nb106  1  0.50983397  0.69940011  0.50509832  1
  Nb  Nb107  1  0.09597538  0.50094609  0.89219384  1
  Nb  Nb108  1  0.50636345  0.69704843  0.90383434  1
  Nb  Nb109  1  0.50212377  0.50047153  0.09573900  1
  Nb  Nb110  1  0.10047926  0.50309514  0.70742749  1
  Nb  Nb111  1  0.70168371  0.49485348  0.29248060  1
  Nb  Nb112  1  0.49695873  0.50470126  0.91259819  1
  Nb  Nb113  1  0.30368879  0.09656581  0.90401672  1
  Nb  Nb114  1  0.69271534  0.70283072  0.90405982  1
  Nb  Nb115  1  0.29586551  0.09393989  0.09473740  1
  Nb  Nb116  1  0.10661840  0.30319506  0.09569663  1
  Nb  Nb117  1  0.50714774  0.30148989  0.90334906  1
  Nb  Nb118  1  0.89871272  0.09883415  0.09599938  1
  Nb  Nb119  1  0.90159306  0.51486962  0.50514772  1
  Nb  Nb120  1  0.29887570  0.89981068  0.29860769  1
  Nb  Nb121  1  0.89187422  0.69829334  0.49917700  1
  Nb  Nb122  1  0.49588685  0.90159340  0.29529368  1
  Nb  Nb123  1  0.89343085  0.89045471  0.50222916  1
  Nb  Nb124  1  0.90076248  0.69714779  0.29522718  1
  Nb  Nb125  1  0.59630822  0.60100786  0.81257420  1
  Nb  Nb126  1  0.20009440  0.39657678  0.19642605  1
  Nb  Nb127  1  0.00853783  0.41105272  0.59989146  1
  Nb  Nb128  1  0.39952721  0.00514295  0.81140544  1
  Nb  Nb129  1  0.59713269  0.40830415  0.00459898  1
  Nb  Nb130  1  0.60408598  0.19777409  0.60593357  1
  Nb  Nb131  1  -0.00387398  0.59399678  -0.00044738  1
  Nb  Nb132  1  0.20176532  0.00239056  0.40028057  1
  Nb  Nb133  1  0.60778509  0.40896126  0.39263298  1
  Nb  Nb134  1  0.20215417  0.00105154  0.19980848  1
  Nb  Nb135  1  0.79740625  0.19178372  0.60509803  1
  Nb  Nb136  1  0.19874891  0.20079180  0.19522269  1
  Nb  Nb137  1  0.20039982  0.59673119  0.60229726  1
  Nb  Nb138  1  0.79565512  0.19513805  0.79995566  1
  Nb  Nb139  1  0.80381248  -0.00402174  0.59432905  1
  Nb  Nb140  1  0.80345771  0.19352503  -0.00086941  1
  Nb  Nb141  1  0.20025968  0.79383277  0.59834494  1
  Nb  Nb142  1  0.20388876  0.80738650  0.19901563  1
  Nb  Nb143  1  0.39535101  -0.00514307  0.20107070  1
  Nb  Nb144  1  0.40667376  0.19852429  0.80764932  1
  Nb  Nb145  1  0.00551072  0.40902185  0.00416745  1
  Nb  Nb146  1  0.20035815  0.40573692  0.60128152  1
  Nb  Nb147  1  0.60199128  0.20022336  0.80214945  1
  Nb  Nb148  1  0.79689272  0.41090725  0.39872337  1
  Nb  Nb149  1  0.20062028  -0.00709599  0.59448480  1
  Pd  Pd150  1  0.00456384  -0.00296011  -0.00844961  1
  Pd  Pd151  1  0.41455991  0.59973917  0.39283981  1
  Pd  Pd152  1  0.60682850  -0.00320941  0.58838224  1
  Pd  Pd153  1  0.20812084  0.20170782  0.80588545  1
  Pd  Pd154  1  0.79757907  -0.00394651  0.19642752  1
  Pd  Pd155  1  0.80365739  0.59688384  0.39439865  1
  Pd  Pd156  1  0.00724426  -0.00240123  0.80765909  1
  Pd  Pd157  1  0.39638028  0.80520707  0.60283110  1
  Pd  Pd158  1  0.60658045  0.78919946  0.19591167  1
  Pd  Pd159  1  -0.01383162  0.40768756  0.40633156  1
  Pd  Pd160  1  0.00165723  0.81022244  0.19954783  1
  Pd  Pd161  1  0.41362736  0.40389045  0.39087111  1
  Pd  Pd162  1  0.40734278  0.59764607  0.80346445  1
  Pd  Pd163  1  0.39811147  0.40053496  0.59994214  1
  Pd  Pd164  1  0.60467052  0.60542785  0.19800188  1
  Pd  Pd165  1  0.59446246  0.59610125  0.39181676  1
  Pd  Pd166  1  0.79687591  0.19522744  0.19195783  1
  Pd  Pd167  1  0.20326365  0.39765621  0.39377208  1
  Pd  Pd168  1  0.00463049  0.40397663  0.19112630  1
  Pd  Pd169  1  0.78744949  0.60296310  0.79418682  1
  Pd  Pd170  1  0.00092852  -0.00573154  0.40088464  1
  Pd  Pd171  1  -0.01214969  0.79422185  0.39597356  1
  Pd  Pd172  1  0.60589918  0.41048903  0.81298376  1
  Pd  Pd173  1  0.00231853  0.20607738  0.20024863  1
  Pd  Pd174  1  0.40957758  0.21251078  0.60871157  1
  Pd  Pd175  1  0.39311031  0.79562918  -0.00000093  1
  Pd  Pd176  1  0.39581682  0.20383082  -0.00181928  1
  Pd  Pd177  1  0.59756196  0.39941337  0.58824171  1
  Pd  Pd178  1  0.40864890  -0.00531283  0.00475874  1
  Pd  Pd179  1  0.20350333  0.60699263  0.40259407  1
  Pd  Pd180  1  -0.00693002  0.20637327  0.80929735  1
  Pd  Pd181  1  -0.00317909  0.79015086  0.80800814  1
  Pd  Pd182  1  0.00665353  0.79396918  0.59841682  1
  Pd  Pd183  1  0.40997359  0.79513658  0.39738440  1
  Pd  Pd184  1  0.39659682  0.19548977  0.19599556  1
  Pd  Pd185  1  0.79559541  0.80327788  0.20213181  1
  Pd  Pd186  1  0.59166702  -0.00296688  0.81003255  1
  Pd  Pd187  1  0.80975088  0.40480929  0.59435151  1
  Pd  Pd188  1  0.00370852  -0.01020693  0.59629872  1
  Pd  Pd189  1  0.19976301  0.60047713  -0.00902208  1
  Pd  Pd190  1  0.59438961  -0.00576469  0.40319997  1
  Pd  Pd191  1  0.39785137  -0.00041352  0.39880037  1
  Pd  Pd192  1  0.39423444  0.79695696  0.19920181  1
  Pd  Pd193  1  -0.00946378  0.21207612  -0.00759678  1
  Pd  Pd194  1  0.80185363  0.20867401  0.40408779  1
  Pd  Pd195  1  0.38871991  -0.01251817  0.60420502  1
  Pd  Pd196  1  0.40235271  0.59771152  0.60515280  1
  Pd  Pd197  1  -0.00759569  0.20367905  0.39899251  1
  Pd  Pd198  1  0.40071567  0.39742815  0.80793573  1
  Pd  Pd199  1  0.00321925  -0.00897617  0.19843188  1
  Rh  Rh200  1  0.40309421  0.60580518  0.20023615  1
  Rh  Rh201  1  0.19598560  0.39652680  0.79506652  1
  Rh  Rh202  1  0.59585548  0.21150116  0.40687292  1
  Rh  Rh203  1  0.60180984  0.19728704  0.19876174  1
  Rh  Rh204  1  0.20032606  0.79536072  0.79708777  1
  Rh  Rh205  1  0.80138451  0.60547794  0.00270278  1
  Rh  Rh206  1  0.20219170  0.00054148  0.79741396  1
  Rh  Rh207  1  0.79938127  0.40290305  0.79367783  1
  Rh  Rh208  1  0.39544623  0.39939438  0.20126150  1
  Rh  Rh209  1  0.20813395  0.60162258  0.20865670  1
  Rh  Rh210  1  0.80197286  -0.00389686  0.40106305  1
  Rh  Rh211  1  0.60512970  0.79718342  0.00741256  1
  Rh  Rh212  1  -0.00483470  0.79074529  -0.00828933  1
  Rh  Rh213  1  -0.01055109  0.59740602  0.19015724  1
  Rh  Rh214  1  0.40052186  0.80593486  0.80692678  1
  Rh  Rh215  1  0.00380881  0.59975985  0.60115751  1
  Rh  Rh216  1  0.80031777  0.38934505  0.01048753  1
  Rh  Rh217  1  0.19033427  0.00747870  -0.00065407  1
  Rh  Rh218  1  0.79734350  0.80027653  -0.00033858  1
  Rh  Rh219  1  0.00403031  0.39989724  0.79915234  1
  Rh  Rh220  1  0.19965442  0.80013120  0.39899674  1
  Rh  Rh221  1  0.79749246  0.60180428  0.60439552  1
  Rh  Rh222  1  -0.01164793  0.60352216  0.39391822  1
  Rh  Rh223  1  0.79539822  0.79492888  0.79959689  1
  Rh  Rh224  1  0.59584822  -0.01388347  0.00454379  1
  Rh  Rh225  1  0.60103511  0.39811425  0.19671533  1
  Rh  Rh226  1  0.40542115  0.39737110  -0.00644565  1
  Rh  Rh227  1  0.19612911  0.41416165  0.00417264  1
  Rh  Rh228  1  -0.00328767  0.21193801  0.60304562  1
  Rh  Rh229  1  0.79986938  -0.00034345  0.00728703  1
  Rh  Rh230  1  0.79818612  0.39931271  0.20142583  1
  Rh  Rh231  1  0.80056860  0.60114747  0.19911094  1
  Rh  Rh232  1  0.59104584  0.60482735  0.61457843  1
  Rh  Rh233  1  0.19602193  0.20408317  0.60789457  1
  Rh  Rh234  1  0.39162037  0.60292265  -0.00690538  1
  Rh  Rh235  1  0.59157294  0.00007631  0.19883862  1
  Rh  Rh236  1  0.79765967  0.80028436  0.60132009  1
  Rh  Rh237  1  0.19986828  0.20223979  0.39089678  1
  Rh  Rh238  1  0.80380519  0.79179095  0.39222487  1
  Rh  Rh239  1  0.80565599  -0.00336437  0.79299901  1
  Rh  Rh240  1  0.40570673  0.20757501  0.40276934  1
  Rh  Rh241  1  0.61516624  0.21234826  -0.00414148  1
  Rh  Rh242  1  0.20294293  0.19201660  0.00210740  1
  Rh  Rh243  1  0.60193436  0.79149678  0.79903155  1
  Rh  Rh244  1  0.19695569  0.60489854  0.79900709  1
  Rh  Rh245  1  0.61138464  0.59209509  -0.00258490  1
  Rh  Rh246  1  -0.00222935  0.60526398  0.80832266  1
  Rh  Rh247  1  0.59874428  0.79903103  0.59918714  1
  Rh  Rh248  1  0.20473814  0.79230994  0.00320243  1
  Rh  Rh249  1  0.59364674  0.79698004  0.39727035  1
