# generated using pymatgen
data_ZrScNbPdRh
_symmetry_space_group_name_H-M   'P 1'
_cell_length_a   16.56127012
_cell_length_b   16.55071110
_cell_length_c   16.55254235
_cell_angle_alpha   90.03278973
_cell_angle_beta   89.98567620
_cell_angle_gamma   90.01994124
_symmetry_Int_Tables_number   1
_chemical_formula_structural   ZrScNbPdRh
_chemical_formula_sum   'Zr50 Sc50 Nb50 Pd50 Rh50'
_cell_volume   4537.06389601
_cell_formula_units_Z   50
loop_
 _symmetry_equiv_pos_site_id
 _symmetry_equiv_pos_as_xyz
  1  'x, y, z'
loop_
 _atom_site_type_symbol
 _atom_site_label
 _atom_site_symmetry_multiplicity
 _atom_site_fract_x
 _atom_site_fract_y
 _atom_site_fract_z
 _atom_site_occupancy
  Zr  Zr0  1  0.10028566  0.30184002  0.90152390  1
  Zr  Zr1  1  0.10535849  0.90069734  0.50149296  1
  Zr  Zr2  1  0.10047149  0.50376133  0.30139819  1
  Zr  Zr3  1  0.29463013  0.69996898  0.30474897  1
  Zr  Zr4  1  0.90092535  0.91098401  0.50801327  1
  Zr  Zr5  1  0.29616803  0.10241356  0.70376284  1
  Zr  Zr6  1  0.30086247  0.08897628  0.50005703  1
  Zr  Zr7  1  0.10397485  0.70462685  0.89787414  1
  Zr  Zr8  1  0.69774104  0.69917220  0.49799428  1
  Zr  Zr9  1  0.29799466  0.89711474  0.50088500  1
  Zr  Zr10  1  0.50511273  0.29265067  0.50068132  1
  Zr  Zr11  1  0.90155880  0.69385687  0.69955449  1
  Zr  Zr12  1  0.29698913  0.30738843  0.09673714  1
  Zr  Zr13  1  0.50293502  0.09820688  0.90553583  1
  Zr  Zr14  1  0.30133771  0.91151655  0.69447949  1
  Zr  Zr15  1  0.10304606  0.49608715  0.10578967  1
  Zr  Zr16  1  0.30107854  0.70264920  0.89763700  1
  Zr  Zr17  1  0.70446257  0.29491666  0.69463615  1
  Zr  Zr18  1  0.49641048  0.50209144  0.09139303  1
  Zr  Zr19  1  0.30423526  0.10435811  0.09524344  1
  Zr  Zr20  1  0.29967357  0.90359449  0.89515002  1
  Zr  Zr21  1  0.69817702  0.10169553  0.09445658  1
  Zr  Zr22  1  0.30747886  0.09438331  0.29936534  1
  Zr  Zr23  1  0.69731551  0.48893711  0.09936269  1
  Zr  Zr24  1  0.50196998  0.70546359  0.30837185  1
  Zr  Zr25  1  0.10442755  0.10723313  0.90155437  1
  Zr  Zr26  1  0.90207029  0.69522906  0.50266279  1
  Zr  Zr27  1  0.70273635  0.90121300  0.10253476  1
  Zr  Zr28  1  0.90098549  0.49219344  0.89435839  1
  Zr  Zr29  1  0.90669511  0.69411627  0.29900750  1
  Zr  Zr30  1  0.50640411  0.69592401  0.70917748  1
  Zr  Zr31  1  0.09936812  0.70066191  0.29352101  1
  Zr  Zr32  1  0.69615003  0.10204395  0.90533678  1
  Zr  Zr33  1  0.10069525  0.69018607  0.70053754  1
  Zr  Zr34  1  0.90530143  0.49514246  0.30199390  1
  Zr  Zr35  1  0.50477322  0.09932611  0.69516190  1
  Zr  Zr36  1  0.09937103  0.69674420  0.50089722  1
  Zr  Zr37  1  0.10080671  0.29803928  0.69174718  1
  Zr  Zr38  1  0.70913627  0.10117393  0.30195752  1
  Zr  Zr39  1  0.30159854  0.49742192  0.10662801  1
  Zr  Zr40  1  0.90128765  0.30429308  0.69991331  1
  Zr  Zr41  1  0.89544189  0.71018059  0.89867904  1
  Zr  Zr42  1  0.49840021  0.90571884  0.09470555  1
  Zr  Zr43  1  0.70438613  0.49301348  0.70331481  1
  Zr  Zr44  1  0.09767715  0.89580832  0.29273223  1
  Zr  Zr45  1  0.30228027  0.29702793  0.70024040  1
  Zr  Zr46  1  0.10130310  0.89571355  0.89803528  1
  Zr  Zr47  1  0.89843627  0.10264181  0.69569703  1
  Zr  Zr48  1  0.70733356  0.70246746  0.09626928  1
  Zr  Zr49  1  0.49198110  0.69082241  0.50192778  1
  Sc  Sc50  1  0.89700231  0.29373914  0.89714346  1
  Sc  Sc51  1  0.50822883  0.49029141  0.70688850  1
  Sc  Sc52  1  0.70789992  0.49379724  0.49760986  1
  Sc  Sc53  1  0.49561941  0.50332311  0.29352910  1
  Sc  Sc54  1  0.30725585  0.70069657  0.09731692  1
  Sc  Sc55  1  0.70493451  0.49468736  0.29731026  1
  Sc  Sc56  1  0.10387572  0.10465046  0.69980243  1
  Sc  Sc57  1  0.89722498  0.70310643  0.10160405  1
  Sc  Sc58  1  0.89873854  0.10822836  0.29531802  1
  Sc  Sc59  1  0.70297876  0.89987125  0.89471646  1
  Sc  Sc60  1  0.49767994  0.89766614  0.89588172  1
  Sc  Sc61  1  0.30908988  0.90476908  0.09702233  1
  Sc  Sc62  1  0.10357491  0.29275163  0.09898842  1
  Sc  Sc63  1  0.89270874  0.91398700  0.29199607  1
  Sc  Sc64  1  0.90022242  0.29783866  0.49772302  1
  Sc  Sc65  1  0.48980223  0.89749920  0.50302096  1
  Sc  Sc66  1  0.30113105  0.70149226  0.50017060  1
  Sc  Sc67  1  0.69520528  0.49463712  0.90363458  1
  Sc  Sc68  1  0.49878136  0.09773512  0.09485964  1
  Sc  Sc69  1  0.89693405  0.89629285  0.10059802  1
  Sc  Sc70  1  0.50278417  0.30284549  0.90101815  1
  Sc  Sc71  1  0.09260682  0.30493284  0.29820251  1
  Sc  Sc72  1  0.09549624  0.49946552  0.69966429  1
  Sc  Sc73  1  0.89684648  0.29831646  0.30508494  1
  Sc  Sc74  1  0.09816536  0.49609627  0.49391364  1
  Sc  Sc75  1  0.09794884  0.90553702  0.70168818  1
  Sc  Sc76  1  0.50242196  0.90491844  0.70677895  1
  Sc  Sc77  1  0.09405858  0.29924091  0.49772243  1
  Sc  Sc78  1  0.69647669  0.09759008  0.70235992  1
  Sc  Sc79  1  0.10486275  0.50215428  0.88985286  1
  Sc  Sc80  1  0.69814965  0.30035622  0.10058492  1
  Sc  Sc81  1  0.70910042  0.29859352  0.50217562  1
  Sc  Sc82  1  0.28619562  0.30191930  0.49910041  1
  Sc  Sc83  1  0.29944710  0.89958220  0.30789872  1
  Sc  Sc84  1  0.69536836  0.70769953  0.30066874  1
  Sc  Sc85  1  0.29931716  0.69181008  0.69402680  1
  Sc  Sc86  1  0.69821036  0.69857536  0.89505268  1
  Sc  Sc87  1  0.29533140  0.50761940  0.49648917  1
  Sc  Sc88  1  0.51056791  0.30012974  0.70297416  1
  Sc  Sc89  1  0.70149891  0.29874531  0.29118010  1
  Sc  Sc90  1  0.89906767  0.49941666  0.49659606  1
  Sc  Sc91  1  0.70520392  0.10273545  0.50679682  1
  Sc  Sc92  1  0.70119203  0.29707289  0.90913144  1
  Sc  Sc93  1  0.30556078  0.48936123  0.91230490  1
  Sc  Sc94  1  0.89622275  0.09790097  0.10457462  1
  Sc  Sc95  1  0.70319788  0.69677209  0.71018778  1
  Sc  Sc96  1  0.89463951  0.10215944  0.89707835  1
  Sc  Sc97  1  0.89170358  0.50333316  0.10695547  1
  Sc  Sc98  1  0.88861136  0.30134278  0.09676482  1
  Sc  Sc99  1  0.09801115  0.10682893  0.50571291  1
  Nb  Nb100  1  0.89983868  0.10517501  0.49209229  1
  Nb  Nb101  1  0.29808320  0.30238057  0.29834535  1
  Nb  Nb102  1  0.49715161  0.10189303  0.49381617  1
  Nb  Nb103  1  0.28941573  0.49148757  0.29873907  1
  Nb  Nb104  1  0.49814534  0.69975891  0.09654697  1
  Nb  Nb105  1  0.49597248  0.49872839  0.49833541  1
  Nb  Nb106  1  0.70370089  0.90340664  0.49917831  1
  Nb  Nb107  1  0.09537272  0.70693391  0.10071363  1
  Nb  Nb108  1  0.49918735  0.10161136  0.30845218  1
  Nb  Nb109  1  0.90026291  0.49561219  0.70105199  1
  Nb  Nb110  1  0.29907660  0.11135965  0.90097068  1
  Nb  Nb111  1  0.50936419  0.30686851  0.11250217  1
  Nb  Nb112  1  0.90291961  0.90002995  0.89151095  1
  Nb  Nb113  1  0.29504604  0.29059469  0.90140957  1
  Nb  Nb114  1  0.50289964  0.29469591  0.30333732  1
  Nb  Nb115  1  0.50011817  0.90322761  0.29871500  1
  Nb  Nb116  1  0.09595393  0.09636882  0.10278410  1
  Nb  Nb117  1  0.69653986  0.89782232  0.69889235  1
  Nb  Nb118  1  0.09634355  0.89939865  0.09985763  1
  Nb  Nb119  1  0.89294915  0.90186869  0.70844657  1
  Nb  Nb120  1  0.49936058  0.69563911  0.90482735  1
  Nb  Nb121  1  0.09339814  0.10260970  0.29148932  1
  Nb  Nb122  1  0.50344217  0.50411312  0.90122958  1
  Nb  Nb123  1  0.30378348  0.49936763  0.70389359  1
  Nb  Nb124  1  0.69584772  0.90426673  0.30599093  1
  Nb  Nb125  1  0.40007801  0.39672022  0.39845376  1
  Nb  Nb126  1  0.19453689  0.00350326  0.00254886  1
  Nb  Nb127  1  0.59746813  0.00068174  0.20986752  1
  Nb  Nb128  1  0.20794500  0.39478578  0.79844750  1
  Nb  Nb129  1  0.59539709  0.79461512  0.00115824  1
  Nb  Nb130  1  0.19871263  0.19521383  0.38869899  1
  Nb  Nb131  1  0.00437149  -0.00418148  -0.00056300  1
  Nb  Nb132  1  0.59984142  0.59781399  0.59787036  1
  Nb  Nb133  1  0.80242620  0.80825869  0.40533521  1
  Nb  Nb134  1  0.40456493  0.59350921  0.80725368  1
  Nb  Nb135  1  0.60603827  0.79925071  0.60102105  1
  Nb  Nb136  1  0.19421189  0.60309847  0.00299047  1
  Nb  Nb137  1  0.40121554  0.40036243  0.59552542  1
  Nb  Nb138  1  0.40138018  0.19968055  0.59556639  1
  Nb  Nb139  1  0.59676317  0.60601379  0.19215970  1
  Nb  Nb140  1  0.79737429  0.80679245  0.60331070  1
  Nb  Nb141  1  0.00466140  0.60145815  0.00067346  1
  Nb  Nb142  1  0.19330945  0.00302971  0.19417775  1
  Nb  Nb143  1  0.40553372  0.20696009  0.20678026  1
  Nb  Nb144  1  0.59158188  0.39619472  0.39805009  1
  Nb  Nb145  1  0.40953159  0.80098079  0.20281217  1
  Nb  Nb146  1  0.00052966  0.00452837  0.39807734  1
  Nb  Nb147  1  0.00062439  0.40522267  -0.00127821  1
  Nb  Nb148  1  0.59742617  0.00127438  0.40048197  1
  Nb  Nb149  1  -0.00500707  0.80719072  0.40143865  1
  Pd  Pd150  1  0.38786268  0.20758390  0.40287791  1
  Pd  Pd151  1  0.60314715  0.20237574  0.80294119  1
  Pd  Pd152  1  0.59592795  -0.00508222  0.59076838  1
  Pd  Pd153  1  0.20471030  0.80149603  0.78453321  1
  Pd  Pd154  1  0.80325358  0.80063211  0.21174109  1
  Pd  Pd155  1  0.60703214  0.60402657  0.00254132  1
  Pd  Pd156  1  0.79694681  0.00356928  0.60498710  1
  Pd  Pd157  1  -0.00442440  0.40322786  0.59319968  1
  Pd  Pd158  1  0.40570552  0.79927405  0.60991504  1
  Pd  Pd159  1  0.20138929  0.60589594  0.19291870  1
  Pd  Pd160  1  0.00093768  0.19904158  0.79749539  1
  Pd  Pd161  1  0.79417587  0.39081586  0.80515366  1
  Pd  Pd162  1  0.59626491  0.80182361  0.19300517  1
  Pd  Pd163  1  0.79484447  0.59803289  0.60193650  1
  Pd  Pd164  1  0.41090248  0.21170195  0.00837914  1
  Pd  Pd165  1  0.00205292  0.00671675  0.80393371  1
  Pd  Pd166  1  0.20485661  0.40907060  0.60280032  1
  Pd  Pd167  1  0.59864358  0.80955996  0.41179640  1
  Pd  Pd168  1  0.39760941  0.79436975  0.79241429  1
  Pd  Pd169  1  -0.00405206  0.80223363  0.60419191  1
  Pd  Pd170  1  0.40714367  0.39055527  -0.00095925  1
  Pd  Pd171  1  0.59592735  0.18978209  0.19643016  1
  Pd  Pd172  1  -0.00497955  0.39292670  0.19157720  1
  Pd  Pd173  1  -0.00732840  0.80169074  0.00186471  1
  Pd  Pd174  1  0.79995074  0.59552180  0.80607295  1
  Pd  Pd175  1  0.40938115  0.19944955  0.79636698  1
  Pd  Pd176  1  0.81003583  -0.00430401  -0.00317545  1
  Pd  Pd177  1  -0.00882021  0.19962033  0.00576456  1
  Pd  Pd178  1  0.61369776  0.19973417  0.40319627  1
  Pd  Pd179  1  0.40145323  0.60683940  0.20683151  1
  Pd  Pd180  1  0.79392529  0.00491143  0.80033991  1
  Pd  Pd181  1  -0.00309680  0.59965840  0.80550663  1
  Pd  Pd182  1  0.80570348  0.59620158  -0.00585846  1
  Pd  Pd183  1  0.21422039  0.80783941  0.19067899  1
  Pd  Pd184  1  0.59999332  0.40421906  0.59176613  1
  Pd  Pd185  1  0.00200113  0.79952750  0.78907352  1
  Pd  Pd186  1  0.00418587  0.00860725  0.60044062  1
  Pd  Pd187  1  0.18886812  0.00813615  0.39132364  1
  Pd  Pd188  1  0.39137580  0.59166879  0.39070029  1
  Pd  Pd189  1  0.20063016  0.79831389  0.60670851  1
  Pd  Pd190  1  -0.00895526  0.20851700  0.19416986  1
  Pd  Pd191  1  0.20794567  0.80234842  0.00879834  1
  Pd  Pd192  1  0.40172193  0.00863529  0.80320532  1
  Pd  Pd193  1  0.79454183  0.60368830  0.39237842  1
  Pd  Pd194  1  0.79177666  0.60132037  0.20607076  1
  Pd  Pd195  1  0.19677370  0.59147737  0.59608768  1
  Pd  Pd196  1  0.60496563  0.58604281  0.39628181  1
  Pd  Pd197  1  0.20529285  0.19868419  0.20227378  1
  Pd  Pd198  1  0.40447731  0.39658608  0.20678025  1
  Pd  Pd199  1  0.39918846  0.40016728  0.80027901  1
  Rh  Rh200  1  0.00499212  0.60169887  0.40171568  1
  Rh  Rh201  1  0.59438791  0.20778805  0.00708424  1
  Rh  Rh202  1  0.79958099  0.20212005  0.40053713  1
  Rh  Rh203  1  0.79876578  0.80174953  0.79573926  1
  Rh  Rh204  1  0.79444002  0.19853852  0.79897128  1
  Rh  Rh205  1  0.39182348  0.00392730  -0.01279752  1
  Rh  Rh206  1  0.60301840  -0.00936262  -0.00179048  1
  Rh  Rh207  1  -0.00903822  0.80232532  0.20279437  1
  Rh  Rh208  1  0.79242604  0.00394855  0.19643357  1
  Rh  Rh209  1  0.80028433  0.20179528  0.19602883  1
  Rh  Rh210  1  -0.00568361  0.19960567  0.59978978  1
  Rh  Rh211  1  0.19249940  0.40455561  -0.00617157  1
  Rh  Rh212  1  0.80627436  0.40164158  -0.00173563  1
  Rh  Rh213  1  0.19948732  0.39394006  0.39525404  1
  Rh  Rh214  1  0.00640865  0.39641573  0.80093325  1
  Rh  Rh215  1  0.40570062  0.00483950  0.60005531  1
  Rh  Rh216  1  0.80277191  0.00308860  0.40026074  1
  Rh  Rh217  1  0.00047262  -0.00240795  0.19856191  1
  Rh  Rh218  1  -0.00115613  0.58948551  0.60072550  1
  Rh  Rh219  1  0.19955777  0.19687318  0.00520851  1
  Rh  Rh220  1  0.80820647  0.40126939  0.59932485  1
  Rh  Rh221  1  0.40642749  -0.00909644  0.40255235  1
  Rh  Rh222  1  0.60142540  -0.00050860  0.80484900  1
  Rh  Rh223  1  0.19347748  0.39313902  0.20358785  1
  Rh  Rh224  1  0.80250435  0.39741385  0.20319743  1
  Rh  Rh225  1  0.80513830  0.19786867  0.60088917  1
  Rh  Rh226  1  0.59806376  0.59238273  0.79884605  1
  Rh  Rh227  1  0.20667337  0.19450120  0.58902715  1
  Rh  Rh228  1  0.59990236  0.19515575  0.59746274  1
  Rh  Rh229  1  0.19571874  0.20709355  0.79824123  1
  Rh  Rh230  1  0.79546769  0.80539352  -0.00770819  1
  Rh  Rh231  1  0.00541955  0.19488449  0.39931349  1
  Rh  Rh232  1  0.39747675  0.80358421  0.39565113  1
  Rh  Rh233  1  0.19432756  0.00223064  0.60358211  1
  Rh  Rh234  1  0.19343428  0.79465932  0.40495639  1
  Rh  Rh235  1  0.60695398  0.39668819  0.80830186  1
  Rh  Rh236  1  0.59651573  0.41004796  0.20725540  1
  Rh  Rh237  1  0.21689434  0.58889810  0.80996531  1
  Rh  Rh238  1  -0.00007470  0.60131300  0.19042119  1
  Rh  Rh239  1  0.39174182  0.60092997  -0.00625139  1
  Rh  Rh240  1  0.20013779  0.00521855  0.80639658  1
  Rh  Rh241  1  0.59430288  0.39528943  0.00051162  1
  Rh  Rh242  1  0.60053525  0.80252076  0.80521225  1
  Rh  Rh243  1  -0.00259584  0.39965085  0.40097295  1
  Rh  Rh244  1  0.79990965  0.19694527  0.00125280  1
  Rh  Rh245  1  0.40572707  0.80204310  0.00235455  1
  Rh  Rh246  1  0.19932071  0.60192382  0.40026038  1
  Rh  Rh247  1  0.40288156  0.00048799  0.20418593  1
  Rh  Rh248  1  0.79422803  0.39420620  0.39769713  1
  Rh  Rh249  1  0.41197598  0.58659025  0.61519055  1
