# generated using pymatgen
data_ZrScNbPdRh
_symmetry_space_group_name_H-M   'P 1'
_cell_length_a   16.55544421
_cell_length_b   16.55488136
_cell_length_c   16.55576940
_cell_angle_alpha   89.99494343
_cell_angle_beta   90.00729137
_cell_angle_gamma   89.96664700
_symmetry_Int_Tables_number   1
_chemical_formula_structural   ZrScNbPdRh
_chemical_formula_sum   'Zr50 Sc50 Nb50 Pd50 Rh50'
_cell_volume   4537.49542961
_cell_formula_units_Z   50
loop_
 _symmetry_equiv_pos_site_id
 _symmetry_equiv_pos_as_xyz
  1  'x, y, z'
loop_
 _atom_site_type_symbol
 _atom_site_label
 _atom_site_symmetry_multiplicity
 _atom_site_fract_x
 _atom_site_fract_y
 _atom_site_fract_z
 _atom_site_occupancy
  Zr  Zr0  1  0.69319550  0.89913609  0.10290214  1
  Zr  Zr1  1  0.90079197  0.49140006  0.69968120  1
  Zr  Zr2  1  0.49769920  0.70634365  0.70836073  1
  Zr  Zr3  1  0.91417109  0.90506515  0.31123615  1
  Zr  Zr4  1  0.30057797  0.70809098  0.50140810  1
  Zr  Zr5  1  0.08989675  0.89847540  0.49470891  1
  Zr  Zr6  1  0.90359631  0.90435550  0.50495729  1
  Zr  Zr7  1  0.09827442  0.49247107  0.49956234  1
  Zr  Zr8  1  0.69516902  0.69980377  0.90376343  1
  Zr  Zr9  1  0.89917890  0.69738394  0.09728154  1
  Zr  Zr10  1  0.49990161  0.70018447  0.09215812  1
  Zr  Zr11  1  0.70515400  0.49979947  0.30604667  1
  Zr  Zr12  1  0.70803324  0.10093622  0.09173459  1
  Zr  Zr13  1  0.70551521  0.68176410  0.49748897  1
  Zr  Zr14  1  0.70486628  0.69794993  0.09264282  1
  Zr  Zr15  1  0.10960715  0.69880143  0.49971276  1
  Zr  Zr16  1  0.70114202  0.91530681  0.49859736  1
  Zr  Zr17  1  0.89387622  0.69580302  0.90818648  1
  Zr  Zr18  1  0.29557311  0.70715996  0.69869910  1
  Zr  Zr19  1  0.28337786  0.30299982  0.90420447  1
  Zr  Zr20  1  0.29637117  0.49877219  0.28283798  1
  Zr  Zr21  1  0.50568958  0.49808657  0.50331552  1
  Zr  Zr22  1  0.90471522  0.09835473  0.91452725  1
  Zr  Zr23  1  0.49055460  0.09297958  0.90265043  1
  Zr  Zr24  1  0.90150924  0.29762980  0.70318208  1
  Zr  Zr25  1  0.10016638  0.10181587  0.70439058  1
  Zr  Zr26  1  0.91245822  0.90418864  0.70126376  1
  Zr  Zr27  1  0.90173273  0.50178535  0.09316379  1
  Zr  Zr28  1  0.49763256  0.10307758  0.09793798  1
  Zr  Zr29  1  0.70453896  0.10782248  0.89425986  1
  Zr  Zr30  1  0.48855715  0.49918831  0.29793927  1
  Zr  Zr31  1  0.11373706  0.49047653  0.89206262  1
  Zr  Zr32  1  0.70305069  0.10095197  0.69587414  1
  Zr  Zr33  1  0.49240771  0.89718303  0.90282174  1
  Zr  Zr34  1  0.69379417  0.10055150  0.30739666  1
  Zr  Zr35  1  0.89996477  0.69355003  0.70126643  1
  Zr  Zr36  1  0.30167219  0.51247179  0.48235470  1
  Zr  Zr37  1  0.70067629  0.29451738  0.70959276  1
  Zr  Zr38  1  0.90149682  0.30035634  0.30086950  1
  Zr  Zr39  1  0.50072356  0.30549928  0.70087168  1
  Zr  Zr40  1  0.89639905  0.29941020  0.90065961  1
  Zr  Zr41  1  0.10258830  0.90495159  0.69812758  1
  Zr  Zr42  1  0.69637263  0.10508251  0.50344587  1
  Zr  Zr43  1  0.29959351  0.69253944  0.30546311  1
  Zr  Zr44  1  0.51073718  0.30496292  0.89098032  1
  Zr  Zr45  1  0.90697397  0.29095225  0.09936822  1
  Zr  Zr46  1  0.29635160  0.90398035  0.29618674  1
  Zr  Zr47  1  0.70378184  0.29854940  0.30433699  1
  Zr  Zr48  1  0.09698639  0.29765580  0.29818247  1
  Zr  Zr49  1  0.30572701  0.10253814  0.50405537  1
  Sc  Sc50  1  0.89803444  0.91150543  0.09041124  1
  Sc  Sc51  1  0.91190951  0.10485875  0.29777397  1
  Sc  Sc52  1  0.10356137  0.69455131  0.29030167  1
  Sc  Sc53  1  0.29612371  0.29034697  0.69741236  1
  Sc  Sc54  1  0.09715123  0.29465550  0.70144630  1
  Sc  Sc55  1  0.30529554  0.70138330  0.90932103  1
  Sc  Sc56  1  0.30000145  0.30345848  0.10088277  1
  Sc  Sc57  1  0.49954991  0.90571065  0.70509687  1
  Sc  Sc58  1  0.69281244  0.50207919  0.10640864  1
  Sc  Sc59  1  0.10421844  0.50286212  0.10318736  1
  Sc  Sc60  1  0.30090003  0.88842515  0.09280747  1
  Sc  Sc61  1  0.49803845  0.70081070  0.49284667  1
  Sc  Sc62  1  0.09886711  0.30506802  0.09821688  1
  Sc  Sc63  1  0.09682667  0.29539332  0.50313737  1
  Sc  Sc64  1  0.90004655  0.09764786  0.50517123  1
  Sc  Sc65  1  0.48565814  0.49655790  0.90323711  1
  Sc  Sc66  1  0.49625546  0.29981617  0.10780537  1
  Sc  Sc67  1  0.11084788  0.90497739  0.10578707  1
  Sc  Sc68  1  0.30484260  0.90693203  0.69616515  1
  Sc  Sc69  1  0.29538674  0.09666856  0.69989336  1
  Sc  Sc70  1  0.10550445  0.69617856  0.90156445  1
  Sc  Sc71  1  0.49158906  0.29349359  0.50313778  1
  Sc  Sc72  1  0.49807788  0.90296784  0.49676190  1
  Sc  Sc73  1  0.70263727  0.30380663  0.10318444  1
  Sc  Sc74  1  0.69330130  0.90708458  0.70207762  1
  Sc  Sc75  1  0.08773805  0.10055080  0.10360728  1
  Sc  Sc76  1  0.49993257  0.09805913  0.69742487  1
  Sc  Sc77  1  0.69758234  0.49550278  0.67960976  1
  Sc  Sc78  1  0.29919923  0.28730947  0.49704558  1
  Sc  Sc79  1  0.09487177  0.91228495  0.89085920  1
  Sc  Sc80  1  0.28940297  0.50306400  0.72561185  1
  Sc  Sc81  1  0.90623886  0.70216054  0.49634841  1
  Sc  Sc82  1  0.70024693  0.48672934  0.90834780  1
  Sc  Sc83  1  0.29792254  0.09903679  0.31429305  1
  Sc  Sc84  1  0.90548444  0.49171390  0.90003281  1
  Sc  Sc85  1  0.90385006  0.10493347  0.69723123  1
  Sc  Sc86  1  0.50029936  0.71032984  0.29648956  1
  Sc  Sc87  1  0.69572379  0.69605808  0.29767477  1
  Sc  Sc88  1  0.30073137  0.90542554  0.50221331  1
  Sc  Sc89  1  0.69857113  0.69529770  0.69833951  1
  Sc  Sc90  1  0.29272647  0.69827299  0.09651421  1
  Sc  Sc91  1  0.49667178  0.10079986  0.49928745  1
  Sc  Sc92  1  0.90084765  0.69529537  0.30283468  1
  Sc  Sc93  1  0.88995245  0.49390150  0.49829607  1
  Sc  Sc94  1  0.10537840  0.69743046  0.70259366  1
  Sc  Sc95  1  0.69597605  0.89893702  0.90652263  1
  Sc  Sc96  1  0.90007942  0.49294918  0.30083782  1
  Sc  Sc97  1  0.90607140  0.30270619  0.49795328  1
  Sc  Sc98  1  0.10764370  0.10382704  0.49884519  1
  Sc  Sc99  1  0.49005691  0.29412247  0.29661503  1
  Nb  Nb100  1  0.49374012  0.49922194  0.70170944  1
  Nb  Nb101  1  0.50435581  0.70021931  0.89589284  1
  Nb  Nb102  1  0.10086019  0.91117829  0.29964165  1
  Nb  Nb103  1  0.29946577  0.10172938  0.90268013  1
  Nb  Nb104  1  0.30645413  0.49903642  0.09014906  1
  Nb  Nb105  1  0.10584329  0.49769691  0.29885741  1
  Nb  Nb106  1  0.69799675  0.49438876  0.49440009  1
  Nb  Nb107  1  0.10517539  0.09006050  0.29662891  1
  Nb  Nb108  1  0.09598710  0.29172276  0.90367611  1
  Nb  Nb109  1  0.09983258  0.49899948  0.69963644  1
  Nb  Nb110  1  0.29562358  0.29763381  0.29833100  1
  Nb  Nb111  1  0.49882152  0.90127498  0.10607091  1
  Nb  Nb112  1  0.49494439  0.10072108  0.29378711  1
  Nb  Nb113  1  0.10634535  0.10843988  0.89525866  1
  Nb  Nb114  1  0.31004726  0.10575926  0.09280803  1
  Nb  Nb115  1  0.29935123  0.90697970  0.90156556  1
  Nb  Nb116  1  0.90102951  0.89809334  0.89723206  1
  Nb  Nb117  1  0.70124508  0.29571852  0.89546980  1
  Nb  Nb118  1  0.69426894  0.30466068  0.50242388  1
  Nb  Nb119  1  0.51265556  0.90109397  0.28502519  1
  Nb  Nb120  1  0.89631789  0.10011426  0.10125408  1
  Nb  Nb121  1  0.69625041  0.89967838  0.29842595  1
  Nb  Nb122  1  0.29558125  0.49858793  0.91243148  1
  Nb  Nb123  1  0.48535425  0.49865503  0.10451335  1
  Nb  Nb124  1  0.09693526  0.70819284  0.09706313  1
  Nb  Nb125  1  0.60229607  0.20455977  -0.00624779  1
  Nb  Nb126  1  0.79751063  0.80288732  0.59928526  1
  Nb  Nb127  1  0.79406570  0.59623775  0.80116218  1
  Nb  Nb128  1  0.60689268  0.79935927  0.59577200  1
  Nb  Nb129  1  0.39828223  0.59534149  0.60753282  1
  Nb  Nb130  1  0.60069755  0.39800715  0.40168409  1
  Nb  Nb131  1  0.39695254  0.19888052  0.80733945  1
  Nb  Nb132  1  0.20475837  0.01049451  -0.00444108  1
  Nb  Nb133  1  0.20207625  0.19450315  0.20300796  1
  Nb  Nb134  1  0.00414736  0.59218638  0.59912871  1
  Nb  Nb135  1  0.39091113  0.41028620  0.60345459  1
  Nb  Nb136  1  0.80205086  0.80047711  0.79891541  1
  Nb  Nb137  1  0.79530154  0.80703265  0.39983785  1
  Nb  Nb138  1  -0.00107981  0.80427712  0.19584377  1
  Nb  Nb139  1  0.80282295  0.80901080  0.20532362  1
  Nb  Nb140  1  0.19597765  0.80558846  0.39399949  1
  Nb  Nb141  1  0.40436412  0.00021981  0.19801545  1
  Nb  Nb142  1  0.20336719  0.80789849  0.80344842  1
  Nb  Nb143  1  0.79932247  -0.00162670  0.20534873  1
  Nb  Nb144  1  0.00326726  0.80165668  0.00247994  1
  Nb  Nb145  1  0.80743079  -0.00403689  0.80491219  1
  Nb  Nb146  1  0.20028301  0.39890381  0.39608248  1
  Nb  Nb147  1  0.59600967  0.59641684  0.80177654  1
  Nb  Nb148  1  0.00791432  0.59239986  0.40161578  1
  Nb  Nb149  1  0.20458619  0.40554235  0.59779558  1
  Pd  Pd150  1  0.20479103  0.59092990  0.60582312  1
  Pd  Pd151  1  0.59434537  0.60133516  0.20158187  1
  Pd  Pd152  1  0.19265024  0.19466136  0.01371310  1
  Pd  Pd153  1  0.19619045  0.59780995  0.00260833  1
  Pd  Pd154  1  0.80187501  0.60166566  0.20443019  1
  Pd  Pd155  1  0.39739102  0.80927524  0.39296752  1
  Pd  Pd156  1  0.79961261  0.39030776  0.59837596  1
  Pd  Pd157  1  0.59222230  0.59507029  0.39083683  1
  Pd  Pd158  1  -0.00088863  0.59659289  0.80066150  1
  Pd  Pd159  1  0.00048649  0.60064587  0.20429061  1
  Pd  Pd160  1  0.58873927  0.20663997  0.39985539  1
  Pd  Pd161  1  0.01114207  -0.00372436  0.00321191  1
  Pd  Pd162  1  0.59553523  0.39804314  0.20852403  1
  Pd  Pd163  1  0.59427992  0.20225227  0.60193262  1
  Pd  Pd164  1  0.60264543  0.01140861  0.19662857  1
  Pd  Pd165  1  0.80538712  0.19816595  0.40687916  1
  Pd  Pd166  1  0.79957624  0.19303541  0.20432221  1
  Pd  Pd167  1  0.80447588  0.40177425  0.19371568  1
  Pd  Pd168  1  0.21441366  0.01155580  0.18806869  1
  Pd  Pd169  1  0.79975219  0.39678707  0.00707527  1
  Pd  Pd170  1  0.41039623  0.80150767  0.59864800  1
  Pd  Pd171  1  0.60001610  0.00391528  -0.00350996  1
  Pd  Pd172  1  0.80301776  0.20850788  0.59321029  1
  Pd  Pd173  1  0.19728535  -0.00025859  0.59339572  1
  Pd  Pd174  1  0.40719919  0.21573597  -0.00842028  1
  Pd  Pd175  1  0.60711691  0.80080162  0.40576818  1
  Pd  Pd176  1  0.39752041  0.61081547  0.19364655  1
  Pd  Pd177  1  0.58883870  0.00247393  0.39956565  1
  Pd  Pd178  1  -0.00102988  0.40380662  0.19691248  1
  Pd  Pd179  1  0.19658271  0.79753729  0.20454300  1
  Pd  Pd180  1  0.59419155  0.39787722  0.00834293  1
  Pd  Pd181  1  0.40812267  -0.00469335  0.39176094  1
  Pd  Pd182  1  0.40248540  0.39045093  0.00013508  1
  Pd  Pd183  1  0.60954968  0.41369791  0.79414141  1
  Pd  Pd184  1  0.00481842  0.79237733  0.80824375  1
  Pd  Pd185  1  0.38544354  0.39179934  0.79891927  1
  Pd  Pd186  1  0.59015720  0.60661689  0.60632412  1
  Pd  Pd187  1  0.80484582  0.00498847  0.39285264  1
  Pd  Pd188  1  0.39632428  0.39219822  0.40459122  1
  Pd  Pd189  1  0.39014806  0.80491866  0.80483157  1
  Pd  Pd190  1  0.00103842  0.78912676  0.60440674  1
  Pd  Pd191  1  0.39685064  0.79977056  0.19820860  1
  Pd  Pd192  1  0.39693851  0.60215640  0.80509928  1
  Pd  Pd193  1  0.01051486  0.59769872  -0.00530103  1
  Pd  Pd194  1  0.60375971  0.00246499  0.80485301  1
  Pd  Pd195  1  0.00752068  0.39285469  0.80234074  1
  Pd  Pd196  1  0.59136173  0.58552654  -0.00507656  1
  Pd  Pd197  1  0.00430342  0.19391540  0.40254713  1
  Pd  Pd198  1  0.60376562  0.20137697  0.19372859  1
  Pd  Pd199  1  0.59392802  0.80402202  0.00201081  1
  Rh  Rh200  1  0.19713842  -0.00587583  0.40821814  1
  Rh  Rh201  1  -0.00616702  0.01427534  0.80291153  1
  Rh  Rh202  1  0.00552069  0.39991736  0.60487817  1
  Rh  Rh203  1  0.60762628  0.79574379  0.79437313  1
  Rh  Rh204  1  0.40261048  0.60190181  -0.00021014  1
  Rh  Rh205  1  0.80708585  0.80850944  0.00138887  1
  Rh  Rh206  1  0.60680035  0.78983454  0.19332075  1
  Rh  Rh207  1  0.00939418  0.78691168  0.38570363  1
  Rh  Rh208  1  0.39346028  -0.00923453  0.00978498  1
  Rh  Rh209  1  0.00391022  0.19881992  0.00124749  1
  Rh  Rh210  1  0.18654836  0.81621675  -0.01332992  1
  Rh  Rh211  1  0.20481604  -0.00129734  0.80538367  1
  Rh  Rh212  1  0.40449200  0.79935111  -0.00035441  1
  Rh  Rh213  1  -0.00292454  0.19875456  0.80632948  1
  Rh  Rh214  1  0.59387218  -0.00267746  0.59697549  1
  Rh  Rh215  1  0.40919064  0.60605899  0.39925672  1
  Rh  Rh216  1  0.38664499  0.19183227  0.20833568  1
  Rh  Rh217  1  0.20165814  0.59989429  0.18929953  1
  Rh  Rh218  1  0.00589928  0.19786903  0.20037431  1
  Rh  Rh219  1  0.00677881  0.40158538  -0.00286371  1
  Rh  Rh220  1  0.80992733  0.59943281  0.60001524  1
  Rh  Rh221  1  0.79598701  0.58501941  -0.00558365  1
  Rh  Rh222  1  0.79223749  0.40596326  0.79622208  1
  Rh  Rh223  1  0.20265246  0.39277963  0.19922868  1
  Rh  Rh224  1  0.79563839  0.39275578  0.40440048  1
  Rh  Rh225  1  0.39411656  0.00644376  0.79631161  1
  Rh  Rh226  1  0.59278647  0.39373113  0.59589748  1
  Rh  Rh227  1  0.19766758  0.20392592  0.60094366  1
  Rh  Rh228  1  -0.00811733  -0.00418657  0.19511757  1
  Rh  Rh229  1  0.20635380  0.61127627  0.80984491  1
  Rh  Rh230  1  0.40370204  0.00222976  0.60053870  1
  Rh  Rh231  1  0.19449373  0.40290678  0.00759274  1
  Rh  Rh232  1  0.00760427  0.01008551  0.59810461  1
  Rh  Rh233  1  0.00154658  0.19944331  0.59888599  1
  Rh  Rh234  1  0.79638526  0.21069179  0.00132209  1
  Rh  Rh235  1  0.58932608  0.18992813  0.80438681  1
  Rh  Rh236  1  0.20396392  0.20119120  0.79843138  1
  Rh  Rh237  1  0.80962114  0.60097406  0.39908038  1
  Rh  Rh238  1  0.00454583  0.40283296  0.39410263  1
  Rh  Rh239  1  0.79647250  -0.00468047  -0.00253916  1
  Rh  Rh240  1  0.40067544  0.20007426  0.61089942  1
  Rh  Rh241  1  0.39450217  0.39636354  0.19605451  1
  Rh  Rh242  1  0.80337553  -0.00460328  0.61393591  1
  Rh  Rh243  1  0.19303314  0.60036930  0.39165983  1
  Rh  Rh244  1  0.40105278  0.19783786  0.39585439  1
  Rh  Rh245  1  0.00644695  0.01395747  0.40627592  1
  Rh  Rh246  1  0.19720404  0.80990258  0.60104190  1
  Rh  Rh247  1  0.81221167  0.19163785  0.80283111  1
  Rh  Rh248  1  0.19581273  0.20405885  0.39302158  1
  Rh  Rh249  1  0.19489723  0.38763397  0.79268646  1
