# generated using pymatgen
data_ZrScNbPdRh
_symmetry_space_group_name_H-M   'P 1'
_cell_length_a   16.55264781
_cell_length_b   16.55205876
_cell_length_c   16.55381221
_cell_angle_alpha   89.97607275
_cell_angle_beta   90.00433738
_cell_angle_gamma   89.96004444
_symmetry_Int_Tables_number   1
_chemical_formula_structural   ZrScNbPdRh
_chemical_formula_sum   'Zr50 Sc50 Nb50 Pd50 Rh50'
_cell_volume   4535.41856458
_cell_formula_units_Z   50
loop_
 _symmetry_equiv_pos_site_id
 _symmetry_equiv_pos_as_xyz
  1  'x, y, z'
loop_
 _atom_site_type_symbol
 _atom_site_label
 _atom_site_symmetry_multiplicity
 _atom_site_fract_x
 _atom_site_fract_y
 _atom_site_fract_z
 _atom_site_occupancy
  Zr  Zr0  1  0.10109339  0.50368393  0.49651348  1
  Zr  Zr1  1  0.48610024  0.30534260  0.90274796  1
  Zr  Zr2  1  0.50129642  0.49902973  0.89318800  1
  Zr  Zr3  1  0.09110701  0.49788686  0.89156282  1
  Zr  Zr4  1  0.09464112  0.30328671  0.50165917  1
  Zr  Zr5  1  0.69086347  0.70123684  0.30425133  1
  Zr  Zr6  1  0.10746690  0.69653608  0.30481832  1
  Zr  Zr7  1  0.49564743  0.68972341  0.10215504  1
  Zr  Zr8  1  0.69010997  0.10838123  0.09425387  1
  Zr  Zr9  1  0.70316550  0.10063857  0.70266029  1
  Zr  Zr10  1  0.49747577  0.89984720  0.49968819  1
  Zr  Zr11  1  0.10384961  0.69494736  0.70749978  1
  Zr  Zr12  1  0.90439394  0.50459060  0.29756632  1
  Zr  Zr13  1  0.90366569  0.09865192  0.10334411  1
  Zr  Zr14  1  0.90033390  0.69717759  0.29832247  1
  Zr  Zr15  1  0.89419717  0.90387670  0.69686575  1
  Zr  Zr16  1  0.30603610  0.49476275  0.50476158  1
  Zr  Zr17  1  0.89268246  0.70503324  0.70548313  1
  Zr  Zr18  1  0.49482004  0.70226127  0.89910605  1
  Zr  Zr19  1  0.70228827  0.70069409  0.70033282  1
  Zr  Zr20  1  0.49820960  0.50173922  0.70205419  1
  Zr  Zr21  1  0.30642229  0.50117514  0.11034874  1
  Zr  Zr22  1  0.10234362  0.89903638  0.90853517  1
  Zr  Zr23  1  0.69578110  0.29753760  0.30047718  1
  Zr  Zr24  1  0.10104442  0.69597988  0.89854763  1
  Zr  Zr25  1  0.89378422  0.69548108  0.49751599  1
  Zr  Zr26  1  0.50290485  0.70343639  0.29716255  1
  Zr  Zr27  1  0.89878984  0.90431298  0.10323000  1
  Zr  Zr28  1  0.10576027  0.89991079  0.49751454  1
  Zr  Zr29  1  0.09814967  0.10306166  0.29340157  1
  Zr  Zr30  1  0.10962101  0.29125636  0.30074372  1
  Zr  Zr31  1  0.49929038  0.29306245  0.09930225  1
  Zr  Zr32  1  0.31052491  0.29879093  0.49755305  1
  Zr  Zr33  1  0.90057423  0.29543238  0.31325874  1
  Zr  Zr34  1  0.70243887  0.90466372  0.50418954  1
  Zr  Zr35  1  0.29287799  0.10214602  0.30343610  1
  Zr  Zr36  1  0.49905623  0.09869758  0.30482281  1
  Zr  Zr37  1  0.10518882  0.70295481  0.49752784  1
  Zr  Zr38  1  0.89031604  0.91187679  0.29461663  1
  Zr  Zr39  1  0.30164217  0.31113208  0.09985102  1
  Zr  Zr40  1  0.71218346  0.49281344  0.09454176  1
  Zr  Zr41  1  0.70380076  0.10131708  0.90159285  1
  Zr  Zr42  1  0.70272842  0.90341239  0.09898923  1
  Zr  Zr43  1  0.29587550  0.69911046  0.89366155  1
  Zr  Zr44  1  0.49840095  0.89692785  0.30157510  1
  Zr  Zr45  1  0.29744052  0.09997879  0.70209433  1
  Zr  Zr46  1  0.90194860  0.09830495  0.30482403  1
  Zr  Zr47  1  0.50156569  0.70103907  0.49408606  1
  Zr  Zr48  1  0.70995269  0.30071392  0.49795340  1
  Zr  Zr49  1  0.69605127  0.70771146  0.10761852  1
  Sc  Sc50  1  0.10604140  0.09923979  0.48208599  1
  Sc  Sc51  1  0.70914046  0.89596978  0.70255795  1
  Sc  Sc52  1  0.49144738  0.89519274  0.70118018  1
  Sc  Sc53  1  0.49223404  0.90086499  0.09701478  1
  Sc  Sc54  1  0.30023300  0.08903341  0.10439166  1
  Sc  Sc55  1  0.30003389  0.89857753  0.89759536  1
  Sc  Sc56  1  0.69751165  0.50050486  0.30580890  1
  Sc  Sc57  1  0.90788499  0.29660324  0.89849098  1
  Sc  Sc58  1  0.70004207  0.09972679  0.30968790  1
  Sc  Sc59  1  0.30118092  0.89804475  0.69829385  1
  Sc  Sc60  1  0.10126225  0.10489850  0.71119627  1
  Sc  Sc61  1  0.29117700  0.89876710  0.10102606  1
  Sc  Sc62  1  0.90273471  0.10339501  0.89694585  1
  Sc  Sc63  1  0.09764167  0.30197615  0.10294364  1
  Sc  Sc64  1  0.30478402  0.48731147  0.89417802  1
  Sc  Sc65  1  0.09386504  0.30119908  0.70619660  1
  Sc  Sc66  1  0.49911431  0.09627887  0.91435859  1
  Sc  Sc67  1  0.29299004  0.09275622  0.89604640  1
  Sc  Sc68  1  0.89582351  0.30673998  0.09361839  1
  Sc  Sc69  1  0.11041699  0.90734822  0.69818956  1
  Sc  Sc70  1  0.48946311  0.69477076  0.69946111  1
  Sc  Sc71  1  0.89986574  0.69218682  0.89956479  1
  Sc  Sc72  1  0.90139876  0.49140999  0.49231474  1
  Sc  Sc73  1  0.89869418  0.70320968  0.09443450  1
  Sc  Sc74  1  0.29820067  0.69995278  0.10406791  1
  Sc  Sc75  1  0.70952716  0.29517601  0.70436928  1
  Sc  Sc76  1  0.10647602  0.70534713  0.09791017  1
  Sc  Sc77  1  0.89331098  0.91037528  0.49754485  1
  Sc  Sc78  1  0.71048139  0.29203191  0.90020244  1
  Sc  Sc79  1  0.49730740  0.50095938  0.50329575  1
  Sc  Sc80  1  0.49453907  0.89433445  0.90204707  1
  Sc  Sc81  1  0.89848281  0.49215165  0.71439312  1
  Sc  Sc82  1  0.09470213  0.09993109  0.89694182  1
  Sc  Sc83  1  0.31019473  0.10194592  0.49932687  1
  Sc  Sc84  1  0.49843652  0.30065790  0.30887615  1
  Sc  Sc85  1  0.10578907  0.91377228  0.30374152  1
  Sc  Sc86  1  0.49572646  0.50008167  0.29321352  1
  Sc  Sc87  1  0.50354595  0.29700372  0.70067505  1
  Sc  Sc88  1  0.69903268  0.50591587  0.49318101  1
  Sc  Sc89  1  0.50167286  0.10292043  0.69275010  1
  Sc  Sc90  1  0.29439683  0.71035885  0.49944594  1
  Sc  Sc91  1  0.90456231  0.49592919  0.09378517  1
  Sc  Sc92  1  0.10219756  0.50731016  0.29629170  1
  Sc  Sc93  1  0.10156368  0.49487839  0.10429928  1
  Sc  Sc94  1  0.30234919  0.30775190  0.69760427  1
  Sc  Sc95  1  0.29674108  0.89916817  0.50385922  1
  Sc  Sc96  1  0.49566523  0.29754932  0.50297584  1
  Sc  Sc97  1  0.70335657  0.70853887  0.89542192  1
  Sc  Sc98  1  0.89784509  0.90481947  0.90540574  1
  Sc  Sc99  1  0.09811242  0.49488518  0.70662069  1
  Nb  Nb100  1  0.30001037  0.69642767  0.69862097  1
  Nb  Nb101  1  0.30499969  0.30302385  0.29933910  1
  Nb  Nb102  1  0.69223882  0.90561639  0.90358359  1
  Nb  Nb103  1  0.89434347  0.10409737  0.49700783  1
  Nb  Nb104  1  0.70026349  0.29794014  0.09925415  1
  Nb  Nb105  1  0.31007106  0.50850604  0.69521964  1
  Nb  Nb106  1  0.09524649  0.90479729  0.09752852  1
  Nb  Nb107  1  0.50679294  0.09863910  0.50239910  1
  Nb  Nb108  1  0.69692695  0.09557542  0.50434531  1
  Nb  Nb109  1  0.89270240  0.49840793  0.90238227  1
  Nb  Nb110  1  0.90558502  0.28961641  0.69032970  1
  Nb  Nb111  1  0.70033569  0.89616640  0.29043757  1
  Nb  Nb112  1  0.70648808  0.49846087  0.89358999  1
  Nb  Nb113  1  0.69923485  0.49907270  0.70647664  1
  Nb  Nb114  1  0.11033315  0.29733241  0.89391747  1
  Nb  Nb115  1  0.90194702  0.29234224  0.50541857  1
  Nb  Nb116  1  0.90356933  0.10389013  0.69733640  1
  Nb  Nb117  1  0.09868538  0.09498940  0.10176530  1
  Nb  Nb118  1  0.50081040  0.49508149  0.09532619  1
  Nb  Nb119  1  0.30237206  0.90240638  0.29537467  1
  Nb  Nb120  1  0.29424638  0.69453578  0.29793425  1
  Nb  Nb121  1  0.29822805  0.49872428  0.29773613  1
  Nb  Nb122  1  0.29645652  0.29601580  0.90086288  1
  Nb  Nb123  1  0.69678664  0.69737462  0.49539169  1
  Nb  Nb124  1  0.50094304  0.09986421  0.10714626  1
  Nb  Nb125  1  0.79585355  0.80165210  0.39525650  1
  Nb  Nb126  1  0.60292377  0.59312322  -0.00188838  1
  Nb  Nb127  1  0.79866205  0.59570859  0.60470536  1
  Nb  Nb128  1  -0.00310041  0.00590620  0.59836684  1
  Nb  Nb129  1  0.60324826  -0.00222837  0.80548187  1
  Nb  Nb130  1  0.60200229  0.79545717  0.59582158  1
  Nb  Nb131  1  -0.00499470  0.80443219  0.39720221  1
  Nb  Nb132  1  0.59814250  0.00152749  0.19892310  1
  Nb  Nb133  1  0.39510017  0.20074249  0.80564916  1
  Nb  Nb134  1  -0.00256587  0.60315818  0.60363595  1
  Nb  Nb135  1  0.20797002  0.39863585  0.39623753  1
  Nb  Nb136  1  0.39222783  0.60374167  0.39354911  1
  Nb  Nb137  1  0.60473575  0.40192277  -0.00180911  1
  Nb  Nb138  1  0.79849162  0.60053247  0.19948812  1
  Nb  Nb139  1  0.19811070  0.20276476  -0.00204118  1
  Nb  Nb140  1  0.20161372  0.59797804  0.60507847  1
  Nb  Nb141  1  0.20068455  0.20428014  0.59826730  1
  Nb  Nb142  1  0.00294004  0.80699254  0.20351788  1
  Nb  Nb143  1  0.79510353  0.20375166  0.19945606  1
  Nb  Nb144  1  0.39996679  0.19812465  0.20208612  1
  Nb  Nb145  1  0.60966477  0.40436253  0.60587895  1
  Nb  Nb146  1  0.00085202  0.80240564  0.79674213  1
  Nb  Nb147  1  -0.00061668  0.80218257  0.59964617  1
  Nb  Nb148  1  0.60145820  0.39553211  0.18977161  1
  Nb  Nb149  1  0.20137592  0.59426437  -0.00610410  1
  Pd  Pd150  1  0.20891818  0.19894125  0.18639838  1
  Pd  Pd151  1  0.38810160  0.79737329  0.39633295  1
  Pd  Pd152  1  0.39537450  -0.00089581  0.40454628  1
  Pd  Pd153  1  0.60496571  0.20886803  0.59490943  1
  Pd  Pd154  1  0.00763750  0.20111189  0.00071713  1
  Pd  Pd155  1  0.80011041  0.40779643  0.60052328  1
  Pd  Pd156  1  0.59803000  0.20178193  0.41086866  1
  Pd  Pd157  1  0.39621649  -0.00194363  0.00099447  1
  Pd  Pd158  1  0.59888720  -0.01000386  0.61400105  1
  Pd  Pd159  1  0.60619050  0.38950038  0.80048408  1
  Pd  Pd160  1  0.19416676  0.80751428  0.20410085  1
  Pd  Pd161  1  0.19934472  0.80754921  0.79720971  1
  Pd  Pd162  1  0.01236307  0.18809087  0.59468544  1
  Pd  Pd163  1  0.39726131  0.79858423  0.19631850  1
  Pd  Pd164  1  0.60561612  0.59831947  0.60053787  1
  Pd  Pd165  1  0.38615993  0.18866666  0.00265481  1
  Pd  Pd166  1  0.59280921  0.40414604  0.40510312  1
  Pd  Pd167  1  0.60167580  0.60792119  0.80573692  1
  Pd  Pd168  1  0.59731270  0.20887264  -0.01213369  1
  Pd  Pd169  1  0.19398347  0.01416383  0.59676845  1
  Pd  Pd170  1  -0.00901922  0.20887844  0.19634353  1
  Pd  Pd171  1  0.58866258  0.19340660  0.80835897  1
  Pd  Pd172  1  0.79671969  0.19503660  0.59941504  1
  Pd  Pd173  1  0.20617522  0.40219556  0.79263572  1
  Pd  Pd174  1  0.59681501  0.80541288  0.79123155  1
  Pd  Pd175  1  0.59551116  0.79655072  0.00372336  1
  Pd  Pd176  1  0.19558807  0.40230295  -0.00116648  1
  Pd  Pd177  1  0.19819352  0.00627357  -0.00127383  1
  Pd  Pd178  1  0.80329249  0.00658453  0.00086479  1
  Pd  Pd179  1  0.00011546  0.60909596  0.18777330  1
  Pd  Pd180  1  0.00443752  0.39733767  -0.00618482  1
  Pd  Pd181  1  0.80131614  0.79983473  -0.00477700  1
  Pd  Pd182  1  0.60457594  -0.00553318  0.39443925  1
  Pd  Pd183  1  -0.00294694  0.79972539  -0.00107324  1
  Pd  Pd184  1  0.00962344  0.40019551  0.39073694  1
  Pd  Pd185  1  0.19923540  0.39958366  0.60097458  1
  Pd  Pd186  1  0.60707538  0.58675505  0.19472727  1
  Pd  Pd187  1  0.79782883  -0.00044108  0.80323469  1
  Pd  Pd188  1  0.00226638  -0.00592485  0.79605090  1
  Pd  Pd189  1  0.40096203  0.00225893  0.59995178  1
  Pd  Pd190  1  0.80678098  0.38791025  0.80223082  1
  Pd  Pd191  1  0.40980742  0.00651988  0.80132518  1
  Pd  Pd192  1  0.00672103  0.59631285  0.00500077  1
  Pd  Pd193  1  0.00136714  0.39309122  0.20576203  1
  Pd  Pd194  1  0.39496072  0.59330847  -0.00611803  1
  Pd  Pd195  1  0.80102830  0.40294499  0.39854118  1
  Pd  Pd196  1  0.39060126  0.80057791  0.00463043  1
  Pd  Pd197  1  -0.00686925  0.40820559  0.60541480  1
  Pd  Pd198  1  0.79456239  0.60631274  0.00241739  1
  Pd  Pd199  1  0.79904692  0.39930456  0.20745364  1
  Rh  Rh200  1  0.00788050  -0.00401958  0.19971664  1
  Rh  Rh201  1  0.19771353  -0.00478689  0.80465496  1
  Rh  Rh202  1  0.58920733  0.81146066  0.19137171  1
  Rh  Rh203  1  0.40394676  0.00362779  0.20316784  1
  Rh  Rh204  1  0.59486306  -0.00449050  0.00247746  1
  Rh  Rh205  1  0.39487177  0.79661801  0.79734242  1
  Rh  Rh206  1  0.59835385  0.19907603  0.20657985  1
  Rh  Rh207  1  0.40998338  0.39173660  0.20434866  1
  Rh  Rh208  1  -0.01115764  0.60141591  0.79771059  1
  Rh  Rh209  1  0.60835793  0.81061892  0.40719683  1
  Rh  Rh210  1  0.00141188  0.60291420  0.40622432  1
  Rh  Rh211  1  0.39576133  0.19618402  0.60758916  1
  Rh  Rh212  1  0.39866901  0.40971813  0.39563928  1
  Rh  Rh213  1  0.79437128  0.79101681  0.58724221  1
  Rh  Rh214  1  0.20563548  0.20130981  0.79815144  1
  Rh  Rh215  1  0.39677790  0.39363713  0.79192999  1
  Rh  Rh216  1  0.19843862  0.79204298  0.60904651  1
  Rh  Rh217  1  -0.00043353  0.19730585  0.40607735  1
  Rh  Rh218  1  0.78438418  0.01773019  0.19505881  1
  Rh  Rh219  1  0.80791797  0.79203472  0.20417889  1
  Rh  Rh220  1  0.80613006  0.80885246  0.81361844  1
  Rh  Rh221  1  0.79913671  0.59991718  0.39604136  1
  Rh  Rh222  1  0.39769418  0.60078223  0.80453601  1
  Rh  Rh223  1  0.79794921  0.19574541  0.40199424  1
  Rh  Rh224  1  0.40370821  0.19431931  0.39654463  1
  Rh  Rh225  1  0.80428875  0.01353402  0.60080609  1
  Rh  Rh226  1  -0.00251095  0.20458803  0.79890054  1
  Rh  Rh227  1  0.19637189  -0.00243821  0.19788675  1
  Rh  Rh228  1  0.21167809  -0.00335843  0.39971529  1
  Rh  Rh229  1  0.81273471  0.20077718  0.79594848  1
  Rh  Rh230  1  0.20257665  0.79411717  0.00012174  1
  Rh  Rh231  1  0.19912890  0.59783155  0.19005707  1
  Rh  Rh232  1  0.39819106  0.60240332  0.20717014  1
  Rh  Rh233  1  0.41513841  0.39709051  0.60717596  1
  Rh  Rh234  1  0.39059873  0.61036090  0.58775457  1
  Rh  Rh235  1  0.40067670  0.40599688  0.00043317  1
  Rh  Rh236  1  0.79981393  0.59780426  0.79879568  1
  Rh  Rh237  1  -0.00343822  0.00007983  0.40573921  1
  Rh  Rh238  1  0.21157888  0.58713518  0.79992210  1
  Rh  Rh239  1  -0.00051719  0.00474450  -0.00005308  1
  Rh  Rh240  1  0.80788604  0.19867239  0.00688530  1
  Rh  Rh241  1  0.79982712  0.39471364  -0.01128772  1
  Rh  Rh242  1  -0.00625180  0.39224858  0.80337377  1
  Rh  Rh243  1  0.20222777  0.81007180  0.38904889  1
  Rh  Rh244  1  0.40298347  0.79773221  0.60075099  1
  Rh  Rh245  1  0.58579042  0.59341220  0.39721961  1
  Rh  Rh246  1  0.79230603  0.00075061  0.40143684  1
  Rh  Rh247  1  0.19587255  0.40191531  0.20832277  1
  Rh  Rh248  1  0.21193981  0.58957537  0.40784526  1
  Rh  Rh249  1  0.20540758  0.20888706  0.40891030  1
