# generated using pymatgen
data_ZrScNbPdRh
_symmetry_space_group_name_H-M   'P 1'
_cell_length_a   16.56269308
_cell_length_b   16.56059156
_cell_length_c   16.56074616
_cell_angle_alpha   90.02522215
_cell_angle_beta   89.99141362
_cell_angle_gamma   89.99125539
_symmetry_Int_Tables_number   1
_chemical_formula_structural   ZrScNbPdRh
_chemical_formula_sum   'Zr50 Sc50 Nb50 Pd50 Rh50'
_cell_volume   4542.41331894
_cell_formula_units_Z   50
loop_
 _symmetry_equiv_pos_site_id
 _symmetry_equiv_pos_as_xyz
  1  'x, y, z'
loop_
 _atom_site_type_symbol
 _atom_site_label
 _atom_site_symmetry_multiplicity
 _atom_site_fract_x
 _atom_site_fract_y
 _atom_site_fract_z
 _atom_site_occupancy
  Zr  Zr0  1  0.10640000  0.30606595  0.29865391  1
  Zr  Zr1  1  0.50619487  0.29943734  0.49475060  1
  Zr  Zr2  1  0.49571143  0.09403148  0.50105185  1
  Zr  Zr3  1  0.68758687  0.69338722  0.70577683  1
  Zr  Zr4  1  0.89925322  0.69640099  0.70268391  1
  Zr  Zr5  1  0.49940150  0.69786807  0.69647210  1
  Zr  Zr6  1  0.29139926  0.90778397  0.89870965  1
  Zr  Zr7  1  0.90654444  0.90171501  0.89809914  1
  Zr  Zr8  1  0.49710299  0.69945905  0.10763480  1
  Zr  Zr9  1  0.89784647  0.30472690  0.90128778  1
  Zr  Zr10  1  0.29303594  0.09954443  0.10016095  1
  Zr  Zr11  1  0.70536862  0.89399343  0.49720756  1
  Zr  Zr12  1  0.70503692  0.50566631  0.90186564  1
  Zr  Zr13  1  0.29554189  0.29305892  0.10418114  1
  Zr  Zr14  1  0.50044699  0.69715878  0.51207260  1
  Zr  Zr15  1  0.10835218  0.30424772  0.69332390  1
  Zr  Zr16  1  0.51335028  0.70289416  0.90207424  1
  Zr  Zr17  1  0.30425498  0.09398018  0.70246370  1
  Zr  Zr18  1  0.30349900  0.30187646  0.89224349  1
  Zr  Zr19  1  0.09395117  0.48980328  0.49939363  1
  Zr  Zr20  1  0.29757477  0.10015271  0.30523958  1
  Zr  Zr21  1  0.29394059  0.50129468  0.89919221  1
  Zr  Zr22  1  0.50484156  0.31309964  0.69834468  1
  Zr  Zr23  1  0.10229796  0.09573253  0.30026965  1
  Zr  Zr24  1  0.29771486  0.89553826  0.10119698  1
  Zr  Zr25  1  0.88337878  0.10098194  0.69689593  1
  Zr  Zr26  1  0.10672127  0.89342250  0.70310182  1
  Zr  Zr27  1  0.89983419  0.49759546  0.09821342  1
  Zr  Zr28  1  0.70080710  0.10879445  0.51230208  1
  Zr  Zr29  1  0.30300030  0.29164782  0.30229894  1
  Zr  Zr30  1  0.10029197  0.49333052  0.10371426  1
  Zr  Zr31  1  0.49515436  0.09401631  0.89624957  1
  Zr  Zr32  1  0.69626006  0.69169855  0.09649435  1
  Zr  Zr33  1  0.91254360  0.29936002  0.09980826  1
  Zr  Zr34  1  0.48932048  0.89631021  0.30706341  1
  Zr  Zr35  1  0.09976278  0.50101046  0.69815810  1
  Zr  Zr36  1  0.69594067  0.89873520  0.89989078  1
  Zr  Zr37  1  0.10190383  0.09848910  0.49702814  1
  Zr  Zr38  1  0.69711934  0.09024414  0.89496994  1
  Zr  Zr39  1  0.69719133  0.29499141  0.69597068  1
  Zr  Zr40  1  0.50093095  0.89426967  0.50349601  1
  Zr  Zr41  1  0.90314345  0.09801913  0.29825353  1
  Zr  Zr42  1  0.29885129  0.10267936  0.50569875  1
  Zr  Zr43  1  0.09338029  0.10677277  0.09857027  1
  Zr  Zr44  1  0.30227806  0.70609152  0.29075476  1
  Zr  Zr45  1  0.89981349  0.90405518  0.50009939  1
  Zr  Zr46  1  0.89652081  0.29313190  0.29432837  1
  Zr  Zr47  1  0.09707574  0.89805106  0.50121849  1
  Zr  Zr48  1  0.28977707  0.89653974  0.29862037  1
  Zr  Zr49  1  0.50083090  0.91053725  0.90702850  1
  Sc  Sc50  1  0.89692965  0.49992894  0.49447198  1
  Sc  Sc51  1  0.09877854  0.70624858  0.50680533  1
  Sc  Sc52  1  0.50395283  0.50064583  0.30394577  1
  Sc  Sc53  1  0.50292274  0.48582630  0.90286655  1
  Sc  Sc54  1  0.49628478  0.49775664  0.50158094  1
  Sc  Sc55  1  0.90363944  0.50380040  0.70403374  1
  Sc  Sc56  1  0.88969278  0.29699756  0.69979001  1
  Sc  Sc57  1  0.69344230  0.30032715  0.10022061  1
  Sc  Sc58  1  0.51192410  0.50233367  0.10064538  1
  Sc  Sc59  1  0.89335014  0.70702821  0.49823111  1
  Sc  Sc60  1  0.69701141  0.70482607  0.50005569  1
  Sc  Sc61  1  0.49374711  0.10821247  0.30706649  1
  Sc  Sc62  1  0.70125799  0.10339807  0.10854651  1
  Sc  Sc63  1  0.91098110  0.90269536  0.10095128  1
  Sc  Sc64  1  0.49787106  0.09420475  0.69501713  1
  Sc  Sc65  1  0.30549310  0.49079892  0.30261430  1
  Sc  Sc66  1  0.10550893  0.29057776  0.90389099  1
  Sc  Sc67  1  0.50510016  0.09756392  0.09014528  1
  Sc  Sc68  1  0.88297369  0.49826610  0.29885421  1
  Sc  Sc69  1  0.70113166  0.49913445  0.10107440  1
  Sc  Sc70  1  0.71516534  0.10242869  0.29980407  1
  Sc  Sc71  1  0.69882936  0.31120534  0.90090959  1
  Sc  Sc72  1  0.10219825  0.72000481  0.30588398  1
  Sc  Sc73  1  0.49610653  0.69540886  0.30096529  1
  Sc  Sc74  1  0.09944853  0.51051498  0.90078264  1
  Sc  Sc75  1  0.89943937  0.50358018  0.90049207  1
  Sc  Sc76  1  0.30936636  0.49946739  0.50134932  1
  Sc  Sc77  1  0.90553023  0.70317828  0.09488471  1
  Sc  Sc78  1  0.30161720  0.49842285  0.10124870  1
  Sc  Sc79  1  0.89990696  0.30298344  0.48958602  1
  Sc  Sc80  1  0.70507972  0.69098219  0.30830149  1
  Sc  Sc81  1  0.70330637  0.89991315  0.09395694  1
  Sc  Sc82  1  0.69247269  0.50318643  0.48580241  1
  Sc  Sc83  1  0.10021270  0.70284478  0.08529548  1
  Sc  Sc84  1  0.29824334  0.49542988  0.69824346  1
  Sc  Sc85  1  0.90640723  0.69325047  0.90171540  1
  Sc  Sc86  1  0.30363771  0.89986634  0.50029420  1
  Sc  Sc87  1  0.49837494  0.90228882  0.69844962  1
  Sc  Sc88  1  0.69549256  0.30056858  0.30031252  1
  Sc  Sc89  1  0.90352274  0.89970564  0.69671381  1
  Sc  Sc90  1  0.30391084  0.30076207  0.49974833  1
  Sc  Sc91  1  0.28925997  0.70248951  0.69692666  1
  Sc  Sc92  1  0.30161697  0.29915766  0.69780280  1
  Sc  Sc93  1  0.90979641  0.09482602  0.89420161  1
  Sc  Sc94  1  0.90150263  0.90371404  0.30546296  1
  Sc  Sc95  1  0.29887141  0.70028724  0.50453934  1
  Sc  Sc96  1  0.11364549  0.09517915  0.69087176  1
  Sc  Sc97  1  0.09732665  0.69986393  0.69788194  1
  Sc  Sc98  1  0.09780785  0.90356072  0.10019295  1
  Sc  Sc99  1  0.10292854  0.70364950  0.89859173  1
  Nb  Nb100  1  0.50326503  0.30019983  0.09282402  1
  Nb  Nb101  1  0.89645300  0.69476680  0.29616681  1
  Nb  Nb102  1  0.29954763  0.10116265  0.90129160  1
  Nb  Nb103  1  0.70362993  0.70192147  0.90064970  1
  Nb  Nb104  1  0.69238693  0.49651094  0.70059849  1
  Nb  Nb105  1  0.29597757  0.70168234  0.90788314  1
  Nb  Nb106  1  0.10344742  0.29953245  0.10264297  1
  Nb  Nb107  1  0.69274215  0.30086518  0.50969321  1
  Nb  Nb108  1  0.69761269  0.10151195  0.70373024  1
  Nb  Nb109  1  0.70399873  0.89987179  0.30325073  1
  Nb  Nb110  1  0.10650864  0.09415900  0.89858457  1
  Nb  Nb111  1  0.09591909  0.90611789  0.89957342  1
  Nb  Nb112  1  0.09793126  0.29852767  0.49974555  1
  Nb  Nb113  1  0.10723560  0.50054746  0.29987486  1
  Nb  Nb114  1  0.49615236  0.29769154  0.29744182  1
  Nb  Nb115  1  0.50509178  0.50556377  0.69388306  1
  Nb  Nb116  1  0.90227637  0.09967719  0.49644810  1
  Nb  Nb117  1  0.70239624  0.50845277  0.29316233  1
  Nb  Nb118  1  0.29492096  0.90037232  0.70480024  1
  Nb  Nb119  1  0.49881717  0.90396182  0.10159007  1
  Nb  Nb120  1  0.50199568  0.29822508  0.90290307  1
  Nb  Nb121  1  0.70293573  0.90958466  0.70356590  1
  Nb  Nb122  1  0.90072117  0.10364408  0.10563540  1
  Nb  Nb123  1  0.09971889  0.90652137  0.30153176  1
  Nb  Nb124  1  0.29767978  0.70006260  0.09590063  1
  Nb  Nb125  1  -0.00063017  0.19939814  0.59644771  1
  Nb  Nb126  1  0.00521714  0.19965829  0.79143718  1
  Nb  Nb127  1  0.00449754  0.39327620  0.79846399  1
  Nb  Nb128  1  0.19599566  0.60242798  0.20371268  1
  Nb  Nb129  1  0.79274381  0.79708644  0.80328767  1
  Nb  Nb130  1  0.00374670  0.60054623  0.39025967  1
  Nb  Nb131  1  0.80591153  0.19474576  0.00146267  1
  Nb  Nb132  1  0.80724740  0.00706878  0.00108941  1
  Nb  Nb133  1  0.39799330  0.60587674  -0.00390374  1
  Nb  Nb134  1  0.19992460  0.39433393  0.00362284  1
  Nb  Nb135  1  0.40009330  0.60518959  0.80447985  1
  Nb  Nb136  1  0.39772899  0.79788278  -0.00050396  1
  Nb  Nb137  1  0.60436211  0.80576235  0.20491223  1
  Nb  Nb138  1  0.79074803  0.59359085  0.60437547  1
  Nb  Nb139  1  0.39509748  0.79697271  0.80807697  1
  Nb  Nb140  1  0.60532586  -0.00279822  0.39790142  1
  Nb  Nb141  1  0.40945103  0.38798834  0.19702712  1
  Nb  Nb142  1  0.79735379  0.79832658  0.20372859  1
  Nb  Nb143  1  0.78897417  0.40360443  0.59835316  1
  Nb  Nb144  1  0.00538687  0.60109809  0.20802445  1
  Nb  Nb145  1  0.40114075  -0.00200052  0.19949496  1
  Nb  Nb146  1  0.59841917  0.20035254  0.79895704  1
  Nb  Nb147  1  0.59701512  -0.00706396  0.20839239  1
  Nb  Nb148  1  0.40024625  0.20276935  -0.00625123  1
  Nb  Nb149  1  0.19399616  0.59876089  0.39490273  1
  Pd  Pd150  1  0.78885785  0.39616176  0.40287229  1
  Pd  Pd151  1  0.59280646  0.58871246  0.80880373  1
  Pd  Pd152  1  0.20827437  0.40165663  0.59178246  1
  Pd  Pd153  1  0.40556473  0.20567833  0.60107436  1
  Pd  Pd154  1  0.80374081  0.40695578  0.79287909  1
  Pd  Pd155  1  0.60468205  -0.00414790  0.59720489  1
  Pd  Pd156  1  0.40811754  0.20120937  0.79830501  1
  Pd  Pd157  1  0.59760766  0.80976631  0.79369849  1
  Pd  Pd158  1  0.00634599  0.00860716  0.78608524  1
  Pd  Pd159  1  0.59944156  0.79739635  0.39412646  1
  Pd  Pd160  1  0.79404368  0.39417757  0.19450452  1
  Pd  Pd161  1  -0.00240122  0.19510993  -0.00966303  1
  Pd  Pd162  1  0.39612837  0.58730645  0.19701231  1
  Pd  Pd163  1  0.20755962  0.40178194  0.40715818  1
  Pd  Pd164  1  -0.00610928  0.79877900  0.39944989  1
  Pd  Pd165  1  0.41089350  0.19394415  0.18817643  1
  Pd  Pd166  1  0.80555033  0.60232526  0.00257974  1
  Pd  Pd167  1  0.79595025  0.19918682  0.81232272  1
  Pd  Pd168  1  0.18578821  0.79582691  0.19154261  1
  Pd  Pd169  1  0.60473722  0.19717036  -0.00850333  1
  Pd  Pd170  1  0.79676634  -0.00143223  0.59619616  1
  Pd  Pd171  1  -0.00371121  0.79484718  0.80138730  1
  Pd  Pd172  1  0.79259860  0.79268405  0.61297087  1
  Pd  Pd173  1  0.59715055  0.40208760  0.20385996  1
  Pd  Pd174  1  0.00407921  0.20165881  0.39934177  1
  Pd  Pd175  1  -0.01481077  0.39175343  0.60559449  1
  Pd  Pd176  1  -0.00017068  0.00689285  0.60620312  1
  Pd  Pd177  1  0.60663357  0.19184976  0.39504064  1
  Pd  Pd178  1  0.19337233  -0.00058711  0.00430454  1
  Pd  Pd179  1  0.59602059  0.19166299  0.20472006  1
  Pd  Pd180  1  0.79501520  0.20389404  0.40567245  1
  Pd  Pd181  1  0.79931531  -0.00966272  0.19328836  1
  Pd  Pd182  1  0.39291241  0.60368749  0.40165471  1
  Pd  Pd183  1  0.01081428  0.40169892  -0.01117215  1
  Pd  Pd184  1  0.59674481  0.80230468  0.01070687  1
  Pd  Pd185  1  0.59497921  0.60437905  0.40057908  1
  Pd  Pd186  1  0.19948153  0.59501764  0.58995531  1
  Pd  Pd187  1  0.19709212  0.19506985  0.79788479  1
  Pd  Pd188  1  0.20278947  -0.00562991  0.40648459  1
  Pd  Pd189  1  -0.00491970  0.40606690  0.21123993  1
  Pd  Pd190  1  0.20182482  0.60547362  0.79562319  1
  Pd  Pd191  1  0.39197138  0.80273043  0.61025888  1
  Pd  Pd192  1  -0.00602197  0.40636851  0.38790174  1
  Pd  Pd193  1  -0.00955252  0.60427239  0.58816666  1
  Pd  Pd194  1  0.80797347  0.80462584  0.00040635  1
  Pd  Pd195  1  -0.00174156  0.79686190  0.20112996  1
  Pd  Pd196  1  0.40368701  0.41005883  0.79371259  1
  Pd  Pd197  1  0.39423733  0.79039739  0.40641136  1
  Pd  Pd198  1  0.39732190  0.40032539  0.00765958  1
  Pd  Pd199  1  0.60205848  0.40065154  0.39297495  1
  Rh  Rh200  1  0.59787581  0.59437674  -0.00446631  1
  Rh  Rh201  1  0.79721904  0.60411728  0.79574465  1
  Rh  Rh202  1  0.00668190  0.20121222  0.20766235  1
  Rh  Rh203  1  0.40540567  0.39501421  0.39393879  1
  Rh  Rh204  1  0.39361552  -0.00704972  0.60216269  1
  Rh  Rh205  1  -0.00093167  0.80041356  0.60254928  1
  Rh  Rh206  1  0.39623594  -0.00795536  0.79703850  1
  Rh  Rh207  1  0.80448155  0.60594011  0.19177846  1
  Rh  Rh208  1  0.39608272  0.59717352  0.61039082  1
  Rh  Rh209  1  0.19755541  0.00388491  0.79921897  1
  Rh  Rh210  1  0.20624590  0.20269411  -0.00491563  1
  Rh  Rh211  1  0.40276813  0.40086461  0.60089395  1
  Rh  Rh212  1  0.20581032  -0.00927140  0.59747679  1
  Rh  Rh213  1  0.39279921  0.00274199  0.00690689  1
  Rh  Rh214  1  -0.00008154  0.59865689  0.00685640  1
  Rh  Rh215  1  0.39958919  0.00350992  0.39671267  1
  Rh  Rh216  1  0.20012991  0.00107383  0.19786764  1
  Rh  Rh217  1  0.61316538  0.00438189  0.01204312  1
  Rh  Rh218  1  0.19063379  0.40208616  0.80839636  1
  Rh  Rh219  1  0.60437124  0.60595542  0.20709590  1
  Rh  Rh220  1  0.00255980  -0.00001139  0.20267205  1
  Rh  Rh221  1  -0.00059915  -0.00208297  0.39837486  1
  Rh  Rh222  1  0.79868461  0.39358199  0.00848264  1
  Rh  Rh223  1  0.19761472  0.20490665  0.59317366  1
  Rh  Rh224  1  0.39967842  0.20185524  0.40948413  1
  Rh  Rh225  1  0.80203094  -0.00859166  0.80412588  1
  Rh  Rh226  1  0.60168393  0.40896557  0.59343170  1
  Rh  Rh227  1  0.20424747  0.59096987  0.00980483  1
  Rh  Rh228  1  0.20139780  0.79934467  0.40651009  1
  Rh  Rh229  1  0.79721150  0.00620000  0.40777003  1
  Rh  Rh230  1  -0.00045135  0.00455043  0.00280237  1
  Rh  Rh231  1  0.59541155  0.00305588  0.79012784  1
  Rh  Rh232  1  0.59967627  0.39955518  0.80336628  1
  Rh  Rh233  1  0.20039387  0.80452263  0.59765811  1
  Rh  Rh234  1  0.19078504  0.19731001  0.20550201  1
  Rh  Rh235  1  0.80448700  0.60115448  0.40878560  1
  Rh  Rh236  1  0.00551331  0.59604656  0.79944177  1
  Rh  Rh237  1  0.19704114  0.80886153  -0.00365237  1
  Rh  Rh238  1  0.81033092  0.20965269  0.58785233  1
  Rh  Rh239  1  0.80572627  0.79727369  0.39159542  1
  Rh  Rh240  1  0.58935254  0.19753809  0.60852411  1
  Rh  Rh241  1  0.00549068  0.80427091  -0.00683833  1
  Rh  Rh242  1  0.21116499  0.40222642  0.19634261  1
  Rh  Rh243  1  0.19994907  0.80042279  0.80507872  1
  Rh  Rh244  1  0.80076079  0.20977396  0.19034614  1
  Rh  Rh245  1  0.40471256  0.80599286  0.19359348  1
  Rh  Rh246  1  0.60530675  0.59392359  0.59070381  1
  Rh  Rh247  1  0.60586919  0.40314293  -0.00049397  1
  Rh  Rh248  1  0.60587398  0.80764614  0.60645114  1
  Rh  Rh249  1  0.19810319  0.20553257  0.40433944  1
