# generated using pymatgen
data_ZrScNbPdRh
_symmetry_space_group_name_H-M   'P 1'
_cell_length_a   16.56162788
_cell_length_b   16.56566488
_cell_length_c   16.56417291
_cell_angle_alpha   90.02000841
_cell_angle_beta   89.98978704
_cell_angle_gamma   90.02553628
_symmetry_Int_Tables_number   1
_chemical_formula_structural   ZrScNbPdRh
_chemical_formula_sum   'Zr50 Sc50 Nb50 Pd50 Rh50'
_cell_volume   4544.45254530
_cell_formula_units_Z   50
loop_
 _symmetry_equiv_pos_site_id
 _symmetry_equiv_pos_as_xyz
  1  'x, y, z'
loop_
 _atom_site_type_symbol
 _atom_site_label
 _atom_site_symmetry_multiplicity
 _atom_site_fract_x
 _atom_site_fract_y
 _atom_site_fract_z
 _atom_site_occupancy
  Zr  Zr0  1  0.29898897  0.70754472  0.70256539  1
  Zr  Zr1  1  0.09564075  0.70026485  0.69985481  1
  Zr  Zr2  1  0.28696344  0.90217593  0.90076565  1
  Zr  Zr3  1  0.29939328  0.90439742  0.49835236  1
  Zr  Zr4  1  0.50308559  0.10233376  0.09731322  1
  Zr  Zr5  1  0.69893901  0.70460147  0.70276734  1
  Zr  Zr6  1  0.50643219  0.70224833  0.90407591  1
  Zr  Zr7  1  0.89238214  0.89993263  0.49878830  1
  Zr  Zr8  1  0.89732379  0.30705179  0.90462399  1
  Zr  Zr9  1  0.89769306  0.09962030  0.49421878  1
  Zr  Zr10  1  0.89723485  0.50631272  0.29617482  1
  Zr  Zr11  1  0.49732197  0.50220722  0.70337887  1
  Zr  Zr12  1  0.09961729  0.70675171  0.10453457  1
  Zr  Zr13  1  0.50751769  0.90042187  0.30501869  1
  Zr  Zr14  1  0.49781358  0.70374332  0.70381943  1
  Zr  Zr15  1  0.10447069  0.30285101  0.09358634  1
  Zr  Zr16  1  0.70490713  0.30134487  0.90059870  1
  Zr  Zr17  1  0.69841973  0.49271730  0.69306023  1
  Zr  Zr18  1  0.70366050  0.69583737  0.30005406  1
  Zr  Zr19  1  0.48556553  0.29641285  0.10353934  1
  Zr  Zr20  1  0.89998591  0.49700938  0.69419976  1
  Zr  Zr21  1  0.10540217  0.89598551  0.49872192  1
  Zr  Zr22  1  0.90697303  0.89002224  0.09530324  1
  Zr  Zr23  1  0.69847274  0.09998707  0.70237091  1
  Zr  Zr24  1  0.90458846  0.50288097  0.89146131  1
  Zr  Zr25  1  0.10247135  0.30524095  0.89370896  1
  Zr  Zr26  1  0.29333570  0.50408809  0.49070697  1
  Zr  Zr27  1  0.10406198  0.49990096  0.30213348  1
  Zr  Zr28  1  0.30194748  0.69541411  0.29457976  1
  Zr  Zr29  1  0.29832248  0.50146733  0.30052600  1
  Zr  Zr30  1  0.70501352  0.90136940  0.69834088  1
  Zr  Zr31  1  0.09360798  0.10522534  0.70841579  1
  Zr  Zr32  1  0.90058653  0.10573478  0.10445540  1
  Zr  Zr33  1  0.29624485  0.10189344  0.30247621  1
  Zr  Zr34  1  0.48972169  0.29724854  0.91480779  1
  Zr  Zr35  1  0.90700835  0.30314854  0.49910227  1
  Zr  Zr36  1  0.50106374  0.09894241  0.30107709  1
  Zr  Zr37  1  0.10511908  0.90315590  0.09622699  1
  Zr  Zr38  1  0.70063904  0.09630159  0.10403455  1
  Zr  Zr39  1  0.09182596  0.49784679  0.70695136  1
  Zr  Zr40  1  0.69544624  0.89803919  0.49665215  1
  Zr  Zr41  1  0.09560154  0.09755243  0.10317595  1
  Zr  Zr42  1  0.10177637  0.69889919  0.50709105  1
  Zr  Zr43  1  0.69040994  0.30408694  0.50915989  1
  Zr  Zr44  1  0.49645643  0.70800350  0.49079294  1
  Zr  Zr45  1  0.50422361  0.49820744  0.49279962  1
  Zr  Zr46  1  0.10611046  0.90050744  0.29813890  1
  Zr  Zr47  1  0.50369728  0.70394549  0.10110518  1
  Zr  Zr48  1  0.70248865  0.70775918  0.90098934  1
  Zr  Zr49  1  0.50309755  0.90382255  0.68372666  1
  Sc  Sc50  1  0.30412545  0.10224790  0.49866582  1
  Sc  Sc51  1  0.71473065  0.29676575  0.09846543  1
  Sc  Sc52  1  0.90532259  0.09921152  0.89630856  1
  Sc  Sc53  1  0.10851260  0.89760904  0.69710161  1
  Sc  Sc54  1  0.89964373  0.49912125  0.10165478  1
  Sc  Sc55  1  0.70183585  0.49613158  0.89143977  1
  Sc  Sc56  1  0.69477505  0.10027912  0.49620148  1
  Sc  Sc57  1  0.89649808  0.69498210  0.50700582  1
  Sc  Sc58  1  0.50278350  0.50162580  0.29577718  1
  Sc  Sc59  1  0.70229909  0.50031726  0.11519469  1
  Sc  Sc60  1  0.69861470  0.09834956  0.90823808  1
  Sc  Sc61  1  0.50442472  0.90521494  0.90155115  1
  Sc  Sc62  1  0.50765972  0.89374533  0.10176536  1
  Sc  Sc63  1  0.30591532  0.48492979  0.89147869  1
  Sc  Sc64  1  0.10723965  0.69617047  0.29317891  1
  Sc  Sc65  1  0.69983102  0.89320822  0.29835690  1
  Sc  Sc66  1  0.10311946  0.09659546  0.29612560  1
  Sc  Sc67  1  0.69624820  0.29813188  0.30059280  1
  Sc  Sc68  1  0.70353264  0.69947540  0.49014790  1
  Sc  Sc69  1  0.28834076  0.10569145  0.10175163  1
  Sc  Sc70  1  0.89834011  0.69107114  0.70398312  1
  Sc  Sc71  1  0.90093835  0.09932911  0.70962021  1
  Sc  Sc72  1  0.70027032  0.89892241  0.90171556  1
  Sc  Sc73  1  0.09579943  0.29838315  0.49956132  1
  Sc  Sc74  1  0.50253646  0.28482178  0.50065816  1
  Sc  Sc75  1  0.29812431  0.49218568  0.11109307  1
  Sc  Sc76  1  0.50741187  0.29830280  0.68943315  1
  Sc  Sc77  1  0.29561013  0.09864025  0.69754740  1
  Sc  Sc78  1  0.30561517  0.71847474  0.89779233  1
  Sc  Sc79  1  0.89316962  0.89802197  0.30112985  1
  Sc  Sc80  1  0.10120747  0.29518756  0.30629153  1
  Sc  Sc81  1  0.09815884  0.09085324  0.90057276  1
  Sc  Sc82  1  0.09526248  0.49360465  0.90170212  1
  Sc  Sc83  1  0.10761220  0.10007238  0.49379285  1
  Sc  Sc84  1  0.49688017  0.09331305  0.69270571  1
  Sc  Sc85  1  0.29295469  0.09394024  0.89629885  1
  Sc  Sc86  1  0.29758865  0.70441151  0.48788146  1
  Sc  Sc87  1  0.29467184  0.89902550  0.30010352  1
  Sc  Sc88  1  0.69981694  0.30296295  0.70363212  1
  Sc  Sc89  1  0.30158590  0.90412686  0.70092144  1
  Sc  Sc90  1  0.50195770  0.50319966  0.89925572  1
  Sc  Sc91  1  0.89943673  0.90161027  0.90247050  1
  Sc  Sc92  1  0.89504710  0.69882962  0.29145129  1
  Sc  Sc93  1  0.89806301  0.09977685  0.29929330  1
  Sc  Sc94  1  0.50107234  0.50050729  0.10576800  1
  Sc  Sc95  1  0.69561274  0.89592691  0.10577748  1
  Sc  Sc96  1  0.10588396  0.71113268  0.89868687  1
  Sc  Sc97  1  0.90303500  0.29283286  0.30370653  1
  Sc  Sc98  1  0.10225041  0.50428394  0.10520813  1
  Sc  Sc99  1  0.49752153  0.29369704  0.29484824  1
  Nb  Nb100  1  0.90492938  0.30032955  0.09881777  1
  Nb  Nb101  1  0.30477037  0.29766991  0.09639265  1
  Nb  Nb102  1  0.70288810  0.50501906  0.31208685  1
  Nb  Nb103  1  0.49951518  0.08482600  0.49887362  1
  Nb  Nb104  1  0.09515133  0.90519598  0.90119344  1
  Nb  Nb105  1  0.09888423  0.29788886  0.70122409  1
  Nb  Nb106  1  0.69909418  0.50213144  0.49420060  1
  Nb  Nb107  1  0.90922525  0.29397025  0.70009565  1
  Nb  Nb108  1  0.30061460  0.49890118  0.69994609  1
  Nb  Nb109  1  0.50090716  0.69959503  0.30065870  1
  Nb  Nb110  1  0.90043849  0.70103812  0.09620062  1
  Nb  Nb111  1  0.89918589  0.70730138  0.90303209  1
  Nb  Nb112  1  0.70280190  0.70476033  0.09826830  1
  Nb  Nb113  1  0.89990528  0.90380239  0.70109683  1
  Nb  Nb114  1  0.29400738  0.30272038  0.70624599  1
  Nb  Nb115  1  0.50019917  0.91103299  0.49519790  1
  Nb  Nb116  1  0.30392619  0.89554121  0.09549637  1
  Nb  Nb117  1  0.49692164  0.10267832  0.90826261  1
  Nb  Nb118  1  0.30290318  0.71103280  0.09382388  1
  Nb  Nb119  1  0.90414105  0.49668225  0.50085656  1
  Nb  Nb120  1  0.30088972  0.29844186  0.90415729  1
  Nb  Nb121  1  0.69560889  0.09477812  0.29261703  1
  Nb  Nb122  1  0.30410719  0.29808396  0.29651659  1
  Nb  Nb123  1  0.29923363  0.29782151  0.50214189  1
  Nb  Nb124  1  0.09375043  0.49511240  0.50024401  1
  Nb  Nb125  1  0.39807995  0.59793273  0.59895696  1
  Nb  Nb126  1  0.58914298  0.19641755  0.80848649  1
  Nb  Nb127  1  0.39761045  -0.00041426  0.00562545  1
  Nb  Nb128  1  0.20320630  0.59808541  0.80051001  1
  Nb  Nb129  1  0.39034734  0.39925776  0.59626293  1
  Nb  Nb130  1  -0.00390843  0.80513966  0.80009508  1
  Nb  Nb131  1  0.39915866  0.20324349  0.80397284  1
  Nb  Nb132  1  -0.00156918  0.60900473  0.00012083  1
  Nb  Nb133  1  0.39178852  0.60637262  0.00256896  1
  Nb  Nb134  1  0.59659493  0.60045748  0.59654070  1
  Nb  Nb135  1  0.00113501  0.79471252  0.40154558  1
  Nb  Nb136  1  0.20698490  0.60423517  -0.00320241  1
  Nb  Nb137  1  0.00010914  0.20663561  0.00127183  1
  Nb  Nb138  1  0.00087677  0.59788630  0.40356820  1
  Nb  Nb139  1  0.39894878  -0.00065654  0.19488537  1
  Nb  Nb140  1  -0.00035887  0.39545671  0.19963081  1
  Nb  Nb141  1  0.20252400  0.59192041  0.60448705  1
  Nb  Nb142  1  0.39442788  0.39327666  0.40219005  1
  Nb  Nb143  1  0.80485354  0.20275579  0.60076089  1
  Nb  Nb144  1  -0.00283997  -0.00228068  0.59969584  1
  Nb  Nb145  1  0.80336817  -0.00019566  0.00843874  1
  Nb  Nb146  1  0.80280238  0.60833795  0.00054872  1
  Nb  Nb147  1  0.79683018  0.40715534  0.40419765  1
  Nb  Nb148  1  0.60030427  0.39587285  0.00424433  1
  Nb  Nb149  1  0.19976575  0.39784265  0.60515285  1
  Pd  Pd150  1  0.40244698  0.00417587  0.80540138  1
  Pd  Pd151  1  0.80220645  0.79437035  0.60255446  1
  Pd  Pd152  1  0.39636163  0.80838373  0.39278040  1
  Pd  Pd153  1  0.40767239  0.81603508  0.80285703  1
  Pd  Pd154  1  0.39870183  0.60103571  0.19260320  1
  Pd  Pd155  1  0.60745496  0.59888471  0.79612903  1
  Pd  Pd156  1  0.79878263  -0.00141508  0.81154355  1
  Pd  Pd157  1  0.40870848  0.38805696  0.79286692  1
  Pd  Pd158  1  0.59610605  0.39371586  0.39372489  1
  Pd  Pd159  1  0.79618033  0.20134675  0.79855159  1
  Pd  Pd160  1  0.59023005  0.38909200  0.80849826  1
  Pd  Pd161  1  0.40024858  0.20132125  0.40158042  1
  Pd  Pd162  1  -0.00116628  0.80092972  0.21128404  1
  Pd  Pd163  1  -0.00555315  -0.00464498  0.20606431  1
  Pd  Pd164  1  0.19814290  0.20736915  0.20256154  1
  Pd  Pd165  1  0.79102449  0.60070802  0.59660425  1
  Pd  Pd166  1  0.79469673  0.41540785  0.00351377  1
  Pd  Pd167  1  0.80482552  0.39357918  0.21170297  1
  Pd  Pd168  1  0.19479596  0.00585274  0.60212590  1
  Pd  Pd169  1  0.20384176  0.19773226  0.80549001  1
  Pd  Pd170  1  0.20569136  0.40991954  -0.00139766  1
  Pd  Pd171  1  0.79636390  0.60037191  0.80382936  1
  Pd  Pd172  1  0.79064498  0.20639044  0.40381836  1
  Pd  Pd173  1  0.00618804  0.19076657  0.39590693  1
  Pd  Pd174  1  0.60288087  0.60313207  0.20276694  1
  Pd  Pd175  1  0.79039876  0.00089859  0.39199941  1
  Pd  Pd176  1  0.19663052  0.39062224  0.20283481  1
  Pd  Pd177  1  0.59674856  0.81127033  0.79928427  1
  Pd  Pd178  1  -0.00925549  0.80609313  0.60124551  1
  Pd  Pd179  1  0.40136469  0.80762646  0.20570747  1
  Pd  Pd180  1  0.80204962  0.00982826  0.60027870  1
  Pd  Pd181  1  0.80338986  0.39325517  0.59737159  1
  Pd  Pd182  1  0.39519504  0.79990962  0.59448771  1
  Pd  Pd183  1  0.60125848  0.39394923  0.19696591  1
  Pd  Pd184  1  0.59696082  0.00416104  0.80225044  1
  Pd  Pd185  1  0.20159468  0.38912479  0.40415351  1
  Pd  Pd186  1  0.60333264  0.20630968  0.19460019  1
  Pd  Pd187  1  0.80252220  -0.00800335  0.19698735  1
  Pd  Pd188  1  0.19629761  0.20248236  0.59835254  1
  Pd  Pd189  1  -0.00255786  0.18970321  0.59700976  1
  Pd  Pd190  1  0.39103625  0.60404103  0.80913876  1
  Pd  Pd191  1  0.40097498  0.41467115  0.00684414  1
  Pd  Pd192  1  0.79928138  0.20359950  0.20763000  1
  Pd  Pd193  1  0.60722497  0.58911037  0.00312816  1
  Pd  Pd194  1  0.60170950  0.79380799  0.59149614  1
  Pd  Pd195  1  0.19568104  0.19595604  -0.00824919  1
  Pd  Pd196  1  0.60775453  0.20715297  0.00267228  1
  Pd  Pd197  1  0.60165653  0.19446651  0.39905935  1
  Pd  Pd198  1  0.00213046  -0.00558218  0.40119554  1
  Pd  Pd199  1  0.39937704  0.19962842  0.60706250  1
  Rh  Rh200  1  0.38131739  0.18742523  -0.00363713  1
  Rh  Rh201  1  0.59500879  0.60623137  0.39958211  1
  Rh  Rh202  1  0.80697255  0.79556701  0.39861972  1
  Rh  Rh203  1  0.19384524  0.80065986  0.00134921  1
  Rh  Rh204  1  0.80790204  0.39719393  0.79097585  1
  Rh  Rh205  1  0.80808592  0.80493236  0.79546949  1
  Rh  Rh206  1  0.20975030  0.60798355  0.18643138  1
  Rh  Rh207  1  0.60155534  -0.00278233  0.00430686  1
  Rh  Rh208  1  0.60410109  0.18910126  0.60681703  1
  Rh  Rh209  1  0.59167928  0.40787980  0.59736543  1
  Rh  Rh210  1  0.20579988  0.80167664  0.19850747  1
  Rh  Rh211  1  0.60649456  0.00139422  0.59566567  1
  Rh  Rh212  1  0.00330856  0.59411221  0.59419130  1
  Rh  Rh213  1  0.00694885  0.79809302  -0.00798791  1
  Rh  Rh214  1  0.00791198  0.61409797  0.81418267  1
  Rh  Rh215  1  0.39331481  0.19154025  0.19868197  1
  Rh  Rh216  1  -0.00109404  0.40444390  0.00950357  1
  Rh  Rh217  1  -0.00901366  0.40789686  0.38802936  1
  Rh  Rh218  1  0.00443225  -0.01050344  0.79248910  1
  Rh  Rh219  1  0.60741980  0.00222592  0.39598756  1
  Rh  Rh220  1  0.60250011  0.79111773  0.20632806  1
  Rh  Rh221  1  0.79848136  0.79805455  0.19616661  1
  Rh  Rh222  1  0.18834592  0.60560861  0.40388487  1
  Rh  Rh223  1  0.81157904  0.59628471  0.40618374  1
  Rh  Rh224  1  0.60107254  0.79734195  0.39770780  1
  Rh  Rh225  1  0.20318085  0.00299278  0.40030631  1
  Rh  Rh226  1  0.39726431  -0.00115202  0.39325370  1
  Rh  Rh227  1  0.20335214  0.00005472  0.00443699  1
  Rh  Rh228  1  -0.00576403  0.39312615  0.79486957  1
  Rh  Rh229  1  0.81106507  0.19103483  -0.00333177  1
  Rh  Rh230  1  0.40953515  0.80444549  -0.00547889  1
  Rh  Rh231  1  -0.00723474  0.00777177  0.00183619  1
  Rh  Rh232  1  0.40684300  0.59452875  0.39655495  1
  Rh  Rh233  1  0.19824807  0.40203316  0.79869705  1
  Rh  Rh234  1  0.19431377  -0.00125313  0.79418526  1
  Rh  Rh235  1  0.00613996  0.20674269  0.19561857  1
  Rh  Rh236  1  0.19228299  0.80332690  0.79713386  1
  Rh  Rh237  1  0.59494819  -0.00028031  0.20215465  1
  Rh  Rh238  1  0.20977049  0.79618407  0.59873176  1
  Rh  Rh239  1  0.79493867  0.80450100  0.00484965  1
  Rh  Rh240  1  0.19533085  0.79510975  0.39440547  1
  Rh  Rh241  1  0.00635709  0.39626529  0.60650173  1
  Rh  Rh242  1  0.20215627  0.20172327  0.39981639  1
  Rh  Rh243  1  0.39355937  0.00080858  0.59559690  1
  Rh  Rh244  1  -0.00021048  0.59370166  0.19836003  1
  Rh  Rh245  1  0.20809795  -0.00520849  0.19559016  1
  Rh  Rh246  1  0.00027036  0.20683205  0.81098338  1
  Rh  Rh247  1  0.39856419  0.39726287  0.20798974  1
  Rh  Rh248  1  0.79526202  0.60663576  0.19125306  1
  Rh  Rh249  1  0.60163141  0.80411752  -0.00041625  1
