# generated using pymatgen
data_ZrScNbPdRh
_symmetry_space_group_name_H-M   'P 1'
_cell_length_a   16.56293835
_cell_length_b   16.56579445
_cell_length_c   16.56334330
_cell_angle_alpha   89.98892063
_cell_angle_beta   89.99177986
_cell_angle_gamma   90.00868336
_symmetry_Int_Tables_number   1
_chemical_formula_structural   ZrScNbPdRh
_chemical_formula_sum   'Zr50 Sc50 Nb50 Pd50 Rh50'
_cell_volume   4544.62067092
_cell_formula_units_Z   50
loop_
 _symmetry_equiv_pos_site_id
 _symmetry_equiv_pos_as_xyz
  1  'x, y, z'
loop_
 _atom_site_type_symbol
 _atom_site_label
 _atom_site_symmetry_multiplicity
 _atom_site_fract_x
 _atom_site_fract_y
 _atom_site_fract_z
 _atom_site_occupancy
  Zr  Zr0  1  0.10463308  0.70638199  0.30415253  1
  Zr  Zr1  1  0.69953426  0.09312612  0.29783807  1
  Zr  Zr2  1  0.48659912  0.09213121  0.29695831  1
  Zr  Zr3  1  0.29742407  0.69683392  0.49832039  1
  Zr  Zr4  1  0.90163941  0.30346266  0.09913636  1
  Zr  Zr5  1  0.89732810  0.70714869  0.69867798  1
  Zr  Zr6  1  0.89253523  0.71137467  0.30933514  1
  Zr  Zr7  1  0.90132966  0.30002703  0.90054725  1
  Zr  Zr8  1  0.50190770  0.89658206  0.50852281  1
  Zr  Zr9  1  0.50227416  0.70428912  0.49576483  1
  Zr  Zr10  1  0.50016644  0.88530313  0.30282904  1
  Zr  Zr11  1  0.11259751  0.49763390  0.69852150  1
  Zr  Zr12  1  0.89488465  0.90987576  0.70225817  1
  Zr  Zr13  1  0.70501367  0.69687256  0.70247568  1
  Zr  Zr14  1  0.89812051  0.30098362  0.30181502  1
  Zr  Zr15  1  0.49703229  0.49943801  0.89288708  1
  Zr  Zr16  1  0.10188443  0.50574596  0.28872759  1
  Zr  Zr17  1  0.49621609  0.29226317  0.50287158  1
  Zr  Zr18  1  0.29714512  0.89992818  0.89826270  1
  Zr  Zr19  1  0.30099893  0.30179211  0.49698635  1
  Zr  Zr20  1  0.69759594  0.50158533  0.29566916  1
  Zr  Zr21  1  0.29513316  0.49455353  0.10100539  1
  Zr  Zr22  1  0.28924409  0.89804067  0.70017400  1
  Zr  Zr23  1  0.70190310  0.29931735  0.69730932  1
  Zr  Zr24  1  0.30070052  0.29739097  0.30187408  1
  Zr  Zr25  1  0.10267297  0.09979351  0.10683901  1
  Zr  Zr26  1  0.89752275  0.90108321  0.09967642  1
  Zr  Zr27  1  0.29136861  0.31048710  0.71245617  1
  Zr  Zr28  1  0.88993125  0.49732827  0.30022963  1
  Zr  Zr29  1  0.09840820  0.90446746  0.68752240  1
  Zr  Zr30  1  0.50521522  0.69502020  0.69069433  1
  Zr  Zr31  1  0.69895165  0.50267120  0.89630703  1
  Zr  Zr32  1  0.49753200  0.69835934  0.29818035  1
  Zr  Zr33  1  0.30118575  0.70067322  0.90079960  1
  Zr  Zr34  1  0.49781899  0.10079304  0.91128938  1
  Zr  Zr35  1  0.49826341  0.09692584  0.50322110  1
  Zr  Zr36  1  0.49986400  0.90733300  0.10298202  1
  Zr  Zr37  1  0.30823822  0.69534710  0.29656393  1
  Zr  Zr38  1  0.30569112  0.48877046  0.89780476  1
  Zr  Zr39  1  0.09887619  0.49638434  0.09249328  1
  Zr  Zr40  1  0.90368611  0.49955917  0.10389079  1
  Zr  Zr41  1  0.70147488  0.29590086  0.89477258  1
  Zr  Zr42  1  0.49484233  0.30855992  0.30552918  1
  Zr  Zr43  1  0.09940666  0.71146934  0.49890676  1
  Zr  Zr44  1  0.70411065  0.70207305  0.10225642  1
  Zr  Zr45  1  0.49688096  0.09763045  0.68722903  1
  Zr  Zr46  1  0.29849180  0.89540307  0.50252388  1
  Zr  Zr47  1  0.69785000  0.09232426  0.09950324  1
  Zr  Zr48  1  0.50271855  0.69799006  0.89720831  1
  Zr  Zr49  1  0.30954927  0.10884158  0.09802582  1
  Sc  Sc50  1  0.10343337  0.30021160  0.09689262  1
  Sc  Sc51  1  0.10055507  0.30598855  0.90041252  1
  Sc  Sc52  1  0.29770931  0.50076487  0.49978222  1
  Sc  Sc53  1  0.90435200  0.89403720  0.50592087  1
  Sc  Sc54  1  0.09868502  0.30107092  0.70716215  1
  Sc  Sc55  1  0.69824387  0.70783341  0.50848731  1
  Sc  Sc56  1  0.89066593  0.51024273  0.70186745  1
  Sc  Sc57  1  0.10383995  0.90260023  0.10352593  1
  Sc  Sc58  1  0.50345168  0.49901788  0.49866430  1
  Sc  Sc59  1  0.69834478  0.70648811  0.29897129  1
  Sc  Sc60  1  0.10113574  0.68758106  0.10443625  1
  Sc  Sc61  1  0.49704767  0.70351879  0.10405867  1
  Sc  Sc62  1  0.70033784  0.90250814  0.69887516  1
  Sc  Sc63  1  0.11681917  0.50301332  0.49914088  1
  Sc  Sc64  1  0.10606230  0.70525293  0.69926635  1
  Sc  Sc65  1  0.09048152  0.09908180  0.29774054  1
  Sc  Sc66  1  0.31475508  0.10245442  0.50109246  1
  Sc  Sc67  1  0.70220572  0.10213306  0.89756896  1
  Sc  Sc68  1  0.50379359  0.30309819  0.90464381  1
  Sc  Sc69  1  0.49733768  0.49284964  0.10348332  1
  Sc  Sc70  1  0.30170997  0.69703025  0.10003102  1
  Sc  Sc71  1  0.89102965  0.30858283  0.50026996  1
  Sc  Sc72  1  0.90381793  0.29640868  0.70359316  1
  Sc  Sc73  1  0.49386315  0.49925326  0.29927867  1
  Sc  Sc74  1  0.90727464  0.09654450  0.50414311  1
  Sc  Sc75  1  0.88904892  0.70769942  0.50416992  1
  Sc  Sc76  1  0.69711724  0.31307382  0.30342429  1
  Sc  Sc77  1  0.30417703  0.49585529  0.30176412  1
  Sc  Sc78  1  0.89572563  0.69424485  0.89645699  1
  Sc  Sc79  1  0.09315601  0.09696348  0.50266262  1
  Sc  Sc80  1  0.10827640  0.30350136  0.49858753  1
  Sc  Sc81  1  0.69334185  0.30394456  0.09698995  1
  Sc  Sc82  1  0.70244350  0.09422348  0.70484155  1
  Sc  Sc83  1  0.11122612  0.89662107  0.89708306  1
  Sc  Sc84  1  0.10787268  0.10715085  0.89655838  1
  Sc  Sc85  1  0.90353375  0.70098968  0.09125473  1
  Sc  Sc86  1  0.50526908  0.29477583  0.69966642  1
  Sc  Sc87  1  0.90105417  0.09928661  0.10134163  1
  Sc  Sc88  1  0.69458314  0.31003227  0.50237726  1
  Sc  Sc89  1  0.29628802  0.89849715  0.09495056  1
  Sc  Sc90  1  0.50675839  0.89826232  0.90220045  1
  Sc  Sc91  1  0.70658589  0.89828276  0.89244490  1
  Sc  Sc92  1  0.09473381  0.69551250  0.90500005  1
  Sc  Sc93  1  0.30133970  0.89158200  0.29428734  1
  Sc  Sc94  1  0.70686092  0.89023655  0.28957689  1
  Sc  Sc95  1  0.89497358  0.10250142  0.88946697  1
  Sc  Sc96  1  0.70711544  0.49760430  0.50537979  1
  Sc  Sc97  1  0.70418605  0.89879030  0.09763762  1
  Sc  Sc98  1  0.69520689  0.09214202  0.51423055  1
  Sc  Sc99  1  0.10812090  0.29085324  0.30354939  1
  Nb  Nb100  1  0.49465333  0.50382935  0.70232326  1
  Nb  Nb101  1  0.09359865  0.50085134  0.89996734  1
  Nb  Nb102  1  0.70465715  0.50236427  0.10115383  1
  Nb  Nb103  1  0.29266980  0.10384947  0.30056797  1
  Nb  Nb104  1  0.70015399  0.90000647  0.50038910  1
  Nb  Nb105  1  0.30193452  0.69326115  0.70081866  1
  Nb  Nb106  1  0.90540593  0.50070441  0.90028877  1
  Nb  Nb107  1  0.29669959  0.10161060  0.70276746  1
  Nb  Nb108  1  0.69840146  0.69987921  0.89933463  1
  Nb  Nb109  1  0.30502961  0.50244336  0.70403589  1
  Nb  Nb110  1  0.89799136  0.50161724  0.50162735  1
  Nb  Nb111  1  0.49922883  0.10312901  0.10237479  1
  Nb  Nb112  1  0.90231169  0.90656646  0.29860258  1
  Nb  Nb113  1  0.89858094  0.09799937  0.30108469  1
  Nb  Nb114  1  0.09503143  0.90008332  0.30471667  1
  Nb  Nb115  1  0.48865812  0.28611297  0.10502045  1
  Nb  Nb116  1  0.09535491  0.10243467  0.69365848  1
  Nb  Nb117  1  0.90643506  0.09860039  0.69502609  1
  Nb  Nb118  1  0.30086872  0.10243672  0.89587660  1
  Nb  Nb119  1  0.10427431  0.89504337  0.49533610  1
  Nb  Nb120  1  0.90604345  0.89968699  0.89742159  1
  Nb  Nb121  1  0.69695941  0.50088154  0.69482500  1
  Nb  Nb122  1  0.49523309  0.90076261  0.70092761  1
  Nb  Nb123  1  0.29692249  0.29456932  0.90222052  1
  Nb  Nb124  1  0.30397757  0.30064218  0.09861262  1
  Nb  Nb125  1  0.60072080  0.19173055  0.39590711  1
  Nb  Nb126  1  0.80065404  -0.00090812  0.39954167  1
  Nb  Nb127  1  -0.00391326  0.59751194  0.40517343  1
  Nb  Nb128  1  0.80057356  0.40699743  -0.00377951  1
  Nb  Nb129  1  -0.00070850  0.80631731  0.20728492  1
  Nb  Nb130  1  0.79483900  0.19894176  0.20620414  1
  Nb  Nb131  1  -0.00076436  0.41114743  0.59530206  1
  Nb  Nb132  1  0.59413342  0.19673842  0.20192771  1
  Nb  Nb133  1  0.19730231  -0.00422266  0.39700462  1
  Nb  Nb134  1  0.79497919  0.19239907  0.40086133  1
  Nb  Nb135  1  0.39624318  0.00126420  0.79792486  1
  Nb  Nb136  1  0.60223455  -0.00521341  0.40052235  1
  Nb  Nb137  1  0.20587664  0.59487674  0.80151910  1
  Nb  Nb138  1  0.80372061  0.19652101  0.60080346  1
  Nb  Nb139  1  0.39292894  0.19517659  0.80312277  1
  Nb  Nb140  1  0.40072526  0.80096431  0.79342381  1
  Nb  Nb141  1  0.00061090  0.41040023  0.40231428  1
  Nb  Nb142  1  0.39865164  0.40493460  0.60940915  1
  Nb  Nb143  1  0.00025206  -0.00218109  -0.00624648  1
  Nb  Nb144  1  0.60197220  0.60228440  0.39915831  1
  Nb  Nb145  1  0.20035968  0.19523282  0.60852382  1
  Nb  Nb146  1  0.00077018  0.59833765  0.59371096  1
  Nb  Nb147  1  0.79817079  0.40437145  0.80332096  1
  Nb  Nb148  1  -0.00216686  0.80680716  0.80024053  1
  Nb  Nb149  1  0.60684270  0.59916486  0.00105028  1
  Pd  Pd150  1  0.59686760  0.60089118  0.19852227  1
  Pd  Pd151  1  0.60210146  0.20018451  0.00630782  1
  Pd  Pd152  1  0.00748431  0.80486251  0.00031603  1
  Pd  Pd153  1  0.80588888  0.60896931  0.20056940  1
  Pd  Pd154  1  0.60104926  0.40015344  0.79278505  1
  Pd  Pd155  1  0.39540818  0.79701494  0.60568082  1
  Pd  Pd156  1  0.19539971  0.79737074  0.19568762  1
  Pd  Pd157  1  0.40827172  0.59712253  0.00581312  1
  Pd  Pd158  1  0.00967449  -0.00076835  0.80548646  1
  Pd  Pd159  1  -0.00341363  0.20295005  0.19993969  1
  Pd  Pd160  1  0.80023308  0.59748884  -0.00204981  1
  Pd  Pd161  1  0.19841214  0.18436107  0.41113549  1
  Pd  Pd162  1  0.59201491  0.19056230  0.79832591  1
  Pd  Pd163  1  0.60238579  0.79765127  0.00420982  1
  Pd  Pd164  1  0.59105656  0.40484965  0.60249168  1
  Pd  Pd165  1  0.19444382  0.00593074  0.79774569  1
  Pd  Pd166  1  0.39566433  -0.00935953  0.39837146  1
  Pd  Pd167  1  0.80052404  0.79979139  -0.00851056  1
  Pd  Pd168  1  0.59573892  0.39477284  0.19513572  1
  Pd  Pd169  1  0.00800019  0.60662424  0.79147348  1
  Pd  Pd170  1  0.80613102  0.00135071  -0.00825439  1
  Pd  Pd171  1  -0.00082789  -0.00409189  0.40602126  1
  Pd  Pd172  1  0.59410311  0.00305287  0.80091747  1
  Pd  Pd173  1  0.59794335  0.80139274  0.79337503  1
  Pd  Pd174  1  0.00383626  0.19677590  0.80400561  1
  Pd  Pd175  1  0.39688673  -0.00383856  -0.00290570  1
  Pd  Pd176  1  0.59843706  -0.00574703  0.20494758  1
  Pd  Pd177  1  0.19909030  0.39261657  0.20204810  1
  Pd  Pd178  1  0.20064570  0.59612693  -0.00780404  1
  Pd  Pd179  1  0.40359767  0.39379493  0.00268127  1
  Pd  Pd180  1  0.20396954  0.01056003  0.58793597  1
  Pd  Pd181  1  0.38896211  -0.00500996  0.19802173  1
  Pd  Pd182  1  0.40392830  0.80302998  -0.00302113  1
  Pd  Pd183  1  0.60633671  -0.00482817  -0.00591198  1
  Pd  Pd184  1  0.01002249  0.39010354  0.20813795  1
  Pd  Pd185  1  -0.01108957  0.61374395  0.20851815  1
  Pd  Pd186  1  0.60204824  0.60008692  0.79860881  1
  Pd  Pd187  1  0.79772683  0.20370766  0.00922103  1
  Pd  Pd188  1  0.00216177  0.19119888  -0.00377203  1
  Pd  Pd189  1  -0.00662428  0.40665849  0.79062436  1
  Pd  Pd190  1  0.20513437  0.00116442  0.20740176  1
  Pd  Pd191  1  0.19961649  0.20213427  0.00321297  1
  Pd  Pd192  1  -0.00630125  0.20949383  0.40886019  1
  Pd  Pd193  1  0.19149652  0.79248385  0.00637756  1
  Pd  Pd194  1  0.60082232  0.40568219  0.00622817  1
  Pd  Pd195  1  0.19666143  0.00601898  0.00084124  1
  Pd  Pd196  1  0.40059945  0.59378656  0.59143468  1
  Pd  Pd197  1  0.19959076  0.59923448  0.39430179  1
  Pd  Pd198  1  0.79336768  0.60395134  0.40762293  1
  Pd  Pd199  1  0.00051741  0.21444897  0.59242602  1
  Rh  Rh200  1  0.39697742  0.20068432  0.20862669  1
  Rh  Rh201  1  0.20819834  0.80589664  0.39540503  1
  Rh  Rh202  1  -0.00089547  -0.00519197  0.59456475  1
  Rh  Rh203  1  0.38546680  0.21791998  0.61510256  1
  Rh  Rh204  1  0.79479447  0.80776221  0.60362995  1
  Rh  Rh205  1  0.80579564  0.00324086  0.20134096  1
  Rh  Rh206  1  0.20896575  0.59848722  0.20000841  1
  Rh  Rh207  1  0.80084514  0.00367023  0.80072505  1
  Rh  Rh208  1  0.20283534  0.79386448  0.60062409  1
  Rh  Rh209  1  0.79918605  0.39949460  0.40100736  1
  Rh  Rh210  1  0.60449818  0.80471509  0.60813043  1
  Rh  Rh211  1  0.80051490  0.60320392  0.59938894  1
  Rh  Rh212  1  0.61238248  0.20209228  0.59507010  1
  Rh  Rh213  1  0.59923978  0.80247749  0.19267355  1
  Rh  Rh214  1  0.40740400  0.59857183  0.40260955  1
  Rh  Rh215  1  0.19916010  0.60593781  0.60708356  1
  Rh  Rh216  1  0.39896416  0.20614868  -0.00770295  1
  Rh  Rh217  1  -0.00026589  0.79916784  0.60608642  1
  Rh  Rh218  1  0.19525367  0.40541465  0.39049969  1
  Rh  Rh219  1  0.39722699  0.60882663  0.80102863  1
  Rh  Rh220  1  0.20414051  0.39156110  0.59893882  1
  Rh  Rh221  1  0.39840211  0.80367882  0.18857232  1
  Rh  Rh222  1  0.80893069  0.39587700  0.61383028  1
  Rh  Rh223  1  0.41047827  0.38780722  0.79579534  1
  Rh  Rh224  1  0.39225103  -0.00726843  0.60697982  1
  Rh  Rh225  1  0.80490077  0.79965962  0.80359572  1
  Rh  Rh226  1  0.20484622  0.20025679  0.19490567  1
  Rh  Rh227  1  0.80919836  0.79763873  0.19479919  1
  Rh  Rh228  1  0.39905906  0.40454321  0.41144329  1
  Rh  Rh229  1  0.60405472  0.59478100  0.59521319  1
  Rh  Rh230  1  0.80234390  0.20101700  0.78788553  1
  Rh  Rh231  1  0.80574038  0.00352745  0.59598235  1
  Rh  Rh232  1  -0.00118287  -0.00477813  0.19202222  1
  Rh  Rh233  1  0.39689863  0.59395311  0.19528203  1
  Rh  Rh234  1  -0.00270562  0.40238944  -0.00208910  1
  Rh  Rh235  1  0.19834655  0.19968490  0.79580733  1
  Rh  Rh236  1  0.60017910  0.40837997  0.40041555  1
  Rh  Rh237  1  -0.00412673  0.79974833  0.39906823  1
  Rh  Rh238  1  0.39631650  0.39717451  0.19652573  1
  Rh  Rh239  1  0.60686501  0.79913043  0.40030720  1
  Rh  Rh240  1  0.79611235  0.81276641  0.40328734  1
  Rh  Rh241  1  0.19986316  0.78732127  0.80134571  1
  Rh  Rh242  1  0.19462318  0.40773991  0.81203408  1
  Rh  Rh243  1  0.40417002  0.19871817  0.39285806  1
  Rh  Rh244  1  0.39462690  0.79880758  0.40331837  1
  Rh  Rh245  1  0.79652402  0.59720202  0.80033977  1
  Rh  Rh246  1  0.79379168  0.39216930  0.18911844  1
  Rh  Rh247  1  0.59941951  -0.00740979  0.60099305  1
  Rh  Rh248  1  -0.00233554  0.59699002  0.00011687  1
  Rh  Rh249  1  0.19929930  0.39761652  -0.00437592  1
