# generated using pymatgen
data_ZrScNbPdRh
_symmetry_space_group_name_H-M   'P 1'
_cell_length_a   16.56163563
_cell_length_b   16.55943585
_cell_length_c   16.56295042
_cell_angle_alpha   90.00330034
_cell_angle_beta   90.00341471
_cell_angle_gamma   89.98386946
_symmetry_Int_Tables_number   1
_chemical_formula_structural   ZrScNbPdRh
_chemical_formula_sum   'Zr50 Sc50 Nb50 Pd50 Rh50'
_cell_volume   4542.41119441
_cell_formula_units_Z   50
loop_
 _symmetry_equiv_pos_site_id
 _symmetry_equiv_pos_as_xyz
  1  'x, y, z'
loop_
 _atom_site_type_symbol
 _atom_site_label
 _atom_site_symmetry_multiplicity
 _atom_site_fract_x
 _atom_site_fract_y
 _atom_site_fract_z
 _atom_site_occupancy
  Zr  Zr0  1  0.50433172  0.69402388  0.30156489  1
  Zr  Zr1  1  0.30074829  0.90700746  0.49543187  1
  Zr  Zr2  1  0.49736045  0.29473054  0.09440107  1
  Zr  Zr3  1  0.69541471  0.49921354  0.29767448  1
  Zr  Zr4  1  0.30164584  0.49541377  0.29796599  1
  Zr  Zr5  1  0.69453825  0.50163985  0.69913839  1
  Zr  Zr6  1  0.09449088  0.50122144  0.89719194  1
  Zr  Zr7  1  0.30064338  0.90305918  0.30732472  1
  Zr  Zr8  1  0.29800386  0.30729698  0.30429634  1
  Zr  Zr9  1  0.68717479  0.89780150  0.69432333  1
  Zr  Zr10  1  0.50335138  0.49377870  0.70084973  1
  Zr  Zr11  1  0.10152081  0.69244579  0.69433169  1
  Zr  Zr12  1  0.10322966  0.10707873  0.50189756  1
  Zr  Zr13  1  0.50443464  0.10369132  0.49941862  1
  Zr  Zr14  1  0.49705469  0.50481279  0.09299566  1
  Zr  Zr15  1  0.49325651  0.89898211  0.88296191  1
  Zr  Zr16  1  0.50659132  0.69760305  0.70073733  1
  Zr  Zr17  1  0.70153140  0.69623344  0.10249375  1
  Zr  Zr18  1  0.10309299  0.70740846  0.11206119  1
  Zr  Zr19  1  0.10136836  0.30377215  0.29842472  1
  Zr  Zr20  1  0.90805890  0.71052090  0.69839318  1
  Zr  Zr21  1  0.89519295  0.48876002  0.69954247  1
  Zr  Zr22  1  0.89829798  0.70293951  0.50018296  1
  Zr  Zr23  1  0.89708382  0.69418198  0.90563576  1
  Zr  Zr24  1  0.90023402  0.09931667  0.48946476  1
  Zr  Zr25  1  0.90230024  0.30123834  0.69861375  1
  Zr  Zr26  1  0.08511781  0.09773872  0.30521703  1
  Zr  Zr27  1  0.29214049  0.70059481  0.29701535  1
  Zr  Zr28  1  0.69949393  0.30941093  0.69343930  1
  Zr  Zr29  1  0.69801949  0.89892035  0.89351818  1
  Zr  Zr30  1  0.69743931  0.09905485  0.49734688  1
  Zr  Zr31  1  0.09491862  0.68998766  0.50278188  1
  Zr  Zr32  1  0.10334829  0.30112288  0.10513381  1
  Zr  Zr33  1  0.10195162  0.50242292  0.50199314  1
  Zr  Zr34  1  0.69586414  0.09916734  0.69263672  1
  Zr  Zr35  1  0.50175898  0.49929746  0.30528624  1
  Zr  Zr36  1  0.09476092  0.69714479  0.30273522  1
  Zr  Zr37  1  0.29829547  0.89514401  0.90496902  1
  Zr  Zr38  1  0.08805354  0.89526844  0.71195463  1
  Zr  Zr39  1  0.29958668  0.10749017  0.69376347  1
  Zr  Zr40  1  0.30168535  0.29952153  0.10534809  1
  Zr  Zr41  1  0.09611028  0.30669839  0.89929389  1
  Zr  Zr42  1  0.30546261  0.69899113  0.09520147  1
  Zr  Zr43  1  0.90385479  0.89949043  0.89351911  1
  Zr  Zr44  1  0.89664229  0.09654859  0.90763115  1
  Zr  Zr45  1  0.50343637  0.10101796  0.30026301  1
  Zr  Zr46  1  0.50653705  0.89991862  0.49997699  1
  Zr  Zr47  1  0.09805501  0.50254893  0.30066753  1
  Zr  Zr48  1  0.30190988  0.10870851  0.09478605  1
  Zr  Zr49  1  0.89841606  0.31202479  0.90575098  1
  Sc  Sc50  1  0.69993168  0.49536446  0.50077169  1
  Sc  Sc51  1  0.70119702  0.90055805  0.30093372  1
  Sc  Sc52  1  0.69755355  0.11179911  0.30948082  1
  Sc  Sc53  1  0.70542074  0.90148378  0.50300484  1
  Sc  Sc54  1  0.50126811  0.10421346  0.69816841  1
  Sc  Sc55  1  0.10277881  0.50141884  0.69959751  1
  Sc  Sc56  1  0.70165335  0.30485063  0.30248253  1
  Sc  Sc57  1  0.49922936  0.30088179  0.69890403  1
  Sc  Sc58  1  0.70487645  0.89854991  0.10550949  1
  Sc  Sc59  1  0.30020305  0.09939247  0.89357898  1
  Sc  Sc60  1  0.50235866  0.68973009  0.50254338  1
  Sc  Sc61  1  0.89678083  0.49804526  0.29659919  1
  Sc  Sc62  1  0.50468116  0.29696349  0.29667043  1
  Sc  Sc63  1  0.30872857  0.29850862  0.89736808  1
  Sc  Sc64  1  0.89740082  0.70094528  0.29781041  1
  Sc  Sc65  1  0.50005293  0.50004724  0.50179046  1
  Sc  Sc66  1  0.10133997  0.90198896  0.10229223  1
  Sc  Sc67  1  0.90503278  0.90449188  0.30380510  1
  Sc  Sc68  1  0.29287702  0.68746135  0.70272292  1
  Sc  Sc69  1  0.69742541  0.69841481  0.89878552  1
  Sc  Sc70  1  0.10213718  0.10276435  0.69924895  1
  Sc  Sc71  1  0.49674447  0.69857445  0.90282539  1
  Sc  Sc72  1  0.90329241  0.29969586  0.50175446  1
  Sc  Sc73  1  0.30180352  0.90528746  0.71405373  1
  Sc  Sc74  1  0.69353501  0.69765117  0.70160511  1
  Sc  Sc75  1  0.69934734  0.10324633  0.90107612  1
  Sc  Sc76  1  0.10539558  0.09176504  0.90241367  1
  Sc  Sc77  1  0.09927518  0.89770125  0.29600019  1
  Sc  Sc78  1  0.49881059  0.91121771  0.30493046  1
  Sc  Sc79  1  0.29937727  0.69229267  0.49700167  1
  Sc  Sc80  1  0.68592249  0.49753219  0.90389805  1
  Sc  Sc81  1  0.49701011  0.11197569  0.89334996  1
  Sc  Sc82  1  0.70354595  0.10961694  0.09178646  1
  Sc  Sc83  1  0.30310251  0.30158017  0.69403824  1
  Sc  Sc84  1  0.49748848  0.30287794  0.50704648  1
  Sc  Sc85  1  0.10609432  0.91270950  0.49301448  1
  Sc  Sc86  1  0.49859760  0.10774549  0.11152421  1
  Sc  Sc87  1  0.29627271  0.49477180  0.69574752  1
  Sc  Sc88  1  0.70524320  0.69574249  0.29714719  1
  Sc  Sc89  1  0.09246472  0.49808569  0.10682271  1
  Sc  Sc90  1  0.70214467  0.69492381  0.50053451  1
  Sc  Sc91  1  0.89812054  0.50496134  0.50197701  1
  Sc  Sc92  1  0.29039515  0.89325941  0.09497187  1
  Sc  Sc93  1  0.69803354  0.30424369  0.09928393  1
  Sc  Sc94  1  0.69448441  0.29929928  0.90799442  1
  Sc  Sc95  1  0.09925092  0.69761576  0.89086067  1
  Sc  Sc96  1  0.50434583  0.90411161  0.11478680  1
  Sc  Sc97  1  0.10647229  0.89806947  0.90387481  1
  Sc  Sc98  1  0.89846902  0.49835702  0.09208290  1
  Sc  Sc99  1  0.10028748  0.30035885  0.69166307  1
  Nb  Nb100  1  0.30610229  0.48328445  0.49558583  1
  Nb  Nb101  1  0.69280081  0.50264936  0.10501175  1
  Nb  Nb102  1  0.30478024  0.49970869  0.90314357  1
  Nb  Nb103  1  0.89774933  0.70866664  0.09880792  1
  Nb  Nb104  1  0.30560941  0.49816706  0.09498958  1
  Nb  Nb105  1  0.90257359  0.30125444  0.09869549  1
  Nb  Nb106  1  0.10446059  0.29661804  0.49330472  1
  Nb  Nb107  1  0.29654314  0.10006711  0.50016739  1
  Nb  Nb108  1  0.90618905  0.09685826  0.09958643  1
  Nb  Nb109  1  0.90396081  0.90202368  0.10075760  1
  Nb  Nb110  1  0.10274145  0.09947599  0.10224453  1
  Nb  Nb111  1  0.29945942  0.69712367  0.90627469  1
  Nb  Nb112  1  0.89472069  0.89866317  0.50285126  1
  Nb  Nb113  1  0.70051087  0.29208102  0.49744149  1
  Nb  Nb114  1  0.50076360  0.31414186  0.90032354  1
  Nb  Nb115  1  0.29649593  0.29679514  0.49792358  1
  Nb  Nb116  1  0.90484043  0.29667336  0.29979649  1
  Nb  Nb117  1  0.50193768  0.70211213  0.10249200  1
  Nb  Nb118  1  0.89564669  0.90291748  0.69520490  1
  Nb  Nb119  1  0.90213490  0.10472421  0.29916953  1
  Nb  Nb120  1  0.90196784  0.10138417  0.69717975  1
  Nb  Nb121  1  0.30940099  0.09603779  0.30041965  1
  Nb  Nb122  1  0.49777942  0.89624783  0.69588633  1
  Nb  Nb123  1  0.49357008  0.49092821  0.89803489  1
  Nb  Nb124  1  0.90581244  0.49789649  0.89790132  1
  Nb  Nb125  1  0.81356533  0.20056834  0.19888396  1
  Nb  Nb126  1  0.59662814  0.80379017  0.00403647  1
  Nb  Nb127  1  0.80282137  0.00143440  0.78937541  1
  Nb  Nb128  1  -0.00837976  -0.00183455  0.60036263  1
  Nb  Nb129  1  0.20085999  0.01071505  0.20045770  1
  Nb  Nb130  1  0.40083793  0.79553124  0.20266371  1
  Nb  Nb131  1  0.60142197  0.79707818  0.40001864  1
  Nb  Nb132  1  0.39896385  0.59256234  0.80750836  1
  Nb  Nb133  1  0.80592542  0.59303477  0.80433687  1
  Nb  Nb134  1  -0.00630448  0.19900238  0.80584507  1
  Nb  Nb135  1  0.40605016  -0.00153418  -0.00171689  1
  Nb  Nb136  1  0.20571495  0.40619005  0.00111507  1
  Nb  Nb137  1  0.20243838  0.80265998  0.60078746  1
  Nb  Nb138  1  0.39270828  0.19862844  0.40342387  1
  Nb  Nb139  1  0.59254767  -0.00403899  -0.00200777  1
  Nb  Nb140  1  -0.00728220  0.79746668  0.00606325  1
  Nb  Nb141  1  0.39682859  0.80294369  0.60265697  1
  Nb  Nb142  1  0.80362696  0.19930193  0.79605951  1
  Nb  Nb143  1  0.81122090  0.01125607  0.19863666  1
  Nb  Nb144  1  0.80062826  0.19789704  0.59986074  1
  Nb  Nb145  1  -0.00277676  0.79948181  0.40701208  1
  Nb  Nb146  1  0.20566717  0.59609261  -0.00020705  1
  Nb  Nb147  1  0.00021211  0.19813988  0.00469280  1
  Nb  Nb148  1  0.00440527  0.39695505  0.39814300  1
  Nb  Nb149  1  0.40008099  -0.00233215  0.59954026  1
  Pd  Pd150  1  0.19025124  0.79693707  0.40752907  1
  Pd  Pd151  1  0.40146700  0.60279653  0.20172797  1
  Pd  Pd152  1  0.20054018  0.39709032  0.59655779  1
  Pd  Pd153  1  -0.01178982  0.60050141  0.19567213  1
  Pd  Pd154  1  -0.00093755  0.20121892  0.19398236  1
  Pd  Pd155  1  0.59608301  0.60553931  -0.00349265  1
  Pd  Pd156  1  0.40922804  0.39783481  0.19993877  1
  Pd  Pd157  1  0.61732192  0.01202259  0.19623250  1
  Pd  Pd158  1  0.40200265  0.20617548  0.79699699  1
  Pd  Pd159  1  0.20785339  0.59220265  0.40367967  1
  Pd  Pd160  1  0.20365947  0.79496719  0.79582662  1
  Pd  Pd161  1  0.79004983  0.79568221  0.60358324  1
  Pd  Pd162  1  0.79631419  0.80589431  0.00051946  1
  Pd  Pd163  1  0.79747540  -0.00177370  0.39081201  1
  Pd  Pd164  1  0.01149848  0.81165440  0.58956335  1
  Pd  Pd165  1  0.59398905  0.39833019  0.19466462  1
  Pd  Pd166  1  0.80285870  0.39568771  0.19583447  1
  Pd  Pd167  1  0.20246468  0.59152401  0.19200054  1
  Pd  Pd168  1  0.59765251  0.79896889  0.20555798  1
  Pd  Pd169  1  0.79959801  0.59721005  0.39767469  1
  Pd  Pd170  1  0.39536041  0.59793404  0.60659270  1
  Pd  Pd171  1  0.19326727  0.20528760  0.79895903  1
  Pd  Pd172  1  0.78874663  0.40155787  0.81110714  1
  Pd  Pd173  1  0.19963770  0.00215380  0.79791888  1
  Pd  Pd174  1  0.39550280  0.59675769  0.40176262  1
  Pd  Pd175  1  0.79592786  0.79702445  0.79337911  1
  Pd  Pd176  1  0.20418915  0.39907763  0.80266529  1
  Pd  Pd177  1  0.80632887  0.80904428  0.20632488  1
  Pd  Pd178  1  0.80758029  0.39743718  0.40351124  1
  Pd  Pd179  1  -0.00727536  0.59705165  0.79176843  1
  Pd  Pd180  1  0.79383323  0.58959890  -0.00376636  1
  Pd  Pd181  1  0.79093700  0.40865452  0.00196337  1
  Pd  Pd182  1  0.39257995  0.78486041  0.79128773  1
  Pd  Pd183  1  0.41218215  0.81027893  0.00906086  1
  Pd  Pd184  1  0.00373081  0.40117521  0.59222493  1
  Pd  Pd185  1  0.59284137  0.19505415  -0.00165733  1
  Pd  Pd186  1  0.19734876  -0.00732128  0.61153828  1
  Pd  Pd187  1  0.38813824  -0.00808097  0.18863659  1
  Pd  Pd188  1  0.20155148  0.19279270  0.21147222  1
  Pd  Pd189  1  0.60502497  0.20865111  0.79965853  1
  Pd  Pd190  1  0.79096949  -0.00472552  0.00248133  1
  Pd  Pd191  1  0.19637312  0.20603713  -0.00902976  1
  Pd  Pd192  1  0.20490708  0.19240618  0.39051106  1
  Pd  Pd193  1  0.59673547  0.39507463  0.40659525  1
  Pd  Pd194  1  0.00912986  -0.00392143  0.00177487  1
  Pd  Pd195  1  0.40917108  0.79284613  0.40180943  1
  Pd  Pd196  1  0.60009953  0.00662413  0.80217547  1
  Pd  Pd197  1  0.80053167  0.60456521  0.61009449  1
  Pd  Pd198  1  0.00941090  0.60775635  0.00890726  1
  Pd  Pd199  1  0.80427281  0.59462291  0.19556803  1
  Rh  Rh200  1  0.20878642  0.81097432  0.20619317  1
  Rh  Rh201  1  -0.00003135  0.19386773  0.59829735  1
  Rh  Rh202  1  -0.00624409  0.80322379  0.20209942  1
  Rh  Rh203  1  0.60073785  0.39561100  0.80123916  1
  Rh  Rh204  1  0.60015428  0.39936075  0.59382331  1
  Rh  Rh205  1  0.19331938  0.40487152  0.40509034  1
  Rh  Rh206  1  0.18563962  0.78730304  -0.00346272  1
  Rh  Rh207  1  0.39656366  0.19524162  0.59232973  1
  Rh  Rh208  1  0.40125130  0.00892927  0.79645841  1
  Rh  Rh209  1  -0.00412679  0.00660434  0.79388661  1
  Rh  Rh210  1  0.40243958  0.60068407  -0.00542080  1
  Rh  Rh211  1  0.60556566  0.20633966  0.59907859  1
  Rh  Rh212  1  0.60868583  0.60151838  0.40021005  1
  Rh  Rh213  1  0.79630492  0.39221909  0.58674448  1
  Rh  Rh214  1  0.80311731  0.20716094  0.39954331  1
  Rh  Rh215  1  0.40391525  0.19901718  -0.00660822  1
  Rh  Rh216  1  0.59542801  0.59730574  0.80571767  1
  Rh  Rh217  1  0.20329457  0.40878610  0.19232734  1
  Rh  Rh218  1  -0.00977935  0.59906422  0.39678190  1
  Rh  Rh219  1  -0.00827752  0.59136650  0.60713671  1
  Rh  Rh220  1  0.61507551  0.20244631  0.20086304  1
  Rh  Rh221  1  0.20027614  0.20723640  0.60080660  1
  Rh  Rh222  1  -0.00054276  0.20993711  0.40428940  1
  Rh  Rh223  1  0.20779482  0.59457160  0.80888560  1
  Rh  Rh224  1  0.39651243  0.39214918  0.00168636  1
  Rh  Rh225  1  0.19689018  0.00972422  0.38703496  1
  Rh  Rh226  1  0.59625908  0.79418939  0.59052928  1
  Rh  Rh227  1  0.80863845  0.20617435  0.00285680  1
  Rh  Rh228  1  0.59062654  0.20845080  0.40107205  1
  Rh  Rh229  1  0.39851508  0.39841817  0.59918015  1
  Rh  Rh230  1  0.80037883  0.80121396  0.39962261  1
  Rh  Rh231  1  0.39719418  0.20687799  0.21206361  1
  Rh  Rh232  1  0.59819373  0.40189163  0.00736569  1
  Rh  Rh233  1  -0.00050988  0.79616367  0.81029862  1
  Rh  Rh234  1  0.80446663  0.00620062  0.60165179  1
  Rh  Rh235  1  0.00191694  -0.00300312  0.19692731  1
  Rh  Rh236  1  0.60216945  0.59517434  0.59670349  1
  Rh  Rh237  1  0.40622705  0.39149226  0.40248535  1
  Rh  Rh238  1  0.00551395  0.39795390  0.79203146  1
  Rh  Rh239  1  -0.00244161  -0.00871624  0.40809973  1
  Rh  Rh240  1  0.39778452  0.40212308  0.79437964  1
  Rh  Rh241  1  0.20915152  0.00411016  0.00690220  1
  Rh  Rh242  1  0.59817503  0.79422966  0.80480029  1
  Rh  Rh243  1  -0.00676907  0.40181257  0.20571148  1
  Rh  Rh244  1  0.59122618  0.00083056  0.59931134  1
  Rh  Rh245  1  0.20827280  0.59692862  0.59232024  1
  Rh  Rh246  1  0.59874483  0.59656550  0.19938840  1
  Rh  Rh247  1  0.60745098  -0.00775585  0.39947485  1
  Rh  Rh248  1  0.00715180  0.39819519  0.00718663  1
  Rh  Rh249  1  0.40326929  0.01118408  0.41002317  1
