# generated using pymatgen
data_ZrScNbPdRh
_symmetry_space_group_name_H-M   'P 1'
_cell_length_a   16.56150225
_cell_length_b   16.56196097
_cell_length_c   16.55958316
_cell_angle_alpha   89.98425453
_cell_angle_beta   89.98190202
_cell_angle_gamma   90.00796342
_symmetry_Int_Tables_number   1
_chemical_formula_structural   ZrScNbPdRh
_chemical_formula_sum   'Zr50 Sc50 Nb50 Pd50 Rh50'
_cell_volume   4542.14341868
_cell_formula_units_Z   50
loop_
 _symmetry_equiv_pos_site_id
 _symmetry_equiv_pos_as_xyz
  1  'x, y, z'
loop_
 _atom_site_type_symbol
 _atom_site_label
 _atom_site_symmetry_multiplicity
 _atom_site_fract_x
 _atom_site_fract_y
 _atom_site_fract_z
 _atom_site_occupancy
  Zr  Zr0  1  0.49861893  0.49140046  0.29569045  1
  Zr  Zr1  1  0.09603715  0.51313393  0.70734646  1
  Zr  Zr2  1  0.29531865  0.30350635  0.49311819  1
  Zr  Zr3  1  0.69777471  0.50192497  0.51014144  1
  Zr  Zr4  1  0.49923104  0.30052394  0.29990178  1
  Zr  Zr5  1  0.70774818  0.29253995  0.89778931  1
  Zr  Zr6  1  0.49263306  0.70433507  0.89797745  1
  Zr  Zr7  1  0.29878997  0.09577738  0.29769822  1
  Zr  Zr8  1  0.09664064  0.09594535  0.50480608  1
  Zr  Zr9  1  0.70419525  0.69846778  0.50689810  1
  Zr  Zr10  1  0.89699110  0.49834581  0.09940556  1
  Zr  Zr11  1  0.69814371  0.69571775  0.69909376  1
  Zr  Zr12  1  0.29860586  0.49886365  0.90273353  1
  Zr  Zr13  1  0.70165111  0.09976591  0.29414635  1
  Zr  Zr14  1  0.70987389  0.29599035  0.69918599  1
  Zr  Zr15  1  0.28762884  0.49503418  0.29828838  1
  Zr  Zr16  1  0.69667490  0.90342116  0.10656008  1
  Zr  Zr17  1  0.09863924  0.70155338  0.50588335  1
  Zr  Zr18  1  0.08599400  0.30311045  0.70565721  1
  Zr  Zr19  1  0.29834127  0.09493033  0.70198445  1
  Zr  Zr20  1  0.49590677  0.90800124  0.09366147  1
  Zr  Zr21  1  0.70029217  0.70234982  0.89700836  1
  Zr  Zr22  1  0.70886587  0.70759571  0.29306355  1
  Zr  Zr23  1  0.10314823  0.50389918  0.10820780  1
  Zr  Zr24  1  0.89814079  0.69695466  0.10194204  1
  Zr  Zr25  1  0.90012697  0.50422035  0.50533758  1
  Zr  Zr26  1  0.49941320  0.50887766  0.70466987  1
  Zr  Zr27  1  0.49455488  0.49364921  0.49345451  1
  Zr  Zr28  1  0.29574481  0.50374631  0.69806259  1
  Zr  Zr29  1  0.69731328  0.29580476  0.50167625  1
  Zr  Zr30  1  0.30574899  0.10316696  0.90060726  1
  Zr  Zr31  1  0.29386333  0.70529788  0.49968498  1
  Zr  Zr32  1  0.69986066  0.50226983  0.09355916  1
  Zr  Zr33  1  0.49333961  0.90477287  0.29746891  1
  Zr  Zr34  1  0.89609974  0.89465090  0.90192791  1
  Zr  Zr35  1  0.10622112  0.50000863  0.89627033  1
  Zr  Zr36  1  0.29938839  0.90685843  0.69694065  1
  Zr  Zr37  1  0.89580188  0.30157629  0.51984911  1
  Zr  Zr38  1  0.89810074  0.48875818  0.70705965  1
  Zr  Zr39  1  0.49652489  0.10290111  0.29589729  1
  Zr  Zr40  1  0.29711251  0.70260082  0.90282722  1
  Zr  Zr41  1  0.50189231  0.10125494  0.69805761  1
  Zr  Zr42  1  0.70418771  0.90051369  0.29911112  1
  Zr  Zr43  1  0.29972484  0.89672937  0.29769078  1
  Zr  Zr44  1  0.49396205  0.70076915  0.29431562  1
  Zr  Zr45  1  0.30160304  0.89572954  0.49115174  1
  Zr  Zr46  1  0.49530130  0.30164446  0.10387925  1
  Zr  Zr47  1  0.09687922  0.90011539  0.29941561  1
  Zr  Zr48  1  0.49956829  0.49585052  0.10082483  1
  Zr  Zr49  1  0.31451255  0.89711608  0.90942646  1
  Sc  Sc50  1  0.29738201  0.70317355  0.10452002  1
  Sc  Sc51  1  0.90056547  0.69966162  0.29662663  1
  Sc  Sc52  1  0.10219304  0.28802479  0.09718876  1
  Sc  Sc53  1  0.29729862  0.49807206  0.09570002  1
  Sc  Sc54  1  0.10399872  0.90476884  0.90865945  1
  Sc  Sc55  1  0.69584513  0.10427428  0.50816626  1
  Sc  Sc56  1  0.90262179  0.09377814  0.29083618  1
  Sc  Sc57  1  0.90216931  0.90121721  0.70877291  1
  Sc  Sc58  1  0.09217602  0.89918703  0.50209338  1
  Sc  Sc59  1  0.50241918  0.09880792  0.10139865  1
  Sc  Sc60  1  0.29477442  0.09019251  0.49636044  1
  Sc  Sc61  1  0.49898433  0.70630517  0.50569697  1
  Sc  Sc62  1  0.10342043  0.50642605  0.49873384  1
  Sc  Sc63  1  0.10383242  0.69397925  0.30018379  1
  Sc  Sc64  1  0.10423350  0.90709689  0.09412772  1
  Sc  Sc65  1  0.90226877  0.69646726  0.69823667  1
  Sc  Sc66  1  0.50396181  0.30202162  0.49252987  1
  Sc  Sc67  1  0.71120642  0.50771940  0.89692274  1
  Sc  Sc68  1  0.29793339  0.30454321  0.70012259  1
  Sc  Sc69  1  0.50114172  0.09364620  0.90618729  1
  Sc  Sc70  1  0.90217993  0.10215711  0.90035573  1
  Sc  Sc71  1  0.70941525  0.29395014  0.10021166  1
  Sc  Sc72  1  0.89256929  0.30178195  0.28159414  1
  Sc  Sc73  1  0.89397323  0.70234471  0.90077172  1
  Sc  Sc74  1  0.10296962  0.10308927  0.29253171  1
  Sc  Sc75  1  0.90271060  0.09526014  0.50637102  1
  Sc  Sc76  1  0.10876905  0.70136559  0.09435348  1
  Sc  Sc77  1  0.10464744  0.30138315  0.49772010  1
  Sc  Sc78  1  0.90363367  0.50506349  0.28399978  1
  Sc  Sc79  1  0.91053556  0.10243844  0.70335300  1
  Sc  Sc80  1  0.50204150  0.69256737  0.09677832  1
  Sc  Sc81  1  0.49489410  0.90206667  0.50477899  1
  Sc  Sc82  1  0.69371865  0.10211699  0.70012689  1
  Sc  Sc83  1  0.70373614  0.69670239  0.09917792  1
  Sc  Sc84  1  0.89792276  0.29123699  0.09278938  1
  Sc  Sc85  1  0.49801358  0.51526723  0.90565733  1
  Sc  Sc86  1  0.29116834  0.49307155  0.49847671  1
  Sc  Sc87  1  0.89767702  0.29703959  0.89154647  1
  Sc  Sc88  1  0.29974169  0.29879653  0.09724084  1
  Sc  Sc89  1  0.69516347  0.48944471  0.29058917  1
  Sc  Sc90  1  0.49195299  0.28477801  0.90663661  1
  Sc  Sc91  1  0.50356582  0.70160970  0.70412659  1
  Sc  Sc92  1  0.69213889  0.29849515  0.29568428  1
  Sc  Sc93  1  0.70084104  0.10172654  0.90237242  1
  Sc  Sc94  1  0.11163284  0.29649759  0.29678073  1
  Sc  Sc95  1  0.50834815  0.10073406  0.50142603  1
  Sc  Sc96  1  0.89511131  0.89954361  0.30714845  1
  Sc  Sc97  1  0.90166309  0.70724203  0.50162086  1
  Sc  Sc98  1  0.70580590  0.89445177  0.50150771  1
  Sc  Sc99  1  0.29518586  0.70808756  0.70534428  1
  Nb  Nb100  1  0.29897629  0.90042103  0.09643941  1
  Nb  Nb101  1  0.89413306  0.29906166  0.70236503  1
  Nb  Nb102  1  0.89822810  0.90361751  0.50172754  1
  Nb  Nb103  1  0.09361436  0.49795780  0.29691191  1
  Nb  Nb104  1  0.91005135  0.90121806  0.09549195  1
  Nb  Nb105  1  0.10217641  0.90966130  0.70162991  1
  Nb  Nb106  1  0.29452590  0.28766640  0.30184832  1
  Nb  Nb107  1  0.51262596  0.91005059  0.70090420  1
  Nb  Nb108  1  0.50612786  0.90080812  0.90498599  1
  Nb  Nb109  1  0.69952951  0.90023449  0.70717603  1
  Nb  Nb110  1  0.10454464  0.09093162  0.70492904  1
  Nb  Nb111  1  0.70304953  0.89911243  0.89478291  1
  Nb  Nb112  1  0.29510739  0.30622449  0.90440152  1
  Nb  Nb113  1  0.10372134  0.70529519  0.70520456  1
  Nb  Nb114  1  0.09854949  0.10761039  0.90715153  1
  Nb  Nb115  1  0.08757200  0.09784554  0.09075828  1
  Nb  Nb116  1  0.29530524  0.09442887  0.10538398  1
  Nb  Nb117  1  0.90748495  0.50044751  0.89877271  1
  Nb  Nb118  1  0.90837638  0.09724917  0.09699496  1
  Nb  Nb119  1  0.69517513  0.50365581  0.70187532  1
  Nb  Nb120  1  0.29970781  0.70622514  0.30656333  1
  Nb  Nb121  1  0.70888663  0.09609206  0.09859775  1
  Nb  Nb122  1  0.10490939  0.69489077  0.89443725  1
  Nb  Nb123  1  0.10531647  0.30206423  0.90499741  1
  Nb  Nb124  1  0.50079957  0.30121864  0.70225404  1
  Nb  Nb125  1  0.60293697  -0.00503888  0.39532057  1
  Nb  Nb126  1  0.19379582  0.19942538  0.80533754  1
  Nb  Nb127  1  0.59799273  0.39838967  0.80282142  1
  Nb  Nb128  1  -0.00793765  0.20815417  0.39987224  1
  Nb  Nb129  1  0.59969945  0.60357996  0.39684036  1
  Nb  Nb130  1  0.59928385  0.40003467  0.61104993  1
  Nb  Nb131  1  0.00199120  0.59552116  -0.00612432  1
  Nb  Nb132  1  0.39478299  0.60034432  0.59434459  1
  Nb  Nb133  1  0.80217547  -0.00319266  0.00442443  1
  Nb  Nb134  1  0.39736231  0.60207409  0.39777265  1
  Nb  Nb135  1  0.19787651  0.19427420  0.60944504  1
  Nb  Nb136  1  0.80005751  -0.00642056  0.60583740  1
  Nb  Nb137  1  0.60088336  0.39734281  -0.00758537  1
  Nb  Nb138  1  0.39512031  0.20030543  0.39914870  1
  Nb  Nb139  1  0.60090194  0.79936281  0.39546861  1
  Nb  Nb140  1  -0.00434279  0.39830873  0.39437519  1
  Nb  Nb141  1  0.79512597  0.59458774  0.39925380  1
  Nb  Nb142  1  0.60038932  0.80708885  -0.00626079  1
  Nb  Nb143  1  0.00379638  0.40191612  -0.00595636  1
  Nb  Nb144  1  0.40310328  0.39829120  0.80496497  1
  Nb  Nb145  1  0.80529604  0.39949116  0.40157937  1
  Nb  Nb146  1  0.39645924  0.20300245  0.59768049  1
  Nb  Nb147  1  0.80630141  0.20417393  0.40076205  1
  Nb  Nb148  1  -0.00028108  0.80431373  0.19346835  1
  Nb  Nb149  1  0.01215829  0.79733055  0.80024607  1
  Pd  Pd150  1  0.60424594  0.19899597  0.19115519  1
  Pd  Pd151  1  0.81136165  -0.00358823  0.19271379  1
  Pd  Pd152  1  0.20068942  0.60004325  0.39883899  1
  Pd  Pd153  1  0.80194180  0.39827518  -0.00667960  1
  Pd  Pd154  1  0.40670488  0.81129002  0.78999108  1
  Pd  Pd155  1  0.39228401  0.60379401  0.00754507  1
  Pd  Pd156  1  0.00933255  0.79108291  -0.00249601  1
  Pd  Pd157  1  0.60498406  0.60048101  0.20333670  1
  Pd  Pd158  1  0.59324500  0.79906609  0.19332392  1
  Pd  Pd159  1  0.39221339  0.20679747  0.79488951  1
  Pd  Pd160  1  0.00257208  0.19992787  0.80562680  1
  Pd  Pd161  1  0.79462492  0.00994400  0.41183633  1
  Pd  Pd162  1  0.80640678  0.60308352  0.79572111  1
  Pd  Pd163  1  0.60149436  0.00651614  0.80635578  1
  Pd  Pd164  1  0.59887934  0.20084949  0.80301698  1
  Pd  Pd165  1  0.59876492  0.80728524  0.59770654  1
  Pd  Pd166  1  0.20093678  -0.00004133  0.81503416  1
  Pd  Pd167  1  0.80570805  0.80692110  0.60944192  1
  Pd  Pd168  1  0.40210150  0.00622774  0.59411107  1
  Pd  Pd169  1  0.00915621  0.40731200  0.59504273  1
  Pd  Pd170  1  0.20008755  0.39208207  0.19437257  1
  Pd  Pd171  1  0.20528410  0.00449937  -0.00301773  1
  Pd  Pd172  1  -0.00769741  0.59584116  0.39452553  1
  Pd  Pd173  1  0.40239481  0.79798583  0.61022203  1
  Pd  Pd174  1  0.20269248  0.39586628  0.79526684  1
  Pd  Pd175  1  0.39941245  0.80253534  0.19103748  1
  Pd  Pd176  1  0.60310288  0.20205692  0.00689274  1
  Pd  Pd177  1  -0.00197706  0.79611915  0.39326024  1
  Pd  Pd178  1  0.40855878  -0.00552423  0.80152658  1
  Pd  Pd179  1  0.79806555  0.00733587  0.79926401  1
  Pd  Pd180  1  0.19351998  0.00102294  0.19558048  1
  Pd  Pd181  1  0.19695044  0.81311764  0.80741051  1
  Pd  Pd182  1  0.00277057  -0.00533074  0.80908426  1
  Pd  Pd183  1  0.38875954  0.59799593  0.20278770  1
  Pd  Pd184  1  0.00224178  0.20295987  0.20418918  1
  Pd  Pd185  1  0.38671620  0.39451530  0.20343198  1
  Pd  Pd186  1  -0.00093134  0.60126645  0.60434778  1
  Pd  Pd187  1  0.19297136  0.80014391  0.19930833  1
  Pd  Pd188  1  0.18899258  0.39587653  0.60602978  1
  Pd  Pd189  1  0.59748603  0.80046791  0.80151184  1
  Pd  Pd190  1  0.00404402  0.38855268  0.19475218  1
  Pd  Pd191  1  -0.00114959  0.00882634  0.39665212  1
  Pd  Pd192  1  0.40427578  0.39987651  0.60563460  1
  Pd  Pd193  1  0.19615538  0.80868292  0.60021922  1
  Pd  Pd194  1  0.00530366  0.19788942  0.60005581  1
  Pd  Pd195  1  0.79149192  0.80489836  0.00789333  1
  Pd  Pd196  1  0.20518572  0.19610621  0.00172781  1
  Pd  Pd197  1  0.19270585  -0.00308751  0.39996027  1
  Pd  Pd198  1  0.39499439  0.19379057  0.01021839  1
  Pd  Pd199  1  -0.00022855  0.80787625  0.61024854  1
  Rh  Rh200  1  0.20752312  0.60402509  0.79859054  1
  Rh  Rh201  1  0.60460681  0.60377239  -0.00526600  1
  Rh  Rh202  1  0.40625724  0.79485453  0.39951260  1
  Rh  Rh203  1  0.80062289  0.79207051  0.40451481  1
  Rh  Rh204  1  0.20225942  0.60645860  0.60304905  1
  Rh  Rh205  1  0.19939714  0.19177062  0.18927189  1
  Rh  Rh206  1  0.00305637  -0.00741442  0.19859221  1
  Rh  Rh207  1  0.61284252  0.40694343  0.40836033  1
  Rh  Rh208  1  0.81425440  0.80778183  0.19330745  1
  Rh  Rh209  1  0.79295594  0.40607712  0.60581997  1
  Rh  Rh210  1  0.80584697  0.18416853  0.60344488  1
  Rh  Rh211  1  0.80467578  0.79551247  0.79231706  1
  Rh  Rh212  1  0.80262409  0.19284115  0.20133894  1
  Rh  Rh213  1  0.19244054  0.39968562  0.00807372  1
  Rh  Rh214  1  0.60009765  0.18962358  0.39468424  1
  Rh  Rh215  1  0.79599325  0.40011947  0.19729767  1
  Rh  Rh216  1  0.61315059  -0.00440370  -0.00410702  1
  Rh  Rh217  1  -0.00526761  0.00336204  -0.00674259  1
  Rh  Rh218  1  0.39090944  0.59865935  0.79358248  1
  Rh  Rh219  1  0.18837133  0.40217789  0.39313617  1
  Rh  Rh220  1  0.39134203  0.19861875  0.20062229  1
  Rh  Rh221  1  0.39627386  0.00731468  0.00453999  1
  Rh  Rh222  1  0.61127181  -0.00967127  0.59544431  1
  Rh  Rh223  1  0.58515304  0.59448411  0.59280875  1
  Rh  Rh224  1  0.40947818  0.00958151  0.40475437  1
  Rh  Rh225  1  0.19048385  0.80182233  0.40052995  1
  Rh  Rh226  1  0.00872863  0.61269019  0.19173536  1
  Rh  Rh227  1  0.20233121  0.80086961  -0.00244995  1
  Rh  Rh228  1  -0.00406055  0.20763184  -0.00644673  1
  Rh  Rh229  1  0.80741781  0.18806952  0.00179048  1
  Rh  Rh230  1  0.79261753  0.59392789  0.20500814  1
  Rh  Rh231  1  0.60256321  0.59983223  0.80846709  1
  Rh  Rh232  1  0.80747161  0.60067546  -0.00171608  1
  Rh  Rh233  1  0.19946339  0.60047024  0.00005427  1
  Rh  Rh234  1  0.58885694  0.20932665  0.60146212  1
  Rh  Rh235  1  0.38866572  0.39527982  0.38758480  1
  Rh  Rh236  1  0.20230275  0.60360496  0.20509135  1
  Rh  Rh237  1  -0.00308773  0.39411074  0.80720541  1
  Rh  Rh238  1  0.60642779  0.39272767  0.18213171  1
  Rh  Rh239  1  0.19680617  -0.00468782  0.59439848  1
  Rh  Rh240  1  0.79537688  0.40164674  0.80230994  1
  Rh  Rh241  1  0.39424100  -0.00189566  0.19233242  1
  Rh  Rh242  1  0.40951838  0.40029902  -0.00892034  1
  Rh  Rh243  1  0.19720530  0.19291668  0.40948646  1
  Rh  Rh244  1  0.40626372  0.79581985  0.00837169  1
  Rh  Rh245  1  -0.00448732  0.61072941  0.80515508  1
  Rh  Rh246  1  -0.00613016  -0.00722071  0.60581691  1
  Rh  Rh247  1  0.59750980  0.00576180  0.20353069  1
  Rh  Rh248  1  0.80361809  0.19169948  0.79319584  1
  Rh  Rh249  1  0.80762316  0.59867457  0.60385638  1
