# generated using pymatgen
data_ZrScNbPdRh
_symmetry_space_group_name_H-M   'P 1'
_cell_length_a   16.56282798
_cell_length_b   16.56346391
_cell_length_c   16.55595414
_cell_angle_alpha   89.99143938
_cell_angle_beta   89.99482571
_cell_angle_gamma   89.99852441
_symmetry_Int_Tables_number   1
_chemical_formula_structural   ZrScNbPdRh
_chemical_formula_sum   'Zr50 Sc50 Nb50 Pd50 Rh50'
_cell_volume   4541.92402507
_cell_formula_units_Z   50
loop_
 _symmetry_equiv_pos_site_id
 _symmetry_equiv_pos_as_xyz
  1  'x, y, z'
loop_
 _atom_site_type_symbol
 _atom_site_label
 _atom_site_symmetry_multiplicity
 _atom_site_fract_x
 _atom_site_fract_y
 _atom_site_fract_z
 _atom_site_occupancy
  Zr  Zr0  1  0.10866230  0.50078002  0.69779309  1
  Zr  Zr1  1  0.49616729  0.70434354  0.49262665  1
  Zr  Zr2  1  0.28837529  0.69451325  0.70569925  1
  Zr  Zr3  1  0.70631097  0.90502971  0.69570972  1
  Zr  Zr4  1  0.90706839  0.90249208  0.69862225  1
  Zr  Zr5  1  0.29438883  0.50592486  0.89424131  1
  Zr  Zr6  1  0.29295096  0.28957874  0.10114015  1
  Zr  Zr7  1  0.50446842  0.89972417  0.69913746  1
  Zr  Zr8  1  0.29431901  0.50419111  0.29961290  1
  Zr  Zr9  1  0.09364014  0.29664742  0.30771621  1
  Zr  Zr10  1  0.29949465  0.10304220  0.11237217  1
  Zr  Zr11  1  0.09872156  0.10880070  0.90087781  1
  Zr  Zr12  1  0.91190910  0.30419331  0.90000982  1
  Zr  Zr13  1  0.90912682  0.70812686  0.71534549  1
  Zr  Zr14  1  0.69968000  0.89663333  0.29216176  1
  Zr  Zr15  1  0.29968647  0.51107573  0.09743576  1
  Zr  Zr16  1  0.70348551  0.10185190  0.50586503  1
  Zr  Zr17  1  0.50436406  0.29606329  0.30280566  1
  Zr  Zr18  1  0.70376307  0.70228175  0.69704304  1
  Zr  Zr19  1  0.69103072  0.50650446  0.70011202  1
  Zr  Zr20  1  0.29216262  0.29282599  0.89053796  1
  Zr  Zr21  1  0.69395681  0.29235067  0.48960103  1
  Zr  Zr22  1  0.30039120  0.09957788  0.49814171  1
  Zr  Zr23  1  0.29977493  0.10660120  0.70051878  1
  Zr  Zr24  1  0.30128668  0.30065746  0.69476149  1
  Zr  Zr25  1  0.10032173  0.29955944  0.69597827  1
  Zr  Zr26  1  0.29858424  0.09403154  0.89439837  1
  Zr  Zr27  1  0.70715503  0.09272524  0.30816419  1
  Zr  Zr28  1  0.90293104  0.30732827  0.69500695  1
  Zr  Zr29  1  0.49514986  0.49535373  0.49547676  1
  Zr  Zr30  1  0.09108203  0.49859416  0.90722771  1
  Zr  Zr31  1  0.10395128  0.09198259  0.10050735  1
  Zr  Zr32  1  0.29231050  0.90104448  0.09602863  1
  Zr  Zr33  1  0.10313009  0.70098085  0.29848806  1
  Zr  Zr34  1  0.29522221  0.70474595  0.49487532  1
  Zr  Zr35  1  0.50432223  0.49551892  0.09705428  1
  Zr  Zr36  1  0.89827581  0.10078726  0.90102601  1
  Zr  Zr37  1  0.89923506  0.88876908  0.89665282  1
  Zr  Zr38  1  0.29904792  0.49397153  0.50009403  1
  Zr  Zr39  1  0.90072928  0.30621314  0.10514042  1
  Zr  Zr40  1  0.50272590  0.50300431  0.88651450  1
  Zr  Zr41  1  0.09408868  0.50973200  0.10562062  1
  Zr  Zr42  1  0.48860904  0.69886566  0.09625559  1
  Zr  Zr43  1  0.90202270  0.49749182  0.49376423  1
  Zr  Zr44  1  0.11084040  0.90509372  0.90201101  1
  Zr  Zr45  1  0.49976715  0.70051059  0.90114752  1
  Zr  Zr46  1  0.30387214  0.69566366  0.90563924  1
  Zr  Zr47  1  0.29885543  0.28320540  0.29698835  1
  Zr  Zr48  1  0.49888297  0.90056413  0.90556201  1
  Zr  Zr49  1  0.09795131  0.69555825  0.89375988  1
  Sc  Sc50  1  0.89843362  0.08831085  0.09816862  1
  Sc  Sc51  1  0.70278328  0.90094842  0.90614308  1
  Sc  Sc52  1  0.50519443  0.90183973  0.30138698  1
  Sc  Sc53  1  0.29362547  0.29888481  0.50149811  1
  Sc  Sc54  1  0.49441573  0.90464035  0.49558115  1
  Sc  Sc55  1  0.30051400  0.69931135  0.30388860  1
  Sc  Sc56  1  0.89225166  0.50152324  0.70039792  1
  Sc  Sc57  1  0.69744911  0.90581455  0.49292649  1
  Sc  Sc58  1  0.30031691  0.49111538  0.70193717  1
  Sc  Sc59  1  0.70873271  0.71198268  0.89845332  1
  Sc  Sc60  1  0.49048977  0.09705629  0.30046153  1
  Sc  Sc61  1  0.89137770  0.09183658  0.68839393  1
  Sc  Sc62  1  0.69566960  0.30784408  0.09802080  1
  Sc  Sc63  1  0.50878273  0.30444933  0.89805646  1
  Sc  Sc64  1  0.29918633  0.89580167  0.49671188  1
  Sc  Sc65  1  0.69586787  0.49254615  0.88845017  1
  Sc  Sc66  1  0.09392519  0.50145702  0.30138639  1
  Sc  Sc67  1  0.70689030  0.50785515  0.49984335  1
  Sc  Sc68  1  0.88967006  0.69572279  0.30233951  1
  Sc  Sc69  1  0.29965213  0.90092627  0.89937088  1
  Sc  Sc70  1  0.10067974  0.89925348  0.29716776  1
  Sc  Sc71  1  0.70340110  0.30611337  0.69401477  1
  Sc  Sc72  1  0.49864431  0.10231800  0.49906158  1
  Sc  Sc73  1  0.70990134  0.71441823  0.10730301  1
  Sc  Sc74  1  0.89789201  0.31185373  0.30913531  1
  Sc  Sc75  1  0.90205183  0.09729978  0.49483618  1
  Sc  Sc76  1  0.48796576  0.10458945  0.69673289  1
  Sc  Sc77  1  0.70689390  0.70104088  0.49386567  1
  Sc  Sc78  1  0.70885437  0.48805268  0.29476418  1
  Sc  Sc79  1  0.50275130  0.09292006  0.10246333  1
  Sc  Sc80  1  0.29369846  0.90735735  0.70830708  1
  Sc  Sc81  1  0.10396941  0.90503920  0.50591842  1
  Sc  Sc82  1  0.09683759  0.49846942  0.50138244  1
  Sc  Sc83  1  0.10349227  0.89090963  0.69734743  1
  Sc  Sc84  1  0.90640329  0.50038413  0.11310647  1
  Sc  Sc85  1  0.50945654  0.90261362  0.09855048  1
  Sc  Sc86  1  0.90144775  0.69852303  0.10972799  1
  Sc  Sc87  1  0.70414277  0.90331316  0.10230410  1
  Sc  Sc88  1  0.89997192  0.68976568  0.49732509  1
  Sc  Sc89  1  0.49422429  0.49738084  0.29626613  1
  Sc  Sc90  1  0.10028668  0.09655084  0.31193095  1
  Sc  Sc91  1  0.51500305  0.69002848  0.70368011  1
  Sc  Sc92  1  0.09567645  0.29134263  0.09831703  1
  Sc  Sc93  1  0.50947981  0.30090777  0.09934688  1
  Sc  Sc94  1  0.30009623  0.90292715  0.30803720  1
  Sc  Sc95  1  0.29373104  0.69555771  0.09998154  1
  Sc  Sc96  1  0.70006455  0.09399707  0.09121502  1
  Sc  Sc97  1  0.89579096  0.90990072  0.29983660  1
  Sc  Sc98  1  0.49679888  0.09918730  0.89964997  1
  Sc  Sc99  1  0.49191847  0.29465480  0.49596056  1
  Nb  Nb100  1  0.69580459  0.70451645  0.29721403  1
  Nb  Nb101  1  0.70119708  0.10295204  0.69939879  1
  Nb  Nb102  1  0.09707783  0.89438945  0.10044038  1
  Nb  Nb103  1  0.90169150  0.90133135  0.50373740  1
  Nb  Nb104  1  0.90259432  0.49923728  0.29977850  1
  Nb  Nb105  1  0.70304915  0.29590550  0.90143314  1
  Nb  Nb106  1  0.89914042  0.09975785  0.30009363  1
  Nb  Nb107  1  0.10222608  0.70193876  0.69421225  1
  Nb  Nb108  1  0.69849232  0.49650190  0.09832011  1
  Nb  Nb109  1  0.70158766  0.10604909  0.89778712  1
  Nb  Nb110  1  0.90493667  0.69776932  0.90469645  1
  Nb  Nb111  1  0.50070715  0.49621162  0.69923123  1
  Nb  Nb112  1  0.30206806  0.10233642  0.29792496  1
  Nb  Nb113  1  0.90256971  0.89621715  0.10082983  1
  Nb  Nb114  1  0.49387058  0.30487450  0.69848682  1
  Nb  Nb115  1  0.08552248  0.29588791  0.50350134  1
  Nb  Nb116  1  0.10287329  0.70696748  0.50710122  1
  Nb  Nb117  1  0.10052396  0.09338214  0.69313341  1
  Nb  Nb118  1  0.90321871  0.50480146  0.90914805  1
  Nb  Nb119  1  0.09814549  0.70399254  0.10414571  1
  Nb  Nb120  1  0.69927799  0.29490549  0.29714748  1
  Nb  Nb121  1  0.09828483  0.10748421  0.50941435  1
  Nb  Nb122  1  0.50233990  0.70604552  0.29350826  1
  Nb  Nb123  1  0.09673562  0.30169104  0.90103550  1
  Nb  Nb124  1  0.91508404  0.30447497  0.50121942  1
  Nb  Nb125  1  0.00426543  0.80035009  0.00714033  1
  Nb  Nb126  1  0.59324993  0.40109446  0.59942832  1
  Nb  Nb127  1  0.60367571  0.60359328  0.19933521  1
  Nb  Nb128  1  0.19741027  0.39786068  0.00072239  1
  Nb  Nb129  1  -0.00822147  0.19343967  0.20814556  1
  Nb  Nb130  1  0.60751920  0.19887319  0.79641905  1
  Nb  Nb131  1  0.40084517  0.60035889  0.60145858  1
  Nb  Nb132  1  0.39200313  0.39686490  -0.00013147  1
  Nb  Nb133  1  0.00040174  0.79992757  0.40645401  1
  Nb  Nb134  1  0.39939400  0.79290859  0.60844223  1
  Nb  Nb135  1  0.40210877  0.79673475  0.79624368  1
  Nb  Nb136  1  0.80147274  0.59492768  0.00006061  1
  Nb  Nb137  1  0.39203562  0.39557331  0.19466549  1
  Nb  Nb138  1  0.60158160  0.60489139  0.38734241  1
  Nb  Nb139  1  0.20050893  0.39790015  0.19741480  1
  Nb  Nb140  1  0.40145099  0.79996475  0.19908932  1
  Nb  Nb141  1  0.60981482  0.19715666  0.20666076  1
  Nb  Nb142  1  0.00400548  0.00237116  0.79765640  1
  Nb  Nb143  1  0.79966252  0.19989276  0.20462698  1
  Nb  Nb144  1  0.61097756  0.59970914  0.00435053  1
  Nb  Nb145  1  0.60742645  0.00909012  0.79788233  1
  Nb  Nb146  1  0.80736586  0.80372130  0.59933335  1
  Nb  Nb147  1  0.39664531  0.20321386  -0.00019390  1
  Nb  Nb148  1  0.79711953  0.20090312  0.80094064  1
  Nb  Nb149  1  0.80162883  0.40652650  -0.00310951  1
  Pd  Pd150  1  0.80263816  0.20847741  0.00523397  1
  Pd  Pd151  1  0.80174089  0.00321569  0.80327370  1
  Pd  Pd152  1  0.80014418  -0.00581350  -0.00104723  1
  Pd  Pd153  1  0.39256371  0.39116845  0.39060412  1
  Pd  Pd154  1  0.39397591  -0.00764343  0.59925996  1
  Pd  Pd155  1  0.00243913  0.59167139  0.79293568  1
  Pd  Pd156  1  -0.00069208  -0.00815071  -0.00568483  1
  Pd  Pd157  1  0.19749191  0.79194896  -0.00229167  1
  Pd  Pd158  1  0.59394622  0.59669644  0.58560971  1
  Pd  Pd159  1  0.60147371  0.80744770  0.80263799  1
  Pd  Pd160  1  0.79419473  0.59553221  0.19835314  1
  Pd  Pd161  1  -0.00439781  0.19610864  0.01112907  1
  Pd  Pd162  1  -0.00801214  0.80011891  0.20839316  1
  Pd  Pd163  1  0.60564239  0.79570854  0.00671083  1
  Pd  Pd164  1  0.59212612  0.20686221  0.60598573  1
  Pd  Pd165  1  0.00295328  -0.00514259  0.40574181  1
  Pd  Pd166  1  0.79760925  0.60220361  0.80872888  1
  Pd  Pd167  1  0.39792751  0.39649924  0.80609790  1
  Pd  Pd168  1  -0.00777606  0.19133683  0.78600646  1
  Pd  Pd169  1  0.80787748  0.80423035  0.40240583  1
  Pd  Pd170  1  0.81146595  0.20413724  0.39992416  1
  Pd  Pd171  1  0.59647791  0.00588120  0.60222187  1
  Pd  Pd172  1  0.60169399  0.80021389  0.40334066  1
  Pd  Pd173  1  -0.00449336  0.79693365  0.59301405  1
  Pd  Pd174  1  0.19700414  0.19705553  0.40679849  1
  Pd  Pd175  1  0.00200158  0.40913311  0.79303913  1
  Pd  Pd176  1  0.19401070  0.39549213  0.39879117  1
  Pd  Pd177  1  0.39708662  0.00555312  0.00453717  1
  Pd  Pd178  1  0.19188474  0.19855397  0.79234338  1
  Pd  Pd179  1  0.79255093  0.39810574  0.58934918  1
  Pd  Pd180  1  0.60352143  0.80091950  0.58940008  1
  Pd  Pd181  1  0.79748019  0.39879054  0.40565952  1
  Pd  Pd182  1  -0.00374023  0.59905483  0.60504873  1
  Pd  Pd183  1  0.19844525  -0.00203570  0.20806281  1
  Pd  Pd184  1  -0.00880063  0.19196965  0.60556407  1
  Pd  Pd185  1  0.20558205  0.59704790  0.59336113  1
  Pd  Pd186  1  0.59586070  0.00499794  0.39927660  1
  Pd  Pd187  1  0.00367316  0.60628412  0.39796808  1
  Pd  Pd188  1  0.20468410  -0.00246119  0.59922902  1
  Pd  Pd189  1  0.00165862  0.00175192  0.20279367  1
  Pd  Pd190  1  0.59392748  0.19539202  0.00105246  1
  Pd  Pd191  1  0.40122881  -0.01179713  0.20201805  1
  Pd  Pd192  1  0.80681885  0.20673306  0.59846808  1
  Pd  Pd193  1  0.80909790  0.60799469  0.60417952  1
  Pd  Pd194  1  0.19822972  0.00079170  0.40288277  1
  Pd  Pd195  1  0.80263268  0.39625977  0.80649225  1
  Pd  Pd196  1  0.40380869  0.60247077  0.39696304  1
  Pd  Pd197  1  0.21029620  0.80028075  0.20466340  1
  Pd  Pd198  1  0.60519609  0.40832275  0.40089769  1
  Pd  Pd199  1  0.19094288  0.59919325  0.40633483  1
  Rh  Rh200  1  0.20353202  0.00647294  0.00247521  1
  Rh  Rh201  1  0.18807073  0.80272463  0.40023519  1
  Rh  Rh202  1  -0.00560571  0.19684105  0.39978958  1
  Rh  Rh203  1  -0.00247622  0.60651615  0.21000543  1
  Rh  Rh204  1  0.60357086  0.00161507  -0.00879134  1
  Rh  Rh205  1  0.79730143  0.80193925  0.79368961  1
  Rh  Rh206  1  0.39690470  0.20235145  0.59605141  1
  Rh  Rh207  1  0.20765554  0.80309272  0.60146457  1
  Rh  Rh208  1  0.39711997  0.00280764  0.39925878  1
  Rh  Rh209  1  0.80655796  0.80704567  0.20461812  1
  Rh  Rh210  1  0.40305460  0.40291306  0.59904638  1
  Rh  Rh211  1  0.61183704  0.61024732  0.81109625  1
  Rh  Rh212  1  0.19467312  0.39397374  0.59369595  1
  Rh  Rh213  1  0.19251645  0.59736282  0.80090856  1
  Rh  Rh214  1  0.41748182  0.20336529  0.19178966  1
  Rh  Rh215  1  0.19100437  0.00591570  0.79595119  1
  Rh  Rh216  1  0.60526644  0.00728582  0.20318167  1
  Rh  Rh217  1  0.59328039  0.79843501  0.19166527  1
  Rh  Rh218  1  0.18839518  0.60081220  0.00105981  1
  Rh  Rh219  1  0.40168239  0.60636323  0.78947778  1
  Rh  Rh220  1  0.19791089  0.20137406  0.59869206  1
  Rh  Rh221  1  0.80051429  0.39652674  0.19605099  1
  Rh  Rh222  1  0.00276309  0.40573497  0.40006719  1
  Rh  Rh223  1  0.20192778  0.19752393  -0.00572350  1
  Rh  Rh224  1  0.19645108  0.60060451  0.20221451  1
  Rh  Rh225  1  0.39627611  0.19580631  0.40360028  1
  Rh  Rh226  1  0.81335117  0.79439497  0.00663879  1
  Rh  Rh227  1  0.60221183  0.40660476  -0.01100428  1
  Rh  Rh228  1  0.59738146  0.19108647  0.39452374  1
  Rh  Rh229  1  0.80276865  -0.00432273  0.40492856  1
  Rh  Rh230  1  0.40175585  0.80358934  0.39406463  1
  Rh  Rh231  1  0.41028563  -0.00910737  0.79862385  1
  Rh  Rh232  1  0.00112142  0.40958261  0.60207717  1
  Rh  Rh233  1  0.59450345  0.39818274  0.20794149  1
  Rh  Rh234  1  0.18202418  0.19680359  0.20988338  1
  Rh  Rh235  1  0.00473269  0.00196128  0.60000325  1
  Rh  Rh236  1  0.41013010  0.58843544  -0.00783273  1
  Rh  Rh237  1  0.60221017  0.38800216  0.78909884  1
  Rh  Rh238  1  0.41111559  0.20636002  0.80670511  1
  Rh  Rh239  1  0.19078068  0.39929575  0.80652714  1
  Rh  Rh240  1  0.79811250  -0.00506675  0.59018853  1
  Rh  Rh241  1  0.79334073  0.59378002  0.38776098  1
  Rh  Rh242  1  0.00130511  0.39977190  0.00795529  1
  Rh  Rh243  1  0.20337882  0.79651392  0.80210248  1
  Rh  Rh244  1  0.01360082  0.80735727  0.80839037  1
  Rh  Rh245  1  0.40425374  0.60306891  0.20659581  1
  Rh  Rh246  1  -0.00460676  0.61109774  0.00952471  1
  Rh  Rh247  1  0.00759893  0.39321704  0.20530240  1
  Rh  Rh248  1  0.39209821  0.80725736  0.00174588  1
  Rh  Rh249  1  0.80041305  0.00187156  0.19538412  1
