# generated using pymatgen
data_ZrScNbPdRh
_symmetry_space_group_name_H-M   'P 1'
_cell_length_a   16.56040830
_cell_length_b   16.55790589
_cell_length_c   16.55802116
_cell_angle_alpha   90.02021469
_cell_angle_beta   89.99341029
_cell_angle_gamma   90.03187954
_symmetry_Int_Tables_number   1
_chemical_formula_structural   ZrScNbPdRh
_chemical_formula_sum   'Zr50 Sc50 Nb50 Pd50 Rh50'
_cell_volume   4540.30247295
_cell_formula_units_Z   50
loop_
 _symmetry_equiv_pos_site_id
 _symmetry_equiv_pos_as_xyz
  1  'x, y, z'
loop_
 _atom_site_type_symbol
 _atom_site_label
 _atom_site_symmetry_multiplicity
 _atom_site_fract_x
 _atom_site_fract_y
 _atom_site_fract_z
 _atom_site_occupancy
  Zr  Zr0  1  0.70171001  0.29921143  0.50100850  1
  Zr  Zr1  1  0.50236119  0.09183532  0.89838800  1
  Zr  Zr2  1  0.29083333  0.70336824  0.10352700  1
  Zr  Zr3  1  0.70225262  0.10386047  0.29544162  1
  Zr  Zr4  1  0.50258497  0.30698076  0.90485243  1
  Zr  Zr5  1  0.89726563  0.89497259  0.30607832  1
  Zr  Zr6  1  0.90247063  0.30600950  0.10435119  1
  Zr  Zr7  1  0.50578216  0.69780446  0.51168210  1
  Zr  Zr8  1  0.90062586  0.09664510  0.50575121  1
  Zr  Zr9  1  0.50534241  0.50116316  0.50449732  1
  Zr  Zr10  1  0.70730102  0.30115227  0.89450926  1
  Zr  Zr11  1  0.09961688  0.89123611  0.89326527  1
  Zr  Zr12  1  0.90919387  0.09483573  0.29947439  1
  Zr  Zr13  1  0.50673749  0.29598812  0.50291254  1
  Zr  Zr14  1  0.70110783  0.50085796  0.89484466  1
  Zr  Zr15  1  0.10681692  0.30080773  0.09577872  1
  Zr  Zr16  1  0.71369284  0.10134173  0.89758647  1
  Zr  Zr17  1  0.31557862  0.69344945  0.70366483  1
  Zr  Zr18  1  0.29831442  0.89605739  0.90355061  1
  Zr  Zr19  1  0.09777312  0.30390212  0.89916658  1
  Zr  Zr20  1  0.09797861  0.49506524  0.50569873  1
  Zr  Zr21  1  0.30128234  0.49761506  0.69914478  1
  Zr  Zr22  1  0.89781494  0.09665232  0.10056412  1
  Zr  Zr23  1  0.29803896  0.50433941  0.29565853  1
  Zr  Zr24  1  0.49462556  0.70776215  0.89756397  1
  Zr  Zr25  1  0.51032739  0.70081414  0.29980198  1
  Zr  Zr26  1  0.90564448  0.50497883  0.89880767  1
  Zr  Zr27  1  0.70245810  0.29727821  0.69790260  1
  Zr  Zr28  1  0.30003315  0.09834757  0.50214016  1
  Zr  Zr29  1  0.70549356  0.30155963  0.09656812  1
  Zr  Zr30  1  0.89311383  0.50236235  0.29505246  1
  Zr  Zr31  1  0.09454675  0.09308015  0.70704190  1
  Zr  Zr32  1  0.29370808  0.70677867  0.90666935  1
  Zr  Zr33  1  0.29896240  0.89892793  0.30331073  1
  Zr  Zr34  1  0.09626492  0.50269809  0.31028268  1
  Zr  Zr35  1  0.29894601  0.09308621  0.30459548  1
  Zr  Zr36  1  0.09890641  0.09830605  0.29979830  1
  Zr  Zr37  1  0.50704479  0.28866525  0.68975925  1
  Zr  Zr38  1  0.10205372  0.69836035  0.09338986  1
  Zr  Zr39  1  0.49607516  0.09641469  0.29528533  1
  Zr  Zr40  1  0.70473373  0.50803404  0.50466137  1
  Zr  Zr41  1  0.29565229  0.50027210  0.10268028  1
  Zr  Zr42  1  0.89871961  0.09518399  0.70203697  1
  Zr  Zr43  1  0.70782149  0.30025021  0.29871979  1
  Zr  Zr44  1  0.49987642  0.90165494  0.29458609  1
  Zr  Zr45  1  0.50014471  0.50087705  0.29005328  1
  Zr  Zr46  1  0.09296682  0.29894050  0.29456663  1
  Zr  Zr47  1  0.70674918  0.89896774  0.49482583  1
  Zr  Zr48  1  0.70318076  0.69059209  0.69958725  1
  Zr  Zr49  1  0.29727921  0.30026253  0.50726656  1
  Sc  Sc50  1  0.89670682  0.30719127  0.29876134  1
  Sc  Sc51  1  0.30294914  0.49402012  0.89731915  1
  Sc  Sc52  1  0.29331212  0.30277703  0.28821189  1
  Sc  Sc53  1  0.28913006  0.69883360  0.30187620  1
  Sc  Sc54  1  0.49918412  0.51685327  0.70080936  1
  Sc  Sc55  1  0.90262945  0.50679140  0.70297671  1
  Sc  Sc56  1  0.29300861  0.09232037  0.90813622  1
  Sc  Sc57  1  0.29393837  0.90103794  0.69892466  1
  Sc  Sc58  1  0.08933680  0.70666301  0.70149170  1
  Sc  Sc59  1  0.90212364  0.69684867  0.49495377  1
  Sc  Sc60  1  0.50054800  0.89505470  0.50530585  1
  Sc  Sc61  1  0.50526340  0.90187060  0.09565092  1
  Sc  Sc62  1  0.09953290  0.69754373  0.49345360  1
  Sc  Sc63  1  0.29889755  0.90202742  0.09669749  1
  Sc  Sc64  1  0.09711405  0.49943809  0.09430248  1
  Sc  Sc65  1  0.49243568  0.09606253  0.10108450  1
  Sc  Sc66  1  0.09152452  0.31152722  0.69651194  1
  Sc  Sc67  1  0.09459950  0.89980150  0.69621665  1
  Sc  Sc68  1  0.70561298  0.70536912  0.10429627  1
  Sc  Sc69  1  0.90049638  0.50230904  0.49317426  1
  Sc  Sc70  1  0.70919856  0.10463759  0.50044685  1
  Sc  Sc71  1  0.69801521  0.90492343  0.90605646  1
  Sc  Sc72  1  0.09875252  0.90115837  0.10696931  1
  Sc  Sc73  1  0.50723353  0.70857814  0.70497791  1
  Sc  Sc74  1  0.69661958  0.09817259  0.70360692  1
  Sc  Sc75  1  0.70895219  0.50657081  0.09731688  1
  Sc  Sc76  1  0.10054646  0.90001910  0.29936990  1
  Sc  Sc77  1  0.50144044  0.89830727  0.90537599  1
  Sc  Sc78  1  0.30347987  0.08713256  0.69674801  1
  Sc  Sc79  1  0.50190875  0.29377741  0.29198858  1
  Sc  Sc80  1  0.49837039  0.49183959  0.09642123  1
  Sc  Sc81  1  0.70039987  0.90988583  0.70201255  1
  Sc  Sc82  1  0.29074681  0.50013079  0.49599010  1
  Sc  Sc83  1  0.49903637  0.09927327  0.51362707  1
  Sc  Sc84  1  0.29948937  0.10227350  0.09620263  1
  Sc  Sc85  1  0.29826122  0.89754013  0.50112277  1
  Sc  Sc86  1  0.09997433  0.09939547  0.10326807  1
  Sc  Sc87  1  0.49089576  0.30247236  0.09799445  1
  Sc  Sc88  1  0.69190527  0.70350082  0.89219841  1
  Sc  Sc89  1  0.49629217  0.49605552  0.89840151  1
  Sc  Sc90  1  0.29898523  0.30228092  0.70314666  1
  Sc  Sc91  1  0.30079170  0.70542813  0.50134559  1
  Sc  Sc92  1  0.29963395  0.30168036  0.90859783  1
  Sc  Sc93  1  0.50706504  0.70874417  0.10164367  1
  Sc  Sc94  1  0.90484132  0.69571557  0.70027882  1
  Sc  Sc95  1  0.09454787  0.10204801  0.49438186  1
  Sc  Sc96  1  0.09549110  0.88801344  0.50487319  1
  Sc  Sc97  1  0.10199618  0.69942967  0.30028223  1
  Sc  Sc98  1  0.09110113  0.30639087  0.50160398  1
  Sc  Sc99  1  0.70496174  0.10252626  0.09841803  1
  Nb  Nb100  1  0.29508445  0.30436770  0.09428453  1
  Nb  Nb101  1  0.90101482  0.89867477  0.69377583  1
  Nb  Nb102  1  0.69857660  0.89152000  0.29562052  1
  Nb  Nb103  1  0.70470422  0.70003251  0.30307340  1
  Nb  Nb104  1  0.89733782  0.50675353  0.10085573  1
  Nb  Nb105  1  0.70315622  0.89261516  0.10479391  1
  Nb  Nb106  1  0.89848769  0.90164940  0.50829579  1
  Nb  Nb107  1  0.91658776  0.71360618  0.90797250  1
  Nb  Nb108  1  0.89501081  0.30053759  0.51551519  1
  Nb  Nb109  1  0.89519621  0.69434535  0.29264516  1
  Nb  Nb110  1  0.09986577  0.50397984  0.70270364  1
  Nb  Nb111  1  0.70071621  0.69887819  0.50324081  1
  Nb  Nb112  1  0.49761520  0.09481306  0.70093702  1
  Nb  Nb113  1  0.70584322  0.50223271  0.70398403  1
  Nb  Nb114  1  0.10163482  0.50405424  0.89565254  1
  Nb  Nb115  1  0.09453299  0.10064107  0.89763660  1
  Nb  Nb116  1  0.90231239  0.10138411  0.89763010  1
  Nb  Nb117  1  0.09869994  0.69931497  0.90201288  1
  Nb  Nb118  1  0.50234721  0.92147936  0.70279719  1
  Nb  Nb119  1  0.89751387  0.89803659  0.90169042  1
  Nb  Nb120  1  0.89714422  0.29872350  0.70213513  1
  Nb  Nb121  1  0.70497721  0.50075526  0.30314929  1
  Nb  Nb122  1  0.89317438  0.88735778  0.09363231  1
  Nb  Nb123  1  0.89742519  0.29489180  0.89184679  1
  Nb  Nb124  1  0.89896031  0.69691534  0.09886591  1
  Nb  Nb125  1  0.40448568  0.40037861  0.59656747  1
  Nb  Nb126  1  0.59593150  0.60071796  -0.00312936  1
  Nb  Nb127  1  0.19639560  0.59821592  0.60947064  1
  Nb  Nb128  1  0.60955828  0.40210188  0.20275580  1
  Nb  Nb129  1  0.40507359  0.39828771  0.39978776  1
  Nb  Nb130  1  0.79879417  -0.01376728  0.19934705  1
  Nb  Nb131  1  0.60475594  0.40131238  0.79115876  1
  Nb  Nb132  1  0.81041009  0.40395773  -0.00434343  1
  Nb  Nb133  1  0.60326060  0.40351554  0.39408049  1
  Nb  Nb134  1  0.60206518  0.20167049  -0.00470226  1
  Nb  Nb135  1  0.19643546  0.19792892  0.60693719  1
  Nb  Nb136  1  -0.01241953  0.79235360  0.19575253  1
  Nb  Nb137  1  0.60433684  -0.00298937  0.39346247  1
  Nb  Nb138  1  0.19798710  0.19550965  0.79933600  1
  Nb  Nb139  1  0.39986670  0.60526440  0.00269871  1
  Nb  Nb140  1  0.39929731  0.80172774  0.20413596  1
  Nb  Nb141  1  -0.00442268  0.19722364  -0.00842198  1
  Nb  Nb142  1  0.81000052  0.80608769  0.79928980  1
  Nb  Nb143  1  0.19344301  0.60082077  0.80112215  1
  Nb  Nb144  1  0.39761597  0.20224393  0.40191300  1
  Nb  Nb145  1  0.40490477  0.59689019  0.39829546  1
  Nb  Nb146  1  0.80026033  0.40095109  0.60599449  1
  Nb  Nb147  1  0.80103556  0.80009599  0.60038714  1
  Nb  Nb148  1  0.39994400  0.19456131  0.79901828  1
  Nb  Nb149  1  -0.00721094  -0.00154336  -0.00641336  1
  Pd  Pd150  1  0.19085108  0.00265796  0.59411614  1
  Pd  Pd151  1  -0.01045516  0.39619762  0.40102536  1
  Pd  Pd152  1  -0.00396883  0.39786029  -0.00150363  1
  Pd  Pd153  1  0.40136635  0.79037633  0.39677733  1
  Pd  Pd154  1  0.41292754  0.39090069  0.78731954  1
  Pd  Pd155  1  0.81165211  0.61501421  0.81078489  1
  Pd  Pd156  1  0.60838333  0.59668061  0.18946394  1
  Pd  Pd157  1  0.80107474  -0.00392555  0.00410920  1
  Pd  Pd158  1  0.59764160  0.20509714  0.18590455  1
  Pd  Pd159  1  0.00440282  0.60137863  0.20019786  1
  Pd  Pd160  1  0.60094750  0.59731207  0.40034856  1
  Pd  Pd161  1  -0.00863946  0.20958476  0.40388706  1
  Pd  Pd162  1  0.19957253  0.78897997  0.60563111  1
  Pd  Pd163  1  0.40298698  0.80859954  0.60852394  1
  Pd  Pd164  1  0.19916406  0.39802932  0.80164322  1
  Pd  Pd165  1  0.20036856  0.20743681  0.40464112  1
  Pd  Pd166  1  0.79596687  0.60739734  -0.00983065  1
  Pd  Pd167  1  0.59508126  0.20025380  0.80529573  1
  Pd  Pd168  1  0.39233095  -0.00096625  0.80652261  1
  Pd  Pd169  1  -0.00104883  0.20066927  0.19331270  1
  Pd  Pd170  1  -0.00609487  -0.01032168  0.80325091  1
  Pd  Pd171  1  0.40430060  0.81522796  0.79225277  1
  Pd  Pd172  1  0.20393094  0.19366051  0.19805579  1
  Pd  Pd173  1  0.60603673  0.00606923  0.00450544  1
  Pd  Pd174  1  0.79093281  0.78930791  -0.01123367  1
  Pd  Pd175  1  0.60697267  0.81255055  0.79508636  1
  Pd  Pd176  1  0.80259373  0.79052551  0.40546251  1
  Pd  Pd177  1  0.20453193  0.00178081  0.19656857  1
  Pd  Pd178  1  0.40283528  0.19726945  -0.00707008  1
  Pd  Pd179  1  0.81172557  0.20077176  0.39745332  1
  Pd  Pd180  1  0.59363918  0.19261598  0.40111836  1
  Pd  Pd181  1  0.59955601  0.80360730  0.40322094  1
  Pd  Pd182  1  0.60786531  -0.00001714  0.19649334  1
  Pd  Pd183  1  -0.00486557  0.40217551  0.79592661  1
  Pd  Pd184  1  0.60784787  0.00281779  0.59036350  1
  Pd  Pd185  1  0.20217920  0.39326917  0.39634976  1
  Pd  Pd186  1  0.41018452  0.00355583  0.41128451  1
  Pd  Pd187  1  0.18828168  -0.00283801  0.00080484  1
  Pd  Pd188  1  0.19940026  0.79328131  0.78933813  1
  Pd  Pd189  1  -0.00075609  0.79536303  0.39491355  1
  Pd  Pd190  1  0.79625107  0.00182380  0.39391170  1
  Pd  Pd191  1  0.39008043  0.20093473  0.20177607  1
  Pd  Pd192  1  0.00634455  0.19886650  0.60478402  1
  Pd  Pd193  1  0.19003340  0.40669067  0.20028147  1
  Pd  Pd194  1  0.00568763  -0.00909425  0.40741074  1
  Pd  Pd195  1  0.60815192  0.80621165  0.60967444  1
  Pd  Pd196  1  0.40091979  0.61265135  0.19595179  1
  Pd  Pd197  1  0.18980788  -0.00842617  0.40871687  1
  Pd  Pd198  1  0.00097331  0.59919513  -0.00013122  1
  Pd  Pd199  1  0.00254500  0.60126274  0.59630799  1
  Rh  Rh200  1  0.61453673  0.40204558  -0.00060918  1
  Rh  Rh201  1  0.80064336  0.19955439  0.60673682  1
  Rh  Rh202  1  0.19851290  0.80228100  0.20188829  1
  Rh  Rh203  1  0.60938127  0.18474071  0.59954494  1
  Rh  Rh204  1  0.80452512  0.19371190  0.79144234  1
  Rh  Rh205  1  0.80067167  0.60696362  0.39832441  1
  Rh  Rh206  1  0.19263851  0.20053320  -0.00528126  1
  Rh  Rh207  1  0.19691043  0.80168832  0.40006735  1
  Rh  Rh208  1  0.80246276  0.79716080  0.20328779  1
  Rh  Rh209  1  0.39430770  0.60377603  0.81553646  1
  Rh  Rh210  1  0.60315294  -0.00061765  0.80549152  1
  Rh  Rh211  1  0.20136060  0.40078734  0.60387868  1
  Rh  Rh212  1  0.18784878  0.59516431  0.20242275  1
  Rh  Rh213  1  -0.00488750  0.80271342  0.79647850  1
  Rh  Rh214  1  0.80941271  0.19219585  0.20542987  1
  Rh  Rh215  1  0.79807115  0.40801708  0.19019238  1
  Rh  Rh216  1  0.80399149  -0.00521503  0.79905178  1
  Rh  Rh217  1  0.79753661  0.39976645  0.41245377  1
  Rh  Rh218  1  0.00295272  0.20637025  0.79965902  1
  Rh  Rh219  1  0.39364592  -0.00801523  0.19242659  1
  Rh  Rh220  1  0.19069961  0.80885473  0.00446517  1
  Rh  Rh221  1  0.60371279  0.60174182  0.60702709  1
  Rh  Rh222  1  0.40057869  0.79671163  0.01250958  1
  Rh  Rh223  1  0.00300131  -0.00167507  0.59533063  1
  Rh  Rh224  1  0.38836170  0.59334883  0.58629203  1
  Rh  Rh225  1  0.60547623  0.41333513  0.60511727  1
  Rh  Rh226  1  -0.00404784  0.60114876  0.39510958  1
  Rh  Rh227  1  0.79408423  0.60353539  0.20103046  1
  Rh  Rh228  1  0.80451221  0.60141415  0.59772100  1
  Rh  Rh229  1  0.38893302  0.20144458  0.60561417  1
  Rh  Rh230  1  0.60599973  0.79589383  0.00113105  1
  Rh  Rh231  1  0.00455059  0.60490257  0.80608018  1
  Rh  Rh232  1  -0.00847674  0.79655050  0.59607856  1
  Rh  Rh233  1  0.39903176  -0.00894552  0.59757313  1
  Rh  Rh234  1  0.80478864  0.20906322  -0.00112465  1
  Rh  Rh235  1  0.20069156  0.00065616  0.80370649  1
  Rh  Rh236  1  0.20441216  0.60403609  0.40957670  1
  Rh  Rh237  1  0.20139686  0.40519559  -0.00320844  1
  Rh  Rh238  1  0.39953566  -0.00418573  -0.00005745  1
  Rh  Rh239  1  0.39017929  0.40726909  0.00674881  1
  Rh  Rh240  1  0.80316933  0.40193545  0.79754777  1
  Rh  Rh241  1  0.40187816  0.39203839  0.19998686  1
  Rh  Rh242  1  0.79829614  -0.00305276  0.60291237  1
  Rh  Rh243  1  -0.01289369  0.40714255  0.60452245  1
  Rh  Rh244  1  0.59322699  0.59264476  0.80606052  1
  Rh  Rh245  1  0.00241067  0.40975804  0.20184044  1
  Rh  Rh246  1  -0.01394366  -0.01574842  0.19108022  1
  Rh  Rh247  1  0.60013612  0.79963611  0.19930728  1
  Rh  Rh248  1  0.20605375  0.59152851  -0.01020349  1
  Rh  Rh249  1  0.00726229  0.80694892  0.00838019  1
