# generated using pymatgen
data_ZrScNbPdRh
_symmetry_space_group_name_H-M   'P 1'
_cell_length_a   16.55821523
_cell_length_b   16.56226411
_cell_length_c   16.56152283
_cell_angle_alpha   89.98357465
_cell_angle_beta   90.05443534
_cell_angle_gamma   89.98806214
_symmetry_Int_Tables_number   1
_chemical_formula_structural   ZrScNbPdRh
_chemical_formula_sum   'Zr50 Sc50 Nb50 Pd50 Rh50'
_cell_volume   4541.85508734
_cell_formula_units_Z   50
loop_
 _symmetry_equiv_pos_site_id
 _symmetry_equiv_pos_as_xyz
  1  'x, y, z'
loop_
 _atom_site_type_symbol
 _atom_site_label
 _atom_site_symmetry_multiplicity
 _atom_site_fract_x
 _atom_site_fract_y
 _atom_site_fract_z
 _atom_site_occupancy
  Zr  Zr0  1  0.70286916  0.30231387  0.30954027  1
  Zr  Zr1  1  0.30227026  0.09851097  0.50316776  1
  Zr  Zr2  1  0.09532630  0.11493604  0.70706341  1
  Zr  Zr3  1  0.50344559  0.29319084  0.09200671  1
  Zr  Zr4  1  0.29945621  0.10354165  0.69769861  1
  Zr  Zr5  1  0.08377712  0.50162410  0.09155296  1
  Zr  Zr6  1  0.30424161  0.50697658  0.09893757  1
  Zr  Zr7  1  0.30086413  0.09784151  0.09298336  1
  Zr  Zr8  1  0.71218393  0.49542992  0.70191708  1
  Zr  Zr9  1  0.90163974  0.89501219  0.29497440  1
  Zr  Zr10  1  0.30073336  0.89341818  0.69998223  1
  Zr  Zr11  1  0.89560463  0.90111820  0.50629160  1
  Zr  Zr12  1  0.50475408  0.69758546  0.09805190  1
  Zr  Zr13  1  0.09798563  0.69577764  0.70320779  1
  Zr  Zr14  1  0.10257440  0.50623690  0.50942486  1
  Zr  Zr15  1  0.50531880  0.89872315  0.90012673  1
  Zr  Zr16  1  0.90625807  0.88969906  0.09817242  1
  Zr  Zr17  1  0.10473677  0.30667819  0.70595744  1
  Zr  Zr18  1  0.10075739  0.50387531  0.29998940  1
  Zr  Zr19  1  0.89699750  0.89559136  0.70857903  1
  Zr  Zr20  1  0.70135567  0.10206041  0.30564905  1
  Zr  Zr21  1  0.09270188  0.69867019  0.30374530  1
  Zr  Zr22  1  0.89990526  0.10474406  0.29716417  1
  Zr  Zr23  1  0.30266344  0.70152655  0.51060454  1
  Zr  Zr24  1  0.30134033  0.29884955  0.30327770  1
  Zr  Zr25  1  0.90339802  0.49925796  0.29126562  1
  Zr  Zr26  1  0.90105198  0.69064080  0.69860515  1
  Zr  Zr27  1  0.49356912  0.10062729  0.91174987  1
  Zr  Zr28  1  0.49412251  0.30087301  0.29930299  1
  Zr  Zr29  1  0.09509300  0.29700583  0.50768649  1
  Zr  Zr30  1  0.50013847  0.90390665  0.29749571  1
  Zr  Zr31  1  0.90194338  0.30260029  0.09170437  1
  Zr  Zr32  1  0.30755982  0.29462522  0.50384855  1
  Zr  Zr33  1  0.28887616  0.70553571  0.29689149  1
  Zr  Zr34  1  0.69996620  0.90701805  0.70087274  1
  Zr  Zr35  1  0.48811755  0.69854746  0.68551107  1
  Zr  Zr36  1  0.70219520  0.50145170  0.29167205  1
  Zr  Zr37  1  0.89954907  0.50089123  0.09833307  1
  Zr  Zr38  1  0.50571478  0.69451762  0.30388272  1
  Zr  Zr39  1  0.69441653  0.90603589  0.30040278  1
  Zr  Zr40  1  0.10530610  0.70127083  0.50384251  1
  Zr  Zr41  1  0.50455422  0.31023001  0.50337823  1
  Zr  Zr42  1  0.50244180  0.50317575  0.10157489  1
  Zr  Zr43  1  0.50034515  0.90503599  0.09975044  1
  Zr  Zr44  1  0.10091451  0.29092615  0.30562411  1
  Zr  Zr45  1  0.29631721  0.50379810  0.89706371  1
  Zr  Zr46  1  0.89434307  0.49978121  0.50955849  1
  Zr  Zr47  1  0.70612128  0.69472675  0.10123517  1
  Zr  Zr48  1  0.69763487  0.29700160  0.50175636  1
  Zr  Zr49  1  0.90663910  0.69666200  0.50367046  1
  Sc  Sc50  1  0.90945304  0.49229568  0.90334210  1
  Sc  Sc51  1  0.88773458  0.10423870  0.50895846  1
  Sc  Sc52  1  0.50728720  0.70366647  0.90103814  1
  Sc  Sc53  1  0.10756129  0.10429279  0.50166280  1
  Sc  Sc54  1  0.70623983  0.88857992  0.09560231  1
  Sc  Sc55  1  0.49665950  0.10123135  0.10368089  1
  Sc  Sc56  1  0.90238602  0.70954729  0.89911934  1
  Sc  Sc57  1  0.70469903  0.29985409  0.08927344  1
  Sc  Sc58  1  0.71358698  0.10494517  0.89015756  1
  Sc  Sc59  1  0.09527705  0.28696351  0.09619311  1
  Sc  Sc60  1  0.50013332  0.49626472  0.70007433  1
  Sc  Sc61  1  0.89665233  0.29615779  0.29567148  1
  Sc  Sc62  1  0.50925988  0.49491279  0.89477855  1
  Sc  Sc63  1  0.30466478  0.50328982  0.29944311  1
  Sc  Sc64  1  0.09818389  0.10327505  0.29872603  1
  Sc  Sc65  1  0.29367413  0.30238977  0.89290272  1
  Sc  Sc66  1  0.29092267  0.70649600  0.69877074  1
  Sc  Sc67  1  0.10594441  0.89099321  0.70486972  1
  Sc  Sc68  1  0.50603252  0.09484249  0.29285418  1
  Sc  Sc69  1  0.90229612  0.69935109  0.09749814  1
  Sc  Sc70  1  0.28665628  0.09776760  0.90379517  1
  Sc  Sc71  1  0.69795215  0.91686856  0.49515555  1
  Sc  Sc72  1  0.50207451  0.89803505  0.70299203  1
  Sc  Sc73  1  0.70440430  0.68864653  0.70715074  1
  Sc  Sc74  1  0.89293012  0.29940541  0.50190158  1
  Sc  Sc75  1  0.69883100  0.49634674  0.89453469  1
  Sc  Sc76  1  0.50029977  0.10825539  0.50513906  1
  Sc  Sc77  1  0.30102378  0.29122101  0.10452633  1
  Sc  Sc78  1  0.70384121  0.10177614  0.69489737  1
  Sc  Sc79  1  0.90567931  0.11408717  0.09947595  1
  Sc  Sc80  1  0.29309961  0.90739979  0.50340198  1
  Sc  Sc81  1  0.69764127  0.69705574  0.90685549  1
  Sc  Sc82  1  0.29023113  0.49236139  0.70406274  1
  Sc  Sc83  1  0.50501024  0.10052720  0.69474790  1
  Sc  Sc84  1  0.70033035  0.30706791  0.69783823  1
  Sc  Sc85  1  0.70026343  0.48747863  0.50177759  1
  Sc  Sc86  1  0.29935491  0.10233538  0.30421927  1
  Sc  Sc87  1  0.90492997  0.29517745  0.70313772  1
  Sc  Sc88  1  0.70377967  0.89102704  0.89420021  1
  Sc  Sc89  1  0.68962158  0.68618970  0.49575431  1
  Sc  Sc90  1  0.09987591  0.88974240  0.29760874  1
  Sc  Sc91  1  0.69903352  0.10745060  0.10676000  1
  Sc  Sc92  1  0.30248664  0.89077960  0.09591063  1
  Sc  Sc93  1  0.29832021  0.50978603  0.50242498  1
  Sc  Sc94  1  0.49898457  0.30913259  0.69435767  1
  Sc  Sc95  1  0.70062142  0.50274291  0.09036729  1
  Sc  Sc96  1  0.49995582  0.90669977  0.49703132  1
  Sc  Sc97  1  0.10328549  0.69626383  0.89977465  1
  Sc  Sc98  1  0.49242099  0.50423769  0.29825298  1
  Sc  Sc99  1  0.30198527  0.70232411  0.09017158  1
  Nb  Nb100  1  0.09277690  0.90408416  0.50252012  1
  Nb  Nb101  1  0.30548278  0.30066307  0.70451127  1
  Nb  Nb102  1  0.50415996  0.30417104  0.89803347  1
  Nb  Nb103  1  0.89930060  0.49912640  0.70142972  1
  Nb  Nb104  1  0.29837330  0.89794727  0.29741252  1
  Nb  Nb105  1  0.09401463  0.50069524  0.71309189  1
  Nb  Nb106  1  0.10300781  0.90163846  0.89987054  1
  Nb  Nb107  1  0.49765882  0.51927587  0.50689138  1
  Nb  Nb108  1  0.69841257  0.10680227  0.50012100  1
  Nb  Nb109  1  0.29915146  0.70043839  0.89720018  1
  Nb  Nb110  1  0.10266473  0.49437712  0.89538968  1
  Nb  Nb111  1  0.90181197  0.10244084  0.89487843  1
  Nb  Nb112  1  0.89505194  0.69903999  0.29534988  1
  Nb  Nb113  1  0.70250598  0.70006114  0.29661140  1
  Nb  Nb114  1  0.29632907  0.89377709  0.89583398  1
  Nb  Nb115  1  0.69836186  0.30399930  0.89574270  1
  Nb  Nb116  1  0.90283831  0.90468902  0.89954329  1
  Nb  Nb117  1  0.10047971  0.89473813  0.09964472  1
  Nb  Nb118  1  0.10056512  0.10397849  0.90490349  1
  Nb  Nb119  1  0.10211013  0.70632609  0.09937285  1
  Nb  Nb120  1  0.10415020  0.09532650  0.09312609  1
  Nb  Nb121  1  0.09684210  0.29525403  0.90040662  1
  Nb  Nb122  1  0.89954397  0.09801262  0.71021129  1
  Nb  Nb123  1  0.49553940  0.69630242  0.50063332  1
  Nb  Nb124  1  0.88961175  0.28658758  0.90205252  1
  Nb  Nb125  1  0.79157178  0.79701405  0.59505158  1
  Nb  Nb126  1  0.80490632  -0.00094641  0.19429150  1
  Nb  Nb127  1  0.19282351  0.59990202  0.19294156  1
  Nb  Nb128  1  0.39874058  0.80170494  0.39838298  1
  Nb  Nb129  1  0.79654394  0.79265914  0.40009746  1
  Nb  Nb130  1  0.00220708  0.00305106  0.80598504  1
  Nb  Nb131  1  0.80262448  0.60222559  0.39325762  1
  Nb  Nb132  1  0.60303434  0.79667823  0.59528633  1
  Nb  Nb133  1  -0.00078858  -0.00239845  0.40792667  1
  Nb  Nb134  1  0.59608654  0.20731018  0.80462063  1
  Nb  Nb135  1  0.39480499  0.60404434  0.80189660  1
  Nb  Nb136  1  0.19693786  -0.00576357  0.19428618  1
  Nb  Nb137  1  0.19680230  0.40256226  0.19747697  1
  Nb  Nb138  1  0.60169374  0.79634750  0.20392519  1
  Nb  Nb139  1  0.60961499  0.00037526  -0.00160473  1
  Nb  Nb140  1  -0.00128505  0.00281069  0.60684315  1
  Nb  Nb141  1  0.80856209  0.00012582  -0.00090879  1
  Nb  Nb142  1  0.59815428  0.39737286  0.19861700  1
  Nb  Nb143  1  0.39563289  0.00106133  0.80456862  1
  Nb  Nb144  1  0.19656923  0.40166678  0.00154542  1
  Nb  Nb145  1  0.40306303  0.20142484  0.80046508  1
  Nb  Nb146  1  0.00342338  0.40126407  0.40255602  1
  Nb  Nb147  1  0.19732691  0.39814039  0.40023493  1
  Nb  Nb148  1  0.00461356  0.00068922  -0.00324721  1
  Nb  Nb149  1  0.39908784  0.39895182  -0.00404303  1
  Pd  Pd150  1  0.39974787  0.39518651  0.19041578  1
  Pd  Pd151  1  0.39131237  0.60793566  0.39740596  1
  Pd  Pd152  1  0.20486375  0.39979432  0.59682773  1
  Pd  Pd153  1  0.00700945  0.79931090  -0.00723483  1
  Pd  Pd154  1  0.40194423  0.79798118  0.80298148  1
  Pd  Pd155  1  0.19130390  -0.00302723  0.38976607  1
  Pd  Pd156  1  0.60390081  0.20974558  0.20265293  1
  Pd  Pd157  1  0.60542267  0.58791300  0.39780344  1
  Pd  Pd158  1  0.19938692  0.00181999  0.79530983  1
  Pd  Pd159  1  0.61157893  0.19175615  -0.00843284  1
  Pd  Pd160  1  -0.00424131  0.40100221  0.60224051  1
  Pd  Pd161  1  0.79849875  0.40372206  -0.00814644  1
  Pd  Pd162  1  -0.00027036  0.80487149  0.60747326  1
  Pd  Pd163  1  0.39644623  0.41016414  0.59756505  1
  Pd  Pd164  1  0.40587711  0.79430047  0.20342872  1
  Pd  Pd165  1  0.39734478  0.41002851  0.40994444  1
  Pd  Pd166  1  0.79604060  0.79287583  0.79815779  1
  Pd  Pd167  1  0.58999351  0.41228650  0.39616906  1
  Pd  Pd168  1  0.40071244  -0.00023463  0.39827508  1
  Pd  Pd169  1  0.40808704  0.19177275  0.39741063  1
  Pd  Pd170  1  0.59672988  0.01384513  0.80842296  1
  Pd  Pd171  1  0.79286003  0.39394419  0.19306294  1
  Pd  Pd172  1  0.18948842  -0.00049359  0.60957940  1
  Pd  Pd173  1  0.00334410  0.00362770  0.19797170  1
  Pd  Pd174  1  0.20165156  0.20487642  0.60241051  1
  Pd  Pd175  1  -0.00875815  0.19569299  0.41055768  1
  Pd  Pd176  1  0.59959894  0.80118923  0.40386486  1
  Pd  Pd177  1  0.38837278  0.20976109  -0.00948071  1
  Pd  Pd178  1  0.20034445  -0.01141392  0.00391294  1
  Pd  Pd179  1  0.60145867  0.78960905  0.78790118  1
  Pd  Pd180  1  0.19240163  0.59875567  0.00217816  1
  Pd  Pd181  1  0.00641495  0.38744526  0.20413091  1
  Pd  Pd182  1  0.40510225  -0.00445579  0.60751247  1
  Pd  Pd183  1  -0.00719979  0.59305643  0.40271210  1
  Pd  Pd184  1  -0.00774889  0.39114364  0.80533553  1
  Pd  Pd185  1  0.59799926  -0.00107970  0.59635632  1
  Pd  Pd186  1  0.80707280  0.00033133  0.39466387  1
  Pd  Pd187  1  0.38771218  0.00346483  0.20085277  1
  Pd  Pd188  1  0.20284391  0.80742726  0.40942826  1
  Pd  Pd189  1  0.79925034  0.20402165  0.60947051  1
  Pd  Pd190  1  0.59249456  0.19712302  0.40028325  1
  Pd  Pd191  1  -0.00503879  0.60000286  0.80961643  1
  Pd  Pd192  1  0.40169358  0.80091198  -0.00617793  1
  Pd  Pd193  1  0.20020922  0.19380161  0.19804291  1
  Pd  Pd194  1  0.41169602  0.59614143  -0.01283878  1
  Pd  Pd195  1  -0.00511294  0.80336099  0.40090404  1
  Pd  Pd196  1  0.80975340  0.59463320  0.81303874  1
  Pd  Pd197  1  0.60760625  0.59707269  0.60757489  1
  Pd  Pd198  1  0.59148945  0.60222416  0.79526312  1
  Pd  Pd199  1  0.80722768  0.59912864  -0.00955304  1
  Rh  Rh200  1  0.00067688  0.19708826  -0.00497916  1
  Rh  Rh201  1  0.20527962  0.20362660  0.80148955  1
  Rh  Rh202  1  0.19909331  0.80109372  -0.00594476  1
  Rh  Rh203  1  -0.00124311  0.20336099  0.80865310  1
  Rh  Rh204  1  0.61353866  -0.00789523  0.18445086  1
  Rh  Rh205  1  0.80575235  0.39450080  0.60729225  1
  Rh  Rh206  1  0.60262953  0.59852642  0.19834061  1
  Rh  Rh207  1  0.80172240  -0.00022420  0.60732685  1
  Rh  Rh208  1  0.79247439  0.20824520  0.79390908  1
  Rh  Rh209  1  0.19439255  0.80464091  0.59557673  1
  Rh  Rh210  1  -0.00554973  0.19234675  0.59909004  1
  Rh  Rh211  1  0.20031698  0.20851218  -0.00260486  1
  Rh  Rh212  1  0.79262279  0.80552880  0.20733067  1
  Rh  Rh213  1  0.79454561  0.60278471  0.59290076  1
  Rh  Rh214  1  0.60155832  0.80405950  0.00776337  1
  Rh  Rh215  1  0.60243021  0.20453904  0.60537122  1
  Rh  Rh216  1  0.00365460  0.20025540  0.19618156  1
  Rh  Rh217  1  0.80366457  -0.00026234  0.80239829  1
  Rh  Rh218  1  0.20553653  0.20278642  0.40770901  1
  Rh  Rh219  1  0.79690180  0.19521900  -0.00108381  1
  Rh  Rh220  1  0.19694790  0.79515285  0.80734002  1
  Rh  Rh221  1  0.81338543  0.40684621  0.39801642  1
  Rh  Rh222  1  0.59608518  0.40151538  0.00546996  1
  Rh  Rh223  1  0.00508496  0.59269075  0.60913257  1
  Rh  Rh224  1  0.39021918  0.61149612  0.20245996  1
  Rh  Rh225  1  0.59818851  0.40867079  0.59881691  1
  Rh  Rh226  1  0.80272678  0.80114616  -0.00710857  1
  Rh  Rh227  1  0.59453579  0.01403446  0.40703545  1
  Rh  Rh228  1  0.00616255  0.80402296  0.80402424  1
  Rh  Rh229  1  0.39960082  0.19356726  0.20349419  1
  Rh  Rh230  1  0.00324593  0.79177862  0.19923065  1
  Rh  Rh231  1  0.19714181  0.79995889  0.19364288  1
  Rh  Rh232  1  0.00302919  0.38895519  -0.00930509  1
  Rh  Rh233  1  0.20267524  0.60195664  0.79700288  1
  Rh  Rh234  1  0.60376328  0.39660846  0.79478621  1
  Rh  Rh235  1  0.19715842  0.39676929  0.80510421  1
  Rh  Rh236  1  0.80386642  0.59802523  0.19780662  1
  Rh  Rh237  1  0.20444284  0.59748323  0.39388014  1
  Rh  Rh238  1  0.40454818  0.20414973  0.60878785  1
  Rh  Rh239  1  0.40817848  0.80988179  0.58689937  1
  Rh  Rh240  1  0.19759511  0.59750068  0.61372292  1
  Rh  Rh241  1  0.40039606  0.40084267  0.80495439  1
  Rh  Rh242  1  0.80107582  0.19999301  0.40278087  1
  Rh  Rh243  1  0.00161180  0.61117672  0.19137214  1
  Rh  Rh244  1  0.38814299  0.59182230  0.61324326  1
  Rh  Rh245  1  0.00053837  0.60663551  -0.00505358  1
  Rh  Rh246  1  0.60049739  0.59745786  -0.00443928  1
  Rh  Rh247  1  0.79838353  0.20062819  0.19909189  1
  Rh  Rh248  1  0.39985385  -0.00967669  -0.00760246  1
  Rh  Rh249  1  0.80784192  0.39594341  0.80240868  1
