# generated using pymatgen
data_ZrScNbPdRh
_symmetry_space_group_name_H-M   'P 1'
_cell_length_a   16.55521572
_cell_length_b   16.55903091
_cell_length_c   16.55919088
_cell_angle_alpha   89.95710044
_cell_angle_beta   89.97806857
_cell_angle_gamma   90.01080862
_symmetry_Int_Tables_number   1
_chemical_formula_structural   ZrScNbPdRh
_chemical_formula_sum   'Zr50 Sc50 Nb50 Pd50 Rh50'
_cell_volume   4539.50722795
_cell_formula_units_Z   50
loop_
 _symmetry_equiv_pos_site_id
 _symmetry_equiv_pos_as_xyz
  1  'x, y, z'
loop_
 _atom_site_type_symbol
 _atom_site_label
 _atom_site_symmetry_multiplicity
 _atom_site_fract_x
 _atom_site_fract_y
 _atom_site_fract_z
 _atom_site_occupancy
  Zr  Zr0  1  0.30442803  0.10336396  0.28811624  1
  Zr  Zr1  1  0.29675571  0.29619846  0.09992498  1
  Zr  Zr2  1  0.29699388  0.88445668  0.90172420  1
  Zr  Zr3  1  0.09458265  0.29087121  0.49490490  1
  Zr  Zr4  1  0.70189702  0.50804176  0.09965944  1
  Zr  Zr5  1  0.89753737  0.30908364  0.69654868  1
  Zr  Zr6  1  0.31325544  0.89604839  0.50429877  1
  Zr  Zr7  1  0.50106418  0.29927188  0.30229146  1
  Zr  Zr8  1  0.29679233  0.69366371  0.30280058  1
  Zr  Zr9  1  0.49289997  0.89996857  0.10042051  1
  Zr  Zr10  1  0.30977256  0.49156047  0.90602938  1
  Zr  Zr11  1  0.69339711  0.08871972  0.70926626  1
  Zr  Zr12  1  0.70879319  0.69862860  0.10548546  1
  Zr  Zr13  1  0.49989473  0.10206736  0.50959272  1
  Zr  Zr14  1  0.90130631  0.90434679  0.29960858  1
  Zr  Zr15  1  0.10374125  0.50647261  0.29994717  1
  Zr  Zr16  1  0.08453677  0.69789531  0.69866077  1
  Zr  Zr17  1  0.29716253  0.49793411  0.10211177  1
  Zr  Zr18  1  0.69322927  0.09868201  0.10946719  1
  Zr  Zr19  1  0.29354648  0.10695862  0.89634999  1
  Zr  Zr20  1  0.49605680  0.89279073  0.91160113  1
  Zr  Zr21  1  0.09162420  0.89920704  0.70932580  1
  Zr  Zr22  1  0.69387677  0.49634256  0.90158104  1
  Zr  Zr23  1  0.09748508  0.69935934  0.30032471  1
  Zr  Zr24  1  0.90399898  0.29537337  0.29997932  1
  Zr  Zr25  1  0.50790137  0.70744908  0.09739050  1
  Zr  Zr26  1  0.10216376  0.69408129  0.49215532  1
  Zr  Zr27  1  0.30672597  0.10336766  0.69691025  1
  Zr  Zr28  1  0.69674087  0.90662108  0.89592320  1
  Zr  Zr29  1  0.49638638  0.49776095  0.08829693  1
  Zr  Zr30  1  0.49228574  0.09250022  0.10602310  1
  Zr  Zr31  1  0.30142167  0.89793478  0.70125690  1
  Zr  Zr32  1  0.10359611  0.09741133  0.09625940  1
  Zr  Zr33  1  0.51283543  0.10728446  0.29490160  1
  Zr  Zr34  1  0.89898646  0.11082674  0.70384791  1
  Zr  Zr35  1  0.70088001  0.69230902  0.29875189  1
  Zr  Zr36  1  0.69754312  0.29950277  0.89905944  1
  Zr  Zr37  1  0.30353353  0.89878333  0.09740943  1
  Zr  Zr38  1  0.88934446  0.29775477  0.89211965  1
  Zr  Zr39  1  0.09684717  0.50132186  0.70315215  1
  Zr  Zr40  1  0.69307458  0.29257764  0.30684946  1
  Zr  Zr41  1  0.69626088  0.89312882  0.51376998  1
  Zr  Zr42  1  0.09426432  0.10119997  0.89162692  1
  Zr  Zr43  1  0.89643663  0.70198017  0.29351292  1
  Zr  Zr44  1  0.50740547  0.91007014  0.68892429  1
  Zr  Zr45  1  0.89105293  0.90622431  0.49120496  1
  Zr  Zr46  1  0.29857158  0.69628915  0.50461372  1
  Zr  Zr47  1  0.89454800  0.89523674  0.69338202  1
  Zr  Zr48  1  0.09741210  0.10381043  0.70307313  1
  Zr  Zr49  1  0.30045219  0.69760322  0.70234063  1
  Sc  Sc50  1  0.29324721  0.30826626  0.89986752  1
  Sc  Sc51  1  0.70628454  0.29387085  0.70152164  1
  Sc  Sc52  1  0.68975442  0.89593816  0.09725000  1
  Sc  Sc53  1  0.29973555  0.49733119  0.69564194  1
  Sc  Sc54  1  0.90505366  0.90235809  0.10271571  1
  Sc  Sc55  1  0.09062633  0.89293459  0.48776770  1
  Sc  Sc56  1  0.10513698  0.29907005  0.10376455  1
  Sc  Sc57  1  0.30350192  0.10448385  0.50287741  1
  Sc  Sc58  1  0.09392939  0.71691097  0.90258386  1
  Sc  Sc59  1  0.88665403  0.49929098  0.50053919  1
  Sc  Sc60  1  0.30582933  0.50129762  0.50602804  1
  Sc  Sc61  1  0.69901809  0.30076144  0.09001139  1
  Sc  Sc62  1  0.50029219  0.88934967  0.30148338  1
  Sc  Sc63  1  0.69360791  0.69290485  0.90307316  1
  Sc  Sc64  1  0.49825306  0.70189018  0.30156032  1
  Sc  Sc65  1  0.50383877  0.29525001  0.10009928  1
  Sc  Sc66  1  0.50678287  0.30463841  0.50374542  1
  Sc  Sc67  1  0.90231807  0.51216529  0.09813058  1
  Sc  Sc68  1  0.09309260  0.30859796  0.70279248  1
  Sc  Sc69  1  0.09761442  0.50028498  0.10730582  1
  Sc  Sc70  1  0.50367119  0.29884337  0.70374919  1
  Sc  Sc71  1  0.09710737  0.89338049  0.09868338  1
  Sc  Sc72  1  0.30966975  0.30436831  0.70118201  1
  Sc  Sc73  1  0.49921345  0.68556611  0.70413466  1
  Sc  Sc74  1  0.49944753  0.50681902  0.31345277  1
  Sc  Sc75  1  0.71167886  0.89395808  0.30775210  1
  Sc  Sc76  1  0.70791413  0.10308550  0.90211799  1
  Sc  Sc77  1  0.09860883  0.89476694  0.29428751  1
  Sc  Sc78  1  0.90309328  0.69784298  0.49692935  1
  Sc  Sc79  1  0.10375999  0.29448750  0.29072772  1
  Sc  Sc80  1  0.49404384  0.70670616  0.49151231  1
  Sc  Sc81  1  0.70041943  0.69834644  0.50457081  1
  Sc  Sc82  1  0.50401704  0.31374513  0.89805707  1
  Sc  Sc83  1  0.70462540  0.30723849  0.50450773  1
  Sc  Sc84  1  0.50794614  0.09748679  0.89693067  1
  Sc  Sc85  1  0.70435289  0.10346302  0.50807123  1
  Sc  Sc86  1  0.29815326  0.70645149  0.10454872  1
  Sc  Sc87  1  0.50229839  0.10704388  0.70019081  1
  Sc  Sc88  1  0.30142530  0.09312670  0.10134979  1
  Sc  Sc89  1  0.89391081  0.49832474  0.89854299  1
  Sc  Sc90  1  0.89890676  0.29855923  0.50885678  1
  Sc  Sc91  1  0.50170461  0.49749211  0.70041872  1
  Sc  Sc92  1  0.29918200  0.89084901  0.28932687  1
  Sc  Sc93  1  0.89903309  0.29954502  0.10299056  1
  Sc  Sc94  1  0.89824950  0.09261003  0.10615445  1
  Sc  Sc95  1  0.90771424  0.90987513  0.90287822  1
  Sc  Sc96  1  0.90051925  0.50950399  0.30496839  1
  Sc  Sc97  1  0.90759300  0.69610073  0.90294621  1
  Sc  Sc98  1  0.10900219  0.50551950  0.50467860  1
  Sc  Sc99  1  0.09352369  0.10369660  0.29875834  1
  Nb  Nb100  1  0.88949709  0.09315003  0.30322172  1
  Nb  Nb101  1  0.90210369  0.70023998  0.09346965  1
  Nb  Nb102  1  0.89929779  0.69648634  0.70182850  1
  Nb  Nb103  1  0.50537512  0.50095397  0.50617747  1
  Nb  Nb104  1  0.69989578  0.89282720  0.70007771  1
  Nb  Nb105  1  0.29991213  0.69897531  0.89888848  1
  Nb  Nb106  1  0.50219306  0.90239020  0.49425883  1
  Nb  Nb107  1  0.70237104  0.70308599  0.69842052  1
  Nb  Nb108  1  0.09841040  0.10171659  0.49941099  1
  Nb  Nb109  1  0.50248992  0.50668738  0.89731052  1
  Nb  Nb110  1  0.08901004  0.69916031  0.09405052  1
  Nb  Nb111  1  0.11337459  0.48728238  0.89880511  1
  Nb  Nb112  1  0.29852804  0.49701816  0.29662604  1
  Nb  Nb113  1  0.70345789  0.50039772  0.30458719  1
  Nb  Nb114  1  0.29940343  0.29849174  0.49739589  1
  Nb  Nb115  1  0.89744798  0.50695109  0.69945174  1
  Nb  Nb116  1  0.69934154  0.50259918  0.49965693  1
  Nb  Nb117  1  0.49474474  0.69417189  0.89747961  1
  Nb  Nb118  1  0.70114071  0.09961494  0.30417662  1
  Nb  Nb119  1  0.90817246  0.10448095  0.49660630  1
  Nb  Nb120  1  0.70052714  0.51599005  0.68583424  1
  Nb  Nb121  1  0.90655040  0.10317978  0.90036618  1
  Nb  Nb122  1  0.09772378  0.90505036  0.90147341  1
  Nb  Nb123  1  0.30210316  0.30123293  0.29907782  1
  Nb  Nb124  1  0.10476556  0.30085552  0.90434203  1
  Nb  Nb125  1  0.19247942  -0.00074549  0.59384072  1
  Nb  Nb126  1  0.39885694  0.19909760  -0.00157073  1
  Nb  Nb127  1  0.60219419  0.79715992  0.79736587  1
  Nb  Nb128  1  0.19775447  0.19953384  0.59681993  1
  Nb  Nb129  1  0.40107474  0.40130591  0.20555620  1
  Nb  Nb130  1  0.80445681  0.19276061  0.39722652  1
  Nb  Nb131  1  0.40310001  0.00353732  0.39841553  1
  Nb  Nb132  1  0.19826574  0.60058373  0.81006976  1
  Nb  Nb133  1  0.79776091  0.60332420  0.79091786  1
  Nb  Nb134  1  0.40044812  0.20253312  0.39874965  1
  Nb  Nb135  1  0.20486206  0.39633117  0.39632813  1
  Nb  Nb136  1  0.60176940  0.40655232  0.20403004  1
  Nb  Nb137  1  0.19392678  0.80229492  0.60076598  1
  Nb  Nb138  1  0.19808052  0.60431445  -0.00636197  1
  Nb  Nb139  1  0.00660302  0.40044748  0.39878803  1
  Nb  Nb140  1  0.00473082  0.39532602  -0.00685078  1
  Nb  Nb141  1  0.20490884  0.00311346  0.40352956  1
  Nb  Nb142  1  0.19745481  -0.00572678  -0.00917479  1
  Nb  Nb143  1  0.00011988  0.00569748  0.59453888  1
  Nb  Nb144  1  0.39901739  -0.00395626  0.80203525  1
  Nb  Nb145  1  0.80146444  0.79842287  -0.00297286  1
  Nb  Nb146  1  0.59999089  -0.00113980  0.40481896  1
  Nb  Nb147  1  0.00008384  0.20205721  -0.00699537  1
  Nb  Nb148  1  0.79248599  0.40473489  0.20687617  1
  Nb  Nb149  1  0.79697328  0.79554584  0.79902985  1
  Pd  Pd150  1  0.59001549  0.59376239  0.20427876  1
  Pd  Pd151  1  0.40543917  0.39802876  0.59884231  1
  Pd  Pd152  1  -0.00604404  0.59179646  0.58983645  1
  Pd  Pd153  1  0.19522383  0.60793558  0.19019802  1
  Pd  Pd154  1  0.80032362  -0.00268886  0.00629687  1
  Pd  Pd155  1  0.79481346  0.20620316  0.20157002  1
  Pd  Pd156  1  0.60425835  -0.01448764  0.21269104  1
  Pd  Pd157  1  0.39676076  0.59733630  0.40527211  1
  Pd  Pd158  1  0.59234583  0.60861316  0.59225861  1
  Pd  Pd159  1  0.60701615  0.40525856  0.78893695  1
  Pd  Pd160  1  0.20682367  0.19688942  0.39838544  1
  Pd  Pd161  1  -0.00188510  0.79832825  0.19752882  1
  Pd  Pd162  1  0.20598135  0.80789667  0.40310797  1
  Pd  Pd163  1  -0.01003591  0.40688083  0.20014527  1
  Pd  Pd164  1  0.60583298  0.80317827  0.20736046  1
  Pd  Pd165  1  0.19949644  0.21443132  0.78805727  1
  Pd  Pd166  1  0.20599959  -0.00220249  0.79969977  1
  Pd  Pd167  1  0.60116284  0.00617553  -0.00004684  1
  Pd  Pd168  1  -0.00149748  0.40994445  0.58941719  1
  Pd  Pd169  1  0.19462934  -0.00474695  0.20056916  1
  Pd  Pd170  1  0.80368876  0.00786388  0.60005761  1
  Pd  Pd171  1  -0.00295934  0.40141569  0.80720752  1
  Pd  Pd172  1  0.80918445  0.40380910  0.01048003  1
  Pd  Pd173  1  0.78757687  0.41202640  0.78835231  1
  Pd  Pd174  1  0.19874838  0.39184993  0.59531501  1
  Pd  Pd175  1  0.39324365  0.58938152  0.79793034  1
  Pd  Pd176  1  0.59907209  0.60374634  0.00032626  1
  Pd  Pd177  1  0.40718283  0.59776769  0.19898031  1
  Pd  Pd178  1  0.00729898  0.00269113  0.39570911  1
  Pd  Pd179  1  0.39325821  0.60911293  0.00435060  1
  Pd  Pd180  1  0.01111624  0.58810582  -0.01003697  1
  Pd  Pd181  1  0.59233222  0.19534870  -0.00073253  1
  Pd  Pd182  1  0.60716128  0.39907550  0.60739804  1
  Pd  Pd183  1  0.60099363  0.40564588  0.40163973  1
  Pd  Pd184  1  -0.00226733  0.19189394  0.19221754  1
  Pd  Pd185  1  0.19188216  0.79137226  0.79432620  1
  Pd  Pd186  1  0.60197334  0.60460293  0.40661975  1
  Pd  Pd187  1  0.40816244  0.20147311  0.81038510  1
  Pd  Pd188  1  0.79816589  0.79142308  0.40586622  1
  Pd  Pd189  1  0.39763914  0.39909532  0.40198089  1
  Pd  Pd190  1  0.80776873  0.39257505  0.39733632  1
  Pd  Pd191  1  0.00192157  0.59454848  0.81243182  1
  Pd  Pd192  1  0.41406694  0.80345174  0.79268602  1
  Pd  Pd193  1  0.80716806  -0.00308468  0.80038620  1
  Pd  Pd194  1  -0.00231741  0.80399130  0.58995458  1
  Pd  Pd195  1  0.80707748  0.19261214  0.00683343  1
  Pd  Pd196  1  0.40780031  0.79156914  0.60748354  1
  Pd  Pd197  1  0.58763394  0.78856370  0.60354434  1
  Pd  Pd198  1  0.60693213  0.20408059  0.60310428  1
  Pd  Pd199  1  0.79147841  -0.01009669  0.19557992  1
  Rh  Rh200  1  0.79469452  0.40590142  0.60503538  1
  Rh  Rh201  1  -0.01151102  0.80548834  0.80684263  1
  Rh  Rh202  1  0.40011988  0.20860349  0.19538284  1
  Rh  Rh203  1  0.19277889  0.79245499  0.19428394  1
  Rh  Rh204  1  0.40449327  0.40413924  0.80114190  1
  Rh  Rh205  1  0.19255044  0.40577323  0.01319542  1
  Rh  Rh206  1  0.19623767  0.60972488  0.61309514  1
  Rh  Rh207  1  0.40539924  -0.00901642  0.21201644  1
  Rh  Rh208  1  0.80683897  0.79129420  0.59996390  1
  Rh  Rh209  1  0.80396721  0.60479008  0.59881171  1
  Rh  Rh210  1  0.79457871  0.60289228  0.40436851  1
  Rh  Rh211  1  0.60658910  0.80254597  0.39937988  1
  Rh  Rh212  1  0.40118809  0.79412609  0.20020565  1
  Rh  Rh213  1  0.20513113  0.40215293  0.79087712  1
  Rh  Rh214  1  0.39960336  0.78785452  0.00346496  1
  Rh  Rh215  1  0.80230895  0.19832719  0.59720657  1
  Rh  Rh216  1  0.20002912  0.19343868  0.00202885  1
  Rh  Rh217  1  -0.00995349  -0.00295606  0.79194055  1
  Rh  Rh218  1  0.00165208  0.00209218  0.20564814  1
  Rh  Rh219  1  0.39377446  0.80280488  0.39327322  1
  Rh  Rh220  1  0.40679147  0.59663013  0.59653804  1
  Rh  Rh221  1  0.80787588  0.59559020  0.20109384  1
  Rh  Rh222  1  0.40541621  0.38879739  0.00494564  1
  Rh  Rh223  1  0.60319704  0.19192463  0.41293145  1
  Rh  Rh224  1  0.80414553  0.80417447  0.18896259  1
  Rh  Rh225  1  0.19451847  0.79929504  0.00412997  1
  Rh  Rh226  1  0.60712979  0.20752014  0.19209942  1
  Rh  Rh227  1  0.39893610  0.00209748  0.60158460  1
  Rh  Rh228  1  0.38869330  0.01085340  -0.01342717  1
  Rh  Rh229  1  0.20082072  0.19784113  0.19869067  1
  Rh  Rh230  1  0.59158354  -0.00734832  0.80212509  1
  Rh  Rh231  1  -0.00678914  0.20135323  0.39408750  1
  Rh  Rh232  1  0.60551231  0.00428622  0.59513389  1
  Rh  Rh233  1  0.00219382  0.19862350  0.60648970  1
  Rh  Rh234  1  0.78966232  0.00752650  0.40813916  1
  Rh  Rh235  1  0.79575506  0.19537789  0.79970603  1
  Rh  Rh236  1  0.20509904  0.39681894  0.20326389  1
  Rh  Rh237  1  0.20920230  0.58958509  0.40090989  1
  Rh  Rh238  1  0.60501971  0.79348912  -0.00844722  1
  Rh  Rh239  1  -0.00713219  0.79710960  0.39455890  1
  Rh  Rh240  1  0.60414350  0.59987251  0.80116923  1
  Rh  Rh241  1  -0.00203904  0.60518947  0.20098157  1
  Rh  Rh242  1  0.39791114  0.21175842  0.59463677  1
  Rh  Rh243  1  0.60305351  0.20200970  0.80268048  1
  Rh  Rh244  1  -0.00056036  0.21458115  0.80350557  1
  Rh  Rh245  1  0.59827114  0.40204952  0.00278712  1
  Rh  Rh246  1  0.80105072  0.60762187  -0.00877258  1
  Rh  Rh247  1  -0.00830981  0.80702332  -0.00052641  1
  Rh  Rh248  1  0.00649341  0.00600038  0.00232559  1
  Rh  Rh249  1  -0.00111712  0.59263988  0.40383228  1
