# generated using pymatgen
data_ZrScNbPdRh
_symmetry_space_group_name_H-M   'P 1'
_cell_length_a   16.55695193
_cell_length_b   16.56285308
_cell_length_c   16.55853727
_cell_angle_alpha   90.04436701
_cell_angle_beta   90.00870114
_cell_angle_gamma   89.99452720
_symmetry_Int_Tables_number   1
_chemical_formula_structural   ZrScNbPdRh
_chemical_formula_sum   'Zr50 Sc50 Nb50 Pd50 Rh50'
_cell_volume   4540.85224049
_cell_formula_units_Z   50
loop_
 _symmetry_equiv_pos_site_id
 _symmetry_equiv_pos_as_xyz
  1  'x, y, z'
loop_
 _atom_site_type_symbol
 _atom_site_label
 _atom_site_symmetry_multiplicity
 _atom_site_fract_x
 _atom_site_fract_y
 _atom_site_fract_z
 _atom_site_occupancy
  Zr  Zr0  1  0.69696217  0.29869270  0.50105367  1
  Zr  Zr1  1  0.09879816  0.49084505  0.10100419  1
  Zr  Zr2  1  0.30139049  0.90157105  0.10380861  1
  Zr  Zr3  1  0.68950407  0.70072661  0.90425236  1
  Zr  Zr4  1  0.89489277  0.28976423  0.29157091  1
  Zr  Zr5  1  0.29476275  0.09447209  0.49554438  1
  Zr  Zr6  1  0.09737715  0.69856721  0.89085152  1
  Zr  Zr7  1  0.70356399  0.29401838  0.89494279  1
  Zr  Zr8  1  0.89798544  0.69726747  0.70183593  1
  Zr  Zr9  1  0.08893580  0.69723600  0.30269115  1
  Zr  Zr10  1  0.69050755  0.09993946  0.09641927  1
  Zr  Zr11  1  0.70673976  0.48973375  0.69841011  1
  Zr  Zr12  1  0.50491223  0.69655041  0.70415552  1
  Zr  Zr13  1  0.90803548  0.10600389  0.10198405  1
  Zr  Zr14  1  0.50939062  0.10155454  0.50019840  1
  Zr  Zr15  1  0.90237764  0.29807060  0.09416831  1
  Zr  Zr16  1  0.30319798  0.49081590  0.29749436  1
  Zr  Zr17  1  0.30666380  0.10017066  0.90068665  1
  Zr  Zr18  1  0.09484578  0.49779599  0.51204903  1
  Zr  Zr19  1  0.29241301  0.29991894  0.89831201  1
  Zr  Zr20  1  0.69944542  0.50694738  0.30180708  1
  Zr  Zr21  1  0.09462673  0.10662810  0.49491391  1
  Zr  Zr22  1  0.69273816  0.09803406  0.70156574  1
  Zr  Zr23  1  0.70336179  0.70136355  0.71518763  1
  Zr  Zr24  1  0.30358125  0.70066397  0.29795803  1
  Zr  Zr25  1  0.70978274  0.29835813  0.10541566  1
  Zr  Zr26  1  0.10812068  0.30170568  0.69856539  1
  Zr  Zr27  1  0.10184728  0.70140159  0.50560595  1
  Zr  Zr28  1  0.50220380  0.29443689  0.30595638  1
  Zr  Zr29  1  0.30932099  0.49780153  0.09664640  1
  Zr  Zr30  1  0.30153513  0.90550169  0.69762101  1
  Zr  Zr31  1  0.49719764  0.50555835  0.29872883  1
  Zr  Zr32  1  0.50528649  0.49812380  0.68826370  1
  Zr  Zr33  1  0.69449083  0.89165452  0.09951102  1
  Zr  Zr34  1  0.49865376  0.68808481  0.50059045  1
  Zr  Zr35  1  0.09542073  0.09437983  0.29592126  1
  Zr  Zr36  1  0.90482868  0.69718912  0.49495758  1
  Zr  Zr37  1  0.50143438  0.09856498  0.70450428  1
  Zr  Zr38  1  0.70453025  0.70185127  0.28735729  1
  Zr  Zr39  1  0.29525321  0.90344676  0.88963904  1
  Zr  Zr40  1  0.29779302  0.89865794  0.50502785  1
  Zr  Zr41  1  0.09123271  0.29755154  0.10318582  1
  Zr  Zr42  1  0.09861674  0.49569831  0.29701681  1
  Zr  Zr43  1  0.10005510  0.30157494  0.50431986  1
  Zr  Zr44  1  0.30368228  0.70202417  0.50112901  1
  Zr  Zr45  1  0.68844310  0.89843207  0.29334841  1
  Zr  Zr46  1  0.50695559  0.29987480  0.69692150  1
  Zr  Zr47  1  0.29829035  0.29820745  0.50049788  1
  Zr  Zr48  1  0.90106150  0.90537159  0.29966478  1
  Zr  Zr49  1  0.09527878  0.70245213  0.10355832  1
  Sc  Sc50  1  0.90139657  0.29912876  0.90247778  1
  Sc  Sc51  1  0.29699093  0.70555985  0.69398239  1
  Sc  Sc52  1  0.89987254  0.50199051  0.50570477  1
  Sc  Sc53  1  0.90246352  0.48657088  0.09726871  1
  Sc  Sc54  1  0.90654952  0.49218685  0.89506886  1
  Sc  Sc55  1  0.50100043  0.50117157  0.91820440  1
  Sc  Sc56  1  0.29078159  0.10124985  0.29683642  1
  Sc  Sc57  1  0.89867381  0.10935958  0.70994792  1
  Sc  Sc58  1  0.70256342  0.50311493  0.50390483  1
  Sc  Sc59  1  0.89912791  0.10058591  0.30912102  1
  Sc  Sc60  1  0.50615404  0.70395363  0.30454236  1
  Sc  Sc61  1  0.69073043  0.88796530  0.90514147  1
  Sc  Sc62  1  0.09125700  0.09823504  0.88860268  1
  Sc  Sc63  1  0.08796171  0.90411732  0.10547885  1
  Sc  Sc64  1  0.49667181  0.90463443  0.89970856  1
  Sc  Sc65  1  0.70281778  0.11020188  0.30750497  1
  Sc  Sc66  1  0.50580658  0.29754189  0.90640883  1
  Sc  Sc67  1  0.70290304  0.69224508  0.49086485  1
  Sc  Sc68  1  0.49974401  0.10155953  0.09165467  1
  Sc  Sc69  1  0.10562338  0.91092393  0.49771487  1
  Sc  Sc70  1  0.88281814  0.90147684  0.69497768  1
  Sc  Sc71  1  0.90473496  0.10920270  0.89982789  1
  Sc  Sc72  1  0.90178495  0.89455185  0.09590821  1
  Sc  Sc73  1  0.90014450  0.70758678  0.10893046  1
  Sc  Sc74  1  0.90576915  0.50679730  0.30001141  1
  Sc  Sc75  1  0.30183981  0.30002469  0.10554312  1
  Sc  Sc76  1  0.11133794  0.91321792  0.70253429  1
  Sc  Sc77  1  0.09572532  0.30327989  0.89522143  1
  Sc  Sc78  1  0.89131705  0.91050542  0.49850614  1
  Sc  Sc79  1  0.51243060  0.10214255  0.29276690  1
  Sc  Sc80  1  0.90855981  0.29675910  0.49717843  1
  Sc  Sc81  1  0.90078019  0.30553431  0.70889086  1
  Sc  Sc82  1  0.49176925  0.29830677  0.50274343  1
  Sc  Sc83  1  0.70453471  0.91441368  0.50448798  1
  Sc  Sc84  1  0.10117741  0.30174596  0.30192604  1
  Sc  Sc85  1  0.89242078  0.70634091  0.89811353  1
  Sc  Sc86  1  0.70026588  0.49227672  0.90318931  1
  Sc  Sc87  1  0.50235466  0.29239334  0.10078625  1
  Sc  Sc88  1  0.50716116  0.89526456  0.49707080  1
  Sc  Sc89  1  0.50175358  0.68919549  0.09553415  1
  Sc  Sc90  1  0.30395968  0.89852172  0.29126753  1
  Sc  Sc91  1  0.31063303  0.49645225  0.49875496  1
  Sc  Sc92  1  0.69652657  0.49506523  0.10506940  1
  Sc  Sc93  1  0.29723244  0.70023363  0.88835862  1
  Sc  Sc94  1  0.49922982  0.90493547  0.70149231  1
  Sc  Sc95  1  0.90301973  0.69643085  0.29811551  1
  Sc  Sc96  1  0.29373939  0.09470100  0.70170640  1
  Sc  Sc97  1  0.09886935  0.90756109  0.29972085  1
  Sc  Sc98  1  0.10352936  0.68791018  0.69836275  1
  Sc  Sc99  1  0.30508556  0.10168133  0.10360317  1
  Nb  Nb100  1  0.29197151  0.49298818  0.70571820  1
  Nb  Nb101  1  0.29618499  0.49750388  0.89836744  1
  Nb  Nb102  1  0.71009583  0.70748816  0.09472955  1
  Nb  Nb103  1  0.91132889  0.50255704  0.69833493  1
  Nb  Nb104  1  0.69092237  0.09755564  0.90130181  1
  Nb  Nb105  1  0.50573751  0.10523100  0.90336883  1
  Nb  Nb106  1  0.10171143  0.09956798  0.10100006  1
  Nb  Nb107  1  0.69758021  0.89924897  0.69699865  1
  Nb  Nb108  1  0.69976706  0.29992741  0.30078797  1
  Nb  Nb109  1  0.49646670  0.49553472  0.10361910  1
  Nb  Nb110  1  0.10483835  0.50422166  0.89283432  1
  Nb  Nb111  1  0.09717882  0.10602579  0.69845769  1
  Nb  Nb112  1  0.29327097  0.70259211  0.09618298  1
  Nb  Nb113  1  0.50234476  0.90123223  0.29342872  1
  Nb  Nb114  1  0.30079501  0.30145454  0.70332300  1
  Nb  Nb115  1  0.90581475  0.91033035  0.90443316  1
  Nb  Nb116  1  0.50067790  0.69864951  0.89680911  1
  Nb  Nb117  1  0.50124913  0.90480896  0.11257134  1
  Nb  Nb118  1  0.09559403  0.49961387  0.70741682  1
  Nb  Nb119  1  0.89010415  0.09890336  0.49808967  1
  Nb  Nb120  1  0.09366225  0.90414091  0.90172821  1
  Nb  Nb121  1  0.30387717  0.30502690  0.30775790  1
  Nb  Nb122  1  0.50641589  0.49942450  0.49647201  1
  Nb  Nb123  1  0.70998139  0.09895895  0.50083138  1
  Nb  Nb124  1  0.70059054  0.29973341  0.70157397  1
  Nb  Nb125  1  0.39910910  0.59011559  0.80093063  1
  Nb  Nb126  1  0.19948678  0.59994774  -0.00095247  1
  Nb  Nb127  1  0.00009092  0.80822861  0.60487611  1
  Nb  Nb128  1  0.60907050  0.79756365  0.60515130  1
  Nb  Nb129  1  0.79645550  0.00161067  0.19345172  1
  Nb  Nb130  1  0.79775985  0.00032004  -0.00330490  1
  Nb  Nb131  1  0.79219742  0.00035746  0.80966486  1
  Nb  Nb132  1  0.00154555  0.59877268  -0.00321539  1
  Nb  Nb133  1  0.79540545  0.20034811  0.60156452  1
  Nb  Nb134  1  0.19830459  0.80321898  -0.00251861  1
  Nb  Nb135  1  0.39670644  0.40219978  0.79950863  1
  Nb  Nb136  1  0.19306499  -0.00084743  -0.00109685  1
  Nb  Nb137  1  0.60187171  0.40105664  0.39930986  1
  Nb  Nb138  1  0.20019630  0.59996891  0.39665448  1
  Nb  Nb139  1  0.20240092  0.59869837  0.19695525  1
  Nb  Nb140  1  -0.00366427  0.00769878  0.60222853  1
  Nb  Nb141  1  0.79809680  0.80219012  0.39452585  1
  Nb  Nb142  1  -0.00168471  0.81010250  0.79599556  1
  Nb  Nb143  1  0.39497660  0.79723683  0.00052312  1
  Nb  Nb144  1  0.19458175  0.19285176  0.00165137  1
  Nb  Nb145  1  0.40079289  0.20534813  0.79839065  1
  Nb  Nb146  1  0.20051949  0.79499773  0.39929082  1
  Nb  Nb147  1  0.40610008  -0.00270063  0.39476125  1
  Nb  Nb148  1  0.80079756  0.60286505  0.00348056  1
  Nb  Nb149  1  0.79522616  0.39697514  0.39540843  1
  Pd  Pd150  1  0.60846641  0.59612480  0.00865765  1
  Pd  Pd151  1  0.40059782  0.19707612  0.20606135  1
  Pd  Pd152  1  0.39766575  0.40026198  0.60138128  1
  Pd  Pd153  1  0.61413916  0.60589805  0.60171090  1
  Pd  Pd154  1  0.60157014  0.60501877  0.19173109  1
  Pd  Pd155  1  0.20794401  0.58983507  0.59688548  1
  Pd  Pd156  1  0.60820133  0.79762246  0.40844211  1
  Pd  Pd157  1  0.19107164  0.80136150  0.20292357  1
  Pd  Pd158  1  0.40325569  0.01158952  0.20674194  1
  Pd  Pd159  1  0.79800237  0.19352010  -0.00376700  1
  Pd  Pd160  1  0.80506721  0.40648126  0.20681533  1
  Pd  Pd161  1  0.80259475  0.81255278  0.81003998  1
  Pd  Pd162  1  0.80314233  0.58947310  0.81113545  1
  Pd  Pd163  1  0.39278905  0.59523893  0.60824263  1
  Pd  Pd164  1  -0.00963966  0.40052186  0.39642735  1
  Pd  Pd165  1  0.81034190  0.39179233  0.59440741  1
  Pd  Pd166  1  0.60462736  0.19961154  0.59842932  1
  Pd  Pd167  1  0.59205453  0.40369947  0.80515502  1
  Pd  Pd168  1  0.39255441  0.60807388  -0.00911971  1
  Pd  Pd169  1  0.19565864  0.39587093  0.00089396  1
  Pd  Pd170  1  -0.01002351  -0.00466508  0.78746092  1
  Pd  Pd171  1  -0.00093778  0.81393468  0.40839884  1
  Pd  Pd172  1  -0.01037622  0.20018407  0.60529249  1
  Pd  Pd173  1  0.58168237  0.80186065  0.00597554  1
  Pd  Pd174  1  0.19017454  0.80225405  0.79376721  1
  Pd  Pd175  1  0.41314698  0.80296259  0.60320787  1
  Pd  Pd176  1  0.20049869  0.20702988  0.19954530  1
  Pd  Pd177  1  0.41007558  0.79031573  0.19164947  1
  Pd  Pd178  1  0.80529175  0.40202314  0.80230648  1
  Pd  Pd179  1  0.39255328  0.19256358  0.60703649  1
  Pd  Pd180  1  0.80833751  0.59303432  0.18893239  1
  Pd  Pd181  1  0.60450331  0.39398939  0.00806452  1
  Pd  Pd182  1  0.60055453  0.00326781  0.39830276  1
  Pd  Pd183  1  0.20637051  0.19542773  0.60194145  1
  Pd  Pd184  1  0.00044937  0.79361314  -0.00701138  1
  Pd  Pd185  1  0.40248519  0.39092604  -0.00341602  1
  Pd  Pd186  1  0.19933437  0.40557661  0.40748141  1
  Pd  Pd187  1  0.59402491  0.39500528  0.20335614  1
  Pd  Pd188  1  0.39861627  0.80871171  0.39786551  1
  Pd  Pd189  1  0.40459674  0.79552701  0.80182302  1
  Pd  Pd190  1  0.40075498  -0.00566292  0.00057359  1
  Pd  Pd191  1  0.39913610  0.18740035  0.39438699  1
  Pd  Pd192  1  0.40713559  0.00064425  0.59127845  1
  Pd  Pd193  1  0.79756740  0.79439790  0.58755856  1
  Pd  Pd194  1  0.40792594  0.38995862  0.19962262  1
  Pd  Pd195  1  0.19690836  0.20291029  0.39331134  1
  Pd  Pd196  1  0.59406629  0.58554035  0.80644359  1
  Pd  Pd197  1  0.39876306  0.60636122  0.19885708  1
  Pd  Pd198  1  0.79759364  0.60253804  0.60226598  1
  Pd  Pd199  1  0.60200990  -0.00856331  0.80622019  1
  Rh  Rh200  1  0.80196560  0.20861617  0.40876941  1
  Rh  Rh201  1  -0.00046976  0.19856954  0.39639830  1
  Rh  Rh202  1  -0.00886528  0.00247261  0.19732265  1
  Rh  Rh203  1  0.19653971  0.40081223  0.79850952  1
  Rh  Rh204  1  0.60201816  0.20290813  0.40523311  1
  Rh  Rh205  1  0.59622142  -0.00677293  -0.00014787  1
  Rh  Rh206  1  0.20832421  0.59739673  0.79873981  1
  Rh  Rh207  1  0.59348763  0.80580032  0.79379691  1
  Rh  Rh208  1  0.59539523  0.20337050  0.80308999  1
  Rh  Rh209  1  0.19651233  0.00841377  0.80457493  1
  Rh  Rh210  1  0.19046327  0.00953002  0.59978503  1
  Rh  Rh211  1  0.60362313  0.20184663  0.19681654  1
  Rh  Rh212  1  0.80466648  0.80929578  0.20639814  1
  Rh  Rh213  1  0.21331429  -0.01124801  0.39120074  1
  Rh  Rh214  1  0.80538377  0.59979912  0.39713937  1
  Rh  Rh215  1  0.40987483  0.39986919  0.40186288  1
  Rh  Rh216  1  0.19134158  0.80553060  0.59938678  1
  Rh  Rh217  1  0.00399381  0.19795701  0.20639703  1
  Rh  Rh218  1  0.79956343  0.40298814  -0.00214942  1
  Rh  Rh219  1  0.60260718  0.39990433  0.59194621  1
  Rh  Rh220  1  0.00958517  0.19905420  -0.00587738  1
  Rh  Rh221  1  0.19782613  -0.00160317  0.19301339  1
  Rh  Rh222  1  0.39846370  0.59743838  0.39816071  1
  Rh  Rh223  1  -0.00202018  0.39714987  0.60796350  1
  Rh  Rh224  1  0.00452204  0.40479675  -0.00888564  1
  Rh  Rh225  1  0.79624007  0.18971740  0.19790523  1
  Rh  Rh226  1  0.79062235  -0.00611903  0.38585804  1
  Rh  Rh227  1  -0.00674892  0.39354696  0.20698518  1
  Rh  Rh228  1  0.00333122  0.39927308  0.79783860  1
  Rh  Rh229  1  -0.00172418  0.60570722  0.60424318  1
  Rh  Rh230  1  -0.00009538  0.00823403  0.00490461  1
  Rh  Rh231  1  0.40535863  0.00994154  0.80221157  1
  Rh  Rh232  1  0.00052967  0.59458635  0.18744143  1
  Rh  Rh233  1  0.79204932  0.19547593  0.79684821  1
  Rh  Rh234  1  0.20590321  0.39677681  0.19955277  1
  Rh  Rh235  1  0.80536036  0.80090302  -0.00402307  1
  Rh  Rh236  1  0.00517448  0.59032984  0.40639698  1
  Rh  Rh237  1  0.59862304  0.59673007  0.39819930  1
  Rh  Rh238  1  0.39355650  0.20437154  -0.00588630  1
  Rh  Rh239  1  0.59744968  -0.00566582  0.59715400  1
  Rh  Rh240  1  0.60261990  0.00556046  0.19706773  1
  Rh  Rh241  1  0.80488002  0.01517683  0.61407959  1
  Rh  Rh242  1  0.60545172  0.20721030  0.00048917  1
  Rh  Rh243  1  -0.00712242  0.60372870  0.80221514  1
  Rh  Rh244  1  -0.00161868  0.80612045  0.20723524  1
  Rh  Rh245  1  0.00502650  0.20905510  0.79662980  1
  Rh  Rh246  1  -0.00358922  0.00352622  0.41048145  1
  Rh  Rh247  1  0.20170261  0.19454466  0.80358604  1
  Rh  Rh248  1  0.59081464  0.78969290  0.19112310  1
  Rh  Rh249  1  0.20305199  0.40308066  0.59939328  1
