# generated using pymatgen
data_ZrScNbPdRh
_symmetry_space_group_name_H-M   'P 1'
_cell_length_a   16.55636284
_cell_length_b   16.55850241
_cell_length_c   16.55779262
_cell_angle_alpha   90.00293368
_cell_angle_beta   89.97655653
_cell_angle_gamma   90.00443425
_symmetry_Int_Tables_number   1
_chemical_formula_structural   ZrScNbPdRh
_chemical_formula_sum   'Zr50 Sc50 Nb50 Pd50 Rh50'
_cell_volume   4539.29483773
_cell_formula_units_Z   50
loop_
 _symmetry_equiv_pos_site_id
 _symmetry_equiv_pos_as_xyz
  1  'x, y, z'
loop_
 _atom_site_type_symbol
 _atom_site_label
 _atom_site_symmetry_multiplicity
 _atom_site_fract_x
 _atom_site_fract_y
 _atom_site_fract_z
 _atom_site_occupancy
  Zr  Zr0  1  0.10048025  0.49707420  0.89212847  1
  Zr  Zr1  1  0.90095005  0.88476853  0.50097283  1
  Zr  Zr2  1  0.49579963  0.89688937  0.10925991  1
  Zr  Zr3  1  0.70670519  0.09724751  0.50545040  1
  Zr  Zr4  1  0.50082411  0.89693793  0.31070627  1
  Zr  Zr5  1  0.89834753  0.69707754  0.30779963  1
  Zr  Zr6  1  0.29450901  0.30031734  0.69525924  1
  Zr  Zr7  1  0.70087852  0.50174609  0.09523307  1
  Zr  Zr8  1  0.49382450  0.70395085  0.30414260  1
  Zr  Zr9  1  0.10007515  0.31203685  0.69366512  1
  Zr  Zr10  1  0.89743053  0.50305009  0.09031215  1
  Zr  Zr11  1  0.90346936  0.29682714  0.50324388  1
  Zr  Zr12  1  0.49837009  0.50484760  0.09748644  1
  Zr  Zr13  1  0.09731505  0.89730871  0.09751141  1
  Zr  Zr14  1  0.10017750  0.90352144  0.49879121  1
  Zr  Zr15  1  0.90693068  0.10064366  0.89305779  1
  Zr  Zr16  1  0.29887022  0.49730414  0.90413169  1
  Zr  Zr17  1  0.30239799  0.89954113  0.70824872  1
  Zr  Zr18  1  0.50618403  0.50542055  0.71076674  1
  Zr  Zr19  1  0.70165937  0.29433050  0.29336525  1
  Zr  Zr20  1  0.10875276  0.90732886  0.30114636  1
  Zr  Zr21  1  0.30956685  0.90229873  0.29687888  1
  Zr  Zr22  1  0.50253658  0.30163689  0.10359518  1
  Zr  Zr23  1  0.49433752  0.09539171  0.30498939  1
  Zr  Zr24  1  0.49825125  0.30370817  0.29843310  1
  Zr  Zr25  1  0.49246504  0.30193215  0.48984449  1
  Zr  Zr26  1  0.90361425  0.70197129  0.68781856  1
  Zr  Zr27  1  0.49527095  0.10000185  0.09016756  1
  Zr  Zr28  1  0.70157805  0.88915636  0.89963222  1
  Zr  Zr29  1  0.31162179  0.10240093  0.90523504  1
  Zr  Zr30  1  0.29641927  0.09717426  0.30282856  1
  Zr  Zr31  1  0.09578061  0.10457110  0.30596173  1
  Zr  Zr32  1  0.69429740  0.10221340  0.89478771  1
  Zr  Zr33  1  0.30318030  0.30560142  0.30387248  1
  Zr  Zr34  1  0.10908198  0.70180891  0.90683207  1
  Zr  Zr35  1  0.90427118  0.90072884  0.90152439  1
  Zr  Zr36  1  0.09837827  0.30321901  0.29689481  1
  Zr  Zr37  1  0.07869145  0.70306941  0.50680859  1
  Zr  Zr38  1  0.10449374  0.69559499  0.28778707  1
  Zr  Zr39  1  0.70582158  0.30503095  0.49223170  1
  Zr  Zr40  1  0.29359245  0.10602225  0.50098205  1
  Zr  Zr41  1  0.89546536  0.89893285  0.69584995  1
  Zr  Zr42  1  0.91153865  0.69412886  0.10648987  1
  Zr  Zr43  1  0.89903929  0.29212449  0.30454686  1
  Zr  Zr44  1  0.90338804  0.30198739  0.89319307  1
  Zr  Zr45  1  0.50326430  0.51677707  0.49878490  1
  Zr  Zr46  1  0.90268098  0.10756787  0.49892390  1
  Zr  Zr47  1  0.89731207  0.10786131  0.69482565  1
  Zr  Zr48  1  0.09716627  0.69699176  0.70622670  1
  Zr  Zr49  1  0.49891269  0.69447214  0.10788591  1
  Sc  Sc50  1  0.09986409  0.29834039  0.50397975  1
  Sc  Sc51  1  0.29990333  0.70142791  0.89316024  1
  Sc  Sc52  1  0.10121206  0.29735656  0.09801892  1
  Sc  Sc53  1  0.90512942  0.50306915  0.48928499  1
  Sc  Sc54  1  0.69893963  0.89413363  0.10242215  1
  Sc  Sc55  1  0.09959008  0.49115554  0.49808614  1
  Sc  Sc56  1  0.10325442  0.49566629  0.29982455  1
  Sc  Sc57  1  0.89766768  0.89662267  0.10133208  1
  Sc  Sc58  1  0.49296573  0.50119732  0.29213045  1
  Sc  Sc59  1  0.91075173  0.50187584  0.70852276  1
  Sc  Sc60  1  0.70426216  0.30746035  0.89290678  1
  Sc  Sc61  1  0.50173421  0.69363962  0.89614918  1
  Sc  Sc62  1  0.68956460  0.89434799  0.50557770  1
  Sc  Sc63  1  0.50116173  0.09762956  0.71228609  1
  Sc  Sc64  1  0.29889101  0.50368667  0.30302537  1
  Sc  Sc65  1  0.29861757  0.50444207  0.70310512  1
  Sc  Sc66  1  0.29926679  0.49737651  0.49443063  1
  Sc  Sc67  1  0.90571551  0.50265980  0.29526710  1
  Sc  Sc68  1  0.89678882  0.10040414  0.10499091  1
  Sc  Sc69  1  0.29848091  0.90624960  0.10416615  1
  Sc  Sc70  1  0.29705527  0.09217635  0.70149073  1
  Sc  Sc71  1  0.29837463  0.09715680  0.09811711  1
  Sc  Sc72  1  0.30856880  0.50046021  0.10020289  1
  Sc  Sc73  1  0.30126507  0.90095793  0.89367171  1
  Sc  Sc74  1  0.50169420  0.28552931  0.89721017  1
  Sc  Sc75  1  0.29794942  0.30159606  0.09422917  1
  Sc  Sc76  1  0.29205856  0.30446621  0.49654562  1
  Sc  Sc77  1  0.89431075  0.89344195  0.29784610  1
  Sc  Sc78  1  0.70172144  0.10433702  0.10807810  1
  Sc  Sc79  1  0.69351713  0.69802551  0.09856720  1
  Sc  Sc80  1  0.70176349  0.89415528  0.29727939  1
  Sc  Sc81  1  0.50042788  0.69429421  0.70572373  1
  Sc  Sc82  1  0.70409631  0.10197599  0.69695702  1
  Sc  Sc83  1  0.10050225  0.90742151  0.90081100  1
  Sc  Sc84  1  0.10971571  0.90926286  0.70811010  1
  Sc  Sc85  1  0.90604413  0.30833943  0.09020598  1
  Sc  Sc86  1  0.49868001  0.08529215  0.49783131  1
  Sc  Sc87  1  0.10321247  0.10088835  0.70275094  1
  Sc  Sc88  1  0.69422305  0.69976656  0.30062777  1
  Sc  Sc89  1  0.09410625  0.50794526  0.09632573  1
  Sc  Sc90  1  0.50081658  0.09536103  0.90153700  1
  Sc  Sc91  1  0.70167275  0.30110585  0.71217664  1
  Sc  Sc92  1  0.69508373  0.89113331  0.69648235  1
  Sc  Sc93  1  0.09498541  0.09630077  0.90598428  1
  Sc  Sc94  1  0.50028435  0.90234965  0.89794264  1
  Sc  Sc95  1  0.30062684  0.91210977  0.50426731  1
  Sc  Sc96  1  0.70783170  0.50162996  0.88959698  1
  Sc  Sc97  1  0.89068896  0.69767149  0.90014266  1
  Sc  Sc98  1  0.31235151  0.68633575  0.49179480  1
  Sc  Sc99  1  0.69448156  0.50249913  0.30528546  1
  Nb  Nb100  1  0.09989712  0.09769213  0.50163981  1
  Nb  Nb101  1  0.70086528  0.30088277  0.09912520  1
  Nb  Nb102  1  0.29909928  0.70003955  0.29695279  1
  Nb  Nb103  1  0.49909538  0.49681288  0.90038319  1
  Nb  Nb104  1  0.10260285  0.50513308  0.69565277  1
  Nb  Nb105  1  0.10792110  0.70097302  0.09823079  1
  Nb  Nb106  1  0.71115475  0.09923083  0.29634272  1
  Nb  Nb107  1  0.50815631  0.70480149  0.50058485  1
  Nb  Nb108  1  0.50356848  0.89051242  0.50701377  1
  Nb  Nb109  1  0.89762019  0.29604191  0.69598280  1
  Nb  Nb110  1  0.09750184  0.09260968  0.10507238  1
  Nb  Nb111  1  0.30136750  0.70551903  0.70225974  1
  Nb  Nb112  1  0.69999863  0.49830270  0.69925446  1
  Nb  Nb113  1  0.10784307  0.30296087  0.90059373  1
  Nb  Nb114  1  0.70154227  0.69279098  0.70870917  1
  Nb  Nb115  1  0.50209615  0.30227187  0.70005676  1
  Nb  Nb116  1  0.29178486  0.69871895  0.09954314  1
  Nb  Nb117  1  0.68694155  0.68963988  0.50230572  1
  Nb  Nb118  1  0.70199577  0.70610408  0.88567756  1
  Nb  Nb119  1  0.89208419  0.10073114  0.29880895  1
  Nb  Nb120  1  0.69617014  0.50293782  0.50448821  1
  Nb  Nb121  1  0.49447087  0.89566441  0.69397314  1
  Nb  Nb122  1  0.89724384  0.48892316  0.91045788  1
  Nb  Nb123  1  0.29305556  0.30292290  0.90044016  1
  Nb  Nb124  1  0.89426181  0.69726268  0.50170698  1
  Nb  Nb125  1  -0.00139237  0.00334683  0.59532125  1
  Nb  Nb126  1  0.59841553  0.00252420  0.20497871  1
  Nb  Nb127  1  0.60115697  0.40252516  0.60120427  1
  Nb  Nb128  1  0.79503652  0.59836600  0.59726578  1
  Nb  Nb129  1  0.20328065  0.79374897  0.40166373  1
  Nb  Nb130  1  0.40779975  0.40011454  0.60494695  1
  Nb  Nb131  1  -0.00045372  0.00358548  0.20487748  1
  Nb  Nb132  1  0.79823470  0.00418288  -0.00562279  1
  Nb  Nb133  1  0.20681068  0.79257135  0.59837225  1
  Nb  Nb134  1  0.39938668  0.20088956  0.20219432  1
  Nb  Nb135  1  0.60462577  0.19455521  0.39918278  1
  Nb  Nb136  1  0.59919986  0.40212282  -0.00239951  1
  Nb  Nb137  1  0.80185966  0.00145482  0.40041014  1
  Nb  Nb138  1  0.20005465  0.20833912  0.80797126  1
  Nb  Nb139  1  -0.00054374  0.79926692  0.80095188  1
  Nb  Nb140  1  0.59438686  0.20801213  0.59624137  1
  Nb  Nb141  1  0.79955210  0.20030787  -0.00368601  1
  Nb  Nb142  1  0.39805721  0.79513007  0.00580515  1
  Nb  Nb143  1  0.40181584  0.79719565  0.59963565  1
  Nb  Nb144  1  0.40463341  0.20378215  0.60085394  1
  Nb  Nb145  1  0.79812592  0.39827951  0.19636240  1
  Nb  Nb146  1  0.80001829  -0.00264273  0.80285084  1
  Nb  Nb147  1  0.79737438  0.40728167  0.60273067  1
  Nb  Nb148  1  0.19601720  0.60633033  0.60205923  1
  Nb  Nb149  1  0.39965898  0.39528610  0.80215233  1
  Pd  Pd150  1  0.00017012  0.39827542  0.79887065  1
  Pd  Pd151  1  0.00135224  0.80450099  0.20542802  1
  Pd  Pd152  1  0.01286231  0.20756173  0.79344714  1
  Pd  Pd153  1  -0.00578838  0.40312488  0.19631065  1
  Pd  Pd154  1  0.79769688  0.78871523  0.19548243  1
  Pd  Pd155  1  0.20570607  0.80484599  0.20203656  1
  Pd  Pd156  1  0.60768768  0.59739736  -0.01226700  1
  Pd  Pd157  1  -0.00694955  0.60495365  0.81241640  1
  Pd  Pd158  1  0.59109325  0.80085999  0.79541990  1
  Pd  Pd159  1  0.59531986  0.40357946  0.40032613  1
  Pd  Pd160  1  0.39445175  0.60897741  -0.00528116  1
  Pd  Pd161  1  0.80918341  0.59455506  0.79554003  1
  Pd  Pd162  1  -0.00901186  0.40739225  0.59767073  1
  Pd  Pd163  1  0.60557218  -0.00608629  0.79265896  1
  Pd  Pd164  1  0.19398433  0.20686744  0.40121755  1
  Pd  Pd165  1  0.59314425  0.19007396  0.20527436  1
  Pd  Pd166  1  0.60540213  0.40859131  0.19590726  1
  Pd  Pd167  1  0.20958183  0.80856283  -0.00281204  1
  Pd  Pd168  1  0.79167514  0.60916491  -0.00528585  1
  Pd  Pd169  1  0.59065343  0.79496571  -0.00127199  1
  Pd  Pd170  1  0.19376369  0.40789281  0.01067097  1
  Pd  Pd171  1  0.20644386  0.19854334  0.19613059  1
  Pd  Pd172  1  0.78752324  0.79993997  0.40709942  1
  Pd  Pd173  1  0.00769661  0.59785798  0.39465830  1
  Pd  Pd174  1  0.59591644  0.00672150  0.60874844  1
  Pd  Pd175  1  0.79520264  0.59792176  0.40320129  1
  Pd  Pd176  1  -0.00133404  0.19950023  0.00385796  1
  Pd  Pd177  1  0.00263852  0.60267719  -0.00837984  1
  Pd  Pd178  1  0.40867328  0.39071856  -0.00698906  1
  Pd  Pd179  1  0.20328740  0.40600897  0.19362497  1
  Pd  Pd180  1  0.00667166  0.79874814  0.38656399  1
  Pd  Pd181  1  -0.01256149  -0.00080889  0.39811248  1
  Pd  Pd182  1  0.61227783  -0.00063425  0.39504270  1
  Pd  Pd183  1  0.19668416  0.19300422  -0.00128776  1
  Pd  Pd184  1  0.78454804  0.78971142  0.59499536  1
  Pd  Pd185  1  0.20294378  -0.00153776  -0.00188284  1
  Pd  Pd186  1  0.20358872  0.58893494  0.19316244  1
  Pd  Pd187  1  0.20507959  0.59962674  0.79836249  1
  Pd  Pd188  1  0.79666080  0.59675213  0.20311109  1
  Pd  Pd189  1  0.60766667  0.20624891  -0.00323092  1
  Pd  Pd190  1  0.39335374  0.20275700  0.79450888  1
  Pd  Pd191  1  0.39199042  0.80442360  0.41248789  1
  Pd  Pd192  1  0.39533459  0.60013433  0.60538316  1
  Pd  Pd193  1  0.80168411  0.79528208  0.00733115  1
  Pd  Pd194  1  0.60789952  -0.00338465  0.00938068  1
  Pd  Pd195  1  -0.00410229  0.19740965  0.19358232  1
  Pd  Pd196  1  -0.00191253  0.79411058  -0.00531381  1
  Pd  Pd197  1  0.40325402  0.00246367  0.60263675  1
  Pd  Pd198  1  0.19051600  0.60623910  0.40930962  1
  Pd  Pd199  1  0.80467299  0.40967001  0.39480890  1
  Rh  Rh200  1  0.80603808  -0.00813497  0.59551411  1
  Rh  Rh201  1  0.39199587  0.60490945  0.20300194  1
  Rh  Rh202  1  0.59780755  0.59941974  0.20527251  1
  Rh  Rh203  1  -0.00661716  0.00174488  0.01630559  1
  Rh  Rh204  1  0.39688991  -0.00601356  0.40871948  1
  Rh  Rh205  1  0.19403095  0.00335478  0.19850191  1
  Rh  Rh206  1  0.79887199  0.19590937  0.80331769  1
  Rh  Rh207  1  0.78817742  0.21645110  0.60456424  1
  Rh  Rh208  1  0.39272621  0.39514224  0.19966669  1
  Rh  Rh209  1  0.79184253  0.39358956  0.00159129  1
  Rh  Rh210  1  0.01067287  0.19490690  0.60294327  1
  Rh  Rh211  1  0.40477856  0.59852444  0.39303744  1
  Rh  Rh212  1  0.40104845  0.41213147  0.40348292  1
  Rh  Rh213  1  0.19292381  0.80083029  0.79879411  1
  Rh  Rh214  1  -0.00693933  -0.00644225  0.78668512  1
  Rh  Rh215  1  0.81329904  0.40377188  0.79250122  1
  Rh  Rh216  1  0.80003327  -0.00472044  0.20067701  1
  Rh  Rh217  1  0.01393695  0.81577678  0.61424189  1
  Rh  Rh218  1  0.20423183  0.01572497  0.81298674  1
  Rh  Rh219  1  0.59535330  0.78798508  0.60976876  1
  Rh  Rh220  1  0.00530281  0.20387196  0.40209360  1
  Rh  Rh221  1  0.00968116  0.40145066  -0.00547728  1
  Rh  Rh222  1  0.00119948  0.39368856  0.39746619  1
  Rh  Rh223  1  0.39074871  0.79142499  0.19219749  1
  Rh  Rh224  1  0.40619260  0.79960867  0.80128379  1
  Rh  Rh225  1  0.20117697  0.19370004  0.60674056  1
  Rh  Rh226  1  0.20220657  0.59629975  0.00183832  1
  Rh  Rh227  1  0.19660738  0.39660491  0.39695048  1
  Rh  Rh228  1  -0.00292794  0.58887946  0.59485930  1
  Rh  Rh229  1  0.60384868  0.60235359  0.61044934  1
  Rh  Rh230  1  0.39532089  0.59413311  0.80518637  1
  Rh  Rh231  1  0.40373597  -0.00251639  0.80183408  1
  Rh  Rh232  1  0.00386589  0.59804493  0.20037102  1
  Rh  Rh233  1  0.59319377  0.39980736  0.80623328  1
  Rh  Rh234  1  0.59444166  0.60242723  0.39081116  1
  Rh  Rh235  1  0.20668824  0.41590104  0.59986300  1
  Rh  Rh236  1  0.39850829  -0.01199352  -0.00149925  1
  Rh  Rh237  1  0.40123750  0.19316808  0.40195560  1
  Rh  Rh238  1  0.81061013  0.21242459  0.18684472  1
  Rh  Rh239  1  0.40571073  0.00990236  0.19606602  1
  Rh  Rh240  1  0.79564716  0.19317378  0.40215729  1
  Rh  Rh241  1  0.19217572  -0.00010488  0.59851442  1
  Rh  Rh242  1  0.59956090  0.80394716  0.20323686  1
  Rh  Rh243  1  0.39725719  0.20677258  0.00608758  1
  Rh  Rh244  1  0.60421624  0.79748743  0.40100024  1
  Rh  Rh245  1  0.20631816  -0.00180279  0.40213707  1
  Rh  Rh246  1  0.20320382  0.40002376  0.79524102  1
  Rh  Rh247  1  0.80544979  0.80276673  0.79628694  1
  Rh  Rh248  1  0.60251207  0.19895392  0.79507353  1
  Rh  Rh249  1  0.60606641  0.59961618  0.80729580  1
