# generated using pymatgen
data_ZrScNbPdRh
_symmetry_space_group_name_H-M   'P 1'
_cell_length_a   16.56099772
_cell_length_b   16.56021760
_cell_length_c   16.55910501
_cell_angle_alpha   89.99160986
_cell_angle_beta   89.94412414
_cell_angle_gamma   89.97628544
_symmetry_Int_Tables_number   1
_chemical_formula_structural   ZrScNbPdRh
_chemical_formula_sum   'Zr50 Sc50 Nb50 Pd50 Rh50'
_cell_volume   4541.39364985
_cell_formula_units_Z   50
loop_
 _symmetry_equiv_pos_site_id
 _symmetry_equiv_pos_as_xyz
  1  'x, y, z'
loop_
 _atom_site_type_symbol
 _atom_site_label
 _atom_site_symmetry_multiplicity
 _atom_site_fract_x
 _atom_site_fract_y
 _atom_site_fract_z
 _atom_site_occupancy
  Zr  Zr0  1  0.70229489  0.91386818  0.09465715  1
  Zr  Zr1  1  0.09203056  0.30075982  0.31062646  1
  Zr  Zr2  1  0.69597720  0.70008212  0.90211422  1
  Zr  Zr3  1  0.49589951  0.90426996  0.70241733  1
  Zr  Zr4  1  0.29719970  0.69553426  0.70695186  1
  Zr  Zr5  1  0.90093647  0.49385815  0.70055150  1
  Zr  Zr6  1  0.09704080  0.70158615  0.89468197  1
  Zr  Zr7  1  0.29720256  0.29784371  0.69789007  1
  Zr  Zr8  1  0.90135548  0.70597099  0.08912330  1
  Zr  Zr9  1  0.49505656  0.29911859  0.30475281  1
  Zr  Zr10  1  0.69926467  0.29063079  0.50827182  1
  Zr  Zr11  1  0.50108045  0.90278807  0.50263303  1
  Zr  Zr12  1  0.09330247  0.49210544  0.89631145  1
  Zr  Zr13  1  0.89157013  0.90961328  0.71308343  1
  Zr  Zr14  1  0.09989837  0.89383514  0.50788520  1
  Zr  Zr15  1  0.70147091  0.90454376  0.49380308  1
  Zr  Zr16  1  0.30391460  0.91333718  0.09496997  1
  Zr  Zr17  1  0.29757589  0.90155290  0.89855431  1
  Zr  Zr18  1  0.69160802  0.49692196  0.89402588  1
  Zr  Zr19  1  0.69981287  0.70173615  0.29681226  1
  Zr  Zr20  1  0.50104664  0.70761950  0.28858706  1
  Zr  Zr21  1  0.89762991  0.70279213  0.29855401  1
  Zr  Zr22  1  0.49438691  0.70370760  0.69833180  1
  Zr  Zr23  1  0.29728938  0.68941619  0.50288459  1
  Zr  Zr24  1  0.29913994  0.10720552  0.30217427  1
  Zr  Zr25  1  0.09830672  0.90024128  0.70929587  1
  Zr  Zr26  1  0.69196510  0.69847155  0.70777937  1
  Zr  Zr27  1  0.70739916  0.49992940  0.70055521  1
  Zr  Zr28  1  0.30042006  0.10240802  0.50013016  1
  Zr  Zr29  1  0.49356476  0.68777948  0.89822374  1
  Zr  Zr30  1  0.30114507  0.10350540  0.69479074  1
  Zr  Zr31  1  0.50338000  0.30205297  0.50660807  1
  Zr  Zr32  1  0.70754385  0.49401801  0.50937084  1
  Zr  Zr33  1  0.90268435  0.49531749  0.89094398  1
  Zr  Zr34  1  0.30527489  0.69666924  0.10072010  1
  Zr  Zr35  1  0.70543891  0.70611789  0.49807315  1
  Zr  Zr36  1  0.69529399  0.69432079  0.10092098  1
  Zr  Zr37  1  0.09987235  0.49342097  0.69491701  1
  Zr  Zr38  1  0.89673546  0.69160076  0.70098819  1
  Zr  Zr39  1  0.89774001  0.10098461  0.89451081  1
  Zr  Zr40  1  0.90161405  0.10316031  0.29928570  1
  Zr  Zr41  1  0.10568612  0.09816956  0.30431924  1
  Zr  Zr42  1  0.30194744  0.29471823  0.10264484  1
  Zr  Zr43  1  0.49624680  0.48714068  0.90727999  1
  Zr  Zr44  1  0.69502867  0.30233556  0.70140164  1
  Zr  Zr45  1  0.10760686  0.49607385  0.49485864  1
  Zr  Zr46  1  0.30167102  0.50463867  0.89544805  1
  Zr  Zr47  1  0.10274688  0.69929803  0.10108951  1
  Zr  Zr48  1  0.31243217  0.30082057  0.90293189  1
  Zr  Zr49  1  0.10239875  0.29677854  0.69962499  1
  Sc  Sc50  1  0.90421838  0.70629011  0.50291256  1
  Sc  Sc51  1  0.29861391  0.49931290  0.30936738  1
  Sc  Sc52  1  0.89752487  0.49799431  0.09046683  1
  Sc  Sc53  1  0.69524181  0.10394207  0.90569957  1
  Sc  Sc54  1  0.10364012  0.10911647  0.09901707  1
  Sc  Sc55  1  0.70912120  0.49438968  0.28610484  1
  Sc  Sc56  1  0.89369690  0.89497314  0.90320559  1
  Sc  Sc57  1  0.70127228  0.09201695  0.30119802  1
  Sc  Sc58  1  0.90326573  0.29538606  0.49508257  1
  Sc  Sc59  1  0.29550727  0.90917101  0.51449925  1
  Sc  Sc60  1  0.10092625  0.70299885  0.69178033  1
  Sc  Sc61  1  0.89005154  0.09849492  0.10146061  1
  Sc  Sc62  1  0.09853039  0.30546884  0.50296708  1
  Sc  Sc63  1  0.49361010  0.70071624  0.49743291  1
  Sc  Sc64  1  0.10148574  0.90013385  0.11188905  1
  Sc  Sc65  1  0.29048871  0.91667102  0.28885315  1
  Sc  Sc66  1  0.71011374  0.30441828  0.29266242  1
  Sc  Sc67  1  0.49963800  0.49776955  0.10051714  1
  Sc  Sc68  1  0.49726374  0.91577250  0.89415169  1
  Sc  Sc69  1  0.69577812  0.90538780  0.30297492  1
  Sc  Sc70  1  0.10026020  0.10965024  0.71183274  1
  Sc  Sc71  1  0.70240831  0.10074007  0.09775348  1
  Sc  Sc72  1  0.29261330  0.49932481  0.69700094  1
  Sc  Sc73  1  0.89984425  0.90567009  0.29691745  1
  Sc  Sc74  1  0.88647564  0.10389730  0.50129790  1
  Sc  Sc75  1  0.89706972  0.29011781  0.09858644  1
  Sc  Sc76  1  0.89740263  0.29784508  0.30036241  1
  Sc  Sc77  1  0.29884032  0.68914762  0.29843903  1
  Sc  Sc78  1  0.71282923  0.10109938  0.70449813  1
  Sc  Sc79  1  0.89440121  0.89600311  0.49343156  1
  Sc  Sc80  1  0.30703013  0.49951513  0.10547237  1
  Sc  Sc81  1  0.29678918  0.09862924  0.90902416  1
  Sc  Sc82  1  0.49575185  0.30402599  0.09125311  1
  Sc  Sc83  1  0.30538360  0.30089445  0.30362837  1
  Sc  Sc84  1  0.10781286  0.10765534  0.50158288  1
  Sc  Sc85  1  0.90669637  0.49220084  0.50773095  1
  Sc  Sc86  1  0.09307129  0.28949499  0.89712418  1
  Sc  Sc87  1  0.10864796  0.70368007  0.29463248  1
  Sc  Sc88  1  0.50108025  0.09511381  0.09075251  1
  Sc  Sc89  1  0.48708744  0.50298114  0.49991056  1
  Sc  Sc90  1  0.50717576  0.10990325  0.50029726  1
  Sc  Sc91  1  0.50115581  0.49524750  0.69703593  1
  Sc  Sc92  1  0.29960720  0.10215360  0.09875376  1
  Sc  Sc93  1  0.29788793  0.50038281  0.49848395  1
  Sc  Sc94  1  0.30256462  0.89756911  0.70136672  1
  Sc  Sc95  1  0.50626788  0.09962286  0.30630601  1
  Sc  Sc96  1  0.70290294  0.29786547  0.09879300  1
  Sc  Sc97  1  0.49049350  0.49472423  0.30139242  1
  Sc  Sc98  1  0.69742989  0.49441806  0.09803690  1
  Sc  Sc99  1  0.90271492  0.28950073  0.70286508  1
  Nb  Nb100  1  0.69848697  0.90259125  0.89303467  1
  Nb  Nb101  1  0.89870372  0.30064369  0.90159873  1
  Nb  Nb102  1  0.50628392  0.29031314  0.69642531  1
  Nb  Nb103  1  0.69463014  0.29835348  0.89964595  1
  Nb  Nb104  1  0.90214674  0.69618459  0.90478079  1
  Nb  Nb105  1  0.30356178  0.30222808  0.50020580  1
  Nb  Nb106  1  0.09659435  0.30721355  0.09613199  1
  Nb  Nb107  1  0.69695655  0.09501972  0.50063628  1
  Nb  Nb108  1  0.50326136  0.11011925  0.89586610  1
  Nb  Nb109  1  0.10051289  0.09084781  0.90074959  1
  Nb  Nb110  1  0.69513700  0.89855609  0.70959720  1
  Nb  Nb111  1  0.90337484  0.09624983  0.70139968  1
  Nb  Nb112  1  0.49876453  0.90493522  0.29795252  1
  Nb  Nb113  1  0.90390542  0.49680036  0.29827443  1
  Nb  Nb114  1  0.50578722  0.09683165  0.70356195  1
  Nb  Nb115  1  0.10178194  0.90794461  0.90003101  1
  Nb  Nb116  1  0.49988133  0.70794361  0.09929704  1
  Nb  Nb117  1  0.89827009  0.90436285  0.09877482  1
  Nb  Nb118  1  0.49806688  0.89947766  0.10562239  1
  Nb  Nb119  1  0.10165537  0.49925814  0.29977614  1
  Nb  Nb120  1  0.30065885  0.69804122  0.90122536  1
  Nb  Nb121  1  0.51031820  0.29265231  0.89948381  1
  Nb  Nb122  1  0.10248284  0.90752603  0.30667315  1
  Nb  Nb123  1  0.10303684  0.70203769  0.49704589  1
  Nb  Nb124  1  0.10090532  0.49828597  0.09787545  1
  Nb  Nb125  1  0.00174991  0.59788103  0.39428794  1
  Nb  Nb126  1  0.60355554  0.60135004  0.59585932  1
  Nb  Nb127  1  0.79864843  0.39316953  -0.01295246  1
  Nb  Nb128  1  0.20023841  0.59917287  -0.00303536  1
  Nb  Nb129  1  0.00358504  0.40373821  0.19791305  1
  Nb  Nb130  1  0.40323943  0.80061469  0.00181783  1
  Nb  Nb131  1  -0.00464334  0.00335851  0.60319963  1
  Nb  Nb132  1  0.39321473  0.81066790  0.39322435  1
  Nb  Nb133  1  0.60414645  0.40276129  0.40415165  1
  Nb  Nb134  1  0.79272311  0.80571156  0.61261201  1
  Nb  Nb135  1  0.60700583  0.59382736  0.40011252  1
  Nb  Nb136  1  0.00109278  -0.00161974  -0.00155916  1
  Nb  Nb137  1  0.80420159  0.59563505  0.39842093  1
  Nb  Nb138  1  0.59271653  0.80502749  0.00243970  1
  Nb  Nb139  1  0.19660789  0.40094959  0.00330296  1
  Nb  Nb140  1  0.80129844  0.80483718  0.18999629  1
  Nb  Nb141  1  0.59865490  0.20056505  0.19877875  1
  Nb  Nb142  1  0.20377109  0.79826330  -0.00377426  1
  Nb  Nb143  1  0.41071827  0.20079381  0.79754272  1
  Nb  Nb144  1  0.20333746  0.80501874  0.40199518  1
  Nb  Nb145  1  0.00246176  0.59397363  0.20072502  1
  Nb  Nb146  1  0.00558374  0.00038385  0.40554179  1
  Nb  Nb147  1  0.40019879  -0.00297863  0.40015956  1
  Nb  Nb148  1  0.60649770  -0.00046830  0.60609336  1
  Nb  Nb149  1  0.19143086  0.39900822  0.19835600  1
  Pd  Pd150  1  0.79884738  -0.00412264  0.59992412  1
  Pd  Pd151  1  0.40750996  0.39197843  0.79082080  1
  Pd  Pd152  1  0.40357891  0.59077285  0.79179698  1
  Pd  Pd153  1  0.39076177  0.79869862  0.59507852  1
  Pd  Pd154  1  0.80415191  0.79178193  0.80239871  1
  Pd  Pd155  1  0.60396852  0.80134489  0.59989359  1
  Pd  Pd156  1  0.19541005  0.20765157  0.20299370  1
  Pd  Pd157  1  -0.00192729  0.19326394  0.59489326  1
  Pd  Pd158  1  0.61131451  0.20764505  0.38942967  1
  Pd  Pd159  1  -0.00344867  0.80055562  0.20495021  1
  Pd  Pd160  1  0.78970262  0.80413100  0.00073360  1
  Pd  Pd161  1  0.79783496  0.58944075  -0.00706391  1
  Pd  Pd162  1  0.59633765  -0.00129295  -0.00509330  1
  Pd  Pd163  1  0.20107914  0.79822688  0.80183425  1
  Pd  Pd164  1  0.20696815  0.00617605  0.79458817  1
  Pd  Pd165  1  0.80790875  0.60114210  0.19708304  1
  Pd  Pd166  1  0.00321869  0.00525057  0.19765854  1
  Pd  Pd167  1  0.79285125  0.19738691  0.39649834  1
  Pd  Pd168  1  0.41230210  0.19366739  0.19630336  1
  Pd  Pd169  1  0.59303416  0.59902417  0.00416781  1
  Pd  Pd170  1  0.18749720  0.00674333  0.61079962  1
  Pd  Pd171  1  0.58672194  0.80334586  0.81249652  1
  Pd  Pd172  1  0.20218508  0.21138297  0.40474483  1
  Pd  Pd173  1  -0.00767414  0.79979075  0.80277732  1
  Pd  Pd174  1  0.39147220  0.01175439  0.80366600  1
  Pd  Pd175  1  0.19843231  0.20620141  -0.00599431  1
  Pd  Pd176  1  0.79986338  0.60239400  0.80975160  1
  Pd  Pd177  1  0.00748047  0.80033448  0.39241053  1
  Pd  Pd178  1  0.39592866  0.40246373  0.60346014  1
  Pd  Pd179  1  0.00134682  0.20436712  0.19853649  1
  Pd  Pd180  1  0.20829253  0.80467593  0.20176686  1
  Pd  Pd181  1  0.38863733  0.80593631  0.20230285  1
  Pd  Pd182  1  0.61078026  0.81312810  0.19321311  1
  Pd  Pd183  1  -0.01383210  0.80932079  0.60976308  1
  Pd  Pd184  1  0.00922015  0.81172309  -0.00267404  1
  Pd  Pd185  1  0.00427699  0.59933918  0.59058380  1
  Pd  Pd186  1  0.19862604  0.39192508  0.80830795  1
  Pd  Pd187  1  0.80007129  0.40291660  0.40118514  1
  Pd  Pd188  1  0.59299653  0.58892716  0.20553593  1
  Pd  Pd189  1  0.00605524  0.60118122  0.79339937  1
  Pd  Pd190  1  0.79807112  0.20325688  0.80236932  1
  Pd  Pd191  1  0.59579852  0.39362463  0.20440420  1
  Pd  Pd192  1  0.00298923  0.59670847  0.00161543  1
  Pd  Pd193  1  0.59262734  0.40027163  0.79514246  1
  Pd  Pd194  1  0.40391923  0.19715990  0.60042646  1
  Pd  Pd195  1  0.40499225  0.59422207  0.20236411  1
  Pd  Pd196  1  -0.00366383  0.19084872  0.00039810  1
  Pd  Pd197  1  0.59189574  0.79689322  0.39830669  1
  Pd  Pd198  1  0.40605209  0.01322159  0.20489243  1
  Pd  Pd199  1  0.81143958  0.38432413  0.60401585  1
  Rh  Rh200  1  0.19537411  0.59900975  0.60180503  1
  Rh  Rh201  1  0.80632784  0.00224692  -0.00817699  1
  Rh  Rh202  1  0.40556164  0.00144763  -0.00405584  1
  Rh  Rh203  1  0.39941331  0.59906362  0.00423901  1
  Rh  Rh204  1  0.39966726  0.19586259  0.40609389  1
  Rh  Rh205  1  0.60764318  0.00876805  0.79725559  1
  Rh  Rh206  1  -0.00006397  0.00253034  0.80397084  1
  Rh  Rh207  1  0.80216835  0.39014463  0.80175951  1
  Rh  Rh208  1  0.60639133  0.39455536  0.00149440  1
  Rh  Rh209  1  -0.00418245  0.40368692  0.39839154  1
  Rh  Rh210  1  0.21008632  0.19791240  0.80815950  1
  Rh  Rh211  1  0.19418981  0.01002900  0.19295770  1
  Rh  Rh212  1  0.59295296  0.00153617  0.40665583  1
  Rh  Rh213  1  0.20194657  -0.00682932  0.40757094  1
  Rh  Rh214  1  -0.00141331  0.38879345  0.79367105  1
  Rh  Rh215  1  0.20509500  0.39629840  0.59412149  1
  Rh  Rh216  1  0.60192352  0.19579022  0.79561902  1
  Rh  Rh217  1  0.79701559  0.20441935  -0.00635895  1
  Rh  Rh218  1  0.79944927  0.79837907  0.39220026  1
  Rh  Rh219  1  0.59944214  0.20329646  0.00942458  1
  Rh  Rh220  1  0.19272617  0.60734561  0.39955761  1
  Rh  Rh221  1  0.80867719  0.00325065  0.39692520  1
  Rh  Rh222  1  0.41136588  0.61286264  0.38957703  1
  Rh  Rh223  1  0.18844063  -0.00484269  0.00752816  1
  Rh  Rh224  1  0.79918283  -0.00346076  0.20270652  1
  Rh  Rh225  1  -0.00558021  0.39564693  0.00210663  1
  Rh  Rh226  1  0.39421524  0.40224228  0.00400284  1
  Rh  Rh227  1  0.40225038  0.80098014  0.80732465  1
  Rh  Rh228  1  0.40220225  0.39530522  0.40669699  1
  Rh  Rh229  1  0.79963895  0.19901484  0.60267397  1
  Rh  Rh230  1  0.40234978  0.59847845  0.60632257  1
  Rh  Rh231  1  0.19747923  0.58985135  0.19430906  1
  Rh  Rh232  1  0.81301754  0.39695713  0.18389344  1
  Rh  Rh233  1  0.20577648  0.39489233  0.39682191  1
  Rh  Rh234  1  0.79238481  0.00531737  0.80924424  1
  Rh  Rh235  1  -0.00199531  0.18935207  0.40578255  1
  Rh  Rh236  1  0.41329376  0.01022900  0.59345902  1
  Rh  Rh237  1  0.79138768  0.19538139  0.20266336  1
  Rh  Rh238  1  0.19327010  0.60019165  0.80131819  1
  Rh  Rh239  1  0.20600004  0.79364280  0.59843569  1
  Rh  Rh240  1  0.59521641  0.40827030  0.59507890  1
  Rh  Rh241  1  0.19926490  0.20562819  0.59642626  1
  Rh  Rh242  1  -0.00098946  0.39307190  0.60327104  1
  Rh  Rh243  1  0.59678629  0.00672676  0.19867203  1
  Rh  Rh244  1  0.79873886  0.61046627  0.59253059  1
  Rh  Rh245  1  -0.00140153  0.19754967  0.80433891  1
  Rh  Rh246  1  0.59205592  0.59243874  0.79343231  1
  Rh  Rh247  1  0.61029745  0.18610456  0.60991440  1
  Rh  Rh248  1  0.40453188  0.19467408  -0.00573423  1
  Rh  Rh249  1  0.39150978  0.39815615  0.20002187  1
