# generated using pymatgen
data_ZrScNbPdRh
_symmetry_space_group_name_H-M   'P 1'
_cell_length_a   16.55948328
_cell_length_b   16.55780601
_cell_length_c   16.55792686
_cell_angle_alpha   90.00880174
_cell_angle_beta   89.98994807
_cell_angle_gamma   90.00030795
_symmetry_Int_Tables_number   1
_chemical_formula_structural   ZrScNbPdRh
_chemical_formula_sum   'Zr50 Sc50 Nb50 Pd50 Rh50'
_cell_volume   4539.99651210
_cell_formula_units_Z   50
loop_
 _symmetry_equiv_pos_site_id
 _symmetry_equiv_pos_as_xyz
  1  'x, y, z'
loop_
 _atom_site_type_symbol
 _atom_site_label
 _atom_site_symmetry_multiplicity
 _atom_site_fract_x
 _atom_site_fract_y
 _atom_site_fract_z
 _atom_site_occupancy
  Zr  Zr0  1  0.30188722  0.69846783  0.50549553  1
  Zr  Zr1  1  0.69986577  0.30598779  0.50694722  1
  Zr  Zr2  1  0.09855086  0.50631907  0.90554700  1
  Zr  Zr3  1  0.69961088  0.70031379  0.50320605  1
  Zr  Zr4  1  0.69846376  0.89830106  0.50604798  1
  Zr  Zr5  1  0.89842238  0.10161635  0.70939545  1
  Zr  Zr6  1  0.69761596  0.69045595  0.29187364  1
  Zr  Zr7  1  0.50440474  0.09829238  0.09404885  1
  Zr  Zr8  1  0.89659289  0.30681024  0.49587878  1
  Zr  Zr9  1  0.90257325  0.49967207  0.09683248  1
  Zr  Zr10  1  0.69599112  0.50000758  0.10712021  1
  Zr  Zr11  1  0.09431014  0.50698104  0.70197666  1
  Zr  Zr12  1  0.69301853  0.30285196  0.89340921  1
  Zr  Zr13  1  0.89693600  0.69987102  0.50972688  1
  Zr  Zr14  1  0.30593773  0.09161272  0.89845813  1
  Zr  Zr15  1  0.30430252  0.89458027  0.09892067  1
  Zr  Zr16  1  0.29618855  0.48697810  0.90088092  1
  Zr  Zr17  1  0.10350502  0.90222353  0.10143399  1
  Zr  Zr18  1  0.29945099  0.30220790  0.29788577  1
  Zr  Zr19  1  0.90781882  0.10764862  0.89643975  1
  Zr  Zr20  1  0.10217695  0.89491163  0.69708243  1
  Zr  Zr21  1  0.69962563  0.09904340  0.49510422  1
  Zr  Zr22  1  0.09720538  0.70168281  0.69829086  1
  Zr  Zr23  1  0.90762701  0.89203070  0.09915815  1
  Zr  Zr24  1  0.29609894  0.50279642  0.28334535  1
  Zr  Zr25  1  0.50160945  0.49591285  0.09445633  1
  Zr  Zr26  1  0.70534300  0.30515671  0.30333356  1
  Zr  Zr27  1  0.90175362  0.50641186  0.29463804  1
  Zr  Zr28  1  0.49781400  0.29184993  0.29796064  1
  Zr  Zr29  1  0.49534058  0.69288435  0.70087154  1
  Zr  Zr30  1  0.68770333  0.49892955  0.90501414  1
  Zr  Zr31  1  0.70333017  0.08771904  0.90573676  1
  Zr  Zr32  1  0.50322731  0.69637660  0.50639341  1
  Zr  Zr33  1  0.30705897  0.50372992  0.71066442  1
  Zr  Zr34  1  0.50283178  0.09380546  0.28973823  1
  Zr  Zr35  1  0.09598967  0.09691040  0.29173627  1
  Zr  Zr36  1  0.10160581  0.68986406  0.29839753  1
  Zr  Zr37  1  0.50629656  0.30146358  0.51214716  1
  Zr  Zr38  1  0.50593661  0.89946216  0.50454380  1
  Zr  Zr39  1  0.89035060  0.90562169  0.90109214  1
  Zr  Zr40  1  0.10203635  0.49287572  0.29584673  1
  Zr  Zr41  1  0.30539035  0.90029461  0.90471267  1
  Zr  Zr42  1  0.70248960  0.90378029  0.09240325  1
  Zr  Zr43  1  0.11478486  0.89906200  0.90070367  1
  Zr  Zr44  1  0.89277419  0.29967149  0.90390311  1
  Zr  Zr45  1  0.69717204  0.89887605  0.70619065  1
  Zr  Zr46  1  0.10881646  0.89956942  0.29792200  1
  Zr  Zr47  1  0.10366280  0.49888820  0.09715114  1
  Zr  Zr48  1  0.09164545  0.09861905  0.71109959  1
  Zr  Zr49  1  0.30659633  0.09602142  0.30123316  1
  Sc  Sc50  1  0.30587736  0.29866685  0.50469608  1
  Sc  Sc51  1  0.31034476  0.09965532  0.50306986  1
  Sc  Sc52  1  0.68845401  0.10756473  0.70486418  1
  Sc  Sc53  1  0.89929198  0.30110581  0.29228146  1
  Sc  Sc54  1  0.89700634  0.49989268  0.50958248  1
  Sc  Sc55  1  0.90742092  0.11912660  0.10412909  1
  Sc  Sc56  1  0.89765899  0.09960648  0.49272234  1
  Sc  Sc57  1  0.09477778  0.89336954  0.49830384  1
  Sc  Sc58  1  0.50003695  0.09717844  0.50825744  1
  Sc  Sc59  1  0.09366274  0.50141089  0.49313972  1
  Sc  Sc60  1  0.70211630  0.69980307  0.70449374  1
  Sc  Sc61  1  0.50400083  0.89852332  0.69675484  1
  Sc  Sc62  1  0.90421366  0.89755419  0.29437254  1
  Sc  Sc63  1  0.29926184  0.49415623  0.50913439  1
  Sc  Sc64  1  0.49918621  0.68920929  0.29145627  1
  Sc  Sc65  1  0.90021238  0.89304326  0.49857190  1
  Sc  Sc66  1  0.29359642  0.89911544  0.70979461  1
  Sc  Sc67  1  0.90233422  0.70276435  0.29494693  1
  Sc  Sc68  1  0.90139811  0.90008164  0.70276077  1
  Sc  Sc69  1  0.88926723  0.10698693  0.29715229  1
  Sc  Sc70  1  0.69166107  0.49599514  0.50235899  1
  Sc  Sc71  1  0.50444319  0.29376975  0.09318802  1
  Sc  Sc72  1  0.29665922  0.69938252  0.90060156  1
  Sc  Sc73  1  0.30469033  0.69395772  0.10520364  1
  Sc  Sc74  1  0.70498841  0.49722126  0.70349766  1
  Sc  Sc75  1  0.10105511  0.31597146  0.49758409  1
  Sc  Sc76  1  0.29631983  0.69603077  0.29426036  1
  Sc  Sc77  1  0.29581717  0.89899540  0.50003742  1
  Sc  Sc78  1  0.30872193  0.30710957  0.70131895  1
  Sc  Sc79  1  0.09415662  0.09003114  0.49537205  1
  Sc  Sc80  1  0.30598279  0.31169589  0.09707470  1
  Sc  Sc81  1  0.70578032  0.91561229  0.29667405  1
  Sc  Sc82  1  0.51247781  0.69751078  0.90209629  1
  Sc  Sc83  1  0.09074518  0.70161453  0.09084390  1
  Sc  Sc84  1  0.49742998  0.90099650  0.09589671  1
  Sc  Sc85  1  0.30798481  0.09874595  0.70213181  1
  Sc  Sc86  1  0.89116630  0.50874979  0.89494552  1
  Sc  Sc87  1  0.09685289  0.30513499  0.70132544  1
  Sc  Sc88  1  0.51741686  0.50132149  0.29374979  1
  Sc  Sc89  1  0.90283525  0.70034756  0.10548965  1
  Sc  Sc90  1  0.89867700  0.69785854  0.90425358  1
  Sc  Sc91  1  0.49842950  0.70116674  0.09390479  1
  Sc  Sc92  1  0.09819077  0.70500176  0.49975328  1
  Sc  Sc93  1  0.08438428  0.30343494  0.09694765  1
  Sc  Sc94  1  0.49716393  0.10535912  0.69910170  1
  Sc  Sc95  1  0.69931307  0.88768110  0.90108555  1
  Sc  Sc96  1  0.29989298  0.70393252  0.70144703  1
  Sc  Sc97  1  0.09270701  0.30706275  0.90570864  1
  Sc  Sc98  1  0.30776375  0.09333595  0.09425491  1
  Sc  Sc99  1  0.69484011  0.09783559  0.10613572  1
  Nb  Nb100  1  0.49599272  0.49842640  0.89114252  1
  Nb  Nb101  1  0.89788891  0.51004948  0.70004757  1
  Nb  Nb102  1  0.70064505  0.50604695  0.29899588  1
  Nb  Nb103  1  0.10466376  0.30098497  0.30075046  1
  Nb  Nb104  1  0.69667971  0.69893673  0.90533047  1
  Nb  Nb105  1  0.69194920  0.30164205  0.69794274  1
  Nb  Nb106  1  0.49921749  0.89798664  0.90210923  1
  Nb  Nb107  1  0.89343315  0.30374795  0.70189772  1
  Nb  Nb108  1  0.29994734  0.49904807  0.09719187  1
  Nb  Nb109  1  0.69851497  0.10553960  0.30225530  1
  Nb  Nb110  1  0.10376082  0.10174952  0.90301233  1
  Nb  Nb111  1  0.49945251  0.50432796  0.50351084  1
  Nb  Nb112  1  0.29966153  0.29489880  0.90153238  1
  Nb  Nb113  1  0.30734798  0.90001741  0.29711181  1
  Nb  Nb114  1  0.49329352  0.49848421  0.70574330  1
  Nb  Nb115  1  0.10054580  0.10420832  0.09731040  1
  Nb  Nb116  1  0.90228814  0.68057279  0.70234037  1
  Nb  Nb117  1  0.49651976  0.29378084  0.89474645  1
  Nb  Nb118  1  0.49891689  0.89940991  0.29712930  1
  Nb  Nb119  1  0.89534021  0.30510558  0.08961740  1
  Nb  Nb120  1  0.09374595  0.70147510  0.89854086  1
  Nb  Nb121  1  0.51626105  0.29612231  0.70478436  1
  Nb  Nb122  1  0.49721195  0.09968815  0.90155118  1
  Nb  Nb123  1  0.71028307  0.31117148  0.08713246  1
  Nb  Nb124  1  0.69392730  0.70143407  0.09620577  1
  Nb  Nb125  1  0.20061798  0.19980244  -0.00111440  1
  Nb  Nb126  1  0.19706651  0.20098580  0.19725891  1
  Nb  Nb127  1  0.79478955  0.59944283  0.39778080  1
  Nb  Nb128  1  0.00634050  0.20606565  0.39837316  1
  Nb  Nb129  1  -0.00320462  0.20334039  0.59799446  1
  Nb  Nb130  1  0.80150292  0.20393571  0.60508639  1
  Nb  Nb131  1  0.60307549  0.19814426  0.39632231  1
  Nb  Nb132  1  0.60184448  0.80373856  0.20145222  1
  Nb  Nb133  1  0.39938867  0.58797433  -0.00486812  1
  Nb  Nb134  1  0.19440435  0.00483709  0.60352329  1
  Nb  Nb135  1  0.59648407  0.80139559  0.39154561  1
  Nb  Nb136  1  0.40341331  0.59450226  0.40240206  1
  Nb  Nb137  1  0.79705758  0.00591028  0.60350275  1
  Nb  Nb138  1  0.40651925  0.80071651  0.80615516  1
  Nb  Nb139  1  0.78767249  0.60361464  0.00458768  1
  Nb  Nb140  1  0.40703333  0.40753691  0.39950476  1
  Nb  Nb141  1  0.40437296  0.79899960  0.39411195  1
  Nb  Nb142  1  0.19812606  0.59896854  0.60370116  1
  Nb  Nb143  1  0.20058745  0.20110540  0.80504101  1
  Nb  Nb144  1  0.00125148  0.79365765  0.80203968  1
  Nb  Nb145  1  0.59230444  -0.00000613  0.80905759  1
  Nb  Nb146  1  0.00766198  0.00580469  -0.00031338  1
  Nb  Nb147  1  -0.01043321  0.40574193  0.79563178  1
  Nb  Nb148  1  0.19618988  0.19918618  0.39850219  1
  Nb  Nb149  1  0.19295911  0.19574893  0.60058239  1
  Pd  Pd150  1  0.80360247  0.79061387  0.00270879  1
  Pd  Pd151  1  0.79262961  0.79579065  0.38955228  1
  Pd  Pd152  1  0.80894301  0.78865342  0.79698362  1
  Pd  Pd153  1  0.60727402  0.20167944  -0.00314551  1
  Pd  Pd154  1  0.40654340  0.79662695  0.20287068  1
  Pd  Pd155  1  0.80736198  0.00567010  0.19322522  1
  Pd  Pd156  1  0.20754809  0.79913439  0.39690700  1
  Pd  Pd157  1  0.79256228  0.80101131  0.20088954  1
  Pd  Pd158  1  -0.00160641  0.39664156  0.20025054  1
  Pd  Pd159  1  0.79977689  0.40414529  0.80025327  1
  Pd  Pd160  1  0.00031613  0.79713510  0.39488951  1
  Pd  Pd161  1  0.40981147  0.40372206  0.20522331  1
  Pd  Pd162  1  0.60160405  0.38930911  0.19628253  1
  Pd  Pd163  1  0.40653003  0.39734255  -0.00628672  1
  Pd  Pd164  1  0.20254483  0.60590321  0.79834892  1
  Pd  Pd165  1  0.21025594  0.00514527  0.19480068  1
  Pd  Pd166  1  0.79215533  0.19321001  0.00395053  1
  Pd  Pd167  1  0.19082336  0.39360263  0.80107645  1
  Pd  Pd168  1  0.19856887  0.79245003  0.19597109  1
  Pd  Pd169  1  0.20896192  0.59397015  0.40830085  1
  Pd  Pd170  1  0.00443388  -0.01339264  0.81038327  1
  Pd  Pd171  1  0.40716734  0.40025139  0.60347183  1
  Pd  Pd172  1  0.59445533  0.39658263  0.39809727  1
  Pd  Pd173  1  0.20660092  0.60587698  0.00320052  1
  Pd  Pd174  1  0.39202696  0.19879669  0.18681621  1
  Pd  Pd175  1  0.60387237  0.59779490  0.79379330  1
  Pd  Pd176  1  0.78902832  0.20030281  0.79828632  1
  Pd  Pd177  1  -0.00335000  0.40045124  0.60596772  1
  Pd  Pd178  1  0.40506827  0.20394677  0.40861602  1
  Pd  Pd179  1  0.39750398  0.20338645  0.79528780  1
  Pd  Pd180  1  0.21177961  0.40105339  0.40320112  1
  Pd  Pd181  1  -0.00528238  0.00259104  0.59600221  1
  Pd  Pd182  1  0.60582324  0.59358274  0.61092171  1
  Pd  Pd183  1  0.61158324  0.20859266  0.19811754  1
  Pd  Pd184  1  0.39248842  -0.00876634  0.60664305  1
  Pd  Pd185  1  0.39578642  0.80809319  0.60607492  1
  Pd  Pd186  1  -0.01059486  0.60202745  0.40489893  1
  Pd  Pd187  1  0.20432256  0.00345656  0.40693428  1
  Pd  Pd188  1  0.79146353  0.20617086  0.19124455  1
  Pd  Pd189  1  0.81760827  0.01283363  0.01503710  1
  Pd  Pd190  1  -0.00867745  0.00192772  0.39265154  1
  Pd  Pd191  1  0.40416559  -0.00654806  0.40343375  1
  Pd  Pd192  1  0.80699669  -0.00553892  0.40307442  1
  Pd  Pd193  1  -0.00935720  0.00455726  0.19428202  1
  Pd  Pd194  1  0.20400383  0.78954502  0.00660575  1
  Pd  Pd195  1  0.59655332  0.00099253  0.39661203  1
  Pd  Pd196  1  0.80162945  0.40004954  0.19920036  1
  Pd  Pd197  1  0.80486635  0.80241813  0.61321603  1
  Pd  Pd198  1  0.80393759  0.41330582  0.39811086  1
  Pd  Pd199  1  0.19834026  0.40168984  0.60547215  1
  Rh  Rh200  1  0.59542318  0.60575225  0.18864443  1
  Rh  Rh201  1  0.79767912  0.40015021  0.60712598  1
  Rh  Rh202  1  0.01148507  0.79660058  0.20755774  1
  Rh  Rh203  1  0.78772456  0.00345216  0.79266689  1
  Rh  Rh204  1  0.60526338  0.19462593  0.59270081  1
  Rh  Rh205  1  0.60103261  0.60431238  0.40377848  1
  Rh  Rh206  1  0.00677032  0.21639906  0.80001583  1
  Rh  Rh207  1  0.60152570  0.79425788  0.60299678  1
  Rh  Rh208  1  -0.00484972  0.39846322  0.39190817  1
  Rh  Rh209  1  -0.00069160  0.81254036  -0.01295002  1
  Rh  Rh210  1  0.40221766  0.78843909  -0.00803175  1
  Rh  Rh211  1  0.40561726  -0.00239077  0.00210492  1
  Rh  Rh212  1  0.60095303  -0.00652499  0.19881294  1
  Rh  Rh213  1  0.40471158  0.59163818  0.19473036  1
  Rh  Rh214  1  0.79335903  0.59623243  0.59492298  1
  Rh  Rh215  1  0.59865623  0.80519073  0.00668519  1
  Rh  Rh216  1  0.19805518  0.00535388  0.00750406  1
  Rh  Rh217  1  0.19455461  0.39222971  0.18759342  1
  Rh  Rh218  1  -0.00153764  0.60001439  0.80855161  1
  Rh  Rh219  1  0.79873218  0.20339870  0.40427597  1
  Rh  Rh220  1  0.59134564  0.39158165  -0.00605089  1
  Rh  Rh221  1  0.00514298  0.20832619  0.20576156  1
  Rh  Rh222  1  0.59355220  0.80294995  0.79982352  1
  Rh  Rh223  1  0.40039372  0.60801299  0.81084443  1
  Rh  Rh224  1  0.39913736  0.20635556  0.60633076  1
  Rh  Rh225  1  0.40112244  -0.00214205  0.19460334  1
  Rh  Rh226  1  0.00448669  0.19904978  -0.00294770  1
  Rh  Rh227  1  0.78984506  0.60383925  0.80838088  1
  Rh  Rh228  1  -0.01030290  0.40773870  -0.01077339  1
  Rh  Rh229  1  0.80152777  0.60127833  0.19554580  1
  Rh  Rh230  1  0.19249910  0.60307821  0.18872250  1
  Rh  Rh231  1  0.19836281  0.39122288  0.00402593  1
  Rh  Rh232  1  0.00699065  0.60002976  0.59127939  1
  Rh  Rh233  1  0.59374279  0.40325219  0.79758054  1
  Rh  Rh234  1  -0.00863752  0.59837123  -0.00188965  1
  Rh  Rh235  1  0.20097242  0.80143640  0.59620509  1
  Rh  Rh236  1  0.59935537  0.19170213  0.81180162  1
  Rh  Rh237  1  0.59548010  -0.00510469  -0.00550645  1
  Rh  Rh238  1  0.59476747  0.41095678  0.61265918  1
  Rh  Rh239  1  0.39209230  0.59307697  0.59920697  1
  Rh  Rh240  1  0.40884833  0.38954808  0.80048676  1
  Rh  Rh241  1  0.00573672  0.60140041  0.19505493  1
  Rh  Rh242  1  0.20289830  0.00993507  0.79205367  1
  Rh  Rh243  1  0.39637320  0.20160313  -0.00023905  1
  Rh  Rh244  1  -0.00930856  0.79555394  0.60890421  1
  Rh  Rh245  1  0.59568186  0.59717890  0.00271542  1
  Rh  Rh246  1  0.20081772  0.79263022  0.80396869  1
  Rh  Rh247  1  0.60602026  0.00465795  0.61334977  1
  Rh  Rh248  1  0.80029844  0.41159387  -0.00447714  1
  Rh  Rh249  1  0.41070209  -0.01014214  0.79735857  1
