# generated using pymatgen
data_ZrScNbPdRh
_symmetry_space_group_name_H-M   'P 1'
_cell_length_a   16.55873848
_cell_length_b   16.56178333
_cell_length_c   16.55913313
_cell_angle_alpha   89.98677979
_cell_angle_beta   89.99770918
_cell_angle_gamma   89.99712352
_symmetry_Int_Tables_number   1
_chemical_formula_structural   ZrScNbPdRh
_chemical_formula_sum   'Zr50 Sc50 Nb50 Pd50 Rh50'
_cell_volume   4541.21361234
_cell_formula_units_Z   50
loop_
 _symmetry_equiv_pos_site_id
 _symmetry_equiv_pos_as_xyz
  1  'x, y, z'
loop_
 _atom_site_type_symbol
 _atom_site_label
 _atom_site_symmetry_multiplicity
 _atom_site_fract_x
 _atom_site_fract_y
 _atom_site_fract_z
 _atom_site_occupancy
  Zr  Zr0  1  0.89676079  0.49990813  0.49485401  1
  Zr  Zr1  1  0.49950887  0.70533804  0.09363639  1
  Zr  Zr2  1  0.90017840  0.29389018  0.90712908  1
  Zr  Zr3  1  0.50674539  0.09995022  0.50253201  1
  Zr  Zr4  1  0.10684044  0.29949994  0.09734971  1
  Zr  Zr5  1  0.10193110  0.69848995  0.90338118  1
  Zr  Zr6  1  0.70145139  0.30125952  0.49649770  1
  Zr  Zr7  1  0.09973974  0.70779099  0.29742855  1
  Zr  Zr8  1  0.89316065  0.10039225  0.70014780  1
  Zr  Zr9  1  0.10472089  0.49142226  0.70303331  1
  Zr  Zr10  1  0.30187993  0.48669068  0.09656505  1
  Zr  Zr11  1  0.10328594  0.91146658  0.89797323  1
  Zr  Zr12  1  0.51176272  0.29308162  0.70163859  1
  Zr  Zr13  1  0.10134750  0.29161577  0.90011817  1
  Zr  Zr14  1  0.70393744  0.49668591  0.90609150  1
  Zr  Zr15  1  0.30677731  0.49375878  0.50585935  1
  Zr  Zr16  1  0.90707412  0.09178084  0.90302951  1
  Zr  Zr17  1  0.89840831  0.50080488  0.70100664  1
  Zr  Zr18  1  0.88412804  0.10426716  0.50035776  1
  Zr  Zr19  1  0.29822206  0.30035947  0.90905343  1
  Zr  Zr20  1  0.70251832  0.11003826  0.29709116  1
  Zr  Zr21  1  0.69736744  0.50048289  0.29214608  1
  Zr  Zr22  1  0.30624822  0.10227112  0.49785420  1
  Zr  Zr23  1  0.30092700  0.69867831  0.70004886  1
  Zr  Zr24  1  0.11002084  0.90354272  0.70042632  1
  Zr  Zr25  1  0.88749907  0.29375189  0.70482250  1
  Zr  Zr26  1  0.69791519  0.70181408  0.29737127  1
  Zr  Zr27  1  0.89789684  0.69829775  0.10298428  1
  Zr  Zr28  1  0.49624421  0.30035406  0.89739606  1
  Zr  Zr29  1  0.09296600  0.49322973  0.09728916  1
  Zr  Zr30  1  0.69530693  0.69762675  0.69064112  1
  Zr  Zr31  1  0.70050141  0.90981870  0.09775311  1
  Zr  Zr32  1  0.89679321  0.09966859  0.30048947  1
  Zr  Zr33  1  0.70305196  0.69263161  0.49535298  1
  Zr  Zr34  1  0.10256022  0.10094038  0.71225989  1
  Zr  Zr35  1  0.29343793  0.10479468  0.89738071  1
  Zr  Zr36  1  0.30325115  0.29735625  0.29415171  1
  Zr  Zr37  1  0.30922960  0.49326991  0.29087504  1
  Zr  Zr38  1  0.30346020  0.71409211  0.30169864  1
  Zr  Zr39  1  0.50610422  0.70237251  0.29131759  1
  Zr  Zr40  1  0.49532198  0.49930214  0.90471004  1
  Zr  Zr41  1  0.10274779  0.10314434  0.29785402  1
  Zr  Zr42  1  0.50038842  0.90475872  0.10149918  1
  Zr  Zr43  1  0.49598801  0.10545848  0.89522352  1
  Zr  Zr44  1  0.89146985  0.09486783  0.10346875  1
  Zr  Zr45  1  0.09823895  0.08740887  0.49937883  1
  Zr  Zr46  1  0.29361994  0.89702287  0.50468444  1
  Zr  Zr47  1  0.89764541  0.69908977  0.70174047  1
  Zr  Zr48  1  0.69973531  0.11459697  0.69711422  1
  Zr  Zr49  1  0.30408713  0.70752632  0.09181544  1
  Sc  Sc50  1  0.89223013  0.49678735  0.09652681  1
  Sc  Sc51  1  0.90672255  0.30612308  0.10305792  1
  Sc  Sc52  1  0.30947311  0.29359014  0.49728392  1
  Sc  Sc53  1  0.50292661  0.49558614  0.29622498  1
  Sc  Sc54  1  0.89520933  0.91751747  0.50238398  1
  Sc  Sc55  1  0.50607092  0.69907119  0.50534386  1
  Sc  Sc56  1  0.30400310  0.49329616  0.89950753  1
  Sc  Sc57  1  0.30595413  0.10073480  0.70250679  1
  Sc  Sc58  1  0.09739817  0.10646126  0.10017692  1
  Sc  Sc59  1  0.68911411  0.90224524  0.49624300  1
  Sc  Sc60  1  0.10100123  0.29907587  0.28796303  1
  Sc  Sc61  1  0.50425816  0.29608554  0.09592664  1
  Sc  Sc62  1  0.10484665  0.70372934  0.49361862  1
  Sc  Sc63  1  0.70133980  0.29676175  0.88720912  1
  Sc  Sc64  1  0.88813138  0.90232740  0.29498329  1
  Sc  Sc65  1  0.28843332  0.30009031  0.69821305  1
  Sc  Sc66  1  0.69099853  0.70729525  0.90442029  1
  Sc  Sc67  1  0.09196993  0.49364737  0.29950576  1
  Sc  Sc68  1  0.89162532  0.90847812  0.70880764  1
  Sc  Sc69  1  0.49741121  0.70012749  0.69169129  1
  Sc  Sc70  1  0.49955141  0.09649112  0.69996146  1
  Sc  Sc71  1  0.69368783  0.09433401  0.90032696  1
  Sc  Sc72  1  0.30558919  0.70738908  0.50412344  1
  Sc  Sc73  1  0.10370049  0.90056961  0.30614665  1
  Sc  Sc74  1  0.50092695  0.30514292  0.30504572  1
  Sc  Sc75  1  0.30343960  0.10484292  0.30649839  1
  Sc  Sc76  1  0.69522953  0.90179395  0.89708263  1
  Sc  Sc77  1  0.30721609  0.89962738  0.09586679  1
  Sc  Sc78  1  0.90130363  0.49339284  0.29845905  1
  Sc  Sc79  1  0.68906796  0.89688939  0.70726927  1
  Sc  Sc80  1  0.50708455  0.10010222  0.29908386  1
  Sc  Sc81  1  0.50269197  0.49029214  0.49807482  1
  Sc  Sc82  1  0.89646205  0.90889080  0.10647302  1
  Sc  Sc83  1  0.69737271  0.69758376  0.10642349  1
  Sc  Sc84  1  0.29481339  0.90514854  0.90550441  1
  Sc  Sc85  1  0.49502243  0.49429872  0.69525093  1
  Sc  Sc86  1  0.30178888  0.70515436  0.90025376  1
  Sc  Sc87  1  0.09409056  0.49522451  0.49179741  1
  Sc  Sc88  1  0.09549560  0.49673994  0.89667592  1
  Sc  Sc89  1  0.49800287  0.70140814  0.90999191  1
  Sc  Sc90  1  0.30339722  0.09511152  0.09078002  1
  Sc  Sc91  1  0.11158704  0.29995366  0.50370744  1
  Sc  Sc92  1  0.90421047  0.49772362  0.90857884  1
  Sc  Sc93  1  0.10404214  0.69606191  0.71315857  1
  Sc  Sc94  1  0.10862711  0.89749459  0.10043806  1
  Sc  Sc95  1  0.30180431  0.49673566  0.70330806  1
  Sc  Sc96  1  0.50290063  0.30070837  0.49690450  1
  Sc  Sc97  1  0.88781724  0.70266767  0.30057047  1
  Sc  Sc98  1  0.49627501  0.50667957  0.10298601  1
  Sc  Sc99  1  0.90171693  0.68852290  0.89982708  1
  Nb  Nb100  1  0.49715424  0.90421733  0.51040908  1
  Nb  Nb101  1  0.69764046  0.30505929  0.69897603  1
  Nb  Nb102  1  0.09711161  0.30098744  0.69867359  1
  Nb  Nb103  1  0.50744878  0.90283219  0.89124847  1
  Nb  Nb104  1  0.89865109  0.69915232  0.50189334  1
  Nb  Nb105  1  0.10374213  0.09882256  0.90304904  1
  Nb  Nb106  1  0.70108005  0.49379202  0.69536246  1
  Nb  Nb107  1  0.70611173  0.49119370  0.10299953  1
  Nb  Nb108  1  0.69980277  0.50030635  0.50745518  1
  Nb  Nb109  1  0.49517877  0.90218261  0.69365718  1
  Nb  Nb110  1  0.30487028  0.89599598  0.69775717  1
  Nb  Nb111  1  0.09679736  0.89922423  0.50344778  1
  Nb  Nb112  1  0.69984072  0.10476863  0.49657138  1
  Nb  Nb113  1  0.10070596  0.70249359  0.10014084  1
  Nb  Nb114  1  0.69064003  0.88923678  0.29342018  1
  Nb  Nb115  1  0.49818040  0.89513346  0.30047779  1
  Nb  Nb116  1  0.31059402  0.89990055  0.30094915  1
  Nb  Nb117  1  0.70357132  0.30078409  0.10458780  1
  Nb  Nb118  1  0.70240489  0.30420946  0.29143708  1
  Nb  Nb119  1  0.50985605  0.10432965  0.10158106  1
  Nb  Nb120  1  0.69325940  0.10856905  0.10341593  1
  Nb  Nb121  1  0.89919611  0.90218484  0.90528943  1
  Nb  Nb122  1  0.90322130  0.30104811  0.49516992  1
  Nb  Nb123  1  0.29625194  0.30023574  0.10348847  1
  Nb  Nb124  1  0.90041250  0.30391756  0.31056815  1
  Nb  Nb125  1  0.20726052  0.40220534  0.39612163  1
  Nb  Nb126  1  0.40385956  0.19693005  0.19286275  1
  Nb  Nb127  1  -0.00110291  0.20243214  0.59895969  1
  Nb  Nb128  1  0.19690290  0.59595020  0.59473570  1
  Nb  Nb129  1  0.00351401  0.60494598  0.19688420  1
  Nb  Nb130  1  -0.00362874  0.20090550  0.40512238  1
  Nb  Nb131  1  0.40731139  -0.00995937  0.40079348  1
  Nb  Nb132  1  0.78942119  0.59575657  0.79643015  1
  Nb  Nb133  1  -0.00603713  0.80508297  0.41075798  1
  Nb  Nb134  1  -0.00298055  0.39350884  0.60138219  1
  Nb  Nb135  1  0.60350494  0.59369601  0.79730358  1
  Nb  Nb136  1  0.19852539  0.59937227  0.00785698  1
  Nb  Nb137  1  0.00155475  0.60098361  0.59799984  1
  Nb  Nb138  1  0.79375498  0.19605673  0.00829944  1
  Nb  Nb139  1  0.80635735  0.80505875  -0.00179013  1
  Nb  Nb140  1  0.19863008  0.60233494  0.19738550  1
  Nb  Nb141  1  -0.00197371  0.80645367  0.80509937  1
  Nb  Nb142  1  0.20877510  -0.00010207  0.20559000  1
  Nb  Nb143  1  -0.00307606  0.80224638  -0.00167493  1
  Nb  Nb144  1  0.60862880  0.39964142  0.00421414  1
  Nb  Nb145  1  0.39819569  0.60089055  0.39721590  1
  Nb  Nb146  1  0.40248079  0.81003656  0.79509972  1
  Nb  Nb147  1  0.80293014  0.79787374  0.59607289  1
  Nb  Nb148  1  -0.00281539  0.80091280  0.60062511  1
  Nb  Nb149  1  0.20812749  0.59676253  0.39513193  1
  Pd  Pd150  1  0.59788006  0.40606371  0.80348350  1
  Pd  Pd151  1  0.39546593  0.39105005  0.79176508  1
  Pd  Pd152  1  0.39644157  -0.00476233  0.80363255  1
  Pd  Pd153  1  0.79248745  0.60911872  -0.00256756  1
  Pd  Pd154  1  0.59557298  0.00110930  -0.00421874  1
  Pd  Pd155  1  -0.00650127  0.80340641  0.20224066  1
  Pd  Pd156  1  0.58795407  0.79027835  0.79750596  1
  Pd  Pd157  1  -0.00214560  0.19818616  0.79825362  1
  Pd  Pd158  1  0.80317582  0.39480086  0.59621650  1
  Pd  Pd159  1  0.79136079  0.40558591  0.39660364  1
  Pd  Pd160  1  0.79913664  0.59323203  0.39213873  1
  Pd  Pd161  1  0.40814856  0.60878444  0.80277193  1
  Pd  Pd162  1  0.59318523  0.80042619  0.40623389  1
  Pd  Pd163  1  0.40330407  0.38729126  0.60584328  1
  Pd  Pd164  1  -0.00401107  0.39473763  0.80113742  1
  Pd  Pd165  1  0.59913035  0.20675666  0.39585898  1
  Pd  Pd166  1  0.78353103  -0.00842652  0.60465443  1
  Pd  Pd167  1  0.39895221  0.20005712  0.00623995  1
  Pd  Pd168  1  0.00217007  0.61073594  0.39613251  1
  Pd  Pd169  1  0.60752442  0.00211900  0.60692112  1
  Pd  Pd170  1  0.19105045  0.78952625  0.60418724  1
  Pd  Pd171  1  0.59279452  0.39774012  0.19248088  1
  Pd  Pd172  1  0.80340822  0.81014354  0.40809406  1
  Pd  Pd173  1  0.40802253  0.00082175  -0.00669430  1
  Pd  Pd174  1  0.39854826  0.00947537  0.20550723  1
  Pd  Pd175  1  0.00654972  -0.00342350  0.01132669  1
  Pd  Pd176  1  -0.00866161  0.20407079  0.20406266  1
  Pd  Pd177  1  0.40417699  0.20329087  0.60595151  1
  Pd  Pd178  1  0.39700448  0.60813971  0.20063499  1
  Pd  Pd179  1  0.19588394  0.19210720  0.60014031  1
  Pd  Pd180  1  -0.00340921  0.00099402  0.60956379  1
  Pd  Pd181  1  0.19308277  0.20770966  0.39908530  1
  Pd  Pd182  1  0.41204417  0.79920151  0.41110661  1
  Pd  Pd183  1  0.20667946  0.59218283  0.80686725  1
  Pd  Pd184  1  0.20753668  0.00781530  0.60500890  1
  Pd  Pd185  1  0.78457668  -0.00617036  0.39199637  1
  Pd  Pd186  1  0.01139584  -0.00644319  0.20047530  1
  Pd  Pd187  1  0.20735580  0.80759649  0.19770508  1
  Pd  Pd188  1  0.60798128  0.20811293  -0.00657322  1
  Pd  Pd189  1  0.80432981  0.40437682  0.80635562  1
  Pd  Pd190  1  0.60245895  -0.00052283  0.20775523  1
  Pd  Pd191  1  -0.00481024  -0.00167191  0.39434914  1
  Pd  Pd192  1  0.20888003  -0.00561312  0.39561097  1
  Pd  Pd193  1  0.59194086  0.59281214  0.39884046  1
  Pd  Pd194  1  0.60018357  -0.00219216  0.39266066  1
  Pd  Pd195  1  0.59213378  0.58858957  0.60260024  1
  Pd  Pd196  1  0.79076668  0.00380377  0.80322771  1
  Pd  Pd197  1  0.80248724  0.79325824  0.80550751  1
  Pd  Pd198  1  0.80932242  0.20946641  0.19773799  1
  Pd  Pd199  1  0.60406102  0.59323206  0.00373445  1
  Rh  Rh200  1  0.19602377  0.40543218  0.20515393  1
  Rh  Rh201  1  0.59894073  0.80184556  0.19169382  1
  Rh  Rh202  1  0.20112131  0.20335752  0.79984431  1
  Rh  Rh203  1  0.19503383  0.79844303  -0.00379663  1
  Rh  Rh204  1  -0.00562347  0.60141998  0.79556562  1
  Rh  Rh205  1  0.59725738  0.00547585  0.79333009  1
  Rh  Rh206  1  0.20121958  0.39373456  0.80637827  1
  Rh  Rh207  1  -0.00573730  0.19508987  0.00357972  1
  Rh  Rh208  1  0.38841877  0.59646881  -0.00126866  1
  Rh  Rh209  1  0.41135898  0.19150442  0.39446449  1
  Rh  Rh210  1  0.60456589  0.80536417  0.59665198  1
  Rh  Rh211  1  0.60934878  0.40226025  0.39951954  1
  Rh  Rh212  1  0.59458647  0.20731798  0.20490740  1
  Rh  Rh213  1  0.80445595  0.59417223  0.20293351  1
  Rh  Rh214  1  0.01337790  0.38379783  0.40331567  1
  Rh  Rh215  1  0.79389225  0.00378544  -0.00106946  1
  Rh  Rh216  1  0.79890025  0.18980562  0.81308427  1
  Rh  Rh217  1  0.00619021  0.60326256  0.00812538  1
  Rh  Rh218  1  0.40846281  0.81496104  -0.01346565  1
  Rh  Rh219  1  0.79633399  0.20811494  0.59534755  1
  Rh  Rh220  1  0.39649498  0.00176542  0.59410778  1
  Rh  Rh221  1  0.40956400  0.38496687  0.19200401  1
  Rh  Rh222  1  0.79488759  0.38617681  -0.00051722  1
  Rh  Rh223  1  0.39738341  0.40409254  0.40020754  1
  Rh  Rh224  1  0.19946746  0.19514378  0.00437553  1
  Rh  Rh225  1  0.60186452  0.59766236  0.19309879  1
  Rh  Rh226  1  0.19547286  0.00554463  0.01022690  1
  Rh  Rh227  1  -0.00426219  0.40312447  0.19924402  1
  Rh  Rh228  1  0.78563930  0.00025158  0.20720040  1
  Rh  Rh229  1  0.19595217  0.80406417  0.40088995  1
  Rh  Rh230  1  0.60358944  0.20323020  0.59517167  1
  Rh  Rh231  1  0.20493008  0.80696733  0.80284100  1
  Rh  Rh232  1  0.60424901  0.80961654  0.00417670  1
  Rh  Rh233  1  0.40299312  0.80038949  0.60239218  1
  Rh  Rh234  1  0.39671125  0.20492430  0.79502783  1
  Rh  Rh235  1  0.19461099  0.40685759  0.59312009  1
  Rh  Rh236  1  0.19463893  0.40394051  -0.00692475  1
  Rh  Rh237  1  -0.00002104  -0.00228363  0.79750087  1
  Rh  Rh238  1  0.79275057  0.80427982  0.19162690  1
  Rh  Rh239  1  0.80670887  0.39691333  0.20455182  1
  Rh  Rh240  1  0.21466488  0.18782990  0.19220600  1
  Rh  Rh241  1  0.79943451  0.20619601  0.39666467  1
  Rh  Rh242  1  0.00240379  0.39531767  -0.00278707  1
  Rh  Rh243  1  0.60225701  0.19655720  0.80185317  1
  Rh  Rh244  1  0.40425338  0.80209402  0.19340737  1
  Rh  Rh245  1  0.60149074  0.39811553  0.59754168  1
  Rh  Rh246  1  0.20936991  0.00142913  0.79692112  1
  Rh  Rh247  1  0.39485621  0.59976421  0.59331761  1
  Rh  Rh248  1  0.80293446  0.60094506  0.60224256  1
  Rh  Rh249  1  0.40976147  0.39630566  0.00667077  1
