# generated using pymatgen
data_ZrScNbPdRh
_symmetry_space_group_name_H-M   'P 1'
_cell_length_a   16.56165618
_cell_length_b   16.55654023
_cell_length_c   16.56258836
_cell_angle_alpha   90.01132106
_cell_angle_beta   89.97442257
_cell_angle_gamma   89.99762392
_symmetry_Int_Tables_number   1
_chemical_formula_structural   ZrScNbPdRh
_chemical_formula_sum   'Zr50 Sc50 Nb50 Pd50 Rh50'
_cell_volume   4541.52290848
_cell_formula_units_Z   50
loop_
 _symmetry_equiv_pos_site_id
 _symmetry_equiv_pos_as_xyz
  1  'x, y, z'
loop_
 _atom_site_type_symbol
 _atom_site_label
 _atom_site_symmetry_multiplicity
 _atom_site_fract_x
 _atom_site_fract_y
 _atom_site_fract_z
 _atom_site_occupancy
  Zr  Zr0  1  0.50472331  0.49737175  0.69832643  1
  Zr  Zr1  1  0.70608814  0.70063174  0.89111612  1
  Zr  Zr2  1  0.29608299  0.49856681  0.89466467  1
  Zr  Zr3  1  0.69362923  0.90668730  0.89950800  1
  Zr  Zr4  1  0.29682842  0.50336163  0.10317328  1
  Zr  Zr5  1  0.09423045  0.10032891  0.10724360  1
  Zr  Zr6  1  0.09929755  0.30207886  0.49755126  1
  Zr  Zr7  1  0.90240880  0.89858922  0.90042245  1
  Zr  Zr8  1  0.90447373  0.30068764  0.91092358  1
  Zr  Zr9  1  0.10027541  0.90181826  0.70237761  1
  Zr  Zr10  1  0.70216054  0.50756308  0.69785797  1
  Zr  Zr11  1  0.89517853  0.70743902  0.51110064  1
  Zr  Zr12  1  0.29692837  0.30475743  0.69846075  1
  Zr  Zr13  1  0.50096537  0.09528791  0.91184411  1
  Zr  Zr14  1  0.10247944  0.10247441  0.30107907  1
  Zr  Zr15  1  0.50121567  0.50358738  0.88921823  1
  Zr  Zr16  1  0.10817974  0.30137854  0.89978608  1
  Zr  Zr17  1  0.50051845  0.30036597  0.70021952  1
  Zr  Zr18  1  0.69041677  0.29794122  0.70583003  1
  Zr  Zr19  1  0.09818864  0.70213697  0.09720199  1
  Zr  Zr20  1  0.89736870  0.49667564  0.49773257  1
  Zr  Zr21  1  0.30063544  0.89861717  0.70231398  1
  Zr  Zr22  1  0.10869716  0.10380432  0.90424912  1
  Zr  Zr23  1  0.29577262  0.29869726  0.30126099  1
  Zr  Zr24  1  0.90439981  0.90692333  0.09809957  1
  Zr  Zr25  1  0.30542207  0.50115061  0.29607546  1
  Zr  Zr26  1  0.09847297  0.09926755  0.69625410  1
  Zr  Zr27  1  0.71715757  0.50133069  0.09563499  1
  Zr  Zr28  1  0.69691506  0.09928854  0.50036891  1
  Zr  Zr29  1  0.49882019  0.89338425  0.70382871  1
  Zr  Zr30  1  0.50329589  0.90065725  0.30415916  1
  Zr  Zr31  1  0.30110573  0.91241611  0.89765337  1
  Zr  Zr32  1  0.50086919  0.69578916  0.50178800  1
  Zr  Zr33  1  0.90025228  0.30578263  0.68882114  1
  Zr  Zr34  1  0.09523405  0.50585642  0.09792800  1
  Zr  Zr35  1  0.69704742  0.09878705  0.70011701  1
  Zr  Zr36  1  0.30254471  0.70221754  0.68814646  1
  Zr  Zr37  1  0.29345246  0.70403231  0.10803243  1
  Zr  Zr38  1  0.49323614  0.09612853  0.29638299  1
  Zr  Zr39  1  0.09561884  0.49428745  0.69860278  1
  Zr  Zr40  1  0.08943354  0.70356972  0.90347708  1
  Zr  Zr41  1  0.89236074  0.09363834  0.91176860  1
  Zr  Zr42  1  0.09926842  0.30541904  0.70018171  1
  Zr  Zr43  1  0.50046803  0.09972150  0.11038703  1
  Zr  Zr44  1  0.10166506  0.89322592  0.10052588  1
  Zr  Zr45  1  0.71114493  0.50085073  0.30497106  1
  Zr  Zr46  1  0.50837073  0.29694365  0.89358793  1
  Zr  Zr47  1  0.10101411  0.29268109  0.29996708  1
  Zr  Zr48  1  0.09419489  0.29871171  0.09548840  1
  Zr  Zr49  1  0.29601592  0.30017318  0.49542154  1
  Sc  Sc50  1  0.90928792  0.10546097  0.29824903  1
  Sc  Sc51  1  0.30174826  0.09974293  0.10247692  1
  Sc  Sc52  1  0.09065580  0.50277668  0.29833107  1
  Sc  Sc53  1  0.70486791  0.10662362  0.09901498  1
  Sc  Sc54  1  0.09080979  0.69921964  0.50256597  1
  Sc  Sc55  1  0.50200974  0.08763020  0.49968934  1
  Sc  Sc56  1  0.90149382  0.89375575  0.30301349  1
  Sc  Sc57  1  0.71139413  0.89263494  0.30846236  1
  Sc  Sc58  1  0.90290449  0.69576860  0.10257478  1
  Sc  Sc59  1  0.69671546  0.90056804  0.70246939  1
  Sc  Sc60  1  0.30577247  0.89838687  0.51691880  1
  Sc  Sc61  1  0.08051898  0.70200471  0.69406451  1
  Sc  Sc62  1  0.90251540  0.49999657  0.09857549  1
  Sc  Sc63  1  0.09101018  0.49786196  0.90422777  1
  Sc  Sc64  1  0.30597308  0.09150252  0.50708606  1
  Sc  Sc65  1  0.49851214  0.49223729  0.30681837  1
  Sc  Sc66  1  0.71542656  0.70012140  0.10251360  1
  Sc  Sc67  1  0.08423176  0.89973425  0.50018021  1
  Sc  Sc68  1  0.89626549  0.88750737  0.69977287  1
  Sc  Sc69  1  0.09797753  0.89960658  0.91067920  1
  Sc  Sc70  1  0.50390667  0.70301423  0.09916549  1
  Sc  Sc71  1  0.49645541  0.49718318  0.10571831  1
  Sc  Sc72  1  0.49912123  0.69226512  0.70237585  1
  Sc  Sc73  1  0.49920237  0.28911551  0.10190165  1
  Sc  Sc74  1  0.70054315  0.89842042  0.49131526  1
  Sc  Sc75  1  0.09392440  0.09896042  0.49349711  1
  Sc  Sc76  1  0.69791768  0.10689109  0.30124745  1
  Sc  Sc77  1  0.29520738  0.29879141  0.10421407  1
  Sc  Sc78  1  0.90615200  0.10567716  0.49789143  1
  Sc  Sc79  1  0.50548695  0.29772911  0.30290556  1
  Sc  Sc80  1  0.89789689  0.29774207  0.10465136  1
  Sc  Sc81  1  0.50307457  0.90716861  0.10508746  1
  Sc  Sc82  1  0.70148509  0.89857956  0.10211457  1
  Sc  Sc83  1  0.08592640  0.70276294  0.29355289  1
  Sc  Sc84  1  0.50251250  0.30120892  0.49593618  1
  Sc  Sc85  1  0.29782700  0.08659897  0.70302596  1
  Sc  Sc86  1  0.50488998  0.10039820  0.69177648  1
  Sc  Sc87  1  0.09521339  0.50423754  0.50022800  1
  Sc  Sc88  1  0.08972613  0.90177525  0.29253388  1
  Sc  Sc89  1  0.49843029  0.69318550  0.30592094  1
  Sc  Sc90  1  0.30493531  0.89764774  0.28120078  1
  Sc  Sc91  1  0.90067348  0.10776369  0.09944826  1
  Sc  Sc92  1  0.69818680  0.50378134  0.49992120  1
  Sc  Sc93  1  0.50610158  0.49635845  0.49685602  1
  Sc  Sc94  1  0.70376422  0.29942772  0.49184943  1
  Sc  Sc95  1  0.70650966  0.29695231  0.30364414  1
  Sc  Sc96  1  0.29988363  0.49574784  0.49946051  1
  Sc  Sc97  1  0.30220424  0.49911968  0.69627757  1
  Sc  Sc98  1  0.29926017  0.70013119  0.89989667  1
  Sc  Sc99  1  0.50708107  0.70554507  0.89149128  1
  Nb  Nb100  1  0.29961764  0.70179397  0.30189974  1
  Nb  Nb101  1  0.29699536  0.10080988  0.30012839  1
  Nb  Nb102  1  0.69686680  0.70204218  0.50013521  1
  Nb  Nb103  1  0.70473731  0.49756751  0.90279091  1
  Nb  Nb104  1  0.89384266  0.90483496  0.49725991  1
  Nb  Nb105  1  0.90323006  0.50866499  0.30348788  1
  Nb  Nb106  1  0.29841539  0.70302950  0.49900866  1
  Nb  Nb107  1  0.70679691  0.70328365  0.30237469  1
  Nb  Nb108  1  0.50292663  0.89472184  0.90377940  1
  Nb  Nb109  1  0.71265217  0.70347202  0.69037493  1
  Nb  Nb110  1  0.90002338  0.30550538  0.30762973  1
  Nb  Nb111  1  0.89215219  0.50583642  0.90381022  1
  Nb  Nb112  1  0.50523588  0.89593145  0.50069090  1
  Nb  Nb113  1  0.29636482  0.29597995  0.89936016  1
  Nb  Nb114  1  0.89803286  0.10323347  0.70136822  1
  Nb  Nb115  1  0.70758682  0.30399606  0.09798940  1
  Nb  Nb116  1  0.89664766  0.50191316  0.70218137  1
  Nb  Nb117  1  0.29996272  0.10497196  0.90011035  1
  Nb  Nb118  1  0.70283186  0.10464634  0.89843009  1
  Nb  Nb119  1  0.89994052  0.70332259  0.88969247  1
  Nb  Nb120  1  0.29644179  0.88901104  0.09535886  1
  Nb  Nb121  1  0.88491382  0.69948869  0.70853157  1
  Nb  Nb122  1  0.90092110  0.30306384  0.49444776  1
  Nb  Nb123  1  0.70071983  0.29896076  0.89997513  1
  Nb  Nb124  1  0.89149417  0.69887058  0.29781128  1
  Nb  Nb125  1  0.60346272  0.79478356  0.59613909  1
  Nb  Nb126  1  0.40189627  0.80456048  -0.00117044  1
  Nb  Nb127  1  0.39400762  0.79894352  0.40309974  1
  Nb  Nb128  1  0.19899574  0.20119586  0.59924119  1
  Nb  Nb129  1  0.80007308  0.40029611  0.80372147  1
  Nb  Nb130  1  0.60717363  0.79176684  0.20874535  1
  Nb  Nb131  1  0.20420632  -0.00783716  0.39608890  1
  Nb  Nb132  1  0.20505018  0.80031578  0.39831530  1
  Nb  Nb133  1  0.20477410  0.61079804  0.39758639  1
  Nb  Nb134  1  0.19714979  0.79758807  0.79773450  1
  Nb  Nb135  1  0.80073550  0.20202499  0.80246510  1
  Nb  Nb136  1  0.60422285  0.40038641  0.00051019  1
  Nb  Nb137  1  0.19359123  0.60602352  0.79397330  1
  Nb  Nb138  1  0.40369316  0.60002942  -0.00096084  1
  Nb  Nb139  1  0.60368270  0.59442635  0.00150231  1
  Nb  Nb140  1  0.80414763  0.00146772  0.20213663  1
  Nb  Nb141  1  -0.00306561  0.00638976  0.80014382  1
  Nb  Nb142  1  0.60927831  0.59799621  0.19982816  1
  Nb  Nb143  1  0.61125204  0.40209736  0.19316860  1
  Nb  Nb144  1  0.39540900  0.19743183  0.80620247  1
  Nb  Nb145  1  -0.00666724  0.19657787  0.79969537  1
  Nb  Nb146  1  0.39507295  0.19351684  0.39726599  1
  Nb  Nb147  1  0.40181955  0.39985340  -0.00513312  1
  Nb  Nb148  1  0.80276124  0.00175719  0.59781843  1
  Nb  Nb149  1  0.80448687  0.80169925  -0.00726540  1
  Pd  Pd150  1  0.61569969  -0.00813881  0.20861160  1
  Pd  Pd151  1  0.60589519  0.00372370  0.00751004  1
  Pd  Pd152  1  0.39680750  0.39340220  0.80265055  1
  Pd  Pd153  1  0.40178243  0.59083285  0.59479517  1
  Pd  Pd154  1  0.39495901  0.20617991  -0.00110170  1
  Pd  Pd155  1  0.20268356  0.60355843  -0.00786870  1
  Pd  Pd156  1  -0.00529716  0.39849429  0.20095232  1
  Pd  Pd157  1  -0.00834974  0.39887364  0.80638597  1
  Pd  Pd158  1  0.79163424  0.39981092  0.59929160  1
  Pd  Pd159  1  0.19098054  0.60337427  0.21099492  1
  Pd  Pd160  1  0.41134210  0.00873858  0.79779822  1
  Pd  Pd161  1  0.59889801  0.20418700  0.59044732  1
  Pd  Pd162  1  0.80484073  -0.00089109  0.79204438  1
  Pd  Pd163  1  0.60814239  0.60470009  0.79750308  1
  Pd  Pd164  1  0.20395659  0.40025513  0.00350203  1
  Pd  Pd165  1  0.80734155  0.00942865  0.39677945  1
  Pd  Pd166  1  0.18877568  0.80038763  0.59674021  1
  Pd  Pd167  1  0.80590883  0.39830290  0.20688997  1
  Pd  Pd168  1  0.59161810  0.00477674  0.80082141  1
  Pd  Pd169  1  0.00380416  0.20280927  0.59861859  1
  Pd  Pd170  1  0.19139091  0.40170959  0.20152547  1
  Pd  Pd171  1  0.60279996  0.59793188  0.39343397  1
  Pd  Pd172  1  0.38983045  -0.00732294  0.39985462  1
  Pd  Pd173  1  0.39532758  0.59868953  0.40629589  1
  Pd  Pd174  1  0.39437366  0.79435508  0.80695176  1
  Pd  Pd175  1  0.79764196  0.19773829  0.59998244  1
  Pd  Pd176  1  0.00374301  0.40193273  0.39864306  1
  Pd  Pd177  1  0.60772372  0.20848549  0.20198893  1
  Pd  Pd178  1  0.40831268  0.39007387  0.19684972  1
  Pd  Pd179  1  0.41016439  0.60545113  0.19584554  1
  Pd  Pd180  1  0.39474038  0.19536260  0.60052703  1
  Pd  Pd181  1  0.20103481  0.00353521  0.00812621  1
  Pd  Pd182  1  0.60416935  0.79382541  0.00852661  1
  Pd  Pd183  1  0.19380593  0.41490048  0.39504486  1
  Pd  Pd184  1  0.40332825  0.40346848  0.59324767  1
  Pd  Pd185  1  0.20290281  0.19671749  0.79003263  1
  Pd  Pd186  1  0.80397035  0.60640532  0.40823781  1
  Pd  Pd187  1  -0.00139770  0.79626013  0.40007029  1
  Pd  Pd188  1  0.60649856  0.39703802  0.59308025  1
  Pd  Pd189  1  0.60548865  0.00063456  0.39478227  1
  Pd  Pd190  1  0.19583073  0.59922696  0.59789922  1
  Pd  Pd191  1  -0.00009920  0.59744977  0.79950867  1
  Pd  Pd192  1  0.80618031  0.19439183  0.39754356  1
  Pd  Pd193  1  -0.01145745  -0.00525805  0.60491567  1
  Pd  Pd194  1  0.41266043  0.79715938  0.19933445  1
  Pd  Pd195  1  0.20255470  -0.00316493  0.20046499  1
  Pd  Pd196  1  -0.01125736  0.59710091  0.60283578  1
  Pd  Pd197  1  0.39863118  -0.00534749  0.00915503  1
  Pd  Pd198  1  0.60626258  0.20195369  0.00483820  1
  Pd  Pd199  1  0.19306752  0.00152586  0.58762563  1
  Rh  Rh200  1  0.80263183  0.40005589  0.40063388  1
  Rh  Rh201  1  0.39999675  0.39128386  0.40046351  1
  Rh  Rh202  1  0.00385347  0.19766827  -0.00304211  1
  Rh  Rh203  1  0.19846194  0.40940218  0.79933519  1
  Rh  Rh204  1  0.60617801  0.40046111  0.39299111  1
  Rh  Rh205  1  0.58783825  0.19371191  0.40353048  1
  Rh  Rh206  1  -0.00313845  0.20852968  0.20372291  1
  Rh  Rh207  1  0.39363381  -0.00109769  0.19287570  1
  Rh  Rh208  1  0.80273030  0.39524873  -0.00418939  1
  Rh  Rh209  1  -0.00271187  0.40503727  0.59232415  1
  Rh  Rh210  1  0.60701656  -0.01342946  0.59618172  1
  Rh  Rh211  1  -0.00919321  0.60162785  -0.00269364  1
  Rh  Rh212  1  -0.00950121  0.80380137  0.60275902  1
  Rh  Rh213  1  0.19823508  0.39883470  0.59635322  1
  Rh  Rh214  1  0.00842138  0.00766087  -0.00152124  1
  Rh  Rh215  1  0.00408244  0.80662215  0.79731032  1
  Rh  Rh216  1  0.80193211  0.80801524  0.19422246  1
  Rh  Rh217  1  0.60523859  0.79618717  0.78889273  1
  Rh  Rh218  1  -0.00565232  0.59959554  0.20000734  1
  Rh  Rh219  1  0.80441301  0.61339180  -0.00845391  1
  Rh  Rh220  1  0.59251458  0.79484999  0.39957664  1
  Rh  Rh221  1  0.79277023  0.80944645  0.80560130  1
  Rh  Rh222  1  0.79255091  0.81133814  0.59340895  1
  Rh  Rh223  1  0.80002688  0.59295161  0.80121839  1
  Rh  Rh224  1  0.80366204  0.19856909  0.20420124  1
  Rh  Rh225  1  0.59715955  0.18747315  0.80331611  1
  Rh  Rh226  1  0.38875935  0.60447247  0.79977910  1
  Rh  Rh227  1  0.80409003  0.59803760  0.20516609  1
  Rh  Rh228  1  0.60183555  0.60582255  0.60314667  1
  Rh  Rh229  1  -0.00669925  0.79783457  0.19675957  1
  Rh  Rh230  1  0.20889191  0.79981068  -0.01051783  1
  Rh  Rh231  1  0.39483078  0.20096004  0.20855495  1
  Rh  Rh232  1  0.19061212  -0.00612479  0.80705114  1
  Rh  Rh233  1  0.20975847  0.18265710  0.41307317  1
  Rh  Rh234  1  -0.01054742  0.79441080  0.00464794  1
  Rh  Rh235  1  0.20364793  0.19843635  0.00895448  1
  Rh  Rh236  1  -0.00303623  0.40474108  0.00293160  1
  Rh  Rh237  1  0.80643424  0.79372528  0.40504182  1
  Rh  Rh238  1  0.61011198  0.40781830  0.80156887  1
  Rh  Rh239  1  0.80338964  0.59819645  0.59434312  1
  Rh  Rh240  1  -0.00467421  0.20629321  0.39917014  1
  Rh  Rh241  1  0.41045745  -0.00474146  0.60699115  1
  Rh  Rh242  1  0.00354821  -0.00210830  0.39548987  1
  Rh  Rh243  1  -0.00184152  0.60766757  0.39796705  1
  Rh  Rh244  1  0.79574008  0.20390921  -0.00184605  1
  Rh  Rh245  1  -0.00724922  0.00118366  0.20146701  1
  Rh  Rh246  1  0.41258156  0.80021584  0.59502542  1
  Rh  Rh247  1  0.19918357  0.19960410  0.19429120  1
  Rh  Rh248  1  0.19181907  0.79976442  0.20783814  1
  Rh  Rh249  1  0.79088398  -0.00430554  0.01014347  1
