# generated using pymatgen
data_ZrScNbPdRh
_symmetry_space_group_name_H-M   'P 1'
_cell_length_a   16.55843700
_cell_length_b   16.56218333
_cell_length_c   16.55958956
_cell_angle_alpha   89.97595379
_cell_angle_beta   90.00633169
_cell_angle_gamma   89.99088134
_symmetry_Int_Tables_number   1
_chemical_formula_structural   ZrScNbPdRh
_chemical_formula_sum   'Zr50 Sc50 Nb50 Pd50 Rh50'
_cell_volume   4541.36542834
_cell_formula_units_Z   50
loop_
 _symmetry_equiv_pos_site_id
 _symmetry_equiv_pos_as_xyz
  1  'x, y, z'
loop_
 _atom_site_type_symbol
 _atom_site_label
 _atom_site_symmetry_multiplicity
 _atom_site_fract_x
 _atom_site_fract_y
 _atom_site_fract_z
 _atom_site_occupancy
  Zr  Zr0  1  0.50561786  0.09858725  0.30216595  1
  Zr  Zr1  1  0.29487702  0.30141463  0.09284781  1
  Zr  Zr2  1  0.10072127  0.09613556  0.11461782  1
  Zr  Zr3  1  0.69783111  0.90721167  0.69975996  1
  Zr  Zr4  1  0.70073807  0.30021605  0.09756787  1
  Zr  Zr5  1  0.89134125  0.09658326  0.89371017  1
  Zr  Zr6  1  0.90567896  0.49913763  0.09450400  1
  Zr  Zr7  1  0.90516483  0.49546540  0.29431690  1
  Zr  Zr8  1  0.29661014  0.70012201  0.70765212  1
  Zr  Zr9  1  0.30211375  0.09783997  0.70484378  1
  Zr  Zr10  1  0.90430821  0.70056087  0.90146599  1
  Zr  Zr11  1  0.28971476  0.10208089  0.51398364  1
  Zr  Zr12  1  0.30553776  0.70744158  0.49641647  1
  Zr  Zr13  1  0.09733487  0.10169750  0.30227563  1
  Zr  Zr14  1  0.30031128  0.70272793  0.29801590  1
  Zr  Zr15  1  0.89410092  0.09920035  0.50671067  1
  Zr  Zr16  1  0.89626694  0.70246050  0.49910531  1
  Zr  Zr17  1  0.49436015  0.90107333  0.09396535  1
  Zr  Zr18  1  0.91063082  0.70605109  0.10223705  1
  Zr  Zr19  1  0.09565855  0.50225171  0.90662431  1
  Zr  Zr20  1  0.50568846  0.29563067  0.50282250  1
  Zr  Zr21  1  0.10075804  0.70250629  0.28827370  1
  Zr  Zr22  1  0.50483060  0.50077475  0.90566792  1
  Zr  Zr23  1  0.49548169  0.71242175  0.70483548  1
  Zr  Zr24  1  0.50062764  0.09866724  0.09452141  1
  Zr  Zr25  1  0.69341105  0.10258917  0.09474878  1
  Zr  Zr26  1  0.70182700  0.09922963  0.69778974  1
  Zr  Zr27  1  0.29568362  0.49764304  0.49353828  1
  Zr  Zr28  1  0.69859045  0.90231924  0.30374666  1
  Zr  Zr29  1  0.90101589  0.10952741  0.29509350  1
  Zr  Zr30  1  0.09991498  0.49747162  0.30019999  1
  Zr  Zr31  1  0.29171800  0.50665475  0.70209203  1
  Zr  Zr32  1  0.29758764  0.09344937  0.09227873  1
  Zr  Zr33  1  0.70713319  0.90838359  0.90350712  1
  Zr  Zr34  1  0.90358783  0.89585451  0.89621895  1
  Zr  Zr35  1  0.30656188  0.49690694  0.29234663  1
  Zr  Zr36  1  0.90537466  0.69808582  0.29748004  1
  Zr  Zr37  1  0.49482541  0.70218971  0.90199245  1
  Zr  Zr38  1  0.29574889  0.70403883  0.90155980  1
  Zr  Zr39  1  0.50366317  0.30051481  0.09018897  1
  Zr  Zr40  1  0.50070651  0.49565829  0.70691713  1
  Zr  Zr41  1  0.29302956  0.90410077  0.90956673  1
  Zr  Zr42  1  0.90533151  0.69353382  0.70683604  1
  Zr  Zr43  1  0.69924823  0.09379043  0.49735743  1
  Zr  Zr44  1  0.70871668  0.70218438  0.30282768  1
  Zr  Zr45  1  0.29285794  0.30380038  0.31709675  1
  Zr  Zr46  1  0.89582348  0.28965110  0.69774133  1
  Zr  Zr47  1  0.49921646  0.69049500  0.09407517  1
  Zr  Zr48  1  0.90384133  0.50611125  0.89128282  1
  Zr  Zr49  1  0.29765900  0.88951726  0.29848639  1
  Sc  Sc50  1  0.10785757  0.09499565  0.89327395  1
  Sc  Sc51  1  0.71497934  0.29582845  0.29144024  1
  Sc  Sc52  1  0.10332021  0.70464434  0.90449121  1
  Sc  Sc53  1  0.49028093  0.29440220  0.30573595  1
  Sc  Sc54  1  0.10522194  0.30405996  0.90168652  1
  Sc  Sc55  1  0.29735842  0.30087073  0.71525619  1
  Sc  Sc56  1  0.50574922  0.10126505  0.50136741  1
  Sc  Sc57  1  0.69403497  0.49992861  0.70766849  1
  Sc  Sc58  1  0.68728221  0.29744158  0.69629986  1
  Sc  Sc59  1  0.69495792  0.09442159  0.89498854  1
  Sc  Sc60  1  0.09987234  0.09895123  0.69482748  1
  Sc  Sc61  1  0.10574062  0.49671122  0.09820834  1
  Sc  Sc62  1  0.29435708  0.10082068  0.29703019  1
  Sc  Sc63  1  0.10784411  0.89833622  0.09983469  1
  Sc  Sc64  1  0.68986338  0.30769353  0.90695028  1
  Sc  Sc65  1  0.49655109  0.89667939  0.51779124  1
  Sc  Sc66  1  0.90623355  0.30221912  0.29998231  1
  Sc  Sc67  1  0.70368317  0.70900219  0.70921670  1
  Sc  Sc68  1  0.09618141  0.90225813  0.70748622  1
  Sc  Sc69  1  0.49866161  0.89976007  0.90074387  1
  Sc  Sc70  1  0.09730218  0.50800960  0.50273105  1
  Sc  Sc71  1  0.50003122  0.68869720  0.30090597  1
  Sc  Sc72  1  0.49642662  0.90104532  0.29669379  1
  Sc  Sc73  1  0.90543339  0.50591169  0.48829525  1
  Sc  Sc74  1  0.09579710  0.51251213  0.70419862  1
  Sc  Sc75  1  0.70356619  0.50829303  0.30024951  1
  Sc  Sc76  1  0.29201204  0.49709376  0.90103869  1
  Sc  Sc77  1  0.50380112  0.50375500  0.49091941  1
  Sc  Sc78  1  0.09832986  0.10142794  0.50628774  1
  Sc  Sc79  1  0.70320475  0.49597929  0.09180555  1
  Sc  Sc80  1  0.70143842  0.50538267  0.48876809  1
  Sc  Sc81  1  0.89588102  0.30522294  0.11411710  1
  Sc  Sc82  1  0.09450058  0.69383272  0.50310047  1
  Sc  Sc83  1  0.29834656  0.69982825  0.09636969  1
  Sc  Sc84  1  0.89792428  0.89739999  0.69866306  1
  Sc  Sc85  1  0.89008915  0.88838986  0.28972262  1
  Sc  Sc86  1  0.70099624  0.50266657  0.90196808  1
  Sc  Sc87  1  0.70010146  0.69825130  0.89886202  1
  Sc  Sc88  1  0.70028374  0.69944213  0.09233956  1
  Sc  Sc89  1  0.30881524  0.90367939  0.69771080  1
  Sc  Sc90  1  0.09747864  0.29612703  0.29954791  1
  Sc  Sc91  1  0.49826745  0.30083933  0.89444535  1
  Sc  Sc92  1  0.10312930  0.89884438  0.28811111  1
  Sc  Sc93  1  0.91356176  0.29758442  0.88772020  1
  Sc  Sc94  1  0.89744391  0.29231246  0.49280008  1
  Sc  Sc95  1  0.50023769  0.90633330  0.70284784  1
  Sc  Sc96  1  0.09261522  0.29240422  0.70907956  1
  Sc  Sc97  1  0.11079955  0.28996080  0.49221871  1
  Sc  Sc98  1  0.09683887  0.90384563  0.51433990  1
  Sc  Sc99  1  0.89540029  0.89553222  0.09433767  1
  Nb  Nb100  1  0.89529935  0.10835271  0.70244127  1
  Nb  Nb101  1  0.69784631  0.90380526  0.09761738  1
  Nb  Nb102  1  0.69708392  0.30041237  0.50329779  1
  Nb  Nb103  1  0.50162843  0.30246460  0.69533960  1
  Nb  Nb104  1  0.30539641  0.10414855  0.90137296  1
  Nb  Nb105  1  0.09824600  0.29652548  0.09672337  1
  Nb  Nb106  1  0.50419213  0.10145300  0.70188854  1
  Nb  Nb107  1  0.09748725  0.90239782  0.90667662  1
  Nb  Nb108  1  0.29994869  0.90205431  0.50354851  1
  Nb  Nb109  1  0.30643217  0.49676113  0.10043773  1
  Nb  Nb110  1  0.89468309  0.90018513  0.49877524  1
  Nb  Nb111  1  0.70050941  0.69803450  0.49732614  1
  Nb  Nb112  1  0.49187803  0.49921551  0.10644433  1
  Nb  Nb113  1  0.50336260  0.70018328  0.50420369  1
  Nb  Nb114  1  0.69843074  0.09479536  0.29571065  1
  Nb  Nb115  1  0.10688325  0.69390692  0.69344734  1
  Nb  Nb116  1  0.29463354  0.29187311  0.90282591  1
  Nb  Nb117  1  0.90037418  0.09985750  0.09968289  1
  Nb  Nb118  1  0.30144086  0.90221143  0.10038059  1
  Nb  Nb119  1  0.71153147  0.89842722  0.50234609  1
  Nb  Nb120  1  0.50232206  0.50040752  0.29207947  1
  Nb  Nb121  1  0.49756638  0.09864093  0.89740549  1
  Nb  Nb122  1  0.30081053  0.30009249  0.50658710  1
  Nb  Nb123  1  0.90082906  0.49786856  0.70091146  1
  Nb  Nb124  1  0.10024446  0.69882947  0.09668580  1
  Nb  Nb125  1  0.39760668  0.39935351  0.60173661  1
  Nb  Nb126  1  0.40459806  0.59958109  0.60057620  1
  Nb  Nb127  1  0.00059428  0.00227395  -0.00029965  1
  Nb  Nb128  1  0.79735575  0.59771784  0.60260217  1
  Nb  Nb129  1  0.39096949  -0.00307757  0.40732206  1
  Nb  Nb130  1  0.20249622  0.60334284  0.39263134  1
  Nb  Nb131  1  0.19886655  0.39847296  0.60183389  1
  Nb  Nb132  1  0.40350011  0.20628089  0.60803616  1
  Nb  Nb133  1  0.59387911  0.40418864  0.20277831  1
  Nb  Nb134  1  0.80323184  0.39963859  0.79278115  1
  Nb  Nb135  1  0.80571417  0.19842133  0.00100738  1
  Nb  Nb136  1  0.80178663  0.40329747  0.60004194  1
  Nb  Nb137  1  0.60237146  0.80063807  0.19901154  1
  Nb  Nb138  1  0.60005951  0.60850211  0.59825007  1
  Nb  Nb139  1  0.60366340  0.79767381  0.40688287  1
  Nb  Nb140  1  0.79273374  0.00524989  0.19583397  1
  Nb  Nb141  1  0.80836757  0.60210064  0.19591781  1
  Nb  Nb142  1  -0.00262219  0.80766319  0.40289080  1
  Nb  Nb143  1  0.39713649  0.19996649  0.19432521  1
  Nb  Nb144  1  0.20130128  0.79652755  0.60299594  1
  Nb  Nb145  1  0.19887694  -0.00627750  0.40403054  1
  Nb  Nb146  1  -0.00245393  0.39963831  0.60259631  1
  Nb  Nb147  1  -0.00395686  -0.00670457  0.40037240  1
  Nb  Nb148  1  -0.00156307  0.19265446  0.00551274  1
  Nb  Nb149  1  0.60132843  0.39739806  0.39185091  1
  Pd  Pd150  1  -0.01256025  -0.01099627  0.19983772  1
  Pd  Pd151  1  -0.00814798  0.00149479  0.60341319  1
  Pd  Pd152  1  0.60851953  0.80062568  0.59786036  1
  Pd  Pd153  1  0.00313499  0.20670618  0.59418889  1
  Pd  Pd154  1  0.40958992  0.40135136  0.40536970  1
  Pd  Pd155  1  0.60206391  0.80161275  -0.00001136  1
  Pd  Pd156  1  0.60239912  0.80918724  0.80842757  1
  Pd  Pd157  1  0.18963278  0.40213783  0.79653787  1
  Pd  Pd158  1  0.60107870  0.20165434  0.80281807  1
  Pd  Pd159  1  0.40123896  -0.00308477  0.80556295  1
  Pd  Pd160  1  0.20291399  -0.00435010  0.79724033  1
  Pd  Pd161  1  0.60353028  0.41323827  0.59067593  1
  Pd  Pd162  1  0.39213470  0.18673484  0.40617259  1
  Pd  Pd163  1  0.79818366  0.79688475  -0.00208732  1
  Pd  Pd164  1  0.41485942  0.80789462  0.40239404  1
  Pd  Pd165  1  0.39569235  0.39959040  -0.01081404  1
  Pd  Pd166  1  0.00694160  0.39310655  0.41083816  1
  Pd  Pd167  1  0.61120174  0.59928380  0.19295062  1
  Pd  Pd168  1  0.20680651  0.20803072  0.20330216  1
  Pd  Pd169  1  0.81338256  0.38870085  -0.01377433  1
  Pd  Pd170  1  0.39944155  0.59837236  0.40067490  1
  Pd  Pd171  1  0.40267364  0.38662224  0.20027325  1
  Pd  Pd172  1  0.00980572  0.79335745  0.79765762  1
  Pd  Pd173  1  0.61203136  0.20781802  0.39141603  1
  Pd  Pd174  1  0.00398718  0.79782664  0.60075537  1
  Pd  Pd175  1  0.19640845  0.80732713  0.79596811  1
  Pd  Pd176  1  0.39701995  0.39887781  0.80392974  1
  Pd  Pd177  1  0.18458957  0.80159402  0.41178198  1
  Pd  Pd178  1  0.79531588  0.19893822  0.39929316  1
  Pd  Pd179  1  0.79595710  0.39741082  0.40268137  1
  Pd  Pd180  1  0.60212701  0.60601085  0.79797624  1
  Pd  Pd181  1  0.80458212  0.60413870  0.00233960  1
  Pd  Pd182  1  0.20435960  0.59818782  0.19560838  1
  Pd  Pd183  1  0.39922167  0.59766268  0.80222354  1
  Pd  Pd184  1  0.40794809  0.79166571  0.19440297  1
  Pd  Pd185  1  0.40177400  0.20057527  -0.00041759  1
  Pd  Pd186  1  0.40444905  0.20216355  0.79749209  1
  Pd  Pd187  1  0.58850124  -0.01380224  0.41168417  1
  Pd  Pd188  1  0.39065757  0.59500397  -0.00303131  1
  Pd  Pd189  1  0.80902349  0.00156874  0.38952922  1
  Pd  Pd190  1  0.19678717  0.39373422  0.19687925  1
  Pd  Pd191  1  0.78564112  0.21145478  0.80986535  1
  Pd  Pd192  1  -0.00353455  0.00519443  0.79936973  1
  Pd  Pd193  1  0.60055167  -0.00609546  0.19599284  1
  Pd  Pd194  1  0.59418426  0.20997929  0.20693213  1
  Pd  Pd195  1  0.19592471  0.19705533  0.79999076  1
  Pd  Pd196  1  -0.00481468  0.38815120  0.00183920  1
  Pd  Pd197  1  0.18969197  0.19226772  -0.00272970  1
  Pd  Pd198  1  0.39495963  0.00656882  0.20773424  1
  Pd  Pd199  1  0.79887290  0.79419597  0.60569366  1
  Rh  Rh200  1  0.00005290  0.19219071  0.40367547  1
  Rh  Rh201  1  0.40615456  0.01444393  0.59792198  1
  Rh  Rh202  1  0.80493272  0.00493742  0.00667002  1
  Rh  Rh203  1  0.19865824  -0.00944024  0.60492424  1
  Rh  Rh204  1  0.21066982  0.60344447  0.58833679  1
  Rh  Rh205  1  0.60177213  -0.00003937  0.59754516  1
  Rh  Rh206  1  0.39536493  0.80192072  0.00088960  1
  Rh  Rh207  1  0.79068968  0.20236042  0.59571695  1
  Rh  Rh208  1  0.39280055  0.79411363  0.60626439  1
  Rh  Rh209  1  0.00930239  0.39733640  0.19619598  1
  Rh  Rh210  1  0.60195768  0.19358952  -0.01305909  1
  Rh  Rh211  1  0.39485083  0.60319877  0.19725800  1
  Rh  Rh212  1  0.80150000  0.80155103  0.40346562  1
  Rh  Rh213  1  0.20261835  0.18961404  0.39928250  1
  Rh  Rh214  1  0.59854964  0.59511027  0.00159917  1
  Rh  Rh215  1  0.00047616  0.59364296  0.19173112  1
  Rh  Rh216  1  0.20412282  0.79834041  0.18656169  1
  Rh  Rh217  1  0.59971883  0.19171857  0.60215849  1
  Rh  Rh218  1  0.00556737  0.60417349  0.00170209  1
  Rh  Rh219  1  0.59426131  0.00112357  0.80174829  1
  Rh  Rh220  1  0.19192881  0.60228107  0.81295324  1
  Rh  Rh221  1  0.79236705  0.41368753  0.20323707  1
  Rh  Rh222  1  0.19937227  0.80146473  0.00489097  1
  Rh  Rh223  1  0.40041811  0.00116016  -0.00828644  1
  Rh  Rh224  1  0.19406443  0.00334214  0.00006403  1
  Rh  Rh225  1  0.00682556  0.18916352  0.80709473  1
  Rh  Rh226  1  0.00857764  0.60963751  0.39359441  1
  Rh  Rh227  1  0.80853020  0.60009035  0.39717576  1
  Rh  Rh228  1  0.00764373  0.80701217  0.00362257  1
  Rh  Rh229  1  0.80429620  -0.00324352  0.79054923  1
  Rh  Rh230  1  0.59382012  0.00039915  -0.00653567  1
  Rh  Rh231  1  0.80380157  0.00134824  0.60579733  1
  Rh  Rh232  1  0.59464225  0.40940285  0.00670419  1
  Rh  Rh233  1  0.79874438  0.19203535  0.19334846  1
  Rh  Rh234  1  0.78777933  0.79937773  0.18771112  1
  Rh  Rh235  1  0.00040674  0.40091830  0.79251137  1
  Rh  Rh236  1  0.19031476  0.40670428  0.40681967  1
  Rh  Rh237  1  0.20314145  0.40128588  0.00058378  1
  Rh  Rh238  1  0.60462089  0.39801055  0.80245122  1
  Rh  Rh239  1  0.20920357  -0.00584818  0.20501884  1
  Rh  Rh240  1  0.39570803  0.80885577  0.80695707  1
  Rh  Rh241  1  0.20191747  0.59664012  0.00480724  1
  Rh  Rh242  1  0.79930290  0.80447884  0.80327208  1
  Rh  Rh243  1  0.59714402  0.60112773  0.40099473  1
  Rh  Rh244  1  0.00897370  0.60723230  0.80284723  1
  Rh  Rh245  1  0.20640713  0.21144528  0.61338931  1
  Rh  Rh246  1  0.00077523  0.20927610  0.19434997  1
  Rh  Rh247  1  -0.01134331  0.59545708  0.60087234  1
  Rh  Rh248  1  0.79557016  0.59368400  0.79650717  1
  Rh  Rh249  1  0.00592345  0.80633068  0.19737257  1
