# generated using pymatgen
data_ZrScNbPdRh
_symmetry_space_group_name_H-M   'P 1'
_cell_length_a   16.55830974
_cell_length_b   16.56357379
_cell_length_c   16.55561991
_cell_angle_alpha   89.97690857
_cell_angle_beta   89.96368491
_cell_angle_gamma   89.97863360
_symmetry_Int_Tables_number   1
_chemical_formula_structural   ZrScNbPdRh
_chemical_formula_sum   'Zr50 Sc50 Nb50 Pd50 Rh50'
_cell_volume   4540.62194486
_cell_formula_units_Z   50
loop_
 _symmetry_equiv_pos_site_id
 _symmetry_equiv_pos_as_xyz
  1  'x, y, z'
loop_
 _atom_site_type_symbol
 _atom_site_label
 _atom_site_symmetry_multiplicity
 _atom_site_fract_x
 _atom_site_fract_y
 _atom_site_fract_z
 _atom_site_occupancy
  Zr  Zr0  1  0.09974826  0.50545241  0.70777090  1
  Zr  Zr1  1  0.50328086  0.10548678  0.09286655  1
  Zr  Zr2  1  0.49418186  0.90209551  0.89911223  1
  Zr  Zr3  1  0.10371753  0.50473647  0.10749841  1
  Zr  Zr4  1  0.50371282  0.29694566  0.10213981  1
  Zr  Zr5  1  0.88954210  0.70592015  0.90599493  1
  Zr  Zr6  1  0.89784777  0.10002120  0.30406017  1
  Zr  Zr7  1  0.90442932  0.30348540  0.10366078  1
  Zr  Zr8  1  0.10763603  0.89760385  0.10213235  1
  Zr  Zr9  1  0.50157282  0.50932184  0.10060526  1
  Zr  Zr10  1  0.50417510  0.10437855  0.30026468  1
  Zr  Zr11  1  0.30005297  0.09673485  0.50050149  1
  Zr  Zr12  1  0.70632369  0.09942652  0.50404713  1
  Zr  Zr13  1  0.90268182  0.49785767  0.70756283  1
  Zr  Zr14  1  0.69836002  0.89918847  0.51016428  1
  Zr  Zr15  1  0.30474292  0.30481305  0.90127661  1
  Zr  Zr16  1  0.49427679  0.29836949  0.50764271  1
  Zr  Zr17  1  0.29363588  0.89258885  0.29630405  1
  Zr  Zr18  1  0.10491295  0.89570884  0.50029336  1
  Zr  Zr19  1  0.09842151  0.30039269  0.49611766  1
  Zr  Zr20  1  0.50839320  0.30062044  0.30373925  1
  Zr  Zr21  1  0.30023548  0.70128429  0.89585366  1
  Zr  Zr22  1  0.10831789  0.30675693  0.89540735  1
  Zr  Zr23  1  0.50088332  0.10465015  0.89965293  1
  Zr  Zr24  1  0.50918441  0.69682663  0.10822766  1
  Zr  Zr25  1  0.89474022  0.89453193  0.50638939  1
  Zr  Zr26  1  0.30121201  0.89553859  0.91015644  1
  Zr  Zr27  1  0.69754549  0.48933391  0.30330540  1
  Zr  Zr28  1  0.70154245  0.30504944  0.49318498  1
  Zr  Zr29  1  0.69402410  0.69481873  0.29577659  1
  Zr  Zr30  1  0.89867427  0.90801983  0.29488375  1
  Zr  Zr31  1  0.09795144  0.09582631  0.90012132  1
  Zr  Zr32  1  0.71320898  0.89255466  0.90018318  1
  Zr  Zr33  1  0.29916910  0.69805683  0.50442958  1
  Zr  Zr34  1  0.90226385  0.09860953  0.89991971  1
  Zr  Zr35  1  0.09751440  0.10588130  0.50177599  1
  Zr  Zr36  1  0.29684561  0.30408773  0.09353600  1
  Zr  Zr37  1  0.30421693  0.30996300  0.69655297  1
  Zr  Zr38  1  0.30150130  0.30738557  0.30545897  1
  Zr  Zr39  1  0.09103531  0.88811908  0.70046720  1
  Zr  Zr40  1  0.10501255  0.69627042  0.89983098  1
  Zr  Zr41  1  0.70449916  0.30894370  0.11097906  1
  Zr  Zr42  1  0.29475542  0.89524622  0.49806977  1
  Zr  Zr43  1  0.50543366  0.89350020  0.69876404  1
  Zr  Zr44  1  0.09397509  0.10527210  0.70468146  1
  Zr  Zr45  1  0.89812304  0.29713881  0.30193321  1
  Zr  Zr46  1  0.90808966  0.09728563  0.10368070  1
  Zr  Zr47  1  0.10576178  0.29944352  0.09782329  1
  Zr  Zr48  1  0.28723540  0.10189931  0.09661336  1
  Zr  Zr49  1  0.89204292  0.29718812  0.69980073  1
  Sc  Sc50  1  0.91531200  0.49738223  0.30328042  1
  Sc  Sc51  1  0.49487110  0.90000595  0.50499601  1
  Sc  Sc52  1  0.29436809  0.69561527  0.10059894  1
  Sc  Sc53  1  0.30243192  0.49703319  0.90277792  1
  Sc  Sc54  1  0.49419164  0.89393456  0.09459925  1
  Sc  Sc55  1  0.70033214  0.29822974  0.30176003  1
  Sc  Sc56  1  0.68693143  0.49734118  0.70037958  1
  Sc  Sc57  1  0.49677663  0.50052388  0.69907907  1
  Sc  Sc58  1  0.10255450  0.89785903  0.89837602  1
  Sc  Sc59  1  0.29181364  0.50294177  0.30587361  1
  Sc  Sc60  1  0.09862216  0.69321267  0.28919820  1
  Sc  Sc61  1  0.49338037  0.69203850  0.69563316  1
  Sc  Sc62  1  0.70097276  0.10054581  0.30655874  1
  Sc  Sc63  1  0.70302982  0.50301433  0.90272404  1
  Sc  Sc64  1  0.69462229  0.29676156  0.70140359  1
  Sc  Sc65  1  0.69394056  0.69697565  0.50972249  1
  Sc  Sc66  1  0.89531483  0.49890139  0.89950249  1
  Sc  Sc67  1  0.10446686  0.89209524  0.29762630  1
  Sc  Sc68  1  0.49508499  0.88580941  0.29004592  1
  Sc  Sc69  1  0.50603839  0.30045940  0.90142695  1
  Sc  Sc70  1  0.10314129  0.30176420  0.70157458  1
  Sc  Sc71  1  0.89680147  0.88912018  0.70132808  1
  Sc  Sc72  1  0.30340913  0.89937088  0.69842512  1
  Sc  Sc73  1  0.89362182  0.90820125  0.09582337  1
  Sc  Sc74  1  0.89535550  0.31247882  0.89120876  1
  Sc  Sc75  1  0.90042964  0.89557020  0.90037118  1
  Sc  Sc76  1  0.70603473  0.68273469  0.09808119  1
  Sc  Sc77  1  0.91567227  0.70750305  0.69684939  1
  Sc  Sc78  1  0.30522330  0.50264235  0.69692865  1
  Sc  Sc79  1  0.29656079  0.09993297  0.69627287  1
  Sc  Sc80  1  0.49776485  0.50203390  0.30569363  1
  Sc  Sc81  1  0.89392242  0.50527725  0.09933318  1
  Sc  Sc82  1  0.49271917  0.69488703  0.29735783  1
  Sc  Sc83  1  0.70318509  0.09707801  0.09648560  1
  Sc  Sc84  1  0.30348681  0.30734534  0.50338350  1
  Sc  Sc85  1  0.29950280  0.08939036  0.89563849  1
  Sc  Sc86  1  0.90219867  0.28872490  0.49269680  1
  Sc  Sc87  1  0.70429476  0.30777024  0.88891239  1
  Sc  Sc88  1  0.69801209  0.10778883  0.90084684  1
  Sc  Sc89  1  0.09918883  0.09386350  0.28921343  1
  Sc  Sc90  1  0.49861683  0.50810368  0.50657125  1
  Sc  Sc91  1  0.50619536  0.11182231  0.69044265  1
  Sc  Sc92  1  0.68949435  0.71337362  0.69930544  1
  Sc  Sc93  1  0.49939021  0.69625179  0.89636763  1
  Sc  Sc94  1  0.09451747  0.31153671  0.29719056  1
  Sc  Sc95  1  0.29637852  0.70147045  0.30247343  1
  Sc  Sc96  1  0.70335163  0.91012160  0.30361441  1
  Sc  Sc97  1  0.10060400  0.69490928  0.50693337  1
  Sc  Sc98  1  0.50467886  0.10609600  0.49871054  1
  Sc  Sc99  1  0.50142994  0.50677032  0.89530859  1
  Nb  Nb100  1  0.50265464  0.30195250  0.70006112  1
  Nb  Nb101  1  0.90068813  0.69954524  0.29925514  1
  Nb  Nb102  1  0.29941344  0.89556232  0.09913573  1
  Nb  Nb103  1  0.09623142  0.10024831  0.09235596  1
  Nb  Nb104  1  0.09587392  0.69603375  0.09997057  1
  Nb  Nb105  1  0.90519498  0.69538461  0.10751797  1
  Nb  Nb106  1  0.10077469  0.49642572  0.30561632  1
  Nb  Nb107  1  0.29774372  0.49420170  0.49761332  1
  Nb  Nb108  1  0.90380731  0.10401197  0.50272361  1
  Nb  Nb109  1  0.70681340  0.50272860  0.50007888  1
  Nb  Nb110  1  0.70452352  0.10580348  0.70069861  1
  Nb  Nb111  1  0.50024959  0.70021614  0.50129053  1
  Nb  Nb112  1  0.30072941  0.10091958  0.29836469  1
  Nb  Nb113  1  0.89957960  0.69710082  0.49908445  1
  Nb  Nb114  1  0.09472293  0.49740978  0.90022397  1
  Nb  Nb115  1  0.09236166  0.49724380  0.48471365  1
  Nb  Nb116  1  0.69900827  0.90300092  0.69932292  1
  Nb  Nb117  1  0.28743416  0.69270997  0.69824962  1
  Nb  Nb118  1  0.10923060  0.70030952  0.70368909  1
  Nb  Nb119  1  0.90500861  0.50504932  0.49900798  1
  Nb  Nb120  1  0.69798269  0.49881077  0.10025954  1
  Nb  Nb121  1  0.89422521  0.10951993  0.69566456  1
  Nb  Nb122  1  0.70470221  0.89903093  0.09708516  1
  Nb  Nb123  1  0.70358686  0.70094956  0.90244668  1
  Nb  Nb124  1  0.29967186  0.49409910  0.10289148  1
  Nb  Nb125  1  0.20255728  0.19853372  0.39659185  1
  Nb  Nb126  1  0.60084973  0.79661669  0.40236278  1
  Nb  Nb127  1  0.79907839  0.79152449  0.39819508  1
  Nb  Nb128  1  0.60892054  0.79631360  -0.00049313  1
  Nb  Nb129  1  0.00633452  0.40423174  -0.00000401  1
  Nb  Nb130  1  0.80741462  0.20575691  0.00189717  1
  Nb  Nb131  1  0.39448731  -0.00043441  0.39112756  1
  Nb  Nb132  1  0.80238541  0.79496779  0.20108362  1
  Nb  Nb133  1  0.00140770  0.79055084  0.01017566  1
  Nb  Nb134  1  0.60723972  -0.00046735  0.79489911  1
  Nb  Nb135  1  -0.00533326  0.00627661  0.60077460  1
  Nb  Nb136  1  0.59486751  -0.00219844  0.19412489  1
  Nb  Nb137  1  -0.00225434  -0.00276166  0.40778557  1
  Nb  Nb138  1  0.39840489  0.39885341  0.19736850  1
  Nb  Nb139  1  0.39473308  0.20049137  0.19979291  1
  Nb  Nb140  1  0.39618396  0.00380068  0.19912324  1
  Nb  Nb141  1  0.79695895  0.60830467  0.79451640  1
  Nb  Nb142  1  0.40261630  0.20540512  0.79674811  1
  Nb  Nb143  1  -0.00831957  0.79628533  0.39943426  1
  Nb  Nb144  1  0.60480977  0.40593671  0.00713834  1
  Nb  Nb145  1  0.80409883  0.40765624  0.59279750  1
  Nb  Nb146  1  0.80450286  0.60008132  0.40428346  1
  Nb  Nb147  1  0.79601017  0.00431721  0.79182760  1
  Nb  Nb148  1  0.80402685  0.59784700  0.60147112  1
  Nb  Nb149  1  -0.00304735  0.40520765  0.59509133  1
  Pd  Pd150  1  -0.00530172  0.80598481  0.19840974  1
  Pd  Pd151  1  0.41289832  0.40409367  0.00295611  1
  Pd  Pd152  1  0.19751590  0.20626126  0.20807232  1
  Pd  Pd153  1  0.19711132  0.00496361  0.39472454  1
  Pd  Pd154  1  -0.00744251  0.60958752  0.80715268  1
  Pd  Pd155  1  0.21100152  0.20015787  0.80270846  1
  Pd  Pd156  1  0.19424101  0.60493945  0.40082661  1
  Pd  Pd157  1  0.80230807  0.59381133  0.21030367  1
  Pd  Pd158  1  -0.00437601  0.21242623  -0.01015128  1
  Pd  Pd159  1  0.41103074  0.01107890  0.78683079  1
  Pd  Pd160  1  -0.00330357  0.20935324  0.80382357  1
  Pd  Pd161  1  0.39648085  0.79340158  0.79204882  1
  Pd  Pd162  1  0.20457393  0.80704611  0.79807472  1
  Pd  Pd163  1  0.00834704  0.20065182  0.20485654  1
  Pd  Pd164  1  0.00417048  -0.01315869  0.00141507  1
  Pd  Pd165  1  0.40842712  0.39980561  0.80038227  1
  Pd  Pd166  1  0.60577636  -0.01048599  -0.00351450  1
  Pd  Pd167  1  0.39603641  0.19724312  0.39914910  1
  Pd  Pd168  1  0.80978405  0.40962596  0.20836585  1
  Pd  Pd169  1  0.79560475  0.19187790  0.19673717  1
  Pd  Pd170  1  0.39478408  0.00508654  0.00750183  1
  Pd  Pd171  1  0.20214625  0.19529939  -0.01309458  1
  Pd  Pd172  1  0.80656233  0.00058144  0.60664984  1
  Pd  Pd173  1  0.40596171  0.80164655  0.40093105  1
  Pd  Pd174  1  0.19638136  0.58820443  0.59360397  1
  Pd  Pd175  1  -0.00611128  0.59721692  -0.00336729  1
  Pd  Pd176  1  0.60126024  0.40103145  0.59599925  1
  Pd  Pd177  1  0.39583840  0.59702365  0.40411567  1
  Pd  Pd178  1  -0.01163032  -0.00456058  0.79106955  1
  Pd  Pd179  1  0.39038496  0.59494481  0.20423089  1
  Pd  Pd180  1  0.20090277  -0.00166802  0.19707911  1
  Pd  Pd181  1  0.59021468  0.40462958  0.41074794  1
  Pd  Pd182  1  0.19075155  -0.00296168  0.61027808  1
  Pd  Pd183  1  0.20730637  0.59063694  0.80578219  1
  Pd  Pd184  1  0.59547392  0.00591398  0.60389684  1
  Pd  Pd185  1  0.40698483  0.78568176  0.00580385  1
  Pd  Pd186  1  0.39651677  0.60388818  -0.00044773  1
  Pd  Pd187  1  0.39677553  0.79399302  0.60515310  1
  Pd  Pd188  1  0.40569987  0.00396176  0.59765117  1
  Pd  Pd189  1  0.58647571  -0.01213480  0.39339596  1
  Pd  Pd190  1  0.60537294  0.60281468  0.79895225  1
  Pd  Pd191  1  0.60172966  0.60390645  0.40376479  1
  Pd  Pd192  1  0.61781762  0.21559047  -0.00061333  1
  Pd  Pd193  1  0.20516050  0.59469014  -0.00035607  1
  Pd  Pd194  1  0.00284510  0.59887965  0.60231382  1
  Pd  Pd195  1  0.59825304  0.80253097  0.80873381  1
  Pd  Pd196  1  0.19012088  0.40993793  0.59831794  1
  Pd  Pd197  1  0.61155487  0.80663307  0.19777566  1
  Pd  Pd198  1  0.20557809  0.20536478  0.59541533  1
  Pd  Pd199  1  0.19963216  -0.00943621  0.79531968  1
  Rh  Rh200  1  -0.00662507  0.39415281  0.40405238  1
  Rh  Rh201  1  0.59637004  0.40261103  0.80806450  1
  Rh  Rh202  1  0.00605332  -0.00275215  0.19821446  1
  Rh  Rh203  1  0.19478724  0.79649945  0.00324109  1
  Rh  Rh204  1  0.20208563  0.78999829  0.19476945  1
  Rh  Rh205  1  0.79532633  0.20994499  0.59321058  1
  Rh  Rh206  1  0.00724948  0.79777241  0.59344112  1
  Rh  Rh207  1  0.00360362  0.79318514  0.81277347  1
  Rh  Rh208  1  0.60428084  0.19062629  0.20123726  1
  Rh  Rh209  1  0.40281404  0.40826285  0.40051013  1
  Rh  Rh210  1  0.20298501  0.40793425  0.79807160  1
  Rh  Rh211  1  0.80169683  0.19326868  0.80869737  1
  Rh  Rh212  1  0.79631854  0.78958480  0.60212410  1
  Rh  Rh213  1  0.39052079  0.19547707  -0.00735679  1
  Rh  Rh214  1  0.60325699  0.60015308  -0.00412341  1
  Rh  Rh215  1  0.18778332  0.78789195  0.39833562  1
  Rh  Rh216  1  0.60564692  0.20191813  0.40624476  1
  Rh  Rh217  1  0.80709021  0.00094497  0.40882549  1
  Rh  Rh218  1  0.19584856  -0.00327223  -0.00021911  1
  Rh  Rh219  1  0.39406243  0.60118022  0.59709539  1
  Rh  Rh220  1  0.60786758  0.20506259  0.59617582  1
  Rh  Rh221  1  0.59305752  0.79825886  0.59379280  1
  Rh  Rh222  1  0.00955167  0.19200636  0.38858066  1
  Rh  Rh223  1  0.39009959  0.79790169  0.19354576  1
  Rh  Rh224  1  0.79761316  0.01096857  -0.00907947  1
  Rh  Rh225  1  0.59029586  0.40742340  0.19645906  1
  Rh  Rh226  1  0.39490682  0.20192210  0.60836285  1
  Rh  Rh227  1  0.20501272  0.40522558  0.20385702  1
  Rh  Rh228  1  0.59393444  0.19841785  0.79758307  1
  Rh  Rh229  1  0.80925556  0.40464680  0.40112036  1
  Rh  Rh230  1  0.80127662  0.59764537  -0.00384337  1
  Rh  Rh231  1  0.00185914  0.59245650  0.20479674  1
  Rh  Rh232  1  0.78899822  0.41198932  0.78799921  1
  Rh  Rh233  1  0.19991235  0.39626686  0.40352858  1
  Rh  Rh234  1  0.40452862  0.40664332  0.59705342  1
  Rh  Rh235  1  0.00540181  0.39610538  0.79969776  1
  Rh  Rh236  1  0.20054022  0.59627227  0.20209148  1
  Rh  Rh237  1  0.39384847  0.60254464  0.79744221  1
  Rh  Rh238  1  0.79704878  0.19669383  0.40159147  1
  Rh  Rh239  1  0.79938709  0.79670229  0.78970251  1
  Rh  Rh240  1  0.60130602  0.59001878  0.20754280  1
  Rh  Rh241  1  0.79895128  0.39572756  0.00345764  1
  Rh  Rh242  1  0.00100793  0.40649472  0.19205195  1
  Rh  Rh243  1  0.78923845  0.00004413  0.19624530  1
  Rh  Rh244  1  0.60159752  0.60031099  0.60207684  1
  Rh  Rh245  1  0.80207039  0.79096329  0.01885370  1
  Rh  Rh246  1  -0.00147741  0.20507340  0.60849503  1
  Rh  Rh247  1  0.19280146  0.41109318  -0.00155627  1
  Rh  Rh248  1  0.20233929  0.79790931  0.60544684  1
  Rh  Rh249  1  0.00295826  0.60722520  0.39438636  1
