# generated using pymatgen
data_ZrScNbPdRh
_symmetry_space_group_name_H-M   'P 1'
_cell_length_a   16.56501959
_cell_length_b   16.56148119
_cell_length_c   16.55893328
_cell_angle_alpha   89.97594655
_cell_angle_beta   89.98412805
_cell_angle_gamma   89.99285645
_symmetry_Int_Tables_number   1
_chemical_formula_structural   ZrScNbPdRh
_chemical_formula_sum   'Zr50 Sc50 Nb50 Pd50 Rh50'
_cell_volume   4542.79801724
_cell_formula_units_Z   50
loop_
 _symmetry_equiv_pos_site_id
 _symmetry_equiv_pos_as_xyz
  1  'x, y, z'
loop_
 _atom_site_type_symbol
 _atom_site_label
 _atom_site_symmetry_multiplicity
 _atom_site_fract_x
 _atom_site_fract_y
 _atom_site_fract_z
 _atom_site_occupancy
  Zr  Zr0  1  0.49936673  0.50868686  0.50757270  1
  Zr  Zr1  1  0.89927063  0.50176227  0.49702436  1
  Zr  Zr2  1  0.10360864  0.89505691  0.29457236  1
  Zr  Zr3  1  0.90075152  0.49701571  0.11022730  1
  Zr  Zr4  1  0.49488371  0.29938960  0.50094401  1
  Zr  Zr5  1  0.30276310  0.49698101  0.90102046  1
  Zr  Zr6  1  0.11243614  0.71126545  0.10121006  1
  Zr  Zr7  1  0.49227735  0.89931642  0.49393446  1
  Zr  Zr8  1  0.29846016  0.10551728  0.29590261  1
  Zr  Zr9  1  0.90623711  0.69926381  0.50189823  1
  Zr  Zr10  1  0.29906913  0.49849794  0.30664029  1
  Zr  Zr11  1  0.09927872  0.90013871  0.69763722  1
  Zr  Zr12  1  0.29758510  0.70429474  0.70153868  1
  Zr  Zr13  1  0.70704786  0.50308987  0.30065774  1
  Zr  Zr14  1  0.09227636  0.09849321  0.49518387  1
  Zr  Zr15  1  0.30342273  0.10983535  0.09564956  1
  Zr  Zr16  1  0.69978661  0.29855919  0.89602661  1
  Zr  Zr17  1  0.30829774  0.90613259  0.89414859  1
  Zr  Zr18  1  0.09624434  0.09841145  0.09949453  1
  Zr  Zr19  1  0.10026122  0.49961032  0.10296641  1
  Zr  Zr20  1  0.69418135  0.70086110  0.49278524  1
  Zr  Zr21  1  0.70280653  0.09910453  0.49200476  1
  Zr  Zr22  1  0.90245625  0.29771844  0.90226876  1
  Zr  Zr23  1  0.50752848  0.70619910  0.30780257  1
  Zr  Zr24  1  0.09816208  0.49515808  0.90139454  1
  Zr  Zr25  1  0.70752115  0.29349234  0.30985630  1
  Zr  Zr26  1  0.29585562  0.10455172  0.51048129  1
  Zr  Zr27  1  0.89416054  0.10163474  0.30993964  1
  Zr  Zr28  1  0.09946816  0.89411547  0.50156169  1
  Zr  Zr29  1  0.89852090  0.29167326  0.69861084  1
  Zr  Zr30  1  0.89961998  0.89308459  0.90383551  1
  Zr  Zr31  1  0.50621917  0.30966499  0.70405677  1
  Zr  Zr32  1  0.70205149  0.30499067  0.09575983  1
  Zr  Zr33  1  0.70905482  0.89587768  0.30935137  1
  Zr  Zr34  1  0.49271312  0.29854581  0.30006859  1
  Zr  Zr35  1  0.49329267  0.30079611  0.10671789  1
  Zr  Zr36  1  0.70189353  0.69908465  0.10634191  1
  Zr  Zr37  1  0.89913874  0.09441324  0.69499306  1
  Zr  Zr38  1  0.09462200  0.29934263  0.90741809  1
  Zr  Zr39  1  0.49915031  0.90508250  0.90248243  1
  Zr  Zr40  1  0.50068048  0.09772383  0.31229216  1
  Zr  Zr41  1  0.50116060  0.09521532  0.70010414  1
  Zr  Zr42  1  0.90332893  0.90299037  0.29630444  1
  Zr  Zr43  1  0.29841811  0.29612159  0.91852919  1
  Zr  Zr44  1  0.70068669  0.90907080  0.69825192  1
  Zr  Zr45  1  0.70241969  0.29150533  0.70044272  1
  Zr  Zr46  1  0.50360795  0.70264409  0.50659446  1
  Zr  Zr47  1  0.49807266  0.69487491  0.89212493  1
  Zr  Zr48  1  0.30085884  0.89043857  0.09746602  1
  Zr  Zr49  1  0.49447482  0.69084685  0.69329860  1
  Sc  Sc50  1  0.70736565  0.90371533  0.89739762  1
  Sc  Sc51  1  0.10253797  0.50473271  0.49917869  1
  Sc  Sc52  1  0.69938050  0.09846444  0.89090034  1
  Sc  Sc53  1  0.08850791  0.29972332  0.09839822  1
  Sc  Sc54  1  0.09575973  0.30140391  0.69048071  1
  Sc  Sc55  1  0.90065908  0.90579808  0.49110866  1
  Sc  Sc56  1  0.90607701  0.08795378  0.90201845  1
  Sc  Sc57  1  0.69096232  0.50057284  0.90675717  1
  Sc  Sc58  1  0.70302135  0.50325116  0.50030021  1
  Sc  Sc59  1  0.09381810  0.28856695  0.30030558  1
  Sc  Sc60  1  0.09319665  0.49644813  0.69426684  1
  Sc  Sc61  1  0.90912869  0.49855627  0.88906547  1
  Sc  Sc62  1  0.30426795  0.89296140  0.30495402  1
  Sc  Sc63  1  0.30231125  0.50300654  0.69384834  1
  Sc  Sc64  1  0.29501556  0.89632931  0.69304767  1
  Sc  Sc65  1  0.10103721  0.70386796  0.68681521  1
  Sc  Sc66  1  0.90249271  0.71992831  0.10135006  1
  Sc  Sc67  1  0.29691085  0.71464973  0.89744230  1
  Sc  Sc68  1  0.29681362  0.69402000  0.29229584  1
  Sc  Sc69  1  0.69692977  0.69910228  0.69401515  1
  Sc  Sc70  1  0.90295044  0.09783397  0.10016051  1
  Sc  Sc71  1  0.50091264  0.09412208  0.09378518  1
  Sc  Sc72  1  0.70284290  0.50022352  0.10613504  1
  Sc  Sc73  1  0.89090477  0.29253335  0.50342137  1
  Sc  Sc74  1  0.69512748  0.49807902  0.69811644  1
  Sc  Sc75  1  0.70867218  0.70181467  0.89943664  1
  Sc  Sc76  1  0.49727048  0.31428509  0.89630473  1
  Sc  Sc77  1  0.49500813  0.08802836  0.89905493  1
  Sc  Sc78  1  0.89379914  0.49943539  0.29575756  1
  Sc  Sc79  1  0.49824277  0.50523758  0.30158636  1
  Sc  Sc80  1  0.29505403  0.30000375  0.67765022  1
  Sc  Sc81  1  0.89328350  0.70711901  0.30118076  1
  Sc  Sc82  1  0.09358032  0.90309494  0.90012472  1
  Sc  Sc83  1  0.50237112  0.70274936  0.11332464  1
  Sc  Sc84  1  0.30029639  0.69720905  0.50785356  1
  Sc  Sc85  1  0.90752807  0.90299920  0.09846401  1
  Sc  Sc86  1  0.09301067  0.09752369  0.29706013  1
  Sc  Sc87  1  0.70911188  0.09916127  0.09953838  1
  Sc  Sc88  1  0.89970376  0.30350687  0.10229453  1
  Sc  Sc89  1  0.70513392  0.09591274  0.70000120  1
  Sc  Sc90  1  0.50806297  0.49913501  0.10224825  1
  Sc  Sc91  1  0.49582666  0.09349907  0.49897551  1
  Sc  Sc92  1  0.70900551  0.89635494  0.10130531  1
  Sc  Sc93  1  0.10213070  0.29467056  0.50037996  1
  Sc  Sc94  1  0.50314983  0.90146661  0.68881443  1
  Sc  Sc95  1  0.89635573  0.69024594  0.70198320  1
  Sc  Sc96  1  0.29769139  0.50285734  0.10325995  1
  Sc  Sc97  1  0.90343904  0.49835639  0.69515564  1
  Sc  Sc98  1  0.09835684  0.09515663  0.68253423  1
  Sc  Sc99  1  0.10381108  0.50531143  0.30336741  1
  Nb  Nb100  1  0.69709798  0.30000035  0.50185360  1
  Nb  Nb101  1  0.09490742  0.70003780  0.49399899  1
  Nb  Nb102  1  0.10138777  0.69979967  0.29955325  1
  Nb  Nb103  1  0.50474881  0.89911253  0.10317152  1
  Nb  Nb104  1  0.29923940  0.69520718  0.09543475  1
  Nb  Nb105  1  0.89856746  0.90681460  0.70591673  1
  Nb  Nb106  1  0.29570270  0.10117557  0.70198380  1
  Nb  Nb107  1  0.49685538  0.50545833  0.71580278  1
  Nb  Nb108  1  0.90417540  0.09799091  0.50170413  1
  Nb  Nb109  1  0.29655919  0.48714662  0.50006130  1
  Nb  Nb110  1  0.10260830  0.10286837  0.90427513  1
  Nb  Nb111  1  0.09994625  0.90246831  0.10532925  1
  Nb  Nb112  1  0.30835196  0.29725451  0.11354662  1
  Nb  Nb113  1  0.69732792  0.10115415  0.30146685  1
  Nb  Nb114  1  0.29818688  0.90253765  0.49868844  1
  Nb  Nb115  1  0.29860325  0.10071171  0.90045811  1
  Nb  Nb116  1  0.30498154  0.30078723  0.29442850  1
  Nb  Nb117  1  0.70057325  0.70310651  0.29730123  1
  Nb  Nb118  1  0.49373595  0.50467355  0.88609095  1
  Nb  Nb119  1  0.49887488  0.89902207  0.29531740  1
  Nb  Nb120  1  0.69926547  0.89974707  0.50988514  1
  Nb  Nb121  1  0.90324972  0.70148586  0.90199547  1
  Nb  Nb122  1  0.29713093  0.31113779  0.49212110  1
  Nb  Nb123  1  0.09713095  0.70202719  0.89550879  1
  Nb  Nb124  1  0.89915649  0.30664294  0.30280433  1
  Nb  Nb125  1  0.19570469  0.59845374  0.80234574  1
  Nb  Nb126  1  0.60249430  0.39740649  0.40393671  1
  Nb  Nb127  1  0.59826777  0.80148326  0.80119307  1
  Nb  Nb128  1  0.81385026  0.60322391  0.00106197  1
  Nb  Nb129  1  0.00524638  0.61004065  0.19814349  1
  Nb  Nb130  1  0.20210249  -0.00198712  0.40371808  1
  Nb  Nb131  1  0.80051262  0.80618357  0.59820319  1
  Nb  Nb132  1  -0.00554852  0.79860485  0.79971485  1
  Nb  Nb133  1  0.59751445  0.80121813  -0.00210298  1
  Nb  Nb134  1  0.38950127  0.19802744  0.79795211  1
  Nb  Nb135  1  0.20061540  0.00282079  -0.00073235  1
  Nb  Nb136  1  -0.00623022  0.39669271  0.39731865  1
  Nb  Nb137  1  0.60186774  0.20210121  0.59603258  1
  Nb  Nb138  1  0.00079413  0.60919963  0.00147911  1
  Nb  Nb139  1  0.60321106  0.19470314  0.20218629  1
  Nb  Nb140  1  0.40091476  0.60388349  -0.00196098  1
  Nb  Nb141  1  0.60114664  0.20373549  0.00206914  1
  Nb  Nb142  1  0.79881063  0.39363280  0.79895480  1
  Nb  Nb143  1  0.60052418  -0.00165768  0.20661244  1
  Nb  Nb144  1  0.19911602  0.39571337  0.80069598  1
  Nb  Nb145  1  0.19997430  0.19922447  0.80053826  1
  Nb  Nb146  1  0.00831470  0.19172950  0.80070235  1
  Nb  Nb147  1  0.20559095  0.39071542  0.20452062  1
  Nb  Nb148  1  0.40617062  -0.00516330  0.20118289  1
  Nb  Nb149  1  0.19985543  0.00990596  0.80270829  1
  Pd  Pd150  1  0.40283308  0.40675510  0.60550325  1
  Pd  Pd151  1  0.79678861  0.60426737  0.59871862  1
  Pd  Pd152  1  -0.00128774  0.79950899  0.39405932  1
  Pd  Pd153  1  0.20347727  0.19845855  0.40115562  1
  Pd  Pd154  1  0.20184925  0.60466868  -0.00795722  1
  Pd  Pd155  1  -0.00432522  0.59493022  0.38995360  1
  Pd  Pd156  1  0.19520549  0.81093125  -0.00853727  1
  Pd  Pd157  1  0.60026664  0.40256604  0.59765773  1
  Pd  Pd158  1  -0.00994383  0.19752605  0.20053907  1
  Pd  Pd159  1  -0.01264419  0.80327361  0.60756369  1
  Pd  Pd160  1  0.39342458  0.78994117  0.40227352  1
  Pd  Pd161  1  0.00713995  0.60691593  0.79505854  1
  Pd  Pd162  1  0.39012144  0.19912693  0.40626040  1
  Pd  Pd163  1  0.79939287  0.79796995  0.78964163  1
  Pd  Pd164  1  0.59941032  0.59937817  0.20713584  1
  Pd  Pd165  1  0.61192007  0.60461032  0.79874997  1
  Pd  Pd166  1  0.40738399  0.40534115  0.39983038  1
  Pd  Pd167  1  0.39429774  -0.00435012  0.60352292  1
  Pd  Pd168  1  0.39449911  0.60420512  0.40702296  1
  Pd  Pd169  1  0.61089569  -0.00049052  0.00574910  1
  Pd  Pd170  1  0.40175090  0.59716481  0.19476667  1
  Pd  Pd171  1  -0.00157034  0.39741405  0.58718436  1
  Pd  Pd172  1  0.79864061  -0.00095819  0.20065072  1
  Pd  Pd173  1  0.20547570  0.79620311  0.40243121  1
  Pd  Pd174  1  0.19750717  0.59677114  0.60151628  1
  Pd  Pd175  1  0.41554615  0.19897969  -0.00940893  1
  Pd  Pd176  1  0.38335963  0.38845144  0.79036475  1
  Pd  Pd177  1  0.60302174  -0.01024209  0.40127778  1
  Pd  Pd178  1  0.80184497  0.60687794  0.39720195  1
  Pd  Pd179  1  0.19185068  0.20668486  0.19440143  1
  Pd  Pd180  1  0.40636765  0.20100974  0.60538532  1
  Pd  Pd181  1  0.80724090  0.41333398  -0.00821822  1
  Pd  Pd182  1  0.39632290  0.79778141  0.20188796  1
  Pd  Pd183  1  0.80039728  0.40209698  0.60461798  1
  Pd  Pd184  1  0.18706049  0.39199829  0.39274299  1
  Pd  Pd185  1  0.20442248  0.60616555  0.40714983  1
  Pd  Pd186  1  0.41044170  0.79119400  0.00519235  1
  Pd  Pd187  1  0.40545014  0.41128924  0.00967053  1
  Pd  Pd188  1  0.59162577  0.40012337  -0.00304840  1
  Pd  Pd189  1  0.59709142  0.60623710  0.00155543  1
  Pd  Pd190  1  0.20940541  -0.00459930  0.19997541  1
  Pd  Pd191  1  0.60578798  0.39368005  0.21192788  1
  Pd  Pd192  1  0.79596480  0.58883409  0.80683594  1
  Pd  Pd193  1  0.40896488  0.80749647  0.78798615  1
  Pd  Pd194  1  0.60118624  0.80858282  0.40210922  1
  Pd  Pd195  1  0.58713859  0.19492209  0.80465421  1
  Pd  Pd196  1  0.20127666  0.39319834  0.01213767  1
  Pd  Pd197  1  0.79923721  0.19164195  -0.00589661  1
  Pd  Pd198  1  0.79918746  0.00124753  -0.00226944  1
  Pd  Pd199  1  0.80176597  0.20278628  0.19900601  1
  Rh  Rh200  1  -0.00344403  0.00180375  0.20251387  1
  Rh  Rh201  1  -0.00858977  0.40946934  0.00416349  1
  Rh  Rh202  1  0.79278998  0.18983256  0.59391498  1
  Rh  Rh203  1  0.39757768  0.80308063  0.59816107  1
  Rh  Rh204  1  0.39401197  0.00192739  0.78870398  1
  Rh  Rh205  1  0.59979944  0.59506772  0.60540466  1
  Rh  Rh206  1  0.00417971  0.60087775  0.59718269  1
  Rh  Rh207  1  -0.00944767  0.20636895  0.40285990  1
  Rh  Rh208  1  0.20184516  -0.00386878  0.59672798  1
  Rh  Rh209  1  0.20711522  0.79870316  0.20266749  1
  Rh  Rh210  1  0.19636218  0.59657758  0.20120697  1
  Rh  Rh211  1  0.19674468  0.20037532  0.00846233  1
  Rh  Rh212  1  0.79317538  0.79446667  0.00293573  1
  Rh  Rh213  1  -0.00729139  0.19501605  -0.00142129  1
  Rh  Rh214  1  0.60825748  0.40759408  0.80212479  1
  Rh  Rh215  1  0.00378500  0.79821919  0.20343382  1
  Rh  Rh216  1  0.79950554  0.00021721  0.40368850  1
  Rh  Rh217  1  0.39120623  -0.00142033  0.01161755  1
  Rh  Rh218  1  0.60035098  0.00978763  0.59285710  1
  Rh  Rh219  1  0.81498912  0.19608140  0.80591307  1
  Rh  Rh220  1  -0.00104875  0.38569325  0.79308089  1
  Rh  Rh221  1  0.38758271  0.00088263  0.39373183  1
  Rh  Rh222  1  0.00863451  0.80099985  -0.00394651  1
  Rh  Rh223  1  0.80985831  0.61187713  0.19375807  1
  Rh  Rh224  1  0.80426745  0.00410071  0.80509580  1
  Rh  Rh225  1  0.00746602  -0.00455364  0.00484764  1
  Rh  Rh226  1  0.41278006  0.18650815  0.20132206  1
  Rh  Rh227  1  0.59934755  -0.00679020  0.79900015  1
  Rh  Rh228  1  0.59861526  0.20806422  0.40373966  1
  Rh  Rh229  1  0.38365290  0.60351348  0.80483970  1
  Rh  Rh230  1  0.00660990  0.00001159  0.79678769  1
  Rh  Rh231  1  -0.00650271  -0.00705308  0.59437071  1
  Rh  Rh232  1  0.00976937  0.40701458  0.21312393  1
  Rh  Rh233  1  0.80005304  0.39944212  0.40496925  1
  Rh  Rh234  1  0.60461993  0.80124396  0.60519215  1
  Rh  Rh235  1  0.39468822  0.59423675  0.59832542  1
  Rh  Rh236  1  0.00729969  -0.00259303  0.39581378  1
  Rh  Rh237  1  0.39365567  0.41144301  0.19958582  1
  Rh  Rh238  1  0.79999672  0.80408154  0.20116779  1
  Rh  Rh239  1  -0.00015468  0.19787758  0.60008334  1
  Rh  Rh240  1  0.60911831  0.80757399  0.19862549  1
  Rh  Rh241  1  0.18774890  0.80329484  0.79991156  1
  Rh  Rh242  1  0.79406818  0.39250083  0.20217799  1
  Rh  Rh243  1  0.20050976  0.79712683  0.59067434  1
  Rh  Rh244  1  0.80536014  0.19884678  0.40557507  1
  Rh  Rh245  1  0.80043698  0.79849498  0.40962822  1
  Rh  Rh246  1  0.80526415  -0.00332736  0.59224528  1
  Rh  Rh247  1  0.19613296  0.40365904  0.59897746  1
  Rh  Rh248  1  0.60337030  0.59360733  0.39433045  1
  Rh  Rh249  1  0.19644194  0.20276245  0.59637271  1
