# generated using pymatgen
data_ZrScNbPdRh
_symmetry_space_group_name_H-M   'P 1'
_cell_length_a   16.55179275
_cell_length_b   16.55126027
_cell_length_c   16.54942752
_cell_angle_alpha   90.00384686
_cell_angle_beta   89.98617778
_cell_angle_gamma   89.98292754
_symmetry_Int_Tables_number   1
_chemical_formula_structural   ZrScNbPdRh
_chemical_formula_sum   'Zr50 Sc50 Nb50 Pd50 Rh50'
_cell_volume   4533.76546835
_cell_formula_units_Z   50
loop_
 _symmetry_equiv_pos_site_id
 _symmetry_equiv_pos_as_xyz
  1  'x, y, z'
loop_
 _atom_site_type_symbol
 _atom_site_label
 _atom_site_symmetry_multiplicity
 _atom_site_fract_x
 _atom_site_fract_y
 _atom_site_fract_z
 _atom_site_occupancy
  Zr  Zr0  1  0.69361310  0.30111152  0.30658625  1
  Zr  Zr1  1  0.09156541  0.11239349  0.30261735  1
  Zr  Zr2  1  0.50573150  0.69448332  0.69619705  1
  Zr  Zr3  1  0.08526203  0.50933160  0.90656766  1
  Zr  Zr4  1  0.09948274  0.90557014  0.69657452  1
  Zr  Zr5  1  0.90011924  0.90171366  0.69339669  1
  Zr  Zr6  1  0.49483253  0.30221395  0.89664235  1
  Zr  Zr7  1  0.29950525  0.30482755  0.09496760  1
  Zr  Zr8  1  0.29464216  0.49628093  0.10054819  1
  Zr  Zr9  1  0.29543000  0.09574463  0.30371707  1
  Zr  Zr10  1  0.31296626  0.49260843  0.89742685  1
  Zr  Zr11  1  0.89514664  0.90537593  0.89920064  1
  Zr  Zr12  1  0.49706369  0.50266615  0.49493156  1
  Zr  Zr13  1  0.49612641  0.89643338  0.70349399  1
  Zr  Zr14  1  0.90214776  0.49886562  0.70825907  1
  Zr  Zr15  1  0.09933752  0.11807615  0.49925895  1
  Zr  Zr16  1  0.70930870  0.29434569  0.89642317  1
  Zr  Zr17  1  0.29744721  0.09860407  0.10507573  1
  Zr  Zr18  1  0.10241146  0.30524498  0.30854381  1
  Zr  Zr19  1  0.70646517  0.09859899  0.30873839  1
  Zr  Zr20  1  0.91008312  0.10187922  0.09913267  1
  Zr  Zr21  1  0.89484233  0.48909540  0.90254800  1
  Zr  Zr22  1  0.30010182  0.71057651  0.30198843  1
  Zr  Zr23  1  0.89668989  0.69520154  0.30875788  1
  Zr  Zr24  1  0.89857335  0.90093103  0.50625201  1
  Zr  Zr25  1  0.09067413  0.69775056  0.30008095  1
  Zr  Zr26  1  0.69831111  0.10195426  0.49493973  1
  Zr  Zr27  1  0.09653386  0.68613098  0.09749114  1
  Zr  Zr28  1  0.90890576  0.70346545  0.49389226  1
  Zr  Zr29  1  0.49826623  0.09984830  0.69907487  1
  Zr  Zr30  1  0.90467073  0.30368127  0.29649849  1
  Zr  Zr31  1  0.50588730  0.89844783  0.49933475  1
  Zr  Zr32  1  0.70266730  0.09559359  0.09934323  1
  Zr  Zr33  1  0.70118171  0.68952329  0.70063897  1
  Zr  Zr34  1  0.49933843  0.90035653  0.89741834  1
  Zr  Zr35  1  0.29965546  0.30323805  0.50368958  1
  Zr  Zr36  1  0.50193688  0.69802695  0.49484751  1
  Zr  Zr37  1  0.49952449  0.30519660  0.49279325  1
  Zr  Zr38  1  0.89701592  0.09802553  0.49031053  1
  Zr  Zr39  1  0.50354736  0.10087200  0.50242424  1
  Zr  Zr40  1  0.29612849  0.90638766  0.70273890  1
  Zr  Zr41  1  0.30037205  0.89633945  0.89510024  1
  Zr  Zr42  1  0.10393389  0.30234806  0.10133733  1
  Zr  Zr43  1  0.30167114  0.90048059  0.48429826  1
  Zr  Zr44  1  0.50710774  0.11344338  0.30153772  1
  Zr  Zr45  1  0.50044865  0.50090852  0.30098296  1
  Zr  Zr46  1  0.09708113  0.69607764  0.89860651  1
  Zr  Zr47  1  0.29931890  0.89543232  0.10712505  1
  Zr  Zr48  1  0.51082407  0.09642946  0.89452338  1
  Zr  Zr49  1  0.29158718  0.49478546  0.50758158  1
  Sc  Sc50  1  0.90868736  0.31496523  0.50006341  1
  Sc  Sc51  1  0.50568070  0.30091633  0.10539225  1
  Sc  Sc52  1  0.49411992  0.50687728  0.70332385  1
  Sc  Sc53  1  0.89599244  0.50388322  0.30550691  1
  Sc  Sc54  1  0.30321020  0.69553640  0.49499789  1
  Sc  Sc55  1  0.69715493  0.49070965  0.50073367  1
  Sc  Sc56  1  0.49318738  0.28956130  0.69438862  1
  Sc  Sc57  1  0.50142772  0.50198807  0.90459169  1
  Sc  Sc58  1  0.70099711  0.49492138  0.69671499  1
  Sc  Sc59  1  0.10988454  0.89691685  0.30084954  1
  Sc  Sc60  1  0.49980207  0.69307568  0.89539384  1
  Sc  Sc61  1  0.30849633  0.69549790  0.69798728  1
  Sc  Sc62  1  0.09781173  0.29939797  0.69843135  1
  Sc  Sc63  1  0.70060401  0.69489631  0.49226263  1
  Sc  Sc64  1  0.10197187  0.10933131  0.70103261  1
  Sc  Sc65  1  0.10303474  0.70269340  0.49234886  1
  Sc  Sc66  1  0.69851455  0.10485030  0.70221640  1
  Sc  Sc67  1  0.09656285  0.90104368  0.10777644  1
  Sc  Sc68  1  0.09078561  0.90164476  0.49936263  1
  Sc  Sc69  1  0.90604345  0.90165098  0.11130278  1
  Sc  Sc70  1  0.10526107  0.90342464  0.89561959  1
  Sc  Sc71  1  0.29591952  0.30385873  0.89380969  1
  Sc  Sc72  1  0.09512034  0.09993309  0.10171703  1
  Sc  Sc73  1  0.28807689  0.10439094  0.88993886  1
  Sc  Sc74  1  0.30898079  0.69405527  0.10414752  1
  Sc  Sc75  1  0.70845043  0.09927356  0.89329817  1
  Sc  Sc76  1  0.69456774  0.69112511  0.89568457  1
  Sc  Sc77  1  0.09522257  0.28925598  0.89961184  1
  Sc  Sc78  1  0.29181168  0.11216538  0.69449556  1
  Sc  Sc79  1  0.71398000  0.90156727  0.69937083  1
  Sc  Sc80  1  0.69398254  0.90281754  0.89991900  1
  Sc  Sc81  1  0.69921563  0.70053456  0.29527626  1
  Sc  Sc82  1  0.90085099  0.68211095  0.89117584  1
  Sc  Sc83  1  0.70115069  0.90760837  0.49148848  1
  Sc  Sc84  1  0.70715818  0.30789384  0.09875656  1
  Sc  Sc85  1  0.89952684  0.70363000  0.69716259  1
  Sc  Sc86  1  0.50769696  0.88947104  0.09020073  1
  Sc  Sc87  1  0.50604914  0.09842534  0.10185440  1
  Sc  Sc88  1  0.89852498  0.30482665  0.71237393  1
  Sc  Sc89  1  0.10104648  0.70144403  0.69577213  1
  Sc  Sc90  1  0.50169208  0.88711283  0.31072702  1
  Sc  Sc91  1  0.69332880  0.49893145  0.10521093  1
  Sc  Sc92  1  0.90174294  0.89919417  0.30443993  1
  Sc  Sc93  1  0.50644170  0.69219958  0.10091551  1
  Sc  Sc94  1  0.29556499  0.10454936  0.49946488  1
  Sc  Sc95  1  0.89335940  0.10192064  0.69894584  1
  Sc  Sc96  1  0.29747369  0.50684392  0.30250689  1
  Sc  Sc97  1  0.69745345  0.50143057  0.90039562  1
  Sc  Sc98  1  0.90310397  0.69887947  0.11849300  1
  Sc  Sc99  1  0.70579301  0.49940667  0.29828707  1
  Nb  Nb100  1  0.69833737  0.30626585  0.50863797  1
  Nb  Nb101  1  0.69728250  0.90199770  0.29664287  1
  Nb  Nb102  1  0.10277746  0.49723432  0.29695349  1
  Nb  Nb103  1  0.89467966  0.49254914  0.09944713  1
  Nb  Nb104  1  0.30003686  0.90302674  0.29487976  1
  Nb  Nb105  1  0.90138417  0.10835213  0.29860321  1
  Nb  Nb106  1  0.70223077  0.30386343  0.69794024  1
  Nb  Nb107  1  0.29704186  0.30996854  0.70102859  1
  Nb  Nb108  1  0.49309347  0.30455959  0.30341661  1
  Nb  Nb109  1  0.30477175  0.30116444  0.30067326  1
  Nb  Nb110  1  0.89315675  0.29006496  0.90856792  1
  Nb  Nb111  1  0.70093286  0.89481433  0.10118156  1
  Nb  Nb112  1  0.49375893  0.69099753  0.30626945  1
  Nb  Nb113  1  0.70356346  0.70214363  0.09998711  1
  Nb  Nb114  1  0.10303475  0.30933915  0.49578089  1
  Nb  Nb115  1  0.10420964  0.50079937  0.69853217  1
  Nb  Nb116  1  0.90310948  0.50410871  0.49924295  1
  Nb  Nb117  1  0.29170649  0.49067201  0.70394365  1
  Nb  Nb118  1  0.29472291  0.69607432  0.89838614  1
  Nb  Nb119  1  0.09014593  0.09927244  0.90379293  1
  Nb  Nb120  1  0.90306580  0.10757183  0.90395234  1
  Nb  Nb121  1  0.49345089  0.49924809  0.10042576  1
  Nb  Nb122  1  0.09774355  0.48952709  0.49633874  1
  Nb  Nb123  1  0.09824914  0.49871005  0.10414997  1
  Nb  Nb124  1  0.89602696  0.30308176  0.09502456  1
  Nb  Nb125  1  0.39673975  0.00203789  0.00049461  1
  Nb  Nb126  1  -0.00219458  0.00405564  0.80367815  1
  Nb  Nb127  1  0.60220255  -0.00850659  0.20273192  1
  Nb  Nb128  1  0.19884148  0.79628507  -0.00130329  1
  Nb  Nb129  1  0.40019338  0.39998050  0.20317089  1
  Nb  Nb130  1  0.80296854  -0.00402956  0.00520824  1
  Nb  Nb131  1  0.00156955  0.40528945  0.19409434  1
  Nb  Nb132  1  0.60110068  0.79666128  0.60005083  1
  Nb  Nb133  1  0.79549044  0.21146584  0.59546872  1
  Nb  Nb134  1  0.00353499  0.59154750  0.59478355  1
  Nb  Nb135  1  0.20295081  0.59133901  0.79857213  1
  Nb  Nb136  1  0.40027249  -0.00136737  0.59880853  1
  Nb  Nb137  1  0.80928579  0.59393800  0.59325335  1
  Nb  Nb138  1  0.79916063  0.60190578  0.01184488  1
  Nb  Nb139  1  0.80684962  0.19927028  0.20245444  1
  Nb  Nb140  1  0.60085509  0.19991012  -0.00457731  1
  Nb  Nb141  1  0.20485044  0.80551200  0.59786960  1
  Nb  Nb142  1  0.40550752  -0.00536608  0.20326972  1
  Nb  Nb143  1  -0.00158839  0.80605416  0.80118450  1
  Nb  Nb144  1  0.40303993  0.19473167  -0.00159845  1
  Nb  Nb145  1  0.20180417  -0.00368753  0.00054489  1
  Nb  Nb146  1  0.20263412  0.20588056  0.20557352  1
  Nb  Nb147  1  0.80191397  0.79676926  0.00459932  1
  Nb  Nb148  1  0.60034821  0.39154325  0.79661026  1
  Nb  Nb149  1  -0.00180853  0.79731344  -0.00397213  1
  Pd  Pd150  1  0.20304808  0.00008100  0.59033429  1
  Pd  Pd151  1  0.78975950  0.79018887  0.59200462  1
  Pd  Pd152  1  0.60733818  0.80077109  0.79495919  1
  Pd  Pd153  1  0.60428605  -0.00833291  0.60730564  1
  Pd  Pd154  1  0.59376249  0.79726509  0.20499855  1
  Pd  Pd155  1  0.80051103  0.00179129  0.20099361  1
  Pd  Pd156  1  0.39192730  0.01169318  0.79849463  1
  Pd  Pd157  1  0.20443955  0.60547362  0.20319523  1
  Pd  Pd158  1  0.19681161  0.59849726  0.39908142  1
  Pd  Pd159  1  0.60334834  0.20327590  0.60009625  1
  Pd  Pd160  1  0.18750897  0.00215497  0.40350714  1
  Pd  Pd161  1  0.19195637  0.40524006  -0.01353290  1
  Pd  Pd162  1  0.61183445  0.20065449  0.19459835  1
  Pd  Pd163  1  0.39229394  0.19893816  0.80226950  1
  Pd  Pd164  1  0.39555206  0.59419686  0.59881208  1
  Pd  Pd165  1  0.20705710  0.59591677  -0.00427654  1
  Pd  Pd166  1  0.40932093  0.00332408  0.39619368  1
  Pd  Pd167  1  0.20155941  0.19323500  0.00240341  1
  Pd  Pd168  1  0.40156114  0.60241858  -0.00007632  1
  Pd  Pd169  1  0.00112742  0.39293515  0.00144771  1
  Pd  Pd170  1  -0.00745995  0.58917083  0.20317375  1
  Pd  Pd171  1  0.39690166  0.19821423  0.40560082  1
  Pd  Pd172  1  0.79999518  0.40019213  0.40276416  1
  Pd  Pd173  1  0.60810660  0.59588135  0.39538199  1
  Pd  Pd174  1  -0.01131733  0.20456114  0.59982606  1
  Pd  Pd175  1  0.60111195  0.39612883  -0.00564931  1
  Pd  Pd176  1  0.39727006  0.80478419  0.59572283  1
  Pd  Pd177  1  0.19616614  0.60600116  0.60183594  1
  Pd  Pd178  1  0.19354053  0.78984210  0.19347763  1
  Pd  Pd179  1  0.19715261  0.79023669  0.79516759  1
  Pd  Pd180  1  0.58777273  0.40410928  0.60858464  1
  Pd  Pd181  1  0.80135413  0.79326648  0.80883738  1
  Pd  Pd182  1  0.39704376  0.20227551  0.19499596  1
  Pd  Pd183  1  0.60635725  0.79048410  -0.00806759  1
  Pd  Pd184  1  0.00594663  -0.00252078  0.21286119  1
  Pd  Pd185  1  0.60110459  0.60038295  0.20052406  1
  Pd  Pd186  1  0.41340321  0.80063366  0.20180096  1
  Pd  Pd187  1  0.79487323  0.80429106  0.39926568  1
  Pd  Pd188  1  0.80588529  0.21548264  0.40421824  1
  Pd  Pd189  1  0.39677037  0.79548051  -0.00318045  1
  Pd  Pd190  1  0.60982359  -0.00576180  0.78999588  1
  Pd  Pd191  1  0.18627208  0.40214117  0.80888595  1
  Pd  Pd192  1  0.40027545  0.78944445  0.80126272  1
  Pd  Pd193  1  0.00263334  -0.00189996  0.39567208  1
  Pd  Pd194  1  0.00541063  0.39227243  0.80641843  1
  Pd  Pd195  1  0.59560247  0.40089909  0.20354945  1
  Pd  Pd196  1  0.00121159  0.01651213  0.60389566  1
  Pd  Pd197  1  0.00137805  0.40230563  0.60646258  1
  Pd  Pd198  1  0.80280009  0.80113929  0.20193928  1
  Pd  Pd199  1  0.40614342  0.40331629  0.60609255  1
  Rh  Rh200  1  0.80444146  0.19966471  0.79096579  1
  Rh  Rh201  1  0.80748640  0.40147747  0.60111157  1
  Rh  Rh202  1  -0.01750954  0.60277492  0.01119875  1
  Rh  Rh203  1  0.40080002  0.59404441  0.20184085  1
  Rh  Rh204  1  0.79874985  0.59617979  0.19738401  1
  Rh  Rh205  1  0.19906257  0.21280652  0.59922872  1
  Rh  Rh206  1  -0.00015349  0.21182539  0.19360147  1
  Rh  Rh207  1  0.60248708  0.00317709  0.00630314  1
  Rh  Rh208  1  0.39488089  0.19655303  0.59603374  1
  Rh  Rh209  1  0.19722681  0.00932010  0.20038503  1
  Rh  Rh210  1  0.39258109  0.40727337  0.39537036  1
  Rh  Rh211  1  0.59956772  0.20910663  0.40560976  1
  Rh  Rh212  1  0.60461242  0.79437278  0.40104693  1
  Rh  Rh213  1  0.00195674  0.80614362  0.39622931  1
  Rh  Rh214  1  0.00098738  -0.00778017  -0.00616273  1
  Rh  Rh215  1  0.20552499  0.20744721  0.39811025  1
  Rh  Rh216  1  0.40026654  0.79653329  0.39791104  1
  Rh  Rh217  1  0.59909653  0.58641432  0.79993813  1
  Rh  Rh218  1  0.00899772  0.59230287  0.40304223  1
  Rh  Rh219  1  0.79692805  0.59315453  0.79721762  1
  Rh  Rh220  1  0.79489644  0.59719135  0.40435917  1
  Rh  Rh221  1  0.79459329  0.01334953  0.59596217  1
  Rh  Rh222  1  0.00370500  0.80019976  0.20201326  1
  Rh  Rh223  1  0.60878006  0.60109702  0.59646508  1
  Rh  Rh224  1  0.79411033  0.39994705  0.80414974  1
  Rh  Rh225  1  0.60370076  0.20724541  0.80188243  1
  Rh  Rh226  1  0.00016484  0.20764649  0.00466307  1
  Rh  Rh227  1  0.00887095  0.79199776  0.60143786  1
  Rh  Rh228  1  0.79274762  0.40787050  -0.00004075  1
  Rh  Rh229  1  0.80609574  -0.00608392  0.39597280  1
  Rh  Rh230  1  -0.00018957  0.40894829  0.39046286  1
  Rh  Rh231  1  0.40691662  0.39386775  0.00942047  1
  Rh  Rh232  1  0.79803775  0.19206608  0.00878212  1
  Rh  Rh233  1  0.18904374  0.01226674  0.80373987  1
  Rh  Rh234  1  0.39336656  0.59931990  0.80026929  1
  Rh  Rh235  1  -0.00684565  0.20798240  0.40986433  1
  Rh  Rh236  1  0.40872512  0.39842204  0.79094523  1
  Rh  Rh237  1  0.80521945  0.00735488  0.80493571  1
  Rh  Rh238  1  0.60336973  0.59935769  0.00568955  1
  Rh  Rh239  1  0.19362095  0.39414571  0.60241213  1
  Rh  Rh240  1  0.19922753  0.80163645  0.40241491  1
  Rh  Rh241  1  0.59612334  -0.00013507  0.38893454  1
  Rh  Rh242  1  0.20173403  0.39736572  0.20713814  1
  Rh  Rh243  1  -0.00493504  0.19655218  0.80160941  1
  Rh  Rh244  1  0.80496927  0.39563543  0.20184240  1
  Rh  Rh245  1  0.39407126  0.59721828  0.40086754  1
  Rh  Rh246  1  0.20712614  0.40255301  0.39775170  1
  Rh  Rh247  1  0.00699079  0.60594605  0.78384498  1
  Rh  Rh248  1  0.60094254  0.40112624  0.39882383  1
  Rh  Rh249  1  0.19525770  0.20663474  0.79608643  1
