# generated using pymatgen
data_ZrScNbPdRh
_symmetry_space_group_name_H-M   'P 1'
_cell_length_a   16.55130171
_cell_length_b   16.55126548
_cell_length_c   16.55097554
_cell_angle_alpha   89.99336695
_cell_angle_beta   89.96897747
_cell_angle_gamma   89.99745992
_symmetry_Int_Tables_number   1
_chemical_formula_structural   ZrScNbPdRh
_chemical_formula_sum   'Zr50 Sc50 Nb50 Pd50 Rh50'
_cell_volume   4534.05610544
_cell_formula_units_Z   50
loop_
 _symmetry_equiv_pos_site_id
 _symmetry_equiv_pos_as_xyz
  1  'x, y, z'
loop_
 _atom_site_type_symbol
 _atom_site_label
 _atom_site_symmetry_multiplicity
 _atom_site_fract_x
 _atom_site_fract_y
 _atom_site_fract_z
 _atom_site_occupancy
  Zr  Zr0  1  0.10055130  0.70664203  0.49678055  1
  Zr  Zr1  1  0.10153231  0.30299651  0.89912972  1
  Zr  Zr2  1  0.30092566  0.89859566  0.90034679  1
  Zr  Zr3  1  0.51146683  0.30397745  0.09999083  1
  Zr  Zr4  1  0.50388637  0.89406233  0.29890398  1
  Zr  Zr5  1  0.70115282  0.90411375  0.30193827  1
  Zr  Zr6  1  0.50208066  0.89571382  0.09580808  1
  Zr  Zr7  1  0.69681970  0.49301793  0.49985249  1
  Zr  Zr8  1  0.70388098  0.10096510  0.89192669  1
  Zr  Zr9  1  0.71026515  0.50484041  0.29657007  1
  Zr  Zr10  1  0.70035098  0.69935653  0.29473069  1
  Zr  Zr11  1  0.49049231  0.70205126  0.89853194  1
  Zr  Zr12  1  0.09396328  0.69106616  0.70649302  1
  Zr  Zr13  1  0.49662781  0.69591884  0.50557021  1
  Zr  Zr14  1  0.10774794  0.09593137  0.10111264  1
  Zr  Zr15  1  0.29113158  0.50201970  0.30041480  1
  Zr  Zr16  1  0.10864514  0.50492120  0.10172719  1
  Zr  Zr17  1  0.29834478  0.90433469  0.69422469  1
  Zr  Zr18  1  0.70363174  0.50409252  0.89583999  1
  Zr  Zr19  1  0.69583130  0.89942645  0.10085231  1
  Zr  Zr20  1  0.70082924  0.90876803  0.49801135  1
  Zr  Zr21  1  0.30986406  0.10090760  0.69817661  1
  Zr  Zr22  1  0.09511283  0.31701068  0.70145185  1
  Zr  Zr23  1  0.50774460  0.49219792  0.29847095  1
  Zr  Zr24  1  0.09441191  0.29549402  0.50298710  1
  Zr  Zr25  1  0.49708730  0.10688857  0.11039699  1
  Zr  Zr26  1  0.90275039  0.91285600  0.30179028  1
  Zr  Zr27  1  0.49944957  0.09623228  0.50224881  1
  Zr  Zr28  1  0.50785697  0.50845216  0.69268000  1
  Zr  Zr29  1  0.29373175  0.30498958  0.09311699  1
  Zr  Zr30  1  0.30730198  0.30313367  0.89776864  1
  Zr  Zr31  1  0.91423223  0.49981690  0.70052407  1
  Zr  Zr32  1  0.28823849  0.90152224  0.10072327  1
  Zr  Zr33  1  0.70305745  0.30590409  0.29638066  1
  Zr  Zr34  1  0.30699514  0.50070723  0.49813871  1
  Zr  Zr35  1  0.10166649  0.10291899  0.29804987  1
  Zr  Zr36  1  0.89343848  0.30079951  0.10401599  1
  Zr  Zr37  1  0.30581578  0.70101599  0.69777524  1
  Zr  Zr38  1  0.49728715  0.09699861  0.69431217  1
  Zr  Zr39  1  0.30230745  0.70480223  0.49366089  1
  Zr  Zr40  1  0.29912470  0.30025111  0.30681209  1
  Zr  Zr41  1  0.90299226  0.90452207  0.09954916  1
  Zr  Zr42  1  0.70696041  0.29655980  0.50104095  1
  Zr  Zr43  1  0.49033333  0.90353515  0.69659852  1
  Zr  Zr44  1  0.09512125  0.50561785  0.29454709  1
  Zr  Zr45  1  0.69717016  0.90306036  0.90461932  1
  Zr  Zr46  1  0.49735418  0.89826990  0.90258922  1
  Zr  Zr47  1  0.89397830  0.10013148  0.70870379  1
  Zr  Zr48  1  0.70511808  0.10747188  0.70571430  1
  Zr  Zr49  1  0.69925552  0.49575015  0.69774630  1
  Sc  Sc50  1  0.30431960  0.30570966  0.50258385  1
  Sc  Sc51  1  0.50236670  0.29443064  0.30094927  1
  Sc  Sc52  1  0.69993725  0.69081055  0.90308620  1
  Sc  Sc53  1  0.09811984  0.90045424  0.09136136  1
  Sc  Sc54  1  0.71032357  0.70139689  0.50219304  1
  Sc  Sc55  1  0.90063481  0.11131063  0.49763856  1
  Sc  Sc56  1  0.50264041  0.70217392  0.30243104  1
  Sc  Sc57  1  0.90378600  0.10688913  0.29949876  1
  Sc  Sc58  1  0.90281458  0.69653521  0.08772095  1
  Sc  Sc59  1  0.09730488  0.09938423  0.89882168  1
  Sc  Sc60  1  0.91029668  0.89300835  0.90508121  1
  Sc  Sc61  1  0.70117257  0.28977676  0.90908621  1
  Sc  Sc62  1  0.09968883  0.29754475  0.30854735  1
  Sc  Sc63  1  0.89334481  0.50329221  0.09866021  1
  Sc  Sc64  1  0.08946308  0.49330032  0.50734685  1
  Sc  Sc65  1  0.29161467  0.09947445  0.89134099  1
  Sc  Sc66  1  0.90569822  0.69859446  0.49908436  1
  Sc  Sc67  1  0.90479915  0.68411285  0.30323749  1
  Sc  Sc68  1  0.09525930  0.29556501  0.09303446  1
  Sc  Sc69  1  0.49879811  0.49432012  0.50300403  1
  Sc  Sc70  1  0.29862397  0.09750472  0.50062117  1
  Sc  Sc71  1  0.50451482  0.10021511  0.88913751  1
  Sc  Sc72  1  0.49814409  0.90112780  0.49881551  1
  Sc  Sc73  1  0.89920919  0.29232257  0.69223203  1
  Sc  Sc74  1  0.10168063  0.69926657  0.29839576  1
  Sc  Sc75  1  0.09729656  0.09240458  0.70725797  1
  Sc  Sc76  1  0.09139441  0.69677688  0.90137315  1
  Sc  Sc77  1  0.70185137  0.49739914  0.10301966  1
  Sc  Sc78  1  0.90459883  0.90094602  0.70504882  1
  Sc  Sc79  1  0.49546047  0.49896157  0.90637196  1
  Sc  Sc80  1  0.89781445  0.50291621  0.90492104  1
  Sc  Sc81  1  0.09550795  0.69927852  0.10175942  1
  Sc  Sc82  1  0.10080618  0.09550134  0.49606606  1
  Sc  Sc83  1  0.70070076  0.69398129  0.09947728  1
  Sc  Sc84  1  0.50491125  0.50077885  0.09687038  1
  Sc  Sc85  1  0.49649182  0.30254520  0.49371669  1
  Sc  Sc86  1  0.69773417  0.68393036  0.70463286  1
  Sc  Sc87  1  0.30050902  0.49658922  0.70253745  1
  Sc  Sc88  1  0.48994339  0.29254363  0.70076529  1
  Sc  Sc89  1  0.51022490  0.70157362  0.10222012  1
  Sc  Sc90  1  0.28237870  0.69681408  0.09331033  1
  Sc  Sc91  1  0.10080080  0.90038719  0.31240605  1
  Sc  Sc92  1  0.90480809  0.30412840  0.91007404  1
  Sc  Sc93  1  0.71074910  0.10296572  0.31313766  1
  Sc  Sc94  1  0.30152476  0.50432594  0.90819240  1
  Sc  Sc95  1  0.91005306  0.10469483  0.11160115  1
  Sc  Sc96  1  0.49412599  0.69704196  0.69867691  1
  Sc  Sc97  1  0.30502140  0.30011448  0.70125578  1
  Sc  Sc98  1  0.90272909  0.69866148  0.69984031  1
  Sc  Sc99  1  0.70709102  0.90753155  0.70131237  1
  Nb  Nb100  1  0.89543086  0.50074723  0.49465468  1
  Nb  Nb101  1  0.29779028  0.70235245  0.89099807  1
  Nb  Nb102  1  0.09854774  0.50383653  0.70405188  1
  Nb  Nb103  1  0.10319210  0.89898693  0.89274350  1
  Nb  Nb104  1  0.28810623  0.89804038  0.49124936  1
  Nb  Nb105  1  0.70095199  0.09938069  0.50382302  1
  Nb  Nb106  1  0.10063538  0.89696978  0.70198900  1
  Nb  Nb107  1  0.29962962  0.49942355  0.10370031  1
  Nb  Nb108  1  0.89798314  0.49773617  0.29877624  1
  Nb  Nb109  1  0.29710197  0.70256338  0.30215962  1
  Nb  Nb110  1  0.30069253  0.09570275  0.28769817  1
  Nb  Nb111  1  0.49733837  0.29972363  0.90149568  1
  Nb  Nb112  1  0.70029834  0.10933033  0.09892408  1
  Nb  Nb113  1  0.90557017  0.30192033  0.49606546  1
  Nb  Nb114  1  0.90113090  0.29855328  0.29867754  1
  Nb  Nb115  1  0.10367975  0.90142818  0.50238264  1
  Nb  Nb116  1  0.29755157  0.89283677  0.30196123  1
  Nb  Nb117  1  0.90430375  0.89734419  0.49969007  1
  Nb  Nb118  1  0.89590531  0.70060285  0.89820514  1
  Nb  Nb119  1  0.70225012  0.29633455  0.70322684  1
  Nb  Nb120  1  0.70412210  0.29562622  0.10271436  1
  Nb  Nb121  1  0.09607120  0.49796856  0.87598173  1
  Nb  Nb122  1  0.48731132  0.09897915  0.29842530  1
  Nb  Nb123  1  0.89287402  0.09806515  0.89424922  1
  Nb  Nb124  1  0.29933611  0.09904012  0.10473066  1
  Nb  Nb125  1  0.60515143  0.59713777  0.40061440  1
  Nb  Nb126  1  -0.00800536  0.80369766  0.20270843  1
  Nb  Nb127  1  0.80432439  0.00412891  0.59603257  1
  Nb  Nb128  1  0.60407313  0.80205848  0.60647409  1
  Nb  Nb129  1  0.60620352  0.19738106  0.60063425  1
  Nb  Nb130  1  0.19686766  0.20278680  0.60425153  1
  Nb  Nb131  1  0.39928582  0.19823728  0.00200945  1
  Nb  Nb132  1  0.79596261  0.39734265  0.79718958  1
  Nb  Nb133  1  0.80706085  0.80477423  0.39599285  1
  Nb  Nb134  1  0.19630802  0.59826338  0.60270957  1
  Nb  Nb135  1  0.39353266  0.40453058  0.19644055  1
  Nb  Nb136  1  0.80635540  0.58987579  0.59710354  1
  Nb  Nb137  1  0.00706088  0.80863198  0.59874992  1
  Nb  Nb138  1  0.60127482  0.79958005  0.79715419  1
  Nb  Nb139  1  0.38808745  0.79555333  0.20305860  1
  Nb  Nb140  1  0.19823689  0.79975260  0.79907757  1
  Nb  Nb141  1  0.39246863  0.60042181  0.20071731  1
  Nb  Nb142  1  0.60102415  0.39270485  0.80099515  1
  Nb  Nb143  1  0.39503586  0.00928327  0.00690583  1
  Nb  Nb144  1  0.59891238  0.00879082  0.20301326  1
  Nb  Nb145  1  0.80685978  0.80123087  0.20326223  1
  Nb  Nb146  1  0.80030369  0.00750340  0.00135331  1
  Nb  Nb147  1  0.39219880  -0.00208670  0.38814564  1
  Nb  Nb148  1  0.79824048  0.79550324  0.80393243  1
  Nb  Nb149  1  -0.00600698  0.40180247  0.20443053  1
  Pd  Pd150  1  0.39324508  0.19384761  0.40370694  1
  Pd  Pd151  1  0.19114163  0.79538605  -0.00939791  1
  Pd  Pd152  1  0.59185770  0.00944096  0.39222581  1
  Pd  Pd153  1  0.20255113  0.40161881  0.59862432  1
  Pd  Pd154  1  0.19858644  0.00788281  0.60173286  1
  Pd  Pd155  1  0.39243549  0.79469683  0.01232324  1
  Pd  Pd156  1  0.60881298  0.40015125  -0.00587924  1
  Pd  Pd157  1  0.00468335  0.41096188  0.00666645  1
  Pd  Pd158  1  -0.00229906  0.20637714  0.79997534  1
  Pd  Pd159  1  0.00428997  0.59200110  -0.00468964  1
  Pd  Pd160  1  0.80944781  0.19408188  0.00089295  1
  Pd  Pd161  1  0.41048805  0.59656919  0.39203470  1
  Pd  Pd162  1  0.79698600  0.80245741  0.00085199  1
  Pd  Pd163  1  -0.00161054  0.00764754  0.40530143  1
  Pd  Pd164  1  0.59803029  0.01407504  0.00643127  1
  Pd  Pd165  1  0.19241032  0.39052339  0.20079938  1
  Pd  Pd166  1  -0.00276231  0.00690919  -0.00501629  1
  Pd  Pd167  1  -0.00311468  -0.00365689  0.80626045  1
  Pd  Pd168  1  0.39700962  0.60944682  0.01089951  1
  Pd  Pd169  1  -0.00539263  -0.00013781  0.59830908  1
  Pd  Pd170  1  0.19257176  0.40412973  0.40745034  1
  Pd  Pd171  1  0.19129007  0.59515593  0.40835702  1
  Pd  Pd172  1  0.79370315  0.00758124  0.19298209  1
  Pd  Pd173  1  0.80383836  0.79922407  0.60387653  1
  Pd  Pd174  1  -0.00398720  0.19190129  -0.00022852  1
  Pd  Pd175  1  0.19670904  0.20348207  0.79114228  1
  Pd  Pd176  1  0.60911673  0.19386013  0.21355387  1
  Pd  Pd177  1  0.40896227  0.40813088  0.79521152  1
  Pd  Pd178  1  0.20941648  0.40221919  0.80246477  1
  Pd  Pd179  1  0.59376234  0.19441113  -0.00482692  1
  Pd  Pd180  1  0.19596036  0.79239479  0.60690405  1
  Pd  Pd181  1  0.59917348  0.19666819  0.40141063  1
  Pd  Pd182  1  0.19384952  0.40950847  -0.00950587  1
  Pd  Pd183  1  0.19136993  -0.01010160  0.20706356  1
  Pd  Pd184  1  0.39915791  0.59065256  0.80009207  1
  Pd  Pd185  1  0.60752109  0.79203182  0.41187097  1
  Pd  Pd186  1  0.19636803  0.20836112  0.19972519  1
  Pd  Pd187  1  0.00436937  0.59640627  0.40481809  1
  Pd  Pd188  1  0.80997977  0.40081004  0.60480830  1
  Pd  Pd189  1  0.00687769  0.19202036  0.60563525  1
  Pd  Pd190  1  0.20625334  0.19544100  0.40717669  1
  Pd  Pd191  1  0.20492830  0.19451639  -0.00457126  1
  Pd  Pd192  1  0.40266968  -0.01276598  0.19815867  1
  Pd  Pd193  1  -0.00003376  0.40035219  0.39565962  1
  Pd  Pd194  1  0.59880489  -0.00640377  0.79208032  1
  Pd  Pd195  1  0.80361229  0.39513611  0.39841277  1
  Pd  Pd196  1  0.59125984  0.38339923  0.60578102  1
  Pd  Pd197  1  0.39442909  0.21556935  0.19543256  1
  Pd  Pd198  1  0.19314265  0.59668165  -0.01197681  1
  Pd  Pd199  1  0.59793830  0.59948840  -0.00196278  1
  Rh  Rh200  1  0.00590524  0.21049232  0.20186433  1
  Rh  Rh201  1  0.60370611  0.39967923  0.19845071  1
  Rh  Rh202  1  0.79823930  0.59840687  0.00136761  1
  Rh  Rh203  1  0.81032300  0.21483283  0.81037637  1
  Rh  Rh204  1  0.79693495  0.19818635  0.20403771  1
  Rh  Rh205  1  0.79256100  0.39928630  -0.00293414  1
  Rh  Rh206  1  0.20532369  0.60398906  0.79862808  1
  Rh  Rh207  1  0.59372961  0.20798166  0.79287146  1
  Rh  Rh208  1  0.40157264  0.19650403  0.80841957  1
  Rh  Rh209  1  0.59375222  0.59798826  0.20550440  1
  Rh  Rh210  1  0.20662037  0.00406326  0.39335458  1
  Rh  Rh211  1  0.00512459  0.79811401  0.00190152  1
  Rh  Rh212  1  0.60268992  0.40081664  0.39810536  1
  Rh  Rh213  1  0.38857724  -0.00892329  0.58272976  1
  Rh  Rh214  1  0.39878197  0.20242991  0.59211733  1
  Rh  Rh215  1  0.58640083  0.59847240  0.80880856  1
  Rh  Rh216  1  0.80845049  -0.01400009  0.80765117  1
  Rh  Rh217  1  0.80498153  0.20654722  0.40034175  1
  Rh  Rh218  1  0.60303874  0.80322028  0.19735541  1
  Rh  Rh219  1  0.40310583  0.80681395  0.59066363  1
  Rh  Rh220  1  0.61213055  0.00226694  0.60736441  1
  Rh  Rh221  1  0.81026178  0.00074989  0.41102696  1
  Rh  Rh222  1  -0.00286357  0.80209824  0.40069862  1
  Rh  Rh223  1  0.39069832  0.59444561  0.60119521  1
  Rh  Rh224  1  0.80962879  0.59903809  0.79291935  1
  Rh  Rh225  1  0.39873533  0.80370814  0.79598815  1
  Rh  Rh226  1  0.61021401  0.61039553  0.58652040  1
  Rh  Rh227  1  0.19971378  -0.00581824  0.79822145  1
  Rh  Rh228  1  0.40406103  0.40068947  0.60286848  1
  Rh  Rh229  1  -0.00864008  0.60188429  0.80890687  1
  Rh  Rh230  1  0.40286555  0.39439307  0.00868397  1
  Rh  Rh231  1  -0.00706618  0.39947959  0.59683723  1
  Rh  Rh232  1  0.00002465  0.79842441  0.79730918  1
  Rh  Rh233  1  0.19526210  0.79923734  0.39477099  1
  Rh  Rh234  1  0.39879020  0.80594635  0.39987821  1
  Rh  Rh235  1  -0.00420005  0.59873531  0.19496445  1
  Rh  Rh236  1  0.79637857  0.60335214  0.40670943  1
  Rh  Rh237  1  0.19356536  0.80073128  0.20493146  1
  Rh  Rh238  1  0.20336941  0.60790671  0.20222101  1
  Rh  Rh239  1  0.00029778  0.60386212  0.59335651  1
  Rh  Rh240  1  -0.01163790  0.39464534  0.80340369  1
  Rh  Rh241  1  -0.00178453  0.19945233  0.39758838  1
  Rh  Rh242  1  0.39782158  0.00147440  0.80875479  1
  Rh  Rh243  1  0.80421529  0.40011867  0.19794165  1
  Rh  Rh244  1  0.80720009  0.60696993  0.19384013  1
  Rh  Rh245  1  0.60210841  0.78857751  -0.01054638  1
  Rh  Rh246  1  0.01152442  -0.00390292  0.20235260  1
  Rh  Rh247  1  0.79893510  0.19627763  0.59501210  1
  Rh  Rh248  1  0.20322795  0.00467118  -0.00605100  1
  Rh  Rh249  1  0.40191035  0.40042322  0.39103610  1
