# generated using pymatgen
data_ZrScNbPdRh
_symmetry_space_group_name_H-M   'P 1'
_cell_length_a   16.56299833
_cell_length_b   16.55902269
_cell_length_c   16.55981009
_cell_angle_alpha   89.99918368
_cell_angle_beta   90.01920235
_cell_angle_gamma   90.01112637
_symmetry_Int_Tables_number   1
_chemical_formula_structural   ZrScNbPdRh
_chemical_formula_sum   'Zr50 Sc50 Nb50 Pd50 Rh50'
_cell_volume   4541.81016998
_cell_formula_units_Z   50
loop_
 _symmetry_equiv_pos_site_id
 _symmetry_equiv_pos_as_xyz
  1  'x, y, z'
loop_
 _atom_site_type_symbol
 _atom_site_label
 _atom_site_symmetry_multiplicity
 _atom_site_fract_x
 _atom_site_fract_y
 _atom_site_fract_z
 _atom_site_occupancy
  Zr  Zr0  1  0.70430213  0.70105076  0.50114994  1
  Zr  Zr1  1  0.30165956  0.70354759  0.09702614  1
  Zr  Zr2  1  0.71016577  0.48734605  0.30866951  1
  Zr  Zr3  1  0.09505828  0.89940597  0.49040664  1
  Zr  Zr4  1  0.29423038  0.90913764  0.89499986  1
  Zr  Zr5  1  0.90236438  0.10632206  0.30535326  1
  Zr  Zr6  1  0.29421131  0.30998391  0.09919422  1
  Zr  Zr7  1  0.70536179  0.89770740  0.10206829  1
  Zr  Zr8  1  0.10438969  0.49392324  0.10199515  1
  Zr  Zr9  1  0.90191113  0.29477585  0.69682789  1
  Zr  Zr10  1  0.90965628  0.10098705  0.69298512  1
  Zr  Zr11  1  0.29998966  0.49625546  0.09986206  1
  Zr  Zr12  1  0.10843097  0.09780030  0.90367203  1
  Zr  Zr13  1  0.29817869  0.70324984  0.50215251  1
  Zr  Zr14  1  0.89894463  0.49772293  0.90481427  1
  Zr  Zr15  1  0.90246519  0.10046925  0.10016510  1
  Zr  Zr16  1  0.30220958  0.30213798  0.90472038  1
  Zr  Zr17  1  0.49431681  0.49831996  0.50375213  1
  Zr  Zr18  1  0.50509397  0.91133293  0.70164329  1
  Zr  Zr19  1  0.70809220  0.70207083  0.10200243  1
  Zr  Zr20  1  0.69813264  0.29084496  0.30094326  1
  Zr  Zr21  1  0.29775909  0.89448277  0.50065228  1
  Zr  Zr22  1  0.09566834  0.70371159  0.31418295  1
  Zr  Zr23  1  0.50804442  0.10294944  0.69929134  1
  Zr  Zr24  1  0.70328321  0.90187043  0.49194711  1
  Zr  Zr25  1  0.68943828  0.09426729  0.70087938  1
  Zr  Zr26  1  0.30940692  0.50031862  0.70475148  1
  Zr  Zr27  1  0.10542660  0.49920985  0.69855766  1
  Zr  Zr28  1  0.90848071  0.70069958  0.49416189  1
  Zr  Zr29  1  0.49580071  0.10187710  0.30368634  1
  Zr  Zr30  1  0.09211913  0.50410348  0.50722823  1
  Zr  Zr31  1  0.90394903  0.89653354  0.50632912  1
  Zr  Zr32  1  0.70209778  0.10343019  0.50735976  1
  Zr  Zr33  1  0.29675542  0.10165267  0.09981042  1
  Zr  Zr34  1  0.30709648  0.30386548  0.30513540  1
  Zr  Zr35  1  0.30245776  0.09690552  0.70329296  1
  Zr  Zr36  1  0.09490963  0.30205043  0.69927158  1
  Zr  Zr37  1  0.49870226  0.90098995  0.48859450  1
  Zr  Zr38  1  0.69599785  0.28879180  0.69310661  1
  Zr  Zr39  1  0.28673125  0.10751132  0.50155262  1
  Zr  Zr40  1  0.31081675  0.49075326  0.90132905  1
  Zr  Zr41  1  0.50437881  0.09984002  0.89291031  1
  Zr  Zr42  1  0.89164575  0.30290600  0.29951635  1
  Zr  Zr43  1  0.10548307  0.29573871  0.49959170  1
  Zr  Zr44  1  0.49384728  0.69718653  0.49763111  1
  Zr  Zr45  1  0.29677929  0.09640238  0.29699675  1
  Zr  Zr46  1  0.89867628  0.69000510  0.29429168  1
  Zr  Zr47  1  0.69463521  0.69311629  0.90843737  1
  Zr  Zr48  1  0.50679536  0.70272354  0.89977588  1
  Zr  Zr49  1  0.50684903  0.49740012  0.88947846  1
  Sc  Sc50  1  0.29077984  0.70779221  0.89868538  1
  Sc  Sc51  1  0.09790146  0.70173517  0.89696436  1
  Sc  Sc52  1  0.09922248  0.50398697  0.29683133  1
  Sc  Sc53  1  0.69823970  0.89550229  0.70208515  1
  Sc  Sc54  1  0.29939570  0.49884216  0.29515673  1
  Sc  Sc55  1  0.69803026  0.29760810  0.48971295  1
  Sc  Sc56  1  0.89658093  0.30941232  0.11339534  1
  Sc  Sc57  1  0.49894806  0.49823721  0.10176561  1
  Sc  Sc58  1  0.29866465  0.69270773  0.30683778  1
  Sc  Sc59  1  0.68652614  0.50008367  0.70378968  1
  Sc  Sc60  1  0.49963648  0.68758037  0.70005547  1
  Sc  Sc61  1  0.09713151  0.51051097  0.89804367  1
  Sc  Sc62  1  0.50589012  0.89858313  0.89928509  1
  Sc  Sc63  1  0.68944573  0.09849647  0.90435457  1
  Sc  Sc64  1  0.70119659  0.50213275  0.09438439  1
  Sc  Sc65  1  0.29544511  0.10480475  0.89247504  1
  Sc  Sc66  1  0.11093765  0.29880956  0.89651353  1
  Sc  Sc67  1  0.30072905  0.90115244  0.10023736  1
  Sc  Sc68  1  0.88918205  0.90787192  0.29915240  1
  Sc  Sc69  1  0.09890002  0.70322506  0.50167430  1
  Sc  Sc70  1  0.91211773  0.09188984  0.89874905  1
  Sc  Sc71  1  0.88941316  0.90585324  0.09787458  1
  Sc  Sc72  1  0.51223878  0.69593717  0.09848701  1
  Sc  Sc73  1  0.10008127  0.68863867  0.09372606  1
  Sc  Sc74  1  0.49980855  0.29513712  0.70169530  1
  Sc  Sc75  1  0.29349140  0.29674067  0.70201082  1
  Sc  Sc76  1  0.91588030  0.48904999  0.70385925  1
  Sc  Sc77  1  0.10109101  0.10231366  0.69689959  1
  Sc  Sc78  1  0.49758220  0.69460481  0.29953516  1
  Sc  Sc79  1  0.50891238  0.30741819  0.90035581  1
  Sc  Sc80  1  0.69302075  0.10519858  0.09540696  1
  Sc  Sc81  1  0.90374065  0.71501488  0.70162495  1
  Sc  Sc82  1  0.70588387  0.69974665  0.29731843  1
  Sc  Sc83  1  0.69425658  0.70233576  0.70620868  1
  Sc  Sc84  1  0.69855137  0.29983655  0.09704928  1
  Sc  Sc85  1  0.10412072  0.10366910  0.10928845  1
  Sc  Sc86  1  0.09620028  0.30077620  0.29293154  1
  Sc  Sc87  1  0.10085970  0.90279565  0.89418429  1
  Sc  Sc88  1  0.48890053  0.89598615  0.10262809  1
  Sc  Sc89  1  0.29911931  0.49685485  0.49827012  1
  Sc  Sc90  1  0.09650133  0.89919716  0.70077263  1
  Sc  Sc91  1  0.90162728  0.31280483  0.88988868  1
  Sc  Sc92  1  0.49081506  0.49826080  0.30216187  1
  Sc  Sc93  1  0.89918701  0.50743715  0.10930692  1
  Sc  Sc94  1  0.10206595  0.91114376  0.09684282  1
  Sc  Sc95  1  0.10355880  0.70004262  0.70365372  1
  Sc  Sc96  1  0.90099776  0.69786636  0.90260154  1
  Sc  Sc97  1  0.89634384  0.28133721  0.49872574  1
  Sc  Sc98  1  0.30126503  0.29936038  0.49789039  1
  Sc  Sc99  1  0.69964478  0.88701093  0.90593378  1
  Nb  Nb100  1  0.30773084  0.90125475  0.29299621  1
  Nb  Nb101  1  0.70175316  0.09617059  0.30389221  1
  Nb  Nb102  1  0.49544825  0.29949966  0.48412884  1
  Nb  Nb103  1  0.70697551  0.31026655  0.89961377  1
  Nb  Nb104  1  0.29956495  0.90132604  0.69899216  1
  Nb  Nb105  1  0.49547809  0.90623810  0.29811317  1
  Nb  Nb106  1  0.10226010  0.89813107  0.30153622  1
  Nb  Nb107  1  0.90439831  0.90321256  0.70670045  1
  Nb  Nb108  1  0.89766952  0.70684206  0.10367950  1
  Nb  Nb109  1  0.49947581  0.49544320  0.70190984  1
  Nb  Nb110  1  0.50405459  0.10602770  0.09734829  1
  Nb  Nb111  1  0.90371643  0.89701839  0.89584867  1
  Nb  Nb112  1  0.09505113  0.09150401  0.31087092  1
  Nb  Nb113  1  0.90841132  0.09444045  0.49880637  1
  Nb  Nb114  1  0.10242912  0.30384876  0.09574027  1
  Nb  Nb115  1  0.89543320  0.50187272  0.49614009  1
  Nb  Nb116  1  0.69502899  0.90818871  0.30241258  1
  Nb  Nb117  1  0.89993600  0.49376405  0.30150761  1
  Nb  Nb118  1  0.50340500  0.29509804  0.10604045  1
  Nb  Nb119  1  0.08908902  0.09627582  0.49146147  1
  Nb  Nb120  1  0.70042264  0.49645608  0.50021086  1
  Nb  Nb121  1  0.50033528  0.29888325  0.30364522  1
  Nb  Nb122  1  0.70417170  0.49064499  0.89962292  1
  Nb  Nb123  1  0.49594593  0.10163545  0.50755273  1
  Nb  Nb124  1  0.29877335  0.71207710  0.69839787  1
  Nb  Nb125  1  0.80301345  0.59300265  0.60319683  1
  Nb  Nb126  1  0.79624402  0.40512604  0.59548037  1
  Nb  Nb127  1  -0.00780870  0.40288839  0.40090089  1
  Nb  Nb128  1  0.80506625  -0.00214343  0.79818510  1
  Nb  Nb129  1  0.60130105  0.81253982  0.20964931  1
  Nb  Nb130  1  0.60444375  0.59334227  0.40550851  1
  Nb  Nb131  1  0.40428282  0.20312065  0.19692317  1
  Nb  Nb132  1  0.39552799  0.80349960  0.79249798  1
  Nb  Nb133  1  0.39837151  0.00231888  0.59913287  1
  Nb  Nb134  1  0.79788566  0.59337269  0.79940017  1
  Nb  Nb135  1  0.80684992  -0.00125524  0.60388384  1
  Nb  Nb136  1  0.40182873  0.01021535  -0.00137584  1
  Nb  Nb137  1  0.80683639  0.20554919  -0.00908777  1
  Nb  Nb138  1  0.40643026  0.20103850  0.00508545  1
  Nb  Nb139  1  0.00132392  0.80136437  0.19705961  1
  Nb  Nb140  1  0.59649451  0.39220928  0.20734828  1
  Nb  Nb141  1  0.79929529  0.19448075  0.80306204  1
  Nb  Nb142  1  0.59536679  0.40064124  0.59275950  1
  Nb  Nb143  1  0.59662099  0.00068315  0.20578109  1
  Nb  Nb144  1  0.19618292  0.80259398  0.20605685  1
  Nb  Nb145  1  0.40066471  0.59986248  -0.00454689  1
  Nb  Nb146  1  0.00041783  0.20936060  0.00448901  1
  Nb  Nb147  1  -0.00596139  0.80196600  0.00567943  1
  Nb  Nb148  1  0.00334484  0.39802005  0.00527584  1
  Nb  Nb149  1  0.59613710  0.80036195  0.59249740  1
  Pd  Pd150  1  -0.00847933  0.60558610  0.79457666  1
  Pd  Pd151  1  0.39437268  0.61162578  0.80617109  1
  Pd  Pd152  1  0.79351500  0.40152913  0.78319669  1
  Pd  Pd153  1  0.59867278  0.78968145  0.39438788  1
  Pd  Pd154  1  -0.00048841  0.20161726  0.81200676  1
  Pd  Pd155  1  0.00346155  0.20137551  0.19844187  1
  Pd  Pd156  1  0.20713843  0.59539668  -0.00736746  1
  Pd  Pd157  1  0.19702755  -0.00557954  0.20183775  1
  Pd  Pd158  1  0.20718413  0.39908390  0.60012594  1
  Pd  Pd159  1  0.19948247  0.60901233  0.20302254  1
  Pd  Pd160  1  0.59297628  -0.00998138  0.00741888  1
  Pd  Pd161  1  0.60869631  0.59012451  0.21263502  1
  Pd  Pd162  1  0.40101966  0.79016163  0.20436110  1
  Pd  Pd163  1  -0.00069015  -0.00583582  0.20464104  1
  Pd  Pd164  1  0.79785412  0.60117591  0.40213136  1
  Pd  Pd165  1  0.40199312  0.20605491  0.80724823  1
  Pd  Pd166  1  0.20529312  -0.00564235  0.39848744  1
  Pd  Pd167  1  -0.00987340  0.39085413  0.58616842  1
  Pd  Pd168  1  0.19601904  -0.00048398  0.60052280  1
  Pd  Pd169  1  0.79588435  0.80052408  0.60643586  1
  Pd  Pd170  1  0.18888089  0.80235875  0.60156404  1
  Pd  Pd171  1  0.59840069  0.00994022  0.40132431  1
  Pd  Pd172  1  0.39602143  0.79682230  0.38866758  1
  Pd  Pd173  1  0.79278006  0.01196944  0.19766310  1
  Pd  Pd174  1  0.80415738  0.59976688  -0.00149095  1
  Pd  Pd175  1  0.20961192  0.60085585  0.80065496  1
  Pd  Pd176  1  0.20115227  0.20512332  0.20661708  1
  Pd  Pd177  1  0.60487859  0.59984589  0.59738289  1
  Pd  Pd178  1  0.79908308  0.79607173  0.80602596  1
  Pd  Pd179  1  0.40200452  0.38925516  0.60247738  1
  Pd  Pd180  1  0.39184434  0.60010754  0.60184347  1
  Pd  Pd181  1  0.59934461  0.19124602  0.40516528  1
  Pd  Pd182  1  0.38991186  0.00729510  0.40855433  1
  Pd  Pd183  1  0.79898003  0.00807359  -0.01127265  1
  Pd  Pd184  1  0.41075119  0.80699280  0.60805327  1
  Pd  Pd185  1  0.80528195  0.80015542  0.39128937  1
  Pd  Pd186  1  0.19367914  0.20174562  0.38995359  1
  Pd  Pd187  1  0.00392072  0.60262641  0.19868439  1
  Pd  Pd188  1  0.20671728  0.60147206  0.60169021  1
  Pd  Pd189  1  0.40114683  0.80202771  -0.01114359  1
  Pd  Pd190  1  0.19880250  0.59369712  0.40493813  1
  Pd  Pd191  1  0.19040885  0.40524990  0.39610621  1
  Pd  Pd192  1  0.00326628  -0.00111033  0.00107631  1
  Pd  Pd193  1  0.79457659  0.19429657  0.19149163  1
  Pd  Pd194  1  0.40019716  0.20165261  0.59906453  1
  Pd  Pd195  1  0.59817877  0.40129295  0.00895024  1
  Pd  Pd196  1  -0.00863986  0.60699023  0.60909301  1
  Pd  Pd197  1  0.40088453  0.60433347  0.19182130  1
  Pd  Pd198  1  0.18731471  0.80402862  0.00661787  1
  Pd  Pd199  1  0.19845796  0.40371442  0.80280695  1
  Rh  Rh200  1  0.00923029  0.19895813  0.59181992  1
  Rh  Rh201  1  0.79873223  0.80323700  0.20655002  1
  Rh  Rh202  1  0.81009129  0.39635578  0.00655986  1
  Rh  Rh203  1  -0.00749201  -0.00706690  0.39335381  1
  Rh  Rh204  1  0.01427449  0.40115110  0.81067637  1
  Rh  Rh205  1  0.20158425  0.80424140  0.79612724  1
  Rh  Rh206  1  0.80252846  0.19293604  0.60461790  1
  Rh  Rh207  1  0.59910198  0.80451171  0.01705278  1
  Rh  Rh208  1  0.39637035  0.40514882  0.39882034  1
  Rh  Rh209  1  0.60749746  0.59675586  0.80433533  1
  Rh  Rh210  1  0.80444410  0.00729038  0.40870176  1
  Rh  Rh211  1  0.40606288  0.39355307  0.19933258  1
  Rh  Rh212  1  0.19972773  0.19935706  0.00097640  1
  Rh  Rh213  1  0.40956081  0.39960591  0.00570139  1
  Rh  Rh214  1  0.20969698  0.80553739  0.39187580  1
  Rh  Rh215  1  0.40297792  0.39101852  0.79226440  1
  Rh  Rh216  1  0.60325069  0.39474603  0.79056247  1
  Rh  Rh217  1  0.59114429  0.40583825  0.39899874  1
  Rh  Rh218  1  0.00240211  -0.00352347  0.59927353  1
  Rh  Rh219  1  0.79927466  0.19081389  0.40075234  1
  Rh  Rh220  1  0.79579768  0.59290313  0.20075406  1
  Rh  Rh221  1  -0.01158791  0.80760004  0.38818377  1
  Rh  Rh222  1  0.59906306  0.19718827  0.20577610  1
  Rh  Rh223  1  0.59435661  0.58949597  -0.00597092  1
  Rh  Rh224  1  0.00431767  0.80040868  0.80786233  1
  Rh  Rh225  1  0.19408971  0.19861136  0.60163361  1
  Rh  Rh226  1  0.61451590  -0.01076782  0.81223450  1
  Rh  Rh227  1  0.40671076  0.00919289  0.19098637  1
  Rh  Rh228  1  0.80890198  0.39072722  0.41003060  1
  Rh  Rh229  1  0.00307800  -0.00003679  0.79915895  1
  Rh  Rh230  1  0.00108725  0.59094539  0.39875256  1
  Rh  Rh231  1  0.80833113  0.79831486  -0.00485613  1
  Rh  Rh232  1  0.60899759  0.20924373  0.81051564  1
  Rh  Rh233  1  0.39990526  0.59531999  0.40215718  1
  Rh  Rh234  1  0.19871889  0.19913502  0.79435004  1
  Rh  Rh235  1  0.00555709  0.79998995  0.60299630  1
  Rh  Rh236  1  0.19849031  0.39783778  0.20825482  1
  Rh  Rh237  1  0.00305566  0.40317523  0.20104295  1
  Rh  Rh238  1  0.59929337  -0.01043222  0.58687505  1
  Rh  Rh239  1  0.19367030  0.00134535  0.79218964  1
  Rh  Rh240  1  0.39600456  0.19465039  0.39873756  1
  Rh  Rh241  1  0.20597057  0.00293618  0.00146898  1
  Rh  Rh242  1  0.60353659  0.21085426  -0.00713240  1
  Rh  Rh243  1  0.78787423  0.40407904  0.19367219  1
  Rh  Rh244  1  0.58876641  0.79851831  0.78914458  1
  Rh  Rh245  1  -0.00474881  0.60022648  0.00491266  1
  Rh  Rh246  1  0.18989828  0.40790995  -0.01065022  1
  Rh  Rh247  1  0.39921006  -0.00437633  0.79975848  1
  Rh  Rh248  1  0.00534449  0.20658189  0.39697254  1
  Rh  Rh249  1  0.58790045  0.21447975  0.58626801  1
