# generated using pymatgen
data_ZrScNbPdRh
_symmetry_space_group_name_H-M   'P 1'
_cell_length_a   16.55982016
_cell_length_b   16.55937369
_cell_length_c   16.56284217
_cell_angle_alpha   90.02220588
_cell_angle_beta   89.98684429
_cell_angle_gamma   90.02212372
_symmetry_Int_Tables_number   1
_chemical_formula_structural   ZrScNbPdRh
_chemical_formula_sum   'Zr50 Sc50 Nb50 Pd50 Rh50'
_cell_volume   4541.86592768
_cell_formula_units_Z   50
loop_
 _symmetry_equiv_pos_site_id
 _symmetry_equiv_pos_as_xyz
  1  'x, y, z'
loop_
 _atom_site_type_symbol
 _atom_site_label
 _atom_site_symmetry_multiplicity
 _atom_site_fract_x
 _atom_site_fract_y
 _atom_site_fract_z
 _atom_site_occupancy
  Zr  Zr0  1  0.69756409  0.70628657  0.69655450  1
  Zr  Zr1  1  0.09879470  0.29974306  0.09341221  1
  Zr  Zr2  1  0.70539669  0.09999594  0.09352892  1
  Zr  Zr3  1  0.91444860  0.90471557  0.50828029  1
  Zr  Zr4  1  0.50402990  0.49200885  0.89468495  1
  Zr  Zr5  1  0.09633513  0.70271220  0.50160007  1
  Zr  Zr6  1  0.89923494  0.50361854  0.29815844  1
  Zr  Zr7  1  0.29692779  0.90713970  0.50674559  1
  Zr  Zr8  1  0.29905079  0.30772732  0.10074884  1
  Zr  Zr9  1  0.10160232  0.29771785  0.70828376  1
  Zr  Zr10  1  0.70148985  0.69816804  0.50549540  1
  Zr  Zr11  1  0.69445826  0.30022871  0.69477066  1
  Zr  Zr12  1  0.68441323  0.89994115  0.49828581  1
  Zr  Zr13  1  0.30446069  0.69715936  0.89468682  1
  Zr  Zr14  1  0.89619871  0.29463244  0.10125401  1
  Zr  Zr15  1  0.29806105  0.49501057  0.29671633  1
  Zr  Zr16  1  0.70390302  0.29824111  0.10430923  1
  Zr  Zr17  1  0.50425163  0.30176606  0.29825767  1
  Zr  Zr18  1  0.30782868  0.90212601  0.10522209  1
  Zr  Zr19  1  0.89245083  0.90372006  0.09904275  1
  Zr  Zr20  1  0.50570291  0.89644230  0.30437263  1
  Zr  Zr21  1  0.49757065  0.10038247  0.70435739  1
  Zr  Zr22  1  0.70140805  0.90661291  0.69860782  1
  Zr  Zr23  1  0.90747648  0.09996747  0.30610123  1
  Zr  Zr24  1  0.10730178  0.29638096  0.89595664  1
  Zr  Zr25  1  0.30356423  0.69906114  0.10163900  1
  Zr  Zr26  1  0.89411842  0.69533972  0.68588580  1
  Zr  Zr27  1  0.90014695  0.89957640  0.90584220  1
  Zr  Zr28  1  0.09827044  0.10260652  0.89999664  1
  Zr  Zr29  1  0.29853415  0.09925745  0.30320206  1
  Zr  Zr30  1  0.89354487  0.50134607  0.49955724  1
  Zr  Zr31  1  0.50109770  0.70440243  0.90007097  1
  Zr  Zr32  1  0.30698608  0.89562712  0.89505532  1
  Zr  Zr33  1  0.29835134  0.90341281  0.29855644  1
  Zr  Zr34  1  0.89443260  0.09639990  0.89526524  1
  Zr  Zr35  1  0.49709299  0.69149175  0.69986418  1
  Zr  Zr36  1  0.89686091  0.70049084  0.29476270  1
  Zr  Zr37  1  0.30379138  0.69245717  0.49935641  1
  Zr  Zr38  1  0.90783809  0.29591985  0.90143493  1
  Zr  Zr39  1  0.89597289  0.70168147  0.90273403  1
  Zr  Zr40  1  0.70355098  0.89685877  0.29568318  1
  Zr  Zr41  1  0.70026749  0.50047632  0.90075351  1
  Zr  Zr42  1  0.90472963  0.70180198  0.49520955  1
  Zr  Zr43  1  0.50085070  0.68751983  0.29416773  1
  Zr  Zr44  1  0.10667103  0.50022346  0.09890451  1
  Zr  Zr45  1  0.50091497  0.09604523  0.50112989  1
  Zr  Zr46  1  0.69074675  0.49076136  0.29817787  1
  Zr  Zr47  1  0.09360247  0.69337881  0.30566967  1
  Zr  Zr48  1  0.09320865  0.90464741  0.09902229  1
  Zr  Zr49  1  0.30260863  0.29778300  0.29801871  1
  Sc  Sc50  1  0.89604360  0.90117598  0.29564376  1
  Sc  Sc51  1  0.50261932  0.90555469  0.90308937  1
  Sc  Sc52  1  0.30608109  0.10469875  0.10187302  1
  Sc  Sc53  1  0.08869164  0.90095021  0.89499880  1
  Sc  Sc54  1  0.09691954  0.09910210  0.70597504  1
  Sc  Sc55  1  0.70374450  0.09925519  0.30597232  1
  Sc  Sc56  1  0.89970241  0.27798041  0.69886391  1
  Sc  Sc57  1  0.89593810  0.50991426  0.90681462  1
  Sc  Sc58  1  0.50086790  0.10388863  0.30547716  1
  Sc  Sc59  1  0.69860317  0.09679964  0.90323859  1
  Sc  Sc60  1  0.10393605  0.69242648  0.10044358  1
  Sc  Sc61  1  0.09356373  0.90180761  0.69870779  1
  Sc  Sc62  1  0.09947185  0.91487759  0.29902995  1
  Sc  Sc63  1  0.88456362  0.29421353  0.30386328  1
  Sc  Sc64  1  0.10812616  0.50889813  0.48990831  1
  Sc  Sc65  1  0.30276222  0.69663844  0.70833029  1
  Sc  Sc66  1  0.30085857  0.08774217  0.69953894  1
  Sc  Sc67  1  0.90101513  0.51318723  0.09680529  1
  Sc  Sc68  1  0.50294109  0.69467289  0.49354624  1
  Sc  Sc69  1  0.10420653  0.70228246  0.89379360  1
  Sc  Sc70  1  0.50054508  0.10006211  0.08520284  1
  Sc  Sc71  1  0.49936433  0.50316894  0.50252055  1
  Sc  Sc72  1  0.50142094  0.90192642  0.70312313  1
  Sc  Sc73  1  0.69408763  0.50476221  0.69830129  1
  Sc  Sc74  1  0.30379704  0.90394751  0.70415880  1
  Sc  Sc75  1  0.30452536  0.31398070  0.71183661  1
  Sc  Sc76  1  0.30644641  0.69846991  0.29786033  1
  Sc  Sc77  1  0.89777671  0.90162293  0.70295144  1
  Sc  Sc78  1  0.69227847  0.49386958  0.49490143  1
  Sc  Sc79  1  0.89674410  0.09673631  0.10549210  1
  Sc  Sc80  1  0.69334455  0.70462228  0.10110168  1
  Sc  Sc81  1  0.69902614  0.30075113  0.90979735  1
  Sc  Sc82  1  0.30374413  0.50233428  0.49807899  1
  Sc  Sc83  1  0.50657555  0.49773670  0.10622808  1
  Sc  Sc84  1  0.09240301  0.10233246  0.10703269  1
  Sc  Sc85  1  0.69859880  0.69824616  0.89863239  1
  Sc  Sc86  1  0.49516991  0.29811048  0.08987777  1
  Sc  Sc87  1  0.30810105  0.50487091  0.70489365  1
  Sc  Sc88  1  0.10396405  0.50216035  0.30034135  1
  Sc  Sc89  1  0.70134057  0.49921525  0.09777189  1
  Sc  Sc90  1  0.10769614  0.30209082  0.29669717  1
  Sc  Sc91  1  0.30834516  0.10355601  0.89712029  1
  Sc  Sc92  1  0.69861098  0.89950526  0.90437585  1
  Sc  Sc93  1  0.50706148  0.30573062  0.50700638  1
  Sc  Sc94  1  0.08969146  0.08858833  0.50081806  1
  Sc  Sc95  1  0.70139141  0.30072414  0.49207410  1
  Sc  Sc96  1  0.69587927  0.70376308  0.29361334  1
  Sc  Sc97  1  0.10993893  0.49827682  0.90436778  1
  Sc  Sc98  1  0.29735826  0.09364880  0.50643861  1
  Sc  Sc99  1  0.69696619  0.10088156  0.51235399  1
  Nb  Nb100  1  0.10331949  0.90134876  0.50349296  1
  Nb  Nb101  1  0.50813294  0.89666245  0.09789366  1
  Nb  Nb102  1  0.69810816  0.30351615  0.29627309  1
  Nb  Nb103  1  0.88074610  0.09474938  0.69107470  1
  Nb  Nb104  1  0.50257124  0.11228673  0.90178716  1
  Nb  Nb105  1  0.49815181  0.31468889  0.70421651  1
  Nb  Nb106  1  0.29830673  0.30479550  0.49951819  1
  Nb  Nb107  1  0.29719737  0.49928310  0.08961821  1
  Nb  Nb108  1  0.49639442  0.48407318  0.69751422  1
  Nb  Nb109  1  0.09936816  0.29933918  0.50017098  1
  Nb  Nb110  1  0.09952079  0.10140727  0.30744408  1
  Nb  Nb111  1  0.49453361  0.29673966  0.89329262  1
  Nb  Nb112  1  0.90089284  0.69976447  0.09952603  1
  Nb  Nb113  1  0.89895555  0.10446981  0.50460900  1
  Nb  Nb114  1  0.50439278  0.49781627  0.30516887  1
  Nb  Nb115  1  0.49843984  0.89916490  0.50059633  1
  Nb  Nb116  1  0.50181807  0.70360640  0.10000537  1
  Nb  Nb117  1  0.90549729  0.29409287  0.49814297  1
  Nb  Nb118  1  0.09940157  0.69459689  0.69565804  1
  Nb  Nb119  1  0.30559760  0.30946033  0.90656421  1
  Nb  Nb120  1  0.89908277  0.49856458  0.69538273  1
  Nb  Nb121  1  0.70907497  0.10265752  0.70256169  1
  Nb  Nb122  1  0.30017677  0.49989074  0.90899039  1
  Nb  Nb123  1  0.10013981  0.49562947  0.69895738  1
  Nb  Nb124  1  0.69631478  0.90490536  0.10302418  1
  Nb  Nb125  1  0.20227437  0.20704107  0.59852037  1
  Nb  Nb126  1  0.40199061  -0.00456742  0.40331565  1
  Nb  Nb127  1  0.79685843  0.60083168  0.39729471  1
  Nb  Nb128  1  0.59356640  0.20385447  0.80007012  1
  Nb  Nb129  1  0.20132116  -0.00392934  -0.00067925  1
  Nb  Nb130  1  0.80625505  0.40003451  0.79455477  1
  Nb  Nb131  1  -0.00318680  0.79620906  0.19492225  1
  Nb  Nb132  1  0.00101656  0.59605395  0.78919031  1
  Nb  Nb133  1  0.80806965  0.39524379  0.60214194  1
  Nb  Nb134  1  0.40120492  0.39667939  0.39670150  1
  Nb  Nb135  1  0.40151450  0.59693956  0.00186885  1
  Nb  Nb136  1  0.00116988  0.39661796  0.59861290  1
  Nb  Nb137  1  -0.00251217  0.39979915  0.20057643  1
  Nb  Nb138  1  0.19619382  0.19967159  0.40716578  1
  Nb  Nb139  1  0.19937109  0.79784382  0.59925386  1
  Nb  Nb140  1  -0.00519759  0.40628635  0.79427447  1
  Nb  Nb141  1  0.80355604  -0.00024327  0.41077824  1
  Nb  Nb142  1  0.19813508  0.80447643  0.40501891  1
  Nb  Nb143  1  -0.00169670  0.39391372  0.40223395  1
  Nb  Nb144  1  0.39925154  0.80026012  0.59601725  1
  Nb  Nb145  1  0.39633553  0.20949116  0.60352120  1
  Nb  Nb146  1  0.60108331  0.00087400  0.19487796  1
  Nb  Nb147  1  0.19587041  0.39803642  0.59977819  1
  Nb  Nb148  1  0.20437015  0.80748254  0.00160492  1
  Nb  Nb149  1  0.60515750  0.19975565  0.19777181  1
  Pd  Pd150  1  0.39513604  0.19928686  0.41305595  1
  Pd  Pd151  1  0.59692546  0.59396288  0.60071306  1
  Pd  Pd152  1  0.80254444  0.59618162  0.79674733  1
  Pd  Pd153  1  0.40181118  0.58933251  0.19306164  1
  Pd  Pd154  1  0.20284402  0.59972622  0.20401284  1
  Pd  Pd155  1  0.00809335  0.60348697  -0.00967971  1
  Pd  Pd156  1  0.79986503  0.81072801  0.59368608  1
  Pd  Pd157  1  0.59720372  0.00168617  0.60689993  1
  Pd  Pd158  1  0.41455659  0.00672543  0.20446239  1
  Pd  Pd159  1  0.79002877  0.20637795  0.80774406  1
  Pd  Pd160  1  0.00506770  0.59194827  0.59584186  1
  Pd  Pd161  1  0.19582112  0.80568990  0.79559286  1
  Pd  Pd162  1  0.78850120  0.60141405  0.19964626  1
  Pd  Pd163  1  -0.00123912  0.20907370  0.20945923  1
  Pd  Pd164  1  0.59763050  0.80293467  0.79912484  1
  Pd  Pd165  1  0.00593261  0.81303700  0.38818010  1
  Pd  Pd166  1  0.40070543  0.79688126  0.00100095  1
  Pd  Pd167  1  0.19648225  0.19534862  0.20287893  1
  Pd  Pd168  1  -0.00532334  0.78961371  0.79159930  1
  Pd  Pd169  1  0.40743865  0.80064652  0.20279751  1
  Pd  Pd170  1  0.79377511  0.19332591  0.40617805  1
  Pd  Pd171  1  0.80674896  0.40277856  -0.00298072  1
  Pd  Pd172  1  0.41177936  0.19503182  0.19383082  1
  Pd  Pd173  1  0.20763335  0.19256208  0.00051474  1
  Pd  Pd174  1  -0.00847633  0.00491087  0.79363159  1
  Pd  Pd175  1  0.19595027  0.59327577  0.79974161  1
  Pd  Pd176  1  0.39592612  0.20225088  0.79326949  1
  Pd  Pd177  1  0.60157654  0.00798119  0.80444441  1
  Pd  Pd178  1  0.20493066  0.59667445  0.60419116  1
  Pd  Pd179  1  0.21648519  0.19694116  0.79415118  1
  Pd  Pd180  1  0.79892812  0.80297753  0.40631825  1
  Pd  Pd181  1  0.19841868  0.00992856  0.19165835  1
  Pd  Pd182  1  0.39890187  0.00203937  -0.00439725  1
  Pd  Pd183  1  0.60575014  0.20021592  0.39690503  1
  Pd  Pd184  1  0.39475284  0.80349618  0.40502533  1
  Pd  Pd185  1  0.00881684  0.79099539  0.00461220  1
  Pd  Pd186  1  0.00636477  0.19370751  0.60351934  1
  Pd  Pd187  1  0.19789659  -0.00385177  0.80663316  1
  Pd  Pd188  1  0.40509203  0.40527230  0.20025897  1
  Pd  Pd189  1  0.79000144  0.79723595  0.00446070  1
  Pd  Pd190  1  0.59579718  0.60151666  0.00359322  1
  Pd  Pd191  1  0.80077062  0.80292364  0.79953757  1
  Pd  Pd192  1  0.80653443  0.40530399  0.19581718  1
  Pd  Pd193  1  -0.00496427  0.19053146  0.00261695  1
  Pd  Pd194  1  0.59714781  0.39454476  0.00250706  1
  Pd  Pd195  1  0.59204072  0.20141316  0.60739699  1
  Pd  Pd196  1  0.59718494  0.59691855  0.79618973  1
  Pd  Pd197  1  0.18909395  0.79841737  0.20366840  1
  Pd  Pd198  1  -0.00225204  0.40771520  -0.00154761  1
  Pd  Pd199  1  0.59888533  0.79013922  0.39802537  1
  Rh  Rh200  1  0.80478360  0.79693064  0.18947676  1
  Rh  Rh201  1  0.58979114  0.79865294  0.60326548  1
  Rh  Rh202  1  0.20772005  0.61195546  -0.00362636  1
  Rh  Rh203  1  0.00396136  0.59896734  0.19511255  1
  Rh  Rh204  1  -0.00744670  0.59087480  0.40295749  1
  Rh  Rh205  1  0.20051062  0.39625144  0.40369034  1
  Rh  Rh206  1  0.19429435  0.40064308  0.19440364  1
  Rh  Rh207  1  0.79188540  0.60862903  0.00461200  1
  Rh  Rh208  1  0.79697697  0.20546701  0.59164075  1
  Rh  Rh209  1  0.40846359  -0.00123940  0.59830750  1
  Rh  Rh210  1  -0.00444777  -0.00267446  0.20350373  1
  Rh  Rh211  1  0.80484638  0.19782478  -0.00396053  1
  Rh  Rh212  1  0.39334556  0.39952012  0.59281614  1
  Rh  Rh213  1  0.61050107  0.39447753  0.80251172  1
  Rh  Rh214  1  -0.00191899  0.00723362  0.60889082  1
  Rh  Rh215  1  0.59472956  0.80309605  0.19833727  1
  Rh  Rh216  1  0.60725937  0.60212027  0.39614596  1
  Rh  Rh217  1  0.40665096  0.00098552  0.80819651  1
  Rh  Rh218  1  0.79364362  0.19388588  0.20530079  1
  Rh  Rh219  1  0.79912456  -0.00238368  -0.00370678  1
  Rh  Rh220  1  0.79475357  0.00576063  0.20883135  1
  Rh  Rh221  1  0.79713936  -0.00557181  0.80339978  1
  Rh  Rh222  1  0.00236393  0.00766291  -0.00085124  1
  Rh  Rh223  1  0.59789640  0.39255147  0.19392580  1
  Rh  Rh224  1  0.18904524  0.00089872  0.60843641  1
  Rh  Rh225  1  0.79709491  -0.00502836  0.59255048  1
  Rh  Rh226  1  0.20316768  0.00411671  0.40214214  1
  Rh  Rh227  1  0.78909904  0.59145152  0.59353690  1
  Rh  Rh228  1  0.60102413  0.00269435  0.39492128  1
  Rh  Rh229  1  0.20791878  0.60911679  0.39290066  1
  Rh  Rh230  1  0.39316338  0.40719975  0.80967106  1
  Rh  Rh231  1  0.60032421  0.20429695  -0.00192188  1
  Rh  Rh232  1  0.60686157  0.40396461  0.59912277  1
  Rh  Rh233  1  0.00550718  0.80035747  0.60833600  1
  Rh  Rh234  1  0.40726929  0.59046720  0.80745448  1
  Rh  Rh235  1  0.00676990  0.20424221  0.39521092  1
  Rh  Rh236  1  0.59822266  -0.00117846  0.00217030  1
  Rh  Rh237  1  0.40803319  0.80159886  0.78985937  1
  Rh  Rh238  1  0.39391345  0.20609701  -0.00161989  1
  Rh  Rh239  1  0.40516655  0.40569568  -0.00205448  1
  Rh  Rh240  1  0.40133304  0.58712941  0.39442876  1
  Rh  Rh241  1  0.20235232  0.40766475  0.80281154  1
  Rh  Rh242  1  0.40318508  0.60116310  0.60259957  1
  Rh  Rh243  1  0.59119625  0.39660817  0.40314693  1
  Rh  Rh244  1  -0.00562881  -0.00212046  0.40062200  1
  Rh  Rh245  1  0.60208849  0.80204465  -0.00031000  1
  Rh  Rh246  1  0.80447480  0.40203020  0.40301753  1
  Rh  Rh247  1  0.19848724  0.39306123  -0.00300544  1
  Rh  Rh248  1  -0.00808937  0.19143763  0.79690215  1
  Rh  Rh249  1  0.60060240  0.59717639  0.19814380  1
