# generated using pymatgen
data_ZrScNbPdRh
_symmetry_space_group_name_H-M   'P 1'
_cell_length_a   16.56265399
_cell_length_b   16.56081485
_cell_length_c   16.55876139
_cell_angle_alpha   89.97695621
_cell_angle_beta   90.00025458
_cell_angle_gamma   89.99076136
_symmetry_Int_Tables_number   1
_chemical_formula_structural   ZrScNbPdRh
_chemical_formula_sum   'Zr50 Sc50 Nb50 Pd50 Rh50'
_cell_volume   4541.91955737
_cell_formula_units_Z   50
loop_
 _symmetry_equiv_pos_site_id
 _symmetry_equiv_pos_as_xyz
  1  'x, y, z'
loop_
 _atom_site_type_symbol
 _atom_site_label
 _atom_site_symmetry_multiplicity
 _atom_site_fract_x
 _atom_site_fract_y
 _atom_site_fract_z
 _atom_site_occupancy
  Zr  Zr0  1  0.10346587  0.29874539  0.50128763  1
  Zr  Zr1  1  0.50757616  0.29520341  0.49909740  1
  Zr  Zr2  1  0.89174170  0.50282983  0.90211475  1
  Zr  Zr3  1  0.50533887  0.49569828  0.49156778  1
  Zr  Zr4  1  0.49700973  0.49517955  0.90602043  1
  Zr  Zr5  1  0.89895352  0.10215555  0.09888921  1
  Zr  Zr6  1  0.49249513  0.29830595  0.09651428  1
  Zr  Zr7  1  0.08765177  0.10132201  0.09872757  1
  Zr  Zr8  1  0.90418885  0.89959734  0.50779534  1
  Zr  Zr9  1  0.29764276  0.70263748  0.30146062  1
  Zr  Zr10  1  0.30163615  0.30160203  0.10329273  1
  Zr  Zr11  1  0.70256842  0.09807339  0.89250572  1
  Zr  Zr12  1  0.10718179  0.10162257  0.49941290  1
  Zr  Zr13  1  0.29487852  0.49676483  0.70039225  1
  Zr  Zr14  1  0.30365954  0.70290284  0.70452649  1
  Zr  Zr15  1  0.10105648  0.49771518  0.50404900  1
  Zr  Zr16  1  0.49485567  0.30409528  0.89516504  1
  Zr  Zr17  1  0.10381851  0.50214289  0.30115611  1
  Zr  Zr18  1  0.09353782  0.70014945  0.29526492  1
  Zr  Zr19  1  0.50950901  0.90610410  0.69697160  1
  Zr  Zr20  1  0.49570602  0.29407909  0.69616074  1
  Zr  Zr21  1  0.69105099  0.49983635  0.29512799  1
  Zr  Zr22  1  0.30951657  0.69822078  0.90743279  1
  Zr  Zr23  1  0.89736386  0.09787371  0.49950532  1
  Zr  Zr24  1  0.70286072  0.89219992  0.89614465  1
  Zr  Zr25  1  0.89642720  0.10655797  0.70615051  1
  Zr  Zr26  1  0.10575295  0.30337237  0.70364191  1
  Zr  Zr27  1  0.49105164  0.69343253  0.09402320  1
  Zr  Zr28  1  0.89021409  0.49083697  0.50539328  1
  Zr  Zr29  1  0.89633477  0.89811118  0.30901192  1
  Zr  Zr30  1  0.88936475  0.30182684  0.29796769  1
  Zr  Zr31  1  0.70015565  0.29949923  0.30511856  1
  Zr  Zr32  1  0.09836754  0.49107911  0.89973576  1
  Zr  Zr33  1  0.50513370  0.69265072  0.29315290  1
  Zr  Zr34  1  0.08629846  0.89521290  0.70273691  1
  Zr  Zr35  1  0.49869586  0.89791268  0.50528634  1
  Zr  Zr36  1  0.68861079  0.09629718  0.30019248  1
  Zr  Zr37  1  0.69402875  0.49918424  0.50056228  1
  Zr  Zr38  1  0.30892545  0.29399365  0.29771792  1
  Zr  Zr39  1  0.09773298  0.09558598  0.71282916  1
  Zr  Zr40  1  0.30580079  0.48962085  0.29522398  1
  Zr  Zr41  1  0.10088276  0.70505105  0.09738293  1
  Zr  Zr42  1  0.10442956  0.69800314  0.90432859  1
  Zr  Zr43  1  0.50771216  0.89827168  0.89877528  1
  Zr  Zr44  1  0.69954438  0.70275305  0.69676512  1
  Zr  Zr45  1  0.89847458  0.10577338  0.29380778  1
  Zr  Zr46  1  0.50607992  0.70173861  0.50433266  1
  Zr  Zr47  1  0.10007056  0.89892545  0.29193920  1
  Zr  Zr48  1  0.89463705  0.70496933  0.50674658  1
  Zr  Zr49  1  0.89866898  0.50183977  0.70830358  1
  Sc  Sc50  1  0.88829094  0.50491325  0.29099901  1
  Sc  Sc51  1  0.30372962  0.10174828  0.49348968  1
  Sc  Sc52  1  0.10657228  0.09898271  0.29757392  1
  Sc  Sc53  1  0.70756961  0.70542923  0.10418381  1
  Sc  Sc54  1  0.88830529  0.30453289  0.70006698  1
  Sc  Sc55  1  0.90618455  0.89784980  0.10496461  1
  Sc  Sc56  1  0.30846337  0.29660402  0.70135897  1
  Sc  Sc57  1  0.90130229  0.70930519  0.70548062  1
  Sc  Sc58  1  0.69285341  0.89659015  0.09914055  1
  Sc  Sc59  1  0.90438554  0.69232041  0.10242629  1
  Sc  Sc60  1  0.30463775  0.70962408  0.49828787  1
  Sc  Sc61  1  0.10611805  0.70179596  0.49715764  1
  Sc  Sc62  1  0.89588685  0.50377622  0.09588745  1
  Sc  Sc63  1  0.70553513  0.49616449  0.70132276  1
  Sc  Sc64  1  0.30711185  0.90485848  0.49309396  1
  Sc  Sc65  1  0.30490180  0.09893887  0.30390027  1
  Sc  Sc66  1  0.11194225  0.29397176  0.29198007  1
  Sc  Sc67  1  0.31350628  0.09971632  0.10193183  1
  Sc  Sc68  1  0.30290667  0.89782325  0.90131051  1
  Sc  Sc69  1  0.49677814  0.90965714  0.09657425  1
  Sc  Sc70  1  0.30601828  0.09597013  0.90136940  1
  Sc  Sc71  1  0.30588785  0.49974638  0.09485448  1
  Sc  Sc72  1  0.89201629  0.30279117  0.89995638  1
  Sc  Sc73  1  0.49360559  0.48859892  0.70384321  1
  Sc  Sc74  1  0.90736910  0.10553664  0.89836960  1
  Sc  Sc75  1  0.49490313  0.09600246  0.90485807  1
  Sc  Sc76  1  0.09385696  0.90480285  0.49531310  1
  Sc  Sc77  1  0.69591111  0.09989903  0.69903805  1
  Sc  Sc78  1  0.89623674  0.70596112  0.28967746  1
  Sc  Sc79  1  0.69945077  0.90270427  0.50126331  1
  Sc  Sc80  1  0.50073259  0.30216194  0.30236122  1
  Sc  Sc81  1  0.50074838  0.09663148  0.10437121  1
  Sc  Sc82  1  0.30744036  0.29055628  0.49418529  1
  Sc  Sc83  1  0.10086826  0.49205869  0.70179402  1
  Sc  Sc84  1  0.50281587  0.09764042  0.50099750  1
  Sc  Sc85  1  0.70795913  0.30535346  0.10171883  1
  Sc  Sc86  1  0.88997391  0.69695093  0.89812444  1
  Sc  Sc87  1  0.69305167  0.10598213  0.50349148  1
  Sc  Sc88  1  0.29407444  0.49510114  0.49358893  1
  Sc  Sc89  1  0.10071834  0.90803072  0.88652565  1
  Sc  Sc90  1  0.89614766  0.29466704  0.10344431  1
  Sc  Sc91  1  0.49852040  0.71117390  0.69912015  1
  Sc  Sc92  1  0.10432312  0.29741280  0.09345299  1
  Sc  Sc93  1  0.09169711  0.50929594  0.08777293  1
  Sc  Sc94  1  0.31110940  0.90105136  0.70995600  1
  Sc  Sc95  1  0.69618682  0.10262539  0.10202326  1
  Sc  Sc96  1  0.30380066  0.30271487  0.90969085  1
  Sc  Sc97  1  0.29853823  0.91044257  0.30085613  1
  Sc  Sc98  1  0.29988064  0.49534890  0.90178069  1
  Sc  Sc99  1  0.49992145  0.90886354  0.29526445  1
  Nb  Nb100  1  0.10208532  0.10313268  0.90166062  1
  Nb  Nb101  1  0.70063092  0.90599095  0.70559678  1
  Nb  Nb102  1  0.89945532  0.89803002  0.70681928  1
  Nb  Nb103  1  0.49976751  0.10077629  0.29846134  1
  Nb  Nb104  1  0.89152169  0.29824859  0.49781253  1
  Nb  Nb105  1  0.10071303  0.70086749  0.70114848  1
  Nb  Nb106  1  0.70714354  0.30085735  0.50588120  1
  Nb  Nb107  1  0.69832935  0.69588918  0.90299995  1
  Nb  Nb108  1  0.69708145  0.30689774  0.89622165  1
  Nb  Nb109  1  0.29248582  0.70356440  0.09057439  1
  Nb  Nb110  1  0.70202016  0.70531611  0.29806601  1
  Nb  Nb111  1  0.10340580  0.90031875  0.09689928  1
  Nb  Nb112  1  0.69302661  0.69422780  0.50116999  1
  Nb  Nb113  1  0.89982002  0.89335578  0.89287035  1
  Nb  Nb114  1  0.70234435  0.89350318  0.29362883  1
  Nb  Nb115  1  0.70317793  0.49966280  0.90447535  1
  Nb  Nb116  1  0.69931273  0.29144044  0.69840721  1
  Nb  Nb117  1  0.49561395  0.10407300  0.70000375  1
  Nb  Nb118  1  0.70408161  0.49900355  0.09604297  1
  Nb  Nb119  1  0.50416716  0.49989844  0.10811893  1
  Nb  Nb120  1  0.50114823  0.49929787  0.29717885  1
  Nb  Nb121  1  0.10895526  0.29880623  0.90121275  1
  Nb  Nb122  1  0.30418592  0.10182251  0.70378029  1
  Nb  Nb123  1  0.50293980  0.69453415  0.90071324  1
  Nb  Nb124  1  0.29411860  0.89716901  0.09747595  1
  Nb  Nb125  1  0.19981374  0.19821296  0.80705639  1
  Nb  Nb126  1  0.19936866  0.60204349  0.79966886  1
  Nb  Nb127  1  0.19855553  0.80794904  0.60666876  1
  Nb  Nb128  1  0.20172143  -0.00152517  0.60926942  1
  Nb  Nb129  1  -0.00266266  0.20413992  0.59721759  1
  Nb  Nb130  1  0.60199594  0.20774675  -0.00873905  1
  Nb  Nb131  1  -0.00313724  0.20712085  0.40292912  1
  Nb  Nb132  1  0.19388176  0.00007630  0.00386926  1
  Nb  Nb133  1  0.80310417  -0.00436897  0.60958879  1
  Nb  Nb134  1  0.39093426  0.79927330  0.19127382  1
  Nb  Nb135  1  0.59776574  0.20393011  0.80067651  1
  Nb  Nb136  1  0.00154838  0.60008580  0.60016454  1
  Nb  Nb137  1  0.00336283  0.80520393  -0.00407335  1
  Nb  Nb138  1  0.40657370  0.59674534  0.39802181  1
  Nb  Nb139  1  0.20280083  0.60600347  0.19381704  1
  Nb  Nb140  1  0.40000960  0.59817211  0.59480111  1
  Nb  Nb141  1  -0.00948789  0.59531385  0.40504709  1
  Nb  Nb142  1  -0.00502723  0.39749150  0.39759894  1
  Nb  Nb143  1  0.60112014  0.59926956  0.81012224  1
  Nb  Nb144  1  0.79189545  0.60731370  0.40126443  1
  Nb  Nb145  1  0.79626586  -0.00350069  0.20150132  1
  Nb  Nb146  1  0.60669308  0.79609695  0.39547994  1
  Nb  Nb147  1  0.60300199  0.59579499  -0.00071215  1
  Nb  Nb148  1  0.00031995  0.40048036  0.20360999  1
  Nb  Nb149  1  0.80453679  -0.00477026  -0.00084863  1
  Pd  Pd150  1  0.60140130  0.39904299  0.00836114  1
  Pd  Pd151  1  0.80463143  0.60071721  0.60273171  1
  Pd  Pd152  1  0.20486916  0.18955345  0.19387058  1
  Pd  Pd153  1  0.59866846  0.39255011  0.19582636  1
  Pd  Pd154  1  0.20393542  0.79914180  0.20178474  1
  Pd  Pd155  1  0.20264588  0.60896128  0.60405348  1
  Pd  Pd156  1  0.20521457  0.60093676  0.39644164  1
  Pd  Pd157  1  0.20242392  0.19397380  0.60959608  1
  Pd  Pd158  1  0.21283876  0.39028522  0.59668207  1
  Pd  Pd159  1  0.38954679  0.60267804  0.19977105  1
  Pd  Pd160  1  0.39479649  0.40230819  0.59022989  1
  Pd  Pd161  1  0.20179620  0.79831430  0.80047399  1
  Pd  Pd162  1  0.79206560  0.80844126  0.60420772  1
  Pd  Pd163  1  -0.00614958  0.39265808  0.00677934  1
  Pd  Pd164  1  0.60353174  0.39884267  0.60588134  1
  Pd  Pd165  1  0.00504923  0.00825526  0.39182761  1
  Pd  Pd166  1  0.79124272  0.00285061  0.40169930  1
  Pd  Pd167  1  0.39329436  0.00507717  0.59839165  1
  Pd  Pd168  1  0.00037789  0.79285127  0.40265832  1
  Pd  Pd169  1  0.20521491  0.00875585  0.19152177  1
  Pd  Pd170  1  0.79357072  0.19667983  -0.00364065  1
  Pd  Pd171  1  0.79467361  0.19276971  0.40168677  1
  Pd  Pd172  1  0.59679410  0.79278057  0.00672790  1
  Pd  Pd173  1  -0.00478663  0.39171868  0.80478551  1
  Pd  Pd174  1  0.00528514  0.60315883  0.79836395  1
  Pd  Pd175  1  -0.00552321  -0.00344584  0.20499707  1
  Pd  Pd176  1  0.60945914  0.60270991  0.18846262  1
  Pd  Pd177  1  0.40601370  0.80797449  0.00110450  1
  Pd  Pd178  1  0.20839845  0.19006341  -0.00041351  1
  Pd  Pd179  1  -0.00278977  0.21112817  -0.00420751  1
  Pd  Pd180  1  0.58846881  0.80444350  0.19727288  1
  Pd  Pd181  1  0.19808202  0.80999151  0.40653065  1
  Pd  Pd182  1  0.58945437  0.59337533  0.61782590  1
  Pd  Pd183  1  -0.00203083  -0.00777223  -0.00965360  1
  Pd  Pd184  1  0.60786304  0.00696416  -0.00044825  1
  Pd  Pd185  1  0.40657549  -0.00126258  0.80420360  1
  Pd  Pd186  1  0.59788723  -0.00891013  0.40134488  1
  Pd  Pd187  1  0.60450535  0.40079295  0.79258585  1
  Pd  Pd188  1  0.81012548  0.80291063  0.00660944  1
  Pd  Pd189  1  0.59812423  0.20641836  0.19330559  1
  Pd  Pd190  1  -0.00115442  0.00809824  0.60620134  1
  Pd  Pd191  1  0.19048700  0.41183415  0.18500093  1
  Pd  Pd192  1  0.00255403  0.21232068  0.79943540  1
  Pd  Pd193  1  0.79360129  0.79595367  0.40551415  1
  Pd  Pd194  1  0.80592053  0.00037232  0.80220657  1
  Pd  Pd195  1  -0.00539008  0.39643165  0.60040840  1
  Pd  Pd196  1  0.41140323  0.79904684  0.38621536  1
  Pd  Pd197  1  0.60056698  0.79367135  0.79875554  1
  Pd  Pd198  1  0.40182620  0.59619863  0.79431269  1
  Pd  Pd199  1  0.20013296  0.38998816  0.39795811  1
  Rh  Rh200  1  0.40151058  0.19314443  0.59444770  1
  Rh  Rh201  1  0.39230696  0.39791049  0.80049440  1
  Rh  Rh202  1  0.60757366  0.80858335  0.59622236  1
  Rh  Rh203  1  0.20705739  0.39566854  0.80503486  1
  Rh  Rh204  1  0.00640217  0.59099524  0.20524605  1
  Rh  Rh205  1  0.59908947  0.19932804  0.60441509  1
  Rh  Rh206  1  0.60486995  0.39203009  0.39974235  1
  Rh  Rh207  1  0.39270229  -0.00494220  0.00177730  1
  Rh  Rh208  1  0.80537350  0.80622175  0.19490478  1
  Rh  Rh209  1  -0.00280205  0.79305190  0.80925530  1
  Rh  Rh210  1  0.79317581  0.39637159  0.60620870  1
  Rh  Rh211  1  0.39822223  0.19881431  0.80346139  1
  Rh  Rh212  1  0.78967288  0.19090338  0.20112588  1
  Rh  Rh213  1  0.60597386  0.00169710  0.60446973  1
  Rh  Rh214  1  0.40865195  0.00514295  0.39809105  1
  Rh  Rh215  1  0.19933923  0.20032784  0.39354632  1
  Rh  Rh216  1  0.80197193  0.39913147  0.00036549  1
  Rh  Rh217  1  0.60159240  0.60528061  0.39435376  1
  Rh  Rh218  1  0.20364169  0.59190057  -0.00353119  1
  Rh  Rh219  1  0.39143852  0.79972221  0.60431186  1
  Rh  Rh220  1  0.19931816  0.40306754  0.00262283  1
  Rh  Rh221  1  0.59291346  0.00984873  0.79687153  1
  Rh  Rh222  1  0.40225521  0.59286257  0.00138263  1
  Rh  Rh223  1  0.40631438  0.19689932  0.20448924  1
  Rh  Rh224  1  0.79290841  0.60078226  0.20112116  1
  Rh  Rh225  1  0.79490751  0.79543727  0.79758730  1
  Rh  Rh226  1  -0.00160654  0.80422286  0.19388686  1
  Rh  Rh227  1  0.79128158  0.20619102  0.80294561  1
  Rh  Rh228  1  0.79482703  0.60200358  0.00547903  1
  Rh  Rh229  1  0.41138166  0.80354884  0.80520689  1
  Rh  Rh230  1  0.00815142  0.79112594  0.59756834  1
  Rh  Rh231  1  0.39739410  -0.00463445  0.20142378  1
  Rh  Rh232  1  0.19932739  -0.00213356  0.40717980  1
  Rh  Rh233  1  0.60048645  0.20239051  0.40103776  1
  Rh  Rh234  1  0.40601965  0.19727883  -0.00126668  1
  Rh  Rh235  1  0.19275522  0.81284021  -0.01020115  1
  Rh  Rh236  1  -0.00878476  0.00084299  0.80657721  1
  Rh  Rh237  1  0.20823147  0.00881838  0.80225302  1
  Rh  Rh238  1  0.80224744  0.19363966  0.60053299  1
  Rh  Rh239  1  0.40323062  0.40138308  0.39918004  1
  Rh  Rh240  1  0.80403252  0.40587666  0.19383583  1
  Rh  Rh241  1  0.41063690  0.19512358  0.39804651  1
  Rh  Rh242  1  -0.00813708  0.60821985  -0.00938496  1
  Rh  Rh243  1  0.79315140  0.40859800  0.39857740  1
  Rh  Rh244  1  0.40725318  0.39827776  0.19806490  1
  Rh  Rh245  1  0.60378557  -0.00379449  0.20045502  1
  Rh  Rh246  1  0.79474925  0.39942644  0.79980124  1
  Rh  Rh247  1  0.79047765  0.60384941  0.79787249  1
  Rh  Rh248  1  0.00352687  0.21096798  0.20612934  1
  Rh  Rh249  1  0.39981348  0.40393570  0.00614100  1
