# generated using pymatgen
data_ZrScNbPdRh
_symmetry_space_group_name_H-M   'P 1'
_cell_length_a   16.55874056
_cell_length_b   16.55726224
_cell_length_c   16.56043740
_cell_angle_alpha   90.01052444
_cell_angle_beta   89.98781326
_cell_angle_gamma   90.01143754
_symmetry_Int_Tables_number   1
_chemical_formula_structural   ZrScNbPdRh
_chemical_formula_sum   'Zr50 Sc50 Nb50 Pd50 Rh50'
_cell_volume   4540.33195642
_cell_formula_units_Z   50
loop_
 _symmetry_equiv_pos_site_id
 _symmetry_equiv_pos_as_xyz
  1  'x, y, z'
loop_
 _atom_site_type_symbol
 _atom_site_label
 _atom_site_symmetry_multiplicity
 _atom_site_fract_x
 _atom_site_fract_y
 _atom_site_fract_z
 _atom_site_occupancy
  Zr  Zr0  1  0.90346662  0.10116992  0.69901999  1
  Zr  Zr1  1  0.29548178  0.30547654  0.89335615  1
  Zr  Zr2  1  0.90214354  0.50663368  0.89177137  1
  Zr  Zr3  1  0.10311335  0.29766803  0.49219857  1
  Zr  Zr4  1  0.29933703  0.09521724  0.09502913  1
  Zr  Zr5  1  0.89947619  0.29541003  0.89131901  1
  Zr  Zr6  1  0.69549066  0.69414318  0.50318612  1
  Zr  Zr7  1  0.10356135  0.30327813  0.09242975  1
  Zr  Zr8  1  0.89572609  0.49785681  0.30128544  1
  Zr  Zr9  1  0.09919968  0.09656427  0.50206891  1
  Zr  Zr10  1  0.09988214  0.29089153  0.90007353  1
  Zr  Zr11  1  0.10221374  0.70202324  0.30574925  1
  Zr  Zr12  1  0.71341113  0.69791205  0.09534310  1
  Zr  Zr13  1  0.10256080  0.09907784  0.08495719  1
  Zr  Zr14  1  0.49155866  0.69641646  0.70011335  1
  Zr  Zr15  1  0.29670188  0.49251471  0.50758102  1
  Zr  Zr16  1  0.29152563  0.89840454  0.70176792  1
  Zr  Zr17  1  0.69728831  0.50108707  0.49930368  1
  Zr  Zr18  1  0.30009985  0.09897397  0.49809583  1
  Zr  Zr19  1  0.49687058  0.90229919  0.89890838  1
  Zr  Zr20  1  0.90646960  0.30138385  0.30261189  1
  Zr  Zr21  1  0.50372088  0.09377414  0.29464391  1
  Zr  Zr22  1  0.49888662  0.49388952  0.09338873  1
  Zr  Zr23  1  0.90671643  0.50382320  0.69673010  1
  Zr  Zr24  1  0.29771251  0.90245615  0.90762799  1
  Zr  Zr25  1  0.70594787  0.70572115  0.69540443  1
  Zr  Zr26  1  0.69406884  0.88961803  0.50649440  1
  Zr  Zr27  1  0.50189247  0.69758160  0.09917569  1
  Zr  Zr28  1  0.29957338  0.89376090  0.29597881  1
  Zr  Zr29  1  0.70284441  0.29272432  0.89228586  1
  Zr  Zr30  1  0.89949948  0.30735463  0.09855420  1
  Zr  Zr31  1  0.90719135  0.09841673  0.89591222  1
  Zr  Zr32  1  0.69629239  0.09253656  0.10549497  1
  Zr  Zr33  1  0.09747634  0.49751462  0.51011182  1
  Zr  Zr34  1  0.49077482  0.50592692  0.90919114  1
  Zr  Zr35  1  0.10033466  0.90246485  0.89275737  1
  Zr  Zr36  1  0.70440650  0.89420694  0.70956647  1
  Zr  Zr37  1  0.30383668  0.49500764  0.08587884  1
  Zr  Zr38  1  0.50018743  0.90212400  0.70209024  1
  Zr  Zr39  1  0.30321471  0.10212322  0.89896872  1
  Zr  Zr40  1  0.50388317  0.70603612  0.50243332  1
  Zr  Zr41  1  0.70898943  0.50709835  0.70048707  1
  Zr  Zr42  1  0.50450626  0.30052408  0.50472353  1
  Zr  Zr43  1  0.49684299  0.50837659  0.49439976  1
  Zr  Zr44  1  0.30142380  0.30379566  0.50109242  1
  Zr  Zr45  1  0.09630304  0.70926550  0.10295106  1
  Zr  Zr46  1  0.90427303  0.69886641  0.29147984  1
  Zr  Zr47  1  0.89896674  0.70317157  0.91045482  1
  Zr  Zr48  1  0.10174587  0.89713590  0.50736064  1
  Zr  Zr49  1  0.89104519  0.52154098  0.09969031  1
  Sc  Sc50  1  0.69540292  0.11211441  0.49374867  1
  Sc  Sc51  1  0.50330622  0.29386425  0.90666641  1
  Sc  Sc52  1  0.90466027  0.49982286  0.50108262  1
  Sc  Sc53  1  0.91636890  0.89806446  0.50149470  1
  Sc  Sc54  1  0.50025892  0.29358383  0.70270277  1
  Sc  Sc55  1  0.69659591  0.09307728  0.29919497  1
  Sc  Sc56  1  0.10336531  0.70190897  0.90022349  1
  Sc  Sc57  1  0.49989065  0.11465226  0.10131873  1
  Sc  Sc58  1  0.49880079  0.70615625  0.29932720  1
  Sc  Sc59  1  0.90989107  0.10031385  0.49951979  1
  Sc  Sc60  1  0.89988097  0.09388821  0.30496646  1
  Sc  Sc61  1  0.09896856  0.09932756  0.31476881  1
  Sc  Sc62  1  0.50244641  0.08948158  0.49385939  1
  Sc  Sc63  1  0.69529064  0.70555546  0.29215651  1
  Sc  Sc64  1  0.09774800  0.09598017  0.70222192  1
  Sc  Sc65  1  0.09321644  0.30557227  0.69687349  1
  Sc  Sc66  1  0.89028008  0.08888853  0.08755270  1
  Sc  Sc67  1  0.48850079  0.50146915  0.70248120  1
  Sc  Sc68  1  0.10042933  0.89676085  0.30916331  1
  Sc  Sc69  1  0.09358262  0.50465377  0.30379226  1
  Sc  Sc70  1  0.89846671  0.90434054  0.89617893  1
  Sc  Sc71  1  0.49927704  0.70152401  0.91054005  1
  Sc  Sc72  1  0.29190834  0.71090194  0.10184077  1
  Sc  Sc73  1  0.29351131  0.70397085  0.29931793  1
  Sc  Sc74  1  0.10529690  0.50867449  0.09757760  1
  Sc  Sc75  1  0.09954336  0.50112141  0.69880255  1
  Sc  Sc76  1  0.49330706  0.89199483  0.10012320  1
  Sc  Sc77  1  0.89670699  0.29458151  0.49469501  1
  Sc  Sc78  1  0.09895109  0.70659131  0.69824688  1
  Sc  Sc79  1  0.48920776  0.29882315  0.28928034  1
  Sc  Sc80  1  0.09933434  0.69771080  0.49877977  1
  Sc  Sc81  1  0.90134697  0.89912659  0.29693730  1
  Sc  Sc82  1  0.30528300  0.49646024  0.30672642  1
  Sc  Sc83  1  0.31153740  0.29722308  0.09873440  1
  Sc  Sc84  1  0.49910027  0.09907282  0.71357809  1
  Sc  Sc85  1  0.30834870  0.10340691  0.70531383  1
  Sc  Sc86  1  0.29386207  0.68987496  0.70371084  1
  Sc  Sc87  1  0.29857131  0.09668541  0.30390636  1
  Sc  Sc88  1  0.30666302  0.90332177  0.49889339  1
  Sc  Sc89  1  0.70687641  0.89871020  0.10655690  1
  Sc  Sc90  1  0.69739455  0.10818561  0.70852086  1
  Sc  Sc91  1  0.50262957  0.89806688  0.30074110  1
  Sc  Sc92  1  0.90944214  0.69713158  0.50551547  1
  Sc  Sc93  1  0.30245545  0.30133539  0.30393495  1
  Sc  Sc94  1  0.71493222  0.29303501  0.32130903  1
  Sc  Sc95  1  0.49420779  0.49734945  0.30210920  1
  Sc  Sc96  1  0.70504716  0.10446895  0.90264231  1
  Sc  Sc97  1  0.69350711  0.90536009  0.29023509  1
  Sc  Sc98  1  0.29920076  0.69850764  0.49868238  1
  Sc  Sc99  1  0.69169619  0.28506660  0.08431306  1
  Nb  Nb100  1  0.09917783  0.29802883  0.29461810  1
  Nb  Nb101  1  0.10790898  0.49501613  0.90638337  1
  Nb  Nb102  1  0.29861186  0.69769266  0.89480845  1
  Nb  Nb103  1  0.89709454  0.70018964  0.70103866  1
  Nb  Nb104  1  0.89408820  0.30146113  0.69999795  1
  Nb  Nb105  1  0.90596273  0.89767371  0.10131040  1
  Nb  Nb106  1  0.49906007  0.30370252  0.10366034  1
  Nb  Nb107  1  0.89751016  0.71263349  0.10313892  1
  Nb  Nb108  1  0.69804197  0.50180643  0.09672669  1
  Nb  Nb109  1  0.69949171  0.49967124  0.30092533  1
  Nb  Nb110  1  0.69696582  0.50436508  0.90395142  1
  Nb  Nb111  1  0.30250815  0.30289801  0.69774704  1
  Nb  Nb112  1  0.69851713  0.70786479  0.89794706  1
  Nb  Nb113  1  0.29046939  0.90556586  0.09971073  1
  Nb  Nb114  1  0.11078356  0.90437819  0.09498039  1
  Nb  Nb115  1  0.29615180  0.50501826  0.89258321  1
  Nb  Nb116  1  0.49747418  0.09219018  0.89744906  1
  Nb  Nb117  1  0.09438613  0.89780487  0.70026670  1
  Nb  Nb118  1  0.69688424  0.30283926  0.50830489  1
  Nb  Nb119  1  0.30031451  0.49049418  0.71500117  1
  Nb  Nb120  1  0.69795944  0.29933927  0.69828920  1
  Nb  Nb121  1  0.09704762  0.10365248  0.89814933  1
  Nb  Nb122  1  0.69195272  0.89630761  0.89230462  1
  Nb  Nb123  1  0.90458981  0.89723034  0.70148022  1
  Nb  Nb124  1  0.50141022  0.90122846  0.50189447  1
  Nb  Nb125  1  0.78961915  0.39942839  0.19444538  1
  Nb  Nb126  1  0.00156183  0.19453530  0.19634657  1
  Nb  Nb127  1  0.39332114  -0.00349957  0.19539734  1
  Nb  Nb128  1  0.20551594  0.20495567  0.60002153  1
  Nb  Nb129  1  0.80055282  0.79785247  0.40148896  1
  Nb  Nb130  1  0.19848663  0.39598551  0.19893040  1
  Nb  Nb131  1  0.79858480  -0.00284386  0.59987715  1
  Nb  Nb132  1  -0.00353036  0.40856618  -0.00561722  1
  Nb  Nb133  1  0.60240232  0.39901672  0.39903779  1
  Nb  Nb134  1  0.79859551  0.40667124  -0.00262564  1
  Nb  Nb135  1  0.00552284  -0.00040905  0.18989784  1
  Nb  Nb136  1  0.79747047  0.60405547  0.39760552  1
  Nb  Nb137  1  0.60031827  0.59170789  0.19532825  1
  Nb  Nb138  1  0.60513799  -0.00489596  0.60302545  1
  Nb  Nb139  1  0.79599791  0.39268693  0.60314107  1
  Nb  Nb140  1  0.60779397  0.39826946  0.19950206  1
  Nb  Nb141  1  0.40193633  0.59993329  0.19297962  1
  Nb  Nb142  1  0.80598060  0.20243167  0.19858315  1
  Nb  Nb143  1  0.60595811  0.40626073  0.80148023  1
  Nb  Nb144  1  0.60422360  0.60001412  0.80634784  1
  Nb  Nb145  1  0.40138110  0.19714668  0.40281720  1
  Nb  Nb146  1  0.19363062  0.20254125  0.20130664  1
  Nb  Nb147  1  0.39338993  0.79878927  0.80375555  1
  Nb  Nb148  1  0.79668977  -0.00944602  0.41026302  1
  Nb  Nb149  1  0.59765083  -0.00214931  -0.00645839  1
  Pd  Pd150  1  0.40336914  0.19195084  0.59743510  1
  Pd  Pd151  1  0.19009358  0.59890057  0.79761987  1
  Pd  Pd152  1  0.79559289  0.40066903  0.79886994  1
  Pd  Pd153  1  0.60691009  0.80813328  0.00727657  1
  Pd  Pd154  1  -0.00948643  0.20124849  0.00416034  1
  Pd  Pd155  1  0.39035850  0.79606036  -0.00088008  1
  Pd  Pd156  1  0.20295818  0.79508949  0.59671365  1
  Pd  Pd157  1  0.59062597  0.20898451  0.39159384  1
  Pd  Pd158  1  0.59370805  0.18691749  0.60485354  1
  Pd  Pd159  1  0.79752101  0.61088217  0.80581670  1
  Pd  Pd160  1  0.19460611  0.00701776  0.20971219  1
  Pd  Pd161  1  0.59947391  0.40809888  0.60622614  1
  Pd  Pd162  1  0.79733204  0.81295220  -0.00446295  1
  Pd  Pd163  1  0.00510279  0.59948643  0.19719133  1
  Pd  Pd164  1  0.00636407  0.20618757  0.60112808  1
  Pd  Pd165  1  0.60486151  0.39507267  -0.00275082  1
  Pd  Pd166  1  0.39759497  0.61031258  0.39207304  1
  Pd  Pd167  1  0.58844040  0.78887529  0.79813887  1
  Pd  Pd168  1  0.20205628  0.59707718  0.60536764  1
  Pd  Pd169  1  0.39275998  0.80001584  0.60457997  1
  Pd  Pd170  1  0.40067088  0.20246404  -0.00418163  1
  Pd  Pd171  1  0.00826278  0.81085391  0.20260037  1
  Pd  Pd172  1  0.19394152  0.40519718  0.39089026  1
  Pd  Pd173  1  0.19811444  0.19878300  0.78840058  1
  Pd  Pd174  1  0.20128834  0.59347658  0.40202268  1
  Pd  Pd175  1  0.59429349  0.59553877  0.61083310  1
  Pd  Pd176  1  -0.00491072  0.79481020  0.79984608  1
  Pd  Pd177  1  0.60407405  0.80271330  0.39309374  1
  Pd  Pd178  1  0.79808424  0.00461323  0.79682924  1
  Pd  Pd179  1  0.00424629  0.80944711  -0.00276789  1
  Pd  Pd180  1  0.00683366  0.40049052  0.80333102  1
  Pd  Pd181  1  0.00973516  0.60710504  0.80062363  1
  Pd  Pd182  1  0.20070674  -0.00787171  0.40096242  1
  Pd  Pd183  1  0.18984754  0.39839689  0.79601476  1
  Pd  Pd184  1  0.41233259  0.39364566  0.80595428  1
  Pd  Pd185  1  0.00285007  0.40140617  0.40490069  1
  Pd  Pd186  1  0.39969304  0.79968443  0.40139114  1
  Pd  Pd187  1  0.38781291  0.59600978  0.60139288  1
  Pd  Pd188  1  0.79075001  -0.01003335  -0.00628534  1
  Pd  Pd189  1  0.40442424  0.40254763  0.60359150  1
  Pd  Pd190  1  0.00338779  0.40675560  0.19019712  1
  Pd  Pd191  1  0.20091603  0.00721711  0.60586342  1
  Pd  Pd192  1  0.40685747  0.00475819  0.60472147  1
  Pd  Pd193  1  0.79988483  0.19720819  0.59728071  1
  Pd  Pd194  1  0.20998834  0.59070710  0.20210676  1
  Pd  Pd195  1  0.20284009  0.60949163  0.00071469  1
  Pd  Pd196  1  0.61328851  0.21329772  0.21103364  1
  Pd  Pd197  1  0.00543541  0.60144752  0.00117414  1
  Pd  Pd198  1  0.19995477  0.00611555  0.79954696  1
  Pd  Pd199  1  0.81387087  0.80371785  0.59334070  1
  Rh  Rh200  1  -0.00306959  -0.00533695  0.60744161  1
  Rh  Rh201  1  0.20698939  0.20313647  0.40078063  1
  Rh  Rh202  1  0.20137562  0.80245077  0.40875711  1
  Rh  Rh203  1  0.19353334  0.80473054  0.20127951  1
  Rh  Rh204  1  0.00398107  -0.00668579  -0.00122886  1
  Rh  Rh205  1  0.79469685  0.40734409  0.40711193  1
  Rh  Rh206  1  0.41202430  0.39036546  0.40384743  1
  Rh  Rh207  1  0.39637834  0.39081600  -0.01020525  1
  Rh  Rh208  1  0.40240372  0.60527676  0.80808578  1
  Rh  Rh209  1  0.00254241  0.60486040  0.60460611  1
  Rh  Rh210  1  0.60151913  0.59728934  0.39011875  1
  Rh  Rh211  1  -0.01239663  0.39215326  0.59535961  1
  Rh  Rh212  1  0.81169657  0.00299618  0.20589139  1
  Rh  Rh213  1  -0.00401006  0.60059299  0.40122393  1
  Rh  Rh214  1  0.40524473  -0.00090525  0.38907319  1
  Rh  Rh215  1  -0.00267240  0.79546992  0.39913010  1
  Rh  Rh216  1  -0.00517090  -0.00551633  0.39470639  1
  Rh  Rh217  1  0.00121632  0.20031911  0.79188254  1
  Rh  Rh218  1  0.60769604  0.00612447  0.80386755  1
  Rh  Rh219  1  0.19766052  0.79877211  -0.00427774  1
  Rh  Rh220  1  0.20253969  0.39710876  0.61018707  1
  Rh  Rh221  1  0.80635012  0.18537755  0.39938074  1
  Rh  Rh222  1  0.41025322  0.00275262  0.01019008  1
  Rh  Rh223  1  0.38850082  0.18928061  0.20774287  1
  Rh  Rh224  1  0.20151004  0.39825936  -0.00019366  1
  Rh  Rh225  1  0.20420163  0.79982996  0.80141277  1
  Rh  Rh226  1  0.80876097  0.59498871  0.59199784  1
  Rh  Rh227  1  0.59402568  0.18707135  -0.00702867  1
  Rh  Rh228  1  0.20972013  0.20115542  -0.00130231  1
  Rh  Rh229  1  0.60648956  -0.00870282  0.40943686  1
  Rh  Rh230  1  0.80578296  0.20189823  0.00232296  1
  Rh  Rh231  1  0.60141399  0.79402263  0.19342300  1
  Rh  Rh232  1  0.38624169  0.60928167  0.00243959  1
  Rh  Rh233  1  0.79679160  0.60132553  -0.00952040  1
  Rh  Rh234  1  0.79197343  0.60027551  0.20872318  1
  Rh  Rh235  1  0.39645847  0.40819936  0.19695978  1
  Rh  Rh236  1  0.40191174  0.20643558  0.80565773  1
  Rh  Rh237  1  0.39090246  -0.00809555  0.79803448  1
  Rh  Rh238  1  0.60842261  0.60899057  -0.00119195  1
  Rh  Rh239  1  0.39457300  0.80085030  0.19886076  1
  Rh  Rh240  1  0.59187215  0.80253011  0.60838039  1
  Rh  Rh241  1  0.58407974  -0.00484073  0.18359127  1
  Rh  Rh242  1  0.19507007  0.00315539  -0.01375303  1
  Rh  Rh243  1  0.80156282  0.80456172  0.20537804  1
  Rh  Rh244  1  -0.00063887  0.19905651  0.39616446  1
  Rh  Rh245  1  0.80392123  0.19490095  0.79434326  1
  Rh  Rh246  1  0.00110819  0.79754852  0.60647818  1
  Rh  Rh247  1  0.00315634  -0.00116209  0.79714988  1
  Rh  Rh248  1  0.80895555  0.79661367  0.80558809  1
  Rh  Rh249  1  0.59554322  0.20349396  0.80370625  1
