# generated using pymatgen
data_ZrScNbPdRh
_symmetry_space_group_name_H-M   'P 1'
_cell_length_a   16.55945364
_cell_length_b   16.55928753
_cell_length_c   16.56260455
_cell_angle_alpha   90.01292027
_cell_angle_beta   90.00357721
_cell_angle_gamma   90.01380793
_symmetry_Int_Tables_number   1
_chemical_formula_structural   ZrScNbPdRh
_chemical_formula_sum   'Zr50 Sc50 Nb50 Pd50 Rh50'
_cell_volume   4541.67715173
_cell_formula_units_Z   50
loop_
 _symmetry_equiv_pos_site_id
 _symmetry_equiv_pos_as_xyz
  1  'x, y, z'
loop_
 _atom_site_type_symbol
 _atom_site_label
 _atom_site_symmetry_multiplicity
 _atom_site_fract_x
 _atom_site_fract_y
 _atom_site_fract_z
 _atom_site_occupancy
  Zr  Zr0  1  0.10736939  0.49852250  0.49391287  1
  Zr  Zr1  1  0.30418105  0.30027183  0.70270675  1
  Zr  Zr2  1  0.90171793  0.10110800  0.10110657  1
  Zr  Zr3  1  0.30205616  0.29815866  0.89950114  1
  Zr  Zr4  1  0.49831122  0.30591460  0.10991307  1
  Zr  Zr5  1  0.31092826  0.50284578  0.69438831  1
  Zr  Zr6  1  0.50161322  0.10143967  0.29762862  1
  Zr  Zr7  1  0.50082746  0.89744734  0.49901311  1
  Zr  Zr8  1  0.30148810  0.69218450  0.50359266  1
  Zr  Zr9  1  0.29700522  0.90499270  0.09623841  1
  Zr  Zr10  1  0.09477422  0.29691482  0.10023166  1
  Zr  Zr11  1  0.29316273  0.89944053  0.70204815  1
  Zr  Zr12  1  0.50323197  0.90626758  0.29673663  1
  Zr  Zr13  1  0.10664760  0.70015960  0.10342082  1
  Zr  Zr14  1  0.70234545  0.70155324  0.29447165  1
  Zr  Zr15  1  0.29435697  0.70178255  0.69295641  1
  Zr  Zr16  1  0.69877746  0.91060583  0.50765636  1
  Zr  Zr17  1  0.08937938  0.10012495  0.50202318  1
  Zr  Zr18  1  0.89858209  0.09604896  0.30079660  1
  Zr  Zr19  1  0.69886538  0.49316657  0.49416991  1
  Zr  Zr20  1  0.90381320  0.90206552  0.30045522  1
  Zr  Zr21  1  0.69058343  0.49863074  0.90118184  1
  Zr  Zr22  1  0.70461848  0.89411422  0.70850007  1
  Zr  Zr23  1  0.30043087  0.10048906  0.09635239  1
  Zr  Zr24  1  0.09767936  0.28895549  0.70610397  1
  Zr  Zr25  1  0.50756918  0.09304053  0.48898428  1
  Zr  Zr26  1  0.69574857  0.09902450  0.30917806  1
  Zr  Zr27  1  0.69895885  0.50288771  0.70648660  1
  Zr  Zr28  1  0.29484794  0.89443577  0.49582205  1
  Zr  Zr29  1  0.50172289  0.10270223  0.70502722  1
  Zr  Zr30  1  0.91119803  0.29373684  0.90412641  1
  Zr  Zr31  1  0.70998451  0.30013749  0.90991031  1
  Zr  Zr32  1  0.89984051  0.69871512  0.28590280  1
  Zr  Zr33  1  0.89873530  0.30907610  0.30705142  1
  Zr  Zr34  1  0.49430219  0.09723769  0.10186562  1
  Zr  Zr35  1  0.89882045  0.89196126  0.69559811  1
  Zr  Zr36  1  0.89391615  0.50636723  0.11180288  1
  Zr  Zr37  1  0.70053528  0.09441660  0.69880975  1
  Zr  Zr38  1  0.51115098  0.90536480  0.70308312  1
  Zr  Zr39  1  0.89392876  0.09349373  0.49263221  1
  Zr  Zr40  1  0.49386797  0.30347435  0.70039770  1
  Zr  Zr41  1  0.29800574  0.30468220  0.29193950  1
  Zr  Zr42  1  0.49981672  0.09244714  0.89968596  1
  Zr  Zr43  1  0.29046455  0.90057116  0.30245603  1
  Zr  Zr44  1  0.89995318  0.30170339  0.69950456  1
  Zr  Zr45  1  0.49694697  0.70078722  0.49509183  1
  Zr  Zr46  1  0.30331546  0.09772206  0.90197868  1
  Zr  Zr47  1  0.90056731  0.09643148  0.90356855  1
  Zr  Zr48  1  0.09295133  0.90053117  0.89569557  1
  Zr  Zr49  1  0.50519525  0.69908039  0.90624724  1
  Sc  Sc50  1  0.70426421  0.70719257  0.09605908  1
  Sc  Sc51  1  0.30263183  0.30034524  0.51306440  1
  Sc  Sc52  1  0.49756520  0.50826647  0.50239547  1
  Sc  Sc53  1  0.70514765  0.09282414  0.10430424  1
  Sc  Sc54  1  0.09610338  0.90004285  0.70916066  1
  Sc  Sc55  1  0.90599403  0.48858281  0.50211834  1
  Sc  Sc56  1  0.89185751  0.90719408  0.09982033  1
  Sc  Sc57  1  0.10652331  0.69851770  0.50606854  1
  Sc  Sc58  1  0.50232665  0.31113184  0.90042764  1
  Sc  Sc59  1  0.30588908  0.50493499  0.10993094  1
  Sc  Sc60  1  0.49903019  0.49547965  0.29488884  1
  Sc  Sc61  1  0.68662583  0.70058378  0.49859209  1
  Sc  Sc62  1  0.09019386  0.50768698  0.69548103  1
  Sc  Sc63  1  0.09361872  0.09728232  0.88802763  1
  Sc  Sc64  1  0.31425267  0.50399967  0.90568006  1
  Sc  Sc65  1  0.09347224  0.09670145  0.29735133  1
  Sc  Sc66  1  0.09542528  0.09780878  0.10785086  1
  Sc  Sc67  1  0.89715106  0.69967115  0.09952628  1
  Sc  Sc68  1  0.90359755  0.09651737  0.69900408  1
  Sc  Sc69  1  0.70370969  0.49024699  0.09508007  1
  Sc  Sc70  1  0.29521587  0.68753962  0.29328953  1
  Sc  Sc71  1  0.50144100  0.69445096  0.29857519  1
  Sc  Sc72  1  0.30409453  0.69977598  0.90811677  1
  Sc  Sc73  1  0.89342896  0.29568252  0.50123021  1
  Sc  Sc74  1  0.70748865  0.09999050  0.89475349  1
  Sc  Sc75  1  0.29327265  0.90743740  0.90155117  1
  Sc  Sc76  1  0.90632511  0.50633794  0.70220473  1
  Sc  Sc77  1  0.69138530  0.30815044  0.30720200  1
  Sc  Sc78  1  0.49775891  0.69853187  0.09083191  1
  Sc  Sc79  1  0.09026382  0.30004732  0.49790360  1
  Sc  Sc80  1  0.09400720  0.70458163  0.90388753  1
  Sc  Sc81  1  0.49895871  0.30588459  0.49714313  1
  Sc  Sc82  1  0.30105329  0.11132224  0.70615648  1
  Sc  Sc83  1  0.10150321  0.89848679  0.10079503  1
  Sc  Sc84  1  0.70359313  0.29394951  0.70565428  1
  Sc  Sc85  1  0.89851822  0.30086613  0.09106418  1
  Sc  Sc86  1  0.50320032  0.30129454  0.29670979  1
  Sc  Sc87  1  0.08982533  0.50610605  0.90059302  1
  Sc  Sc88  1  0.70064417  0.70310454  0.89705132  1
  Sc  Sc89  1  0.09499542  0.89701781  0.48812362  1
  Sc  Sc90  1  0.29840728  0.09018174  0.29304447  1
  Sc  Sc91  1  0.50348842  0.69397964  0.69363741  1
  Sc  Sc92  1  0.10164091  0.50986301  0.09919146  1
  Sc  Sc93  1  0.10272750  0.30317056  0.30535927  1
  Sc  Sc94  1  0.89955358  0.70353536  0.89838085  1
  Sc  Sc95  1  0.89838377  0.50375027  0.90853271  1
  Sc  Sc96  1  0.30857061  0.30339798  0.10199670  1
  Sc  Sc97  1  0.91277529  0.70688536  0.50928051  1
  Sc  Sc98  1  0.70124175  0.90091721  0.28861243  1
  Sc  Sc99  1  0.70668696  0.49061473  0.29412089  1
  Nb  Nb100  1  0.69707756  0.89349113  0.89749992  1
  Nb  Nb101  1  0.70483521  0.29969143  0.10438975  1
  Nb  Nb102  1  0.30350028  0.69740861  0.10194500  1
  Nb  Nb103  1  0.09766648  0.30163293  0.90189862  1
  Nb  Nb104  1  0.10038139  0.89253603  0.29679789  1
  Nb  Nb105  1  0.09556810  0.70403148  0.29499153  1
  Nb  Nb106  1  0.50769415  0.89380301  0.89823943  1
  Nb  Nb107  1  0.70001417  0.10653615  0.49894820  1
  Nb  Nb108  1  0.89750478  0.90324722  0.89203150  1
  Nb  Nb109  1  0.90552255  0.69821341  0.69966039  1
  Nb  Nb110  1  0.09129188  0.69552906  0.70292358  1
  Nb  Nb111  1  0.10366373  0.49960648  0.30156862  1
  Nb  Nb112  1  0.71402557  0.70080549  0.70192728  1
  Nb  Nb113  1  0.50363745  0.89892999  0.09515876  1
  Nb  Nb114  1  0.50618416  0.50515752  0.90403459  1
  Nb  Nb115  1  0.69408617  0.89980765  0.09989374  1
  Nb  Nb116  1  0.09846736  0.09404734  0.69568095  1
  Nb  Nb117  1  0.69742781  0.30040981  0.50317014  1
  Nb  Nb118  1  0.30061374  0.09493015  0.49765803  1
  Nb  Nb119  1  0.28777843  0.49425249  0.30695960  1
  Nb  Nb120  1  0.90005079  0.90381417  0.49661138  1
  Nb  Nb121  1  0.50352362  0.49479987  0.70892437  1
  Nb  Nb122  1  0.89914555  0.50456947  0.30043046  1
  Nb  Nb123  1  0.50053008  0.50159402  0.09429103  1
  Nb  Nb124  1  0.29555283  0.50166369  0.49949458  1
  Nb  Nb125  1  0.20674598  0.19618289  0.40474923  1
  Nb  Nb126  1  0.38863795  0.40379577  0.39963628  1
  Nb  Nb127  1  0.60073127  -0.00674321  -0.00119425  1
  Nb  Nb128  1  0.19769150  0.39678631  -0.00631081  1
  Nb  Nb129  1  -0.00007867  0.40881369  0.20613728  1
  Nb  Nb130  1  0.39556476  0.00084906  0.59753493  1
  Nb  Nb131  1  0.00015550  0.59967336  0.39117515  1
  Nb  Nb132  1  0.39369959  0.19962590  0.39888537  1
  Nb  Nb133  1  0.39783970  0.80081170  0.19618633  1
  Nb  Nb134  1  0.19762484  0.40454834  0.80113720  1
  Nb  Nb135  1  0.80483675  0.80054939  0.40394903  1
  Nb  Nb136  1  0.79872874  0.20386969  0.20397725  1
  Nb  Nb137  1  0.19951652  0.59900746  0.79683569  1
  Nb  Nb138  1  0.60429031  0.20157953  0.59467905  1
  Nb  Nb139  1  0.39595058  0.79909691  0.39291439  1
  Nb  Nb140  1  0.60164183  0.19800727  0.00559598  1
  Nb  Nb141  1  0.20080197  0.40126746  0.60767685  1
  Nb  Nb142  1  0.40540849  0.80278798  0.80143725  1
  Nb  Nb143  1  0.80023818  0.60482484  0.59924428  1
  Nb  Nb144  1  0.19491786  0.20448125  -0.00255215  1
  Nb  Nb145  1  0.59998453  0.59483967  0.19021677  1
  Nb  Nb146  1  0.59936685  0.39902143  0.60611193  1
  Nb  Nb147  1  0.19959811  0.00608697  0.59899436  1
  Nb  Nb148  1  0.80278652  0.39996057  0.80526866  1
  Nb  Nb149  1  0.80741493  0.60440615  0.40321100  1
  Pd  Pd150  1  0.19309849  0.40580067  0.18750083  1
  Pd  Pd151  1  0.39778596  0.59616938  0.39102539  1
  Pd  Pd152  1  0.79305460  0.60166421  0.00039634  1
  Pd  Pd153  1  -0.01100858  0.19820669  0.59849215  1
  Pd  Pd154  1  0.39781787  -0.00610033  0.19866283  1
  Pd  Pd155  1  0.80750896  0.59666383  0.79970180  1
  Pd  Pd156  1  0.18565026  0.00981992  -0.00162968  1
  Pd  Pd157  1  0.59804672  0.39288727  0.00665418  1
  Pd  Pd158  1  -0.00130596  0.40520678  0.80030699  1
  Pd  Pd159  1  0.00979916  0.80687422  0.60151027  1
  Pd  Pd160  1  0.00214577  0.40929771  0.01024577  1
  Pd  Pd161  1  0.80346000  0.80541032  -0.00321974  1
  Pd  Pd162  1  0.40632110  0.20746406  -0.00159845  1
  Pd  Pd163  1  0.20508619  0.59310373  -0.00597258  1
  Pd  Pd164  1  0.20082937  0.79973346  -0.00505909  1
  Pd  Pd165  1  0.60507426  0.79548803  0.60667227  1
  Pd  Pd166  1  0.79640756  0.79256964  0.58970782  1
  Pd  Pd167  1  0.39569439  -0.00730244  0.79627199  1
  Pd  Pd168  1  0.20352591  0.78939722  0.80873844  1
  Pd  Pd169  1  0.39841137  0.40462191  0.80811433  1
  Pd  Pd170  1  0.18837533  0.00642389  0.40072932  1
  Pd  Pd171  1  0.60618214  0.58978726  0.38552529  1
  Pd  Pd172  1  0.20194958  0.19639901  0.20057300  1
  Pd  Pd173  1  0.79106411  -0.00510105  -0.00486693  1
  Pd  Pd174  1  -0.00537234  0.80610365  0.18716572  1
  Pd  Pd175  1  0.59892814  0.60917373  0.79908999  1
  Pd  Pd176  1  0.79619883  0.20789206  0.39529590  1
  Pd  Pd177  1  0.39939939  0.61002593  0.79954311  1
  Pd  Pd178  1  0.19723417  0.19999188  0.59430026  1
  Pd  Pd179  1  0.80819430  0.20132096  0.79866376  1
  Pd  Pd180  1  -0.00825599  0.21099669  0.20760619  1
  Pd  Pd181  1  0.00658064  0.39850017  0.60204479  1
  Pd  Pd182  1  0.19704507  0.19787796  0.80656626  1
  Pd  Pd183  1  -0.00240001  0.79187174  0.39838643  1
  Pd  Pd184  1  0.80479613  0.00287382  0.60295401  1
  Pd  Pd185  1  0.18515554  0.80937373  0.60101483  1
  Pd  Pd186  1  0.20615077  0.79723538  0.20074342  1
  Pd  Pd187  1  -0.00380571  0.60522212  0.00312335  1
  Pd  Pd188  1  0.60312737  0.80619877  0.39550498  1
  Pd  Pd189  1  0.00440593  -0.00156646  0.00265826  1
  Pd  Pd190  1  0.59080765  0.78973180  0.19302681  1
  Pd  Pd191  1  0.59819195  0.20703235  0.80591734  1
  Pd  Pd192  1  0.79533628  0.40576743  0.60833543  1
  Pd  Pd193  1  -0.00720530  0.80412035  0.00585634  1
  Pd  Pd194  1  0.39543482  0.80634362  -0.00141721  1
  Pd  Pd195  1  0.40341808  0.80545780  0.60346740  1
  Pd  Pd196  1  0.60423010  0.59553186  0.60321267  1
  Pd  Pd197  1  0.19266202  0.61033192  0.39553052  1
  Pd  Pd198  1  0.41094332  0.19007025  0.58985926  1
  Pd  Pd199  1  0.60926210  0.19806988  0.19520421  1
  Rh  Rh200  1  0.40765710  0.60266283  0.19731918  1
  Rh  Rh201  1  0.80183617  0.40293501  0.40509386  1
  Rh  Rh202  1  0.00359481  0.19797005  0.39817745  1
  Rh  Rh203  1  0.40023341  0.40576405  0.00216760  1
  Rh  Rh204  1  0.19256612  -0.00168227  0.19941882  1
  Rh  Rh205  1  0.00932353  0.18761555  -0.00284283  1
  Rh  Rh206  1  0.60037891  0.40745656  0.19426215  1
  Rh  Rh207  1  0.20132052  0.00828197  0.79217776  1
  Rh  Rh208  1  0.79395200  0.19477902  0.01229007  1
  Rh  Rh209  1  0.39971891  0.40950874  0.20562190  1
  Rh  Rh210  1  0.59325628  0.20965696  0.40647647  1
  Rh  Rh211  1  0.60921785  -0.00904465  0.39692711  1
  Rh  Rh212  1  0.59725943  0.79051662  0.79403976  1
  Rh  Rh213  1  0.40898133  0.20199897  0.81021257  1
  Rh  Rh214  1  0.20338677  0.78967120  0.39446258  1
  Rh  Rh215  1  -0.00433591  0.59858703  0.58998209  1
  Rh  Rh216  1  0.78606009  0.59901202  0.19981676  1
  Rh  Rh217  1  -0.00064215  0.40605224  0.39491844  1
  Rh  Rh218  1  0.59530215  0.01017189  0.60117078  1
  Rh  Rh219  1  0.79754466  0.19458399  0.59860761  1
  Rh  Rh220  1  0.00338081  -0.00161056  0.39535499  1
  Rh  Rh221  1  0.40159927  0.59709501  0.00485966  1
  Rh  Rh222  1  0.79811854  0.00347277  0.20331830  1
  Rh  Rh223  1  0.00151572  0.60616902  0.80659821  1
  Rh  Rh224  1  0.20601190  0.38643726  0.41370944  1
  Rh  Rh225  1  0.39574281  0.19599844  0.20826652  1
  Rh  Rh226  1  -0.00630305  0.79836640  0.80045713  1
  Rh  Rh227  1  0.60598455  0.80308631  0.00163852  1
  Rh  Rh228  1  0.60568875  0.60095979  0.00544257  1
  Rh  Rh229  1  0.39993520  -0.00329406  0.40315205  1
  Rh  Rh230  1  0.80599589  0.40245020  -0.00301721  1
  Rh  Rh231  1  0.80160105  -0.00457551  0.79922863  1
  Rh  Rh232  1  0.60671090  0.39605859  0.79671076  1
  Rh  Rh233  1  0.40416185  0.41143659  0.59144752  1
  Rh  Rh234  1  0.80713839  0.39053600  0.19816789  1
  Rh  Rh235  1  0.80216077  0.80658935  0.19937344  1
  Rh  Rh236  1  -0.00282194  0.19389852  0.79835252  1
  Rh  Rh237  1  0.19627670  0.59302754  0.60905111  1
  Rh  Rh238  1  0.79328289  -0.00927887  0.39858970  1
  Rh  Rh239  1  0.60107521  0.00261870  0.19292818  1
  Rh  Rh240  1  0.58969874  0.40311193  0.40614602  1
  Rh  Rh241  1  0.00331839  -0.00916410  0.20129755  1
  Rh  Rh242  1  0.40793213  -0.01056638  -0.00456394  1
  Rh  Rh243  1  0.01142543  0.59691991  0.20361892  1
  Rh  Rh244  1  -0.00774427  -0.00237980  0.79421304  1
  Rh  Rh245  1  0.00387384  -0.00755380  0.59924036  1
  Rh  Rh246  1  0.61072273  -0.00069264  0.80882231  1
  Rh  Rh247  1  0.80644270  0.79910304  0.80542862  1
  Rh  Rh248  1  0.19754327  0.59820684  0.20022286  1
  Rh  Rh249  1  0.40672211  0.59730345  0.60110284  1
