# generated using pymatgen
data_ZrScNbPdRh
_symmetry_space_group_name_H-M   'P 1'
_cell_length_a   16.56052511
_cell_length_b   16.55951993
_cell_length_c   16.55951632
_cell_angle_alpha   90.00679712
_cell_angle_beta   90.01616579
_cell_angle_gamma   89.97020075
_symmetry_Int_Tables_number   1
_chemical_formula_structural   ZrScNbPdRh
_chemical_formula_sum   'Zr50 Sc50 Nb50 Pd50 Rh50'
_cell_volume   4541.18729377
_cell_formula_units_Z   50
loop_
 _symmetry_equiv_pos_site_id
 _symmetry_equiv_pos_as_xyz
  1  'x, y, z'
loop_
 _atom_site_type_symbol
 _atom_site_label
 _atom_site_symmetry_multiplicity
 _atom_site_fract_x
 _atom_site_fract_y
 _atom_site_fract_z
 _atom_site_occupancy
  Zr  Zr0  1  0.50552849  0.09245431  0.71292177  1
  Zr  Zr1  1  0.09918796  0.30234558  0.11169999  1
  Zr  Zr2  1  0.70215863  0.30275574  0.69813277  1
  Zr  Zr3  1  0.09557559  0.50009768  0.70248136  1
  Zr  Zr4  1  0.70384117  0.69636182  0.70036493  1
  Zr  Zr5  1  0.49238793  0.49404027  0.30027090  1
  Zr  Zr6  1  0.29825009  0.89728723  0.89972314  1
  Zr  Zr7  1  0.10780536  0.50499260  0.89451680  1
  Zr  Zr8  1  0.89974584  0.49923506  0.69334000  1
  Zr  Zr9  1  0.49577324  0.49345338  0.49753023  1
  Zr  Zr10  1  0.49328064  0.48904105  0.09236153  1
  Zr  Zr11  1  0.30380952  0.09943260  0.30152302  1
  Zr  Zr12  1  0.51029558  0.10294932  0.49103354  1
  Zr  Zr13  1  0.30041569  0.49939868  0.09967772  1
  Zr  Zr14  1  0.70758715  0.50862739  0.89294518  1
  Zr  Zr15  1  0.90291213  0.30943210  0.30063867  1
  Zr  Zr16  1  0.70380443  0.70646581  0.30875486  1
  Zr  Zr17  1  0.70177526  0.70688281  0.50615207  1
  Zr  Zr18  1  0.90266134  0.90313941  0.89777693  1
  Zr  Zr19  1  0.70615544  0.70576146  0.08414484  1
  Zr  Zr20  1  0.49504544  0.29995089  0.49935814  1
  Zr  Zr21  1  0.30729821  0.09884312  0.90098798  1
  Zr  Zr22  1  0.70290811  0.28849305  0.49990822  1
  Zr  Zr23  1  0.49502688  0.69909839  0.69732389  1
  Zr  Zr24  1  0.09874483  0.69568397  0.30985418  1
  Zr  Zr25  1  0.50191496  0.30499092  0.91328233  1
  Zr  Zr26  1  0.50388783  0.10010612  0.10108000  1
  Zr  Zr27  1  0.49655421  0.70767796  0.29869841  1
  Zr  Zr28  1  0.70656769  0.31024783  0.29986047  1
  Zr  Zr29  1  0.90297151  0.09665463  0.89582326  1
  Zr  Zr30  1  0.90459191  0.49650272  0.88404082  1
  Zr  Zr31  1  0.88090169  0.69777500  0.90196361  1
  Zr  Zr32  1  0.49527023  0.29606192  0.30239517  1
  Zr  Zr33  1  0.90287289  0.10186521  0.70739360  1
  Zr  Zr34  1  0.88916062  0.89828755  0.11292366  1
  Zr  Zr35  1  0.30027514  0.10547749  0.70041696  1
  Zr  Zr36  1  0.31097792  0.89843859  0.29888635  1
  Zr  Zr37  1  0.49933523  0.29842718  0.69765226  1
  Zr  Zr38  1  0.10510506  0.10238424  0.49975937  1
  Zr  Zr39  1  0.71206246  0.49880037  0.49871349  1
  Zr  Zr40  1  0.50704404  0.89905035  0.29028198  1
  Zr  Zr41  1  0.50120652  0.10718961  0.90822684  1
  Zr  Zr42  1  0.30000283  0.49686943  0.49701298  1
  Zr  Zr43  1  0.50127067  0.70042286  0.10114669  1
  Zr  Zr44  1  0.30144533  0.30288642  0.69020872  1
  Zr  Zr45  1  0.69521163  0.90488327  0.69267807  1
  Zr  Zr46  1  0.30181449  0.89703553  0.70030755  1
  Zr  Zr47  1  0.69854011  0.89948911  0.50005130  1
  Zr  Zr48  1  0.69970798  0.49235994  0.09944315  1
  Zr  Zr49  1  0.49284817  0.09900699  0.29734391  1
  Sc  Sc50  1  0.69484720  0.29821253  0.10064475  1
  Sc  Sc51  1  0.10367333  0.10350133  0.30173496  1
  Sc  Sc52  1  0.30350882  0.69833109  0.09807273  1
  Sc  Sc53  1  0.29547437  0.70581480  0.49344449  1
  Sc  Sc54  1  0.89506490  0.29443659  0.10847492  1
  Sc  Sc55  1  0.70620162  0.09618028  0.69578956  1
  Sc  Sc56  1  0.90436071  0.09621636  0.29481796  1
  Sc  Sc57  1  0.09639011  0.90071509  0.90043377  1
  Sc  Sc58  1  0.49474624  0.68565759  0.89143550  1
  Sc  Sc59  1  0.69909855  0.10274707  0.10421686  1
  Sc  Sc60  1  0.10436331  0.30905987  0.88695589  1
  Sc  Sc61  1  0.10081497  0.69731844  0.89037006  1
  Sc  Sc62  1  0.09713631  0.70054642  0.70015835  1
  Sc  Sc63  1  0.08310753  0.90217656  0.31156623  1
  Sc  Sc64  1  0.90863851  0.89446495  0.50207496  1
  Sc  Sc65  1  0.49302072  0.50545352  0.70214807  1
  Sc  Sc66  1  0.90350584  0.09767859  0.10332850  1
  Sc  Sc67  1  0.69590438  0.09758045  0.89892966  1
  Sc  Sc68  1  0.29458824  0.89972124  0.50145040  1
  Sc  Sc69  1  0.30027760  0.30450691  0.10380993  1
  Sc  Sc70  1  0.89582837  0.69804617  0.10682333  1
  Sc  Sc71  1  0.29884560  0.10245452  0.49442510  1
  Sc  Sc72  1  0.09950839  0.88947173  0.69889876  1
  Sc  Sc73  1  0.09059967  0.69410377  0.10964219  1
  Sc  Sc74  1  0.51042399  0.89997155  0.50070588  1
  Sc  Sc75  1  0.30770120  0.10446285  0.10002244  1
  Sc  Sc76  1  0.70659247  0.50080494  0.69893897  1
  Sc  Sc77  1  0.89213195  0.11204972  0.50832918  1
  Sc  Sc78  1  0.68994743  0.10656187  0.30123547  1
  Sc  Sc79  1  0.09519600  0.90318107  0.08940703  1
  Sc  Sc80  1  0.90384152  0.49939381  0.11079048  1
  Sc  Sc81  1  0.50106098  0.71126406  0.49521930  1
  Sc  Sc82  1  0.29784379  0.89680054  0.09241985  1
  Sc  Sc83  1  0.08074405  0.50150840  0.30379982  1
  Sc  Sc84  1  0.90264928  0.70735692  0.70001214  1
  Sc  Sc85  1  0.10578128  0.29888073  0.69356193  1
  Sc  Sc86  1  0.30284968  0.50054254  0.69705127  1
  Sc  Sc87  1  0.30839463  0.70336048  0.30632609  1
  Sc  Sc88  1  0.29777349  0.29376318  0.29778418  1
  Sc  Sc89  1  0.69929951  0.89486649  0.90569874  1
  Sc  Sc90  1  0.90091199  0.69849974  0.50622656  1
  Sc  Sc91  1  0.29908976  0.70035208  0.70027987  1
  Sc  Sc92  1  0.10190676  0.49816541  0.10433910  1
  Sc  Sc93  1  0.90701033  0.70520115  0.30049518  1
  Sc  Sc94  1  0.50280187  0.91763074  0.89476475  1
  Sc  Sc95  1  0.30253879  0.30276090  0.89644800  1
  Sc  Sc96  1  0.90051250  0.90023800  0.70439652  1
  Sc  Sc97  1  0.70053601  0.29397555  0.90490843  1
  Sc  Sc98  1  0.29569467  0.69390704  0.89831304  1
  Sc  Sc99  1  0.10164199  0.89256452  0.50315545  1
  Nb  Nb100  1  0.49457295  0.30004518  0.09785899  1
  Nb  Nb101  1  0.88950877  0.49761592  0.30626376  1
  Nb  Nb102  1  0.69503850  0.90329517  0.10262003  1
  Nb  Nb103  1  0.70154578  0.09727043  0.49909657  1
  Nb  Nb104  1  0.91009180  0.49491715  0.49333264  1
  Nb  Nb105  1  0.10007080  0.09948214  0.70318598  1
  Nb  Nb106  1  0.89704952  0.29908352  0.70683255  1
  Nb  Nb107  1  0.10223411  0.30708026  0.49751205  1
  Nb  Nb108  1  0.51323054  0.89670482  0.09636245  1
  Nb  Nb109  1  0.69693187  0.69430132  0.89361662  1
  Nb  Nb110  1  0.90049983  0.29918384  0.89588312  1
  Nb  Nb111  1  0.09889631  0.09876226  0.09319079  1
  Nb  Nb112  1  0.71188179  0.90155674  0.28970126  1
  Nb  Nb113  1  0.29955984  0.50313486  0.30530034  1
  Nb  Nb114  1  0.09995102  0.30056843  0.30412383  1
  Nb  Nb115  1  0.70208242  0.49850530  0.30129605  1
  Nb  Nb116  1  0.50151215  0.90046760  0.69910239  1
  Nb  Nb117  1  0.09884286  0.69702157  0.49582247  1
  Nb  Nb118  1  0.09414618  0.09349015  0.90143678  1
  Nb  Nb119  1  0.49979305  0.49780667  0.90097150  1
  Nb  Nb120  1  0.30614660  0.50635954  0.90614604  1
  Nb  Nb121  1  0.90285210  0.30128637  0.50267794  1
  Nb  Nb122  1  0.29568067  0.30376373  0.50045448  1
  Nb  Nb123  1  0.09327466  0.50165674  0.49959476  1
  Nb  Nb124  1  0.89031141  0.90243175  0.30007264  1
  Nb  Nb125  1  0.60262221  0.59642600  0.39715374  1
  Nb  Nb126  1  0.00656990  0.00796741  0.60479970  1
  Nb  Nb127  1  0.19323169  0.40121767  0.40117554  1
  Nb  Nb128  1  0.59759499  0.40361818  0.80405627  1
  Nb  Nb129  1  0.60294561  0.59640586  0.20159389  1
  Nb  Nb130  1  0.59998952  0.59562874  -0.00199233  1
  Nb  Nb131  1  0.59771073  0.79669727  0.79731272  1
  Nb  Nb132  1  0.40578733  0.00068880  0.60460909  1
  Nb  Nb133  1  0.19735185  0.80167041  0.20394963  1
  Nb  Nb134  1  0.19158395  0.59721434  0.58954540  1
  Nb  Nb135  1  0.79954026  -0.00327924  0.00563360  1
  Nb  Nb136  1  0.81044988  0.39898550  -0.00567701  1
  Nb  Nb137  1  -0.00802149  0.79295168  -0.00123589  1
  Nb  Nb138  1  0.18993286  0.19646100  -0.00183646  1
  Nb  Nb139  1  0.19606983  0.00617478  0.79974295  1
  Nb  Nb140  1  0.20334373  0.60081904  0.21127058  1
  Nb  Nb141  1  0.19804575  -0.00305084  0.19872259  1
  Nb  Nb142  1  0.79832158  -0.00118901  0.39885644  1
  Nb  Nb143  1  0.41067147  0.80137132  -0.00190618  1
  Nb  Nb144  1  0.00470271  0.20264640  -0.00469598  1
  Nb  Nb145  1  -0.00596970  0.59634046  -0.00504801  1
  Nb  Nb146  1  0.00259323  0.21033180  0.40415158  1
  Nb  Nb147  1  0.79203176  0.59569834  0.20798826  1
  Nb  Nb148  1  -0.00299449  0.39738121  -0.00418623  1
  Nb  Nb149  1  0.60066450  0.60009597  0.59229118  1
  Pd  Pd150  1  0.80742448  0.19329833  0.39126376  1
  Pd  Pd151  1  0.39692811  -0.00741888  0.18714978  1
  Pd  Pd152  1  0.19866324  0.41004868  0.21413252  1
  Pd  Pd153  1  0.19745079  0.80840232  0.39383461  1
  Pd  Pd154  1  0.79321130  0.19740154  0.79985715  1
  Pd  Pd155  1  0.40707844  0.80096623  0.80982665  1
  Pd  Pd156  1  0.19780329  0.39311110  -0.00245936  1
  Pd  Pd157  1  0.40444785  -0.00782140  0.00727935  1
  Pd  Pd158  1  -0.01237316  0.01191070  0.41315257  1
  Pd  Pd159  1  0.39876208  0.80621218  0.59270054  1
  Pd  Pd160  1  0.40280697  0.19046381  0.59327307  1
  Pd  Pd161  1  0.79849792  0.19538752  0.20668489  1
  Pd  Pd162  1  0.60866571  -0.00569136  0.39014393  1
  Pd  Pd163  1  0.39680758  0.60574210  0.58953781  1
  Pd  Pd164  1  0.40195897  0.40183236  0.80070908  1
  Pd  Pd165  1  0.21044264  0.40663203  0.79506990  1
  Pd  Pd166  1  0.20076568  0.19095055  0.19467814  1
  Pd  Pd167  1  0.19045190  0.60628705  0.01039895  1
  Pd  Pd168  1  0.40360802  -0.00610209  0.41235443  1
  Pd  Pd169  1  0.80831538  0.80540535  0.40630307  1
  Pd  Pd170  1  0.80698679  0.19642536  0.00153321  1
  Pd  Pd171  1  0.20020834  -0.00134878  0.60571037  1
  Pd  Pd172  1  0.81234316  -0.00371255  0.59263865  1
  Pd  Pd173  1  0.80426372  0.60448241  0.40060397  1
  Pd  Pd174  1  0.79183484  0.80772106  0.79528046  1
  Pd  Pd175  1  0.00204145  0.20166447  0.59884641  1
  Pd  Pd176  1  0.39809959  0.59834942  0.20031970  1
  Pd  Pd177  1  0.61098708  0.79353570  0.20052770  1
  Pd  Pd178  1  0.00122497  0.60559760  0.60018683  1
  Pd  Pd179  1  0.60393680  0.39807790  0.40267310  1
  Pd  Pd180  1  0.19679008  0.19597662  0.80736667  1
  Pd  Pd181  1  0.59333742  0.39832901  0.20210071  1
  Pd  Pd182  1  0.19697457  0.80245198  0.80063989  1
  Pd  Pd183  1  0.40603752  0.60663076  0.40586458  1
  Pd  Pd184  1  0.59762578  0.41047544  0.60787433  1
  Pd  Pd185  1  0.60331105  0.20642755  0.80112667  1
  Pd  Pd186  1  -0.00177306  0.39167408  0.60593726  1
  Pd  Pd187  1  0.00611355  0.80789861  0.19771627  1
  Pd  Pd188  1  0.00836040  -0.00451997  0.19813904  1
  Pd  Pd189  1  0.20000079  0.20071396  0.59589305  1
  Pd  Pd190  1  0.00798604  0.20704194  0.80213492  1
  Pd  Pd191  1  0.00284696  0.19751936  0.20369043  1
  Pd  Pd192  1  0.80586328  0.39588765  0.59613891  1
  Pd  Pd193  1  0.19872264  -0.00660612  0.39184683  1
  Pd  Pd194  1  0.59124404  0.79365981  -0.01733666  1
  Pd  Pd195  1  0.60220045  0.19179961  0.60414892  1
  Pd  Pd196  1  0.20406393  0.00587902  -0.00041228  1
  Pd  Pd197  1  0.59720825  0.20686709  0.20046249  1
  Pd  Pd198  1  0.19148427  0.78743978  0.00742311  1
  Pd  Pd199  1  0.40410105  0.20693513  0.80348584  1
  Rh  Rh200  1  0.80339122  0.40276543  0.19242538  1
  Rh  Rh201  1  0.19704228  0.40882778  0.59464852  1
  Rh  Rh202  1  0.19749593  0.59099180  0.40089793  1
  Rh  Rh203  1  0.39350575  0.20768155  0.00427944  1
  Rh  Rh204  1  0.80531679  0.80609539  0.60262410  1
  Rh  Rh205  1  0.80269725  0.39478749  0.40998286  1
  Rh  Rh206  1  0.79222250  0.39125300  0.80469101  1
  Rh  Rh207  1  0.00091656  0.39600839  0.40012154  1
  Rh  Rh208  1  0.38779965  0.39732088  -0.00263506  1
  Rh  Rh209  1  0.79291206  0.00970008  0.20148989  1
  Rh  Rh210  1  -0.00183331  0.79690688  0.80897185  1
  Rh  Rh211  1  0.40476497  0.60383425  -0.00169491  1
  Rh  Rh212  1  0.79979547  0.20220443  0.60665734  1
  Rh  Rh213  1  0.60964157  -0.00655248  0.80073326  1
  Rh  Rh214  1  -0.01161421  0.60291991  0.40190284  1
  Rh  Rh215  1  0.40423359  0.80931564  0.40613921  1
  Rh  Rh216  1  0.60848479  0.00564630  0.00377502  1
  Rh  Rh217  1  -0.00319937  0.40265330  0.19999077  1
  Rh  Rh218  1  -0.01246478  -0.00253283  0.00591261  1
  Rh  Rh219  1  0.79387003  -0.00323884  0.80913005  1
  Rh  Rh220  1  0.59832756  0.79240768  0.61023296  1
  Rh  Rh221  1  0.19770966  0.20928924  0.40240819  1
  Rh  Rh222  1  0.39078801  -0.00172994  0.79361722  1
  Rh  Rh223  1  0.80306725  0.59881755  0.59869383  1
  Rh  Rh224  1  0.00415113  0.80248841  0.59868263  1
  Rh  Rh225  1  0.79481847  0.78928174  0.19885534  1
  Rh  Rh226  1  0.80849949  0.60288999  0.78648853  1
  Rh  Rh227  1  0.40202871  0.20413838  0.19622352  1
  Rh  Rh228  1  -0.00640438  0.60833618  0.80200271  1
  Rh  Rh229  1  0.61377237  0.40489236  -0.01122923  1
  Rh  Rh230  1  0.20639075  0.59539270  0.78899427  1
  Rh  Rh231  1  -0.00590251  0.59556463  0.20322381  1
  Rh  Rh232  1  0.39365476  0.20269544  0.40422733  1
  Rh  Rh233  1  0.59338067  0.00834316  0.59865611  1
  Rh  Rh234  1  0.60277791  0.00208844  0.20118286  1
  Rh  Rh235  1  0.60076684  0.19824883  0.00721661  1
  Rh  Rh236  1  -0.00441197  0.79613609  0.40310174  1
  Rh  Rh237  1  0.38634969  0.39043031  0.39490373  1
  Rh  Rh238  1  0.39609053  0.39605540  0.20402492  1
  Rh  Rh239  1  0.39113427  0.59512927  0.80102991  1
  Rh  Rh240  1  0.40233958  0.39921161  0.60153502  1
  Rh  Rh241  1  0.01024278  -0.00762115  0.78909476  1
  Rh  Rh242  1  0.80524617  0.81143158  0.00122762  1
  Rh  Rh243  1  0.60115417  0.80604611  0.39170469  1
  Rh  Rh244  1  0.80101451  0.58734688  0.00986002  1
  Rh  Rh245  1  0.19738391  0.78552017  0.59844656  1
  Rh  Rh246  1  0.00152936  0.39306516  0.79288112  1
  Rh  Rh247  1  0.39390025  0.80707671  0.18599083  1
  Rh  Rh248  1  0.59753655  0.59740486  0.79542608  1
  Rh  Rh249  1  0.60316942  0.20610221  0.39677912  1
