# generated using pymatgen
data_ZrScNbPdRh
_symmetry_space_group_name_H-M   'P 1'
_cell_length_a   16.56258603
_cell_length_b   16.56291694
_cell_length_c   16.56207788
_cell_angle_alpha   90.01356262
_cell_angle_beta   90.01510535
_cell_angle_gamma   89.97563867
_symmetry_Int_Tables_number   1
_chemical_formula_structural   ZrScNbPdRh
_chemical_formula_sum   'Zr50 Sc50 Nb50 Pd50 Rh50'
_cell_volume   4543.38695631
_cell_formula_units_Z   50
loop_
 _symmetry_equiv_pos_site_id
 _symmetry_equiv_pos_as_xyz
  1  'x, y, z'
loop_
 _atom_site_type_symbol
 _atom_site_label
 _atom_site_symmetry_multiplicity
 _atom_site_fract_x
 _atom_site_fract_y
 _atom_site_fract_z
 _atom_site_occupancy
  Zr  Zr0  1  0.69917408  0.90239203  0.51186144  1
  Zr  Zr1  1  0.29244871  0.69471722  0.29993682  1
  Zr  Zr2  1  0.10692071  0.90689582  0.29491685  1
  Zr  Zr3  1  0.49793851  0.10427481  0.10032125  1
  Zr  Zr4  1  0.90050101  0.49813772  0.30011411  1
  Zr  Zr5  1  0.89123278  0.70149529  0.30301335  1
  Zr  Zr6  1  0.90697684  0.30142838  0.69643522  1
  Zr  Zr7  1  0.09832701  0.10238776  0.70089776  1
  Zr  Zr8  1  0.09868218  0.48812112  0.49710432  1
  Zr  Zr9  1  0.09662604  0.69548993  0.70346405  1
  Zr  Zr10  1  0.50325537  0.90046790  0.10417925  1
  Zr  Zr11  1  0.10157276  0.09347902  0.10657278  1
  Zr  Zr12  1  0.89525614  0.30235373  0.10163519  1
  Zr  Zr13  1  0.30380444  0.10569929  0.90413018  1
  Zr  Zr14  1  0.10060999  0.70337770  0.10054995  1
  Zr  Zr15  1  0.49188402  0.30600296  0.10707984  1
  Zr  Zr16  1  0.70122091  0.70279751  0.30344620  1
  Zr  Zr17  1  0.70197286  0.10932068  0.30167359  1
  Zr  Zr18  1  0.69752772  0.49344070  0.90527361  1
  Zr  Zr19  1  0.09161160  0.89208439  0.89325334  1
  Zr  Zr20  1  0.30851540  0.89337309  0.90350172  1
  Zr  Zr21  1  0.50131941  0.50060362  0.90058363  1
  Zr  Zr22  1  0.10077399  0.69629586  0.29775098  1
  Zr  Zr23  1  0.90047497  0.69796345  0.50346151  1
  Zr  Zr24  1  0.30153099  0.69762960  0.89692401  1
  Zr  Zr25  1  0.30606428  0.49185496  0.10253804  1
  Zr  Zr26  1  0.89714581  0.51312297  0.89894803  1
  Zr  Zr27  1  0.30200782  0.69769882  0.50586976  1
  Zr  Zr28  1  0.89897803  0.29853226  0.29395227  1
  Zr  Zr29  1  0.30224468  0.89371428  0.69556039  1
  Zr  Zr30  1  0.49928237  0.10911448  0.69837816  1
  Zr  Zr31  1  0.50206236  0.30160438  0.69918801  1
  Zr  Zr32  1  0.09982406  0.68619546  0.49944008  1
  Zr  Zr33  1  0.89118670  0.10366060  0.29801411  1
  Zr  Zr34  1  0.69741551  0.10092434  0.09890498  1
  Zr  Zr35  1  0.30864979  0.90207265  0.49877785  1
  Zr  Zr36  1  0.90589709  0.30601494  0.50542980  1
  Zr  Zr37  1  0.30292774  0.49117962  0.69974772  1
  Zr  Zr38  1  0.50150835  0.10882112  0.29926706  1
  Zr  Zr39  1  0.10617671  0.90491428  0.50167361  1
  Zr  Zr40  1  0.70616660  0.70723549  0.89514248  1
  Zr  Zr41  1  0.68901260  0.09747710  0.69446944  1
  Zr  Zr42  1  0.30511277  0.90458388  0.09899212  1
  Zr  Zr43  1  0.50258416  0.49207804  0.29709902  1
  Zr  Zr44  1  0.90698892  0.89928124  0.71215656  1
  Zr  Zr45  1  0.89755314  0.29863250  0.90255706  1
  Zr  Zr46  1  0.69843795  0.10271071  0.90715824  1
  Zr  Zr47  1  0.30394146  0.11015933  0.70264760  1
  Zr  Zr48  1  0.69501891  0.50515546  0.30961178  1
  Zr  Zr49  1  0.10106015  0.29679768  0.69250837  1
  Sc  Sc50  1  0.89863209  0.89188792  0.09863385  1
  Sc  Sc51  1  0.89652951  0.90328090  0.50369877  1
  Sc  Sc52  1  0.89081945  0.49991403  0.09603186  1
  Sc  Sc53  1  0.50014465  0.10961032  0.90510566  1
  Sc  Sc54  1  0.10996989  0.10440670  0.50725662  1
  Sc  Sc55  1  0.51372244  0.50044011  0.50655985  1
  Sc  Sc56  1  0.89384813  0.89863372  0.29846669  1
  Sc  Sc57  1  0.09779320  0.10907294  0.89448169  1
  Sc  Sc58  1  0.10223460  0.89227828  0.10548919  1
  Sc  Sc59  1  0.50508008  0.29716234  0.30069864  1
  Sc  Sc60  1  0.70143970  0.69267325  0.49738985  1
  Sc  Sc61  1  0.49761597  0.70206408  0.89836265  1
  Sc  Sc62  1  0.10395442  0.50059756  0.10828054  1
  Sc  Sc63  1  0.29806112  0.10075317  0.30132029  1
  Sc  Sc64  1  0.50155956  0.49449747  0.09169980  1
  Sc  Sc65  1  0.09951892  0.50354418  0.30830525  1
  Sc  Sc66  1  0.90572310  0.09487128  0.69952544  1
  Sc  Sc67  1  0.50802008  0.89166294  0.68923444  1
  Sc  Sc68  1  0.90278181  0.50017358  0.50786091  1
  Sc  Sc69  1  0.50068347  0.70598086  0.09862660  1
  Sc  Sc70  1  0.10245926  0.50229971  0.88638908  1
  Sc  Sc71  1  0.29062388  0.30541775  0.50887216  1
  Sc  Sc72  1  0.70493294  0.89948914  0.28477215  1
  Sc  Sc73  1  0.89892851  0.09633449  0.89534533  1
  Sc  Sc74  1  0.10052723  0.30675133  0.30761438  1
  Sc  Sc75  1  0.49821572  0.29397784  0.50089028  1
  Sc  Sc76  1  0.50220866  0.70830072  0.29909732  1
  Sc  Sc77  1  0.29857811  0.70785403  0.10084652  1
  Sc  Sc78  1  0.69779225  0.70122277  0.70103938  1
  Sc  Sc79  1  0.51175619  0.30211143  0.89659399  1
  Sc  Sc80  1  0.50101822  0.70159500  0.69547573  1
  Sc  Sc81  1  0.30425936  0.11033800  0.09981594  1
  Sc  Sc82  1  0.70096583  0.49753537  0.09407871  1
  Sc  Sc83  1  0.30471366  0.09904012  0.50038982  1
  Sc  Sc84  1  0.30471616  0.49731786  0.88991283  1
  Sc  Sc85  1  0.70134506  0.70719749  0.09603598  1
  Sc  Sc86  1  0.29285097  0.49821903  0.51010463  1
  Sc  Sc87  1  0.09156880  0.69592128  0.89834035  1
  Sc  Sc88  1  0.90135312  0.11139631  0.10211559  1
  Sc  Sc89  1  0.69855649  0.89126297  0.70945928  1
  Sc  Sc90  1  0.69247525  0.29955033  0.50276894  1
  Sc  Sc91  1  0.29857332  0.69179570  0.69718886  1
  Sc  Sc92  1  0.50206353  0.70281404  0.50362615  1
  Sc  Sc93  1  0.30141681  0.29843814  0.29701418  1
  Sc  Sc94  1  0.10767509  0.10128803  0.29829490  1
  Sc  Sc95  1  0.09573537  0.89846036  0.69935956  1
  Sc  Sc96  1  0.09653174  0.29693578  0.88334124  1
  Sc  Sc97  1  0.09242892  0.28945828  0.10810312  1
  Sc  Sc98  1  0.28407398  0.49503267  0.29964212  1
  Sc  Sc99  1  0.30718653  0.90592099  0.30186911  1
  Nb  Nb100  1  0.70355789  0.90113864  0.90516116  1
  Nb  Nb101  1  0.69662994  0.29995005  0.70224085  1
  Nb  Nb102  1  0.50112224  0.89932379  0.90034630  1
  Nb  Nb103  1  0.09369251  0.29953886  0.50513609  1
  Nb  Nb104  1  0.29892217  0.30289325  0.09388396  1
  Nb  Nb105  1  0.89067509  0.50198449  0.69715185  1
  Nb  Nb106  1  0.30177350  0.30252028  0.70526361  1
  Nb  Nb107  1  0.69802500  0.49082459  0.68694100  1
  Nb  Nb108  1  0.10294607  0.50074824  0.70327840  1
  Nb  Nb109  1  0.89416861  0.89640498  0.89857406  1
  Nb  Nb110  1  0.70518885  0.30128553  0.08530510  1
  Nb  Nb111  1  0.89519643  0.69256024  0.70548335  1
  Nb  Nb112  1  0.50397459  0.90324404  0.30305822  1
  Nb  Nb113  1  0.51178656  0.09888015  0.50264552  1
  Nb  Nb114  1  0.88959081  0.09987460  0.49612890  1
  Nb  Nb115  1  0.90431280  0.69508723  0.08607083  1
  Nb  Nb116  1  0.70115294  0.29851735  0.89921624  1
  Nb  Nb117  1  0.70112168  0.30147125  0.29880958  1
  Nb  Nb118  1  0.50586781  0.49205992  0.70253055  1
  Nb  Nb119  1  0.29142511  0.29496057  0.89348576  1
  Nb  Nb120  1  0.89848851  0.70327501  0.90321976  1
  Nb  Nb121  1  0.50061438  0.90178715  0.49600057  1
  Nb  Nb122  1  0.69692097  0.90103238  0.08646935  1
  Nb  Nb123  1  0.70352388  0.49621496  0.50718080  1
  Nb  Nb124  1  0.69992063  0.09721460  0.50105917  1
  Nb  Nb125  1  0.20758746  -0.00122778  0.80410084  1
  Nb  Nb126  1  0.79280781  0.20465607  0.79396822  1
  Nb  Nb127  1  0.00504482  0.80387665  0.40102991  1
  Nb  Nb128  1  0.59830812  0.60010541  0.20149044  1
  Nb  Nb129  1  0.40277663  0.59589841  0.20434182  1
  Nb  Nb130  1  0.79506932  0.39947058  0.79345667  1
  Nb  Nb131  1  -0.00799384  0.60640997  0.19688242  1
  Nb  Nb132  1  0.59937642  0.81273406  0.40018431  1
  Nb  Nb133  1  0.00248651  -0.00468435  -0.00226105  1
  Nb  Nb134  1  0.00402276  0.40070480  -0.00256971  1
  Nb  Nb135  1  0.79444325  0.39977182  0.40199216  1
  Nb  Nb136  1  0.59494335  -0.00509261  0.80757125  1
  Nb  Nb137  1  0.19864401  0.39429064  -0.00330669  1
  Nb  Nb138  1  0.19818926  0.79968934  0.40206280  1
  Nb  Nb139  1  0.19678630  -0.00042738  -0.00569385  1
  Nb  Nb140  1  0.79673910  0.19735266  0.60007206  1
  Nb  Nb141  1  0.40454734  -0.00289827  0.80150623  1
  Nb  Nb142  1  -0.00253348  0.00536449  0.40129799  1
  Nb  Nb143  1  0.60026192  0.00158989  0.40151238  1
  Nb  Nb144  1  0.20348151  0.59374053  -0.00119251  1
  Nb  Nb145  1  -0.00363938  0.19583314  0.40658704  1
  Nb  Nb146  1  0.80681025  0.79528383  0.60698589  1
  Nb  Nb147  1  0.39933130  0.40585339  0.40258697  1
  Nb  Nb148  1  0.60115793  0.58906243  0.79560219  1
  Nb  Nb149  1  0.40182114  0.59294595  0.39694407  1
  Pd  Pd150  1  0.59719746  0.79740398  -0.00491455  1
  Pd  Pd151  1  -0.00740441  0.79541592  0.20554287  1
  Pd  Pd152  1  0.19742317  0.79565125  0.59711592  1
  Pd  Pd153  1  0.40081810  0.79188070  0.39988307  1
  Pd  Pd154  1  0.59204414  0.00119243  -0.00360684  1
  Pd  Pd155  1  0.78801719  0.59326209  0.79421553  1
  Pd  Pd156  1  0.79601759  0.60231563  0.19027294  1
  Pd  Pd157  1  0.39486015  0.39196297  -0.01408287  1
  Pd  Pd158  1  0.60568026  0.21079501  0.19277115  1
  Pd  Pd159  1  0.40707090  0.01078879  0.39879723  1
  Pd  Pd160  1  0.00331575  0.40759329  0.19479623  1
  Pd  Pd161  1  0.60304467  0.60389821  0.60531798  1
  Pd  Pd162  1  0.19732023  0.79829006  -0.00390760  1
  Pd  Pd163  1  0.59841561  0.39391804  0.40707584  1
  Pd  Pd164  1  0.40760101  0.00016100  0.60664215  1
  Pd  Pd165  1  0.79495114  -0.00877799  0.39553096  1
  Pd  Pd166  1  0.79881512  0.21309584  0.40944350  1
  Pd  Pd167  1  -0.00737040  0.40882004  0.80015397  1
  Pd  Pd168  1  0.20585684  0.00428889  0.60827146  1
  Pd  Pd169  1  0.00148356  0.59122061  0.60665426  1
  Pd  Pd170  1  0.39915767  0.00712681  0.20317508  1
  Pd  Pd171  1  0.60362976  0.60780022  -0.00026914  1
  Pd  Pd172  1  -0.00325429  0.79996960  0.59827236  1
  Pd  Pd173  1  0.39465044  0.60417433  0.00895229  1
  Pd  Pd174  1  0.39835773  0.79669262  0.20381309  1
  Pd  Pd175  1  0.60295176  -0.00024916  0.20349768  1
  Pd  Pd176  1  0.20179327  0.20424552  0.20191785  1
  Pd  Pd177  1  0.40621201  0.59101163  0.59699502  1
  Pd  Pd178  1  0.60967862  0.40207663  0.19226290  1
  Pd  Pd179  1  0.39533081  0.20685254  0.59264471  1
  Pd  Pd180  1  0.80215752  0.00025123  0.18811104  1
  Pd  Pd181  1  0.39566096  0.20631520  0.40440284  1
  Pd  Pd182  1  0.19885740  0.79950042  0.79783238  1
  Pd  Pd183  1  0.79923538  0.79759856  0.18787960  1
  Pd  Pd184  1  0.19370545  0.39165777  0.19544741  1
  Pd  Pd185  1  0.81133209  0.00217858  0.00669423  1
  Pd  Pd186  1  -0.00223361  0.00451151  0.59215515  1
  Pd  Pd187  1  0.40569163  0.21363831  -0.00509104  1
  Pd  Pd188  1  0.40277809  0.39120042  0.80552559  1
  Pd  Pd189  1  0.78923106  0.00527350  0.79738810  1
  Pd  Pd190  1  0.40671556  0.79974845  0.79133554  1
  Pd  Pd191  1  0.00281894  0.19954719  -0.00181693  1
  Pd  Pd192  1  0.40799866  0.60158296  0.79068940  1
  Pd  Pd193  1  0.01096408  0.58972627  0.00436610  1
  Pd  Pd194  1  0.80498839  0.58963835  0.40936772  1
  Pd  Pd195  1  0.18900806  0.20201921  0.00141495  1
  Pd  Pd196  1  -0.00887888  0.00155972  0.19994795  1
  Pd  Pd197  1  0.78955865  0.40283902  0.20356928  1
  Pd  Pd198  1  0.80192334  -0.00258656  0.61294615  1
  Pd  Pd199  1  0.19610760  0.20509737  0.40506515  1
  Rh  Rh200  1  0.60410333  0.19649087  0.40308768  1
  Rh  Rh201  1  -0.00798121  0.78783759  0.80104084  1
  Rh  Rh202  1  0.79721529  0.39283243  0.59822091  1
  Rh  Rh203  1  0.20878423  0.59914383  0.41022117  1
  Rh  Rh204  1  0.60659266  0.40529696  0.79881469  1
  Rh  Rh205  1  0.59533138  0.39269802  0.59663310  1
  Rh  Rh206  1  0.19941505  -0.00230415  0.40138523  1
  Rh  Rh207  1  -0.00477202  0.59959899  0.79473677  1
  Rh  Rh208  1  0.40391455  0.20512603  0.80538399  1
  Rh  Rh209  1  0.60373691  0.20465623  0.59619908  1
  Rh  Rh210  1  0.39480679  0.40007677  0.20994486  1
  Rh  Rh211  1  0.40093876  -0.00023274  -0.00171955  1
  Rh  Rh212  1  0.20585965  0.20232614  0.60136921  1
  Rh  Rh213  1  0.00397767  0.19512174  0.21506070  1
  Rh  Rh214  1  0.20300013  0.60087116  0.18566968  1
  Rh  Rh215  1  0.79608244  0.60561738  0.60215171  1
  Rh  Rh216  1  -0.00601534  0.80567377  -0.00378805  1
  Rh  Rh217  1  0.79225030  0.60684587  0.00085959  1
  Rh  Rh218  1  0.80775526  0.40150504  -0.00850448  1
  Rh  Rh219  1  0.00798689  0.00352935  0.80906674  1
  Rh  Rh220  1  0.59622809  0.20903162  0.00726206  1
  Rh  Rh221  1  0.80237112  0.19627826  -0.00280351  1
  Rh  Rh222  1  0.40699259  0.79898981  0.00334778  1
  Rh  Rh223  1  0.59730414  0.79997974  0.80729563  1
  Rh  Rh224  1  -0.00806991  0.60504726  0.39194038  1
  Rh  Rh225  1  0.80358592  0.80186721  -0.00020098  1
  Rh  Rh226  1  0.19361844  0.40039324  0.60771194  1
  Rh  Rh227  1  0.21012306  0.80784163  0.20894011  1
  Rh  Rh228  1  0.80571481  0.79991462  0.79748023  1
  Rh  Rh229  1  0.79732245  0.80772127  0.41405529  1
  Rh  Rh230  1  -0.01054462  0.19618733  0.79598646  1
  Rh  Rh231  1  0.19508351  0.59205739  0.60453835  1
  Rh  Rh232  1  0.21081844  0.00225222  0.19118551  1
  Rh  Rh233  1  0.20030253  0.19866136  0.79250463  1
  Rh  Rh234  1  0.59707055  0.39208416  0.00420697  1
  Rh  Rh235  1  0.59174301  0.61238419  0.39502986  1
  Rh  Rh236  1  0.40591721  0.40037534  0.59591811  1
  Rh  Rh237  1  0.60483894  0.80052748  0.20217122  1
  Rh  Rh238  1  0.00588757  0.41133962  0.60931153  1
  Rh  Rh239  1  0.79008402  0.20545571  0.19098392  1
  Rh  Rh240  1  -0.00668604  0.39393402  0.39823457  1
  Rh  Rh241  1  -0.00743097  0.18828730  0.59187991  1
  Rh  Rh242  1  0.20366316  0.60145797  0.80202600  1
  Rh  Rh243  1  0.20340276  0.39465601  0.40394617  1
  Rh  Rh244  1  0.59425379  -0.00297118  0.60257440  1
  Rh  Rh245  1  0.40234305  0.80026798  0.59933978  1
  Rh  Rh246  1  0.39554295  0.20304544  0.20157278  1
  Rh  Rh247  1  0.60818630  0.79425301  0.59065423  1
  Rh  Rh248  1  0.19998378  0.39551495  0.79787881  1
  Rh  Rh249  1  0.60394211  0.19263415  0.80339597  1
