# generated using pymatgen
data_ZrScNbPdRh
_symmetry_space_group_name_H-M   'P 1'
_cell_length_a   16.55205875
_cell_length_b   16.55983357
_cell_length_c   16.55183735
_cell_angle_alpha   89.99438269
_cell_angle_beta   90.01748885
_cell_angle_gamma   90.02034476
_symmetry_Int_Tables_number   1
_chemical_formula_structural   ZrScNbPdRh
_chemical_formula_sum   'Zr50 Sc50 Nb50 Pd50 Rh50'
_cell_volume   4536.84714436
_cell_formula_units_Z   50
loop_
 _symmetry_equiv_pos_site_id
 _symmetry_equiv_pos_as_xyz
  1  'x, y, z'
loop_
 _atom_site_type_symbol
 _atom_site_label
 _atom_site_symmetry_multiplicity
 _atom_site_fract_x
 _atom_site_fract_y
 _atom_site_fract_z
 _atom_site_occupancy
  Zr  Zr0  1  0.89712185  0.69988909  0.88950576  1
  Zr  Zr1  1  0.49876842  0.10149762  0.10044748  1
  Zr  Zr2  1  0.09787871  0.29689991  0.50108216  1
  Zr  Zr3  1  0.89830550  0.50555473  0.50108315  1
  Zr  Zr4  1  0.30409939  0.49552999  0.08940239  1
  Zr  Zr5  1  0.70598506  0.89921851  0.29082563  1
  Zr  Zr6  1  0.10408369  0.89517301  0.70590635  1
  Zr  Zr7  1  0.70590351  0.89977507  0.89058782  1
  Zr  Zr8  1  0.30048548  0.50226072  0.50744268  1
  Zr  Zr9  1  0.50313559  0.90388457  0.29782571  1
  Zr  Zr10  1  0.29743917  0.49853734  0.29633864  1
  Zr  Zr11  1  0.69625795  0.50333597  0.89339131  1
  Zr  Zr12  1  0.48648695  0.10274969  0.49961454  1
  Zr  Zr13  1  0.10000489  0.09311165  0.70932326  1
  Zr  Zr14  1  0.90513175  0.09628988  0.90556069  1
  Zr  Zr15  1  0.49960827  0.90441648  0.89920359  1
  Zr  Zr16  1  0.89099003  0.90753661  0.10058342  1
  Zr  Zr17  1  0.09425313  0.09932325  0.08476655  1
  Zr  Zr18  1  0.69513786  0.29247743  0.30247320  1
  Zr  Zr19  1  0.10128356  0.89790893  0.50457007  1
  Zr  Zr20  1  0.71401483  0.69799010  0.50123314  1
  Zr  Zr21  1  0.90637577  0.50108178  0.29841295  1
  Zr  Zr22  1  0.30619628  0.70818180  0.09663101  1
  Zr  Zr23  1  0.50196102  0.70003213  0.29352141  1
  Zr  Zr24  1  0.10745712  0.50020743  0.89639203  1
  Zr  Zr25  1  0.29482888  0.30057156  0.29381088  1
  Zr  Zr26  1  0.08744779  0.09874005  0.50459052  1
  Zr  Zr27  1  0.49597403  0.29361380  0.30058802  1
  Zr  Zr28  1  0.50265826  0.91015059  0.50107526  1
  Zr  Zr29  1  0.69572079  0.49501729  0.10067417  1
  Zr  Zr30  1  0.49537140  0.50077309  0.70295336  1
  Zr  Zr31  1  0.50714796  0.10102190  0.30512489  1
  Zr  Zr32  1  0.09533643  0.29801720  0.69209161  1
  Zr  Zr33  1  0.89775003  0.29881358  0.30327282  1
  Zr  Zr34  1  0.29857624  0.30760851  0.90220404  1
  Zr  Zr35  1  0.69358536  0.49550681  0.70205359  1
  Zr  Zr36  1  0.70386290  0.29316715  0.09080021  1
  Zr  Zr37  1  0.69811676  0.49243707  0.30221472  1
  Zr  Zr38  1  0.50425189  0.30469861  0.69985665  1
  Zr  Zr39  1  0.70331102  0.89870247  0.50059846  1
  Zr  Zr40  1  0.10032046  0.10575177  0.89940444  1
  Zr  Zr41  1  0.90390167  0.69304933  0.30228505  1
  Zr  Zr42  1  0.49620125  0.50406101  0.89792790  1
  Zr  Zr43  1  0.10251204  0.69671312  0.30473192  1
  Zr  Zr44  1  0.90166824  0.49534621  0.09864340  1
  Zr  Zr45  1  0.70106503  0.50204726  0.50278039  1
  Zr  Zr46  1  0.90532003  0.69398730  0.50791308  1
  Zr  Zr47  1  0.09881099  0.50160273  0.29721975  1
  Zr  Zr48  1  0.50570830  0.50246212  0.29504504  1
  Zr  Zr49  1  0.90362252  0.90145487  0.49987303  1
  Sc  Sc50  1  0.70283203  0.30248767  0.70470030  1
  Sc  Sc51  1  0.30276554  0.10964435  0.30121486  1
  Sc  Sc52  1  0.89785257  0.50288876  0.69881039  1
  Sc  Sc53  1  0.69902231  0.10101638  0.70917748  1
  Sc  Sc54  1  0.10410447  0.29956091  0.09334741  1
  Sc  Sc55  1  0.89743780  0.10380325  0.30637834  1
  Sc  Sc56  1  0.29472413  0.09962806  0.89765138  1
  Sc  Sc57  1  0.30434323  0.10584388  0.09674353  1
  Sc  Sc58  1  0.10048918  0.11001855  0.30770788  1
  Sc  Sc59  1  0.09859780  0.69281742  0.88876503  1
  Sc  Sc60  1  0.10767198  0.29892190  0.29962701  1
  Sc  Sc61  1  0.30050599  0.29952332  0.09984753  1
  Sc  Sc62  1  0.30279481  0.88860434  0.29718388  1
  Sc  Sc63  1  0.09935428  0.49851054  0.50485206  1
  Sc  Sc64  1  0.49039936  0.29456725  0.09170673  1
  Sc  Sc65  1  0.09351694  0.49939863  0.09874291  1
  Sc  Sc66  1  0.49544799  0.29733817  0.49920563  1
  Sc  Sc67  1  0.50088743  0.50354242  0.50383982  1
  Sc  Sc68  1  0.69944451  0.69927329  0.29466574  1
  Sc  Sc69  1  0.70507752  0.89709136  0.10284123  1
  Sc  Sc70  1  0.89482414  0.30278901  0.08968531  1
  Sc  Sc71  1  0.30904970  0.70152882  0.50179942  1
  Sc  Sc72  1  0.90161279  0.49758367  0.89857872  1
  Sc  Sc73  1  0.29787109  0.29644341  0.49686613  1
  Sc  Sc74  1  0.50279779  0.29646844  0.89938090  1
  Sc  Sc75  1  0.90283268  0.09987415  0.70089434  1
  Sc  Sc76  1  0.49621147  0.90481729  0.70686212  1
  Sc  Sc77  1  0.49757608  0.50878919  0.09762978  1
  Sc  Sc78  1  0.90167622  0.28818928  0.51046822  1
  Sc  Sc79  1  0.29784158  0.69322754  0.90011367  1
  Sc  Sc80  1  0.90210951  0.70230899  0.09965211  1
  Sc  Sc81  1  0.70001178  0.30403279  0.50321899  1
  Sc  Sc82  1  0.69072991  0.70529263  0.10053115  1
  Sc  Sc83  1  0.30021176  0.31352066  0.69419535  1
  Sc  Sc84  1  0.70239884  0.29775382  0.89285336  1
  Sc  Sc85  1  0.30767085  0.89392336  0.49938747  1
  Sc  Sc86  1  0.49092770  0.70028016  0.70693594  1
  Sc  Sc87  1  0.49850043  0.10728137  0.90191579  1
  Sc  Sc88  1  0.49326410  0.09277840  0.69683883  1
  Sc  Sc89  1  0.50397736  0.69575753  0.90635869  1
  Sc  Sc90  1  0.10481495  0.70004215  0.09279057  1
  Sc  Sc91  1  0.68830435  0.09976473  0.49331726  1
  Sc  Sc92  1  0.69907949  0.10933707  0.90039788  1
  Sc  Sc93  1  0.09873160  0.49624531  0.69722218  1
  Sc  Sc94  1  0.71543935  0.69918091  0.71047191  1
  Sc  Sc95  1  0.48663729  0.89433723  0.10267084  1
  Sc  Sc96  1  0.90029855  0.89924689  0.71214148  1
  Sc  Sc97  1  0.69469521  0.70196603  0.89882908  1
  Sc  Sc98  1  0.29901886  0.70856977  0.70836063  1
  Sc  Sc99  1  0.30214240  0.70034484  0.30723444  1
  Nb  Nb100  1  0.89655907  0.10087291  0.09871385  1
  Nb  Nb101  1  0.69613539  0.09852968  0.29583453  1
  Nb  Nb102  1  0.10302592  0.89928569  0.30188367  1
  Nb  Nb103  1  0.30368813  0.49895413  0.88924841  1
  Nb  Nb104  1  0.09847701  0.29273206  0.89603546  1
  Nb  Nb105  1  0.89930171  0.30329134  0.70133276  1
  Nb  Nb106  1  0.10300019  0.90022800  0.09770318  1
  Nb  Nb107  1  0.10134827  0.91446642  0.90528933  1
  Nb  Nb108  1  0.30064769  0.09832818  0.50529082  1
  Nb  Nb109  1  0.89631234  0.30059639  0.89889102  1
  Nb  Nb110  1  0.30373349  0.50722521  0.70397427  1
  Nb  Nb111  1  0.90192292  0.89881485  0.29630399  1
  Nb  Nb112  1  0.10273077  0.70449451  0.50700715  1
  Nb  Nb113  1  0.70371373  0.09916439  0.10274635  1
  Nb  Nb114  1  0.29212625  0.89651595  0.09613954  1
  Nb  Nb115  1  0.30343995  0.90821790  0.71477589  1
  Nb  Nb116  1  0.91141925  0.69259824  0.70418416  1
  Nb  Nb117  1  0.50459624  0.70398533  0.50485655  1
  Nb  Nb118  1  0.50181877  0.69742816  0.10011315  1
  Nb  Nb119  1  0.29693336  0.90135752  0.89985076  1
  Nb  Nb120  1  0.09541717  0.69764323  0.69614387  1
  Nb  Nb121  1  0.70051388  0.90355263  0.70095231  1
  Nb  Nb122  1  0.30411129  0.09712606  0.69700122  1
  Nb  Nb123  1  0.89995663  0.09336835  0.50337690  1
  Nb  Nb124  1  0.89896256  0.90159081  0.90266846  1
  Nb  Nb125  1  0.39400112  0.20186000  0.79187390  1
  Nb  Nb126  1  0.59498718  0.19918348  0.60221870  1
  Nb  Nb127  1  0.20620812  -0.00059896  0.60205027  1
  Nb  Nb128  1  -0.00038075  0.38965010  0.80158372  1
  Nb  Nb129  1  0.60041813  0.79962475  0.40657120  1
  Nb  Nb130  1  0.00343711  0.80094422  0.39860319  1
  Nb  Nb131  1  0.60219409  0.00203248  0.00403914  1
  Nb  Nb132  1  0.00147353  0.81147998  -0.00385599  1
  Nb  Nb133  1  0.19941465  0.60741957  0.60568701  1
  Nb  Nb134  1  0.80036952  0.59297137  0.19562334  1
  Nb  Nb135  1  0.19954694  -0.00165330  0.40176942  1
  Nb  Nb136  1  0.60054510  0.40169762  -0.00262688  1
  Nb  Nb137  1  0.79741650  0.59679971  0.00259866  1
  Nb  Nb138  1  0.00253093  0.00041882  0.19906098  1
  Nb  Nb139  1  0.60155570  0.61032798  0.60215151  1
  Nb  Nb140  1  0.00535981  0.80914394  0.19974434  1
  Nb  Nb141  1  0.80124889  0.00031819  0.39941293  1
  Nb  Nb142  1  0.39796400  0.40347583  0.39359830  1
  Nb  Nb143  1  0.19503497  -0.00623977  0.19880431  1
  Nb  Nb144  1  -0.00159578  0.39963102  0.40195595  1
  Nb  Nb145  1  0.60370679  0.79928924  0.60226588  1
  Nb  Nb146  1  0.20362175  0.59940757  0.19732060  1
  Nb  Nb147  1  0.79980295  0.00015076  0.59702400  1
  Nb  Nb148  1  0.20333082  0.18955504  0.60344804  1
  Nb  Nb149  1  -0.00455205  0.19461902  0.19239438  1
  Pd  Pd150  1  0.00532366  0.39454408  -0.01015226  1
  Pd  Pd151  1  0.59773653  0.81062227  0.00362385  1
  Pd  Pd152  1  0.00448412  0.38512460  0.20310933  1
  Pd  Pd153  1  0.78998486  0.18996728  0.60025534  1
  Pd  Pd154  1  0.19869629  0.40004931  0.40507671  1
  Pd  Pd155  1  0.80680221  0.39783945  0.40679327  1
  Pd  Pd156  1  0.20344963  0.59844181  0.00170585  1
  Pd  Pd157  1  0.40001181  0.79783010  0.81263764  1
  Pd  Pd158  1  0.80673116  0.19594348  0.79987720  1
  Pd  Pd159  1  0.59104790  0.39581734  0.40780914  1
  Pd  Pd160  1  0.00543783  0.80581350  0.80869249  1
  Pd  Pd161  1  0.21012243  0.20601386  0.79166445  1
  Pd  Pd162  1  0.19606667  0.79997286  0.80904851  1
  Pd  Pd163  1  0.59928309  0.79578399  0.79200288  1
  Pd  Pd164  1  0.60565776  0.00436382  0.60544188  1
  Pd  Pd165  1  -0.00816727  0.20232650  0.79807071  1
  Pd  Pd166  1  0.80513051  0.80366619  0.61374264  1
  Pd  Pd167  1  0.19928792  0.79550227  0.20113750  1
  Pd  Pd168  1  0.40593665  0.59580762  0.40195147  1
  Pd  Pd169  1  0.21311199  0.80132815  0.60310593  1
  Pd  Pd170  1  0.39355058  0.60462331  0.19765788  1
  Pd  Pd171  1  0.80225554  0.79088284  -0.00157755  1
  Pd  Pd172  1  0.39939892  0.00061170  -0.00257711  1
  Pd  Pd173  1  -0.00674044  0.80328236  0.60391324  1
  Pd  Pd174  1  0.19257725  0.79740729  -0.01365652  1
  Pd  Pd175  1  0.59834639  0.00871548  0.80698261  1
  Pd  Pd176  1  0.80496734  0.19819546  0.19970057  1
  Pd  Pd177  1  0.38805726  0.00125605  0.20315919  1
  Pd  Pd178  1  0.80399519  0.80097041  0.39297024  1
  Pd  Pd179  1  0.19629818  0.40020428  0.00053298  1
  Pd  Pd180  1  0.40387342  0.80599283  0.60757031  1
  Pd  Pd181  1  0.40212677  0.79799472  -0.00755818  1
  Pd  Pd182  1  0.19445308  0.39859532  0.79273054  1
  Pd  Pd183  1  -0.00540191  0.60804237  -0.00265621  1
  Pd  Pd184  1  0.40100918  0.39885625  0.59210105  1
  Pd  Pd185  1  0.79598915  0.19306477  0.40867729  1
  Pd  Pd186  1  0.79873341  0.39805575  0.20039593  1
  Pd  Pd187  1  0.59979765  -0.00434107  0.18868101  1
  Pd  Pd188  1  0.20936712  0.00493879  0.00361631  1
  Pd  Pd189  1  0.60304734  0.60671736  0.40494487  1
  Pd  Pd190  1  0.19239777  0.18997740  0.19151959  1
  Pd  Pd191  1  0.19993295  0.60290688  0.40742747  1
  Pd  Pd192  1  0.59663165  0.20480385  0.19258929  1
  Pd  Pd193  1  0.78869106  0.00548329  -0.00594220  1
  Pd  Pd194  1  0.80214577  0.39992680  0.60121439  1
  Pd  Pd195  1  0.40570566  0.39799392  0.19888458  1
  Pd  Pd196  1  0.59140467  0.38842435  0.18837720  1
  Pd  Pd197  1  0.38760973  -0.00031022  0.39148996  1
  Pd  Pd198  1  0.41007442  0.80004927  0.39821874  1
  Pd  Pd199  1  0.00024134  -0.00129692  0.39121960  1
  Rh  Rh200  1  0.00225530  0.58790442  0.79596739  1
  Rh  Rh201  1  0.00812184  0.59677678  0.60183802  1
  Rh  Rh202  1  0.80436819  0.80094193  0.79806621  1
  Rh  Rh203  1  0.79498600  0.59543430  0.38691000  1
  Rh  Rh204  1  0.00864282  0.59962694  0.41417807  1
  Rh  Rh205  1  0.20470355  0.20303905  -0.00137126  1
  Rh  Rh206  1  0.59657380  0.39746770  0.80960583  1
  Rh  Rh207  1  0.20024804  0.59880214  0.79036743  1
  Rh  Rh208  1  0.39325239  -0.01190107  0.60266803  1
  Rh  Rh209  1  0.39277638  0.20197614  -0.01230313  1
  Rh  Rh210  1  0.60479563  0.59621240  0.00372013  1
  Rh  Rh211  1  0.80841968  0.78570945  0.20035188  1
  Rh  Rh212  1  0.20088864  0.19111174  0.41157780  1
  Rh  Rh213  1  0.79586642  0.59867798  0.61179705  1
  Rh  Rh214  1  0.19589262  0.40873374  0.19029431  1
  Rh  Rh215  1  0.39792717  0.00828405  0.80923195  1
  Rh  Rh216  1  -0.00490124  -0.00594574  0.00153915  1
  Rh  Rh217  1  0.40122703  0.19692281  0.20076314  1
  Rh  Rh218  1  0.40072077  0.39609659  0.80317640  1
  Rh  Rh219  1  0.58831747  0.19680380  0.78975984  1
  Rh  Rh220  1  0.60525163  0.60259229  0.19666035  1
  Rh  Rh221  1  0.59977878  0.39970961  0.59744408  1
  Rh  Rh222  1  0.40691147  0.40204434  -0.00611836  1
  Rh  Rh223  1  -0.00085000  0.19396026  0.60764382  1
  Rh  Rh224  1  0.39910473  0.79754691  0.19884360  1
  Rh  Rh225  1  0.39979340  0.20560292  0.60678496  1
  Rh  Rh226  1  0.80362742  0.19575604  -0.00550211  1
  Rh  Rh227  1  0.60137847  0.20203752  0.40711487  1
  Rh  Rh228  1  0.60987989  -0.00609248  0.39191834  1
  Rh  Rh229  1  0.80170530  0.00295773  0.79856348  1
  Rh  Rh230  1  -0.00207843  -0.00354257  0.61288266  1
  Rh  Rh231  1  -0.00187827  -0.00469836  0.80433555  1
  Rh  Rh232  1  0.78940312  0.40448060  -0.01199784  1
  Rh  Rh233  1  0.20455635  0.40561116  0.60103465  1
  Rh  Rh234  1  0.80465915  0.01236016  0.20904148  1
  Rh  Rh235  1  0.80913099  0.40067498  0.80008647  1
  Rh  Rh236  1  -0.00226354  0.20880845  0.39502783  1
  Rh  Rh237  1  0.39850864  0.60606133  0.60507434  1
  Rh  Rh238  1  0.20318592  -0.00055790  0.80183723  1
  Rh  Rh239  1  0.39717508  0.60510937  0.80278767  1
  Rh  Rh240  1  0.59426161  0.80284943  0.20040556  1
  Rh  Rh241  1  0.80328268  0.59545666  0.80407752  1
  Rh  Rh242  1  0.00437068  0.61053460  0.18821760  1
  Rh  Rh243  1  0.19752154  0.80184595  0.40636648  1
  Rh  Rh244  1  0.39279092  0.20507755  0.39853767  1
  Rh  Rh245  1  0.60312099  0.19834836  0.00409935  1
  Rh  Rh246  1  -0.00636017  0.20837905  0.00200040  1
  Rh  Rh247  1  0.39704285  0.60213279  -0.00289621  1
  Rh  Rh248  1  -0.00899707  0.40020836  0.59995120  1
  Rh  Rh249  1  0.59673556  0.60707472  0.78933318  1
