# generated using pymatgen
data_ZrScNbPdRh
_symmetry_space_group_name_H-M   'P 1'
_cell_length_a   16.55747326
_cell_length_b   16.55518583
_cell_length_c   16.56008016
_cell_angle_alpha   90.00255918
_cell_angle_beta   89.97884210
_cell_angle_gamma   89.99783667
_symmetry_Int_Tables_number   1
_chemical_formula_structural   ZrScNbPdRh
_chemical_formula_sum   'Zr50 Sc50 Nb50 Pd50 Rh50'
_cell_volume   4539.31714947
_cell_formula_units_Z   50
loop_
 _symmetry_equiv_pos_site_id
 _symmetry_equiv_pos_as_xyz
  1  'x, y, z'
loop_
 _atom_site_type_symbol
 _atom_site_label
 _atom_site_symmetry_multiplicity
 _atom_site_fract_x
 _atom_site_fract_y
 _atom_site_fract_z
 _atom_site_occupancy
  Zr  Zr0  1  0.89718870  0.29807883  0.30179102  1
  Zr  Zr1  1  0.48552395  0.70036149  0.70996465  1
  Zr  Zr2  1  0.70208784  0.50678545  0.49474408  1
  Zr  Zr3  1  0.29588653  0.48776690  0.90837672  1
  Zr  Zr4  1  0.69881218  0.28893975  0.50136605  1
  Zr  Zr5  1  0.30382768  0.68869232  0.10398467  1
  Zr  Zr6  1  0.09998030  0.90189857  0.50300566  1
  Zr  Zr7  1  0.10012751  0.89666992  0.09957261  1
  Zr  Zr8  1  0.30727438  0.89949226  0.90067789  1
  Zr  Zr9  1  0.09273208  0.49821240  0.49445695  1
  Zr  Zr10  1  0.29235959  0.30056051  0.50068010  1
  Zr  Zr11  1  0.29168659  0.50874362  0.28723754  1
  Zr  Zr12  1  0.90488417  0.10630930  0.30477519  1
  Zr  Zr13  1  0.30607876  0.08989981  0.69320971  1
  Zr  Zr14  1  0.89718204  0.91255264  0.89673951  1
  Zr  Zr15  1  0.30039924  0.30296914  0.08818972  1
  Zr  Zr16  1  0.90139904  0.10423050  0.50262085  1
  Zr  Zr17  1  0.69908981  0.49693131  0.29896695  1
  Zr  Zr18  1  0.30823379  0.89123084  0.69842787  1
  Zr  Zr19  1  0.89133053  0.50604368  0.10215020  1
  Zr  Zr20  1  0.29116396  0.50128684  0.49655693  1
  Zr  Zr21  1  0.30054154  0.70186597  0.51271004  1
  Zr  Zr22  1  0.50333533  0.70185914  0.49863670  1
  Zr  Zr23  1  0.51103264  0.29404446  0.29571362  1
  Zr  Zr24  1  0.09158265  0.89960194  0.69824108  1
  Zr  Zr25  1  0.29932127  0.90470751  0.50508398  1
  Zr  Zr26  1  0.49670700  0.29890161  0.10036993  1
  Zr  Zr27  1  0.29719314  0.30037969  0.70265472  1
  Zr  Zr28  1  0.89764466  0.30530673  0.10484433  1
  Zr  Zr29  1  0.89559361  0.89148980  0.70079864  1
  Zr  Zr30  1  0.49216396  0.30384955  0.89182521  1
  Zr  Zr31  1  0.30192583  0.10412345  0.90360900  1
  Zr  Zr32  1  0.10751009  0.69723737  0.70806378  1
  Zr  Zr33  1  0.50289803  0.29332780  0.70116078  1
  Zr  Zr34  1  0.30808049  0.10553388  0.09779046  1
  Zr  Zr35  1  0.50164033  0.09457323  0.29356371  1
  Zr  Zr36  1  0.70566934  0.69823665  0.09870519  1
  Zr  Zr37  1  0.09701014  0.88966373  0.89818080  1
  Zr  Zr38  1  0.71091549  0.70823690  0.70369083  1
  Zr  Zr39  1  0.50005349  0.50083393  0.71136764  1
  Zr  Zr40  1  0.31109178  0.31604718  0.30445058  1
  Zr  Zr41  1  0.29736682  0.51296301  0.69709013  1
  Zr  Zr42  1  0.69860008  0.90380379  0.89089492  1
  Zr  Zr43  1  0.09774043  0.49693897  0.70998611  1
  Zr  Zr44  1  0.30152896  0.90064553  0.10249862  1
  Zr  Zr45  1  0.48796193  0.50802590  0.09224619  1
  Zr  Zr46  1  0.90109640  0.49965939  0.31408416  1
  Zr  Zr47  1  0.10249790  0.69363829  0.90466038  1
  Zr  Zr48  1  0.89965258  0.29923499  0.69715679  1
  Zr  Zr49  1  0.09309803  0.70070186  0.09029318  1
  Sc  Sc50  1  0.69777870  0.10410200  0.29562041  1
  Sc  Sc51  1  0.49687973  0.29639349  0.48873458  1
  Sc  Sc52  1  0.90108805  0.49543039  0.70786539  1
  Sc  Sc53  1  0.68865406  0.89720971  0.49597137  1
  Sc  Sc54  1  0.69862836  0.69851169  0.49512224  1
  Sc  Sc55  1  0.50405848  0.50170083  0.49175486  1
  Sc  Sc56  1  0.70192525  0.09639144  0.10305332  1
  Sc  Sc57  1  0.49198720  0.48890222  0.29754394  1
  Sc  Sc58  1  0.69640523  0.28967394  0.69942069  1
  Sc  Sc59  1  0.10200588  0.29331024  0.30511616  1
  Sc  Sc60  1  0.70122490  0.50574537  0.89657752  1
  Sc  Sc61  1  0.91024830  0.69775696  0.91634894  1
  Sc  Sc62  1  0.30550939  0.09454564  0.29460133  1
  Sc  Sc63  1  0.88897505  0.10474189  0.10361520  1
  Sc  Sc64  1  0.90433782  0.70033214  0.49606545  1
  Sc  Sc65  1  0.69145300  0.70673681  0.90356626  1
  Sc  Sc66  1  0.70172603  0.90164124  0.08843018  1
  Sc  Sc67  1  0.50000890  0.09126607  0.89284760  1
  Sc  Sc68  1  0.90355741  0.29843560  0.49570656  1
  Sc  Sc69  1  0.11718766  0.11278140  0.10812732  1
  Sc  Sc70  1  0.10424105  0.70155543  0.49530294  1
  Sc  Sc71  1  0.49378437  0.90095682  0.49190471  1
  Sc  Sc72  1  0.89816023  0.89085758  0.10231831  1
  Sc  Sc73  1  0.70405891  0.30169708  0.10944511  1
  Sc  Sc74  1  0.49286906  0.89803771  0.09146514  1
  Sc  Sc75  1  0.29192935  0.70390397  0.30266477  1
  Sc  Sc76  1  0.90484304  0.09761013  0.70363834  1
  Sc  Sc77  1  0.11255867  0.30031531  0.10578058  1
  Sc  Sc78  1  0.69763003  0.10624146  0.50022168  1
  Sc  Sc79  1  0.91104880  0.89371292  0.29232889  1
  Sc  Sc80  1  0.30559026  0.89947512  0.29801398  1
  Sc  Sc81  1  0.69166941  0.91002771  0.29283821  1
  Sc  Sc82  1  0.30245774  0.09930632  0.50459495  1
  Sc  Sc83  1  0.12021251  0.50664051  0.10051587  1
  Sc  Sc84  1  0.49209640  0.70084343  0.30171807  1
  Sc  Sc85  1  0.10874841  0.30873990  0.89736788  1
  Sc  Sc86  1  0.68585371  0.09895843  0.69438109  1
  Sc  Sc87  1  0.10444783  0.89119253  0.30146991  1
  Sc  Sc88  1  0.49783633  0.09854547  0.49789959  1
  Sc  Sc89  1  0.09857747  0.70195666  0.30796327  1
  Sc  Sc90  1  0.09553017  0.30581264  0.69759227  1
  Sc  Sc91  1  0.50480462  0.89264748  0.89837860  1
  Sc  Sc92  1  0.70928834  0.50859984  0.70748657  1
  Sc  Sc93  1  0.30181704  0.70532781  0.89047244  1
  Sc  Sc94  1  0.91342020  0.89338348  0.50728087  1
  Sc  Sc95  1  0.89764669  0.30651953  0.89869505  1
  Sc  Sc96  1  0.09303183  0.09755612  0.69198346  1
  Sc  Sc97  1  0.90042149  0.49964777  0.89844190  1
  Sc  Sc98  1  0.69970316  0.69349148  0.30213940  1
  Sc  Sc99  1  0.70276782  0.49944278  0.09900831  1
  Nb  Nb100  1  0.49795705  0.09306041  0.69730992  1
  Nb  Nb101  1  0.90239938  0.70103409  0.68869487  1
  Nb  Nb102  1  0.10133443  0.29870340  0.50119555  1
  Nb  Nb103  1  0.09755421  0.10034027  0.49264994  1
  Nb  Nb104  1  0.90042155  0.69973237  0.11083933  1
  Nb  Nb105  1  0.69657109  0.89602284  0.70267792  1
  Nb  Nb106  1  0.09596056  0.50240417  0.90437727  1
  Nb  Nb107  1  0.90225353  0.10097586  0.90202946  1
  Nb  Nb108  1  0.49603171  0.90254931  0.29687546  1
  Nb  Nb109  1  0.30063539  0.49612534  0.10497693  1
  Nb  Nb110  1  0.50505187  0.69897794  0.08966410  1
  Nb  Nb111  1  0.50164924  0.50544712  0.90009210  1
  Nb  Nb112  1  0.09756016  0.09956708  0.30445795  1
  Nb  Nb113  1  0.30293495  0.69926049  0.69927086  1
  Nb  Nb114  1  0.71063300  0.09440536  0.91026026  1
  Nb  Nb115  1  0.69420382  0.29518871  0.90221940  1
  Nb  Nb116  1  0.50118469  0.69505015  0.90926705  1
  Nb  Nb117  1  0.90315848  0.49632381  0.50205206  1
  Nb  Nb118  1  0.09767504  0.50569990  0.29963512  1
  Nb  Nb119  1  0.09512190  0.09810632  0.89479127  1
  Nb  Nb120  1  0.29720013  0.29494145  0.90149162  1
  Nb  Nb121  1  0.69923705  0.29705835  0.30143420  1
  Nb  Nb122  1  0.50749388  0.90832225  0.70798376  1
  Nb  Nb123  1  0.49985679  0.10945079  0.10139659  1
  Nb  Nb124  1  0.90083657  0.70273685  0.29168412  1
  Nb  Nb125  1  0.80260165  0.80626642  0.39477674  1
  Nb  Nb126  1  0.39253048  0.59916843  0.40102029  1
  Nb  Nb127  1  0.60148128  0.40495997  0.60164370  1
  Nb  Nb128  1  0.59741322  0.79959818  0.61225053  1
  Nb  Nb129  1  -0.00292288  0.59957882  0.20176563  1
  Nb  Nb130  1  0.00795956  0.00798778  0.19722943  1
  Nb  Nb131  1  0.79636438  0.19332845  0.81044716  1
  Nb  Nb132  1  0.79713218  0.40140937  0.59556291  1
  Nb  Nb133  1  0.59376021  0.79651967  0.19461859  1
  Nb  Nb134  1  0.60000535  0.60326264  0.60742643  1
  Nb  Nb135  1  0.80500160  -0.00420219  0.40400896  1
  Nb  Nb136  1  0.00432989  0.40888897  0.20205609  1
  Nb  Nb137  1  0.19846741  0.00001058  0.80160917  1
  Nb  Nb138  1  0.00202665  0.19969852  -0.00243946  1
  Nb  Nb139  1  0.19388015  0.00491605  0.40088278  1
  Nb  Nb140  1  0.40256729  0.40130306  0.60067288  1
  Nb  Nb141  1  0.20033389  0.19370381  0.80086652  1
  Nb  Nb142  1  0.59324708  0.60412249  0.19347498  1
  Nb  Nb143  1  0.00469338  0.40242343  0.00802364  1
  Nb  Nb144  1  -0.00256178  0.59691404  0.60203368  1
  Nb  Nb145  1  0.19573399  0.00203312  -0.00419206  1
  Nb  Nb146  1  0.00408846  0.00941906  0.00416836  1
  Nb  Nb147  1  0.79662416  -0.00617698  0.59859990  1
  Nb  Nb148  1  0.60205683  0.20051107  -0.00343221  1
  Nb  Nb149  1  0.59677199  0.39817422  -0.00724034  1
  Pd  Pd150  1  0.60376133  0.00522217  0.40024927  1
  Pd  Pd151  1  0.40497657  0.79564730  0.19715647  1
  Pd  Pd152  1  0.79228753  0.01048433  0.78644535  1
  Pd  Pd153  1  0.39692482  0.19378105  0.39531535  1
  Pd  Pd154  1  0.39669268  0.19246726  0.79712166  1
  Pd  Pd155  1  0.60405895  0.18655215  0.80761051  1
  Pd  Pd156  1  0.19303104  0.19394139  0.60535099  1
  Pd  Pd157  1  -0.00822113  0.79005259  0.80341351  1
  Pd  Pd158  1  0.59424529  0.00528208  0.00230566  1
  Pd  Pd159  1  0.00344470  0.20228082  0.59664702  1
  Pd  Pd160  1  0.81033139  -0.00329934  0.20626290  1
  Pd  Pd161  1  0.80270025  0.80157134  -0.00542484  1
  Pd  Pd162  1  0.21036701  0.79827024  0.00114289  1
  Pd  Pd163  1  -0.00049227  -0.00843103  0.39355787  1
  Pd  Pd164  1  0.79711031  0.60339083  -0.00762580  1
  Pd  Pd165  1  0.60384309  0.80149662  0.38809980  1
  Pd  Pd166  1  0.59937719  -0.00553280  0.59364031  1
  Pd  Pd167  1  0.81072302  0.61257995  0.80983973  1
  Pd  Pd168  1  0.60297616  0.60984784  0.79867384  1
  Pd  Pd169  1  0.00097912  0.21015836  0.80590552  1
  Pd  Pd170  1  0.59708068  0.40848303  0.18931794  1
  Pd  Pd171  1  0.21371422  0.20813985  0.21504942  1
  Pd  Pd172  1  0.40343778  0.20580208  0.59623173  1
  Pd  Pd173  1  0.00180717  0.20128953  0.19195156  1
  Pd  Pd174  1  0.60996342  0.40260278  0.79877818  1
  Pd  Pd175  1  0.79526106  0.39983063  -0.00437972  1
  Pd  Pd176  1  0.78658190  0.80516727  0.20760127  1
  Pd  Pd177  1  -0.00926402  0.60555507  0.79674633  1
  Pd  Pd178  1  0.40865843  0.59180571  0.59252845  1
  Pd  Pd179  1  0.40286464  0.00257241  0.00052860  1
  Pd  Pd180  1  0.19514191  0.79880254  0.60419004  1
  Pd  Pd181  1  0.79470907  0.39206111  0.40623903  1
  Pd  Pd182  1  0.81131928  0.79035325  0.81347179  1
  Pd  Pd183  1  0.38838654  0.60281709  -0.00975086  1
  Pd  Pd184  1  0.39079205  0.40534197  0.79626700  1
  Pd  Pd185  1  0.39304384  0.79670619  0.40009965  1
  Pd  Pd186  1  0.20814889  0.19346923  0.39608277  1
  Pd  Pd187  1  0.80391156  0.59550667  0.59843963  1
  Pd  Pd188  1  0.39439973  0.20636135  0.20571892  1
  Pd  Pd189  1  0.79076359  0.39055992  0.79382875  1
  Pd  Pd190  1  0.59271799  -0.00776324  0.18636731  1
  Pd  Pd191  1  0.19728787  0.79317886  0.19849722  1
  Pd  Pd192  1  0.19842432  0.40446586  0.60422678  1
  Pd  Pd193  1  0.19215297  0.40185195  0.39217874  1
  Pd  Pd194  1  0.60285905  0.39699037  0.40523949  1
  Pd  Pd195  1  0.20676422  0.59557675  0.81059221  1
  Pd  Pd196  1  0.80774610  0.60980186  0.39976057  1
  Pd  Pd197  1  0.19772226  -0.00014932  0.20367167  1
  Pd  Pd198  1  0.79255528  0.80603227  0.58561188  1
  Pd  Pd199  1  0.80110158  0.20549585  -0.00000496  1
  Rh  Rh200  1  0.80336424  0.19435692  0.61450696  1
  Rh  Rh201  1  -0.00967449  0.80896119  0.00111654  1
  Rh  Rh202  1  0.40382974  0.39911722  -0.00207607  1
  Rh  Rh203  1  0.20362850  0.60267837  0.40002133  1
  Rh  Rh204  1  0.19106184  0.19639639  -0.01128686  1
  Rh  Rh205  1  -0.00589601  0.40254568  0.59676708  1
  Rh  Rh206  1  0.79520514  0.19318645  0.39567663  1
  Rh  Rh207  1  0.40552636  0.80246170  0.80471104  1
  Rh  Rh208  1  0.80297330  0.40140580  0.21061621  1
  Rh  Rh209  1  0.41319965  0.19909435  -0.00678748  1
  Rh  Rh210  1  0.19484558  0.39999236  0.00243989  1
  Rh  Rh211  1  0.60502971  0.00517678  0.80295540  1
  Rh  Rh212  1  0.19275652  0.00425588  0.59835409  1
  Rh  Rh213  1  0.00659550  0.39175121  0.39690144  1
  Rh  Rh214  1  0.20188952  0.39893381  0.79877329  1
  Rh  Rh215  1  0.60067006  0.80327254  0.00203462  1
  Rh  Rh216  1  0.79766022  0.59859959  0.20757537  1
  Rh  Rh217  1  -0.00370154  0.60502171  0.40109143  1
  Rh  Rh218  1  0.39266383  0.00000358  0.39755423  1
  Rh  Rh219  1  0.39914557  0.39808818  0.19311269  1
  Rh  Rh220  1  0.20857258  0.60074777  -0.00419703  1
  Rh  Rh221  1  0.59902597  0.19452329  0.39597582  1
  Rh  Rh222  1  0.00912566  0.78589220  0.60138815  1
  Rh  Rh223  1  0.59277220  0.79443482  0.79786802  1
  Rh  Rh224  1  0.58666113  0.20264815  0.59451495  1
  Rh  Rh225  1  0.40713331  -0.00072029  0.19400337  1
  Rh  Rh226  1  0.00211292  0.39833054  0.81215757  1
  Rh  Rh227  1  0.41256435  0.80778908  0.60365768  1
  Rh  Rh228  1  0.60678913  0.19844609  0.19149537  1
  Rh  Rh229  1  0.58597945  0.59836429  0.38760494  1
  Rh  Rh230  1  0.00860692  0.79538472  0.19882271  1
  Rh  Rh231  1  0.00280535  -0.00322947  0.80012181  1
  Rh  Rh232  1  0.18627325  0.60075466  0.59947763  1
  Rh  Rh233  1  0.40522561  0.60333026  0.20674998  1
  Rh  Rh234  1  0.39337319  0.59634119  0.81100818  1
  Rh  Rh235  1  0.18851571  0.61187046  0.20109758  1
  Rh  Rh236  1  0.39909785  0.79241130  -0.00057224  1
  Rh  Rh237  1  0.20367454  0.80558874  0.79404645  1
  Rh  Rh238  1  -0.00758483  0.00337618  0.60078559  1
  Rh  Rh239  1  0.41230709  -0.00577114  0.59878801  1
  Rh  Rh240  1  0.19826150  0.39636938  0.20424747  1
  Rh  Rh241  1  0.00499302  0.20695047  0.40590752  1
  Rh  Rh242  1  0.39694670  0.40840623  0.41091276  1
  Rh  Rh243  1  0.79441074  0.20173903  0.20530849  1
  Rh  Rh244  1  0.00002973  0.58755365  0.01163290  1
  Rh  Rh245  1  -0.00550507  0.79807180  0.39882318  1
  Rh  Rh246  1  0.20601945  0.81019952  0.40563487  1
  Rh  Rh247  1  0.80990415  -0.00285904  0.00758905  1
  Rh  Rh248  1  0.39855891  -0.00442519  0.79774192  1
  Rh  Rh249  1  0.60551590  0.59070511  0.00215085  1
