# generated using pymatgen
data_ZrScNbPdRh
_symmetry_space_group_name_H-M   'P 1'
_cell_length_a   16.55864135
_cell_length_b   16.55893491
_cell_length_c   16.55682060
_cell_angle_alpha   89.98774582
_cell_angle_beta   89.99993233
_cell_angle_gamma   90.00191624
_symmetry_Int_Tables_number   1
_chemical_formula_structural   ZrScNbPdRh
_chemical_formula_sum   'Zr50 Sc50 Nb50 Pd50 Rh50'
_cell_volume   4539.77189099
_cell_formula_units_Z   50
loop_
 _symmetry_equiv_pos_site_id
 _symmetry_equiv_pos_as_xyz
  1  'x, y, z'
loop_
 _atom_site_type_symbol
 _atom_site_label
 _atom_site_symmetry_multiplicity
 _atom_site_fract_x
 _atom_site_fract_y
 _atom_site_fract_z
 _atom_site_occupancy
  Zr  Zr0  1  0.10295201  0.90272286  0.70073988  1
  Zr  Zr1  1  0.09516238  0.90101612  0.50322611  1
  Zr  Zr2  1  0.30153170  0.50154104  0.70043719  1
  Zr  Zr3  1  0.89266899  0.49819271  0.89857493  1
  Zr  Zr4  1  0.89293384  0.89912810  0.49420631  1
  Zr  Zr5  1  0.70006375  0.69304153  0.29200086  1
  Zr  Zr6  1  0.10157905  0.89170050  0.89081709  1
  Zr  Zr7  1  0.10420601  0.70437613  0.69675723  1
  Zr  Zr8  1  0.50986857  0.89931822  0.89668624  1
  Zr  Zr9  1  0.89923525  0.89385758  0.29362627  1
  Zr  Zr10  1  0.70204644  0.49776726  0.70298076  1
  Zr  Zr11  1  0.70133867  0.09542028  0.09951375  1
  Zr  Zr12  1  0.09622769  0.30106953  0.69485901  1
  Zr  Zr13  1  0.89642040  0.89704433  0.90745109  1
  Zr  Zr14  1  0.90057250  0.30882979  0.90526870  1
  Zr  Zr15  1  0.09985663  0.69294539  0.49679329  1
  Zr  Zr16  1  0.90164297  0.29239822  0.49886162  1
  Zr  Zr17  1  0.09235088  0.30352825  0.09510937  1
  Zr  Zr18  1  0.69342095  0.30906757  0.88570509  1
  Zr  Zr19  1  0.09721781  0.69360731  0.09302482  1
  Zr  Zr20  1  0.09867195  0.30250194  0.50225754  1
  Zr  Zr21  1  0.30321344  0.49569575  0.50212658  1
  Zr  Zr22  1  0.29574380  0.89393864  0.30167998  1
  Zr  Zr23  1  0.69091064  0.89785306  0.70369635  1
  Zr  Zr24  1  0.10232357  0.49888253  0.50016624  1
  Zr  Zr25  1  0.29899942  0.89739491  0.89443596  1
  Zr  Zr26  1  0.29972680  0.10683257  0.09100582  1
  Zr  Zr27  1  0.70288844  0.70369880  0.88915949  1
  Zr  Zr28  1  0.89373128  0.69860048  0.69792861  1
  Zr  Zr29  1  0.69174582  0.09387192  0.90466429  1
  Zr  Zr30  1  0.89326624  0.70014700  0.30392182  1
  Zr  Zr31  1  0.49868187  0.50232250  0.30552302  1
  Zr  Zr32  1  0.09728526  0.30619148  0.30224625  1
  Zr  Zr33  1  0.29649440  0.90328556  0.70219426  1
  Zr  Zr34  1  0.30288264  0.30834918  0.29804357  1
  Zr  Zr35  1  0.29572566  0.70557258  0.30391584  1
  Zr  Zr36  1  0.31117670  0.29658166  0.68795899  1
  Zr  Zr37  1  0.51283360  0.29582558  0.29118782  1
  Zr  Zr38  1  0.30115433  0.69930212  0.90084729  1
  Zr  Zr39  1  0.30187005  0.69939981  0.49820378  1
  Zr  Zr40  1  0.70392695  0.30170274  0.30742331  1
  Zr  Zr41  1  0.50475214  0.09652617  0.30102547  1
  Zr  Zr42  1  0.09575934  0.69794977  0.29926500  1
  Zr  Zr43  1  0.29910448  0.10117496  0.69983128  1
  Zr  Zr44  1  0.68927867  0.11187648  0.30784158  1
  Zr  Zr45  1  0.10257207  0.49831345  0.68963266  1
  Zr  Zr46  1  0.29198693  0.49307220  0.30056845  1
  Zr  Zr47  1  0.69994569  0.50110589  0.29595007  1
  Zr  Zr48  1  0.50319478  0.69697339  0.30073749  1
  Zr  Zr49  1  0.50191999  0.68874509  0.89653845  1
  Sc  Sc50  1  0.10052954  0.09880866  0.69332649  1
  Sc  Sc51  1  0.30076147  0.10146199  0.89475714  1
  Sc  Sc52  1  0.10610183  0.89874336  0.30215150  1
  Sc  Sc53  1  0.69289130  0.50574177  0.89477661  1
  Sc  Sc54  1  0.29384348  0.88779871  0.10303890  1
  Sc  Sc55  1  0.49820219  0.10551784  0.89709828  1
  Sc  Sc56  1  0.69633771  0.10026832  0.49876549  1
  Sc  Sc57  1  0.50476196  0.49773871  0.09094457  1
  Sc  Sc58  1  0.29855673  0.90124104  0.49653327  1
  Sc  Sc59  1  0.30288496  0.50179766  0.91061793  1
  Sc  Sc60  1  0.90632184  0.70833999  0.10338272  1
  Sc  Sc61  1  0.30177152  0.30267564  0.50457168  1
  Sc  Sc62  1  0.29342896  0.09021920  0.30130320  1
  Sc  Sc63  1  0.68935079  0.31557043  0.11607392  1
  Sc  Sc64  1  0.30941740  0.29824222  0.91795248  1
  Sc  Sc65  1  0.49700636  0.30356797  0.51970031  1
  Sc  Sc66  1  0.90582697  0.70610334  0.90256392  1
  Sc  Sc67  1  0.90416052  0.12064367  0.89677037  1
  Sc  Sc68  1  0.09729657  0.09818568  0.49929754  1
  Sc  Sc69  1  0.69973433  0.50770221  0.10921188  1
  Sc  Sc70  1  0.49574210  0.90310772  0.69827079  1
  Sc  Sc71  1  0.09778286  0.09229784  0.29585268  1
  Sc  Sc72  1  0.71097740  0.69250087  0.50231686  1
  Sc  Sc73  1  0.70165247  0.29602238  0.50428536  1
  Sc  Sc74  1  0.31092467  0.70278269  0.69745563  1
  Sc  Sc75  1  0.50430423  0.69555247  0.10072299  1
  Sc  Sc76  1  0.09457189  0.89273771  0.10941038  1
  Sc  Sc77  1  0.90475947  0.49810888  0.50205781  1
  Sc  Sc78  1  0.30089835  0.10057233  0.50516982  1
  Sc  Sc79  1  0.09691464  0.50253355  0.30444531  1
  Sc  Sc80  1  0.70247925  0.69493983  0.70124593  1
  Sc  Sc81  1  0.50057265  0.89359842  0.30194881  1
  Sc  Sc82  1  0.50499582  0.50710432  0.69283199  1
  Sc  Sc83  1  0.89995436  0.09943261  0.30759449  1
  Sc  Sc84  1  0.50617714  0.88826596  0.10303414  1
  Sc  Sc85  1  0.09997246  0.49441645  0.91483806  1
  Sc  Sc86  1  0.70113338  0.49644496  0.51148881  1
  Sc  Sc87  1  0.08587037  0.29679456  0.90397356  1
  Sc  Sc88  1  0.89869358  0.90091756  0.68486032  1
  Sc  Sc89  1  0.90129150  0.49075343  0.69875055  1
  Sc  Sc90  1  0.50641518  0.10095520  0.09313749  1
  Sc  Sc91  1  0.90374526  0.30579658  0.30434114  1
  Sc  Sc92  1  0.90235788  0.09723210  0.10662497  1
  Sc  Sc93  1  0.29414025  0.69598647  0.09613134  1
  Sc  Sc94  1  0.49935696  0.10533617  0.69468622  1
  Sc  Sc95  1  0.89744839  0.50163860  0.30051246  1
  Sc  Sc96  1  0.70638499  0.88989538  0.29707369  1
  Sc  Sc97  1  0.70050109  0.90532731  0.50113098  1
  Sc  Sc98  1  0.89774210  0.49544856  0.10230164  1
  Sc  Sc99  1  0.50468450  0.91381288  0.49961664  1
  Nb  Nb100  1  0.70050819  0.90335578  0.90314493  1
  Nb  Nb101  1  0.50874169  0.30147634  0.70918627  1
  Nb  Nb102  1  0.50633662  0.50576248  0.49912553  1
  Nb  Nb103  1  0.09764494  0.10218882  0.90039924  1
  Nb  Nb104  1  0.49420806  0.29996284  0.09268459  1
  Nb  Nb105  1  0.70900962  0.90282123  0.09266454  1
  Nb  Nb106  1  0.89517456  0.90173308  0.10105082  1
  Nb  Nb107  1  0.10011243  0.69767541  0.89709563  1
  Nb  Nb108  1  0.50663074  0.09834483  0.48854080  1
  Nb  Nb109  1  0.68705465  0.29590828  0.69779072  1
  Nb  Nb110  1  0.50423044  0.70045899  0.69800810  1
  Nb  Nb111  1  0.89511084  0.10113240  0.70052407  1
  Nb  Nb112  1  0.30199284  0.30460631  0.10274850  1
  Nb  Nb113  1  0.50602725  0.68666092  0.49961133  1
  Nb  Nb114  1  0.69580813  0.70013707  0.10272126  1
  Nb  Nb115  1  0.90049570  0.28489315  0.70790061  1
  Nb  Nb116  1  0.89987961  0.70670283  0.49794097  1
  Nb  Nb117  1  0.89517127  0.30041165  0.09963379  1
  Nb  Nb118  1  0.49916414  0.49897756  0.89686001  1
  Nb  Nb119  1  0.50204622  0.30932335  0.90315510  1
  Nb  Nb120  1  0.70068325  0.10749877  0.70293649  1
  Nb  Nb121  1  0.89665783  0.09254636  0.50769224  1
  Nb  Nb122  1  0.10979862  0.50174677  0.09958016  1
  Nb  Nb123  1  0.28847436  0.48853942  0.10221876  1
  Nb  Nb124  1  0.10036204  0.10266945  0.09385040  1
  Nb  Nb125  1  0.20614978  0.39592545  0.80170381  1
  Nb  Nb126  1  0.59681082  0.40362143  0.40495536  1
  Nb  Nb127  1  0.60219474  0.21436162  -0.00227757  1
  Nb  Nb128  1  0.61245429  0.80011810  -0.00372396  1
  Nb  Nb129  1  0.79278072  0.21137608  0.00664142  1
  Nb  Nb130  1  0.79594434  0.60698410  0.00141768  1
  Nb  Nb131  1  0.79872107  0.20489699  0.19947115  1
  Nb  Nb132  1  0.60030201  0.78925530  0.40697278  1
  Nb  Nb133  1  0.20062193  0.20481541  0.19643705  1
  Nb  Nb134  1  0.39635899  -0.00613046  0.00231775  1
  Nb  Nb135  1  0.40539365  0.39942862  0.80302866  1
  Nb  Nb136  1  0.59507553  0.79162560  0.59647948  1
  Nb  Nb137  1  0.39741969  0.19988700  0.19859510  1
  Nb  Nb138  1  0.00456734  0.00142456  -0.00290855  1
  Nb  Nb139  1  0.19909437  0.20744788  0.79935560  1
  Nb  Nb140  1  0.19497024  0.00125706  -0.00216078  1
  Nb  Nb141  1  -0.00644781  0.00404040  0.80075739  1
  Nb  Nb142  1  0.20286398  0.20351343  0.39423790  1
  Nb  Nb143  1  0.40234591  0.19969802  0.39662738  1
  Nb  Nb144  1  0.40184925  0.00054486  0.19480392  1
  Nb  Nb145  1  0.19622934  0.59791618  0.80274805  1
  Nb  Nb146  1  0.39297201  0.59299300  0.20086382  1
  Nb  Nb147  1  0.60287101  -0.00377293  0.19838174  1
  Nb  Nb148  1  0.80010675  0.00547720  0.79868975  1
  Nb  Nb149  1  0.00714371  0.60097058  0.80135617  1
  Pd  Pd150  1  0.39161583  0.59830636  0.39493557  1
  Pd  Pd151  1  -0.00635339  0.60113816  0.60326516  1
  Pd  Pd152  1  0.81503232  0.01456453  -0.00902707  1
  Pd  Pd153  1  0.40015225  0.59861535  0.60027676  1
  Pd  Pd154  1  0.59886326  0.00812082  0.79112279  1
  Pd  Pd155  1  0.60784244  0.40338045  0.00139797  1
  Pd  Pd156  1  0.00019474  0.40788390  0.19852257  1
  Pd  Pd157  1  0.39851029  0.79394383  0.19465463  1
  Pd  Pd158  1  0.00343699  0.19302219  0.39929512  1
  Pd  Pd159  1  -0.00097652  0.19221882  0.59976986  1
  Pd  Pd160  1  0.41040644  0.80080391  0.00093277  1
  Pd  Pd161  1  -0.00206039  0.79834964  0.59762186  1
  Pd  Pd162  1  0.80162106  0.59241492  0.40600724  1
  Pd  Pd163  1  0.39729423  0.20954965  0.80449222  1
  Pd  Pd164  1  -0.00051393  -0.00202853  0.39955631  1
  Pd  Pd165  1  0.39518150  0.00182827  0.39541715  1
  Pd  Pd166  1  0.40506526  0.00139307  0.80451995  1
  Pd  Pd167  1  -0.00845038  0.59408524  -0.00272342  1
  Pd  Pd168  1  0.80670012  0.59571897  0.59821226  1
  Pd  Pd169  1  0.39681763  0.59391505  0.01076812  1
  Pd  Pd170  1  -0.00238218  0.19904109  0.20005984  1
  Pd  Pd171  1  0.00797369  0.40724662  0.80140039  1
  Pd  Pd172  1  -0.00490355  0.59540890  0.19892475  1
  Pd  Pd173  1  0.78641199  0.40570365  0.00635179  1
  Pd  Pd174  1  0.80137814  0.39269348  0.78829833  1
  Pd  Pd175  1  0.19242970  0.80325966  0.00113064  1
  Pd  Pd176  1  0.59681402  0.19347975  0.59685727  1
  Pd  Pd177  1  0.20046369  0.00161111  0.59385056  1
  Pd  Pd178  1  0.79215648  0.20012327  0.80693290  1
  Pd  Pd179  1  0.00037377  -0.00322879  0.19671000  1
  Pd  Pd180  1  0.00238274  0.80157243  0.39699063  1
  Pd  Pd181  1  0.80513045  0.81077290  0.79300898  1
  Pd  Pd182  1  0.79894193  0.20050725  0.59896792  1
  Pd  Pd183  1  0.41064510  0.39119956  0.40765323  1
  Pd  Pd184  1  0.20293896  0.60186135  0.20218366  1
  Pd  Pd185  1  0.41000715  0.80473272  0.59012854  1
  Pd  Pd186  1  0.19568544  0.20527596  -0.00444823  1
  Pd  Pd187  1  0.40495247  0.79911867  0.79791284  1
  Pd  Pd188  1  0.79428593  0.00750598  0.21188634  1
  Pd  Pd189  1  0.79728641  0.79089709  0.00558353  1
  Pd  Pd190  1  0.80371602  0.38594061  0.60749483  1
  Pd  Pd191  1  0.20406599  0.00334170  0.18989932  1
  Pd  Pd192  1  0.40883143  0.40382951  0.19216818  1
  Pd  Pd193  1  0.79405417  0.00342478  0.39320615  1
  Pd  Pd194  1  0.41203985  0.80286486  0.41110751  1
  Pd  Pd195  1  -0.00820967  0.80086344  0.79356318  1
  Pd  Pd196  1  0.20436936  0.79941465  0.59602447  1
  Pd  Pd197  1  0.79009464  0.00242396  0.60588009  1
  Pd  Pd198  1  0.79625015  0.40511873  0.40556824  1
  Pd  Pd199  1  0.40235717  0.00392436  0.59753021  1
  Rh  Rh200  1  -0.00427265  0.00284800  0.60294130  1
  Rh  Rh201  1  -0.00226056  0.40549919  0.40293785  1
  Rh  Rh202  1  0.60149203  0.19483982  0.18494720  1
  Rh  Rh203  1  0.59246777  0.41046669  0.20489410  1
  Rh  Rh204  1  0.60074362  0.00319660  0.60349177  1
  Rh  Rh205  1  0.19229511  0.80147181  0.40624998  1
  Rh  Rh206  1  0.59611263  0.79645930  0.79790541  1
  Rh  Rh207  1  0.79151370  0.80030607  0.59795729  1
  Rh  Rh208  1  0.20281930  0.59699823  0.40128904  1
  Rh  Rh209  1  -0.00747439  0.60154602  0.40331960  1
  Rh  Rh210  1  0.60045819  0.40229042  0.60049667  1
  Rh  Rh211  1  -0.00040965  0.79998214  0.20210601  1
  Rh  Rh212  1  0.59702758  0.59841553  0.79377897  1
  Rh  Rh213  1  0.60921438  0.60578966  -0.00402603  1
  Rh  Rh214  1  0.20167207  0.59863822  -0.00381310  1
  Rh  Rh215  1  0.79313301  0.79701759  0.40443578  1
  Rh  Rh216  1  0.41043002  0.19591755  0.00130763  1
  Rh  Rh217  1  0.40833208  0.18895433  0.58995986  1
  Rh  Rh218  1  0.20412283  0.39725631  0.60125399  1
  Rh  Rh219  1  -0.01158307  0.39058308  0.60037380  1
  Rh  Rh220  1  0.81150729  0.60222590  0.80605077  1
  Rh  Rh221  1  0.00910101  0.19432644  0.79057950  1
  Rh  Rh222  1  0.40960337  0.40874000  0.60780001  1
  Rh  Rh223  1  0.20793566  0.60590519  0.60180469  1
  Rh  Rh224  1  0.80744611  0.19531769  0.40069422  1
  Rh  Rh225  1  0.19711925  0.00359448  0.40526776  1
  Rh  Rh226  1  0.20988644  0.78776507  0.79479510  1
  Rh  Rh227  1  0.80824236  0.60661772  0.18978199  1
  Rh  Rh228  1  -0.01073166  0.19494648  0.00949253  1
  Rh  Rh229  1  0.39995458  0.59383354  0.79880294  1
  Rh  Rh230  1  0.19830653  0.20116102  0.59751425  1
  Rh  Rh231  1  0.60818386  -0.01458204  0.38982812  1
  Rh  Rh232  1  0.19910522  0.39323560  -0.00220827  1
  Rh  Rh233  1  0.58873048  0.59578156  0.19620385  1
  Rh  Rh234  1  0.18710368  0.39577174  0.19604152  1
  Rh  Rh235  1  0.59250470  0.41072642  0.79274416  1
  Rh  Rh236  1  0.19130692  0.01327544  0.80352178  1
  Rh  Rh237  1  0.00477956  0.80907111  0.00449818  1
  Rh  Rh238  1  0.19331431  0.78960499  0.19926058  1
  Rh  Rh239  1  0.61024119  0.80513998  0.19723854  1
  Rh  Rh240  1  0.58882666  0.21675728  0.41607170  1
  Rh  Rh241  1  0.19630614  0.39712031  0.40612140  1
  Rh  Rh242  1  0.61338413  0.59617472  0.40518515  1
  Rh  Rh243  1  -0.00243497  0.40815582  0.00764608  1
  Rh  Rh244  1  0.80541914  0.39512427  0.20437745  1
  Rh  Rh245  1  0.60691867  0.60388074  0.60340353  1
  Rh  Rh246  1  0.58930968  -0.01147174  0.00852897  1
  Rh  Rh247  1  0.80018313  0.79681672  0.19288553  1
  Rh  Rh248  1  0.59762613  0.19733629  0.80502412  1
  Rh  Rh249  1  0.39925248  0.40786418  -0.00000898  1
