# generated using pymatgen
data_ZrScNbPdRh
_symmetry_space_group_name_H-M   'P 1'
_cell_length_a   16.55898893
_cell_length_b   16.55730500
_cell_length_c   16.56131621
_cell_angle_alpha   89.98464938
_cell_angle_beta   90.01684069
_cell_angle_gamma   89.99287163
_symmetry_Int_Tables_number   1
_chemical_formula_structural   ZrScNbPdRh
_chemical_formula_sum   'Zr50 Sc50 Nb50 Pd50 Rh50'
_cell_volume   4540.65260524
_cell_formula_units_Z   50
loop_
 _symmetry_equiv_pos_site_id
 _symmetry_equiv_pos_as_xyz
  1  'x, y, z'
loop_
 _atom_site_type_symbol
 _atom_site_label
 _atom_site_symmetry_multiplicity
 _atom_site_fract_x
 _atom_site_fract_y
 _atom_site_fract_z
 _atom_site_occupancy
  Zr  Zr0  1  0.30078325  0.90255177  0.29706213  1
  Zr  Zr1  1  0.89707721  0.30894812  0.49702632  1
  Zr  Zr2  1  0.70212656  0.70034543  0.71151908  1
  Zr  Zr3  1  0.11308378  0.90500996  0.70323175  1
  Zr  Zr4  1  0.30073349  0.89615705  0.89524237  1
  Zr  Zr5  1  0.30075786  0.70360197  0.70846984  1
  Zr  Zr6  1  0.09971026  0.90583228  0.29581090  1
  Zr  Zr7  1  0.69042055  0.29498102  0.89956141  1
  Zr  Zr8  1  0.50835696  0.68977654  0.90613888  1
  Zr  Zr9  1  0.10663567  0.10195059  0.50799933  1
  Zr  Zr10  1  0.89868384  0.49294477  0.30027439  1
  Zr  Zr11  1  0.49859776  0.69418705  0.10335154  1
  Zr  Zr12  1  0.29742471  0.10726499  0.50175800  1
  Zr  Zr13  1  0.09433169  0.50685100  0.09295194  1
  Zr  Zr14  1  0.49383604  0.10247911  0.49473755  1
  Zr  Zr15  1  0.30167683  0.70462830  0.09490240  1
  Zr  Zr16  1  0.50224651  0.50404383  0.09755050  1
  Zr  Zr17  1  0.70758129  0.10383187  0.48968047  1
  Zr  Zr18  1  0.10081077  0.89560933  0.49545932  1
  Zr  Zr19  1  0.70302793  0.09588903  0.30102983  1
  Zr  Zr20  1  0.70113668  0.10096738  0.90105582  1
  Zr  Zr21  1  0.89791621  0.10277208  0.50640763  1
  Zr  Zr22  1  0.10009697  0.71260142  0.31055052  1
  Zr  Zr23  1  0.10382903  0.29576276  0.89204299  1
  Zr  Zr24  1  0.30136571  0.10564124  0.89575720  1
  Zr  Zr25  1  0.69708538  0.89172910  0.29278813  1
  Zr  Zr26  1  0.89769552  0.09953520  0.89567354  1
  Zr  Zr27  1  0.09851459  0.29212380  0.09930251  1
  Zr  Zr28  1  0.69321953  0.51115831  0.89744957  1
  Zr  Zr29  1  0.90515506  0.10013940  0.69946105  1
  Zr  Zr30  1  0.50756563  0.69898243  0.49345637  1
  Zr  Zr31  1  0.90754040  0.69865324  0.09717995  1
  Zr  Zr32  1  0.30560549  0.49816910  0.49925147  1
  Zr  Zr33  1  0.30900387  0.90701093  0.09586533  1
  Zr  Zr34  1  0.29021681  0.49902812  0.70044710  1
  Zr  Zr35  1  0.89823933  0.29551271  0.89588522  1
  Zr  Zr36  1  0.10379941  0.10097374  0.10230159  1
  Zr  Zr37  1  0.09700565  0.70612027  0.50167658  1
  Zr  Zr38  1  0.89408877  0.69881724  0.29372888  1
  Zr  Zr39  1  0.48968221  0.89732085  0.89655630  1
  Zr  Zr40  1  0.30311543  0.49784988  0.10906779  1
  Zr  Zr41  1  0.90625404  0.89643211  0.29518802  1
  Zr  Zr42  1  0.29690178  0.09439152  0.69936594  1
  Zr  Zr43  1  0.49555843  0.10029016  0.69789659  1
  Zr  Zr44  1  0.90233789  0.29693438  0.69879892  1
  Zr  Zr45  1  0.30528695  0.69738503  0.30434645  1
  Zr  Zr46  1  0.50611643  0.11149213  0.29604621  1
  Zr  Zr47  1  0.48974257  0.50020952  0.29908583  1
  Zr  Zr48  1  0.90696873  0.09691490  0.09154027  1
  Zr  Zr49  1  0.70041918  0.31342562  0.69926658  1
  Sc  Sc50  1  0.89808380  0.49802856  0.10437480  1
  Sc  Sc51  1  0.68550415  0.09602293  0.08983895  1
  Sc  Sc52  1  0.10598959  0.69972200  0.91060255  1
  Sc  Sc53  1  0.49851846  0.48857626  0.70706128  1
  Sc  Sc54  1  0.09844419  0.30325997  0.69923024  1
  Sc  Sc55  1  0.09598191  0.29982675  0.29870141  1
  Sc  Sc56  1  0.70138510  0.49463839  0.09856659  1
  Sc  Sc57  1  0.30062133  0.30356644  0.29138125  1
  Sc  Sc58  1  0.69994290  0.50638608  0.29923417  1
  Sc  Sc59  1  0.51378444  0.70742498  0.71257410  1
  Sc  Sc60  1  0.30226526  0.29720996  0.70304822  1
  Sc  Sc61  1  0.69945399  0.29331213  0.30694569  1
  Sc  Sc62  1  0.09738879  0.10327219  0.89427179  1
  Sc  Sc63  1  0.90821211  0.89643370  0.09845168  1
  Sc  Sc64  1  0.70316461  0.30158243  0.09607029  1
  Sc  Sc65  1  0.70516415  0.90701405  0.89946032  1
  Sc  Sc66  1  0.29571670  0.09639038  0.30119916  1
  Sc  Sc67  1  0.88525651  0.70636700  0.69717296  1
  Sc  Sc68  1  0.50240556  0.49058750  0.49100499  1
  Sc  Sc69  1  0.09671173  0.70417804  0.09272588  1
  Sc  Sc70  1  0.10217640  0.29831133  0.50361574  1
  Sc  Sc71  1  0.51176482  0.69789845  0.29990696  1
  Sc  Sc72  1  0.89759780  0.09316125  0.31131903  1
  Sc  Sc73  1  0.10722586  0.70074171  0.69798200  1
  Sc  Sc74  1  0.50122423  0.29709282  0.71005723  1
  Sc  Sc75  1  0.08984885  0.49251706  0.29849353  1
  Sc  Sc76  1  0.50631901  0.11053938  0.89903220  1
  Sc  Sc77  1  0.88687125  0.48940791  0.70228765  1
  Sc  Sc78  1  0.70391072  0.69302712  0.50309944  1
  Sc  Sc79  1  0.29534124  0.69789018  0.49351171  1
  Sc  Sc80  1  0.10551305  0.89411628  0.90372118  1
  Sc  Sc81  1  0.90078078  0.30778967  0.29689315  1
  Sc  Sc82  1  0.09556883  0.90022895  0.10035898  1
  Sc  Sc83  1  0.89834852  0.90495761  0.90122107  1
  Sc  Sc84  1  0.50130539  0.89676771  0.30476889  1
  Sc  Sc85  1  0.10322011  0.10000240  0.29842465  1
  Sc  Sc86  1  0.89056839  0.89828048  0.69805402  1
  Sc  Sc87  1  0.90141297  0.30231100  0.10120285  1
  Sc  Sc88  1  0.10338689  0.10213387  0.69904954  1
  Sc  Sc89  1  0.30690654  0.91274010  0.49197784  1
  Sc  Sc90  1  0.89177837  0.69637022  0.89832774  1
  Sc  Sc91  1  0.69905066  0.90308150  0.50062824  1
  Sc  Sc92  1  0.30333611  0.29643543  0.49972368  1
  Sc  Sc93  1  0.49880282  0.90645627  0.10065274  1
  Sc  Sc94  1  0.89150314  0.50438964  0.90247663  1
  Sc  Sc95  1  0.69614571  0.69781656  0.11899500  1
  Sc  Sc96  1  0.10200518  0.49666437  0.50772383  1
  Sc  Sc97  1  0.50569606  0.90537066  0.50160145  1
  Sc  Sc98  1  0.89958686  0.90015970  0.50287220  1
  Sc  Sc99  1  0.70412007  0.10411458  0.69604334  1
  Nb  Nb100  1  0.70065476  0.50287623  0.69694525  1
  Nb  Nb101  1  0.29642057  0.29435767  0.09034823  1
  Nb  Nb102  1  0.49749983  0.49884461  0.90667110  1
  Nb  Nb103  1  0.69155747  0.88783384  0.70173381  1
  Nb  Nb104  1  0.30445874  0.70823737  0.90265849  1
  Nb  Nb105  1  0.70593824  0.49565697  0.51059870  1
  Nb  Nb106  1  0.89788944  0.69997906  0.50468359  1
  Nb  Nb107  1  0.69444227  0.30401522  0.49975454  1
  Nb  Nb108  1  0.10055587  0.50299971  0.70634525  1
  Nb  Nb109  1  0.30899415  0.89999513  0.71134419  1
  Nb  Nb110  1  0.50251388  0.30197054  0.30326938  1
  Nb  Nb111  1  0.69847621  0.70270595  0.89646590  1
  Nb  Nb112  1  0.49112224  0.10453123  0.09769277  1
  Nb  Nb113  1  0.30378508  0.10277665  0.09590892  1
  Nb  Nb114  1  0.69507818  0.70338196  0.30370029  1
  Nb  Nb115  1  0.49805125  0.30449008  0.89897351  1
  Nb  Nb116  1  0.50430474  0.29961274  0.48310517  1
  Nb  Nb117  1  0.49439630  0.29071822  0.10301889  1
  Nb  Nb118  1  0.50104012  0.90074676  0.70173004  1
  Nb  Nb119  1  0.29784280  0.50002530  0.30214828  1
  Nb  Nb120  1  0.70047066  0.89896462  0.09855572  1
  Nb  Nb121  1  0.10492029  0.49726775  0.89398902  1
  Nb  Nb122  1  0.29469798  0.49738290  0.89806930  1
  Nb  Nb123  1  0.89451549  0.50475923  0.49937868  1
  Nb  Nb124  1  0.29732080  0.29840473  0.89971721  1
  Nb  Nb125  1  0.40104853  0.80057063  0.60635286  1
  Nb  Nb126  1  0.20447582  0.79855629  0.20082812  1
  Nb  Nb127  1  -0.00959362  0.59986971  0.40901433  1
  Nb  Nb128  1  0.79950979  0.19035425  0.19899535  1
  Nb  Nb129  1  0.40657972  0.60410599  0.60711993  1
  Nb  Nb130  1  0.59822465  -0.00428297  0.79208979  1
  Nb  Nb131  1  0.59020640  0.39194486  0.20184875  1
  Nb  Nb132  1  0.79954380  0.79270677  0.39677389  1
  Nb  Nb133  1  0.20081477  0.60276053  0.20501687  1
  Nb  Nb134  1  -0.00198006  0.19964718  0.40751333  1
  Nb  Nb135  1  0.79742191  -0.00038575  0.19400102  1
  Nb  Nb136  1  0.00746005  0.40078303  -0.00826357  1
  Nb  Nb137  1  0.20440053  0.40377369  0.39717085  1
  Nb  Nb138  1  0.79134682  0.79797426  0.00508818  1
  Nb  Nb139  1  0.60115752  0.59107306  0.60319280  1
  Nb  Nb140  1  -0.00719370  0.59811519  0.60354799  1
  Nb  Nb141  1  0.60626688  0.79909951  0.00152488  1
  Nb  Nb142  1  0.20802175  0.00665069  0.00218658  1
  Nb  Nb143  1  0.00106693  0.79435286  0.79860751  1
  Nb  Nb144  1  0.59973839  0.20774218  0.58909446  1
  Nb  Nb145  1  0.39722935  0.59550793  0.80715846  1
  Nb  Nb146  1  0.39811107  0.39364411  -0.00343512  1
  Nb  Nb147  1  0.21229246  0.80849075  0.60246370  1
  Nb  Nb148  1  0.00348612  0.59823424  0.79429927  1
  Nb  Nb149  1  0.20323920  0.39775938  -0.00371477  1
  Pd  Pd150  1  0.19738036  0.00214086  0.40098355  1
  Pd  Pd151  1  0.20645614  0.59651122  0.00283821  1
  Pd  Pd152  1  0.59719503  -0.00110506  0.19882185  1
  Pd  Pd153  1  -0.00511542  0.40692158  0.80376580  1
  Pd  Pd154  1  0.79239560  -0.00386736  0.79029498  1
  Pd  Pd155  1  0.79049018  0.40040763  0.39585729  1
  Pd  Pd156  1  0.40543655  0.60093082  0.40489914  1
  Pd  Pd157  1  0.01037088  -0.00156494  -0.00724853  1
  Pd  Pd158  1  0.60874954  0.20558281  0.19252883  1
  Pd  Pd159  1  0.00362162  -0.00887820  0.79962381  1
  Pd  Pd160  1  0.39074083  0.20283701  0.38982718  1
  Pd  Pd161  1  0.79382313  0.20876602  0.59905630  1
  Pd  Pd162  1  0.40787264  0.39739321  0.59752934  1
  Pd  Pd163  1  0.80515124  0.39848356  -0.00520751  1
  Pd  Pd164  1  0.60254872  0.40553052  0.80478265  1
  Pd  Pd165  1  0.39204519  0.19842452  0.20544123  1
  Pd  Pd166  1  0.00839410  0.60515682  0.21000209  1
  Pd  Pd167  1  -0.01057289  0.19352575  0.21298718  1
  Pd  Pd168  1  0.18550651  0.58864023  0.39540359  1
  Pd  Pd169  1  0.39384677  0.40186232  0.80480036  1
  Pd  Pd170  1  0.20164034  0.60621721  0.59685778  1
  Pd  Pd171  1  0.79833646  0.60316187  0.39926156  1
  Pd  Pd172  1  0.60027926  0.79244562  0.59501513  1
  Pd  Pd173  1  0.79951477  0.19805786  0.00734439  1
  Pd  Pd174  1  0.19186321  0.40357055  0.19878799  1
  Pd  Pd175  1  0.40690634  0.00741962  0.20611421  1
  Pd  Pd176  1  0.38958002  0.59471829  -0.00557593  1
  Pd  Pd177  1  0.59756406  -0.00128901  0.39737361  1
  Pd  Pd178  1  0.58820160  0.39804729  0.59818176  1
  Pd  Pd179  1  -0.00154120  0.40755111  0.60067976  1
  Pd  Pd180  1  0.59312178  0.39325132  0.00751533  1
  Pd  Pd181  1  0.60906843  0.40897976  0.39110677  1
  Pd  Pd182  1  0.79256695  -0.00531717  0.60468396  1
  Pd  Pd183  1  0.00199142  -0.00508825  0.60307181  1
  Pd  Pd184  1  0.40333146  0.79820369  0.20246328  1
  Pd  Pd185  1  0.19973122  0.60965819  0.80815107  1
  Pd  Pd186  1  0.40102227  0.80248671  0.40830580  1
  Pd  Pd187  1  0.40492955  0.20269940  -0.00741743  1
  Pd  Pd188  1  0.59072286  -0.00513482  -0.00860363  1
  Pd  Pd189  1  0.20097429  0.39374282  0.59789010  1
  Pd  Pd190  1  0.60621534  0.00902162  0.60347579  1
  Pd  Pd191  1  0.79249188  0.60751391  0.01070148  1
  Pd  Pd192  1  0.00298374  0.00659908  0.40597284  1
  Pd  Pd193  1  0.79385352  0.20206054  0.79479200  1
  Pd  Pd194  1  0.79690888  0.59522189  0.19662685  1
  Pd  Pd195  1  0.00292408  0.79910650  0.61140773  1
  Pd  Pd196  1  0.40753745  0.21146795  0.60046931  1
  Pd  Pd197  1  0.40342849  0.39326852  0.19467100  1
  Pd  Pd198  1  0.20681001  0.19885783  0.20482867  1
  Pd  Pd199  1  0.39717459  -0.00738983  0.59979940  1
  Rh  Rh200  1  0.19344226  0.21008245  0.39590852  1
  Rh  Rh201  1  0.80369092  -0.00614243  0.00922986  1
  Rh  Rh202  1  0.79834384  0.59927762  0.60721497  1
  Rh  Rh203  1  0.41115456  0.79621100  0.00102754  1
  Rh  Rh204  1  -0.01391182  0.79567497  -0.01211299  1
  Rh  Rh205  1  0.80154257  0.80480555  0.19836397  1
  Rh  Rh206  1  0.40064844  0.01097875  -0.00555645  1
  Rh  Rh207  1  0.60301494  0.19453087  0.79040756  1
  Rh  Rh208  1  0.00336172  0.39906748  0.18513630  1
  Rh  Rh209  1  0.80163618  0.39744369  0.59846536  1
  Rh  Rh210  1  0.39647598  0.60435156  0.20524601  1
  Rh  Rh211  1  0.60268402  0.81186980  0.81456729  1
  Rh  Rh212  1  -0.01569341  0.79440038  0.40177920  1
  Rh  Rh213  1  0.60127430  0.19735793  0.40369568  1
  Rh  Rh214  1  0.59117290  0.80176885  0.19306425  1
  Rh  Rh215  1  0.20250699  0.20348395  0.60562830  1
  Rh  Rh216  1  0.78728098  0.39028476  0.20379778  1
  Rh  Rh217  1  0.00125308  0.20101692  0.59737146  1
  Rh  Rh218  1  0.20556605  0.81173210  0.00801325  1
  Rh  Rh219  1  0.60539346  0.59338410  0.40717852  1
  Rh  Rh220  1  0.80477562  0.80596596  0.81066412  1
  Rh  Rh221  1  0.20203284  -0.00453212  0.18873428  1
  Rh  Rh222  1  0.39958430  0.20035857  0.80133176  1
  Rh  Rh223  1  0.59998336  0.58942460  0.20403361  1
  Rh  Rh224  1  0.81013571  0.20975328  0.39539504  1
  Rh  Rh225  1  0.79043124  0.40197304  0.80966589  1
  Rh  Rh226  1  0.79997419  -0.01990494  0.39077023  1
  Rh  Rh227  1  0.21116150  0.81174148  0.40192603  1
  Rh  Rh228  1  0.19278531  0.79668866  0.80044910  1
  Rh  Rh229  1  0.19718569  0.19570738  -0.00205230  1
  Rh  Rh230  1  0.00896288  0.40037872  0.41013742  1
  Rh  Rh231  1  0.20043990  0.20100971  0.79191296  1
  Rh  Rh232  1  0.20304264  0.39274205  0.79724605  1
  Rh  Rh233  1  0.40854265  0.78844168  0.79934689  1
  Rh  Rh234  1  0.59391756  0.20470511  0.00326044  1
  Rh  Rh235  1  0.40732163  0.00596200  0.39174779  1
  Rh  Rh236  1  0.78909633  0.80275403  0.59112879  1
  Rh  Rh237  1  0.20050917  0.00307646  0.80955160  1
  Rh  Rh238  1  0.80404537  0.59708520  0.79571959  1
  Rh  Rh239  1  0.40746637  0.00894557  0.80346854  1
  Rh  Rh240  1  0.20843692  -0.00593989  0.59946754  1
  Rh  Rh241  1  0.00107457  0.19727690  0.79443310  1
  Rh  Rh242  1  -0.00525694  0.00652919  0.20007304  1
  Rh  Rh243  1  0.39065618  0.39281377  0.39782500  1
  Rh  Rh244  1  0.01071920  0.79391925  0.19690147  1
  Rh  Rh245  1  0.60874652  0.80020906  0.40632170  1
  Rh  Rh246  1  -0.00202374  0.59247679  -0.01442065  1
  Rh  Rh247  1  -0.00031238  0.20519571  -0.00815070  1
  Rh  Rh248  1  0.61249634  0.60756135  0.00883523  1
  Rh  Rh249  1  0.59226036  0.58790624  0.79249147  1
