# generated using pymatgen
data_ZrScNbPdRh
_symmetry_space_group_name_H-M   'P 1'
_cell_length_a   16.56058389
_cell_length_b   16.55894557
_cell_length_c   16.56445912
_cell_angle_alpha   90.01767214
_cell_angle_beta   89.97643591
_cell_angle_gamma   89.99723446
_symmetry_Int_Tables_number   1
_chemical_formula_structural   ZrScNbPdRh
_chemical_formula_sum   'Zr50 Sc50 Nb50 Pd50 Rh50'
_cell_volume   4542.40156781
_cell_formula_units_Z   50
loop_
 _symmetry_equiv_pos_site_id
 _symmetry_equiv_pos_as_xyz
  1  'x, y, z'
loop_
 _atom_site_type_symbol
 _atom_site_label
 _atom_site_symmetry_multiplicity
 _atom_site_fract_x
 _atom_site_fract_y
 _atom_site_fract_z
 _atom_site_occupancy
  Zr  Zr0  1  0.30233308  0.50370743  0.09534671  1
  Zr  Zr1  1  0.09220363  0.49425619  0.89506245  1
  Zr  Zr2  1  0.29342954  0.29998311  0.30505842  1
  Zr  Zr3  1  0.50092473  0.29822157  0.29901235  1
  Zr  Zr4  1  0.09940047  0.69331439  0.49539117  1
  Zr  Zr5  1  0.29915503  0.10280690  0.09827186  1
  Zr  Zr6  1  0.10224361  0.70293090  0.30355200  1
  Zr  Zr7  1  0.49208271  0.10438160  0.90118427  1
  Zr  Zr8  1  0.69796027  0.50025437  0.50621911  1
  Zr  Zr9  1  0.89855429  0.69575959  0.31118431  1
  Zr  Zr10  1  0.29527360  0.30427194  0.49989871  1
  Zr  Zr11  1  0.49888170  0.08811446  0.49642149  1
  Zr  Zr12  1  0.90612018  0.70182931  0.50371490  1
  Zr  Zr13  1  0.08536639  0.90170974  0.50965716  1
  Zr  Zr14  1  0.90504617  0.69533128  0.90577583  1
  Zr  Zr15  1  0.90827141  0.09000214  0.49260469  1
  Zr  Zr16  1  0.49999863  0.50039986  0.51244531  1
  Zr  Zr17  1  0.69798687  0.70050499  0.11349082  1
  Zr  Zr18  1  0.10228017  0.69999218  0.69628557  1
  Zr  Zr19  1  0.31263043  0.89200896  0.49550949  1
  Zr  Zr20  1  0.10124804  0.29989870  0.90827256  1
  Zr  Zr21  1  0.69117281  0.09906208  0.29615990  1
  Zr  Zr22  1  0.49558010  0.50434889  0.09710625  1
  Zr  Zr23  1  0.70933047  0.90195975  0.70094080  1
  Zr  Zr24  1  0.28922644  0.70985671  0.31032181  1
  Zr  Zr25  1  0.89994719  0.90492944  0.30380174  1
  Zr  Zr26  1  0.70278809  0.28929916  0.29331393  1
  Zr  Zr27  1  0.09696743  0.30719140  0.30210065  1
  Zr  Zr28  1  0.49967350  0.50368757  0.70338724  1
  Zr  Zr29  1  0.89791634  0.70231395  0.70536848  1
  Zr  Zr30  1  0.29832265  0.89604699  0.09630640  1
  Zr  Zr31  1  0.29553188  0.30157355  0.09318658  1
  Zr  Zr32  1  0.90377481  0.89268229  0.89193557  1
  Zr  Zr33  1  0.50232161  0.71150416  0.50333961  1
  Zr  Zr34  1  0.29917635  0.89285523  0.70336887  1
  Zr  Zr35  1  0.90742025  0.49251922  0.71047283  1
  Zr  Zr36  1  0.49617402  0.69475500  0.89226850  1
  Zr  Zr37  1  0.30202010  0.89634979  0.89464270  1
  Zr  Zr38  1  0.49994865  0.30502006  0.70203473  1
  Zr  Zr39  1  0.09839971  0.49956963  0.09365684  1
  Zr  Zr40  1  0.90333937  0.10065085  0.10018425  1
  Zr  Zr41  1  0.69873689  0.30013063  0.50408181  1
  Zr  Zr42  1  0.90687851  0.90276842  0.70196944  1
  Zr  Zr43  1  0.10821504  0.49922779  0.70285059  1
  Zr  Zr44  1  0.90496767  0.50483807  0.09695445  1
  Zr  Zr45  1  0.50955619  0.09644413  0.09755412  1
  Zr  Zr46  1  0.49473700  0.50335097  0.29371564  1
  Zr  Zr47  1  0.70398011  0.89716420  0.29449839  1
  Zr  Zr48  1  0.49241989  0.90086845  0.90045220  1
  Zr  Zr49  1  0.49145579  0.69937705  0.09771689  1
  Sc  Sc50  1  0.29062237  0.69868051  0.09234183  1
  Sc  Sc51  1  0.49789840  0.29871284  0.08542969  1
  Sc  Sc52  1  0.69879453  0.09895280  0.10736444  1
  Sc  Sc53  1  0.50401705  0.70503372  0.29577831  1
  Sc  Sc54  1  0.09654934  0.89806449  0.88754657  1
  Sc  Sc55  1  0.10392225  0.08828428  0.69702286  1
  Sc  Sc56  1  0.30362289  0.70532425  0.89955294  1
  Sc  Sc57  1  0.09643893  0.10601841  0.09684252  1
  Sc  Sc58  1  0.89380190  0.10198245  0.70814501  1
  Sc  Sc59  1  0.89601232  0.29762335  0.49336093  1
  Sc  Sc60  1  0.09434600  0.10302558  0.30330597  1
  Sc  Sc61  1  0.50576742  0.49222960  0.89175541  1
  Sc  Sc62  1  0.30073196  0.30196844  0.70027317  1
  Sc  Sc63  1  0.29485900  0.10097941  0.50887582  1
  Sc  Sc64  1  0.70612084  0.70117853  0.50434456  1
  Sc  Sc65  1  0.28771667  0.09824290  0.30007955  1
  Sc  Sc66  1  0.91128981  0.10174395  0.89936548  1
  Sc  Sc67  1  0.70647087  0.50718215  0.09747668  1
  Sc  Sc68  1  0.09688019  0.50633221  0.30606201  1
  Sc  Sc69  1  0.70662152  0.90031389  0.89731014  1
  Sc  Sc70  1  0.70535996  0.69954032  0.89912698  1
  Sc  Sc71  1  0.69654713  0.69646324  0.69846345  1
  Sc  Sc72  1  0.10024913  0.90353352  0.10350811  1
  Sc  Sc73  1  0.29583219  0.49765035  0.50547428  1
  Sc  Sc74  1  0.29822587  0.50244177  0.89784203  1
  Sc  Sc75  1  0.90334554  0.29338537  0.88757607  1
  Sc  Sc76  1  0.70635095  0.51265387  0.28649507  1
  Sc  Sc77  1  0.29830602  0.10468201  0.70580876  1
  Sc  Sc78  1  0.89136846  0.09853603  0.30039659  1
  Sc  Sc79  1  0.70847649  0.10913232  0.90700015  1
  Sc  Sc80  1  0.71162047  0.29844923  0.69505973  1
  Sc  Sc81  1  0.29730160  0.69953863  0.50669776  1
  Sc  Sc82  1  0.49615916  0.10499533  0.68993117  1
  Sc  Sc83  1  0.09931031  0.70157713  0.89962083  1
  Sc  Sc84  1  0.90263759  0.51017753  0.49762936  1
  Sc  Sc85  1  0.69360255  0.90000748  0.50186918  1
  Sc  Sc86  1  0.70061859  0.28833763  0.09525460  1
  Sc  Sc87  1  0.89666847  0.90198805  0.50044953  1
  Sc  Sc88  1  0.10764334  0.29846726  0.49031590  1
  Sc  Sc89  1  0.50270922  0.89991748  0.31897839  1
  Sc  Sc90  1  0.30203586  0.69467541  0.70231758  1
  Sc  Sc91  1  0.69137079  0.49499001  0.70060936  1
  Sc  Sc92  1  0.49994425  0.30006397  0.50783350  1
  Sc  Sc93  1  0.28939684  0.89679518  0.30072635  1
  Sc  Sc94  1  0.30538438  0.29153840  0.89680136  1
  Sc  Sc95  1  0.29828444  0.49850030  0.30322533  1
  Sc  Sc96  1  0.70144249  0.10204652  0.50171813  1
  Sc  Sc97  1  0.49774162  0.69375564  0.69605681  1
  Sc  Sc98  1  0.30003042  0.49800163  0.69703622  1
  Sc  Sc99  1  0.10674016  0.30612777  0.71059714  1
  Nb  Nb100  1  0.69356859  0.30390290  0.90033835  1
  Nb  Nb101  1  0.90271143  0.30707247  0.10169464  1
  Nb  Nb102  1  0.09690603  0.09797663  0.50074659  1
  Nb  Nb103  1  0.09472615  0.30800091  0.09653750  1
  Nb  Nb104  1  0.69398409  0.70205535  0.30415473  1
  Nb  Nb105  1  0.70011311  0.49868929  0.89852776  1
  Nb  Nb106  1  0.89860163  0.50104559  0.90257726  1
  Nb  Nb107  1  0.69705731  0.10360340  0.70401443  1
  Nb  Nb108  1  0.70083261  0.90212226  0.10339086  1
  Nb  Nb109  1  0.89847023  0.90138272  0.10782370  1
  Nb  Nb110  1  0.10429256  0.49940746  0.50356110  1
  Nb  Nb111  1  0.09705017  0.89637360  0.69978243  1
  Nb  Nb112  1  0.10127058  0.89297408  0.30322943  1
  Nb  Nb113  1  0.49927624  0.89529214  0.51045309  1
  Nb  Nb114  1  0.90693684  0.69986527  0.09430776  1
  Nb  Nb115  1  0.89933462  0.30929990  0.29127503  1
  Nb  Nb116  1  0.90026757  0.49011109  0.29626570  1
  Nb  Nb117  1  0.50344705  0.89605250  0.69349604  1
  Nb  Nb118  1  0.50265193  0.90360924  0.09750526  1
  Nb  Nb119  1  0.90528666  0.29722956  0.69439410  1
  Nb  Nb120  1  0.50118338  0.10176428  0.29698516  1
  Nb  Nb121  1  0.09335529  0.69741291  0.10441529  1
  Nb  Nb122  1  0.29943985  0.09789330  0.89757367  1
  Nb  Nb123  1  0.51018998  0.29604278  0.89738331  1
  Nb  Nb124  1  0.10068530  0.10085270  0.90134647  1
  Nb  Nb125  1  0.00180318  0.39472392  0.60016086  1
  Nb  Nb126  1  0.19601736  0.40025599  0.19393630  1
  Nb  Nb127  1  0.39871605  0.80839555  0.19739689  1
  Nb  Nb128  1  0.20030896  0.00507969  -0.01094324  1
  Nb  Nb129  1  0.60282548  0.20072398  0.79980821  1
  Nb  Nb130  1  0.60593520  0.40535080  0.39253324  1
  Nb  Nb131  1  0.00143858  0.20213348  0.59941139  1
  Nb  Nb132  1  0.80206051  0.40000571  -0.00756698  1
  Nb  Nb133  1  0.80199595  0.59101475  0.80601305  1
  Nb  Nb134  1  0.18960951  -0.00421773  0.40854683  1
  Nb  Nb135  1  0.80265246  0.80220494  0.01156701  1
  Nb  Nb136  1  0.79736297  0.40256937  0.39020395  1
  Nb  Nb137  1  0.40547591  -0.00139706  0.20160079  1
  Nb  Nb138  1  0.40490182  0.60301242  0.40314629  1
  Nb  Nb139  1  -0.00228307  0.79611175  0.19899891  1
  Nb  Nb140  1  0.60033417  0.00369209  0.79553513  1
  Nb  Nb141  1  0.40144714  0.19514433  0.20212037  1
  Nb  Nb142  1  0.40041701  0.19574233  0.39617033  1
  Nb  Nb143  1  0.59927211  0.40031842  0.19936460  1
  Nb  Nb144  1  0.80676214  -0.00906111  0.00775575  1
  Nb  Nb145  1  -0.00478640  0.21426806  0.19816536  1
  Nb  Nb146  1  0.59680540  0.80711682  0.80009959  1
  Nb  Nb147  1  0.60015055  0.59993201  0.39828600  1
  Nb  Nb148  1  0.60180894  0.80259347  0.00183464  1
  Nb  Nb149  1  0.60128255  0.60362638  -0.00244147  1
  Pd  Pd150  1  0.80885560  0.20351296  -0.00156444  1
  Pd  Pd151  1  0.00327236  -0.00717558  -0.00411512  1
  Pd  Pd152  1  0.18972779  0.20566215  0.60515353  1
  Pd  Pd153  1  0.60282388  0.00226941  0.60347911  1
  Pd  Pd154  1  0.79739866  0.39659428  0.80272442  1
  Pd  Pd155  1  0.79635573  0.80308743  0.40611269  1
  Pd  Pd156  1  0.61310931  -0.00145562  -0.00964303  1
  Pd  Pd157  1  0.39279771  0.00207167  0.00375516  1
  Pd  Pd158  1  0.19678206  -0.00158303  0.80210812  1
  Pd  Pd159  1  0.78940710  0.39887304  0.19166616  1
  Pd  Pd160  1  0.00537942  0.00248388  0.20578560  1
  Pd  Pd161  1  0.39948009  0.40135310  -0.01326469  1
  Pd  Pd162  1  0.80916233  0.19031723  0.59727072  1
  Pd  Pd163  1  0.59011920  0.80807704  0.19948658  1
  Pd  Pd164  1  0.39248559  -0.00111842  0.60714063  1
  Pd  Pd165  1  -0.00564494  0.40462888  0.41006351  1
  Pd  Pd166  1  0.19643785  0.19935365  0.79917816  1
  Pd  Pd167  1  0.39692331  0.39032563  0.19528071  1
  Pd  Pd168  1  0.19190245  0.20706874  0.19788054  1
  Pd  Pd169  1  0.19455202  0.60166086  -0.00878666  1
  Pd  Pd170  1  0.60705781  0.40684840  0.00847023  1
  Pd  Pd171  1  0.80139420  0.59254238  0.61329341  1
  Pd  Pd172  1  -0.00305564  0.60211033  0.20691083  1
  Pd  Pd173  1  0.20619131  -0.00857632  0.59677971  1
  Pd  Pd174  1  0.01158221  0.19445833  0.78942895  1
  Pd  Pd175  1  0.20063826  0.80098431  0.59810212  1
  Pd  Pd176  1  0.79848853  0.00917019  0.81152753  1
  Pd  Pd177  1  -0.00458905  0.20310585  0.39625395  1
  Pd  Pd178  1  0.81122085  0.60785229  0.20059918  1
  Pd  Pd179  1  0.39825057  0.20145510  0.59404046  1
  Pd  Pd180  1  0.60506824  -0.00377026  0.40140123  1
  Pd  Pd181  1  0.38844270  0.00563457  0.39300160  1
  Pd  Pd182  1  0.18802588  0.80620349  -0.00215636  1
  Pd  Pd183  1  0.00360206  0.80884809  0.00612471  1
  Pd  Pd184  1  0.19679389  -0.00014333  0.20015385  1
  Pd  Pd185  1  0.81174813  0.40571543  0.59221681  1
  Pd  Pd186  1  0.80198417  0.00595505  0.59779935  1
  Pd  Pd187  1  0.79448262  0.59413098  0.39923246  1
  Pd  Pd188  1  0.20426969  0.59615909  0.20164062  1
  Pd  Pd189  1  0.19801029  0.19622638  -0.00241704  1
  Pd  Pd190  1  0.40559627  0.00398053  0.78767462  1
  Pd  Pd191  1  0.20338320  0.60333012  0.80397860  1
  Pd  Pd192  1  0.80150273  0.80269206  0.59905950  1
  Pd  Pd193  1  0.38477377  0.61579093  0.21020081  1
  Pd  Pd194  1  0.59313770  0.20296003  0.40997786  1
  Pd  Pd195  1  0.80348376  0.20119637  0.39756132  1
  Pd  Pd196  1  0.39615213  0.39993643  0.80435812  1
  Pd  Pd197  1  0.80943304  0.79169838  0.20141685  1
  Pd  Pd198  1  0.40614724  0.40131576  0.40784751  1
  Pd  Pd199  1  0.00250678  0.59250002  0.60556432  1
  Rh  Rh200  1  0.00652225  -0.00370011  0.39334273  1
  Rh  Rh201  1  -0.00218008  0.20615288  0.00453522  1
  Rh  Rh202  1  0.40546998  0.79710097  0.79198868  1
  Rh  Rh203  1  0.39720539  0.59400137  0.79874789  1
  Rh  Rh204  1  0.79555686  0.78967568  0.80328087  1
  Rh  Rh205  1  -0.00766983  0.00911697  0.61036873  1
  Rh  Rh206  1  0.20684596  0.59554137  0.40722770  1
  Rh  Rh207  1  0.20452479  0.40229759  -0.00065720  1
  Rh  Rh208  1  0.60485609  0.79942431  0.60745555  1
  Rh  Rh209  1  0.00152444  0.39312244  0.80043248  1
  Rh  Rh210  1  0.40396994  0.79328558  0.39482155  1
  Rh  Rh211  1  -0.01148606  0.39415340  -0.00929557  1
  Rh  Rh212  1  0.20090327  0.59823575  0.59938979  1
  Rh  Rh213  1  0.19578665  0.79525606  0.19129332  1
  Rh  Rh214  1  0.40512110  0.20113173  0.79941940  1
  Rh  Rh215  1  0.40481839  0.59515684  -0.01106199  1
  Rh  Rh216  1  0.20819286  0.39718802  0.80746557  1
  Rh  Rh217  1  0.00848720  0.59897458  -0.00458961  1
  Rh  Rh218  1  -0.00079872  0.59372672  0.39874448  1
  Rh  Rh219  1  0.60016436  0.39360065  0.60296955  1
  Rh  Rh220  1  0.19296588  0.39728414  0.59943450  1
  Rh  Rh221  1  0.19855101  0.79603040  0.79720660  1
  Rh  Rh222  1  0.40003516  0.19980048  0.00017686  1
  Rh  Rh223  1  0.60179973  0.19387496  -0.00599747  1
  Rh  Rh224  1  0.79023978  -0.00142453  0.39952146  1
  Rh  Rh225  1  0.18911508  0.81017130  0.41708506  1
  Rh  Rh226  1  0.00646065  0.79308641  0.79372613  1
  Rh  Rh227  1  0.39661308  0.60078008  0.59571422  1
  Rh  Rh228  1  0.60658131  0.39119246  0.79328678  1
  Rh  Rh229  1  -0.00000861  0.80286748  0.39753154  1
  Rh  Rh230  1  0.60513508  0.79776731  0.40517814  1
  Rh  Rh231  1  0.79421467  0.60148139  -0.00426509  1
  Rh  Rh232  1  0.60158620  0.20031790  0.60599270  1
  Rh  Rh233  1  0.60176368  0.60592721  0.59494309  1
  Rh  Rh234  1  0.20512961  0.18730836  0.40613071  1
  Rh  Rh235  1  0.79427997  0.20457509  0.80064061  1
  Rh  Rh236  1  -0.00344881  0.79812911  0.60452738  1
  Rh  Rh237  1  0.60800279  0.60733773  0.80602269  1
  Rh  Rh238  1  0.19695805  0.40994927  0.39524470  1
  Rh  Rh239  1  0.79675460  0.00670092  0.19840150  1
  Rh  Rh240  1  0.39626466  0.39980739  0.60342747  1
  Rh  Rh241  1  0.40297402  0.79916246  0.00409795  1
  Rh  Rh242  1  0.00446501  0.00522817  0.79742635  1
  Rh  Rh243  1  0.39853852  0.79642625  0.60782062  1
  Rh  Rh244  1  0.00850059  0.40305823  0.19891249  1
  Rh  Rh245  1  0.80892691  0.19611412  0.19783601  1
  Rh  Rh246  1  -0.00202275  0.60339507  0.80085200  1
  Rh  Rh247  1  0.59428378  -0.00958465  0.20797126  1
  Rh  Rh248  1  0.59795118  0.59532646  0.19819123  1
  Rh  Rh249  1  0.59001130  0.20890706  0.18914105  1
