# generated using pymatgen
data_ZrScNbPdRh
_symmetry_space_group_name_H-M   'P 1'
_cell_length_a   16.55320289
_cell_length_b   16.55347118
_cell_length_c   16.55326279
_cell_angle_alpha   90.02212990
_cell_angle_beta   90.00623776
_cell_angle_gamma   89.96493363
_symmetry_Int_Tables_number   1
_chemical_formula_structural   ZrScNbPdRh
_chemical_formula_sum   'Zr50 Sc50 Nb50 Pd50 Rh50'
_cell_volume   4535.80743395
_cell_formula_units_Z   50
loop_
 _symmetry_equiv_pos_site_id
 _symmetry_equiv_pos_as_xyz
  1  'x, y, z'
loop_
 _atom_site_type_symbol
 _atom_site_label
 _atom_site_symmetry_multiplicity
 _atom_site_fract_x
 _atom_site_fract_y
 _atom_site_fract_z
 _atom_site_occupancy
  Zr  Zr0  1  0.49768498  0.30538908  0.49593313  1
  Zr  Zr1  1  0.50817388  0.09525390  0.89455341  1
  Zr  Zr2  1  0.90220415  0.29516169  0.49383368  1
  Zr  Zr3  1  0.49738160  0.09310702  0.69064367  1
  Zr  Zr4  1  0.30401773  0.50838628  0.90475376  1
  Zr  Zr5  1  0.10685824  0.09206789  0.89483264  1
  Zr  Zr6  1  0.49520665  0.30161808  0.69158665  1
  Zr  Zr7  1  0.29277920  0.90377607  0.10341080  1
  Zr  Zr8  1  0.70218730  0.70139013  0.50706118  1
  Zr  Zr9  1  0.69919215  0.10307509  0.71380330  1
  Zr  Zr10  1  0.09882887  0.69522125  0.30058952  1
  Zr  Zr11  1  0.89733187  0.69474062  0.10391286  1
  Zr  Zr12  1  0.70111309  0.30333462  0.70431009  1
  Zr  Zr13  1  0.10023335  0.29771357  0.10476723  1
  Zr  Zr14  1  0.09791408  0.50376867  0.29950174  1
  Zr  Zr15  1  0.69125002  0.48945692  0.90048323  1
  Zr  Zr16  1  0.90522763  0.29688571  0.09833444  1
  Zr  Zr17  1  0.09845159  0.29424212  0.69889030  1
  Zr  Zr18  1  0.90157135  0.10369744  0.09619487  1
  Zr  Zr19  1  0.09558987  0.70415012  0.70667333  1
  Zr  Zr20  1  0.50158651  0.31130655  0.90582647  1
  Zr  Zr21  1  0.90665825  0.89163269  0.70682505  1
  Zr  Zr22  1  0.71113499  0.91110197  0.30905913  1
  Zr  Zr23  1  0.10124377  0.51462762  0.90219176  1
  Zr  Zr24  1  0.69297238  0.29634352  0.30450150  1
  Zr  Zr25  1  0.90318373  0.49775464  0.09992643  1
  Zr  Zr26  1  0.30005249  0.29744203  0.90884988  1
  Zr  Zr27  1  0.10770167  0.50778167  0.69996824  1
  Zr  Zr28  1  0.09448349  0.89971640  0.28093959  1
  Zr  Zr29  1  0.50115957  0.70276512  0.50464346  1
  Zr  Zr30  1  0.49687768  0.48314589  0.30050114  1
  Zr  Zr31  1  0.30209215  0.69261163  0.70334229  1
  Zr  Zr32  1  0.69234188  0.08872265  0.49422307  1
  Zr  Zr33  1  0.49635252  0.69793123  0.89825538  1
  Zr  Zr34  1  0.89655432  0.29546465  0.69056484  1
  Zr  Zr35  1  0.09940331  0.89095661  0.89812826  1
  Zr  Zr36  1  0.50421788  0.91269594  0.50780173  1
  Zr  Zr37  1  0.10380240  0.50087341  0.49384297  1
  Zr  Zr38  1  0.29635376  0.08781143  0.49213663  1
  Zr  Zr39  1  0.90329136  0.10163260  0.69974114  1
  Zr  Zr40  1  0.70518214  0.90896150  0.89924406  1
  Zr  Zr41  1  0.10642335  0.90316825  0.50724130  1
  Zr  Zr42  1  0.30334475  0.70329957  0.90283474  1
  Zr  Zr43  1  0.89611662  0.09583567  0.29612648  1
  Zr  Zr44  1  0.70406598  0.29668429  0.50390157  1
  Zr  Zr45  1  0.70701947  0.09435239  0.09480611  1
  Zr  Zr46  1  0.29988447  0.70666219  0.49070989  1
  Zr  Zr47  1  0.50047611  0.29864141  0.29330380  1
  Zr  Zr48  1  0.30059114  0.10223496  0.69787230  1
  Zr  Zr49  1  0.28848858  0.89953481  0.90208765  1
  Sc  Sc50  1  0.90452156  0.70988188  0.30034156  1
  Sc  Sc51  1  0.50926430  0.09146580  0.10609414  1
  Sc  Sc52  1  0.69567575  0.71000790  0.10025930  1
  Sc  Sc53  1  0.50822160  0.50275433  0.69622597  1
  Sc  Sc54  1  0.89858764  0.49921553  0.90431128  1
  Sc  Sc55  1  0.49276234  0.71952181  0.29180920  1
  Sc  Sc56  1  0.29661177  0.30449969  0.29478117  1
  Sc  Sc57  1  0.89943985  0.89577675  0.49999718  1
  Sc  Sc58  1  0.09562085  0.89951812  0.70538047  1
  Sc  Sc59  1  0.30440260  0.90103142  0.29869694  1
  Sc  Sc60  1  0.89865757  0.70766770  0.50101577  1
  Sc  Sc61  1  0.09829542  0.29020815  0.90496206  1
  Sc  Sc62  1  0.70428256  0.71080167  0.29233889  1
  Sc  Sc63  1  0.29429472  0.49390276  0.10100466  1
  Sc  Sc64  1  0.30373987  0.30440951  0.49851226  1
  Sc  Sc65  1  0.70360294  0.50298440  0.70185284  1
  Sc  Sc66  1  0.89720316  0.30181326  0.91122131  1
  Sc  Sc67  1  0.69379974  0.09958003  0.29428464  1
  Sc  Sc68  1  0.69482092  0.70098692  0.89654608  1
  Sc  Sc69  1  0.29674958  0.70966455  0.29854471  1
  Sc  Sc70  1  0.30068685  0.50075399  0.50358874  1
  Sc  Sc71  1  0.10341004  0.09999405  0.10837870  1
  Sc  Sc72  1  0.49887027  0.90673541  0.29256596  1
  Sc  Sc73  1  0.28947621  0.89600075  0.70191961  1
  Sc  Sc74  1  0.70634577  0.29524718  0.09986848  1
  Sc  Sc75  1  0.50198108  0.49528399  0.50461782  1
  Sc  Sc76  1  0.69544850  0.49250405  0.29955881  1
  Sc  Sc77  1  0.50830195  0.70166107  0.70396593  1
  Sc  Sc78  1  0.09559196  0.50537059  0.10343687  1
  Sc  Sc79  1  0.69986432  0.90152833  0.10256367  1
  Sc  Sc80  1  0.30383390  0.30173941  0.68913323  1
  Sc  Sc81  1  0.09376818  0.70153437  0.10259781  1
  Sc  Sc82  1  0.50409542  0.71082017  0.09491795  1
  Sc  Sc83  1  0.69442529  0.49940603  0.50815313  1
  Sc  Sc84  1  0.50288919  0.89961973  0.10454737  1
  Sc  Sc85  1  0.09348259  0.09504515  0.70151784  1
  Sc  Sc86  1  0.89981363  0.89999294  0.10720123  1
  Sc  Sc87  1  0.50093121  0.48579112  0.09353843  1
  Sc  Sc88  1  0.29852028  0.30147187  0.09805662  1
  Sc  Sc89  1  0.70369260  0.69623478  0.70055683  1
  Sc  Sc90  1  0.29328563  0.49528622  0.29926741  1
  Sc  Sc91  1  0.10187475  0.29746289  0.30470439  1
  Sc  Sc92  1  0.70220013  0.89991014  0.50264290  1
  Sc  Sc93  1  0.89495637  0.49723377  0.49510262  1
  Sc  Sc94  1  0.89870295  0.70465398  0.89697685  1
  Sc  Sc95  1  0.10029503  0.70264224  0.49472957  1
  Sc  Sc96  1  0.90250739  0.10862440  0.50185236  1
  Sc  Sc97  1  0.11082990  0.10760934  0.29958894  1
  Sc  Sc98  1  0.89540158  0.09898246  0.90207538  1
  Sc  Sc99  1  0.69454762  0.89481261  0.70250582  1
  Nb  Nb100  1  0.70507325  0.50433017  0.10203956  1
  Nb  Nb101  1  0.09864978  0.90505723  0.09559876  1
  Nb  Nb102  1  0.89543265  0.69412439  0.69714695  1
  Nb  Nb103  1  0.90270543  0.90625898  0.30462875  1
  Nb  Nb104  1  0.29749489  0.49947552  0.70332207  1
  Nb  Nb105  1  0.89939642  0.50144574  0.29854240  1
  Nb  Nb106  1  0.31218491  0.69901111  0.10098545  1
  Nb  Nb107  1  0.90264996  0.50234536  0.69906472  1
  Nb  Nb108  1  0.30189862  0.09999600  0.29230391  1
  Nb  Nb109  1  0.30140269  0.09806258  0.09939247  1
  Nb  Nb110  1  0.30381341  0.89703303  0.49953970  1
  Nb  Nb111  1  0.49536543  0.29430794  0.09991623  1
  Nb  Nb112  1  0.90159598  0.89966621  0.90130297  1
  Nb  Nb113  1  0.50088959  0.09991670  0.29822794  1
  Nb  Nb114  1  0.10010009  0.10491564  0.49101681  1
  Nb  Nb115  1  0.89617150  0.30371223  0.30324432  1
  Nb  Nb116  1  0.49547951  0.09725552  0.50149813  1
  Nb  Nb117  1  0.10047279  0.70012007  0.90209918  1
  Nb  Nb118  1  0.29997372  0.09820830  0.90056569  1
  Nb  Nb119  1  0.09718075  0.29074428  0.49617874  1
  Nb  Nb120  1  0.49239306  0.89657360  0.88976151  1
  Nb  Nb121  1  0.49616575  0.89996035  0.70126351  1
  Nb  Nb122  1  0.50408879  0.49826351  0.89752465  1
  Nb  Nb123  1  0.69851992  0.29697235  0.89778021  1
  Nb  Nb124  1  0.69998689  0.10125855  0.90213627  1
  Nb  Nb125  1  0.20216665  0.40329297  0.80047326  1
  Nb  Nb126  1  0.39728536  -0.00068186  0.80227147  1
  Nb  Nb127  1  0.00352401  -0.00666210  0.00021276  1
  Nb  Nb128  1  0.39711993  0.40383926  0.80236130  1
  Nb  Nb129  1  0.40092391  0.19048755  0.39403734  1
  Nb  Nb130  1  0.59657557  0.19545912  0.59731670  1
  Nb  Nb131  1  0.39985995  0.19967304  0.80645975  1
  Nb  Nb132  1  0.40178249  0.19434685  0.19948085  1
  Nb  Nb133  1  0.00279544  0.40161912  0.59994564  1
  Nb  Nb134  1  0.60321876  0.19966180  -0.00509842  1
  Nb  Nb135  1  0.80170483  0.00273304  0.60631614  1
  Nb  Nb136  1  0.39627032  0.00218754  -0.00559487  1
  Nb  Nb137  1  0.80707744  0.39993858  0.20388689  1
  Nb  Nb138  1  0.79505962  0.60073425  0.39443762  1
  Nb  Nb139  1  0.39839998  0.80512157  0.59999930  1
  Nb  Nb140  1  0.59408599  0.59803432  0.20280217  1
  Nb  Nb141  1  0.59725859  0.60657654  0.39211579  1
  Nb  Nb142  1  0.00289542  0.40330120  0.79357635  1
  Nb  Nb143  1  0.40508782  0.59895384  0.20089551  1
  Nb  Nb144  1  -0.00444041  0.59762000  0.60367495  1
  Nb  Nb145  1  0.79314696  0.59713472  0.00431552  1
  Nb  Nb146  1  0.40708071  0.60168290  0.39197492  1
  Nb  Nb147  1  0.60001935  0.80214900  0.40149645  1
  Nb  Nb148  1  0.19530385  0.19562909  0.58946340  1
  Nb  Nb149  1  0.00381793  0.00087788  0.39723546  1
  Pd  Pd150  1  0.59462691  -0.00467621  -0.00074628  1
  Pd  Pd151  1  0.19633278  0.60948503  0.59279331  1
  Pd  Pd152  1  -0.01232264  0.60268854  0.40637871  1
  Pd  Pd153  1  -0.00440824  0.80110031  0.00414698  1
  Pd  Pd154  1  0.60307691  0.80042621  0.80246935  1
  Pd  Pd155  1  -0.00567572  0.00015449  0.59034688  1
  Pd  Pd156  1  0.80904073  0.40016541  0.80325629  1
  Pd  Pd157  1  0.00291007  0.39861638  0.40135741  1
  Pd  Pd158  1  0.40426529  -0.00190845  0.39388447  1
  Pd  Pd159  1  0.79303581  0.40601193  0.39798238  1
  Pd  Pd160  1  0.79807929  0.79659113  -0.00147958  1
  Pd  Pd161  1  0.19082404  0.40231511  -0.00414354  1
  Pd  Pd162  1  0.19897562  0.78901671  0.00938544  1
  Pd  Pd163  1  0.41027851  0.59400203  0.01207447  1
  Pd  Pd164  1  0.80894600  0.20523207  0.80890818  1
  Pd  Pd165  1  0.59976566  0.81041788  -0.00929952  1
  Pd  Pd166  1  0.80062717  0.80750731  0.60636471  1
  Pd  Pd167  1  0.19998926  0.60950346  0.01118754  1
  Pd  Pd168  1  0.60855345  0.39828693  0.18929406  1
  Pd  Pd169  1  0.19287324  -0.00915330  0.38794861  1
  Pd  Pd170  1  0.59287161  0.19618651  0.40591427  1
  Pd  Pd171  1  0.79673489  0.59739464  0.81100700  1
  Pd  Pd172  1  0.19682453  0.39249851  0.59951695  1
  Pd  Pd173  1  0.40181250  0.60053092  0.59630835  1
  Pd  Pd174  1  0.20046711  0.79459624  0.19420569  1
  Pd  Pd175  1  0.00069051  0.39776464  0.20644135  1
  Pd  Pd176  1  -0.00709647  0.60158735  0.80166020  1
  Pd  Pd177  1  0.59097805  0.20802072  0.79853189  1
  Pd  Pd178  1  0.00986436  0.40197363  -0.00772610  1
  Pd  Pd179  1  -0.00815649  0.20469668  0.80952970  1
  Pd  Pd180  1  0.40155075  0.81155900  0.00395420  1
  Pd  Pd181  1  0.00675284  0.80977848  0.40155141  1
  Pd  Pd182  1  0.60037025  0.60076048  0.00756299  1
  Pd  Pd183  1  0.20178499  0.39620243  0.40017165  1
  Pd  Pd184  1  0.19755247  0.00444297  0.60505949  1
  Pd  Pd185  1  0.20224660  0.79424013  0.60308101  1
  Pd  Pd186  1  0.79369150  0.59780396  0.20465978  1
  Pd  Pd187  1  0.20893590  0.60412458  0.19682121  1
  Pd  Pd188  1  0.19232105  0.81103394  0.39233906  1
  Pd  Pd189  1  0.79837583  0.20494196  0.20431507  1
  Pd  Pd190  1  0.79804101  0.19049504  0.39720972  1
  Pd  Pd191  1  0.19538273  0.19332387  0.00663744  1
  Pd  Pd192  1  0.80455100  0.80830933  0.20350503  1
  Pd  Pd193  1  0.60905907  0.39091068  0.01075767  1
  Pd  Pd194  1  0.80570287  -0.00296719  0.79626525  1
  Pd  Pd195  1  0.41033023  0.18891094  0.00369837  1
  Pd  Pd196  1  0.40917875  0.59394987  0.79541435  1
  Pd  Pd197  1  0.20851776  0.20739115  0.79270148  1
  Pd  Pd198  1  0.00184090  0.19923215  0.20889057  1
  Pd  Pd199  1  0.80392419  0.40634168  0.59929707  1
  Rh  Rh200  1  0.59602113  0.19927771  0.18817735  1
  Rh  Rh201  1  0.61185305  0.00408291  0.61086356  1
  Rh  Rh202  1  0.21027210  0.20284669  0.19663836  1
  Rh  Rh203  1  0.60108950  0.59795952  0.80077726  1
  Rh  Rh204  1  0.39796431  0.41268867  0.60517040  1
  Rh  Rh205  1  0.79375230  0.40344944  0.00635363  1
  Rh  Rh206  1  0.80977145  -0.00478242  0.00054157  1
  Rh  Rh207  1  -0.00115002  0.60216370  0.20438335  1
  Rh  Rh208  1  -0.00935758  0.60705689  -0.00184544  1
  Rh  Rh209  1  0.39823035  0.00425483  0.19286197  1
  Rh  Rh210  1  0.19961103  0.79206575  0.80183090  1
  Rh  Rh211  1  0.80114687  0.80083806  0.79980397  1
  Rh  Rh212  1  0.39375047  0.40207766  0.40240559  1
  Rh  Rh213  1  0.59693367  -0.00986975  0.79851719  1
  Rh  Rh214  1  0.79549281  0.79696830  0.39763616  1
  Rh  Rh215  1  0.39458111  0.80371292  0.79122188  1
  Rh  Rh216  1  0.59319403  0.80144170  0.59915040  1
  Rh  Rh217  1  -0.00356890  0.79280346  0.80330747  1
  Rh  Rh218  1  0.39667955  0.40564835  -0.00087353  1
  Rh  Rh219  1  0.00689418  0.18613939  -0.00254276  1
  Rh  Rh220  1  0.80588928  0.59741001  0.59179306  1
  Rh  Rh221  1  0.60417835  0.39279162  0.60255712  1
  Rh  Rh222  1  0.60742304  -0.00292499  0.20412550  1
  Rh  Rh223  1  -0.00429459  0.79905476  0.19572823  1
  Rh  Rh224  1  0.00753824  0.20012568  0.59748819  1
  Rh  Rh225  1  0.21093162  0.60075881  0.39780651  1
  Rh  Rh226  1  0.59215922  -0.00574942  0.39273722  1
  Rh  Rh227  1  0.38809493  -0.01063460  0.60753406  1
  Rh  Rh228  1  0.39620832  0.80246959  0.19192418  1
  Rh  Rh229  1  0.21288467  0.20423610  0.40393583  1
  Rh  Rh230  1  0.59477016  0.40038659  0.79418703  1
  Rh  Rh231  1  0.20171377  -0.00164779  0.79411653  1
  Rh  Rh232  1  0.78378933  0.18596473  0.59704552  1
  Rh  Rh233  1  0.20391896  0.60532072  0.80690454  1
  Rh  Rh234  1  0.60548419  0.40410840  0.40812928  1
  Rh  Rh235  1  0.40954095  0.80515493  0.40965571  1
  Rh  Rh236  1  0.81457659  0.00318603  0.41380146  1
  Rh  Rh237  1  -0.00320340  -0.00306828  0.81129905  1
  Rh  Rh238  1  0.39514415  0.19357773  0.58710248  1
  Rh  Rh239  1  0.60520174  0.60200941  0.60047346  1
  Rh  Rh240  1  -0.00377714  0.19448328  0.39072373  1
  Rh  Rh241  1  0.20065020  0.00190913  0.20141161  1
  Rh  Rh242  1  0.60393583  0.80345995  0.20680266  1
  Rh  Rh243  1  0.19060253  0.39928004  0.19937629  1
  Rh  Rh244  1  0.39421362  0.39628217  0.19170958  1
  Rh  Rh245  1  0.79292000  0.20190421  -0.00588499  1
  Rh  Rh246  1  0.80097758  -0.00185051  0.19566096  1
  Rh  Rh247  1  -0.00099885  0.00583482  0.19866304  1
  Rh  Rh248  1  0.19687379  0.00549235  0.00501866  1
  Rh  Rh249  1  0.00065035  0.79153221  0.60148670  1
