# generated using pymatgen
data_ZrScNbPdRh
_symmetry_space_group_name_H-M   'P 1'
_cell_length_a   16.55277432
_cell_length_b   16.55545348
_cell_length_c   16.55876423
_cell_angle_alpha   90.00011413
_cell_angle_beta   90.02034878
_cell_angle_gamma   89.99001223
_symmetry_Int_Tables_number   1
_chemical_formula_structural   ZrScNbPdRh
_chemical_formula_sum   'Zr50 Sc50 Nb50 Pd50 Rh50'
_cell_volume   4537.74162482
_cell_formula_units_Z   50
loop_
 _symmetry_equiv_pos_site_id
 _symmetry_equiv_pos_as_xyz
  1  'x, y, z'
loop_
 _atom_site_type_symbol
 _atom_site_label
 _atom_site_symmetry_multiplicity
 _atom_site_fract_x
 _atom_site_fract_y
 _atom_site_fract_z
 _atom_site_occupancy
  Zr  Zr0  1  0.29686877  0.30517463  0.30220518  1
  Zr  Zr1  1  0.70044950  0.29810310  0.70571969  1
  Zr  Zr2  1  0.30386870  0.70241333  0.70111774  1
  Zr  Zr3  1  0.09570098  0.30720725  0.49316378  1
  Zr  Zr4  1  0.29970605  0.69646463  0.90036000  1
  Zr  Zr5  1  0.29677261  0.89856750  0.69841143  1
  Zr  Zr6  1  0.30172108  0.89252235  0.30423883  1
  Zr  Zr7  1  0.89997127  0.90553433  0.30343969  1
  Zr  Zr8  1  0.89468219  0.70634250  0.29817106  1
  Zr  Zr9  1  0.10043291  0.09570523  0.09690371  1
  Zr  Zr10  1  0.29790356  0.49852793  0.68524159  1
  Zr  Zr11  1  0.09831602  0.70099400  0.69115899  1
  Zr  Zr12  1  0.69244643  0.29774885  0.30162425  1
  Zr  Zr13  1  0.49975932  0.30869685  0.29330467  1
  Zr  Zr14  1  0.50501528  0.90218080  0.69621932  1
  Zr  Zr15  1  0.50115012  0.50216845  0.69888932  1
  Zr  Zr16  1  0.30658267  0.09475983  0.30710341  1
  Zr  Zr17  1  0.90104977  0.68772581  0.69925506  1
  Zr  Zr18  1  0.29871902  0.69918741  0.49988672  1
  Zr  Zr19  1  0.90518828  0.09803120  0.89700393  1
  Zr  Zr20  1  0.89517086  0.89998104  0.10044641  1
  Zr  Zr21  1  0.69420957  0.30603849  0.10159500  1
  Zr  Zr22  1  0.29730042  0.30656648  0.10080349  1
  Zr  Zr23  1  0.69739856  0.69470628  0.89665882  1
  Zr  Zr24  1  0.51186536  0.90487989  0.90886303  1
  Zr  Zr25  1  0.90288557  0.89590371  0.90246172  1
  Zr  Zr26  1  0.30032790  0.30238768  0.50234126  1
  Zr  Zr27  1  0.90201174  0.89626648  0.49390175  1
  Zr  Zr28  1  0.90198487  0.29649965  0.50189874  1
  Zr  Zr29  1  0.50333293  0.29791934  0.48606248  1
  Zr  Zr30  1  0.69009260  0.90069203  0.09144322  1
  Zr  Zr31  1  0.10329801  0.50138145  0.50447440  1
  Zr  Zr32  1  0.09984243  0.10774901  0.50674310  1
  Zr  Zr33  1  0.10178504  0.49787876  0.29954379  1
  Zr  Zr34  1  0.09987477  0.69868226  0.29570125  1
  Zr  Zr35  1  0.49368532  0.50335625  0.49973082  1
  Zr  Zr36  1  0.70045048  0.10218431  0.89341526  1
  Zr  Zr37  1  0.69973601  0.90107438  0.89709017  1
  Zr  Zr38  1  0.90416095  0.10688610  0.69230161  1
  Zr  Zr39  1  0.69891758  0.50043031  0.50008399  1
  Zr  Zr40  1  0.49360700  0.90115272  0.49678349  1
  Zr  Zr41  1  0.89468025  0.30440866  0.30888202  1
  Zr  Zr42  1  0.30064404  0.90276462  0.10832248  1
  Zr  Zr43  1  0.09563241  0.09704632  0.30402759  1
  Zr  Zr44  1  0.49712907  0.30465674  0.71373958  1
  Zr  Zr45  1  0.10513426  0.29648292  0.09208245  1
  Zr  Zr46  1  0.89643678  0.29489000  0.90869624  1
  Zr  Zr47  1  0.50440984  0.89877205  0.10054123  1
  Zr  Zr48  1  0.89826403  0.51070319  0.90025866  1
  Zr  Zr49  1  0.69121954  0.30724405  0.90245660  1
  Sc  Sc50  1  0.10131637  0.68808216  0.10492778  1
  Sc  Sc51  1  0.69749313  0.69797105  0.10281918  1
  Sc  Sc52  1  0.90263314  0.50240657  0.69157829  1
  Sc  Sc53  1  0.89591972  0.10055933  0.10261108  1
  Sc  Sc54  1  0.10791887  0.50392054  0.90622146  1
  Sc  Sc55  1  0.70870777  0.09369480  0.69375592  1
  Sc  Sc56  1  0.89490773  0.50233382  0.10359268  1
  Sc  Sc57  1  0.10445259  0.90179825  0.10768795  1
  Sc  Sc58  1  0.70565158  0.48848037  0.29154880  1
  Sc  Sc59  1  0.30054926  0.50048567  0.29814817  1
  Sc  Sc60  1  0.70770869  0.10042063  0.49903350  1
  Sc  Sc61  1  0.89157284  0.29622139  0.09697962  1
  Sc  Sc62  1  0.90006036  0.69513350  0.09668126  1
  Sc  Sc63  1  0.31022036  0.10616476  0.50614434  1
  Sc  Sc64  1  0.29966602  0.70051528  0.29588272  1
  Sc  Sc65  1  0.91045581  0.91249934  0.70287026  1
  Sc  Sc66  1  0.29329043  0.90023664  0.89353853  1
  Sc  Sc67  1  0.11075722  0.10078597  0.90197192  1
  Sc  Sc68  1  0.49665617  0.89073980  0.29999071  1
  Sc  Sc69  1  0.50600871  0.69658772  0.69909057  1
  Sc  Sc70  1  0.90329979  0.30178284  0.68863249  1
  Sc  Sc71  1  0.09691129  0.89809302  0.30516222  1
  Sc  Sc72  1  0.89511826  0.09944097  0.49797692  1
  Sc  Sc73  1  0.49465831  0.10440975  0.69425397  1
  Sc  Sc74  1  0.90086775  0.49133888  0.50258837  1
  Sc  Sc75  1  0.69378873  0.09738706  0.10797906  1
  Sc  Sc76  1  0.09706994  0.70733792  0.50256499  1
  Sc  Sc77  1  0.30106076  0.50561145  0.90717284  1
  Sc  Sc78  1  0.69893652  0.90583114  0.50119908  1
  Sc  Sc79  1  0.10430661  0.09512923  0.70198111  1
  Sc  Sc80  1  0.29741652  0.30216877  0.70502576  1
  Sc  Sc81  1  0.29653339  0.10057070  0.90493512  1
  Sc  Sc82  1  0.08738599  0.70116813  0.90035697  1
  Sc  Sc83  1  0.50088653  0.69226667  0.89737206  1
  Sc  Sc84  1  0.69312157  0.70125018  0.50527184  1
  Sc  Sc85  1  0.69884107  0.89633427  0.29857747  1
  Sc  Sc86  1  0.89730637  0.50132741  0.29159798  1
  Sc  Sc87  1  0.70351082  0.51355940  0.69818803  1
  Sc  Sc88  1  0.49804846  0.70427839  0.49867389  1
  Sc  Sc89  1  0.29960009  0.10482849  0.69809525  1
  Sc  Sc90  1  0.50729864  0.49356299  0.89434349  1
  Sc  Sc91  1  0.50192798  0.69489766  0.10795960  1
  Sc  Sc92  1  0.70978302  0.29989185  0.48738023  1
  Sc  Sc93  1  0.49089396  0.10292270  0.50020431  1
  Sc  Sc94  1  0.70171308  0.10254330  0.29987530  1
  Sc  Sc95  1  0.49529313  0.08611184  0.09598291  1
  Sc  Sc96  1  0.10135673  0.90408031  0.88990995  1
  Sc  Sc97  1  0.49813026  0.49620234  0.10811274  1
  Sc  Sc98  1  0.70280438  0.49531337  0.09700855  1
  Sc  Sc99  1  0.69652555  0.50042965  0.90448316  1
  Nb  Nb100  1  0.50243223  0.10737953  0.30639245  1
  Nb  Nb101  1  0.90078888  0.70114755  0.49824383  1
  Nb  Nb102  1  0.49634118  0.10114168  0.89973807  1
  Nb  Nb103  1  0.10370371  0.30704656  0.70423524  1
  Nb  Nb104  1  0.10812342  0.29606121  0.90154587  1
  Nb  Nb105  1  0.29348374  0.29750678  0.90402686  1
  Nb  Nb106  1  0.50134511  0.49894469  0.30140774  1
  Nb  Nb107  1  0.70213930  0.89607963  0.69823666  1
  Nb  Nb108  1  0.69676485  0.69814457  0.30301362  1
  Nb  Nb109  1  0.29892037  0.50357579  0.50229908  1
  Nb  Nb110  1  0.29494079  0.09682242  0.10555996  1
  Nb  Nb111  1  0.30481355  0.89920403  0.49855440  1
  Nb  Nb112  1  0.10751383  0.49591979  0.10338325  1
  Nb  Nb113  1  0.10697881  0.90381318  0.69478828  1
  Nb  Nb114  1  0.10559720  0.89915542  0.51195817  1
  Nb  Nb115  1  0.10239557  0.49751118  0.69628304  1
  Nb  Nb116  1  0.29714055  0.69548611  0.09658940  1
  Nb  Nb117  1  0.70334978  0.70077071  0.69831784  1
  Nb  Nb118  1  0.10094561  0.30162789  0.30260898  1
  Nb  Nb119  1  0.89816568  0.70288658  0.89461802  1
  Nb  Nb120  1  0.49593651  0.30130324  0.09865680  1
  Nb  Nb121  1  0.50805500  0.69587662  0.30216463  1
  Nb  Nb122  1  0.49420588  0.29718585  0.90054608  1
  Nb  Nb123  1  0.90139785  0.09354053  0.29916317  1
  Nb  Nb124  1  0.28810769  0.50361878  0.09747155  1
  Nb  Nb125  1  0.58750172  0.20283756  -0.00436511  1
  Nb  Nb126  1  0.00320679  0.20313866  0.20600949  1
  Nb  Nb127  1  -0.00407731  0.80035132  0.20144622  1
  Nb  Nb128  1  0.39746400  0.19762441  0.19618585  1
  Nb  Nb129  1  -0.00645903  0.60439923  0.40031911  1
  Nb  Nb130  1  0.20482555  0.79555762  0.00456442  1
  Nb  Nb131  1  0.80081149  0.79975178  0.60755542  1
  Nb  Nb132  1  0.79867968  0.60545501  0.39870203  1
  Nb  Nb133  1  0.39888433  0.39270582  -0.00128999  1
  Nb  Nb134  1  0.00851932  0.20964283  0.80184199  1
  Nb  Nb135  1  0.60074577  0.20894918  0.59886203  1
  Nb  Nb136  1  0.20235544  -0.00565089  0.41253141  1
  Nb  Nb137  1  0.39543577  0.79679156  0.00339097  1
  Nb  Nb138  1  0.00447585  0.39791891  0.80488053  1
  Nb  Nb139  1  0.80070838  0.79675811  0.79590634  1
  Nb  Nb140  1  0.19991298  0.19814188  0.20283973  1
  Nb  Nb141  1  -0.00110393  -0.00202644  -0.00047103  1
  Nb  Nb142  1  0.00547162  0.39854014  -0.00008005  1
  Nb  Nb143  1  0.00700291  0.39313820  0.19566468  1
  Nb  Nb144  1  0.80683640  0.40131345  0.80276537  1
  Nb  Nb145  1  0.19803946  0.60021017  0.79217805  1
  Nb  Nb146  1  0.60069503  0.59879901  0.39173728  1
  Nb  Nb147  1  0.59884788  0.39565432  0.59944191  1
  Nb  Nb148  1  0.40595977  0.00013478  0.80285603  1
  Nb  Nb149  1  0.59310514  0.00340450  0.39740060  1
  Pd  Pd150  1  0.20481178  0.19378917  0.39992831  1
  Pd  Pd151  1  0.38971017  -0.00828269  -0.00747749  1
  Pd  Pd152  1  0.60001390  0.01085546  0.59182035  1
  Pd  Pd153  1  0.79561144  0.79133008  -0.00402049  1
  Pd  Pd154  1  0.19873544  0.00087385  0.21311445  1
  Pd  Pd155  1  0.79776012  0.79916368  0.19411653  1
  Pd  Pd156  1  0.39010027  0.19378335  0.80211809  1
  Pd  Pd157  1  0.39497319  0.59646169  0.20049709  1
  Pd  Pd158  1  0.39380950  0.40538654  0.39934279  1
  Pd  Pd159  1  0.59613979  0.00920520  0.79159398  1
  Pd  Pd160  1  -0.00225836  0.00164415  0.59416502  1
  Pd  Pd161  1  0.19541222  0.59931838  0.40000047  1
  Pd  Pd162  1  0.59323927  0.59628136  0.00448652  1
  Pd  Pd163  1  0.78815891  0.79789357  0.40941479  1
  Pd  Pd164  1  0.40914810  0.00229533  0.20845196  1
  Pd  Pd165  1  0.80027747  0.00680760  0.00106572  1
  Pd  Pd166  1  0.40645800  0.39306886  0.59869179  1
  Pd  Pd167  1  0.39550342  0.59171920  0.79706618  1
  Pd  Pd168  1  0.19044937  0.79210926  0.80429406  1
  Pd  Pd169  1  0.41215712  0.80861250  0.80975029  1
  Pd  Pd170  1  0.60759864  0.58998384  0.20279646  1
  Pd  Pd171  1  0.58852865  0.19415659  0.19118726  1
  Pd  Pd172  1  0.40233689  0.60422519  0.39502982  1
  Pd  Pd173  1  0.00234306  0.59389987  0.00678769  1
  Pd  Pd174  1  0.60223674  0.80097078  0.20192368  1
  Pd  Pd175  1  0.19798039  0.20828929  0.60539495  1
  Pd  Pd176  1  0.79220382  0.39885733  0.60565237  1
  Pd  Pd177  1  0.78448703  0.19297786  0.00546800  1
  Pd  Pd178  1  0.40189941  0.79104825  0.19694701  1
  Pd  Pd179  1  0.60260610  0.80146875  0.59579208  1
  Pd  Pd180  1  -0.00849028  0.80481235  0.60662985  1
  Pd  Pd181  1  0.00913704  0.59133305  0.79826774  1
  Pd  Pd182  1  -0.00212527  0.80319306  0.78994028  1
  Pd  Pd183  1  0.38711189  0.40675153  0.80882975  1
  Pd  Pd184  1  0.40176595  0.79760804  0.60014100  1
  Pd  Pd185  1  0.60046269  0.79559617  0.80026090  1
  Pd  Pd186  1  0.40895137  0.59451129  0.00489691  1
  Pd  Pd187  1  0.39759574  0.19979028  0.00653637  1
  Pd  Pd188  1  0.21005373  0.00432163  0.59595969  1
  Pd  Pd189  1  0.01076977  0.80458109  0.01059732  1
  Pd  Pd190  1  0.81021619  0.20576982  0.79468492  1
  Pd  Pd191  1  0.80491292  0.20136224  0.20446091  1
  Pd  Pd192  1  0.80268022  -0.00487836  0.79497172  1
  Pd  Pd193  1  0.79634005  0.60388374  0.00343093  1
  Pd  Pd194  1  0.79224809  -0.00175451  0.20276353  1
  Pd  Pd195  1  0.20272948  0.40914699  0.80629942  1
  Pd  Pd196  1  0.59683665  0.19143296  0.79641935  1
  Pd  Pd197  1  0.00746514  -0.00049321  0.41250023  1
  Pd  Pd198  1  0.19556688  0.80260007  0.40485642  1
  Pd  Pd199  1  -0.00716053  0.19677303  0.39750232  1
  Rh  Rh200  1  0.20382650  0.40384621  -0.00692165  1
  Rh  Rh201  1  0.80482277  0.39158541  0.19588032  1
  Rh  Rh202  1  0.20591607  0.40704829  0.40533750  1
  Rh  Rh203  1  0.61291910  0.41073144  0.79118085  1
  Rh  Rh204  1  -0.00457889  0.41133300  0.39262125  1
  Rh  Rh205  1  -0.00034259  0.59537300  0.59075439  1
  Rh  Rh206  1  0.20661306  0.59791799  0.20267634  1
  Rh  Rh207  1  0.79243543  0.00069973  0.39554837  1
  Rh  Rh208  1  0.79368455  0.20325157  0.59701493  1
  Rh  Rh209  1  0.80255917  0.40792735  0.39922385  1
  Rh  Rh210  1  0.19279573  0.79432391  0.19330565  1
  Rh  Rh211  1  0.59477055  -0.00186655  0.21268986  1
  Rh  Rh212  1  0.80417516  0.19409451  0.39396761  1
  Rh  Rh213  1  0.19225794  0.60833278  -0.00510846  1
  Rh  Rh214  1  0.39583751  0.40481312  0.19429864  1
  Rh  Rh215  1  0.59579749  0.59669774  0.59393814  1
  Rh  Rh216  1  0.39660544  -0.00339121  0.60792246  1
  Rh  Rh217  1  0.60894323  0.01414855  -0.00243453  1
  Rh  Rh218  1  0.80865121  0.40776660  -0.00517233  1
  Rh  Rh219  1  0.20484458  0.79924208  0.59750232  1
  Rh  Rh220  1  0.20022714  0.60555329  0.60115154  1
  Rh  Rh221  1  0.60187125  0.40982668  0.40117821  1
  Rh  Rh222  1  0.60496434  0.18979566  0.40908343  1
  Rh  Rh223  1  0.00615135  0.39842326  0.60483170  1
  Rh  Rh224  1  0.59942630  0.40344186  0.19800291  1
  Rh  Rh225  1  0.00742509  0.79567907  0.39508040  1
  Rh  Rh226  1  0.60310689  0.59813475  0.79669470  1
  Rh  Rh227  1  0.40184608  -0.00311926  0.39928476  1
  Rh  Rh228  1  -0.00028801  0.59621811  0.20324230  1
  Rh  Rh229  1  0.19815263  0.39444354  0.59377485  1
  Rh  Rh230  1  0.80661750  -0.00985204  0.59779517  1
  Rh  Rh231  1  0.20823665  0.00358440  0.79467179  1
  Rh  Rh232  1  0.19763699  -0.00954782  0.00006094  1
  Rh  Rh233  1  -0.00647287  -0.00085801  0.19164472  1
  Rh  Rh234  1  0.40711641  0.21147937  0.60391397  1
  Rh  Rh235  1  0.80178345  0.60825369  0.58879414  1
  Rh  Rh236  1  0.20903641  0.19463611  0.00544581  1
  Rh  Rh237  1  0.79347644  0.60328705  0.20285336  1
  Rh  Rh238  1  0.00891344  0.00985203  0.80435117  1
  Rh  Rh239  1  0.39776316  0.20649328  0.39287232  1
  Rh  Rh240  1  0.59145471  0.78707292  0.00175955  1
  Rh  Rh241  1  0.19669014  0.39855291  0.20346384  1
  Rh  Rh242  1  0.58813585  0.39833592  0.00338740  1
  Rh  Rh243  1  0.59948616  0.80199289  0.40131604  1
  Rh  Rh244  1  0.20009422  0.19928983  0.79836091  1
  Rh  Rh245  1  0.40148835  0.60713572  0.59895992  1
  Rh  Rh246  1  0.79750225  0.59903044  0.80189399  1
  Rh  Rh247  1  0.40130595  0.79117860  0.39706834  1
  Rh  Rh248  1  0.00076300  0.19526694  -0.00178640  1
  Rh  Rh249  1  0.01048813  0.20596686  0.60788769  1
