# generated using pymatgen
data_ZrScNbPdRh
_symmetry_space_group_name_H-M   'P 1'
_cell_length_a   16.55567218
_cell_length_b   16.55581778
_cell_length_c   16.55778537
_cell_angle_alpha   89.99603546
_cell_angle_beta   89.99314287
_cell_angle_gamma   89.98197709
_symmetry_Int_Tables_number   1
_chemical_formula_structural   ZrScNbPdRh
_chemical_formula_sum   'Zr50 Sc50 Nb50 Pd50 Rh50'
_cell_volume   4538.36769524
_cell_formula_units_Z   50
loop_
 _symmetry_equiv_pos_site_id
 _symmetry_equiv_pos_as_xyz
  1  'x, y, z'
loop_
 _atom_site_type_symbol
 _atom_site_label
 _atom_site_symmetry_multiplicity
 _atom_site_fract_x
 _atom_site_fract_y
 _atom_site_fract_z
 _atom_site_occupancy
  Zr  Zr0  1  0.50045174  0.30357404  0.89606488  1
  Zr  Zr1  1  0.49321316  0.50109221  0.50417839  1
  Zr  Zr2  1  0.10375546  0.10321516  0.49900820  1
  Zr  Zr3  1  0.49463804  0.30080974  0.29629079  1
  Zr  Zr4  1  0.50216603  0.09726977  0.90094292  1
  Zr  Zr5  1  0.08673949  0.50343450  0.90286108  1
  Zr  Zr6  1  0.90227518  0.10099314  0.89004459  1
  Zr  Zr7  1  0.90101616  0.89684339  0.49733083  1
  Zr  Zr8  1  0.10612850  0.89705742  0.29930035  1
  Zr  Zr9  1  0.30011638  0.49822096  0.50093666  1
  Zr  Zr10  1  0.69061595  0.50549208  0.89671383  1
  Zr  Zr11  1  0.89925098  0.10093161  0.49415269  1
  Zr  Zr12  1  0.90053801  0.50708255  0.50607242  1
  Zr  Zr13  1  0.70392319  0.29418804  0.10225958  1
  Zr  Zr14  1  0.29797185  0.09069207  0.29671267  1
  Zr  Zr15  1  0.70475355  0.09836075  0.30141488  1
  Zr  Zr16  1  0.10679310  0.70554840  0.89602199  1
  Zr  Zr17  1  0.49209144  0.29256773  0.50229295  1
  Zr  Zr18  1  0.90819613  0.29419071  0.50246635  1
  Zr  Zr19  1  0.29269647  0.51138590  0.09505652  1
  Zr  Zr20  1  0.88636082  0.69643674  0.09972374  1
  Zr  Zr21  1  0.50135278  0.70534933  0.09311559  1
  Zr  Zr22  1  0.49795978  0.50956206  0.90328971  1
  Zr  Zr23  1  0.30585726  0.69949564  0.90641863  1
  Zr  Zr24  1  0.49679519  0.49449311  0.30249072  1
  Zr  Zr25  1  0.70200468  0.50625285  0.50665733  1
  Zr  Zr26  1  0.91148253  0.30296977  0.10331701  1
  Zr  Zr27  1  0.10388795  0.70668278  0.29995851  1
  Zr  Zr28  1  0.69894453  0.29677007  0.89500140  1
  Zr  Zr29  1  0.70291367  0.90028092  0.70165563  1
  Zr  Zr30  1  0.30093405  0.89889232  0.10188827  1
  Zr  Zr31  1  0.30093134  0.50156965  0.30975063  1
  Zr  Zr32  1  0.10074865  0.29935916  0.29535623  1
  Zr  Zr33  1  0.89769531  0.29506910  0.30070239  1
  Zr  Zr34  1  0.70565556  0.69940475  0.50783457  1
  Zr  Zr35  1  0.89305885  0.89851187  0.09327110  1
  Zr  Zr36  1  0.89423028  0.09869404  0.09843347  1
  Zr  Zr37  1  0.70165010  0.50712619  0.69933757  1
  Zr  Zr38  1  0.10137703  0.29797989  0.49372337  1
  Zr  Zr39  1  0.70438076  0.89798553  0.49929427  1
  Zr  Zr40  1  0.50786529  0.50224748  0.70942691  1
  Zr  Zr41  1  0.49507010  0.09121749  0.29958374  1
  Zr  Zr42  1  0.50302389  0.70860744  0.29714630  1
  Zr  Zr43  1  0.10454012  0.88811813  0.09799984  1
  Zr  Zr44  1  0.10026080  0.29586058  0.70079925  1
  Zr  Zr45  1  0.49759948  0.29469480  0.10202886  1
  Zr  Zr46  1  0.69766035  0.70312903  0.70040047  1
  Zr  Zr47  1  0.90831682  0.49920745  0.09055022  1
  Zr  Zr48  1  0.10321864  0.09360454  0.30644616  1
  Zr  Zr49  1  0.10026034  0.71010650  0.70155140  1
  Sc  Sc50  1  0.29617227  0.50815963  0.89438792  1
  Sc  Sc51  1  0.70923884  0.28427141  0.50421211  1
  Sc  Sc52  1  0.29746463  0.09769106  0.69366945  1
  Sc  Sc53  1  0.11365281  0.69858258  0.09478265  1
  Sc  Sc54  1  0.50080866  0.50373856  0.10438224  1
  Sc  Sc55  1  0.70871706  0.09375576  0.50432246  1
  Sc  Sc56  1  0.30125216  0.70226383  0.70259320  1
  Sc  Sc57  1  0.10563707  0.09884757  0.71083810  1
  Sc  Sc58  1  0.69641869  0.70480006  0.09695027  1
  Sc  Sc59  1  0.09738627  0.90283014  0.48865751  1
  Sc  Sc60  1  0.30354127  0.09982586  0.10343775  1
  Sc  Sc61  1  0.89708812  0.50293969  0.29588571  1
  Sc  Sc62  1  0.89822151  0.09700789  0.30211507  1
  Sc  Sc63  1  0.69854713  0.90064569  0.09193981  1
  Sc  Sc64  1  0.09092878  0.70238374  0.50081848  1
  Sc  Sc65  1  0.30747000  0.89849456  0.89852237  1
  Sc  Sc66  1  0.29769162  0.09488677  0.50011734  1
  Sc  Sc67  1  0.70392731  0.70083397  0.29272338  1
  Sc  Sc68  1  0.89997873  0.70313891  0.30053919  1
  Sc  Sc69  1  0.69779781  0.09241135  0.09776693  1
  Sc  Sc70  1  0.89837957  0.89664482  0.70495034  1
  Sc  Sc71  1  0.89945976  0.70756549  0.69259545  1
  Sc  Sc72  1  0.70549270  0.50912210  0.10869332  1
  Sc  Sc73  1  0.29817249  0.70849884  0.09214471  1
  Sc  Sc74  1  0.09937821  0.28711352  0.89380563  1
  Sc  Sc75  1  0.49712796  0.09686442  0.10041920  1
  Sc  Sc76  1  0.29786769  0.28886271  0.10636985  1
  Sc  Sc77  1  0.30033087  0.30048328  0.30327320  1
  Sc  Sc78  1  0.70183487  0.29775755  0.29152340  1
  Sc  Sc79  1  0.49700680  0.70444127  0.50892842  1
  Sc  Sc80  1  0.09597308  0.50843622  0.70646156  1
  Sc  Sc81  1  0.29584187  0.28680422  0.50070507  1
  Sc  Sc82  1  0.50310017  0.90035245  0.09691692  1
  Sc  Sc83  1  0.48917330  0.09544149  0.50636280  1
  Sc  Sc84  1  0.69377843  0.89896909  0.30376828  1
  Sc  Sc85  1  0.49633988  0.89979364  0.30156024  1
  Sc  Sc86  1  0.10405788  0.11885961  0.10016049  1
  Sc  Sc87  1  0.89973629  0.70399693  0.49758267  1
  Sc  Sc88  1  0.10969616  0.49521324  0.30126208  1
  Sc  Sc89  1  0.29784622  0.51003718  0.70411828  1
  Sc  Sc90  1  0.29898286  0.10221850  0.89608082  1
  Sc  Sc91  1  0.09831770  0.50116126  0.49763518  1
  Sc  Sc92  1  0.50064633  0.90191532  0.89964546  1
  Sc  Sc93  1  0.30882614  0.90579398  0.70236805  1
  Sc  Sc94  1  0.49458241  0.90004941  0.50039680  1
  Sc  Sc95  1  0.88723120  0.90269348  0.89169535  1
  Sc  Sc96  1  0.69812754  0.90115744  0.89848048  1
  Sc  Sc97  1  0.90200411  0.89559942  0.30459605  1
  Sc  Sc98  1  0.30615510  0.69605617  0.50722982  1
  Sc  Sc99  1  0.49783074  0.90377941  0.70070030  1
  Nb  Nb100  1  0.50045709  0.29731990  0.69781690  1
  Nb  Nb101  1  0.90367532  0.49472144  0.70742098  1
  Nb  Nb102  1  0.09868083  0.09369869  0.89875817  1
  Nb  Nb103  1  0.70262436  0.09716021  0.89587878  1
  Nb  Nb104  1  0.09434879  0.89973231  0.70413844  1
  Nb  Nb105  1  0.90314678  0.30154944  0.89509823  1
  Nb  Nb106  1  0.29805536  0.30490981  0.89414716  1
  Nb  Nb107  1  0.70113580  0.70157082  0.90413434  1
  Nb  Nb108  1  0.50077204  0.69891686  0.69839318  1
  Nb  Nb109  1  0.89662588  0.10040477  0.69802876  1
  Nb  Nb110  1  0.69691218  0.49862620  0.30529284  1
  Nb  Nb111  1  0.30024268  0.70249349  0.30062990  1
  Nb  Nb112  1  0.89212796  0.69525250  0.90910381  1
  Nb  Nb113  1  0.30336325  0.90047615  0.50598502  1
  Nb  Nb114  1  0.09207333  0.90390252  0.89067148  1
  Nb  Nb115  1  0.49687576  0.10385062  0.69811225  1
  Nb  Nb116  1  0.50877854  0.69835083  0.90555693  1
  Nb  Nb117  1  0.70067169  0.30015981  0.69791058  1
  Nb  Nb118  1  0.09655226  0.49097893  0.09984031  1
  Nb  Nb119  1  0.70201437  0.10221177  0.69771152  1
  Nb  Nb120  1  0.90303548  0.29752047  0.70323419  1
  Nb  Nb121  1  0.90052987  0.50033479  0.90031145  1
  Nb  Nb122  1  0.09884257  0.31017380  0.10205832  1
  Nb  Nb123  1  0.29573206  0.30061462  0.70698794  1
  Nb  Nb124  1  0.29653757  0.89792711  0.30481286  1
  Nb  Nb125  1  0.80171625  0.39806072  -0.00718859  1
  Nb  Nb126  1  0.60110229  0.59588778  0.39961838  1
  Nb  Nb127  1  0.80566626  0.59901541  0.80559212  1
  Nb  Nb128  1  0.00507183  -0.00207170  -0.00249475  1
  Nb  Nb129  1  0.39518739  0.39838220  -0.00194128  1
  Nb  Nb130  1  0.60038289  0.39832613  0.00197437  1
  Nb  Nb131  1  0.00355188  -0.00441069  0.19182829  1
  Nb  Nb132  1  0.39805010  0.39343343  0.61093242  1
  Nb  Nb133  1  0.79622164  0.40210402  0.40617215  1
  Nb  Nb134  1  0.60093084  0.19570010  0.78962022  1
  Nb  Nb135  1  0.20273585  0.39775335  0.60470014  1
  Nb  Nb136  1  0.40286913  0.20570348  0.79431284  1
  Nb  Nb137  1  0.00116512  0.00020330  0.60538404  1
  Nb  Nb138  1  0.59688427  0.19925489  0.39976078  1
  Nb  Nb139  1  0.60116289  0.39248639  0.60162032  1
  Nb  Nb140  1  0.00693612  0.59786424  0.19346068  1
  Nb  Nb141  1  0.19044912  -0.00072253  -0.00518454  1
  Nb  Nb142  1  0.19750287  0.39506003  -0.00070144  1
  Nb  Nb143  1  -0.00346622  0.80152590  -0.00713554  1
  Nb  Nb144  1  0.80607563  0.40012800  0.79899842  1
  Nb  Nb145  1  0.80374559  0.20293501  -0.00744327  1
  Nb  Nb146  1  0.80401062  0.39601949  0.60593662  1
  Nb  Nb147  1  0.39462624  0.60733041  0.20574033  1
  Nb  Nb148  1  0.19740763  0.80948363  0.60239964  1
  Nb  Nb149  1  0.60513260  0.39639141  0.40600626  1
  Pd  Pd150  1  0.19157177  -0.00746383  0.59846017  1
  Pd  Pd151  1  0.59500400  0.60335383  0.20361566  1
  Pd  Pd152  1  0.79350968  0.80673408  0.20269786  1
  Pd  Pd153  1  0.38868224  0.40754384  0.18878585  1
  Pd  Pd154  1  0.19436919  0.60314707  0.59868182  1
  Pd  Pd155  1  0.59854705  0.00697152  0.40968999  1
  Pd  Pd156  1  0.59415849  0.80698723  0.59974338  1
  Pd  Pd157  1  0.00372913  0.18904599  0.60701386  1
  Pd  Pd158  1  0.00297473  0.59776983  0.38859165  1
  Pd  Pd159  1  -0.01309070  0.79548550  0.80713661  1
  Pd  Pd160  1  0.39550383  0.80096730  0.40479602  1
  Pd  Pd161  1  0.60563828  0.19713111  -0.00276440  1
  Pd  Pd162  1  -0.00267699  0.79409966  0.19081029  1
  Pd  Pd163  1  0.80323271  -0.00845592  0.20702495  1
  Pd  Pd164  1  0.59544744  0.79977733  0.80335785  1
  Pd  Pd165  1  0.20656620  0.79610237  0.41374530  1
  Pd  Pd166  1  -0.00061188  0.60345468  0.60509463  1
  Pd  Pd167  1  0.60124619  0.00373152  0.79644425  1
  Pd  Pd168  1  0.40801876  0.61080792  0.39691983  1
  Pd  Pd169  1  0.59735010  0.19014852  0.20421400  1
  Pd  Pd170  1  0.20970114  0.80941109  0.79626814  1
  Pd  Pd171  1  0.20798416  -0.00415489  0.80384809  1
  Pd  Pd172  1  0.60284176  0.19568031  0.59598364  1
  Pd  Pd173  1  -0.00781185  0.61370034  0.79674557  1
  Pd  Pd174  1  -0.00610833  0.40601858  0.39394443  1
  Pd  Pd175  1  0.20354543  0.20123586  -0.00437520  1
  Pd  Pd176  1  -0.00194126  0.19913354  -0.00323264  1
  Pd  Pd177  1  0.39233174  0.20339705  -0.00687166  1
  Pd  Pd178  1  0.59647758  -0.00045397  0.59845957  1
  Pd  Pd179  1  0.59913599  -0.00494789  0.19717323  1
  Pd  Pd180  1  0.00672937  0.61299226  0.00696382  1
  Pd  Pd181  1  0.18998196  0.40771148  0.80127522  1
  Pd  Pd182  1  0.80271042  0.40543290  0.19874955  1
  Pd  Pd183  1  0.00102458  0.19061242  0.20610357  1
  Pd  Pd184  1  0.79761139  0.20033725  0.79683598  1
  Pd  Pd185  1  0.39763687  0.40276355  0.79934234  1
  Pd  Pd186  1  0.79683133  0.60208846  0.39379167  1
  Pd  Pd187  1  0.40778655  0.79504279  0.80061162  1
  Pd  Pd188  1  0.39758447  0.80029122  0.19816271  1
  Pd  Pd189  1  0.19996486  0.60409663  0.20163333  1
  Pd  Pd190  1  0.19322122  0.00335066  0.18703396  1
  Pd  Pd191  1  0.39889772  0.19296939  0.39503728  1
  Pd  Pd192  1  0.40210150  0.60924209  0.79836125  1
  Pd  Pd193  1  0.60452381  0.40040090  0.19725652  1
  Pd  Pd194  1  0.39365053  -0.00047437  -0.00002696  1
  Pd  Pd195  1  0.20969418  0.39802953  0.19593749  1
  Pd  Pd196  1  0.80832209  -0.00408327  0.60452911  1
  Pd  Pd197  1  0.00605855  0.40317273  0.60418191  1
  Pd  Pd198  1  0.19563999  0.60725918  0.40736695  1
  Pd  Pd199  1  0.60347918  0.79195205  0.40479090  1
  Rh  Rh200  1  0.40647742  0.80297222  -0.00479714  1
  Rh  Rh201  1  0.60059408  0.00090522  -0.00242245  1
  Rh  Rh202  1  0.19704209  0.60238163  0.80252665  1
  Rh  Rh203  1  0.40001347  -0.00860013  0.20141773  1
  Rh  Rh204  1  0.00630822  0.81152522  0.59583097  1
  Rh  Rh205  1  0.39304497  -0.00676226  0.40140919  1
  Rh  Rh206  1  0.40117851  0.01164968  0.79896250  1
  Rh  Rh207  1  0.00354158  0.39489854  0.80273342  1
  Rh  Rh208  1  0.19837025  0.81149247  -0.01525614  1
  Rh  Rh209  1  0.00068444  0.40885041  0.20968811  1
  Rh  Rh210  1  0.80012960  -0.00508662  0.39680476  1
  Rh  Rh211  1  0.39492636  0.39186075  0.41149994  1
  Rh  Rh212  1  0.80148590  0.80551650  0.60050878  1
  Rh  Rh213  1  -0.00602162  0.00357416  0.79438428  1
  Rh  Rh214  1  0.81402467  0.59852755  0.61264013  1
  Rh  Rh215  1  -0.00199034  0.00082715  0.39688511  1
  Rh  Rh216  1  -0.00009748  0.79803468  0.39868424  1
  Rh  Rh217  1  0.80109738  0.19533980  0.19461606  1
  Rh  Rh218  1  0.60362400  0.59834470  0.00714822  1
  Rh  Rh219  1  0.40114180  -0.00090751  0.60158906  1
  Rh  Rh220  1  0.80125011  0.00768126  -0.00902109  1
  Rh  Rh221  1  0.20949008  0.79573996  0.20408232  1
  Rh  Rh222  1  0.79832575  0.80306766  -0.00601736  1
  Rh  Rh223  1  0.80788867  0.20122560  0.60472327  1
  Rh  Rh224  1  0.38791291  0.20079917  0.60767480  1
  Rh  Rh225  1  0.19339580  0.59188031  -0.00728536  1
  Rh  Rh226  1  0.60523936  0.39291103  0.79679061  1
  Rh  Rh227  1  0.20284066  0.19700506  0.39347419  1
  Rh  Rh228  1  0.78956588  0.59356971  -0.00390469  1
  Rh  Rh229  1  0.39930698  0.19312953  0.20533913  1
  Rh  Rh230  1  0.60147707  0.80309355  -0.00574172  1
  Rh  Rh231  1  0.19906718  0.20148304  0.20489020  1
  Rh  Rh232  1  0.79578469  0.00181825  0.79435054  1
  Rh  Rh233  1  0.40276446  0.59913915  0.00747207  1
  Rh  Rh234  1  0.39463531  0.80116574  0.60558810  1
  Rh  Rh235  1  0.60347552  0.80676370  0.19683825  1
  Rh  Rh236  1  0.00248499  0.19720889  0.39349287  1
  Rh  Rh237  1  0.00566513  0.38784456  -0.01107722  1
  Rh  Rh238  1  0.80576430  0.59720993  0.20322914  1
  Rh  Rh239  1  0.40406110  0.59566663  0.61077634  1
  Rh  Rh240  1  0.19937213  0.20291498  0.60355082  1
  Rh  Rh241  1  0.58977852  0.60143881  0.59642279  1
  Rh  Rh242  1  0.20612580  0.19371827  0.80113407  1
  Rh  Rh243  1  0.20462898  0.39619390  0.40988356  1
  Rh  Rh244  1  0.00162494  0.19605364  0.79470261  1
  Rh  Rh245  1  0.79544747  0.79680587  0.39876949  1
  Rh  Rh246  1  0.20751480  -0.00560389  0.40627122  1
  Rh  Rh247  1  0.79328441  0.20379612  0.39384883  1
  Rh  Rh248  1  0.60256612  0.61678641  0.80101134  1
  Rh  Rh249  1  0.79737085  0.79007848  0.80356557  1
