# generated using pymatgen
data_ZrScNbPdRh
_symmetry_space_group_name_H-M   'P 1'
_cell_length_a   16.55458531
_cell_length_b   16.55377222
_cell_length_c   16.55278107
_cell_angle_alpha   90.00649159
_cell_angle_beta   90.01626884
_cell_angle_gamma   89.99863634
_symmetry_Int_Tables_number   1
_chemical_formula_structural   ZrScNbPdRh
_chemical_formula_sum   'Zr50 Sc50 Nb50 Pd50 Rh50'
_cell_volume   4536.13771955
_cell_formula_units_Z   50
loop_
 _symmetry_equiv_pos_site_id
 _symmetry_equiv_pos_as_xyz
  1  'x, y, z'
loop_
 _atom_site_type_symbol
 _atom_site_label
 _atom_site_symmetry_multiplicity
 _atom_site_fract_x
 _atom_site_fract_y
 _atom_site_fract_z
 _atom_site_occupancy
  Zr  Zr0  1  0.70155694  0.70027946  0.10039527  1
  Zr  Zr1  1  0.29291980  0.89302719  0.11147710  1
  Zr  Zr2  1  0.69987392  0.09665777  0.70716591  1
  Zr  Zr3  1  0.10358343  0.49568875  0.90092308  1
  Zr  Zr4  1  0.10012684  0.10148884  0.90118062  1
  Zr  Zr5  1  0.09834926  0.90421297  0.91234698  1
  Zr  Zr6  1  0.70339130  0.90188395  0.89849769  1
  Zr  Zr7  1  0.10705191  0.70605646  0.69165572  1
  Zr  Zr8  1  0.70094533  0.51016926  0.49622133  1
  Zr  Zr9  1  0.90176994  0.49065925  0.09643483  1
  Zr  Zr10  1  0.90048288  0.29644158  0.49860542  1
  Zr  Zr11  1  0.30301247  0.09642300  0.90557510  1
  Zr  Zr12  1  0.69209685  0.49485052  0.89974695  1
  Zr  Zr13  1  0.49843075  0.49541409  0.70491705  1
  Zr  Zr14  1  0.50155698  0.90016762  0.69980282  1
  Zr  Zr15  1  0.90440424  0.10320303  0.30182839  1
  Zr  Zr16  1  0.09994964  0.50229499  0.09865471  1
  Zr  Zr17  1  0.50377869  0.09791767  0.89892157  1
  Zr  Zr18  1  0.89998330  0.69580917  0.10392430  1
  Zr  Zr19  1  0.09971804  0.30885632  0.09899538  1
  Zr  Zr20  1  0.49973649  0.70002735  0.88979924  1
  Zr  Zr21  1  0.29414622  0.69640369  0.49863346  1
  Zr  Zr22  1  0.30248852  0.49351153  0.69801353  1
  Zr  Zr23  1  0.69175338  0.90525600  0.50325672  1
  Zr  Zr24  1  0.08945420  0.48701865  0.68803524  1
  Zr  Zr25  1  0.69790913  0.30093429  0.50082215  1
  Zr  Zr26  1  0.89351326  0.11268686  0.10233126  1
  Zr  Zr27  1  0.49279978  0.50322714  0.49443305  1
  Zr  Zr28  1  0.69829202  0.70324647  0.90620304  1
  Zr  Zr29  1  0.90319839  0.50995599  0.50621213  1
  Zr  Zr30  1  0.09706199  0.90516574  0.68985092  1
  Zr  Zr31  1  0.50365677  0.10109301  0.09523119  1
  Zr  Zr32  1  0.69473465  0.09820847  0.10242544  1
  Zr  Zr33  1  0.29539034  0.09227839  0.49967708  1
  Zr  Zr34  1  0.89720283  0.89355087  0.70272295  1
  Zr  Zr35  1  0.50669772  0.90329588  0.09939323  1
  Zr  Zr36  1  0.49942606  0.30563021  0.90578487  1
  Zr  Zr37  1  0.70058424  0.90151053  0.69872482  1
  Zr  Zr38  1  0.70001940  0.70681737  0.69942703  1
  Zr  Zr39  1  0.10454837  0.50512303  0.30513713  1
  Zr  Zr40  1  0.30262756  0.30022982  0.10050733  1
  Zr  Zr41  1  0.50132235  0.70061375  0.49490185  1
  Zr  Zr42  1  0.90215268  0.70142914  0.49562445  1
  Zr  Zr43  1  0.89616189  0.10522243  0.50021650  1
  Zr  Zr44  1  0.91104469  0.89301751  0.10466310  1
  Zr  Zr45  1  0.70146305  0.89995257  0.09342548  1
  Zr  Zr46  1  0.29784965  0.50019877  0.89877901  1
  Zr  Zr47  1  0.69549950  0.49471700  0.69751324  1
  Zr  Zr48  1  0.50099049  0.90238955  0.89869308  1
  Zr  Zr49  1  0.69374994  0.91216365  0.30317898  1
  Sc  Sc50  1  0.29267746  0.09465838  0.30647812  1
  Sc  Sc51  1  0.49395886  0.09419119  0.70345720  1
  Sc  Sc52  1  0.10269166  0.89749597  0.29449577  1
  Sc  Sc53  1  0.29711053  0.90505253  0.49752486  1
  Sc  Sc54  1  0.50762286  0.09813112  0.30045622  1
  Sc  Sc55  1  0.30113423  0.29899590  0.90163176  1
  Sc  Sc56  1  0.91468775  0.30628260  0.70918127  1
  Sc  Sc57  1  0.70130120  0.51245796  0.29591338  1
  Sc  Sc58  1  0.29451551  0.89938232  0.30641446  1
  Sc  Sc59  1  0.29920441  0.89940422  0.69592795  1
  Sc  Sc60  1  0.29964400  0.29823786  0.49618510  1
  Sc  Sc61  1  0.49380231  0.29825912  0.50084774  1
  Sc  Sc62  1  0.70055293  0.50792130  0.10136100  1
  Sc  Sc63  1  0.29678572  0.30423708  0.30418234  1
  Sc  Sc64  1  0.10278798  0.70810028  0.09962721  1
  Sc  Sc65  1  0.10237001  0.29880035  0.30169904  1
  Sc  Sc66  1  0.90791469  0.70418301  0.29310121  1
  Sc  Sc67  1  0.09111763  0.29044875  0.89635600  1
  Sc  Sc68  1  0.30161689  0.70081171  0.70953539  1
  Sc  Sc69  1  0.70437236  0.70089596  0.49758605  1
  Sc  Sc70  1  0.69792181  0.10855398  0.30366330  1
  Sc  Sc71  1  0.70232729  0.29541555  0.89637997  1
  Sc  Sc72  1  0.70199315  0.69332624  0.29824990  1
  Sc  Sc73  1  0.90005501  0.29449674  0.28704583  1
  Sc  Sc74  1  0.90487781  0.90056921  0.51055224  1
  Sc  Sc75  1  0.48561679  0.09521092  0.50084351  1
  Sc  Sc76  1  0.09849239  0.70097136  0.30589409  1
  Sc  Sc77  1  0.68890923  0.30592899  0.70339676  1
  Sc  Sc78  1  0.90269535  0.51332241  0.29181743  1
  Sc  Sc79  1  0.90041115  0.10490308  0.69438357  1
  Sc  Sc80  1  0.49491152  0.30365025  0.69858031  1
  Sc  Sc81  1  0.30297189  0.89661175  0.89336799  1
  Sc  Sc82  1  0.30501756  0.09894792  0.69408350  1
  Sc  Sc83  1  0.10503159  0.09983596  0.29997237  1
  Sc  Sc84  1  0.29420532  0.48506697  0.09241945  1
  Sc  Sc85  1  0.30162935  0.29357656  0.69106073  1
  Sc  Sc86  1  0.10668817  0.30591040  0.50805138  1
  Sc  Sc87  1  0.11594257  0.69530182  0.90021184  1
  Sc  Sc88  1  0.30098131  0.71108538  0.30049752  1
  Sc  Sc89  1  0.50576868  0.69943605  0.10539658  1
  Sc  Sc90  1  0.49001913  0.29826177  0.30292111  1
  Sc  Sc91  1  0.70678280  0.29153423  0.10738268  1
  Sc  Sc92  1  0.29286808  0.49767519  0.49260720  1
  Sc  Sc93  1  0.11030212  0.08866424  0.09920544  1
  Sc  Sc94  1  0.10603215  0.89162896  0.50438964  1
  Sc  Sc95  1  0.89171620  0.70558892  0.90227143  1
  Sc  Sc96  1  0.89334493  0.70337479  0.68827597  1
  Sc  Sc97  1  0.50093790  0.49071325  0.09471305  1
  Sc  Sc98  1  0.89602339  0.90173155  0.90740550  1
  Sc  Sc99  1  0.49769908  0.69881884  0.30297422  1
  Nb  Nb100  1  0.30213945  0.69939435  0.10301331  1
  Nb  Nb101  1  0.90310098  0.29879552  0.91336609  1
  Nb  Nb102  1  0.09992958  0.50493541  0.49533437  1
  Nb  Nb103  1  0.49866897  0.89769442  0.49529282  1
  Nb  Nb104  1  0.49841707  0.29802072  0.10444710  1
  Nb  Nb105  1  0.09628889  0.08918493  0.50838287  1
  Nb  Nb106  1  0.09800070  0.10424151  0.70186433  1
  Nb  Nb107  1  0.30200565  0.09491133  0.10267309  1
  Nb  Nb108  1  0.49681638  0.50054804  0.29787764  1
  Nb  Nb109  1  0.90269442  0.90258283  0.29954452  1
  Nb  Nb110  1  0.90003251  0.48877947  0.89515868  1
  Nb  Nb111  1  0.10204635  0.90118851  0.10128316  1
  Nb  Nb112  1  0.30185543  0.69670948  0.90431196  1
  Nb  Nb113  1  0.30814631  0.49652598  0.30216795  1
  Nb  Nb114  1  0.70457628  0.10619968  0.50630067  1
  Nb  Nb115  1  0.89996794  0.49868227  0.70214721  1
  Nb  Nb116  1  0.71022768  0.10069806  0.89936155  1
  Nb  Nb117  1  0.89685147  0.11608788  0.89999447  1
  Nb  Nb118  1  0.49703281  0.90102864  0.30311531  1
  Nb  Nb119  1  0.49580301  0.49690500  0.89948031  1
  Nb  Nb120  1  0.10383507  0.29658746  0.70266003  1
  Nb  Nb121  1  0.10311840  0.69157610  0.49577253  1
  Nb  Nb122  1  0.50087556  0.70221727  0.69709505  1
  Nb  Nb123  1  0.90022518  0.30080244  0.09281278  1
  Nb  Nb124  1  0.69376819  0.30427126  0.30223858  1
  Nb  Nb125  1  0.40089818  -0.00024060  0.20002041  1
  Nb  Nb126  1  0.19463918  0.39369089  0.79268921  1
  Nb  Nb127  1  0.39468460  0.59305382  0.19701339  1
  Nb  Nb128  1  0.80139859  0.40252989  0.39863835  1
  Nb  Nb129  1  0.39798464  0.19288177  0.19505416  1
  Nb  Nb130  1  0.60247896  0.19305050  0.59729348  1
  Nb  Nb131  1  0.80455724  0.40382461  0.59788458  1
  Nb  Nb132  1  0.39624334  0.60180676  0.00005381  1
  Nb  Nb133  1  0.40739103  0.79797793  0.59745883  1
  Nb  Nb134  1  0.60137792  0.40336140  0.39469279  1
  Nb  Nb135  1  0.80374571  0.81075408  0.39466791  1
  Nb  Nb136  1  0.60038192  0.80688106  0.20481678  1
  Nb  Nb137  1  0.39807867  0.79233870  0.00183251  1
  Nb  Nb138  1  0.19164832  0.00529807  0.79808101  1
  Nb  Nb139  1  0.80494607  -0.00091122  0.20282265  1
  Nb  Nb140  1  0.80396526  0.59163670  0.79986636  1
  Nb  Nb141  1  0.59351742  0.60271408  0.60323210  1
  Nb  Nb142  1  -0.00530258  0.59954997  0.79964314  1
  Nb  Nb143  1  -0.00330626  0.59482465  -0.00809238  1
  Nb  Nb144  1  0.59720865  0.39746323  0.20609584  1
  Nb  Nb145  1  0.00389915  0.79999958  0.80026769  1
  Nb  Nb146  1  -0.00035251  0.00097724  0.40256074  1
  Nb  Nb147  1  0.20984853  0.59931744  0.19958811  1
  Nb  Nb148  1  0.00106591  0.00391371  0.80125627  1
  Nb  Nb149  1  -0.00341808  0.40550639  0.40346106  1
  Pd  Pd150  1  0.20448477  0.19783217  0.19849033  1
  Pd  Pd151  1  0.80596782  0.21094533  0.79361195  1
  Pd  Pd152  1  0.19317156  0.19928749  0.40869401  1
  Pd  Pd153  1  0.80007984  0.39477894  0.79573554  1
  Pd  Pd154  1  0.20905142  0.19917257  0.79883956  1
  Pd  Pd155  1  -0.00081605  0.40011742  0.20991444  1
  Pd  Pd156  1  0.39960608  0.20178439  0.79914769  1
  Pd  Pd157  1  0.60505623  0.59861669  0.79579730  1
  Pd  Pd158  1  0.20190735  0.40409482  0.20740717  1
  Pd  Pd159  1  0.00869099  0.19495087  0.01205733  1
  Pd  Pd160  1  0.59280263  0.20122565  0.40789173  1
  Pd  Pd161  1  0.81176452  0.00443797  0.80282980  1
  Pd  Pd162  1  0.20198651  0.59472922  0.60465094  1
  Pd  Pd163  1  0.60879077  0.39148191  0.01123844  1
  Pd  Pd164  1  0.60859945  0.79522739  0.39230886  1
  Pd  Pd165  1  0.59514970  0.01288057  0.41016541  1
  Pd  Pd166  1  0.79407818  0.40330636  0.20552345  1
  Pd  Pd167  1  0.58952043  0.59892286  0.00232570  1
  Pd  Pd168  1  -0.01126215  0.01116176  -0.00080967  1
  Pd  Pd169  1  0.39416530  0.80316626  0.40570854  1
  Pd  Pd170  1  0.59222485  0.00949182  0.59617525  1
  Pd  Pd171  1  0.01174021  0.19813705  0.19230539  1
  Pd  Pd172  1  0.39259638  -0.01330140  0.00593239  1
  Pd  Pd173  1  0.20678166  0.80282560  -0.00087501  1
  Pd  Pd174  1  0.80309095  -0.00092555  0.60033848  1
  Pd  Pd175  1  0.00376686  0.20444154  0.60007818  1
  Pd  Pd176  1  0.00226737  0.78778456  -0.00681264  1
  Pd  Pd177  1  0.39574049  0.19401178  0.39258320  1
  Pd  Pd178  1  0.80785416  0.00269519  0.00690978  1
  Pd  Pd179  1  0.39902875  0.59853266  0.80115445  1
  Pd  Pd180  1  0.79807997  0.20664111  0.39160631  1
  Pd  Pd181  1  0.39500773  0.39687170  0.59153177  1
  Pd  Pd182  1  0.19936087  0.19482382  0.59521191  1
  Pd  Pd183  1  0.80658333  0.59348276  -0.00697778  1
  Pd  Pd184  1  0.40079200  0.20081398  0.00298517  1
  Pd  Pd185  1  0.78990490  0.39416740  0.00321251  1
  Pd  Pd186  1  0.79420207  0.21345900  0.61494762  1
  Pd  Pd187  1  0.00253994  0.60744071  0.60549042  1
  Pd  Pd188  1  0.01190565  0.20148695  0.40482898  1
  Pd  Pd189  1  0.60195726  0.80520387  0.80079971  1
  Pd  Pd190  1  0.00195994  0.00413351  0.20388597  1
  Pd  Pd191  1  0.80573215  -0.00058995  0.40027479  1
  Pd  Pd192  1  0.59243295  0.20205406  0.79455603  1
  Pd  Pd193  1  0.00031003  0.80814884  0.40293332  1
  Pd  Pd194  1  0.19533896  0.80945110  0.80176988  1
  Pd  Pd195  1  0.79262805  0.80648518  0.20830297  1
  Pd  Pd196  1  0.40019621  0.60521780  0.60162950  1
  Pd  Pd197  1  0.60758176  0.20375278  -0.00183901  1
  Pd  Pd198  1  0.19200632  0.58990329  0.78773892  1
  Pd  Pd199  1  0.19754646  0.20220199  0.00391304  1
  Rh  Rh200  1  0.39946274  0.80023144  0.79821397  1
  Rh  Rh201  1  0.79378441  0.20514325  -0.00218040  1
  Rh  Rh202  1  0.59892948  -0.00174564  0.20254049  1
  Rh  Rh203  1  0.19331772  0.79364593  0.20489455  1
  Rh  Rh204  1  0.01114832  0.60561391  0.18998534  1
  Rh  Rh205  1  0.00255702  0.40058505  -0.00489196  1
  Rh  Rh206  1  0.20347049  0.40036732  0.60083877  1
  Rh  Rh207  1  0.19484312  0.38639882  -0.01278996  1
  Rh  Rh208  1  0.40217608  0.39862924  0.40173124  1
  Rh  Rh209  1  0.60911172  0.00751951  -0.01217399  1
  Rh  Rh210  1  0.59053581  0.59740536  0.20001125  1
  Rh  Rh211  1  0.18563568  -0.00257098  0.40281582  1
  Rh  Rh212  1  0.20157790  0.60328221  0.01143637  1
  Rh  Rh213  1  0.81135692  0.60998391  0.38996852  1
  Rh  Rh214  1  0.20899129  -0.00678594  -0.00261197  1
  Rh  Rh215  1  0.20192107  0.00427016  0.60580093  1
  Rh  Rh216  1  0.78980509  0.59646662  0.61152447  1
  Rh  Rh217  1  0.79532908  0.19725412  0.20574067  1
  Rh  Rh218  1  0.19437658  0.40117618  0.39992833  1
  Rh  Rh219  1  -0.00653180  0.19658968  0.79874351  1
  Rh  Rh220  1  -0.00499417  0.00405631  0.60096638  1
  Rh  Rh221  1  0.41095214  0.80328882  0.19625129  1
  Rh  Rh222  1  0.39303921  0.39405494  0.80293194  1
  Rh  Rh223  1  0.59533139  0.79571192  0.59660805  1
  Rh  Rh224  1  0.00358117  0.79176592  0.59944659  1
  Rh  Rh225  1  0.40009799  -0.00212534  0.39274346  1
  Rh  Rh226  1  0.40451915  0.39665435  0.19841479  1
  Rh  Rh227  1  0.60331080  0.00005926  0.80428423  1
  Rh  Rh228  1  0.00865283  0.79973347  0.20023827  1
  Rh  Rh229  1  0.79362439  0.80586759  0.58701224  1
  Rh  Rh230  1  0.40094189  0.40363023  -0.00135545  1
  Rh  Rh231  1  0.80357800  0.79405310  0.80225871  1
  Rh  Rh232  1  0.59196720  0.20793056  0.20300500  1
  Rh  Rh233  1  0.80335439  0.80214301  0.00311887  1
  Rh  Rh234  1  0.20700193  0.60211066  0.39086576  1
  Rh  Rh235  1  0.60175266  0.40285082  0.58797290  1
  Rh  Rh236  1  0.59298008  0.79579723  0.00332816  1
  Rh  Rh237  1  0.59577249  0.59821190  0.40119185  1
  Rh  Rh238  1  0.20490341  -0.00222242  0.20301649  1
  Rh  Rh239  1  0.20999167  0.79619571  0.59474941  1
  Rh  Rh240  1  0.80266991  0.59962892  0.19665351  1
  Rh  Rh241  1  -0.00151392  0.59750628  0.39935764  1
  Rh  Rh242  1  -0.00485197  0.39539204  0.58987590  1
  Rh  Rh243  1  0.59275125  0.39660839  0.80675688  1
  Rh  Rh244  1  0.39362591  0.60252492  0.39096923  1
  Rh  Rh245  1  0.39080531  -0.00030024  0.79862009  1
  Rh  Rh246  1  0.40074851  -0.01221010  0.59820873  1
  Rh  Rh247  1  0.19571682  0.79817645  0.40297078  1
  Rh  Rh248  1  0.40703211  0.19890958  0.59940577  1
  Rh  Rh249  1  0.00640020  0.39836404  0.80702702  1
