# generated using pymatgen
data_ZrScNbPdRh
_symmetry_space_group_name_H-M   'P 1'
_cell_length_a   16.55866645
_cell_length_b   16.55798578
_cell_length_c   16.55530948
_cell_angle_alpha   89.98847011
_cell_angle_beta   90.00539998
_cell_angle_gamma   89.99717846
_symmetry_Int_Tables_number   1
_chemical_formula_structural   ZrScNbPdRh
_chemical_formula_sum   'Zr50 Sc50 Nb50 Pd50 Rh50'
_cell_volume   4539.10423146
_cell_formula_units_Z   50
loop_
 _symmetry_equiv_pos_site_id
 _symmetry_equiv_pos_as_xyz
  1  'x, y, z'
loop_
 _atom_site_type_symbol
 _atom_site_label
 _atom_site_symmetry_multiplicity
 _atom_site_fract_x
 _atom_site_fract_y
 _atom_site_fract_z
 _atom_site_occupancy
  Zr  Zr0  1  0.10613264  0.09791676  0.70039577  1
  Zr  Zr1  1  0.70104324  0.50024476  0.90617861  1
  Zr  Zr2  1  0.10253880  0.29505916  0.48834910  1
  Zr  Zr3  1  0.29533474  0.09929041  0.89215689  1
  Zr  Zr4  1  0.70091722  0.89976653  0.09824554  1
  Zr  Zr5  1  0.30313035  0.50129462  0.29789590  1
  Zr  Zr6  1  0.29971783  0.29634141  0.89987579  1
  Zr  Zr7  1  0.49656581  0.68928933  0.50160961  1
  Zr  Zr8  1  0.89597389  0.50376920  0.10274662  1
  Zr  Zr9  1  0.49486875  0.50590069  0.68740127  1
  Zr  Zr10  1  0.89300855  0.10093666  0.30937207  1
  Zr  Zr11  1  0.50671159  0.69965036  0.70134118  1
  Zr  Zr12  1  0.69977616  0.29299559  0.29616846  1
  Zr  Zr13  1  0.09472288  0.30287402  0.70310903  1
  Zr  Zr14  1  0.30338262  0.90519277  0.70640374  1
  Zr  Zr15  1  0.69588847  0.89139776  0.90754815  1
  Zr  Zr16  1  0.10222393  0.49589462  0.90039154  1
  Zr  Zr17  1  0.89919382  0.50141691  0.91506766  1
  Zr  Zr18  1  0.50510880  0.89819693  0.50884349  1
  Zr  Zr19  1  0.89693577  0.70557654  0.90650181  1
  Zr  Zr20  1  0.50320959  0.89778539  0.89524414  1
  Zr  Zr21  1  0.30855462  0.50344842  0.50208376  1
  Zr  Zr22  1  0.09949399  0.90341759  0.10645663  1
  Zr  Zr23  1  0.50254770  0.30154076  0.29741151  1
  Zr  Zr24  1  0.30039109  0.90103051  0.50555774  1
  Zr  Zr25  1  0.69459997  0.50022514  0.69702507  1
  Zr  Zr26  1  0.70458337  0.29977888  0.70174787  1
  Zr  Zr27  1  0.89600951  0.29708279  0.49758386  1
  Zr  Zr28  1  0.89409718  0.29444161  0.69827753  1
  Zr  Zr29  1  0.90511105  0.50132279  0.49588271  1
  Zr  Zr30  1  0.90361155  0.69786509  0.30372932  1
  Zr  Zr31  1  0.10085670  0.49881890  0.70815254  1
  Zr  Zr32  1  0.09777584  0.69931120  0.70291643  1
  Zr  Zr33  1  0.89513968  0.30413307  0.29958050  1
  Zr  Zr34  1  0.70146445  0.10943940  0.70204165  1
  Zr  Zr35  1  0.69433094  0.49788480  0.29719095  1
  Zr  Zr36  1  0.10494432  0.30294501  0.91085190  1
  Zr  Zr37  1  0.29496474  0.28961481  0.69794044  1
  Zr  Zr38  1  0.90575314  0.70946869  0.70620502  1
  Zr  Zr39  1  0.50339446  0.90205773  0.08906830  1
  Zr  Zr40  1  0.08576453  0.49386968  0.09732535  1
  Zr  Zr41  1  0.09794482  0.70789651  0.29755920  1
  Zr  Zr42  1  0.31087722  0.50334785  0.10227695  1
  Zr  Zr43  1  0.30488037  0.09806161  0.70015417  1
  Zr  Zr44  1  0.30089793  0.70341754  0.90453475  1
  Zr  Zr45  1  0.49696170  0.68966483  0.10148824  1
  Zr  Zr46  1  0.88792777  0.90254801  0.89720147  1
  Zr  Zr47  1  0.50423256  0.10773032  0.90476021  1
  Zr  Zr48  1  0.49195452  0.10153734  0.50499616  1
  Zr  Zr49  1  0.30471049  0.29553121  0.49556256  1
  Sc  Sc50  1  0.69785411  0.50088990  0.09529628  1
  Sc  Sc51  1  0.69566645  0.11101686  0.09619164  1
  Sc  Sc52  1  0.89846824  0.89658892  0.09719812  1
  Sc  Sc53  1  0.08695997  0.70775264  0.09853845  1
  Sc  Sc54  1  0.09969939  0.09720329  0.09510512  1
  Sc  Sc55  1  0.69688503  0.89889859  0.50223354  1
  Sc  Sc56  1  0.89290747  0.29665878  0.89896596  1
  Sc  Sc57  1  0.68772738  0.69920216  0.49847468  1
  Sc  Sc58  1  0.50358639  0.10983323  0.30175019  1
  Sc  Sc59  1  0.51017627  0.28973645  0.69218627  1
  Sc  Sc60  1  0.90919099  0.49090714  0.69925498  1
  Sc  Sc61  1  0.90406587  0.09766703  0.71221735  1
  Sc  Sc62  1  0.09480525  0.10396934  0.30163560  1
  Sc  Sc63  1  0.70043511  0.30246250  0.09977831  1
  Sc  Sc64  1  0.49958870  0.50009507  0.09948244  1
  Sc  Sc65  1  0.89582880  0.31116847  0.09847085  1
  Sc  Sc66  1  0.29483295  0.49663809  0.89755778  1
  Sc  Sc67  1  0.09518800  0.89822110  0.50405305  1
  Sc  Sc68  1  0.29330327  0.69736055  0.30466955  1
  Sc  Sc69  1  0.09858786  0.10140636  0.90363967  1
  Sc  Sc70  1  0.90062955  0.91093239  0.29287023  1
  Sc  Sc71  1  0.50212812  0.30220316  0.09413696  1
  Sc  Sc72  1  0.91037205  0.90263434  0.70376462  1
  Sc  Sc73  1  0.30447813  0.09380969  0.09321270  1
  Sc  Sc74  1  0.71457712  0.10549817  0.49312020  1
  Sc  Sc75  1  0.69885590  0.70164672  0.08821621  1
  Sc  Sc76  1  0.50230920  0.90876542  0.70207114  1
  Sc  Sc77  1  0.30138739  0.89669376  0.09009062  1
  Sc  Sc78  1  0.29625417  0.10954828  0.50712959  1
  Sc  Sc79  1  0.69142676  0.89609531  0.70461803  1
  Sc  Sc80  1  0.09432910  0.49336335  0.30207473  1
  Sc  Sc81  1  0.49807206  0.69937611  0.89939575  1
  Sc  Sc82  1  0.11414230  0.90275838  0.91041187  1
  Sc  Sc83  1  0.29112623  0.30008177  0.29667535  1
  Sc  Sc84  1  0.50323815  0.90406159  0.29983230  1
  Sc  Sc85  1  0.90564153  0.09312943  0.09555704  1
  Sc  Sc86  1  0.08990867  0.70273412  0.49743231  1
  Sc  Sc87  1  0.90867813  0.90310536  0.49433051  1
  Sc  Sc88  1  0.29697280  0.69256818  0.49563411  1
  Sc  Sc89  1  0.70234628  0.10497625  0.90225686  1
  Sc  Sc90  1  0.30669236  0.70101248  0.09597500  1
  Sc  Sc91  1  0.09887663  0.70035829  0.89830074  1
  Sc  Sc92  1  0.69670382  0.49667081  0.49792082  1
  Sc  Sc93  1  0.29349884  0.30474660  0.10079769  1
  Sc  Sc94  1  0.30469775  0.89793147  0.89959667  1
  Sc  Sc95  1  0.50310684  0.29838628  0.49915588  1
  Sc  Sc96  1  0.89674882  0.49777262  0.30147337  1
  Sc  Sc97  1  0.70254743  0.30306685  0.50554283  1
  Sc  Sc98  1  0.29961125  0.69759075  0.71185675  1
  Sc  Sc99  1  0.10266056  0.89938518  0.69596922  1
  Nb  Nb100  1  0.69104516  0.29885269  0.90008082  1
  Nb  Nb101  1  0.50165338  0.09541696  0.70217925  1
  Nb  Nb102  1  0.10719303  0.89706881  0.29785838  1
  Nb  Nb103  1  0.90566178  0.09793903  0.49735030  1
  Nb  Nb104  1  0.49517899  0.50031870  0.49903675  1
  Nb  Nb105  1  0.30630907  0.09660916  0.29891315  1
  Nb  Nb106  1  0.50235655  0.09866568  0.10227433  1
  Nb  Nb107  1  0.09842226  0.29742463  0.29104488  1
  Nb  Nb108  1  0.70120142  0.69767139  0.70033537  1
  Nb  Nb109  1  0.70222864  0.09627049  0.29826031  1
  Nb  Nb110  1  0.29702152  0.49462410  0.70013870  1
  Nb  Nb111  1  0.69574485  0.70120852  0.29857747  1
  Nb  Nb112  1  0.90020919  0.69172611  0.10083363  1
  Nb  Nb113  1  0.30070146  0.89763798  0.30149017  1
  Nb  Nb114  1  0.89755173  0.70404430  0.49891266  1
  Nb  Nb115  1  0.89801407  0.09814695  0.89823743  1
  Nb  Nb116  1  0.49924321  0.49271388  0.90033416  1
  Nb  Nb117  1  0.50273165  0.30370430  0.89914398  1
  Nb  Nb118  1  0.70620748  0.90371750  0.29910633  1
  Nb  Nb119  1  0.09129845  0.09920848  0.49897015  1
  Nb  Nb120  1  0.49716809  0.50561420  0.29187304  1
  Nb  Nb121  1  0.70265438  0.70425608  0.89095331  1
  Nb  Nb122  1  0.09720114  0.30139554  0.10627966  1
  Nb  Nb123  1  0.09931408  0.49461008  0.50978956  1
  Nb  Nb124  1  0.50562713  0.69634443  0.29847777  1
  Nb  Nb125  1  0.40058147  0.79809280  0.59958382  1
  Nb  Nb126  1  0.60147509  0.80077839  0.20391715  1
  Nb  Nb127  1  0.39805141  -0.00090766  0.39781692  1
  Nb  Nb128  1  0.19635312  0.59718737  0.00606523  1
  Nb  Nb129  1  0.19313593  0.59985480  0.19455007  1
  Nb  Nb130  1  0.79756349  0.60794564  0.20138804  1
  Nb  Nb131  1  0.79866730  0.60396132  0.79734760  1
  Nb  Nb132  1  0.79745617  0.79858328  0.39745079  1
  Nb  Nb133  1  0.60409629  0.00160669  0.20197464  1
  Nb  Nb134  1  0.20515567  -0.00390063  0.20827110  1
  Nb  Nb135  1  0.80544646  -0.00124444  0.60011320  1
  Nb  Nb136  1  0.19652468  0.59080726  0.60349780  1
  Nb  Nb137  1  0.40601916  0.80098065  0.20706446  1
  Nb  Nb138  1  0.40665635  0.40734412  0.39649118  1
  Nb  Nb139  1  0.40032589  0.19557340  0.19842092  1
  Nb  Nb140  1  0.00007477  0.19428033  0.59436311  1
  Nb  Nb141  1  0.19990164  0.40108863  0.59800566  1
  Nb  Nb142  1  0.40553304  0.39717227  0.79659046  1
  Nb  Nb143  1  0.59499357  0.39988893  0.80289383  1
  Nb  Nb144  1  0.00119297  0.20656916  0.19994741  1
  Nb  Nb145  1  0.60398778  0.00348694  0.39547499  1
  Nb  Nb146  1  0.40430936  0.80169502  0.39905546  1
  Nb  Nb147  1  0.80404713  0.60764059  0.60209349  1
  Nb  Nb148  1  0.20276937  -0.00038530  0.39575620  1
  Nb  Nb149  1  0.80268118  0.79771135  0.59763035  1
  Pd  Pd150  1  0.60603264  0.19657641  0.40654739  1
  Pd  Pd151  1  0.80285089  0.41080616  0.59686157  1
  Pd  Pd152  1  0.59712085  0.60299471  -0.00582968  1
  Pd  Pd153  1  0.00993578  -0.00481373  0.80942333  1
  Pd  Pd154  1  0.19751380  0.40959720  0.19601670  1
  Pd  Pd155  1  0.00268318  0.20007279  0.80185441  1
  Pd  Pd156  1  0.00072248  0.39719620  0.39793116  1
  Pd  Pd157  1  0.20957018  0.79695668  0.19075437  1
  Pd  Pd158  1  0.39987612  0.20230312  0.00845612  1
  Pd  Pd159  1  0.00847633  -0.00627656  0.39237960  1
  Pd  Pd160  1  0.60635812  0.00585356  0.80768272  1
  Pd  Pd161  1  0.19831951  0.00397756  0.59298508  1
  Pd  Pd162  1  0.59729200  0.59282596  0.40008398  1
  Pd  Pd163  1  0.00742990  0.59780002  0.39836254  1
  Pd  Pd164  1  0.60041708  0.80741343  0.39482841  1
  Pd  Pd165  1  -0.00909227  0.59685493  0.80720594  1
  Pd  Pd166  1  0.20507575  0.78637870  0.60005746  1
  Pd  Pd167  1  0.61358392  0.01212411  0.59259001  1
  Pd  Pd168  1  0.79119057  -0.00311213  0.79406582  1
  Pd  Pd169  1  -0.00985574  0.80562888  0.20275043  1
  Pd  Pd170  1  0.01061668  0.81425502  0.81144180  1
  Pd  Pd171  1  0.60459024  0.19393734  0.59087530  1
  Pd  Pd172  1  0.40021755  0.00128467  -0.00991321  1
  Pd  Pd173  1  0.40062032  0.38842555  0.60038525  1
  Pd  Pd174  1  -0.00123344  -0.00637761  -0.00697825  1
  Pd  Pd175  1  0.18724908  0.59427961  0.40004215  1
  Pd  Pd176  1  0.79504019  0.00641682  0.00306374  1
  Pd  Pd177  1  0.40472280  -0.00126699  0.20228073  1
  Pd  Pd178  1  0.79638693  0.40565736  0.80443773  1
  Pd  Pd179  1  0.39650920  0.59193379  0.80404745  1
  Pd  Pd180  1  -0.00070922  0.60350343  0.60069407  1
  Pd  Pd181  1  0.20552871  0.40449467  0.40270203  1
  Pd  Pd182  1  0.20101237  0.80341520  0.40838636  1
  Pd  Pd183  1  -0.00793124  0.39575971  0.81109725  1
  Pd  Pd184  1  0.59537243  0.40175165  0.40248826  1
  Pd  Pd185  1  0.59955499  0.40108473  0.19046064  1
  Pd  Pd186  1  0.39607613  0.39961693  -0.00406400  1
  Pd  Pd187  1  0.19722318  0.80433278  0.80196250  1
  Pd  Pd188  1  0.40965542  0.20342061  0.79488905  1
  Pd  Pd189  1  0.80422886  0.20145451  0.00038847  1
  Pd  Pd190  1  0.79682017  0.00931741  0.18889779  1
  Pd  Pd191  1  0.79344595  0.60558468  0.40125080  1
  Pd  Pd192  1  0.79949602  0.79325807  0.20180298  1
  Pd  Pd193  1  -0.00672691  0.20489000  0.00663743  1
  Pd  Pd194  1  0.60221313  0.59537546  0.80683022  1
  Pd  Pd195  1  0.20205680  0.19045758  0.39299016  1
  Pd  Pd196  1  0.20038275  0.18730782  0.19559028  1
  Pd  Pd197  1  0.20197049  0.19659143  0.00773854  1
  Pd  Pd198  1  0.80939732  0.19431690  0.19181932  1
  Pd  Pd199  1  -0.00165548  0.80813587  -0.00393396  1
  Rh  Rh200  1  0.20430134  0.00195251  0.00592312  1
  Rh  Rh201  1  0.60708353  0.59644331  0.59298918  1
  Rh  Rh202  1  -0.00336306  0.80201377  0.59866717  1
  Rh  Rh203  1  0.39571238  0.20587306  0.39000652  1
  Rh  Rh204  1  0.59842709  0.20275552  0.80118502  1
  Rh  Rh205  1  0.79440472  0.39401413  0.00004956  1
  Rh  Rh206  1  0.40535900  0.80332866  0.79292245  1
  Rh  Rh207  1  0.40584778  0.19930593  0.60692826  1
  Rh  Rh208  1  0.79511595  -0.01011882  0.41044746  1
  Rh  Rh209  1  0.19868231  -0.00189475  0.80182055  1
  Rh  Rh210  1  0.00676244  0.60391423  -0.00361596  1
  Rh  Rh211  1  0.79708888  0.60815457  0.00027599  1
  Rh  Rh212  1  0.18790869  0.20448762  0.59903387  1
  Rh  Rh213  1  0.20197157  0.60087799  0.80397302  1
  Rh  Rh214  1  -0.00247431  0.59876364  0.20459565  1
  Rh  Rh215  1  0.79635632  0.20552360  0.39848596  1
  Rh  Rh216  1  0.80178012  0.79649917  0.00379010  1
  Rh  Rh217  1  -0.00620465  0.80680719  0.39403521  1
  Rh  Rh218  1  0.59877668  0.79573546  0.60640084  1
  Rh  Rh219  1  0.39147847  0.61310673  0.20841824  1
  Rh  Rh220  1  0.79311301  0.39666630  0.39916436  1
  Rh  Rh221  1  0.19118761  0.19976510  0.80447597  1
  Rh  Rh222  1  -0.00511493  0.00519368  0.60444733  1
  Rh  Rh223  1  0.60830547  0.60347280  0.19658901  1
  Rh  Rh224  1  -0.00438300  0.39072231  -0.00271470  1
  Rh  Rh225  1  0.79556935  0.80116087  0.79196848  1
  Rh  Rh226  1  -0.00326820  0.20356052  0.39559588  1
  Rh  Rh227  1  0.38760177  0.61169399  0.60717925  1
  Rh  Rh228  1  0.60474531  0.00711272  0.00140706  1
  Rh  Rh229  1  0.20160328  0.40634299  0.00897276  1
  Rh  Rh230  1  0.59452329  0.19666762  0.19596017  1
  Rh  Rh231  1  0.59534557  0.79106679  0.00013498  1
  Rh  Rh232  1  0.20823086  0.39116738  0.79519260  1
  Rh  Rh233  1  0.40647402  0.79968856  0.00230428  1
  Rh  Rh234  1  0.00945587  0.00766393  0.20298289  1
  Rh  Rh235  1  0.79976091  0.19776686  0.80795561  1
  Rh  Rh236  1  0.81158670  0.18759617  0.60218217  1
  Rh  Rh237  1  0.00366354  0.38680066  0.59339453  1
  Rh  Rh238  1  0.60213137  0.39818058  -0.00169003  1
  Rh  Rh239  1  0.59818559  0.20474271  0.00207738  1
  Rh  Rh240  1  0.40547258  0.00451469  0.80515086  1
  Rh  Rh241  1  -0.00408331  0.39489795  0.20408711  1
  Rh  Rh242  1  0.40156989  0.38963787  0.20548420  1
  Rh  Rh243  1  0.59652878  0.40174284  0.60205811  1
  Rh  Rh244  1  0.39889980  -0.00053124  0.60015756  1
  Rh  Rh245  1  0.39506829  0.59341867  -0.01143489  1
  Rh  Rh246  1  0.19902984  0.78995396  0.00508967  1
  Rh  Rh247  1  0.59812023  0.79819110  0.79905839  1
  Rh  Rh248  1  0.79427278  0.41127818  0.19982051  1
  Rh  Rh249  1  0.40688090  0.60074389  0.39055366  1
