# generated using pymatgen
data_ZrScNbPdRh
_symmetry_space_group_name_H-M   'P 1'
_cell_length_a   16.55738234
_cell_length_b   16.56137574
_cell_length_c   16.55889259
_cell_angle_alpha   90.02542983
_cell_angle_beta   90.02057517
_cell_angle_gamma   90.00168158
_symmetry_Int_Tables_number   1
_chemical_formula_structural   ZrScNbPdRh
_chemical_formula_sum   'Zr50 Sc50 Nb50 Pd50 Rh50'
_cell_volume   4540.66337299
_cell_formula_units_Z   50
loop_
 _symmetry_equiv_pos_site_id
 _symmetry_equiv_pos_as_xyz
  1  'x, y, z'
loop_
 _atom_site_type_symbol
 _atom_site_label
 _atom_site_symmetry_multiplicity
 _atom_site_fract_x
 _atom_site_fract_y
 _atom_site_fract_z
 _atom_site_occupancy
  Zr  Zr0  1  0.09807593  0.69414549  0.09445123  1
  Zr  Zr1  1  0.89941496  0.69402472  0.30624494  1
  Zr  Zr2  1  0.69638558  0.11965284  0.50395234  1
  Zr  Zr3  1  0.30031670  0.10351831  0.30492014  1
  Zr  Zr4  1  0.29008663  0.89754916  0.50150251  1
  Zr  Zr5  1  0.49924114  0.90645614  0.10145268  1
  Zr  Zr6  1  0.69048170  0.30422042  0.29929153  1
  Zr  Zr7  1  0.29441088  0.29897368  0.89595269  1
  Zr  Zr8  1  0.90105565  0.90437798  0.30603821  1
  Zr  Zr9  1  0.50520114  0.10292804  0.69950373  1
  Zr  Zr10  1  0.69593520  0.10052504  0.10341716  1
  Zr  Zr11  1  0.09119315  0.89461092  0.89037136  1
  Zr  Zr12  1  0.30743570  0.48330495  0.69318597  1
  Zr  Zr13  1  0.09921369  0.29771200  0.49709791  1
  Zr  Zr14  1  0.69175449  0.69859774  0.69624794  1
  Zr  Zr15  1  0.90106747  0.90033838  0.49921740  1
  Zr  Zr16  1  0.70246459  0.50844488  0.29729421  1
  Zr  Zr17  1  0.49152139  0.50812853  0.28876651  1
  Zr  Zr18  1  0.49397237  0.10247251  0.49494263  1
  Zr  Zr19  1  0.10826632  0.50005318  0.09248451  1
  Zr  Zr20  1  0.11014351  0.70331153  0.51457203  1
  Zr  Zr21  1  0.29458796  0.50260898  0.49368101  1
  Zr  Zr22  1  0.29485216  0.90512271  0.30750655  1
  Zr  Zr23  1  0.90827797  0.69888496  0.10632513  1
  Zr  Zr24  1  0.50792475  0.49563247  0.89099719  1
  Zr  Zr25  1  0.30708274  0.90355421  0.89516646  1
  Zr  Zr26  1  0.90481142  0.10072509  0.50176179  1
  Zr  Zr27  1  0.10249053  0.90397869  0.30591732  1
  Zr  Zr28  1  0.89475300  0.69664807  0.69394231  1
  Zr  Zr29  1  0.09690343  0.50284122  0.89839208  1
  Zr  Zr30  1  0.68563590  0.49767264  0.50412144  1
  Zr  Zr31  1  0.30418576  0.68805303  0.30297504  1
  Zr  Zr32  1  0.30329977  0.50258588  0.11145227  1
  Zr  Zr33  1  0.90290577  0.49457750  0.89786019  1
  Zr  Zr34  1  0.30572773  0.29686353  0.49683154  1
  Zr  Zr35  1  0.10371656  0.49502663  0.31373775  1
  Zr  Zr36  1  0.49899146  0.29985241  0.90270041  1
  Zr  Zr37  1  0.90342154  0.30523206  0.69903674  1
  Zr  Zr38  1  0.69948014  0.70003355  0.09980960  1
  Zr  Zr39  1  0.89983947  0.50252857  0.30292551  1
  Zr  Zr40  1  0.69706235  0.10306969  0.70017573  1
  Zr  Zr41  1  0.91658035  0.69928456  0.89665339  1
  Zr  Zr42  1  0.90008257  0.49781995  0.70771070  1
  Zr  Zr43  1  0.69291819  0.69808405  0.50037879  1
  Zr  Zr44  1  0.69431749  0.89807590  0.89824650  1
  Zr  Zr45  1  0.90038032  0.09421720  0.89125454  1
  Zr  Zr46  1  0.89442531  0.89764489  0.89450091  1
  Zr  Zr47  1  0.10444526  0.10432727  0.89232233  1
  Zr  Zr48  1  0.50375892  0.70019760  0.31105844  1
  Zr  Zr49  1  0.10216398  0.69827078  0.70905082  1
  Sc  Sc50  1  0.10293102  0.70361402  0.29334558  1
  Sc  Sc51  1  0.69977700  0.69942460  0.30486699  1
  Sc  Sc52  1  0.70175535  0.50000425  0.89193459  1
  Sc  Sc53  1  0.69956205  0.49937760  0.69968156  1
  Sc  Sc54  1  0.29793846  0.70802556  0.69821735  1
  Sc  Sc55  1  0.89627438  0.28956427  0.50253930  1
  Sc  Sc56  1  0.70267539  0.09243612  0.30084491  1
  Sc  Sc57  1  0.70078114  0.49872496  0.10616540  1
  Sc  Sc58  1  0.70448385  0.30167817  0.68280091  1
  Sc  Sc59  1  0.70287848  0.89823571  0.29958242  1
  Sc  Sc60  1  0.30545454  0.09398323  0.09419057  1
  Sc  Sc61  1  0.29044197  0.69071851  0.10566640  1
  Sc  Sc62  1  0.90065290  0.30214204  0.09372962  1
  Sc  Sc63  1  0.51135197  0.69811886  0.10004141  1
  Sc  Sc64  1  0.89512474  0.90328641  0.70834309  1
  Sc  Sc65  1  0.90033610  0.90177296  0.11490846  1
  Sc  Sc66  1  0.48885010  0.88549285  0.50377106  1
  Sc  Sc67  1  0.49924567  0.90106351  0.89234795  1
  Sc  Sc68  1  0.29730177  0.30157948  0.69989418  1
  Sc  Sc69  1  0.90473734  0.29010011  0.30870042  1
  Sc  Sc70  1  0.69567197  0.89597516  0.71035784  1
  Sc  Sc71  1  0.09588473  0.89819296  0.11733093  1
  Sc  Sc72  1  0.51217793  0.30079245  0.49113837  1
  Sc  Sc73  1  0.30094608  0.10371963  0.89827932  1
  Sc  Sc74  1  0.10609507  0.30279932  0.69540021  1
  Sc  Sc75  1  0.90276418  0.49925538  0.10289529  1
  Sc  Sc76  1  0.09832993  0.10067624  0.29793870  1
  Sc  Sc77  1  0.91024188  0.50875764  0.49974649  1
  Sc  Sc78  1  0.51032700  0.70521357  0.89718381  1
  Sc  Sc79  1  0.49531520  0.10547147  0.90051499  1
  Sc  Sc80  1  0.09829470  0.29480914  0.09494535  1
  Sc  Sc81  1  0.69465892  0.70407863  0.89241591  1
  Sc  Sc82  1  0.29023653  0.09600091  0.69927107  1
  Sc  Sc83  1  0.69454156  0.10025649  0.89261332  1
  Sc  Sc84  1  0.49111095  0.31013227  0.70573876  1
  Sc  Sc85  1  0.70346333  0.30394469  0.90828222  1
  Sc  Sc86  1  0.29208776  0.30666363  0.10090498  1
  Sc  Sc87  1  0.90318413  0.10487216  0.10511724  1
  Sc  Sc88  1  0.10903626  0.90370179  0.69115007  1
  Sc  Sc89  1  0.69728758  0.89989525  0.11166000  1
  Sc  Sc90  1  0.29478292  0.69908445  0.89053506  1
  Sc  Sc91  1  0.90070721  0.09695175  0.30327478  1
  Sc  Sc92  1  0.70212272  0.88679903  0.49739074  1
  Sc  Sc93  1  0.10082203  0.49505422  0.69592027  1
  Sc  Sc94  1  0.28976939  0.49517339  0.90242024  1
  Sc  Sc95  1  0.29764558  0.90706345  0.10504453  1
  Sc  Sc96  1  0.49460336  0.09491166  0.29926338  1
  Sc  Sc97  1  0.09730142  0.10291943  0.10829552  1
  Sc  Sc98  1  0.90418857  0.30853057  0.90377693  1
  Sc  Sc99  1  0.29718759  0.09415074  0.49405806  1
  Nb  Nb100  1  0.51034728  0.30063496  0.10291988  1
  Nb  Nb101  1  0.49748567  0.50216884  0.69615478  1
  Nb  Nb102  1  0.69752957  0.29603655  0.10497286  1
  Nb  Nb103  1  0.49958534  0.10175372  0.09853157  1
  Nb  Nb104  1  0.50198684  0.69534003  0.50288001  1
  Nb  Nb105  1  0.10533636  0.49734333  0.50321914  1
  Nb  Nb106  1  0.31705993  0.89761294  0.69959513  1
  Nb  Nb107  1  0.30573729  0.70132713  0.49850281  1
  Nb  Nb108  1  0.89770650  0.70754239  0.50205152  1
  Nb  Nb109  1  0.10285982  0.90232678  0.49680993  1
  Nb  Nb110  1  0.09481500  0.10243842  0.69454577  1
  Nb  Nb111  1  0.30357649  0.49754708  0.29677702  1
  Nb  Nb112  1  0.10183110  0.29502445  0.29501821  1
  Nb  Nb113  1  0.50167764  0.90152076  0.30203052  1
  Nb  Nb114  1  0.70144480  0.30211495  0.49333520  1
  Nb  Nb115  1  0.90096079  0.10267772  0.69771240  1
  Nb  Nb116  1  0.49335063  0.30294287  0.29368088  1
  Nb  Nb117  1  0.49255469  0.89595132  0.69855232  1
  Nb  Nb118  1  0.29991856  0.29988569  0.29827890  1
  Nb  Nb119  1  0.10198611  0.69633069  0.90263565  1
  Nb  Nb120  1  0.49493047  0.50088316  0.50124850  1
  Nb  Nb121  1  0.09980818  0.08636574  0.51659851  1
  Nb  Nb122  1  0.10269156  0.30424719  0.89894123  1
  Nb  Nb123  1  0.49603058  0.50071908  0.09695581  1
  Nb  Nb124  1  0.49833028  0.70593354  0.69388495  1
  Nb  Nb125  1  0.40350352  0.60140248  0.59803939  1
  Nb  Nb126  1  0.40197313  0.20029573  0.59664389  1
  Nb  Nb127  1  0.80272362  0.79942596  0.00065481  1
  Nb  Nb128  1  0.79449390  0.00557952  0.60155288  1
  Nb  Nb129  1  0.40596416  0.59705230  0.79429523  1
  Nb  Nb130  1  0.40534011  0.20662368  0.19600991  1
  Nb  Nb131  1  0.80404428  0.60691710  -0.00171464  1
  Nb  Nb132  1  0.80741696  0.20192330  0.79538079  1
  Nb  Nb133  1  0.59491742  -0.00489707  0.40752010  1
  Nb  Nb134  1  0.00204113  0.19993863  0.79503855  1
  Nb  Nb135  1  0.79885919  -0.00375083  0.00045450  1
  Nb  Nb136  1  0.19729562  0.80221522  -0.00322994  1
  Nb  Nb137  1  0.59802801  -0.00459918  0.59667273  1
  Nb  Nb138  1  0.19015109  -0.00657231  -0.00459239  1
  Nb  Nb139  1  0.40361382  0.59836898  -0.00477582  1
  Nb  Nb140  1  0.39534389  0.79604143  0.00449229  1
  Nb  Nb141  1  0.59829093  0.00359460  0.00443981  1
  Nb  Nb142  1  0.00164916  0.79916197  0.41055416  1
  Nb  Nb143  1  0.00725989  0.39547055  0.20824441  1
  Nb  Nb144  1  0.79426311  0.39894999  0.40322485  1
  Nb  Nb145  1  0.40162820  0.80143959  0.20271908  1
  Nb  Nb146  1  0.00009832  -0.00131707  -0.00276622  1
  Nb  Nb147  1  0.40713425  0.40200373  0.00509863  1
  Nb  Nb148  1  0.79241632  0.20630063  0.19743536  1
  Nb  Nb149  1  0.39855680  0.40272199  0.38966555  1
  Pd  Pd150  1  0.79871838  0.59237219  0.59378204  1
  Pd  Pd151  1  -0.00770121  -0.00923827  0.60791836  1
  Pd  Pd152  1  0.60947008  0.39202230  0.79047649  1
  Pd  Pd153  1  0.59682043  0.19152233  0.20902546  1
  Pd  Pd154  1  0.79844817  0.60538849  0.80607854  1
  Pd  Pd155  1  0.01071923  0.18894055  0.40407182  1
  Pd  Pd156  1  0.20672908  0.19948564  0.59782630  1
  Pd  Pd157  1  0.00094017  0.80551880  0.60407348  1
  Pd  Pd158  1  0.60241577  0.19517573  -0.00490158  1
  Pd  Pd159  1  0.59415393  0.41010370  0.39143496  1
  Pd  Pd160  1  0.80276066  0.79529559  0.20332071  1
  Pd  Pd161  1  0.19158022  0.19325344  0.40451047  1
  Pd  Pd162  1  0.60363491  0.40521094  0.00359473  1
  Pd  Pd163  1  0.39644616  0.00288882  0.20411251  1
  Pd  Pd164  1  0.40311100  0.01126396  0.79928147  1
  Pd  Pd165  1  0.60913065  0.21472660  0.79930085  1
  Pd  Pd166  1  0.00170159  0.81079907  0.00764714  1
  Pd  Pd167  1  0.39335290  0.19709367  0.78919916  1
  Pd  Pd168  1  0.00890759  0.58809770  0.20276033  1
  Pd  Pd169  1  -0.00708142  0.39496066  0.40240599  1
  Pd  Pd170  1  0.59580078  0.79913014  0.20483991  1
  Pd  Pd171  1  0.19244080  0.40069261  0.20124310  1
  Pd  Pd172  1  -0.00091284  0.40016073  0.59377600  1
  Pd  Pd173  1  0.79560651  0.59481689  0.41329124  1
  Pd  Pd174  1  0.19312617  0.60728039  0.39967339  1
  Pd  Pd175  1  0.20932856  0.59682762  0.60932676  1
  Pd  Pd176  1  0.20781862  0.80003584  0.19668811  1
  Pd  Pd177  1  0.39683997  0.80216478  0.39657542  1
  Pd  Pd178  1  0.01242138  0.61336214  0.40988678  1
  Pd  Pd179  1  0.20902286  0.19488552  0.19395126  1
  Pd  Pd180  1  0.39629455  0.21032147  0.00968239  1
  Pd  Pd181  1  -0.00067669  0.19491044  -0.00713405  1
  Pd  Pd182  1  0.20184761  0.19231981  0.00548487  1
  Pd  Pd183  1  0.59197958  0.39303206  0.60380558  1
  Pd  Pd184  1  0.20305998  0.80692594  0.79895671  1
  Pd  Pd185  1  0.80021245  0.19416916  -0.00109555  1
  Pd  Pd186  1  0.20048045  -0.00430641  0.79738782  1
  Pd  Pd187  1  0.79475554  0.40951811  0.00353958  1
  Pd  Pd188  1  0.20892468  0.59043680  0.79228653  1
  Pd  Pd189  1  0.00308636  0.59893436  0.60329050  1
  Pd  Pd190  1  0.60517168  0.59416660  -0.00389802  1
  Pd  Pd191  1  0.81132674  0.38968328  0.20774847  1
  Pd  Pd192  1  0.59724060  0.40863011  0.19809213  1
  Pd  Pd193  1  0.79508634  0.80798144  0.60810111  1
  Pd  Pd194  1  0.78802054  0.00260890  0.41189655  1
  Pd  Pd195  1  0.80635582  0.40869010  0.58869937  1
  Pd  Pd196  1  0.20557934  0.39261731  0.40010639  1
  Pd  Pd197  1  -0.00170048  0.80048680  0.78544652  1
  Pd  Pd198  1  0.39922868  0.00586442  0.59713064  1
  Pd  Pd199  1  0.59607376  0.19255050  0.38717532  1
  Rh  Rh200  1  0.40324622  0.20974057  0.39517210  1
  Rh  Rh201  1  0.79898780  0.60633500  0.19265241  1
  Rh  Rh202  1  0.19531752  0.79168107  0.40252712  1
  Rh  Rh203  1  0.20688249  -0.00423860  0.60484319  1
  Rh  Rh204  1  0.59667859  0.00165870  0.20506595  1
  Rh  Rh205  1  -0.00526938  0.59185669  -0.00146530  1
  Rh  Rh206  1  0.20637510  0.80429479  0.60452307  1
  Rh  Rh207  1  0.40022133  0.39083218  0.19564381  1
  Rh  Rh208  1  0.59109905  -0.00297625  0.79786035  1
  Rh  Rh209  1  0.19176413  0.01068114  0.40151383  1
  Rh  Rh210  1  0.80181295  0.78857249  0.80178632  1
  Rh  Rh211  1  0.40177111  0.59407775  0.40756464  1
  Rh  Rh212  1  0.79441640  0.38972032  0.79906387  1
  Rh  Rh213  1  0.58858402  0.20804301  0.60217987  1
  Rh  Rh214  1  0.59304350  0.59922657  0.60419462  1
  Rh  Rh215  1  0.80487017  0.79516523  0.39712810  1
  Rh  Rh216  1  0.19280072  0.59188908  0.21003233  1
  Rh  Rh217  1  0.59689054  0.59537787  0.39900064  1
  Rh  Rh218  1  -0.00451286  0.80043669  0.21698747  1
  Rh  Rh219  1  0.59517472  0.60121449  0.79124915  1
  Rh  Rh220  1  0.19401500  0.20412798  0.79453347  1
  Rh  Rh221  1  0.40318529  -0.00534415  -0.00420091  1
  Rh  Rh222  1  0.79203188  0.00886595  0.79610972  1
  Rh  Rh223  1  0.00592999  0.40188482  0.00672252  1
  Rh  Rh224  1  0.00858907  0.39393615  0.80060299  1
  Rh  Rh225  1  0.00796254  0.00508773  0.79495982  1
  Rh  Rh226  1  0.59928919  0.80555259  0.40181776  1
  Rh  Rh227  1  0.40696561  0.61563694  0.19036467  1
  Rh  Rh228  1  0.39472290  0.79204450  0.59840103  1
  Rh  Rh229  1  0.40383458  -0.01123149  0.40257521  1
  Rh  Rh230  1  0.19594475  0.40006755  0.79919181  1
  Rh  Rh231  1  0.00416279  0.20335901  0.60197889  1
  Rh  Rh232  1  0.19782986  0.39641137  0.59241236  1
  Rh  Rh233  1  0.80310266  0.01041506  0.19561505  1
  Rh  Rh234  1  0.80426704  0.19747304  0.60421346  1
  Rh  Rh235  1  0.59941012  0.81288036  0.00226954  1
  Rh  Rh236  1  0.20835633  0.60733683  -0.00656461  1
  Rh  Rh237  1  0.40398330  0.79058435  0.80622472  1
  Rh  Rh238  1  0.79201755  0.20643216  0.38863116  1
  Rh  Rh239  1  0.59799725  0.80621015  0.60155157  1
  Rh  Rh240  1  0.59170094  0.80095542  0.79219637  1
  Rh  Rh241  1  -0.00179953  0.00446924  0.20016772  1
  Rh  Rh242  1  0.59931418  0.60055966  0.20062554  1
  Rh  Rh243  1  0.20192076  0.39762669  -0.00169271  1
  Rh  Rh244  1  -0.00926444  0.20921212  0.20011877  1
  Rh  Rh245  1  0.00309457  0.59714368  0.79343808  1
  Rh  Rh246  1  0.39558197  0.40566110  0.81276133  1
  Rh  Rh247  1  0.40555764  0.39483742  0.58633115  1
  Rh  Rh248  1  0.20205243  0.00738614  0.19704374  1
  Rh  Rh249  1  0.00744109  0.00013756  0.40347406  1
