# generated using pymatgen
data_ZrScNbPdRh
_symmetry_space_group_name_H-M   'P 1'
_cell_length_a   16.55908471
_cell_length_b   16.55897986
_cell_length_c   16.56037349
_cell_angle_alpha   89.96843833
_cell_angle_beta   89.99960082
_cell_angle_gamma   89.99860519
_symmetry_Int_Tables_number   1
_chemical_formula_structural   ZrScNbPdRh
_chemical_formula_sum   'Zr50 Sc50 Nb50 Pd50 Rh50'
_cell_volume   4540.87939300
_cell_formula_units_Z   50
loop_
 _symmetry_equiv_pos_site_id
 _symmetry_equiv_pos_as_xyz
  1  'x, y, z'
loop_
 _atom_site_type_symbol
 _atom_site_label
 _atom_site_symmetry_multiplicity
 _atom_site_fract_x
 _atom_site_fract_y
 _atom_site_fract_z
 _atom_site_occupancy
  Zr  Zr0  1  0.49349295  0.29973020  0.10072652  1
  Zr  Zr1  1  0.90133202  0.69131047  0.50099849  1
  Zr  Zr2  1  0.30702075  0.90122057  0.90405643  1
  Zr  Zr3  1  0.50099253  0.30632334  0.50201419  1
  Zr  Zr4  1  0.30546517  0.69767830  0.49536738  1
  Zr  Zr5  1  0.50084750  0.89628133  0.28784834  1
  Zr  Zr6  1  0.10022280  0.10362926  0.09868250  1
  Zr  Zr7  1  0.09926474  0.50255521  0.89665334  1
  Zr  Zr8  1  0.49924370  0.89248483  0.50108729  1
  Zr  Zr9  1  0.29669503  0.90994409  0.49873725  1
  Zr  Zr10  1  0.30638144  0.89877998  0.30306518  1
  Zr  Zr11  1  0.50494535  0.69939523  0.69568223  1
  Zr  Zr12  1  0.29962380  0.70082834  0.90076431  1
  Zr  Zr13  1  0.30076045  0.10025199  0.30479115  1
  Zr  Zr14  1  0.90406122  0.30001282  0.89931615  1
  Zr  Zr15  1  0.89608405  0.90355898  0.29001476  1
  Zr  Zr16  1  0.90903025  0.10042826  0.10228150  1
  Zr  Zr17  1  0.70129253  0.30274473  0.70183543  1
  Zr  Zr18  1  0.10216708  0.30460933  0.30241366  1
  Zr  Zr19  1  0.70839621  0.49774868  0.28743536  1
  Zr  Zr20  1  0.29694237  0.30089192  0.49762530  1
  Zr  Zr21  1  0.09392964  0.69341098  0.29218508  1
  Zr  Zr22  1  0.70501627  0.68585420  0.90498869  1
  Zr  Zr23  1  0.29844877  0.10029036  0.69877953  1
  Zr  Zr24  1  0.90709494  0.30885953  0.49452074  1
  Zr  Zr25  1  0.50043377  0.69550677  0.89462032  1
  Zr  Zr26  1  0.69236074  0.10932355  0.09506655  1
  Zr  Zr27  1  0.50305702  0.89614671  0.89412083  1
  Zr  Zr28  1  0.48909700  0.70108076  0.30415851  1
  Zr  Zr29  1  0.50737323  0.89366195  0.70279607  1
  Zr  Zr30  1  0.91478221  0.30813480  0.09774285  1
  Zr  Zr31  1  0.49028585  0.49894643  0.29738215  1
  Zr  Zr32  1  0.69451525  0.69910262  0.50291444  1
  Zr  Zr33  1  0.29522706  0.70324653  0.09563950  1
  Zr  Zr34  1  0.49364102  0.49554311  0.09851318  1
  Zr  Zr35  1  0.90283030  0.30931009  0.29683242  1
  Zr  Zr36  1  0.49988486  0.49801620  0.50509169  1
  Zr  Zr37  1  0.29809080  0.10498975  0.09391954  1
  Zr  Zr38  1  0.09720175  0.70031327  0.91158910  1
  Zr  Zr39  1  0.09705675  0.89604018  0.29569915  1
  Zr  Zr40  1  0.69153898  0.30780747  0.10268884  1
  Zr  Zr41  1  0.49869688  0.70223451  0.11127376  1
  Zr  Zr42  1  0.09318337  0.90163114  0.09687930  1
  Zr  Zr43  1  0.69947706  0.69546639  0.28766096  1
  Zr  Zr44  1  0.29743956  0.30172385  0.70068230  1
  Zr  Zr45  1  0.30412763  0.70164660  0.70190985  1
  Zr  Zr46  1  0.90342775  0.50200180  0.30172862  1
  Zr  Zr47  1  0.50066607  0.10122766  0.29099904  1
  Zr  Zr48  1  0.49883476  0.30031368  0.28925558  1
  Zr  Zr49  1  0.30591086  0.50413951  0.90753347  1
  Sc  Sc50  1  0.08405355  0.90083994  0.69595325  1
  Sc  Sc51  1  0.31335079  0.90432267  0.69492690  1
  Sc  Sc52  1  0.09250362  0.09878913  0.70545310  1
  Sc  Sc53  1  0.10244822  0.10298735  0.90398919  1
  Sc  Sc54  1  0.08909083  0.50311600  0.10360810  1
  Sc  Sc55  1  0.69296082  0.10208722  0.89341721  1
  Sc  Sc56  1  0.70067117  0.10686548  0.70548340  1
  Sc  Sc57  1  0.08351707  0.69875737  0.50017393  1
  Sc  Sc58  1  0.30455101  0.49834912  0.10742313  1
  Sc  Sc59  1  0.70351097  0.09393480  0.49519065  1
  Sc  Sc60  1  0.29397645  0.30368664  0.29882778  1
  Sc  Sc61  1  0.89465687  0.50218401  0.90869950  1
  Sc  Sc62  1  0.30315100  0.10112738  0.90239087  1
  Sc  Sc63  1  0.08416446  0.70002957  0.70732687  1
  Sc  Sc64  1  0.70071130  0.30522425  0.89400130  1
  Sc  Sc65  1  0.08815348  0.49403093  0.50146232  1
  Sc  Sc66  1  0.30446654  0.29397652  0.90162386  1
  Sc  Sc67  1  0.30651223  0.89917073  0.09316671  1
  Sc  Sc68  1  0.70209449  0.89550068  0.71446546  1
  Sc  Sc69  1  0.70355157  0.08805805  0.30184557  1
  Sc  Sc70  1  0.10840684  0.09461313  0.49620841  1
  Sc  Sc71  1  0.30126882  0.09704632  0.49924202  1
  Sc  Sc72  1  0.50296808  0.10122390  0.70373865  1
  Sc  Sc73  1  0.91274134  0.50369572  0.70690187  1
  Sc  Sc74  1  0.90444898  0.09669453  0.29792567  1
  Sc  Sc75  1  0.49840844  0.68973154  0.50456350  1
  Sc  Sc76  1  0.29074703  0.49735726  0.70568106  1
  Sc  Sc77  1  0.50876910  0.30091242  0.69279649  1
  Sc  Sc78  1  0.08374245  0.89516400  0.90441984  1
  Sc  Sc79  1  0.90550023  0.10209563  0.88825956  1
  Sc  Sc80  1  0.70184544  0.90244788  0.29862474  1
  Sc  Sc81  1  0.90008062  0.69400173  0.09826392  1
  Sc  Sc82  1  0.69891457  0.31039118  0.29672142  1
  Sc  Sc83  1  0.50388080  0.10487453  0.90006028  1
  Sc  Sc84  1  0.50113878  0.29627463  0.90346326  1
  Sc  Sc85  1  0.69947640  0.49860992  0.71811425  1
  Sc  Sc86  1  0.09310775  0.29734726  0.90121498  1
  Sc  Sc87  1  0.70886785  0.88739595  0.11074768  1
  Sc  Sc88  1  0.90217002  0.70237647  0.89970608  1
  Sc  Sc89  1  0.09546511  0.31390148  0.70600014  1
  Sc  Sc90  1  0.70670606  0.90211610  0.49383005  1
  Sc  Sc91  1  0.29848204  0.49768490  0.49579733  1
  Sc  Sc92  1  0.69888484  0.70093647  0.70323171  1
  Sc  Sc93  1  0.50123020  0.11026737  0.10026305  1
  Sc  Sc94  1  0.69666594  0.49652581  0.49084652  1
  Sc  Sc95  1  0.90649543  0.88924354  0.51027330  1
  Sc  Sc96  1  0.10219020  0.10709504  0.30068251  1
  Sc  Sc97  1  0.69817526  0.30507899  0.50422695  1
  Sc  Sc98  1  0.29810294  0.69214173  0.29815923  1
  Sc  Sc99  1  0.49562208  0.10096456  0.50288402  1
  Nb  Nb100  1  0.09523056  0.70381624  0.09669075  1
  Nb  Nb101  1  0.89720066  0.70482451  0.69556482  1
  Nb  Nb102  1  0.09769830  0.29738726  0.49959086  1
  Nb  Nb103  1  0.70189528  0.89774199  0.90141302  1
  Nb  Nb104  1  0.89814243  0.29236494  0.69794378  1
  Nb  Nb105  1  0.10291749  0.89721208  0.49903968  1
  Nb  Nb106  1  0.89774524  0.49689667  0.10374063  1
  Nb  Nb107  1  0.89764962  0.09870202  0.49882546  1
  Nb  Nb108  1  0.50518189  0.50206479  0.89689032  1
  Nb  Nb109  1  0.89858516  0.10018717  0.69647673  1
  Nb  Nb110  1  0.69422450  0.50466480  0.90441121  1
  Nb  Nb111  1  0.50211628  0.89276621  0.09561942  1
  Nb  Nb112  1  0.10897069  0.50020179  0.29835478  1
  Nb  Nb113  1  0.10089649  0.50411721  0.69887409  1
  Nb  Nb114  1  0.69782114  0.68980345  0.09784112  1
  Nb  Nb115  1  0.90002984  0.49821084  0.50064041  1
  Nb  Nb116  1  0.30122051  0.30498860  0.09821094  1
  Nb  Nb117  1  0.90121021  0.69440521  0.30497876  1
  Nb  Nb118  1  0.70504161  0.51149651  0.09258997  1
  Nb  Nb119  1  0.88849097  0.89961489  0.89636376  1
  Nb  Nb120  1  0.89791199  0.90041336  0.71085517  1
  Nb  Nb121  1  0.10186214  0.30201376  0.10311236  1
  Nb  Nb122  1  0.90359266  0.90627308  0.09339649  1
  Nb  Nb123  1  0.28675585  0.49943727  0.30226782  1
  Nb  Nb124  1  0.50668341  0.49583600  0.70469560  1
  Nb  Nb125  1  0.80949886  0.40460019  0.60300096  1
  Nb  Nb126  1  0.80296593  0.20469375  0.19828544  1
  Nb  Nb127  1  0.60213741  0.79600360  0.39627558  1
  Nb  Nb128  1  0.19858865  0.39619708  0.00651617  1
  Nb  Nb129  1  0.80615658  0.00023782  0.60887839  1
  Nb  Nb130  1  0.19225180  0.20615002  0.60005410  1
  Nb  Nb131  1  0.80605653  0.59455679  0.60175773  1
  Nb  Nb132  1  0.19582888  0.80019283  0.40440478  1
  Nb  Nb133  1  0.60185702  0.20096573  0.39744572  1
  Nb  Nb134  1  0.60503275  -0.01412186  0.00038685  1
  Nb  Nb135  1  0.19619293  0.79795651  0.59921668  1
  Nb  Nb136  1  0.60569710  0.79630397  0.00313173  1
  Nb  Nb137  1  0.40705769  0.40477792  0.80185855  1
  Nb  Nb138  1  0.60040153  0.41116193  -0.00303523  1
  Nb  Nb139  1  -0.00288242  0.20151250  0.59776537  1
  Nb  Nb140  1  0.00089355  -0.00584836  0.40433225  1
  Nb  Nb141  1  0.19867685  0.80583207  0.79705851  1
  Nb  Nb142  1  0.80301104  0.19948721  0.00353147  1
  Nb  Nb143  1  0.20114480  -0.00011252  0.19602829  1
  Nb  Nb144  1  0.79964251  -0.00175843  -0.00338860  1
  Nb  Nb145  1  0.19998576  -0.00909313  0.80271980  1
  Nb  Nb146  1  0.80126104  0.20310468  0.39667963  1
  Nb  Nb147  1  0.60643089  -0.00453330  0.60354801  1
  Nb  Nb148  1  0.19163695  0.60301308  0.60358056  1
  Nb  Nb149  1  0.80265740  0.79127832  0.39446972  1
  Pd  Pd150  1  0.80048926  0.79996513  0.00358982  1
  Pd  Pd151  1  0.79590299  0.59990872  0.40342680  1
  Pd  Pd152  1  0.80086710  0.20131801  0.59070482  1
  Pd  Pd153  1  0.18953136  0.60553845  0.41149387  1
  Pd  Pd154  1  0.39556578  0.00234800  0.18877300  1
  Pd  Pd155  1  0.39495534  0.39993351  0.39478629  1
  Pd  Pd156  1  0.19548095  0.58903539  0.01088129  1
  Pd  Pd157  1  0.19427296  0.61017035  0.79502682  1
  Pd  Pd158  1  0.59354431  0.59294639  0.20119686  1
  Pd  Pd159  1  0.19359290  0.40362184  0.59458296  1
  Pd  Pd160  1  -0.00359359  0.80389576  0.39735579  1
  Pd  Pd161  1  0.59292136  -0.00066790  0.40542629  1
  Pd  Pd162  1  0.20412941  0.19927567  0.20104527  1
  Pd  Pd163  1  -0.00372250  0.00476343  0.59368607  1
  Pd  Pd164  1  0.79394560  0.39617156  0.00202605  1
  Pd  Pd165  1  0.19865498  0.59859498  0.18944220  1
  Pd  Pd166  1  0.39677169  0.40670132  0.60980584  1
  Pd  Pd167  1  0.61250293  0.58819304  0.60810847  1
  Pd  Pd168  1  0.39515684  0.19934095  0.60096277  1
  Pd  Pd169  1  0.79587280  0.80194789  0.59863188  1
  Pd  Pd170  1  0.40527841  0.20382715  0.39780118  1
  Pd  Pd171  1  0.79886057  0.78970048  0.80216183  1
  Pd  Pd172  1  -0.00524081  0.60361474  0.80661074  1
  Pd  Pd173  1  0.41139239  0.00126552  0.39999708  1
  Pd  Pd174  1  0.20528604  0.80403465  0.20300213  1
  Pd  Pd175  1  0.19782354  0.20864097  -0.00371276  1
  Pd  Pd176  1  0.19316026  0.19549418  0.79606894  1
  Pd  Pd177  1  -0.00535452  0.40205324  0.80290273  1
  Pd  Pd178  1  0.19266688  0.00017485  0.61122425  1
  Pd  Pd179  1  0.20683119  0.39848142  0.81420897  1
  Pd  Pd180  1  -0.00324672  0.19138217  0.40229646  1
  Pd  Pd181  1  0.59650037  0.60130651  0.39319213  1
  Pd  Pd182  1  0.59903361  0.39776883  0.39465679  1
  Pd  Pd183  1  0.39955823  0.00550749  0.79905255  1
  Pd  Pd184  1  0.79491456  0.00870635  0.18782884  1
  Pd  Pd185  1  0.80850163  0.79031579  0.19947639  1
  Pd  Pd186  1  0.60397089  -0.00351949  0.18885718  1
  Pd  Pd187  1  0.39105312  0.58813625  0.60655835  1
  Pd  Pd188  1  0.79995161  0.19752419  0.80791003  1
  Pd  Pd189  1  0.00284743  -0.00047569  0.80563967  1
  Pd  Pd190  1  0.40476505  0.60617749  0.00512805  1
  Pd  Pd191  1  -0.00613282  0.00569222  -0.01195214  1
  Pd  Pd192  1  0.60689129  0.19106478  0.59222381  1
  Pd  Pd193  1  0.39610461  0.80013741  0.59590889  1
  Pd  Pd194  1  0.19705033  0.80936825  -0.00558914  1
  Pd  Pd195  1  -0.00971716  0.79460369  0.19200077  1
  Pd  Pd196  1  0.40692600  0.20692231  0.79578896  1
  Pd  Pd197  1  0.40212180  0.59251922  0.79085152  1
  Pd  Pd198  1  0.80958532  0.40681477  0.79716195  1
  Pd  Pd199  1  0.41451112  0.00743950  0.00240954  1
  Rh  Rh200  1  0.79664538  0.39628651  0.40671280  1
  Rh  Rh201  1  0.00872422  0.40695478  -0.00356550  1
  Rh  Rh202  1  0.00257455  0.20169720  0.79134899  1
  Rh  Rh203  1  -0.00186404  0.59733043  0.60368718  1
  Rh  Rh204  1  0.59307313  0.39578275  0.80825885  1
  Rh  Rh205  1  0.39053113  0.59977361  0.20325516  1
  Rh  Rh206  1  0.38984673  0.79880312  0.19635115  1
  Rh  Rh207  1  0.60889502  0.80919083  0.59393759  1
  Rh  Rh208  1  -0.00250625  0.59880283  0.00312589  1
  Rh  Rh209  1  0.80875903  0.59833691  0.00184594  1
  Rh  Rh210  1  -0.00381350  0.39628916  0.60721180  1
  Rh  Rh211  1  0.00800468  0.40826581  0.39272193  1
  Rh  Rh212  1  0.39807609  0.59002995  0.39943225  1
  Rh  Rh213  1  0.60596306  0.21029000  -0.00737764  1
  Rh  Rh214  1  0.38905031  0.20262168  0.19936030  1
  Rh  Rh215  1  0.00879862  0.40745264  0.20567508  1
  Rh  Rh216  1  -0.00209573  0.19920155  -0.00026658  1
  Rh  Rh217  1  0.19093522  -0.00582902  0.38633206  1
  Rh  Rh218  1  0.39973847  0.79927799  0.40321519  1
  Rh  Rh219  1  0.61336469  0.19517072  0.21585687  1
  Rh  Rh220  1  -0.00340424  0.59871812  0.19911927  1
  Rh  Rh221  1  0.40860480  0.79211018  -0.00151063  1
  Rh  Rh222  1  -0.01183847  0.79916760  0.00376072  1
  Rh  Rh223  1  0.60299464  0.79869765  0.20048002  1
  Rh  Rh224  1  0.59809989  0.20669946  0.79756941  1
  Rh  Rh225  1  0.38860505  0.39951794  0.20769068  1
  Rh  Rh226  1  -0.00368437  0.80107378  0.80138673  1
  Rh  Rh227  1  0.40044118  0.19912916  0.00202909  1
  Rh  Rh228  1  0.80207837  0.39966271  0.18929338  1
  Rh  Rh229  1  0.60181555  0.00045432  0.79980491  1
  Rh  Rh230  1  0.60154138  0.60418102  0.79506206  1
  Rh  Rh231  1  0.01078759  0.00446277  0.20738884  1
  Rh  Rh232  1  0.00011325  0.79838742  0.60630745  1
  Rh  Rh233  1  0.00614427  0.59070238  0.39445833  1
  Rh  Rh234  1  0.80508709  0.60147880  0.79604176  1
  Rh  Rh235  1  0.59021711  0.60048876  0.00717594  1
  Rh  Rh236  1  0.41456666  0.00199743  0.60361850  1
  Rh  Rh237  1  0.20261170  0.20085514  0.40776202  1
  Rh  Rh238  1  0.39661117  0.79827810  0.80076979  1
  Rh  Rh239  1  0.60052583  0.41248860  0.19170661  1
  Rh  Rh240  1  0.19435160  -0.00561331  -0.00142451  1
  Rh  Rh241  1  0.79849514  0.00423433  0.79936686  1
  Rh  Rh242  1  0.60792001  0.78985377  0.81010349  1
  Rh  Rh243  1  0.40019188  0.39718314  -0.00856219  1
  Rh  Rh244  1  0.19346836  0.40154001  0.40464309  1
  Rh  Rh245  1  -0.00062578  0.20434125  0.20232064  1
  Rh  Rh246  1  0.61323189  0.40752403  0.60479722  1
  Rh  Rh247  1  0.80917437  0.60002605  0.19527303  1
  Rh  Rh248  1  0.19771769  0.40231152  0.19311347  1
  Rh  Rh249  1  0.81696970  -0.00898843  0.40897899  1
