# generated using pymatgen
data_ZrScNbPdRh
_symmetry_space_group_name_H-M   'P 1'
_cell_length_a   16.56278377
_cell_length_b   16.56212129
_cell_length_c   16.55818203
_cell_angle_alpha   89.99823639
_cell_angle_beta   89.99220109
_cell_angle_gamma   89.97497007
_symmetry_Int_Tables_number   1
_chemical_formula_structural   ZrScNbPdRh
_chemical_formula_sum   'Zr50 Sc50 Nb50 Pd50 Rh50'
_cell_volume   4542.15447309
_cell_formula_units_Z   50
loop_
 _symmetry_equiv_pos_site_id
 _symmetry_equiv_pos_as_xyz
  1  'x, y, z'
loop_
 _atom_site_type_symbol
 _atom_site_label
 _atom_site_symmetry_multiplicity
 _atom_site_fract_x
 _atom_site_fract_y
 _atom_site_fract_z
 _atom_site_occupancy
  Zr  Zr0  1  0.90254071  0.10078091  0.70354351  1
  Zr  Zr1  1  0.90154911  0.70410987  0.30126211  1
  Zr  Zr2  1  0.30297455  0.50140547  0.50429049  1
  Zr  Zr3  1  0.49328424  0.50641667  0.50306924  1
  Zr  Zr4  1  0.29915638  0.29831765  0.30011644  1
  Zr  Zr5  1  0.29200714  0.89318619  0.09322200  1
  Zr  Zr6  1  0.49744846  0.49925372  0.69823974  1
  Zr  Zr7  1  0.29614462  0.30237469  0.10115593  1
  Zr  Zr8  1  0.69929535  0.29560643  0.10318984  1
  Zr  Zr9  1  0.90016739  0.10130216  0.30305950  1
  Zr  Zr10  1  0.90262883  0.90846735  0.30643462  1
  Zr  Zr11  1  0.68968964  0.09142448  0.90116462  1
  Zr  Zr12  1  0.10287371  0.30003768  0.10090688  1
  Zr  Zr13  1  0.69006833  0.90072241  0.50322007  1
  Zr  Zr14  1  0.89573617  0.29243518  0.09074330  1
  Zr  Zr15  1  0.10789058  0.70156413  0.69066233  1
  Zr  Zr16  1  0.48953318  0.90876719  0.69797324  1
  Zr  Zr17  1  0.91637020  0.69932924  0.50282962  1
  Zr  Zr18  1  0.11140849  0.70587630  0.09852782  1
  Zr  Zr19  1  0.70717005  0.89545895  0.70145096  1
  Zr  Zr20  1  0.29739431  0.70462260  0.90024655  1
  Zr  Zr21  1  0.70158343  0.70552719  0.11059621  1
  Zr  Zr22  1  0.09124161  0.09103817  0.08863377  1
  Zr  Zr23  1  0.49131624  0.50776408  0.09855024  1
  Zr  Zr24  1  0.90150017  0.09863959  0.10260452  1
  Zr  Zr25  1  0.50213414  0.90519196  0.89534578  1
  Zr  Zr26  1  0.50381561  0.28493667  0.69719747  1
  Zr  Zr27  1  0.49447524  0.69921120  0.30023870  1
  Zr  Zr28  1  0.09401762  0.69591248  0.89913056  1
  Zr  Zr29  1  0.49693464  0.90189972  0.31036991  1
  Zr  Zr30  1  0.10458091  0.50968085  0.10134010  1
  Zr  Zr31  1  0.69723126  0.50227723  0.09462948  1
  Zr  Zr32  1  0.09385084  0.49879825  0.90342410  1
  Zr  Zr33  1  0.49766394  0.50430184  0.89726076  1
  Zr  Zr34  1  0.90477380  0.30738723  0.89584651  1
  Zr  Zr35  1  0.28523189  0.30079221  0.69943513  1
  Zr  Zr36  1  0.89321934  0.29630735  0.49505830  1
  Zr  Zr37  1  0.10872293  0.89667481  0.30199857  1
  Zr  Zr38  1  0.30152017  0.89933459  0.49246148  1
  Zr  Zr39  1  0.50200213  0.90127451  0.10091978  1
  Zr  Zr40  1  0.49480547  0.69335220  0.69402640  1
  Zr  Zr41  1  0.89112322  0.49172308  0.70517705  1
  Zr  Zr42  1  0.70009369  0.29168192  0.50723004  1
  Zr  Zr43  1  0.90712603  0.10459697  0.90270714  1
  Zr  Zr44  1  0.10606943  0.10338982  0.69075749  1
  Zr  Zr45  1  0.10126972  0.90469935  0.70000962  1
  Zr  Zr46  1  0.29235955  0.09714438  0.49604050  1
  Zr  Zr47  1  0.90575742  0.49348509  0.08685288  1
  Zr  Zr48  1  0.90250251  0.09731739  0.48869785  1
  Zr  Zr49  1  0.69946657  0.89698062  0.89649203  1
  Sc  Sc50  1  0.48857383  0.29012006  0.89733463  1
  Sc  Sc51  1  0.91331259  0.70508519  0.10625497  1
  Sc  Sc52  1  0.49658201  0.69210013  0.09972764  1
  Sc  Sc53  1  0.09677669  0.70257667  0.30102194  1
  Sc  Sc54  1  0.50693074  0.10338560  0.30904156  1
  Sc  Sc55  1  0.70684197  0.50633050  0.89079675  1
  Sc  Sc56  1  0.29579395  0.70843071  0.30729403  1
  Sc  Sc57  1  0.29934535  0.89723845  0.88620499  1
  Sc  Sc58  1  0.51133827  0.10303295  0.09263634  1
  Sc  Sc59  1  0.10186286  0.49923104  0.30292927  1
  Sc  Sc60  1  0.10028618  0.30177088  0.88897499  1
  Sc  Sc61  1  0.90571471  0.49547312  0.31362392  1
  Sc  Sc62  1  0.70090989  0.49934879  0.70014223  1
  Sc  Sc63  1  0.90413920  0.50107821  0.89572044  1
  Sc  Sc64  1  0.69672582  0.48211787  0.50255208  1
  Sc  Sc65  1  0.90669310  0.70525602  0.70151315  1
  Sc  Sc66  1  0.49768385  0.29148126  0.09533680  1
  Sc  Sc67  1  0.29663449  0.29834004  0.89648651  1
  Sc  Sc68  1  0.69826478  0.10434167  0.10583093  1
  Sc  Sc69  1  0.29278956  0.09791578  0.89253593  1
  Sc  Sc70  1  0.90928442  0.90438160  0.10896073  1
  Sc  Sc71  1  0.09932815  0.09557094  0.89537174  1
  Sc  Sc72  1  0.30052926  0.09134021  0.69670565  1
  Sc  Sc73  1  0.30069273  0.50184993  0.30361045  1
  Sc  Sc74  1  0.71241521  0.29646052  0.90098177  1
  Sc  Sc75  1  0.10001822  0.90027957  0.50198580  1
  Sc  Sc76  1  0.69814206  0.69764244  0.70113889  1
  Sc  Sc77  1  0.50517192  0.29572947  0.30702100  1
  Sc  Sc78  1  0.69658631  0.29445750  0.30954298  1
  Sc  Sc79  1  0.11106354  0.30344314  0.30347502  1
  Sc  Sc80  1  0.10032309  0.90560582  0.90204120  1
  Sc  Sc81  1  0.09677165  0.50135174  0.50839316  1
  Sc  Sc82  1  0.69776435  0.90211174  0.29922740  1
  Sc  Sc83  1  0.29931049  0.30198527  0.50069591  1
  Sc  Sc84  1  0.50717584  0.09826463  0.51131869  1
  Sc  Sc85  1  0.70088316  0.10175398  0.30404001  1
  Sc  Sc86  1  0.30417581  0.70529364  0.50940574  1
  Sc  Sc87  1  0.69835652  0.69742540  0.88659662  1
  Sc  Sc88  1  0.28629552  0.10290232  0.08882644  1
  Sc  Sc89  1  0.69966319  0.90378320  0.10864507  1
  Sc  Sc90  1  0.29909276  0.50148540  0.69612002  1
  Sc  Sc91  1  0.70067420  0.11293006  0.70112526  1
  Sc  Sc92  1  0.50388894  0.29829644  0.49938341  1
  Sc  Sc93  1  0.30327244  0.50020900  0.89618292  1
  Sc  Sc94  1  0.49311492  0.50599837  0.30478701  1
  Sc  Sc95  1  0.10792311  0.49729312  0.70477247  1
  Sc  Sc96  1  0.49553662  0.69892762  0.89291180  1
  Sc  Sc97  1  0.69614509  0.49079287  0.30928153  1
  Sc  Sc98  1  0.90472127  0.49407226  0.49712678  1
  Sc  Sc99  1  0.90772774  0.90123005  0.88201151  1
  Nb  Nb100  1  0.09997287  0.30001436  0.69603984  1
  Nb  Nb101  1  0.49737935  0.10219508  0.71080995  1
  Nb  Nb102  1  0.89679266  0.89990115  0.50263268  1
  Nb  Nb103  1  0.50197858  0.89490088  0.49879490  1
  Nb  Nb104  1  0.09958307  0.10388810  0.49585852  1
  Nb  Nb105  1  0.29298974  0.89497192  0.69627774  1
  Nb  Nb106  1  0.71268986  0.30236968  0.69760148  1
  Nb  Nb107  1  0.10253706  0.29324853  0.51469040  1
  Nb  Nb108  1  0.30121064  0.90459008  0.30281135  1
  Nb  Nb109  1  0.10020594  0.09691667  0.30701488  1
  Nb  Nb110  1  0.90061527  0.69763108  0.90289185  1
  Nb  Nb111  1  0.88913139  0.29678479  0.70182623  1
  Nb  Nb112  1  0.49672164  0.09187883  0.89077907  1
  Nb  Nb113  1  0.69872327  0.70486009  0.50328748  1
  Nb  Nb114  1  0.89841208  0.29971527  0.29810712  1
  Nb  Nb115  1  0.70592780  0.09816881  0.49907818  1
  Nb  Nb116  1  0.70479639  0.70124714  0.30140794  1
  Nb  Nb117  1  0.29910758  0.69421751  0.10003395  1
  Nb  Nb118  1  0.29589813  0.09631343  0.30238123  1
  Nb  Nb119  1  0.30014145  0.50866280  0.10019302  1
  Nb  Nb120  1  0.90410495  0.90352651  0.69001573  1
  Nb  Nb121  1  0.29465389  0.71401693  0.70354705  1
  Nb  Nb122  1  0.10329603  0.69760815  0.50237095  1
  Nb  Nb123  1  0.10233557  0.90670953  0.10173720  1
  Nb  Nb124  1  0.50192646  0.70377368  0.49832839  1
  Nb  Nb125  1  0.00189232  0.20053865  0.20460459  1
  Nb  Nb126  1  0.39936417  0.39719542  0.19647245  1
  Nb  Nb127  1  0.79915109  0.79797215  0.40675906  1
  Nb  Nb128  1  0.40192266  -0.00029355  -0.00181829  1
  Nb  Nb129  1  0.60583744  0.79964829  -0.00082283  1
  Nb  Nb130  1  0.19792933  0.60452051  0.41064104  1
  Nb  Nb131  1  0.20175105  0.40658239  0.00448455  1
  Nb  Nb132  1  -0.00485079  0.39294000  0.19961272  1
  Nb  Nb133  1  0.80227851  0.80053409  -0.00235557  1
  Nb  Nb134  1  0.20104384  -0.00041899  0.20331429  1
  Nb  Nb135  1  0.80116110  -0.00587328  -0.00331146  1
  Nb  Nb136  1  0.80383642  0.61061787  0.00316460  1
  Nb  Nb137  1  0.39253581  0.00400739  0.19917540  1
  Nb  Nb138  1  0.59982300  0.39365658  0.80051610  1
  Nb  Nb139  1  0.59604159  0.40037989  0.19365811  1
  Nb  Nb140  1  0.80158128  0.40001307  0.19962708  1
  Nb  Nb141  1  0.80052840  0.60304045  0.59059826  1
  Nb  Nb142  1  0.60434628  0.60929903  0.40798533  1
  Nb  Nb143  1  0.80220740  0.59430114  0.20333567  1
  Nb  Nb144  1  0.39248980  0.80650213  0.19986150  1
  Nb  Nb145  1  0.59695330  0.40130439  -0.00433147  1
  Nb  Nb146  1  -0.00205480  0.38686880  0.60665063  1
  Nb  Nb147  1  0.39307287  0.19399547  0.20242354  1
  Nb  Nb148  1  0.80348541  -0.00214586  0.59812167  1
  Nb  Nb149  1  0.79417579  0.60663514  0.40387490  1
  Pd  Pd150  1  0.00631204  0.80533743  0.20005832  1
  Pd  Pd151  1  0.80130407  0.00485403  0.79838230  1
  Pd  Pd152  1  0.79487537  0.18685004  -0.00479052  1
  Pd  Pd153  1  0.01058468  0.39058993  0.40381648  1
  Pd  Pd154  1  0.59735648  0.39461165  0.60822672  1
  Pd  Pd155  1  0.38985956  0.60316582  0.79461993  1
  Pd  Pd156  1  0.19496628  0.80373254  -0.01013672  1
  Pd  Pd157  1  0.80436367  0.79692761  0.59814780  1
  Pd  Pd158  1  -0.00414137  0.58652469  0.61001543  1
  Pd  Pd159  1  0.00588042  0.79984648  0.79527066  1
  Pd  Pd160  1  0.60704081  0.20730875  0.80670661  1
  Pd  Pd161  1  0.59088036  0.79928505  0.20080393  1
  Pd  Pd162  1  0.59277854  0.80089370  0.61036682  1
  Pd  Pd163  1  -0.00337925  0.80744369  0.00028665  1
  Pd  Pd164  1  0.39759217  0.00226409  0.59434326  1
  Pd  Pd165  1  0.40221935  0.39327431  0.79270854  1
  Pd  Pd166  1  0.60850986  0.59609016  0.59544060  1
  Pd  Pd167  1  0.39777933  0.40133050  0.00256011  1
  Pd  Pd168  1  -0.00033132  0.00259035  0.59276493  1
  Pd  Pd169  1  0.00880448  0.20974604  0.39393932  1
  Pd  Pd170  1  0.38738376  0.19562156  0.79569560  1
  Pd  Pd171  1  0.00177009  0.80629324  0.40356161  1
  Pd  Pd172  1  0.40177747  0.80230086  0.59991046  1
  Pd  Pd173  1  0.19522035  0.40773644  0.41109966  1
  Pd  Pd174  1  -0.00144690  0.59855784  0.79094704  1
  Pd  Pd175  1  0.60650533  0.60578746  -0.00984987  1
  Pd  Pd176  1  0.40357660  0.39776981  0.39472788  1
  Pd  Pd177  1  0.59007862  0.79779084  0.79482989  1
  Pd  Pd178  1  0.60420784  0.00018127  0.78496088  1
  Pd  Pd179  1  0.80803511  0.79467110  0.80010691  1
  Pd  Pd180  1  0.19549798  0.18745271  0.20157097  1
  Pd  Pd181  1  0.19224427  0.20615349  -0.01191667  1
  Pd  Pd182  1  0.39423923  0.19752415  0.59853001  1
  Pd  Pd183  1  0.59411489  0.00817986  0.20555658  1
  Pd  Pd184  1  0.60404232  0.79780038  0.39512947  1
  Pd  Pd185  1  0.59880767  0.20636664  -0.01157210  1
  Pd  Pd186  1  0.79772576  0.00137681  0.19776851  1
  Pd  Pd187  1  0.39731792  0.18695427  0.00206650  1
  Pd  Pd188  1  0.20428928  0.60430342  0.21471992  1
  Pd  Pd189  1  0.00554063  0.20148323  0.79723780  1
  Pd  Pd190  1  0.40839061  0.00910996  0.40490588  1
  Pd  Pd191  1  0.19755722  0.20528192  0.40502101  1
  Pd  Pd192  1  0.40761207  0.80002512  0.00332597  1
  Pd  Pd193  1  0.40071663  0.38858225  0.60498314  1
  Pd  Pd194  1  -0.00967338  0.20186613  0.60045491  1
  Pd  Pd195  1  0.60604657  0.59177553  0.21391588  1
  Pd  Pd196  1  -0.00615354  0.58977005  0.20580837  1
  Pd  Pd197  1  0.20336573  0.59881189  0.80167387  1
  Pd  Pd198  1  0.40178789  0.19463365  0.40086478  1
  Pd  Pd199  1  0.60652478  0.00693339  0.60924938  1
  Rh  Rh200  1  0.79982319  0.19716720  0.80612698  1
  Rh  Rh201  1  0.20225749  0.41244208  0.19403999  1
  Rh  Rh202  1  0.19331387  0.40305375  0.59830123  1
  Rh  Rh203  1  0.60029943  0.00176039  0.40397510  1
  Rh  Rh204  1  0.19901559  -0.00130662  0.79540487  1
  Rh  Rh205  1  0.20729521  0.19626383  0.59796359  1
  Rh  Rh206  1  0.20057495  0.40324959  0.80668146  1
  Rh  Rh207  1  0.39955368  0.79726641  0.39957015  1
  Rh  Rh208  1  0.39412492  0.60743220  -0.00597933  1
  Rh  Rh209  1  0.00003865  0.39674960  0.78931244  1
  Rh  Rh210  1  0.59621345  0.59158431  0.79429888  1
  Rh  Rh211  1  0.39572577  0.60902089  0.40608601  1
  Rh  Rh212  1  0.80744260  0.40445908  0.59406300  1
  Rh  Rh213  1  0.20609336  0.59619515  -0.00836270  1
  Rh  Rh214  1  0.19773859  0.19601056  0.79441783  1
  Rh  Rh215  1  0.00770346  -0.00504900  0.40402871  1
  Rh  Rh216  1  0.00819369  0.59958955  0.39906190  1
  Rh  Rh217  1  0.19881032  0.80637340  0.59414171  1
  Rh  Rh218  1  0.60316629  0.19531228  0.60223664  1
  Rh  Rh219  1  0.38786736  0.60516926  0.20519512  1
  Rh  Rh220  1  0.20069246  -0.00216612  0.59359918  1
  Rh  Rh221  1  0.00493545  0.00300863  0.79433539  1
  Rh  Rh222  1  0.19083734  0.80155845  0.80141943  1
  Rh  Rh223  1  0.80367694  0.20252621  0.20702423  1
  Rh  Rh224  1  0.39199463  0.60787112  0.60324078  1
  Rh  Rh225  1  0.80430843  0.18895061  0.59671804  1
  Rh  Rh226  1  0.20602428  0.60245924  0.59856566  1
  Rh  Rh227  1  -0.01025332  -0.00902509  -0.00654853  1
  Rh  Rh228  1  0.58861113  0.40798860  0.39639170  1
  Rh  Rh229  1  0.80677556  0.60631936  0.79422894  1
  Rh  Rh230  1  0.40220837  0.80119580  0.79160918  1
  Rh  Rh231  1  -0.00375031  0.60887117  0.00320428  1
  Rh  Rh232  1  0.20330576  0.80228474  0.20013030  1
  Rh  Rh233  1  0.60133027  -0.00630757  0.00320613  1
  Rh  Rh234  1  0.01204071  0.39327284  0.00273434  1
  Rh  Rh235  1  0.01072493  0.00581665  0.20966519  1
  Rh  Rh236  1  0.39167288  0.00021513  0.80131695  1
  Rh  Rh237  1  0.79349981  0.39809981  0.80656582  1
  Rh  Rh238  1  0.79225584  0.41173778  -0.00450990  1
  Rh  Rh239  1  0.20562039  -0.00479822  -0.00266789  1
  Rh  Rh240  1  0.79755935  0.39851839  0.39722560  1
  Rh  Rh241  1  0.00623525  0.20543419  -0.00168527  1
  Rh  Rh242  1  0.79118063  -0.00964471  0.40676294  1
  Rh  Rh243  1  0.79538549  0.20114711  0.39788591  1
  Rh  Rh244  1  0.59350550  0.20424357  0.20461728  1
  Rh  Rh245  1  0.19244602  -0.00022173  0.40192463  1
  Rh  Rh246  1  0.80726934  0.80194738  0.20537340  1
  Rh  Rh247  1  0.20016121  0.79347682  0.40849698  1
  Rh  Rh248  1  0.60424715  0.19364809  0.41139053  1
  Rh  Rh249  1  0.00728405  0.80483030  0.60165351  1
