# generated using pymatgen
data_ZrScNbPdRh
_symmetry_space_group_name_H-M   'P 1'
_cell_length_a   16.54976552
_cell_length_b   16.55023961
_cell_length_c   16.55250137
_cell_angle_alpha   90.00276699
_cell_angle_beta   90.01828369
_cell_angle_gamma   89.98826975
_symmetry_Int_Tables_number   1
_chemical_formula_structural   ZrScNbPdRh
_chemical_formula_sum   'Zr50 Sc50 Nb50 Pd50 Rh50'
_cell_volume   4533.77258113
_cell_formula_units_Z   50
loop_
 _symmetry_equiv_pos_site_id
 _symmetry_equiv_pos_as_xyz
  1  'x, y, z'
loop_
 _atom_site_type_symbol
 _atom_site_label
 _atom_site_symmetry_multiplicity
 _atom_site_fract_x
 _atom_site_fract_y
 _atom_site_fract_z
 _atom_site_occupancy
  Zr  Zr0  1  0.90782050  0.50100429  0.69660292  1
  Zr  Zr1  1  0.49516751  0.71043405  0.30423261  1
  Zr  Zr2  1  0.49466676  0.50730998  0.29944286  1
  Zr  Zr3  1  0.88232270  0.69956902  0.50000163  1
  Zr  Zr4  1  0.70643590  0.90222750  0.10132245  1
  Zr  Zr5  1  0.90305795  0.69581070  0.10886674  1
  Zr  Zr6  1  0.29769854  0.69818697  0.90160400  1
  Zr  Zr7  1  0.70182185  0.89985991  0.90755167  1
  Zr  Zr8  1  0.09760866  0.30450195  0.90663238  1
  Zr  Zr9  1  0.90118276  0.29940552  0.29907660  1
  Zr  Zr10  1  0.10760711  0.70317615  0.49640111  1
  Zr  Zr11  1  0.30385080  0.71366310  0.50435915  1
  Zr  Zr12  1  0.49784444  0.49774173  0.70642937  1
  Zr  Zr13  1  0.70177955  0.30370481  0.89243359  1
  Zr  Zr14  1  0.69894514  0.28994696  0.09304834  1
  Zr  Zr15  1  0.09966061  0.70208789  0.70164828  1
  Zr  Zr16  1  0.90571030  0.09189669  0.49719736  1
  Zr  Zr17  1  0.90692013  0.30067462  0.89590576  1
  Zr  Zr18  1  0.29867878  0.09843028  0.09415790  1
  Zr  Zr19  1  0.70115190  0.50721449  0.09839615  1
  Zr  Zr20  1  0.89185327  0.29691320  0.69525531  1
  Zr  Zr21  1  0.29509661  0.30198480  0.50556905  1
  Zr  Zr22  1  0.90911983  0.10115477  0.70205598  1
  Zr  Zr23  1  0.50050195  0.50020437  0.89529676  1
  Zr  Zr24  1  0.30148538  0.49758711  0.70633012  1
  Zr  Zr25  1  0.90034279  0.70321407  0.69521460  1
  Zr  Zr26  1  0.50184074  0.09893738  0.29663435  1
  Zr  Zr27  1  0.50804209  0.70250826  0.10520677  1
  Zr  Zr28  1  0.09362289  0.09869397  0.88911293  1
  Zr  Zr29  1  0.90283785  0.49425767  0.49732830  1
  Zr  Zr30  1  0.10865849  0.69786178  0.89862285  1
  Zr  Zr31  1  0.09916901  0.69884181  0.29853283  1
  Zr  Zr32  1  0.90666837  0.91128060  0.30798223  1
  Zr  Zr33  1  0.28439918  0.90328920  0.10261262  1
  Zr  Zr34  1  0.90514583  0.89519943  0.50034006  1
  Zr  Zr35  1  0.50406378  0.10094464  0.49795138  1
  Zr  Zr36  1  0.89561550  0.09414812  0.10594000  1
  Zr  Zr37  1  0.29133301  0.10148809  0.70327891  1
  Zr  Zr38  1  0.29584941  0.29594385  0.70904187  1
  Zr  Zr39  1  0.30301448  0.10073381  0.28860878  1
  Zr  Zr40  1  0.70518374  0.49880358  0.90195846  1
  Zr  Zr41  1  0.70293659  0.71139521  0.10532974  1
  Zr  Zr42  1  0.89853008  0.50121064  0.10278489  1
  Zr  Zr43  1  0.29523446  0.50468254  0.89987544  1
  Zr  Zr44  1  0.90051796  0.49862666  0.29898002  1
  Zr  Zr45  1  0.69187759  0.90890824  0.70431791  1
  Zr  Zr46  1  0.50416669  0.90769047  0.88676220  1
  Zr  Zr47  1  0.29087873  0.09634426  0.50614380  1
  Zr  Zr48  1  0.50698333  0.08565621  0.69988625  1
  Zr  Zr49  1  0.90028647  0.89798343  0.09383501  1
  Sc  Sc50  1  0.90821775  0.29753154  0.10105240  1
  Sc  Sc51  1  0.89467703  0.30659922  0.49948511  1
  Sc  Sc52  1  0.09975885  0.48963659  0.10453951  1
  Sc  Sc53  1  0.90562350  0.90230347  0.90282249  1
  Sc  Sc54  1  0.69444375  0.10922816  0.49963057  1
  Sc  Sc55  1  0.50399152  0.49953482  0.10898550  1
  Sc  Sc56  1  0.70520262  0.49884418  0.50268205  1
  Sc  Sc57  1  0.30295563  0.90033703  0.89843152  1
  Sc  Sc58  1  0.70061982  0.49066962  0.70261950  1
  Sc  Sc59  1  0.50956559  0.30622467  0.29449358  1
  Sc  Sc60  1  0.49195446  0.29906906  0.70815194  1
  Sc  Sc61  1  0.48867372  0.10558299  0.09564993  1
  Sc  Sc62  1  0.09484341  0.49507114  0.30774403  1
  Sc  Sc63  1  0.10498648  0.90762113  0.49576230  1
  Sc  Sc64  1  0.30457673  0.89956810  0.69284201  1
  Sc  Sc65  1  0.71194881  0.69266755  0.68147371  1
  Sc  Sc66  1  0.49758148  0.89964434  0.50121649  1
  Sc  Sc67  1  0.29990048  0.09629225  0.89865237  1
  Sc  Sc68  1  0.69281416  0.90341485  0.29966952  1
  Sc  Sc69  1  0.49450556  0.50355499  0.50857791  1
  Sc  Sc70  1  0.70722579  0.09503247  0.29829721  1
  Sc  Sc71  1  0.29423463  0.70381036  0.70166541  1
  Sc  Sc72  1  0.10385968  0.30019908  0.71138301  1
  Sc  Sc73  1  0.50197076  0.89432947  0.10667413  1
  Sc  Sc74  1  0.69630879  0.70263662  0.92052806  1
  Sc  Sc75  1  0.10136013  0.31385452  0.49719707  1
  Sc  Sc76  1  0.30024134  0.70667703  0.09383558  1
  Sc  Sc77  1  0.70292920  0.71253529  0.30606703  1
  Sc  Sc78  1  0.49016330  0.70302235  0.90915889  1
  Sc  Sc79  1  0.09247131  0.08806862  0.29281993  1
  Sc  Sc80  1  0.28709662  0.50085177  0.50186324  1
  Sc  Sc81  1  0.49666472  0.29165848  0.90088110  1
  Sc  Sc82  1  0.70533309  0.29841899  0.29984481  1
  Sc  Sc83  1  0.10744674  0.89787146  0.30094654  1
  Sc  Sc84  1  0.10933538  0.70492103  0.09607284  1
  Sc  Sc85  1  0.70236153  0.29814882  0.49871083  1
  Sc  Sc86  1  0.91210032  0.71288326  0.90310921  1
  Sc  Sc87  1  0.48904855  0.29667886  0.09510566  1
  Sc  Sc88  1  0.30405061  0.48644640  0.10174621  1
  Sc  Sc89  1  0.49089953  0.10136843  0.89845872  1
  Sc  Sc90  1  0.30203363  0.70534713  0.30819810  1
  Sc  Sc91  1  0.90313998  0.69621838  0.30712132  1
  Sc  Sc92  1  0.48360476  0.69243358  0.69138054  1
  Sc  Sc93  1  0.09974940  0.90601997  0.70157703  1
  Sc  Sc94  1  0.09565985  0.89549304  0.90508983  1
  Sc  Sc95  1  0.29791536  0.30631180  0.28744405  1
  Sc  Sc96  1  0.90600213  0.89967542  0.70088120  1
  Sc  Sc97  1  0.70406111  0.89141119  0.49128250  1
  Sc  Sc98  1  0.69245230  0.48748271  0.29586462  1
  Sc  Sc99  1  0.70309810  0.10929705  0.90989925  1
  Nb  Nb100  1  0.29046673  0.29630321  0.09335084  1
  Nb  Nb101  1  0.09965655  0.50519662  0.70575750  1
  Nb  Nb102  1  0.09945237  0.29656251  0.29598618  1
  Nb  Nb103  1  0.90504714  0.49505347  0.90212921  1
  Nb  Nb104  1  0.09941768  0.90230431  0.10404485  1
  Nb  Nb105  1  0.10183925  0.10066280  0.69345866  1
  Nb  Nb106  1  0.70247979  0.10535766  0.69244143  1
  Nb  Nb107  1  0.90115049  0.10023296  0.29984676  1
  Nb  Nb108  1  0.30155220  0.89932349  0.30187784  1
  Nb  Nb109  1  0.49892913  0.90196284  0.30573292  1
  Nb  Nb110  1  0.10610004  0.29604243  0.10123062  1
  Nb  Nb111  1  0.10320528  0.10320903  0.50615647  1
  Nb  Nb112  1  0.29376799  0.29498197  0.90188565  1
  Nb  Nb113  1  0.50150803  0.70145901  0.50047164  1
  Nb  Nb114  1  0.09254250  0.49795718  0.89048736  1
  Nb  Nb115  1  0.69959628  0.29324035  0.69342948  1
  Nb  Nb116  1  0.90246484  0.09993576  0.89565828  1
  Nb  Nb117  1  0.09600099  0.50058892  0.50713213  1
  Nb  Nb118  1  0.70188624  0.09853972  0.09933909  1
  Nb  Nb119  1  0.49959346  0.29604162  0.49874384  1
  Nb  Nb120  1  0.30136401  0.50135725  0.29683701  1
  Nb  Nb121  1  0.50564472  0.89896238  0.70093198  1
  Nb  Nb122  1  0.29602949  0.90003596  0.49555178  1
  Nb  Nb123  1  0.69795246  0.70161609  0.49874659  1
  Nb  Nb124  1  0.10281993  0.08983834  0.09800551  1
  Nb  Nb125  1  0.00613263  0.19806222  0.39915003  1
  Nb  Nb126  1  0.79952966  0.00542484  0.79953814  1
  Nb  Nb127  1  0.00280647  0.80428916  0.19898640  1
  Nb  Nb128  1  0.79262651  0.79962847  0.79934305  1
  Nb  Nb129  1  0.60590245  0.60944844  0.79876648  1
  Nb  Nb130  1  0.59702518  0.79526190  0.60085635  1
  Nb  Nb131  1  0.60638306  0.19734468  0.79267076  1
  Nb  Nb132  1  0.39556820  0.20252754  0.40048496  1
  Nb  Nb133  1  0.59530566  0.39060613  0.60336543  1
  Nb  Nb134  1  0.39801055  0.39882042  0.40028019  1
  Nb  Nb135  1  0.59739846  0.60758000  0.40721329  1
  Nb  Nb136  1  0.20573098  0.59401748  0.20508030  1
  Nb  Nb137  1  0.80205819  0.60328899  0.80602554  1
  Nb  Nb138  1  0.19399712  0.20050038  0.19376397  1
  Nb  Nb139  1  0.60188704  0.78904364  0.79188399  1
  Nb  Nb140  1  0.00367869  0.59204411  -0.00413635  1
  Nb  Nb141  1  0.19536051  0.20080383  0.39288773  1
  Nb  Nb142  1  0.39525099  -0.00090356  0.39698276  1
  Nb  Nb143  1  0.60285435  0.39950677  -0.00295137  1
  Nb  Nb144  1  0.00198229  0.79679132  0.59434212  1
  Nb  Nb145  1  0.40056945  0.19780962  0.59743288  1
  Nb  Nb146  1  0.79867157  0.00351701  0.60434057  1
  Nb  Nb147  1  0.60330619  0.19392926  0.19231884  1
  Nb  Nb148  1  0.60281564  0.00490974  0.00509549  1
  Nb  Nb149  1  0.00723596  0.19838160  0.59588864  1
  Pd  Pd150  1  0.20063661  0.59695485  0.39599291  1
  Pd  Pd151  1  0.20036388  0.00660680  0.39226167  1
  Pd  Pd152  1  0.19743570  0.40654889  -0.00322381  1
  Pd  Pd153  1  -0.00006136  0.60092577  0.40888696  1
  Pd  Pd154  1  0.60840686  0.60913805  0.21457920  1
  Pd  Pd155  1  0.81323614  0.20069189  0.00038353  1
  Pd  Pd156  1  0.81102495  0.80796167  0.21156815  1
  Pd  Pd157  1  0.00020220  0.60686393  0.59008681  1
  Pd  Pd158  1  0.40052092  0.81081232  0.00251341  1
  Pd  Pd159  1  0.39898256  0.59500261  0.40953876  1
  Pd  Pd160  1  0.19427382  0.58809370  0.01123760  1
  Pd  Pd161  1  0.40241628  0.59419253  0.01103027  1
  Pd  Pd162  1  0.19138200  0.40238247  0.61145355  1
  Pd  Pd163  1  0.79736399  0.19431880  0.80174863  1
  Pd  Pd164  1  0.40410259  0.39421750  0.20238557  1
  Pd  Pd165  1  -0.00152060  0.19241382  0.00402838  1
  Pd  Pd166  1  0.38671379  0.59814014  0.59516036  1
  Pd  Pd167  1  0.80684762  0.40544536  0.79359127  1
  Pd  Pd168  1  0.20389769  0.60026535  0.60480757  1
  Pd  Pd169  1  -0.00680755  0.60558309  0.80699153  1
  Pd  Pd170  1  0.40649063  -0.00822682  0.00162847  1
  Pd  Pd171  1  0.59241557  0.59590203  -0.00205230  1
  Pd  Pd172  1  0.00779332  0.39114382  0.60729300  1
  Pd  Pd173  1  0.80187953  0.39295352  0.00626092  1
  Pd  Pd174  1  0.59630151  0.00402132  0.19334617  1
  Pd  Pd175  1  0.40403939  0.39869909  -0.00560102  1
  Pd  Pd176  1  0.40397171  0.79703612  0.79527404  1
  Pd  Pd177  1  0.39339233  0.80273818  0.19754365  1
  Pd  Pd178  1  0.59362496  0.40898045  0.41201603  1
  Pd  Pd179  1  0.00190088  0.39870469  0.20009007  1
  Pd  Pd180  1  0.39758960  -0.00043490  0.59745204  1
  Pd  Pd181  1  0.20330426  0.39949930  0.39243942  1
  Pd  Pd182  1  0.80661349  0.19803468  0.40187585  1
  Pd  Pd183  1  0.20080625  0.80888860  0.80073455  1
  Pd  Pd184  1  0.00388432  0.19407658  0.20064045  1
  Pd  Pd185  1  0.78985073  0.60095891  0.21299152  1
  Pd  Pd186  1  0.20030032  -0.00669010  0.80215302  1
  Pd  Pd187  1  0.40261911  -0.00895514  0.19815429  1
  Pd  Pd188  1  0.39417002  0.39351298  0.81278020  1
  Pd  Pd189  1  0.81368848  0.60948476  -0.00734398  1
  Pd  Pd190  1  0.59994571  0.20211093  0.38733649  1
  Pd  Pd191  1  0.19504197  0.18924120  -0.00414999  1
  Pd  Pd192  1  0.39013286  0.60736733  0.19229178  1
  Pd  Pd193  1  0.78736834  0.59173299  0.39229228  1
  Pd  Pd194  1  0.60327201  0.59562228  0.60177497  1
  Pd  Pd195  1  0.79245907  0.00176880  0.40649008  1
  Pd  Pd196  1  0.79701615  0.39473418  0.19439117  1
  Pd  Pd197  1  0.60965047  -0.00924785  0.58441704  1
  Pd  Pd198  1  0.00147955  0.00349384  -0.00088749  1
  Pd  Pd199  1  0.40341809  0.39519126  0.59673441  1
  Rh  Rh200  1  0.59412796  0.19874667  -0.00069150  1
  Rh  Rh201  1  0.00944518  0.00476427  0.40165157  1
  Rh  Rh202  1  0.01551793  0.60702858  0.18995359  1
  Rh  Rh203  1  0.00055089  0.39548657  0.39909359  1
  Rh  Rh204  1  0.20084375  0.59746065  0.79507502  1
  Rh  Rh205  1  0.00328120  0.20483413  0.79434944  1
  Rh  Rh206  1  0.20221794  0.80266871  0.39759071  1
  Rh  Rh207  1  0.38863940  0.20263103  -0.00515573  1
  Rh  Rh208  1  0.19843401  0.79402514  0.20483697  1
  Rh  Rh209  1  -0.00300051  -0.00363165  0.80119693  1
  Rh  Rh210  1  0.00294525  0.79793071  0.40022162  1
  Rh  Rh211  1  0.80381896  -0.00211354  0.20398275  1
  Rh  Rh212  1  0.40071402  0.60746562  0.80339199  1
  Rh  Rh213  1  0.40112965  0.81011124  0.40513216  1
  Rh  Rh214  1  0.79138821  0.40084422  0.60087493  1
  Rh  Rh215  1  0.19395345  -0.00198324  -0.00702241  1
  Rh  Rh216  1  0.79964287  0.00715528  -0.00709234  1
  Rh  Rh217  1  0.19926430  0.40374694  0.80487017  1
  Rh  Rh218  1  0.61115745  0.01318452  0.81443348  1
  Rh  Rh219  1  0.81071534  0.19379791  0.58977963  1
  Rh  Rh220  1  0.79662747  0.81482959  0.60453639  1
  Rh  Rh221  1  0.19701301  0.20679125  0.59788539  1
  Rh  Rh222  1  0.80095718  0.40283783  0.39657343  1
  Rh  Rh223  1  0.19375225  0.80802314  0.59980855  1
  Rh  Rh224  1  0.59826962  0.39348403  0.79839039  1
  Rh  Rh225  1  0.39270762  0.00108119  0.79238446  1
  Rh  Rh226  1  0.59702676  -0.00209613  0.40106421  1
  Rh  Rh227  1  0.59539944  0.79926571  0.40526862  1
  Rh  Rh228  1  0.00171708  -0.00181247  0.59883678  1
  Rh  Rh229  1  0.19777368  -0.00752172  0.60470080  1
  Rh  Rh230  1  0.39791788  0.20914615  0.19952415  1
  Rh  Rh231  1  0.40388513  0.80555631  0.59915610  1
  Rh  Rh232  1  0.80299328  0.58611732  0.60125033  1
  Rh  Rh233  1  0.60379660  0.38712950  0.18366657  1
  Rh  Rh234  1  0.19901048  0.00300969  0.20223587  1
  Rh  Rh235  1  0.58748070  0.20829994  0.60937433  1
  Rh  Rh236  1  -0.00185528  -0.00748663  0.19741270  1
  Rh  Rh237  1  0.80833281  0.79480389  -0.00274077  1
  Rh  Rh238  1  0.40219711  0.19283838  0.79469088  1
  Rh  Rh239  1  0.79695543  0.19752972  0.20108632  1
  Rh  Rh240  1  0.19522368  0.19872616  0.80914376  1
  Rh  Rh241  1  0.60014536  0.80260087  0.20643133  1
  Rh  Rh242  1  0.00174746  0.40382100  0.00392621  1
  Rh  Rh243  1  0.19746701  0.39911809  0.20266609  1
  Rh  Rh244  1  0.80416690  0.80420765  0.39382364  1
  Rh  Rh245  1  0.20055343  0.80857540  -0.00510341  1
  Rh  Rh246  1  0.58915658  0.81165999  -0.00391687  1
  Rh  Rh247  1  0.00524718  0.79229435  0.01093532  1
  Rh  Rh248  1  -0.00008130  0.80256182  0.79156351  1
  Rh  Rh249  1  -0.00161387  0.39631769  0.79303246  1
