# generated using pymatgen
data_ZrScNbPdRh
_symmetry_space_group_name_H-M   'P 1'
_cell_length_a   16.55453721
_cell_length_b   16.55213340
_cell_length_c   16.55353633
_cell_angle_alpha   90.03294331
_cell_angle_beta   89.97643813
_cell_angle_gamma   89.99098252
_symmetry_Int_Tables_number   1
_chemical_formula_structural   ZrScNbPdRh
_chemical_formula_sum   'Zr50 Sc50 Nb50 Pd50 Rh50'
_cell_volume   4535.88144147
_cell_formula_units_Z   50
loop_
 _symmetry_equiv_pos_site_id
 _symmetry_equiv_pos_as_xyz
  1  'x, y, z'
loop_
 _atom_site_type_symbol
 _atom_site_label
 _atom_site_symmetry_multiplicity
 _atom_site_fract_x
 _atom_site_fract_y
 _atom_site_fract_z
 _atom_site_occupancy
  Zr  Zr0  1  0.09877513  0.89360757  0.09831325  1
  Zr  Zr1  1  0.10238416  0.10325558  0.29904764  1
  Zr  Zr2  1  0.09868628  0.31001757  0.49886911  1
  Zr  Zr3  1  0.29998526  0.70235840  0.29858827  1
  Zr  Zr4  1  0.29746060  0.30003547  0.29783805  1
  Zr  Zr5  1  0.69974633  0.70548201  0.09243914  1
  Zr  Zr6  1  0.49470904  0.30222860  0.49040390  1
  Zr  Zr7  1  0.70669873  0.50083229  0.49814481  1
  Zr  Zr8  1  0.49536732  0.89979380  0.50303029  1
  Zr  Zr9  1  0.10075000  0.28692119  0.91108684  1
  Zr  Zr10  1  0.10159720  0.49860509  0.10322790  1
  Zr  Zr11  1  0.49162669  0.49830069  0.49921974  1
  Zr  Zr12  1  0.90450484  0.30771558  0.10149365  1
  Zr  Zr13  1  0.90151670  0.10373556  0.50548203  1
  Zr  Zr14  1  0.50531073  0.69400861  0.90879671  1
  Zr  Zr15  1  0.10405156  0.09372176  0.88098407  1
  Zr  Zr16  1  0.50239352  0.89253959  0.69707721  1
  Zr  Zr17  1  0.50020029  0.90448546  0.89039709  1
  Zr  Zr18  1  0.90231669  0.89772954  0.29661231  1
  Zr  Zr19  1  0.90091771  0.89055929  0.09782948  1
  Zr  Zr20  1  0.69618621  0.09554188  0.09865743  1
  Zr  Zr21  1  0.69251283  0.10468527  0.29395744  1
  Zr  Zr22  1  0.49782989  0.68750976  0.69680630  1
  Zr  Zr23  1  0.90674147  0.10196857  0.31026730  1
  Zr  Zr24  1  0.09143691  0.10878502  0.49637498  1
  Zr  Zr25  1  0.89762859  0.09604284  0.09860795  1
  Zr  Zr26  1  0.28741385  0.10730082  0.69892696  1
  Zr  Zr27  1  0.09779884  0.30086308  0.29949299  1
  Zr  Zr28  1  0.09850718  0.69824496  0.49426333  1
  Zr  Zr29  1  0.89649048  0.90581063  0.49512504  1
  Zr  Zr30  1  0.89061308  0.69370018  0.49913786  1
  Zr  Zr31  1  0.11017572  0.29191682  0.69382873  1
  Zr  Zr32  1  0.68956293  0.69945280  0.30126968  1
  Zr  Zr33  1  0.09906907  0.10745784  0.08687772  1
  Zr  Zr34  1  0.49101632  0.10589849  0.30532734  1
  Zr  Zr35  1  0.09805273  0.90037661  0.49774628  1
  Zr  Zr36  1  0.50652944  0.70013289  0.11165693  1
  Zr  Zr37  1  0.09935777  0.69988759  0.71348749  1
  Zr  Zr38  1  0.90083275  0.30939665  0.29547414  1
  Zr  Zr39  1  0.69986102  0.89890785  0.30376418  1
  Zr  Zr40  1  0.30366897  0.50327468  0.91708190  1
  Zr  Zr41  1  0.69699684  0.70623787  0.49826451  1
  Zr  Zr42  1  0.49791809  0.50763600  0.09499516  1
  Zr  Zr43  1  0.90154461  0.89625755  0.70250436  1
  Zr  Zr44  1  0.70293771  0.89914334  0.10374220  1
  Zr  Zr45  1  0.49706264  0.08892637  0.70623888  1
  Zr  Zr46  1  0.09912131  0.51262591  0.90448607  1
  Zr  Zr47  1  0.69690185  0.89704110  0.90436021  1
  Zr  Zr48  1  0.50284718  0.09944808  0.10681009  1
  Zr  Zr49  1  0.29233387  0.30592293  0.09135293  1
  Sc  Sc50  1  0.89655104  0.50492663  0.90911919  1
  Sc  Sc51  1  0.29982224  0.09943245  0.29819037  1
  Sc  Sc52  1  0.69368165  0.89236312  0.70770583  1
  Sc  Sc53  1  0.49968735  0.29599497  0.90295605  1
  Sc  Sc54  1  0.50308714  0.89639906  0.29410207  1
  Sc  Sc55  1  0.30394348  0.89266055  0.68731618  1
  Sc  Sc56  1  0.50669379  0.30247325  0.70729869  1
  Sc  Sc57  1  0.89867508  0.29943840  0.89985924  1
  Sc  Sc58  1  0.29262396  0.69728876  0.10196119  1
  Sc  Sc59  1  0.29898983  0.30089845  0.69129746  1
  Sc  Sc60  1  0.89218818  0.29794285  0.69890951  1
  Sc  Sc61  1  0.29055812  0.71079633  0.50159440  1
  Sc  Sc62  1  0.30905718  0.09820389  0.89010638  1
  Sc  Sc63  1  0.30060863  0.48920743  0.50145257  1
  Sc  Sc64  1  0.70783325  0.50115641  0.30016901  1
  Sc  Sc65  1  0.70746379  0.69738638  0.69988502  1
  Sc  Sc66  1  0.70656311  0.30535518  0.70110241  1
  Sc  Sc67  1  0.09649960  0.69981460  0.10138004  1
  Sc  Sc68  1  0.70978779  0.50665333  0.10106083  1
  Sc  Sc69  1  0.29413558  0.30170969  0.49768350  1
  Sc  Sc70  1  0.69730931  0.29967290  0.88862093  1
  Sc  Sc71  1  0.51015967  0.69639007  0.49840277  1
  Sc  Sc72  1  0.30516608  0.09857395  0.10561946  1
  Sc  Sc73  1  0.89776742  0.30947605  0.50748560  1
  Sc  Sc74  1  0.70309294  0.50427789  0.90185530  1
  Sc  Sc75  1  0.30740754  0.50005646  0.69166881  1
  Sc  Sc76  1  0.10715196  0.89508083  0.29353200  1
  Sc  Sc77  1  0.09424011  0.50082695  0.30580579  1
  Sc  Sc78  1  0.10571611  0.70517970  0.90608250  1
  Sc  Sc79  1  0.70326989  0.49811950  0.70960912  1
  Sc  Sc80  1  0.70658348  0.69662164  0.90139173  1
  Sc  Sc81  1  0.49639526  0.29916077  0.30555868  1
  Sc  Sc82  1  0.30362007  0.09495389  0.48702457  1
  Sc  Sc83  1  0.29393245  0.90641090  0.29909778  1
  Sc  Sc84  1  0.29532459  0.89859881  0.10848969  1
  Sc  Sc85  1  0.50606928  0.90045401  0.09885897  1
  Sc  Sc86  1  0.90109421  0.49689021  0.49564334  1
  Sc  Sc87  1  0.90457517  0.69824348  0.90072369  1
  Sc  Sc88  1  0.70752168  0.29984350  0.11365499  1
  Sc  Sc89  1  0.70953741  0.11639536  0.70492940  1
  Sc  Sc90  1  0.91481811  0.10145586  0.90098347  1
  Sc  Sc91  1  0.10183714  0.69287867  0.29682470  1
  Sc  Sc92  1  0.50539437  0.50282086  0.89832071  1
  Sc  Sc93  1  0.09436158  0.90396847  0.70981910  1
  Sc  Sc94  1  0.10334463  0.49552328  0.70053063  1
  Sc  Sc95  1  0.49051375  0.29235018  0.09699011  1
  Sc  Sc96  1  0.91118813  0.89778980  0.90429500  1
  Sc  Sc97  1  0.29865748  0.50663958  0.30104646  1
  Sc  Sc98  1  0.90054421  0.50217660  0.10404097  1
  Sc  Sc99  1  0.50655491  0.09891834  0.90283575  1
  Nb  Nb100  1  0.49982123  0.49407561  0.69624287  1
  Nb  Nb101  1  0.90298472  0.50858925  0.29957455  1
  Nb  Nb102  1  0.69578338  0.89940493  0.49925155  1
  Nb  Nb103  1  0.10136613  0.89855449  0.90340770  1
  Nb  Nb104  1  0.49595933  0.69462901  0.29907407  1
  Nb  Nb105  1  0.90319946  0.70121599  0.10129007  1
  Nb  Nb106  1  0.29810476  0.89177664  0.90484973  1
  Nb  Nb107  1  0.90141202  0.69787804  0.70142915  1
  Nb  Nb108  1  0.29814087  0.89743504  0.49369488  1
  Nb  Nb109  1  0.90756415  0.69242807  0.29635428  1
  Nb  Nb110  1  0.69995169  0.10439963  0.49993298  1
  Nb  Nb111  1  0.49264848  0.51283261  0.29449704  1
  Nb  Nb112  1  0.49917983  0.10016303  0.49680910  1
  Nb  Nb113  1  0.29735824  0.69746648  0.70418883  1
  Nb  Nb114  1  0.90247902  0.49595990  0.69898751  1
  Nb  Nb115  1  0.09681769  0.09742044  0.69203912  1
  Nb  Nb116  1  0.70463942  0.09903818  0.90021083  1
  Nb  Nb117  1  0.69608415  0.30173423  0.49759278  1
  Nb  Nb118  1  0.90448674  0.09595637  0.69876677  1
  Nb  Nb119  1  0.09470646  0.50039548  0.50683911  1
  Nb  Nb120  1  0.09917061  0.30322330  0.10680430  1
  Nb  Nb121  1  0.29627065  0.70196952  0.89881834  1
  Nb  Nb122  1  0.30051206  0.49357178  0.10180173  1
  Nb  Nb123  1  0.69644575  0.30418628  0.30670421  1
  Nb  Nb124  1  0.30303358  0.30518593  0.89861870  1
  Nb  Nb125  1  0.79253722  0.20683358  0.40098884  1
  Nb  Nb126  1  0.80312172  0.00378176  0.79903754  1
  Nb  Nb127  1  0.39482191  0.78918382  0.80333739  1
  Nb  Nb128  1  0.19498930  0.00141186  0.59677781  1
  Nb  Nb129  1  0.00165183  0.00113366  0.19530936  1
  Nb  Nb130  1  0.59951157  0.39928185  0.59516858  1
  Nb  Nb131  1  0.20027066  -0.00597723  -0.00803361  1
  Nb  Nb132  1  0.79448058  0.00140977  0.60190998  1
  Nb  Nb133  1  0.39760717  0.79904080  -0.00487150  1
  Nb  Nb134  1  0.00690821  0.39866314  0.80059796  1
  Nb  Nb135  1  0.40017625  0.40731584  0.19628494  1
  Nb  Nb136  1  0.59373458  0.40558976  0.20224954  1
  Nb  Nb137  1  0.40029529  0.80018899  0.39829058  1
  Nb  Nb138  1  0.59946937  0.00278770  0.40733767  1
  Nb  Nb139  1  -0.00056328  0.60047578  0.60402448  1
  Nb  Nb140  1  0.59818088  0.19997278  0.59289384  1
  Nb  Nb141  1  0.60117312  0.39942278  0.00830065  1
  Nb  Nb142  1  0.60602528  0.00615454  0.59681943  1
  Nb  Nb143  1  0.19449025  0.60303237  0.60200182  1
  Nb  Nb144  1  0.40791923  0.19544343  0.59676309  1
  Nb  Nb145  1  0.20270827  0.39747437  0.80815436  1
  Nb  Nb146  1  0.79741981  0.19502758  0.00011423  1
  Nb  Nb147  1  -0.00431642  0.79262785  0.59927571  1
  Nb  Nb148  1  0.39620102  0.40205558  0.80426082  1
  Nb  Nb149  1  -0.00387053  0.79510997  0.40030709  1
  Pd  Pd150  1  0.00344986  0.40229775  -0.00517417  1
  Pd  Pd151  1  0.80614468  0.39834325  0.39821728  1
  Pd  Pd152  1  0.38777843  -0.01225089  0.79357012  1
  Pd  Pd153  1  0.80492654  0.00182493  0.20486863  1
  Pd  Pd154  1  0.39560460  0.59454792  0.80147171  1
  Pd  Pd155  1  0.20383325  0.19922252  0.19592331  1
  Pd  Pd156  1  0.60006929  0.59151581  0.39770644  1
  Pd  Pd157  1  0.60689894  0.59074796  0.60406525  1
  Pd  Pd158  1  0.19916787  0.59626597  0.19941330  1
  Pd  Pd159  1  0.80372450  0.19968147  0.20327631  1
  Pd  Pd160  1  0.39516576  -0.00512283  0.00305082  1
  Pd  Pd161  1  0.59734996  -0.00271758  -0.00113460  1
  Pd  Pd162  1  0.80371842  0.79320582  0.39245419  1
  Pd  Pd163  1  0.40268291  0.78714023  0.59552009  1
  Pd  Pd164  1  0.78948617  0.39019719  -0.00356245  1
  Pd  Pd165  1  0.59555151  0.78429216  0.79919705  1
  Pd  Pd166  1  0.20944544  -0.01182844  0.79435456  1
  Pd  Pd167  1  0.21333216  0.18629338  -0.00863246  1
  Pd  Pd168  1  0.40113393  0.20879714  0.79283745  1
  Pd  Pd169  1  0.61061432  0.20905217  0.00046961  1
  Pd  Pd170  1  0.59910479  0.19765033  0.79545404  1
  Pd  Pd171  1  -0.00120811  0.19629083  0.19614804  1
  Pd  Pd172  1  0.79849312  0.78988486  0.20516339  1
  Pd  Pd173  1  0.18919867  0.80194818  0.60784740  1
  Pd  Pd174  1  0.79817469  0.80646827  0.60218665  1
  Pd  Pd175  1  0.80252138  0.59153014  0.60606253  1
  Pd  Pd176  1  0.80425984  0.80190707  0.80840909  1
  Pd  Pd177  1  0.79240554  0.00904271  0.40147597  1
  Pd  Pd178  1  0.19473488  0.00234138  0.40348366  1
  Pd  Pd179  1  0.59284272  0.21321235  0.20061512  1
  Pd  Pd180  1  0.39156936  0.00620488  0.59870354  1
  Pd  Pd181  1  0.20387857  0.80860469  0.79503892  1
  Pd  Pd182  1  -0.00667326  0.59204500  0.79896222  1
  Pd  Pd183  1  0.80570738  0.00030490  -0.01034241  1
  Pd  Pd184  1  0.21040352  0.58752814  0.79610492  1
  Pd  Pd185  1  0.20494603  0.59353570  0.40902263  1
  Pd  Pd186  1  0.19863996  0.40754889  0.39589066  1
  Pd  Pd187  1  -0.00493757  0.21024031  0.60282540  1
  Pd  Pd188  1  0.39483213  0.19274054  -0.00154981  1
  Pd  Pd189  1  0.39544142  0.61167609  0.00866194  1
  Pd  Pd190  1  0.39806884  0.80321679  0.19905363  1
  Pd  Pd191  1  0.38855199  0.60753788  0.58850701  1
  Pd  Pd192  1  0.79894162  0.60768004  0.20040997  1
  Pd  Pd193  1  0.40277281  -0.00612457  0.20379432  1
  Pd  Pd194  1  -0.00225115  0.20680785  0.79094284  1
  Pd  Pd195  1  0.39173686  0.60892058  0.41109767  1
  Pd  Pd196  1  0.80934760  0.40537283  0.80591298  1
  Pd  Pd197  1  0.18958740  0.40153472  -0.00383709  1
  Pd  Pd198  1  0.59460489  0.41241604  0.39549155  1
  Pd  Pd199  1  0.60480847  0.59854357  0.79854733  1
  Rh  Rh200  1  -0.00477830  0.60004634  0.40394071  1
  Rh  Rh201  1  0.00276468  0.40865950  0.20268114  1
  Rh  Rh202  1  0.60436764  0.79829864  0.60364587  1
  Rh  Rh203  1  0.80567025  0.60774444  0.00324072  1
  Rh  Rh204  1  0.00252983  0.79967781  0.20616777  1
  Rh  Rh205  1  0.61470404  0.01020302  0.79263599  1
  Rh  Rh206  1  0.80602599  0.59940547  0.80047262  1
  Rh  Rh207  1  0.20232385  0.20728036  0.80504425  1
  Rh  Rh208  1  0.20162211  0.40349315  0.20465809  1
  Rh  Rh209  1  0.39269957  0.59823394  0.19389399  1
  Rh  Rh210  1  0.20065725  0.20069495  0.39975864  1
  Rh  Rh211  1  0.01073219  -0.00991538  0.38499119  1
  Rh  Rh212  1  -0.00504810  -0.00158769  0.79889790  1
  Rh  Rh213  1  0.01118596  -0.00308111  0.00278970  1
  Rh  Rh214  1  0.60370401  0.19530994  0.40001737  1
  Rh  Rh215  1  -0.00023287  0.79894216  0.80329784  1
  Rh  Rh216  1  0.20692907  0.18843214  0.58344701  1
  Rh  Rh217  1  -0.00127479  0.60477038  0.00715634  1
  Rh  Rh218  1  0.40644049  -0.01155597  0.39348340  1
  Rh  Rh219  1  0.60950458  0.59379802  0.00330939  1
  Rh  Rh220  1  0.80501940  0.79788199  -0.00393971  1
  Rh  Rh221  1  0.79232697  0.40383937  0.60137665  1
  Rh  Rh222  1  0.18975262  0.00905280  0.18702035  1
  Rh  Rh223  1  0.59443651  0.80424047  -0.00134799  1
  Rh  Rh224  1  0.39500617  0.20855416  0.19913424  1
  Rh  Rh225  1  0.19961878  0.60313459  0.00740130  1
  Rh  Rh226  1  0.59594106  -0.00091346  0.20620616  1
  Rh  Rh227  1  -0.00283711  0.40338200  0.39802170  1
  Rh  Rh228  1  0.00058174  0.79179842  -0.00276761  1
  Rh  Rh229  1  0.20200807  0.80192907  0.38968855  1
  Rh  Rh230  1  0.58838839  0.80490453  0.39812535  1
  Rh  Rh231  1  0.41150375  0.39918580  -0.00070511  1
  Rh  Rh232  1  0.59333911  0.40432285  0.80247521  1
  Rh  Rh233  1  0.80008512  0.60286904  0.39333396  1
  Rh  Rh234  1  0.79714051  0.40533092  0.20571828  1
  Rh  Rh235  1  0.39591882  0.40345929  0.38580320  1
  Rh  Rh236  1  0.00037638  0.40292045  0.60867690  1
  Rh  Rh237  1  0.80959981  0.19132301  0.81144850  1
  Rh  Rh238  1  0.19897501  0.40771764  0.60363462  1
  Rh  Rh239  1  0.00034706  -0.00724853  0.60471221  1
  Rh  Rh240  1  0.60596021  0.59562232  0.20166340  1
  Rh  Rh241  1  0.79729586  0.19914346  0.59421366  1
  Rh  Rh242  1  0.00031572  0.59670065  0.19657861  1
  Rh  Rh243  1  0.39004811  0.20380176  0.40393028  1
  Rh  Rh244  1  -0.00979689  0.20681695  0.00645600  1
  Rh  Rh245  1  0.19916437  0.79361627  0.20107821  1
  Rh  Rh246  1  0.20350465  0.80224213  0.00595087  1
  Rh  Rh247  1  -0.01046449  0.21672673  0.40564314  1
  Rh  Rh248  1  0.41020087  0.38660407  0.60899953  1
  Rh  Rh249  1  0.60252063  0.80096348  0.20222239  1
