# generated using pymatgen
data_ZrScNbPdRh
_symmetry_space_group_name_H-M   'P 1'
_cell_length_a   16.55790811
_cell_length_b   16.56131281
_cell_length_c   16.56021260
_cell_angle_alpha   89.99650582
_cell_angle_beta   89.96177316
_cell_angle_gamma   90.00458245
_symmetry_Int_Tables_number   1
_chemical_formula_structural   ZrScNbPdRh
_chemical_formula_sum   'Zr50 Sc50 Nb50 Pd50 Rh50'
_cell_volume   4541.15198516
_cell_formula_units_Z   50
loop_
 _symmetry_equiv_pos_site_id
 _symmetry_equiv_pos_as_xyz
  1  'x, y, z'
loop_
 _atom_site_type_symbol
 _atom_site_label
 _atom_site_symmetry_multiplicity
 _atom_site_fract_x
 _atom_site_fract_y
 _atom_site_fract_z
 _atom_site_occupancy
  Zr  Zr0  1  0.30364606  0.90250125  0.10133919  1
  Zr  Zr1  1  0.69715748  0.10354361  0.29745462  1
  Zr  Zr2  1  0.70995387  0.69891358  0.89540476  1
  Zr  Zr3  1  0.89889464  0.09718522  0.09239139  1
  Zr  Zr4  1  0.29537876  0.29826181  0.49860130  1
  Zr  Zr5  1  0.89725232  0.10747034  0.89142184  1
  Zr  Zr6  1  0.10009114  0.89795358  0.69967776  1
  Zr  Zr7  1  0.29387817  0.90026676  0.70618703  1
  Zr  Zr8  1  0.30152128  0.69684518  0.69852752  1
  Zr  Zr9  1  0.30478585  0.10018120  0.50227234  1
  Zr  Zr10  1  0.10074702  0.10706462  0.50037943  1
  Zr  Zr11  1  0.50542999  0.29470337  0.30384813  1
  Zr  Zr12  1  0.89265895  0.68448482  0.09722471  1
  Zr  Zr13  1  0.10363149  0.49417042  0.29384386  1
  Zr  Zr14  1  0.90028388  0.90121093  0.50017640  1
  Zr  Zr15  1  0.09858403  0.69558762  0.89230873  1
  Zr  Zr16  1  0.30164571  0.89625017  0.49682547  1
  Zr  Zr17  1  0.50713137  0.89958787  0.70708191  1
  Zr  Zr18  1  0.49784790  0.50559252  0.09808772  1
  Zr  Zr19  1  0.70356204  0.70118599  0.10062344  1
  Zr  Zr20  1  0.10619074  0.10673443  0.09991204  1
  Zr  Zr21  1  0.69296171  0.51301109  0.69627410  1
  Zr  Zr22  1  0.49478319  0.70076621  0.10111643  1
  Zr  Zr23  1  0.10196249  0.90150778  0.10191036  1
  Zr  Zr24  1  0.89819916  0.10187728  0.30245300  1
  Zr  Zr25  1  0.90142689  0.90534798  0.89689460  1
  Zr  Zr26  1  0.49683441  0.70297341  0.91059350  1
  Zr  Zr27  1  0.30012430  0.10318728  0.28784138  1
  Zr  Zr28  1  0.50482401  0.69549751  0.68931577  1
  Zr  Zr29  1  0.09493331  0.49386277  0.10692688  1
  Zr  Zr30  1  0.30160575  0.50300405  0.70459666  1
  Zr  Zr31  1  0.08981307  0.50412018  0.51178314  1
  Zr  Zr32  1  0.30438353  0.30472092  0.70056456  1
  Zr  Zr33  1  0.91140744  0.30325636  0.09723060  1
  Zr  Zr34  1  0.29984782  0.49878278  0.30122704  1
  Zr  Zr35  1  0.89397459  0.89725299  0.10008638  1
  Zr  Zr36  1  0.90230062  0.91017826  0.69731347  1
  Zr  Zr37  1  0.70337508  0.49870652  0.50916893  1
  Zr  Zr38  1  0.70534778  0.89859932  0.48926673  1
  Zr  Zr39  1  0.10614547  0.69361709  0.10033292  1
  Zr  Zr40  1  0.69947881  0.10735210  0.90829905  1
  Zr  Zr41  1  0.70994282  0.29823743  0.89570500  1
  Zr  Zr42  1  0.69284137  0.30745217  0.48814466  1
  Zr  Zr43  1  0.29518410  0.31039193  0.89966344  1
  Zr  Zr44  1  0.30051782  0.49707865  0.49781672  1
  Zr  Zr45  1  0.89110955  0.29586801  0.71220511  1
  Zr  Zr46  1  0.89862037  0.30430554  0.50501789  1
  Zr  Zr47  1  0.70825459  0.50919096  0.10247717  1
  Zr  Zr48  1  0.89785145  0.89346631  0.30430180  1
  Zr  Zr49  1  0.69756295  0.28442376  0.09632767  1
  Sc  Sc50  1  0.10370182  0.11571996  0.29714307  1
  Sc  Sc51  1  0.69935402  0.50098672  0.89069766  1
  Sc  Sc52  1  0.30527338  0.69603789  0.09882263  1
  Sc  Sc53  1  0.69894912  0.09813429  0.48396412  1
  Sc  Sc54  1  0.10170443  0.90551465  0.88581047  1
  Sc  Sc55  1  0.49673367  0.30681912  0.50320747  1
  Sc  Sc56  1  0.30406374  0.89745864  0.29589701  1
  Sc  Sc57  1  0.30466164  0.69998631  0.50699131  1
  Sc  Sc58  1  0.09431656  0.09281563  0.69988039  1
  Sc  Sc59  1  0.29598352  0.09335823  0.69459310  1
  Sc  Sc60  1  0.90027602  0.69424716  0.30152655  1
  Sc  Sc61  1  0.49542129  0.89770087  0.49046755  1
  Sc  Sc62  1  0.70236663  0.89227601  0.69673379  1
  Sc  Sc63  1  0.50700303  0.09498994  0.30001903  1
  Sc  Sc64  1  0.29996095  0.49871162  0.89773152  1
  Sc  Sc65  1  0.90308301  0.09969648  0.69926294  1
  Sc  Sc66  1  0.90668366  0.29747268  0.30592344  1
  Sc  Sc67  1  0.30419386  0.69590475  0.29864336  1
  Sc  Sc68  1  0.69454604  0.91105617  0.89117574  1
  Sc  Sc69  1  0.70212167  0.08806889  0.70994326  1
  Sc  Sc70  1  0.69535390  0.09564613  0.10252171  1
  Sc  Sc71  1  0.49456013  0.50312521  0.89862631  1
  Sc  Sc72  1  0.09607956  0.29210776  0.70229786  1
  Sc  Sc73  1  0.49979117  0.50190079  0.49454636  1
  Sc  Sc74  1  0.69791675  0.32452789  0.70039343  1
  Sc  Sc75  1  0.30083673  0.69339235  0.90296494  1
  Sc  Sc76  1  0.90506950  0.51074186  0.90508498  1
  Sc  Sc77  1  0.11262533  0.49907478  0.90329020  1
  Sc  Sc78  1  0.30682460  0.29167624  0.09626437  1
  Sc  Sc79  1  0.48788948  0.09531964  0.69729391  1
  Sc  Sc80  1  0.89671769  0.69676704  0.49207113  1
  Sc  Sc81  1  0.10707558  0.69072361  0.69939832  1
  Sc  Sc82  1  0.69983990  0.69595645  0.50439660  1
  Sc  Sc83  1  0.09449491  0.70200804  0.30107676  1
  Sc  Sc84  1  0.49510556  0.30596470  0.90663879  1
  Sc  Sc85  1  0.49810983  0.90453790  0.90407860  1
  Sc  Sc86  1  0.10486545  0.88913944  0.29562152  1
  Sc  Sc87  1  0.09636828  0.29900748  0.48920118  1
  Sc  Sc88  1  0.28832463  0.50539988  0.10129792  1
  Sc  Sc89  1  0.29255376  0.30706315  0.30676438  1
  Sc  Sc90  1  0.70173652  0.49933491  0.31569415  1
  Sc  Sc91  1  0.90086319  0.09948135  0.50175378  1
  Sc  Sc92  1  0.10308631  0.89047231  0.49512561  1
  Sc  Sc93  1  0.49942889  0.90462027  0.10465809  1
  Sc  Sc94  1  0.89183852  0.70235726  0.71027954  1
  Sc  Sc95  1  0.89586384  0.50388198  0.49702098  1
  Sc  Sc96  1  0.50601425  0.89399977  0.30045338  1
  Sc  Sc97  1  0.50322611  0.09246416  0.90345673  1
  Sc  Sc98  1  0.89306472  0.49439510  0.69124686  1
  Sc  Sc99  1  0.70067008  0.70664497  0.30792899  1
  Nb  Nb100  1  0.09604581  0.69528524  0.50084057  1
  Nb  Nb101  1  0.69720828  0.29954038  0.29831423  1
  Nb  Nb102  1  0.89846179  0.49985488  0.10937890  1
  Nb  Nb103  1  0.30533357  0.09704803  0.09963740  1
  Nb  Nb104  1  0.30263393  0.09637925  0.89750929  1
  Nb  Nb105  1  0.90207496  0.70626467  0.90686737  1
  Nb  Nb106  1  0.10408255  0.49789511  0.70425212  1
  Nb  Nb107  1  0.10317532  0.30693069  0.09955541  1
  Nb  Nb108  1  0.49525603  0.68783181  0.30757644  1
  Nb  Nb109  1  0.10170417  0.10382925  0.89997283  1
  Nb  Nb110  1  0.09929819  0.30038153  0.90715380  1
  Nb  Nb111  1  0.69830659  0.90785055  0.29503943  1
  Nb  Nb112  1  0.69563842  0.69661216  0.69787356  1
  Nb  Nb113  1  0.90131463  0.30205788  0.89661632  1
  Nb  Nb114  1  0.30060320  0.90150334  0.89734874  1
  Nb  Nb115  1  0.49780588  0.29927961  0.69930068  1
  Nb  Nb116  1  0.69651289  0.89538190  0.11537696  1
  Nb  Nb117  1  0.10457614  0.30586508  0.29652987  1
  Nb  Nb118  1  0.49312029  0.69907539  0.49281547  1
  Nb  Nb119  1  0.50212653  0.49233500  0.69529191  1
  Nb  Nb120  1  0.49491503  0.11596565  0.10491244  1
  Nb  Nb121  1  0.90200164  0.50382047  0.28401302  1
  Nb  Nb122  1  0.49325341  0.50095191  0.30228072  1
  Nb  Nb123  1  0.50081400  0.10030380  0.49974470  1
  Nb  Nb124  1  0.50299353  0.29911443  0.10374579  1
  Nb  Nb125  1  0.59363706  0.20424998  0.79278117  1
  Nb  Nb126  1  0.78705609  0.20388820  0.60096514  1
  Nb  Nb127  1  -0.00029867  0.79665203  -0.00348650  1
  Nb  Nb128  1  0.80388397  0.40074482  0.00421423  1
  Nb  Nb129  1  0.60820599  0.80288445  0.00641581  1
  Nb  Nb130  1  0.19369052  0.59966038  0.40725792  1
  Nb  Nb131  1  0.20710124  0.00465861  -0.00311398  1
  Nb  Nb132  1  0.40760860  0.39919518  0.20059471  1
  Nb  Nb133  1  0.60039898  0.19817470  0.60326131  1
  Nb  Nb134  1  0.00246940  0.39719885  0.80541712  1
  Nb  Nb135  1  0.00068245  0.79504409  0.59935680  1
  Nb  Nb136  1  0.20186021  0.19789941  0.80874497  1
  Nb  Nb137  1  0.59775711  0.00309025  0.59281728  1
  Nb  Nb138  1  0.40021695  0.19626762  0.40305258  1
  Nb  Nb139  1  0.60213023  0.40161889  0.20064356  1
  Nb  Nb140  1  0.39900129  0.80010393  0.80067152  1
  Nb  Nb141  1  0.19622984  0.40242517  0.60396599  1
  Nb  Nb142  1  0.19888681  0.80646147  -0.00453244  1
  Nb  Nb143  1  0.79734369  0.39664583  0.19984910  1
  Nb  Nb144  1  0.39653374  0.20081121  0.80114821  1
  Nb  Nb145  1  0.00017641  0.00113643  0.20179539  1
  Nb  Nb146  1  0.59434382  0.59834805  0.20924839  1
  Nb  Nb147  1  0.60660259  0.39918860  0.00830071  1
  Nb  Nb148  1  0.20002212  0.00326764  0.39559535  1
  Nb  Nb149  1  0.00689655  -0.00001687  0.39375964  1
  Pd  Pd150  1  -0.00110534  0.79789843  0.79580907  1
  Pd  Pd151  1  0.80296355  0.00214246  0.20204834  1
  Pd  Pd152  1  0.19873895  0.20478340  0.60905392  1
  Pd  Pd153  1  0.59435468  0.79074333  0.20245321  1
  Pd  Pd154  1  0.59690429  0.79445855  0.80954221  1
  Pd  Pd155  1  0.19372169  -0.00384546  0.58960598  1
  Pd  Pd156  1  0.20861045  0.79227454  0.19568627  1
  Pd  Pd157  1  -0.00095779  0.19963775  -0.00315318  1
  Pd  Pd158  1  0.78870225  -0.00605134  0.00015905  1
  Pd  Pd159  1  0.20573338  0.21200178  0.19617513  1
  Pd  Pd160  1  0.41054344  0.00112738  0.20399780  1
  Pd  Pd161  1  0.59147389  0.60452169  0.80175930  1
  Pd  Pd162  1  -0.00741125  0.79518115  0.19137567  1
  Pd  Pd163  1  0.20602541  0.79240904  0.39823613  1
  Pd  Pd164  1  0.40513044  -0.01129358  0.59995544  1
  Pd  Pd165  1  0.00894882  -0.00390214  -0.00114902  1
  Pd  Pd166  1  0.39821244  0.40453497  0.59820937  1
  Pd  Pd167  1  0.40121829  0.00249983  0.00314774  1
  Pd  Pd168  1  0.79836229  0.80707759  0.79883983  1
  Pd  Pd169  1  0.59935334  0.79832706  0.40203882  1
  Pd  Pd170  1  0.40334887  0.79774564  0.20563418  1
  Pd  Pd171  1  0.80628641  0.79279983  0.60003137  1
  Pd  Pd172  1  0.78983906  0.01020084  0.59495864  1
  Pd  Pd173  1  0.39644382  0.00378404  0.39010263  1
  Pd  Pd174  1  0.80730514  0.59500119  0.79883805  1
  Pd  Pd175  1  0.60474511  0.60096313  -0.00061517  1
  Pd  Pd176  1  0.59205186  0.39769818  0.80981150  1
  Pd  Pd177  1  -0.00782038  0.20331857  0.60144890  1
  Pd  Pd178  1  -0.00452208  0.59179057  0.79308058  1
  Pd  Pd179  1  0.19446497  0.79450480  0.59877898  1
  Pd  Pd180  1  0.80979151  0.40309264  0.39171192  1
  Pd  Pd181  1  0.79481585  0.81137284  -0.00567798  1
  Pd  Pd182  1  0.00272369  0.39261714  0.61145317  1
  Pd  Pd183  1  -0.00260140  0.40678671  0.39536242  1
  Pd  Pd184  1  0.60350473  0.59887924  0.40348518  1
  Pd  Pd185  1  0.00625801  0.59767280  0.00195968  1
  Pd  Pd186  1  0.40787095  0.60422242  0.79895958  1
  Pd  Pd187  1  0.80313928  0.79219913  0.20778741  1
  Pd  Pd188  1  -0.00081339  0.40838509  -0.00674409  1
  Pd  Pd189  1  -0.01169789  0.60887074  0.61175275  1
  Pd  Pd190  1  0.59887691  0.80532307  0.58859740  1
  Pd  Pd191  1  0.40405670  0.19835374  -0.00816719  1
  Pd  Pd192  1  0.80527591  0.20394981  0.19822087  1
  Pd  Pd193  1  0.20646245  0.19837596  -0.00193932  1
  Pd  Pd194  1  0.00154372  0.59334126  0.39186557  1
  Pd  Pd195  1  0.80173532  0.20262000  0.40679857  1
  Pd  Pd196  1  0.60112825  -0.00423937  0.01137527  1
  Pd  Pd197  1  0.39769763  0.40609772  0.00871927  1
  Pd  Pd198  1  0.40539253  0.80621989  0.60516211  1
  Pd  Pd199  1  0.00115912  0.20083340  0.19989878  1
  Rh  Rh200  1  0.39098428  0.59245034  0.00134433  1
  Rh  Rh201  1  -0.00016086  0.00699760  0.80132354  1
  Rh  Rh202  1  0.40696544  0.19962157  0.59879111  1
  Rh  Rh203  1  0.40585664  0.39048125  0.39350823  1
  Rh  Rh204  1  0.59406299  0.00849904  0.79439379  1
  Rh  Rh205  1  0.40744700  0.59330588  0.59804790  1
  Rh  Rh206  1  0.00231780  0.19816093  0.39929487  1
  Rh  Rh207  1  0.59359949  0.20023095  0.40702535  1
  Rh  Rh208  1  0.80073941  0.60776830  0.60296457  1
  Rh  Rh209  1  0.20269916  0.59916941  0.80181938  1
  Rh  Rh210  1  0.59863197  0.19708870  0.20093850  1
  Rh  Rh211  1  0.40053960  0.20599548  0.20789384  1
  Rh  Rh212  1  -0.00193231  0.80208216  0.40766736  1
  Rh  Rh213  1  0.59492086  0.40594971  0.39725040  1
  Rh  Rh214  1  0.00846895  -0.00968876  0.58835213  1
  Rh  Rh215  1  0.18930496  0.39125085  0.79444097  1
  Rh  Rh216  1  0.21122352  0.39173306  0.19040363  1
  Rh  Rh217  1  0.81264942  0.41283201  0.81068358  1
  Rh  Rh218  1  0.40132640  0.59433902  0.19887050  1
  Rh  Rh219  1  0.80260690  0.59685131  0.39840591  1
  Rh  Rh220  1  0.80502280  -0.00016625  0.39404433  1
  Rh  Rh221  1  0.81143304  0.20495316  0.00252170  1
  Rh  Rh222  1  0.20211750  0.39967413  0.00823988  1
  Rh  Rh223  1  0.78784167  0.59760892  0.21578513  1
  Rh  Rh224  1  0.19837617  0.01000359  0.80351465  1
  Rh  Rh225  1  0.60020022  -0.00529829  0.40046305  1
  Rh  Rh226  1  0.00934171  0.20301951  0.80592567  1
  Rh  Rh227  1  0.80250030  -0.00025572  0.80149105  1
  Rh  Rh228  1  0.79895935  0.39578840  0.59745854  1
  Rh  Rh229  1  0.20641289  0.19460470  0.39612162  1
  Rh  Rh230  1  0.39803412  0.80623412  -0.00599431  1
  Rh  Rh231  1  0.20266203  0.59269940  0.59528116  1
  Rh  Rh232  1  0.19887424  0.60420401  0.21140752  1
  Rh  Rh233  1  0.79795941  0.79865253  0.39749778  1
  Rh  Rh234  1  0.78658681  0.19660185  0.79024034  1
  Rh  Rh235  1  0.38934367  0.60345862  0.40613546  1
  Rh  Rh236  1  -0.00322072  0.39124846  0.20695831  1
  Rh  Rh237  1  0.18476628  0.41062451  0.41203921  1
  Rh  Rh238  1  0.19387037  0.00366722  0.19888102  1
  Rh  Rh239  1  0.59390518  0.59935073  0.59174308  1
  Rh  Rh240  1  0.21000387  0.79080677  0.80658537  1
  Rh  Rh241  1  0.58822172  0.20382565  -0.00983774  1
  Rh  Rh242  1  0.00529816  0.60565476  0.20041641  1
  Rh  Rh243  1  0.20030424  0.60380354  -0.00283486  1
  Rh  Rh244  1  0.39927628  -0.00224465  0.79755440  1
  Rh  Rh245  1  0.79931737  0.59306743  -0.00995857  1
  Rh  Rh246  1  0.59576309  0.00454175  0.19692614  1
  Rh  Rh247  1  0.59559689  0.39991249  0.59757695  1
  Rh  Rh248  1  0.40846193  0.40001015  0.79911723  1
  Rh  Rh249  1  0.39835785  0.79414493  0.39583910  1
