# generated using pymatgen
data_ZrScNbPdRh
_symmetry_space_group_name_H-M   'P 1'
_cell_length_a   16.55557816
_cell_length_b   16.55883549
_cell_length_c   16.55598978
_cell_angle_alpha   90.00369304
_cell_angle_beta   89.99158075
_cell_angle_gamma   90.02857732
_symmetry_Int_Tables_number   1
_chemical_formula_structural   ZrScNbPdRh
_chemical_formula_sum   'Zr50 Sc50 Nb50 Pd50 Rh50'
_cell_volume   4538.67654731
_cell_formula_units_Z   50
loop_
 _symmetry_equiv_pos_site_id
 _symmetry_equiv_pos_as_xyz
  1  'x, y, z'
loop_
 _atom_site_type_symbol
 _atom_site_label
 _atom_site_symmetry_multiplicity
 _atom_site_fract_x
 _atom_site_fract_y
 _atom_site_fract_z
 _atom_site_occupancy
  Zr  Zr0  1  0.29352428  0.08647304  0.50954997  1
  Zr  Zr1  1  0.10141256  0.09928648  0.88970935  1
  Zr  Zr2  1  0.90043653  0.70048229  0.49693562  1
  Zr  Zr3  1  0.09974626  0.69439540  0.50038704  1
  Zr  Zr4  1  0.50476708  0.89351473  0.30877894  1
  Zr  Zr5  1  0.50560847  0.30871901  0.30190484  1
  Zr  Zr6  1  0.69737749  0.29735044  0.49577746  1
  Zr  Zr7  1  0.89785775  0.29792269  0.89825475  1
  Zr  Zr8  1  0.49980640  0.50413504  0.30906852  1
  Zr  Zr9  1  0.89986249  0.10027752  0.50516229  1
  Zr  Zr10  1  0.70204101  0.49648435  0.29487464  1
  Zr  Zr11  1  0.49711427  0.90462069  0.90487638  1
  Zr  Zr12  1  0.10676663  0.29700899  0.68836346  1
  Zr  Zr13  1  0.10118632  0.30223984  0.30577626  1
  Zr  Zr14  1  0.89840763  0.09754275  0.10833272  1
  Zr  Zr15  1  0.50244627  0.50836653  0.50616917  1
  Zr  Zr16  1  0.30054231  0.09983053  0.89240816  1
  Zr  Zr17  1  0.09759143  0.89749881  0.09668246  1
  Zr  Zr18  1  0.69498831  0.29280258  0.70357163  1
  Zr  Zr19  1  0.30942091  0.50539422  0.70367518  1
  Zr  Zr20  1  0.70075771  0.69629333  0.50139250  1
  Zr  Zr21  1  0.89376781  0.70273944  0.09879217  1
  Zr  Zr22  1  0.90792566  0.50372739  0.49325890  1
  Zr  Zr23  1  0.28998322  0.70182520  0.89499192  1
  Zr  Zr24  1  0.10282501  0.10657784  0.69510376  1
  Zr  Zr25  1  0.49665648  0.49049175  0.89177921  1
  Zr  Zr26  1  0.70042723  0.50435022  0.69895995  1
  Zr  Zr27  1  0.69503228  0.29912467  0.30129266  1
  Zr  Zr28  1  0.89590161  0.10339496  0.89820460  1
  Zr  Zr29  1  0.30609528  0.69241183  0.09956552  1
  Zr  Zr30  1  0.69968239  0.70604641  0.09897675  1
  Zr  Zr31  1  0.10598963  0.70594446  0.70279335  1
  Zr  Zr32  1  0.90238700  0.29844838  0.10120080  1
  Zr  Zr33  1  0.49850226  0.30155646  0.71486901  1
  Zr  Zr34  1  0.68692035  0.89369244  0.89696322  1
  Zr  Zr35  1  0.29942994  0.30462084  0.30148402  1
  Zr  Zr36  1  0.50455553  0.30148057  0.49760562  1
  Zr  Zr37  1  0.90341792  0.30034991  0.29803566  1
  Zr  Zr38  1  0.49739863  0.09402016  0.69147730  1
  Zr  Zr39  1  0.70059781  0.09683224  0.90002724  1
  Zr  Zr40  1  0.89807612  0.50120576  0.69758973  1
  Zr  Zr41  1  0.69324419  0.29560290  0.90053783  1
  Zr  Zr42  1  0.29717023  0.30338657  0.09932774  1
  Zr  Zr43  1  0.10075923  0.30498433  0.10202158  1
  Zr  Zr44  1  0.70477029  0.09659540  0.70178206  1
  Zr  Zr45  1  0.09936934  0.49782661  0.30332002  1
  Zr  Zr46  1  0.89237658  0.70280340  0.89533530  1
  Zr  Zr47  1  0.50504804  0.30284758  0.09872260  1
  Zr  Zr48  1  0.29866527  0.89505988  0.31204271  1
  Zr  Zr49  1  0.89191145  0.69837752  0.30359157  1
  Sc  Sc50  1  0.10413413  0.69926407  0.30660400  1
  Sc  Sc51  1  0.49612419  0.09733414  0.90514345  1
  Sc  Sc52  1  0.29656245  0.70288369  0.50429797  1
  Sc  Sc53  1  0.30234725  0.69448143  0.30279835  1
  Sc  Sc54  1  0.89650025  0.49624560  0.90103516  1
  Sc  Sc55  1  0.30118268  0.88946076  0.09057448  1
  Sc  Sc56  1  0.90358999  0.30054134  0.49275528  1
  Sc  Sc57  1  0.29761701  0.70059092  0.70248146  1
  Sc  Sc58  1  0.30130411  0.50093917  0.90150887  1
  Sc  Sc59  1  0.09995053  0.89050692  0.89757221  1
  Sc  Sc60  1  0.90705720  0.89812776  0.90001135  1
  Sc  Sc61  1  0.70332156  0.49565732  0.10234374  1
  Sc  Sc62  1  0.70312696  0.50188267  0.50111525  1
  Sc  Sc63  1  0.10581806  0.49541056  0.09761227  1
  Sc  Sc64  1  0.28470648  0.30833990  0.50182296  1
  Sc  Sc65  1  0.29975368  0.50039661  0.49570388  1
  Sc  Sc66  1  0.10019152  0.90073439  0.70757046  1
  Sc  Sc67  1  0.89137371  0.49307612  0.10344115  1
  Sc  Sc68  1  0.09923504  0.49917707  0.68970512  1
  Sc  Sc69  1  0.49084611  0.68839232  0.69684821  1
  Sc  Sc70  1  0.30066113  0.50581057  0.09333462  1
  Sc  Sc71  1  0.29669981  0.90898081  0.69899125  1
  Sc  Sc72  1  0.70209356  0.90377489  0.70571246  1
  Sc  Sc73  1  0.30534436  0.89846942  0.89414455  1
  Sc  Sc74  1  0.50419317  0.10746176  0.29906684  1
  Sc  Sc75  1  0.11268097  0.70522026  0.09425455  1
  Sc  Sc76  1  0.30881941  0.10852158  0.09415848  1
  Sc  Sc77  1  0.09656436  0.29920750  0.90205501  1
  Sc  Sc78  1  0.89519165  0.90283891  0.30440674  1
  Sc  Sc79  1  0.10085074  0.49345998  0.90073597  1
  Sc  Sc80  1  0.90858578  0.29402598  0.69706966  1
  Sc  Sc81  1  0.70452623  0.49632713  0.90388679  1
  Sc  Sc82  1  0.09258989  0.10244481  0.09967132  1
  Sc  Sc83  1  0.89409825  0.89822850  0.50074300  1
  Sc  Sc84  1  0.69841194  0.30373991  0.10132431  1
  Sc  Sc85  1  0.70171268  0.90798421  0.50027003  1
  Sc  Sc86  1  0.70043090  0.89539137  0.30850346  1
  Sc  Sc87  1  0.90426149  0.09688217  0.70229178  1
  Sc  Sc88  1  0.50247604  0.10054879  0.09341955  1
  Sc  Sc89  1  0.50423239  0.90868962  0.50282185  1
  Sc  Sc90  1  0.70188268  0.09845564  0.09708661  1
  Sc  Sc91  1  0.10678905  0.89711515  0.30621511  1
  Sc  Sc92  1  0.29705124  0.10474024  0.29787403  1
  Sc  Sc93  1  0.90038391  0.90607031  0.09878809  1
  Sc  Sc94  1  0.10167745  0.10375218  0.30211891  1
  Sc  Sc95  1  0.50058119  0.69610455  0.49507806  1
  Sc  Sc96  1  0.89492629  0.90571551  0.69725533  1
  Sc  Sc97  1  0.49498573  0.71454682  0.89126241  1
  Sc  Sc98  1  0.69584667  0.89717265  0.09498736  1
  Sc  Sc99  1  0.30764966  0.29639010  0.89732268  1
  Nb  Nb100  1  0.69421123  0.70176981  0.29652180  1
  Nb  Nb101  1  0.70568384  0.70006326  0.70791289  1
  Nb  Nb102  1  0.09733452  0.10249248  0.49994390  1
  Nb  Nb103  1  0.49907627  0.89118961  0.70495055  1
  Nb  Nb104  1  0.70350385  0.09579173  0.30565693  1
  Nb  Nb105  1  0.50265948  0.89903811  0.09962132  1
  Nb  Nb106  1  0.50006327  0.50024651  0.70116053  1
  Nb  Nb107  1  0.68636906  0.10280316  0.49969401  1
  Nb  Nb108  1  0.50528146  0.70230703  0.30030742  1
  Nb  Nb109  1  0.49513315  0.51082961  0.10085102  1
  Nb  Nb110  1  0.50101769  0.10178623  0.50137738  1
  Nb  Nb111  1  0.09681754  0.29733447  0.49664459  1
  Nb  Nb112  1  0.29530258  0.10996894  0.70309345  1
  Nb  Nb113  1  0.50518721  0.30190025  0.89856070  1
  Nb  Nb114  1  0.29934813  0.89799530  0.49958280  1
  Nb  Nb115  1  0.89920753  0.09953495  0.30159672  1
  Nb  Nb116  1  0.11426523  0.89871991  0.49667429  1
  Nb  Nb117  1  0.29929867  0.29501502  0.70006113  1
  Nb  Nb118  1  0.69801417  0.69832414  0.89691505  1
  Nb  Nb119  1  0.50131826  0.70174938  0.10356047  1
  Nb  Nb120  1  0.90268348  0.49989266  0.29407799  1
  Nb  Nb121  1  0.89696038  0.70122600  0.70038488  1
  Nb  Nb122  1  0.09021402  0.70598953  0.89648231  1
  Nb  Nb123  1  0.10078197  0.48995793  0.49855100  1
  Nb  Nb124  1  0.30641499  0.49753447  0.29838810  1
  Nb  Nb125  1  0.20073819  0.00072615  0.00022641  1
  Nb  Nb126  1  0.00416422  0.00453722  0.40643065  1
  Nb  Nb127  1  0.79343007  0.19542188  0.59557538  1
  Nb  Nb128  1  0.20462952  0.39541716  0.79137767  1
  Nb  Nb129  1  0.59522349  0.40108447  0.60645149  1
  Nb  Nb130  1  0.39614876  0.20094335  0.59963857  1
  Nb  Nb131  1  0.59508360  0.60510530  -0.00072940  1
  Nb  Nb132  1  0.40284301  0.80767895  0.59887182  1
  Nb  Nb133  1  0.40906782  0.79798164  0.20148709  1
  Nb  Nb134  1  0.59578152  0.60686172  0.19853529  1
  Nb  Nb135  1  0.60354206  0.60289271  0.80292207  1
  Nb  Nb136  1  0.00201703  0.79802198  0.59821100  1
  Nb  Nb137  1  0.40281750  0.39640823  0.60515482  1
  Nb  Nb138  1  0.40310267  0.40791249  0.20046664  1
  Nb  Nb139  1  0.39977071  0.19792038  0.41005179  1
  Nb  Nb140  1  0.79862654  0.39452107  0.79632627  1
  Nb  Nb141  1  0.59661094  -0.00485429  0.20292490  1
  Nb  Nb142  1  0.40196105  -0.00853388  0.20167270  1
  Nb  Nb143  1  -0.00228535  0.60674989  0.80143828  1
  Nb  Nb144  1  0.59911157  0.79611087  0.60882621  1
  Nb  Nb145  1  -0.00122546  0.79537265  0.20156602  1
  Nb  Nb146  1  -0.00198502  0.60623735  -0.00107977  1
  Nb  Nb147  1  -0.00285106  0.60292174  0.19746527  1
  Nb  Nb148  1  0.20567983  -0.00336243  0.19339257  1
  Nb  Nb149  1  0.39997074  0.00442321  0.40191261  1
  Pd  Pd150  1  0.19173849  -0.00475022  0.60754996  1
  Pd  Pd151  1  0.20420108  0.59485028  0.59754863  1
  Pd  Pd152  1  0.00544430  0.00280370  -0.00634215  1
  Pd  Pd153  1  0.39522644  0.60687400  0.40462541  1
  Pd  Pd154  1  0.79531334  0.59654129  0.39611044  1
  Pd  Pd155  1  0.79996788  0.81001343  -0.00588962  1
  Pd  Pd156  1  0.00317322  0.40496650  0.79641567  1
  Pd  Pd157  1  0.40699031  0.60761928  -0.01292424  1
  Pd  Pd158  1  0.80059615  0.19496612  0.40303650  1
  Pd  Pd159  1  0.20620102  0.19574228  0.40651057  1
  Pd  Pd160  1  0.79773603  0.80188365  0.60188660  1
  Pd  Pd161  1  0.20356514  0.59707531  0.40204360  1
  Pd  Pd162  1  0.78893025  -0.00657933  0.20192927  1
  Pd  Pd163  1  0.80343695  0.60143895  0.59728042  1
  Pd  Pd164  1  0.00069476  0.60627152  0.60563498  1
  Pd  Pd165  1  0.40331761  0.20329356  0.20621828  1
  Pd  Pd166  1  0.19802094  0.19726291  -0.00371142  1
  Pd  Pd167  1  0.00788128  -0.01181326  0.59393030  1
  Pd  Pd168  1  0.80169603  0.80995128  0.80060929  1
  Pd  Pd169  1  0.60378171  -0.00905548  0.60384613  1
  Pd  Pd170  1  0.19614449  0.19264098  0.19536448  1
  Pd  Pd171  1  0.59366767  0.00353737  0.79943573  1
  Pd  Pd172  1  0.59127100  0.18572833  0.80509280  1
  Pd  Pd173  1  0.40113465  0.79551997  0.00191274  1
  Pd  Pd174  1  0.18945779  0.59019840  0.80221759  1
  Pd  Pd175  1  0.80287901  0.40280582  0.39657681  1
  Pd  Pd176  1  0.79784995  -0.00726474  -0.00399647  1
  Pd  Pd177  1  0.60698020  0.18998257  0.19795982  1
  Pd  Pd178  1  0.00134476  0.80993930  0.40067425  1
  Pd  Pd179  1  0.79769317  0.59652767  0.00102479  1
  Pd  Pd180  1  0.80243644  0.81030696  0.20302069  1
  Pd  Pd181  1  0.79660356  0.20208882  0.00740806  1
  Pd  Pd182  1  0.79691677  0.38889273  0.60322976  1
  Pd  Pd183  1  0.20739298  0.40942841  0.19918615  1
  Pd  Pd184  1  0.40570193  0.20512290  -0.00506186  1
  Pd  Pd185  1  0.19538111  0.59597202  0.20039845  1
  Pd  Pd186  1  -0.00140129  -0.00246908  0.80006023  1
  Pd  Pd187  1  0.20352733  0.80148850  0.20318480  1
  Pd  Pd188  1  0.00820296  -0.00792841  0.21376479  1
  Pd  Pd189  1  0.80306997  0.00361291  0.40467015  1
  Pd  Pd190  1  0.60363277  0.79916463  0.41503947  1
  Pd  Pd191  1  0.00058575  0.19622472  -0.00088760  1
  Pd  Pd192  1  0.39857498  0.39871002  0.00419819  1
  Pd  Pd193  1  0.19131153  0.59999714  -0.00748598  1
  Pd  Pd194  1  -0.00340364  0.40822372  0.00341321  1
  Pd  Pd195  1  0.00478132  0.19925763  0.20505558  1
  Pd  Pd196  1  0.39979137  0.00048710  0.79427573  1
  Pd  Pd197  1  0.60015226  0.40910680  0.00393975  1
  Pd  Pd198  1  -0.00221555  0.39510575  0.59400479  1
  Pd  Pd199  1  0.79291589  0.20150499  0.20069872  1
  Rh  Rh200  1  0.59614007  0.00873403  0.39260353  1
  Rh  Rh201  1  0.40035117  -0.00278383  0.59921430  1
  Rh  Rh202  1  0.39196144  -0.00215625  0.00627181  1
  Rh  Rh203  1  0.60657088  0.41111762  0.41026138  1
  Rh  Rh204  1  0.39430446  0.39455577  0.40153002  1
  Rh  Rh205  1  0.60866547  0.59923188  0.39208779  1
  Rh  Rh206  1  0.40351199  0.60131573  0.20753126  1
  Rh  Rh207  1  -0.00064134  0.19373354  0.39790503  1
  Rh  Rh208  1  0.79264050  0.79721090  0.40197502  1
  Rh  Rh209  1  0.80707656  0.20337144  0.79039117  1
  Rh  Rh210  1  0.19808549  0.40468985  0.40015282  1
  Rh  Rh211  1  0.20084443  0.80612012  0.60076005  1
  Rh  Rh212  1  0.60322334  0.60478883  0.61032521  1
  Rh  Rh213  1  0.20638543  0.40769456  0.60463741  1
  Rh  Rh214  1  0.19557214  0.20980393  0.80425312  1
  Rh  Rh215  1  0.00282975  0.59493837  0.39301193  1
  Rh  Rh216  1  -0.00136706  0.79417049  0.01001080  1
  Rh  Rh217  1  0.19839474  0.00610290  0.39419340  1
  Rh  Rh218  1  0.20266041  0.78802936  0.40458272  1
  Rh  Rh219  1  0.59860882  0.19949879  -0.00139356  1
  Rh  Rh220  1  0.20163794  -0.00062168  0.80379857  1
  Rh  Rh221  1  0.59143574  0.41324404  0.19307517  1
  Rh  Rh222  1  0.20651587  0.39482838  -0.01083806  1
  Rh  Rh223  1  0.80283208  0.39089361  0.20239103  1
  Rh  Rh224  1  0.59730639  0.19488762  0.39372267  1
  Rh  Rh225  1  0.79938002  0.39076888  -0.00465493  1
  Rh  Rh226  1  0.59526362  0.79507159  -0.00360266  1
  Rh  Rh227  1  0.00039483  0.40054964  0.40054308  1
  Rh  Rh228  1  0.79692076  0.59933252  0.20318152  1
  Rh  Rh229  1  0.20385163  0.19846955  0.59121924  1
  Rh  Rh230  1  -0.00689592  0.79819980  0.78755607  1
  Rh  Rh231  1  0.79325238  0.00814950  0.59602711  1
  Rh  Rh232  1  0.20464076  0.80592786  0.80024618  1
  Rh  Rh233  1  0.60208401  0.00086316  0.00546066  1
  Rh  Rh234  1  0.80372927  -0.00348506  0.80820110  1
  Rh  Rh235  1  0.40585838  0.19381714  0.79805201  1
  Rh  Rh236  1  0.59840797  0.79186205  0.79170105  1
  Rh  Rh237  1  -0.00297803  0.20286733  0.59458807  1
  Rh  Rh238  1  0.80129985  0.59213873  0.80237629  1
  Rh  Rh239  1  0.40110663  0.80196903  0.40629131  1
  Rh  Rh240  1  0.39451206  0.60140917  0.59620749  1
  Rh  Rh241  1  0.61030526  0.40863454  0.79887765  1
  Rh  Rh242  1  0.59941332  0.80247101  0.19941330  1
  Rh  Rh243  1  0.59857009  0.20404466  0.60159684  1
  Rh  Rh244  1  0.00022688  0.40638588  0.19785615  1
  Rh  Rh245  1  0.00279242  0.19947102  0.79745383  1
  Rh  Rh246  1  0.39144044  0.39684217  0.79865340  1
  Rh  Rh247  1  0.39314772  0.80027070  0.78866101  1
  Rh  Rh248  1  0.40572487  0.60379230  0.80733056  1
  Rh  Rh249  1  0.20209764  0.80306846  -0.00916333  1
