# generated using pymatgen
data_ZrScNbPdRh
_symmetry_space_group_name_H-M   'P 1'
_cell_length_a   16.55894596
_cell_length_b   16.55911212
_cell_length_c   16.55992767
_cell_angle_alpha   89.99643177
_cell_angle_beta   89.99417070
_cell_angle_gamma   90.02085057
_symmetry_Int_Tables_number   1
_chemical_formula_structural   ZrScNbPdRh
_chemical_formula_sum   'Zr50 Sc50 Nb50 Pd50 Rh50'
_cell_volume   4540.75572591
_cell_formula_units_Z   50
loop_
 _symmetry_equiv_pos_site_id
 _symmetry_equiv_pos_as_xyz
  1  'x, y, z'
loop_
 _atom_site_type_symbol
 _atom_site_label
 _atom_site_symmetry_multiplicity
 _atom_site_fract_x
 _atom_site_fract_y
 _atom_site_fract_z
 _atom_site_occupancy
  Zr  Zr0  1  0.89866974  0.29701590  0.70078542  1
  Zr  Zr1  1  0.30417587  0.50261218  0.89873757  1
  Zr  Zr2  1  0.90438691  0.70081073  0.69968322  1
  Zr  Zr3  1  0.10165624  0.49924865  0.10092069  1
  Zr  Zr4  1  0.69582848  0.09196308  0.29741900  1
  Zr  Zr5  1  0.69844831  0.71165484  0.89814306  1
  Zr  Zr6  1  0.90663223  0.90414714  0.50082390  1
  Zr  Zr7  1  0.49417018  0.70100606  0.89656063  1
  Zr  Zr8  1  0.50027660  0.89490146  0.90151382  1
  Zr  Zr9  1  0.91334637  0.50072247  0.89825427  1
  Zr  Zr10  1  0.49695519  0.69484867  0.30398238  1
  Zr  Zr11  1  0.09672864  0.31010497  0.10859744  1
  Zr  Zr12  1  0.49012648  0.50380627  0.50176972  1
  Zr  Zr13  1  0.10470563  0.89670199  0.30954776  1
  Zr  Zr14  1  0.89878755  0.90793731  0.70496361  1
  Zr  Zr15  1  0.90329256  0.70013761  0.89788802  1
  Zr  Zr16  1  0.29681160  0.90150538  0.30219710  1
  Zr  Zr17  1  0.50330939  0.50032765  0.70453009  1
  Zr  Zr18  1  0.10296805  0.09932144  0.89757671  1
  Zr  Zr19  1  0.10405563  0.49684016  0.71045665  1
  Zr  Zr20  1  0.30467701  0.10301714  0.69957886  1
  Zr  Zr21  1  0.49501648  0.50000455  0.89750640  1
  Zr  Zr22  1  0.30085997  0.49543049  0.09975438  1
  Zr  Zr23  1  0.89084223  0.90753625  0.30012761  1
  Zr  Zr24  1  0.09828012  0.30443496  0.90175669  1
  Zr  Zr25  1  0.29504225  0.70366039  0.30157359  1
  Zr  Zr26  1  0.29392096  0.70896448  0.09345655  1
  Zr  Zr27  1  0.70190205  0.10772836  0.70120487  1
  Zr  Zr28  1  0.29310760  0.90240090  0.10164045  1
  Zr  Zr29  1  0.09910225  0.69830531  0.29745069  1
  Zr  Zr30  1  0.10463603  0.29225219  0.69835487  1
  Zr  Zr31  1  0.10063556  0.49593440  0.90506490  1
  Zr  Zr32  1  0.70300107  0.30329407  0.70482393  1
  Zr  Zr33  1  0.10134170  0.49555431  0.49665268  1
  Zr  Zr34  1  0.71486661  0.69622151  0.29655668  1
  Zr  Zr35  1  0.49579109  0.10444106  0.50009852  1
  Zr  Zr36  1  0.30214908  0.09266647  0.30313833  1
  Zr  Zr37  1  0.49058261  0.89455854  0.50875026  1
  Zr  Zr38  1  0.89681800  0.28718994  0.10922777  1
  Zr  Zr39  1  0.29870918  0.29820999  0.30408085  1
  Zr  Zr40  1  0.51092415  0.50282147  0.09861984  1
  Zr  Zr41  1  0.49621286  0.30355401  0.49189656  1
  Zr  Zr42  1  0.10136459  0.70041203  0.69608555  1
  Zr  Zr43  1  0.10276155  0.09636814  0.70518538  1
  Zr  Zr44  1  0.48521924  0.89914627  0.69765629  1
  Zr  Zr45  1  0.70263499  0.09792903  0.50337536  1
  Zr  Zr46  1  0.29678721  0.10623319  0.49756355  1
  Zr  Zr47  1  0.29256003  0.30791447  0.50565355  1
  Zr  Zr48  1  0.70050382  0.69057316  0.10643980  1
  Zr  Zr49  1  0.29800313  0.89393616  0.90382597  1
  Sc  Sc50  1  0.89905326  0.09799978  0.70415837  1
  Sc  Sc51  1  0.30295739  0.30593479  0.09799987  1
  Sc  Sc52  1  0.49747259  0.29611068  0.70444381  1
  Sc  Sc53  1  0.89882606  0.29482903  0.48870190  1
  Sc  Sc54  1  0.70575953  0.90404874  0.70474806  1
  Sc  Sc55  1  0.70376829  0.90796761  0.90109594  1
  Sc  Sc56  1  0.69267721  0.48732144  0.90193460  1
  Sc  Sc57  1  0.90618141  0.49416817  0.70192672  1
  Sc  Sc58  1  0.30417980  0.70147228  0.89686477  1
  Sc  Sc59  1  0.89866190  0.09742452  0.48684630  1
  Sc  Sc60  1  0.31075702  0.29873816  0.90214011  1
  Sc  Sc61  1  0.70321793  0.91628784  0.10110233  1
  Sc  Sc62  1  0.89729744  0.30326310  0.90289569  1
  Sc  Sc63  1  0.50184986  0.90428476  0.09702737  1
  Sc  Sc64  1  0.69669180  0.10008407  0.90797151  1
  Sc  Sc65  1  0.30872708  0.49134041  0.70184222  1
  Sc  Sc66  1  0.30483436  0.09576199  0.09962274  1
  Sc  Sc67  1  0.49611642  0.70275232  0.69805320  1
  Sc  Sc68  1  0.50712933  0.10327430  0.09661912  1
  Sc  Sc69  1  0.70999410  0.90956911  0.49565674  1
  Sc  Sc70  1  0.29516003  0.50245422  0.30610111  1
  Sc  Sc71  1  0.49818214  0.70024933  0.50634939  1
  Sc  Sc72  1  0.50553884  0.30122923  0.10098743  1
  Sc  Sc73  1  0.10519549  0.69268323  0.89159658  1
  Sc  Sc74  1  0.29273482  0.89788606  0.69381451  1
  Sc  Sc75  1  0.70350274  0.10830756  0.10024089  1
  Sc  Sc76  1  0.09442823  0.70625910  0.49826534  1
  Sc  Sc77  1  0.09231578  0.29821425  0.30547161  1
  Sc  Sc78  1  0.90578680  0.69438788  0.49109700  1
  Sc  Sc79  1  0.70966972  0.49498801  0.48905038  1
  Sc  Sc80  1  0.50039346  0.29846391  0.90011218  1
  Sc  Sc81  1  0.09877908  0.49934836  0.29801607  1
  Sc  Sc82  1  0.09673338  0.10015074  0.31028880  1
  Sc  Sc83  1  0.91280881  0.49617674  0.09481895  1
  Sc  Sc84  1  0.69111027  0.29782789  0.29970126  1
  Sc  Sc85  1  0.90224056  0.49883196  0.49574843  1
  Sc  Sc86  1  0.10581064  0.91370958  0.90320542  1
  Sc  Sc87  1  0.50254034  0.69923229  0.08553957  1
  Sc  Sc88  1  0.90104889  0.08406182  0.90132064  1
  Sc  Sc89  1  0.69904460  0.70131556  0.50124218  1
  Sc  Sc90  1  0.09511101  0.08178157  0.10057150  1
  Sc  Sc91  1  0.31095973  0.69836790  0.49276125  1
  Sc  Sc92  1  0.70039180  0.29876448  0.90501563  1
  Sc  Sc93  1  0.89472212  0.51019611  0.30946077  1
  Sc  Sc94  1  0.29722397  0.10039325  0.89545217  1
  Sc  Sc95  1  0.68794559  0.70261818  0.70077530  1
  Sc  Sc96  1  0.09834353  0.10132098  0.49994058  1
  Sc  Sc97  1  0.50361644  0.48731867  0.29594288  1
  Sc  Sc98  1  0.70519941  0.29794537  0.50169405  1
  Sc  Sc99  1  0.49586216  0.91991499  0.29843351  1
  Nb  Nb100  1  0.10056429  0.90139834  0.50568691  1
  Nb  Nb101  1  0.09841901  0.70152055  0.09928065  1
  Nb  Nb102  1  0.70169273  0.30560033  0.09859486  1
  Nb  Nb103  1  0.69810225  0.50499696  0.28946688  1
  Nb  Nb104  1  0.90071403  0.28295762  0.29302311  1
  Nb  Nb105  1  0.10198595  0.29565271  0.50274902  1
  Nb  Nb106  1  0.69703108  0.49470879  0.10574505  1
  Nb  Nb107  1  0.89702636  0.89857634  0.89873316  1
  Nb  Nb108  1  0.49874935  0.11051271  0.30103660  1
  Nb  Nb109  1  0.10295052  0.89113188  0.09760799  1
  Nb  Nb110  1  0.29962723  0.49876512  0.50652613  1
  Nb  Nb111  1  0.69914371  0.49762191  0.69932287  1
  Nb  Nb112  1  0.29257645  0.69818345  0.70610993  1
  Nb  Nb113  1  0.90214716  0.10991036  0.28743328  1
  Nb  Nb114  1  0.89863185  0.70513242  0.29385850  1
  Nb  Nb115  1  0.49999849  0.29092026  0.29952748  1
  Nb  Nb116  1  0.69741749  0.89809859  0.30119629  1
  Nb  Nb117  1  0.49004242  0.10390798  0.89748143  1
  Nb  Nb118  1  0.90249164  0.70175165  0.09795750  1
  Nb  Nb119  1  0.09467967  0.89817187  0.68836389  1
  Nb  Nb120  1  0.90683870  0.91030557  0.09571643  1
  Nb  Nb121  1  0.90017963  0.09365097  0.11074309  1
  Nb  Nb122  1  0.29905049  0.30209957  0.69507392  1
  Nb  Nb123  1  0.29285765  0.89995556  0.49731618  1
  Nb  Nb124  1  0.49534036  0.09867504  0.70096439  1
  Nb  Nb125  1  0.00079782  0.80443038  0.00086751  1
  Nb  Nb126  1  0.60229840  0.40313857  0.60183060  1
  Nb  Nb127  1  0.79553625  0.59697122  0.79992900  1
  Nb  Nb128  1  0.39938634  0.60341316  0.19646945  1
  Nb  Nb129  1  0.60108533  0.80154148  0.20707364  1
  Nb  Nb130  1  0.20087339  0.19809976  0.19819263  1
  Nb  Nb131  1  0.20497014  0.59542869  0.59916487  1
  Nb  Nb132  1  0.00111262  0.19402567  0.00724328  1
  Nb  Nb133  1  0.80628679  0.79749116  0.60229254  1
  Nb  Nb134  1  0.19863275  0.59830297  0.00328488  1
  Nb  Nb135  1  0.40129909  0.19847160  0.20580513  1
  Nb  Nb136  1  0.60169586  0.80248767  0.39273814  1
  Nb  Nb137  1  0.58812697  0.00793799  0.79692821  1
  Nb  Nb138  1  -0.00505082  0.80080776  0.19387592  1
  Nb  Nb139  1  0.40300346  0.79895479  0.20046429  1
  Nb  Nb140  1  0.80941884  0.80123214  0.00665095  1
  Nb  Nb141  1  0.19396444  0.20068838  0.00684473  1
  Nb  Nb142  1  0.59291560  0.00536674  0.60658512  1
  Nb  Nb143  1  0.40232471  0.00143944  -0.00666460  1
  Nb  Nb144  1  0.79822813  0.59919952  0.60734217  1
  Nb  Nb145  1  0.80067283  0.60062140  -0.00138254  1
  Nb  Nb146  1  0.60429634  0.59951706  0.39337732  1
  Nb  Nb147  1  0.00194108  0.80959132  0.80062252  1
  Nb  Nb148  1  0.00699379  0.39038778  0.59651116  1
  Nb  Nb149  1  0.79550801  0.39908136  0.19985856  1
  Pd  Pd150  1  0.40125131  0.39909043  0.20240682  1
  Pd  Pd151  1  0.40611773  0.80787381  0.39330991  1
  Pd  Pd152  1  0.61273037  0.80865290  0.01268303  1
  Pd  Pd153  1  0.59643607  0.00161726  0.19615321  1
  Pd  Pd154  1  0.61280012  0.81414369  0.59419573  1
  Pd  Pd155  1  0.79903311  0.79716722  0.40905682  1
  Pd  Pd156  1  -0.00601937  0.39499643  0.39837118  1
  Pd  Pd157  1  0.81001632  0.19687050  0.59553353  1
  Pd  Pd158  1  0.19064354  0.80848522  0.80257290  1
  Pd  Pd159  1  0.19699848  0.60523411  0.41016645  1
  Pd  Pd160  1  0.80956665  0.19017827  -0.00231212  1
  Pd  Pd161  1  0.80542987  0.40663320  0.00677850  1
  Pd  Pd162  1  0.60733592  0.19962866  0.40327331  1
  Pd  Pd163  1  0.59592476  0.20527837  0.59897190  1
  Pd  Pd164  1  0.20590754  0.59938713  0.19461755  1
  Pd  Pd165  1  0.59824035  0.81139981  0.79250505  1
  Pd  Pd166  1  0.60298457  0.40475159  0.40308452  1
  Pd  Pd167  1  0.39643998  0.40387808  0.39489092  1
  Pd  Pd168  1  0.20950386  0.39358845  0.80439597  1
  Pd  Pd169  1  0.39974947  0.20892503  0.59967782  1
  Pd  Pd170  1  0.80476860  0.19418798  0.81348299  1
  Pd  Pd171  1  0.79946296  0.81177941  0.19035436  1
  Pd  Pd172  1  0.59793697  0.20370640  -0.00060078  1
  Pd  Pd173  1  -0.01419654  0.40467155  0.21438879  1
  Pd  Pd174  1  0.59322507  -0.00547842  0.41050437  1
  Pd  Pd175  1  0.60934806  0.59705438  -0.01126395  1
  Pd  Pd176  1  0.40079282  -0.00132231  0.40805550  1
  Pd  Pd177  1  0.00803983  -0.00788455  0.20998869  1
  Pd  Pd178  1  0.20891922  0.20757188  0.80625835  1
  Pd  Pd179  1  -0.00401659  0.80149163  0.39399902  1
  Pd  Pd180  1  0.39123149  0.60510528  0.60947400  1
  Pd  Pd181  1  -0.00557431  0.60129969  0.20324697  1
  Pd  Pd182  1  -0.00920809  0.19803290  0.81102225  1
  Pd  Pd183  1  0.60468911  0.60032744  0.80700321  1
  Pd  Pd184  1  -0.00676182  0.19764863  0.59329842  1
  Pd  Pd185  1  0.79196789  0.19619879  0.39205006  1
  Pd  Pd186  1  0.60978820  0.59015183  0.58747737  1
  Pd  Pd187  1  0.80239651  0.39301471  0.38451627  1
  Pd  Pd188  1  0.20183803  0.00381842  0.59845675  1
  Pd  Pd189  1  0.20588207  0.78927489  0.58951300  1
  Pd  Pd190  1  0.80498360  0.40488732  0.59702693  1
  Pd  Pd191  1  0.00165519  0.58884845  0.59846969  1
  Pd  Pd192  1  0.81433002  0.58671734  0.18887786  1
  Pd  Pd193  1  -0.00337272  0.01132673  0.59809667  1
  Pd  Pd194  1  0.59822493  0.19855395  0.80541826  1
  Pd  Pd195  1  0.19682197  0.39787050  0.39626191  1
  Pd  Pd196  1  0.39419976  -0.00420361  0.80508027  1
  Pd  Pd197  1  0.80152838  0.40596172  0.80486046  1
  Pd  Pd198  1  0.19247748  0.00389367  0.20333281  1
  Pd  Pd199  1  0.40909076  0.39778301  0.00185697  1
  Rh  Rh200  1  0.00097224  0.19988399  0.40080194  1
  Rh  Rh201  1  0.59744220  0.39632008  -0.00080050  1
  Rh  Rh202  1  0.19669846  0.20206851  0.39685066  1
  Rh  Rh203  1  -0.00064724  0.00035222  0.39804406  1
  Rh  Rh204  1  0.20000389  0.39457266  0.20965418  1
  Rh  Rh205  1  0.40065022  0.80811666  0.00767718  1
  Rh  Rh206  1  0.39465377  0.00189838  0.59386587  1
  Rh  Rh207  1  0.40072331  0.39370794  0.79757891  1
  Rh  Rh208  1  0.59858763  0.39380200  0.79670025  1
  Rh  Rh209  1  0.18858664  0.78978782  -0.01074660  1
  Rh  Rh210  1  0.39396487  0.79602136  0.79333352  1
  Rh  Rh211  1  -0.00611793  0.38727054  0.00345642  1
  Rh  Rh212  1  0.20950559  0.00794610  0.00084600  1
  Rh  Rh213  1  -0.00049851  0.60471719  0.79818287  1
  Rh  Rh214  1  0.78755671  0.00791635  0.80353321  1
  Rh  Rh215  1  0.20419948  0.39970112  -0.00428090  1
  Rh  Rh216  1  0.39583773  0.19310908  0.00760779  1
  Rh  Rh217  1  0.00752669  -0.00653247  0.79816929  1
  Rh  Rh218  1  0.40427653  0.58871376  0.39206926  1
  Rh  Rh219  1  0.40822785  0.00506778  0.18988590  1
  Rh  Rh220  1  0.39924569  0.60440168  0.79448175  1
  Rh  Rh221  1  0.39523129  0.20291184  0.39810415  1
  Rh  Rh222  1  0.59824760  0.20268689  0.19719650  1
  Rh  Rh223  1  0.80406404  0.79460098  0.79728068  1
  Rh  Rh224  1  0.19729145  0.80176852  0.20425918  1
  Rh  Rh225  1  0.20749980  0.59422029  0.79915873  1
  Rh  Rh226  1  0.19481128  -0.00088054  0.40997151  1
  Rh  Rh227  1  0.20218935  -0.00604466  0.79004838  1
  Rh  Rh228  1  0.01431079  0.19088135  0.19455430  1
  Rh  Rh229  1  -0.00648769  0.80397512  0.60192803  1
  Rh  Rh230  1  0.60449778  0.39131297  0.19955639  1
  Rh  Rh231  1  0.39525383  0.20552458  0.79593289  1
  Rh  Rh232  1  0.00753731  0.60617493  -0.00083208  1
  Rh  Rh233  1  0.19399372  0.40628520  0.60266922  1
  Rh  Rh234  1  -0.00034982  -0.00082682  -0.00178823  1
  Rh  Rh235  1  0.79759019  -0.00210737  0.60377503  1
  Rh  Rh236  1  0.78605519  0.20263658  0.20465640  1
  Rh  Rh237  1  0.38542854  0.79409743  0.60316289  1
  Rh  Rh238  1  0.39130583  0.60123480  0.00681623  1
  Rh  Rh239  1  0.59063510  0.60505481  0.20429898  1
  Rh  Rh240  1  0.20161007  0.19519177  0.60087703  1
  Rh  Rh241  1  0.59203862  0.00337165  -0.01043865  1
  Rh  Rh242  1  0.00303393  0.60276131  0.39318476  1
  Rh  Rh243  1  0.79815647  0.00191844  0.20168197  1
  Rh  Rh244  1  0.79648360  0.60549741  0.40686903  1
  Rh  Rh245  1  0.80233328  0.00884393  0.39031629  1
  Rh  Rh246  1  -0.00155530  0.38981773  0.79243633  1
  Rh  Rh247  1  0.40829373  0.39549245  0.60314482  1
  Rh  Rh248  1  0.19845274  0.79775115  0.40879637  1
  Rh  Rh249  1  0.80237696  0.00076064  0.00309177  1
