# generated using pymatgen
data_ZrScNbPdRh
_symmetry_space_group_name_H-M   'P 1'
_cell_length_a   16.55112013
_cell_length_b   16.55681313
_cell_length_c   16.55229611
_cell_angle_alpha   90.05213881
_cell_angle_beta   90.01716083
_cell_angle_gamma   90.02946305
_symmetry_Int_Tables_number   1
_chemical_formula_structural   ZrScNbPdRh
_chemical_formula_sum   'Zr50 Sc50 Nb50 Pd50 Rh50'
_cell_volume   4535.88597117
_cell_formula_units_Z   50
loop_
 _symmetry_equiv_pos_site_id
 _symmetry_equiv_pos_as_xyz
  1  'x, y, z'
loop_
 _atom_site_type_symbol
 _atom_site_label
 _atom_site_symmetry_multiplicity
 _atom_site_fract_x
 _atom_site_fract_y
 _atom_site_fract_z
 _atom_site_occupancy
  Zr  Zr0  1  0.70082355  0.69289853  0.70239758  1
  Zr  Zr1  1  0.30059095  0.70926446  0.69997147  1
  Zr  Zr2  1  0.29327599  0.89904085  0.88935204  1
  Zr  Zr3  1  0.90506544  0.89365084  0.29980835  1
  Zr  Zr4  1  0.89649238  0.70085175  0.10985175  1
  Zr  Zr5  1  0.70538780  0.50473183  0.50569429  1
  Zr  Zr6  1  0.89530089  0.10614490  0.48750903  1
  Zr  Zr7  1  0.10436983  0.50119120  0.89938106  1
  Zr  Zr8  1  0.89514316  0.49443690  0.68814526  1
  Zr  Zr9  1  0.10163165  0.10371223  0.89958678  1
  Zr  Zr10  1  0.90250753  0.10119000  0.70261839  1
  Zr  Zr11  1  0.70248376  0.70509979  0.50158075  1
  Zr  Zr12  1  0.09642175  0.70412411  0.29931424  1
  Zr  Zr13  1  0.69588833  0.29680431  0.29186158  1
  Zr  Zr14  1  0.90137596  0.69339970  0.48611242  1
  Zr  Zr15  1  0.69988612  0.90078193  0.49329094  1
  Zr  Zr16  1  0.30364625  0.30388307  0.09306893  1
  Zr  Zr17  1  0.69970757  0.10873995  0.10044880  1
  Zr  Zr18  1  0.08907703  0.49528457  0.50395187  1
  Zr  Zr19  1  0.91246341  0.10802384  0.10536241  1
  Zr  Zr20  1  0.50292572  0.09937126  0.09599661  1
  Zr  Zr21  1  0.10104686  0.89783849  0.50111071  1
  Zr  Zr22  1  0.90146738  0.28607108  0.30087045  1
  Zr  Zr23  1  0.89902317  0.29761957  0.10324918  1
  Zr  Zr24  1  0.90020534  0.90267812  0.70712542  1
  Zr  Zr25  1  0.29626871  0.09685071  0.30579689  1
  Zr  Zr26  1  0.29701108  0.08763081  0.10007435  1
  Zr  Zr27  1  0.10994358  0.90967590  0.08954911  1
  Zr  Zr28  1  0.10198763  0.69815708  0.10452118  1
  Zr  Zr29  1  0.90870417  0.30876296  0.50300013  1
  Zr  Zr30  1  0.69418522  0.09434640  0.90095486  1
  Zr  Zr31  1  0.69561278  0.69971022  0.09673572  1
  Zr  Zr32  1  0.49397661  0.29784531  0.90464994  1
  Zr  Zr33  1  0.09484972  0.89291608  0.89975393  1
  Zr  Zr34  1  0.29899164  0.50275340  0.89840954  1
  Zr  Zr35  1  0.69494786  0.49670426  0.70043019  1
  Zr  Zr36  1  0.10287305  0.30521073  0.90063009  1
  Zr  Zr37  1  0.29666291  0.69702904  0.29558041  1
  Zr  Zr38  1  0.30543948  0.69264598  0.50099507  1
  Zr  Zr39  1  0.30368756  0.09603878  0.70229644  1
  Zr  Zr40  1  0.69350625  0.90104986  0.90494767  1
  Zr  Zr41  1  0.69526661  0.09422519  0.49841654  1
  Zr  Zr42  1  0.48004166  0.90447590  0.70063060  1
  Zr  Zr43  1  0.69567684  0.50381246  0.10881876  1
  Zr  Zr44  1  0.10499514  0.69804505  0.51016892  1
  Zr  Zr45  1  0.10736577  0.50008128  0.28777052  1
  Zr  Zr46  1  0.10584876  0.11208986  0.70195367  1
  Zr  Zr47  1  0.69696224  0.70023966  0.90578425  1
  Zr  Zr48  1  0.09200112  0.30496383  0.10273348  1
  Zr  Zr49  1  0.69084184  0.30485653  0.70227862  1
  Sc  Sc50  1  0.29820442  0.89894478  0.28733230  1
  Sc  Sc51  1  0.30457080  0.49893284  0.49700102  1
  Sc  Sc52  1  0.70650560  0.90642388  0.69310329  1
  Sc  Sc53  1  0.69072224  0.29742768  0.50222578  1
  Sc  Sc54  1  0.10130159  0.49313711  0.09480958  1
  Sc  Sc55  1  0.71435288  0.70181872  0.29854751  1
  Sc  Sc56  1  0.70185332  0.10244257  0.30927354  1
  Sc  Sc57  1  0.89610614  0.89880522  0.50660038  1
  Sc  Sc58  1  0.90630326  0.69924959  0.90793728  1
  Sc  Sc59  1  0.51154925  0.89740899  0.29499322  1
  Sc  Sc60  1  0.90239332  0.09886330  0.89239067  1
  Sc  Sc61  1  0.90392723  0.70345835  0.70150962  1
  Sc  Sc62  1  0.10254484  0.09800714  0.49710240  1
  Sc  Sc63  1  0.30618880  0.30039525  0.30865631  1
  Sc  Sc64  1  0.50788593  0.90611228  0.49807508  1
  Sc  Sc65  1  0.69679717  0.10085005  0.70639326  1
  Sc  Sc66  1  0.09726126  0.88718515  0.70180207  1
  Sc  Sc67  1  0.90557687  0.28988180  0.90491791  1
  Sc  Sc68  1  0.10115195  0.90017775  0.30482418  1
  Sc  Sc69  1  0.10302668  0.29639788  0.50583946  1
  Sc  Sc70  1  0.30267550  0.10599996  0.89252834  1
  Sc  Sc71  1  0.29566559  0.50387315  0.09946467  1
  Sc  Sc72  1  0.49546442  0.69034837  0.90319542  1
  Sc  Sc73  1  0.50305974  0.49649711  0.70431232  1
  Sc  Sc74  1  0.90807321  0.50524280  0.09918809  1
  Sc  Sc75  1  0.50208032  0.10040305  0.89619987  1
  Sc  Sc76  1  0.49909144  0.70116456  0.10128550  1
  Sc  Sc77  1  0.09388431  0.09627342  0.30426878  1
  Sc  Sc78  1  0.69272200  0.28878861  0.89783496  1
  Sc  Sc79  1  0.49230807  0.69935891  0.29057924  1
  Sc  Sc80  1  0.30198620  0.70147982  0.10716139  1
  Sc  Sc81  1  0.10467105  0.50524913  0.70129788  1
  Sc  Sc82  1  0.10032730  0.69671528  0.89359692  1
  Sc  Sc83  1  0.10331908  0.30113722  0.69756260  1
  Sc  Sc84  1  0.90027317  0.51758878  0.30292824  1
  Sc  Sc85  1  0.49057371  0.49901049  0.50373725  1
  Sc  Sc86  1  0.69116558  0.89258738  0.10041396  1
  Sc  Sc87  1  0.30602982  0.50504800  0.30087590  1
  Sc  Sc88  1  0.30294869  0.90516336  0.50513994  1
  Sc  Sc89  1  0.90641239  0.50611170  0.90624620  1
  Sc  Sc90  1  0.30365652  0.30853580  0.89460606  1
  Sc  Sc91  1  0.49036352  0.49906221  0.89686279  1
  Sc  Sc92  1  0.69106031  0.50627640  0.89774778  1
  Sc  Sc93  1  0.50090417  0.30514020  0.69829891  1
  Sc  Sc94  1  0.50078411  0.51257241  0.10277705  1
  Sc  Sc95  1  0.30158292  0.49562674  0.70907337  1
  Sc  Sc96  1  0.50236393  0.29427414  0.30291554  1
  Sc  Sc97  1  0.29807031  0.10983320  0.49937132  1
  Sc  Sc98  1  0.50500279  0.89449187  0.10704445  1
  Sc  Sc99  1  0.49708574  0.10046401  0.69631852  1
  Nb  Nb100  1  0.48710312  0.30007850  0.49498510  1
  Nb  Nb101  1  0.90003700  0.89898573  0.90070394  1
  Nb  Nb102  1  0.49783997  0.10086260  0.49501519  1
  Nb  Nb103  1  0.30679344  0.30317868  0.49859468  1
  Nb  Nb104  1  0.50265761  0.49675601  0.29970336  1
  Nb  Nb105  1  0.30196163  0.69318600  0.89586691  1
  Nb  Nb106  1  0.90266160  0.90452305  0.09568709  1
  Nb  Nb107  1  0.69584619  0.29885403  0.10193649  1
  Nb  Nb108  1  0.89884016  0.49610362  0.49659494  1
  Nb  Nb109  1  0.89357212  0.09962244  0.29915236  1
  Nb  Nb110  1  0.49751487  0.70218608  0.69509598  1
  Nb  Nb111  1  0.50405895  0.29493823  0.10300621  1
  Nb  Nb112  1  0.10404093  0.70188751  0.69958091  1
  Nb  Nb113  1  0.69738614  0.49838151  0.30171014  1
  Nb  Nb114  1  0.29211864  0.29582270  0.69493842  1
  Nb  Nb115  1  0.50130058  0.89904872  0.90356943  1
  Nb  Nb116  1  0.49853520  0.69856782  0.49884813  1
  Nb  Nb117  1  0.70111107  0.90397431  0.30313411  1
  Nb  Nb118  1  0.49721358  0.09864748  0.29933028  1
  Nb  Nb119  1  0.90868118  0.70247604  0.29421003  1
  Nb  Nb120  1  0.29780196  0.89736394  0.09283569  1
  Nb  Nb121  1  0.10501909  0.30735864  0.29280869  1
  Nb  Nb122  1  0.10409414  0.10440151  0.09766169  1
  Nb  Nb123  1  0.89878989  0.29884608  0.70234541  1
  Nb  Nb124  1  0.29818043  0.90339335  0.69908096  1
  Nb  Nb125  1  0.20032446  0.20013662  0.00576954  1
  Nb  Nb126  1  0.39425471  0.80448248  -0.00330412  1
  Nb  Nb127  1  0.79879152  0.40374816  0.39731292  1
  Nb  Nb128  1  0.40430630  0.00118767  0.39697182  1
  Nb  Nb129  1  0.39931065  0.80130637  0.39950614  1
  Nb  Nb130  1  0.59838455  0.59740787  0.39866539  1
  Nb  Nb131  1  0.59583461  0.79974846  0.79501591  1
  Nb  Nb132  1  0.19847411  0.39845728  0.40064312  1
  Nb  Nb133  1  0.20631442  0.79520272  0.40463881  1
  Nb  Nb134  1  0.79573935  0.80254593  0.80714757  1
  Nb  Nb135  1  0.39889213  0.19797760  0.19783396  1
  Nb  Nb136  1  0.20006766  0.20208917  0.19798204  1
  Nb  Nb137  1  0.59449419  0.79555220  0.60405398  1
  Nb  Nb138  1  0.59893749  0.40573142  0.39857873  1
  Nb  Nb139  1  0.80259283  0.39811211  0.80426601  1
  Nb  Nb140  1  0.80561441  -0.00277749  0.00590232  1
  Nb  Nb141  1  0.20153184  -0.00117363  0.60686444  1
  Nb  Nb142  1  0.60012289  0.39550027  0.00894165  1
  Nb  Nb143  1  0.79649009  0.40083004  0.20156120  1
  Nb  Nb144  1  0.80230083  0.20230807  0.60189182  1
  Nb  Nb145  1  0.79283278  0.39633113  0.00303208  1
  Nb  Nb146  1  0.40923387  0.39601983  0.19904553  1
  Nb  Nb147  1  -0.00689899  0.39898895  0.79591289  1
  Nb  Nb148  1  0.39899649  -0.00999635  -0.00265704  1
  Nb  Nb149  1  0.80512769  -0.00132892  0.19941303  1
  Pd  Pd150  1  0.59040502  0.60285970  0.80119074  1
  Pd  Pd151  1  0.39773582  0.59254146  0.60907434  1
  Pd  Pd152  1  0.80529319  0.80232401  0.39740160  1
  Pd  Pd153  1  -0.01418745  0.40815330  0.20811650  1
  Pd  Pd154  1  -0.00332115  0.59572564  0.79387853  1
  Pd  Pd155  1  0.80250448  0.01009589  0.59880119  1
  Pd  Pd156  1  0.61094256  0.00499782  0.20265657  1
  Pd  Pd157  1  0.19337804  0.59563465  0.40229270  1
  Pd  Pd158  1  0.20296063  0.40331626  0.59541013  1
  Pd  Pd159  1  0.20130493  0.60447787  0.00305155  1
  Pd  Pd160  1  0.19048435  0.00069571  0.20569956  1
  Pd  Pd161  1  0.59730513  0.20341219  0.40103437  1
  Pd  Pd162  1  0.80339502  0.80426596  -0.00069698  1
  Pd  Pd163  1  0.59369039  0.79070005  0.39639825  1
  Pd  Pd164  1  0.39879794  0.40135936  0.60710580  1
  Pd  Pd165  1  0.39833670  0.20047030  0.60147478  1
  Pd  Pd166  1  0.40849601  0.41094276  0.00856202  1
  Pd  Pd167  1  0.80936829  0.60864862  0.59988471  1
  Pd  Pd168  1  0.00140849  0.79508413  0.00560666  1
  Pd  Pd169  1  0.59794831  0.20072534  0.59947320  1
  Pd  Pd170  1  0.80866858  0.59846753  0.80537498  1
  Pd  Pd171  1  0.00945493  0.81163114  0.18928495  1
  Pd  Pd172  1  0.60236845  0.61058708  0.21017186  1
  Pd  Pd173  1  0.40410931  -0.00431630  0.19931087  1
  Pd  Pd174  1  0.79620707  0.20300274  0.79696535  1
  Pd  Pd175  1  -0.00289627  0.19775093  0.59780267  1
  Pd  Pd176  1  0.79610497  0.80750315  0.19824687  1
  Pd  Pd177  1  0.80164918  0.19708180  -0.00323426  1
  Pd  Pd178  1  0.59321566  0.59947604  0.59445526  1
  Pd  Pd179  1  -0.00720225  -0.00389866  0.40351315  1
  Pd  Pd180  1  0.40530001  0.79425936  0.80818530  1
  Pd  Pd181  1  -0.00549039  0.60225968  0.60413334  1
  Pd  Pd182  1  0.19087773  -0.00321944  0.79477256  1
  Pd  Pd183  1  -0.00299640  0.00652267  -0.00490644  1
  Pd  Pd184  1  0.79390389  0.39032229  0.59764535  1
  Pd  Pd185  1  0.01061482  0.20224472  0.39796971  1
  Pd  Pd186  1  0.59591978  -0.00433212  0.60568211  1
  Pd  Pd187  1  0.00778095  0.00448290  0.60046882  1
  Pd  Pd188  1  -0.00733434  0.79623589  0.59715972  1
  Pd  Pd189  1  0.40219938  0.20638352  0.79156650  1
  Pd  Pd190  1  0.00088386  0.40214513  0.38867649  1
  Pd  Pd191  1  0.20543512  0.78790165  -0.00493266  1
  Pd  Pd192  1  0.59417183  -0.00650849  0.79102390  1
  Pd  Pd193  1  0.40307623  0.80493332  0.58872467  1
  Pd  Pd194  1  0.19444777  0.20983948  0.39633128  1
  Pd  Pd195  1  0.80029751  0.59236866  0.00242329  1
  Pd  Pd196  1  0.00298658  -0.00138774  0.20180298  1
  Pd  Pd197  1  0.20896153  0.59154236  0.60608023  1
  Pd  Pd198  1  0.00946621  0.59834462  0.39796523  1
  Pd  Pd199  1  0.00857793  -0.00112131  0.79836337  1
  Rh  Rh200  1  -0.00559017  0.79447697  0.80315483  1
  Rh  Rh201  1  0.59612101  0.39926490  0.19984435  1
  Rh  Rh202  1  0.39412411  0.18623876  0.00732495  1
  Rh  Rh203  1  0.39849131  0.60187935  0.79430002  1
  Rh  Rh204  1  0.19523969  0.80591154  0.20254763  1
  Rh  Rh205  1  0.20819792  -0.00954494  0.40894008  1
  Rh  Rh206  1  0.40332893  0.19337436  0.39613101  1
  Rh  Rh207  1  0.40207421  0.00275339  0.80883334  1
  Rh  Rh208  1  0.58954935  0.39920213  0.58738930  1
  Rh  Rh209  1  0.79584740  0.59852891  0.39766464  1
  Rh  Rh210  1  0.19752013  0.79510329  0.79857050  1
  Rh  Rh211  1  0.20151438  0.39742755  -0.00306506  1
  Rh  Rh212  1  0.59466758  0.19162457  0.20368150  1
  Rh  Rh213  1  0.39339489  0.60673607  0.00171388  1
  Rh  Rh214  1  0.39800090  0.59193041  0.19868059  1
  Rh  Rh215  1  0.39461339  0.00870434  0.59009173  1
  Rh  Rh216  1  0.40101381  0.40100910  0.39446337  1
  Rh  Rh217  1  0.60185231  0.39741776  0.81440958  1
  Rh  Rh218  1  0.59530516  0.59464329  -0.00159579  1
  Rh  Rh219  1  0.00564829  0.40024012  0.60988525  1
  Rh  Rh220  1  0.21731377  0.39493560  0.20917462  1
  Rh  Rh221  1  0.20428908  0.80615037  0.59851599  1
  Rh  Rh222  1  0.00331493  0.20796692  0.79862934  1
  Rh  Rh223  1  0.20437722  0.60703485  0.79438180  1
  Rh  Rh224  1  0.58568547  0.79239767  -0.00416915  1
  Rh  Rh225  1  0.00800751  0.60493996  0.00606773  1
  Rh  Rh226  1  0.79521644  0.79777929  0.60935101  1
  Rh  Rh227  1  0.79873461  -0.00554990  0.81088038  1
  Rh  Rh228  1  0.20553282  0.20962477  0.80613608  1
  Rh  Rh229  1  0.00312282  0.59762272  0.19681036  1
  Rh  Rh230  1  0.60789115  0.79307033  0.20698676  1
  Rh  Rh231  1  0.00432145  0.79821190  0.40674856  1
  Rh  Rh232  1  0.79488250  0.21125233  0.41030104  1
  Rh  Rh233  1  0.79771346  0.19654151  0.20085869  1
  Rh  Rh234  1  0.59687541  0.20333943  -0.00445927  1
  Rh  Rh235  1  0.20599030  0.19731727  0.59763634  1
  Rh  Rh236  1  0.19516574  0.39785711  0.79646258  1
  Rh  Rh237  1  0.80501829  -0.00730628  0.39259234  1
  Rh  Rh238  1  0.40919107  0.60620018  0.39515263  1
  Rh  Rh239  1  0.39847013  0.80551878  0.19701419  1
  Rh  Rh240  1  0.01149903  0.19663704  0.20900443  1
  Rh  Rh241  1  0.59348313  0.00421311  0.39425750  1
  Rh  Rh242  1  0.59841347  -0.00076992  0.00625136  1
  Rh  Rh243  1  0.20077376  0.59891572  0.19455197  1
  Rh  Rh244  1  0.59138466  0.19892884  0.79807501  1
  Rh  Rh245  1  -0.00687117  0.40098306  -0.00922992  1
  Rh  Rh246  1  0.00636104  0.19745620  -0.00264346  1
  Rh  Rh247  1  0.39769241  0.39438553  0.79377013  1
  Rh  Rh248  1  0.20560972  0.00736178  -0.01259776  1
  Rh  Rh249  1  0.80170304  0.59810686  0.20098417  1
