# generated using pymatgen
data_ZrScNbPdRh
_symmetry_space_group_name_H-M   'P 1'
_cell_length_a   16.55448244
_cell_length_b   16.55254884
_cell_length_c   16.55263190
_cell_angle_alpha   90.03596478
_cell_angle_beta   89.98458717
_cell_angle_gamma   90.00907878
_symmetry_Int_Tables_number   1
_chemical_formula_structural   ZrScNbPdRh
_chemical_formula_sum   'Zr50 Sc50 Nb50 Pd50 Rh50'
_cell_volume   4535.73252660
_cell_formula_units_Z   50
loop_
 _symmetry_equiv_pos_site_id
 _symmetry_equiv_pos_as_xyz
  1  'x, y, z'
loop_
 _atom_site_type_symbol
 _atom_site_label
 _atom_site_symmetry_multiplicity
 _atom_site_fract_x
 _atom_site_fract_y
 _atom_site_fract_z
 _atom_site_occupancy
  Zr  Zr0  1  0.89529455  0.70753879  0.50417810  1
  Zr  Zr1  1  0.30392198  0.70355003  0.90627946  1
  Zr  Zr2  1  0.09956028  0.90373233  0.69834749  1
  Zr  Zr3  1  0.50054626  0.30043902  0.29185240  1
  Zr  Zr4  1  0.29631874  0.10782990  0.89975159  1
  Zr  Zr5  1  0.49579904  0.90258376  0.10300862  1
  Zr  Zr6  1  0.88856946  0.30161467  0.49144170  1
  Zr  Zr7  1  0.09899579  0.70099210  0.90300166  1
  Zr  Zr8  1  0.10047079  0.50157107  0.70841094  1
  Zr  Zr9  1  0.30535233  0.29590040  0.09205856  1
  Zr  Zr10  1  0.11002170  0.89974671  0.09755887  1
  Zr  Zr11  1  0.89322946  0.10875551  0.10982201  1
  Zr  Zr12  1  0.69973700  0.89316187  0.09540861  1
  Zr  Zr13  1  0.30371727  0.29447007  0.89909536  1
  Zr  Zr14  1  0.70008241  0.29505314  0.50279902  1
  Zr  Zr15  1  0.50161912  0.90089035  0.30041693  1
  Zr  Zr16  1  0.30207433  0.69419273  0.49522807  1
  Zr  Zr17  1  0.50421283  0.09414282  0.49793324  1
  Zr  Zr18  1  0.89826068  0.28855834  0.28904353  1
  Zr  Zr19  1  0.30744558  0.30135506  0.29893018  1
  Zr  Zr20  1  0.89785421  0.70801914  0.70092990  1
  Zr  Zr21  1  0.50328625  0.08898064  0.70118516  1
  Zr  Zr22  1  0.50168732  0.11146036  0.09960967  1
  Zr  Zr23  1  0.10199400  0.50398616  0.30217479  1
  Zr  Zr24  1  0.90265193  0.50113011  0.70953012  1
  Zr  Zr25  1  0.29509327  0.49631419  0.90507509  1
  Zr  Zr26  1  0.30307233  0.50235381  0.10407654  1
  Zr  Zr27  1  0.29922458  0.89544185  0.90236581  1
  Zr  Zr28  1  0.89822860  0.49946614  0.49522338  1
  Zr  Zr29  1  0.89059736  0.10162961  0.70115154  1
  Zr  Zr30  1  0.70731156  0.10103567  0.30006572  1
  Zr  Zr31  1  0.70480915  0.89609932  0.29847816  1
  Zr  Zr32  1  0.09598199  0.09372302  0.09639022  1
  Zr  Zr33  1  0.50348760  0.09636242  0.89938029  1
  Zr  Zr34  1  0.69421796  0.10335237  0.50991355  1
  Zr  Zr35  1  0.69919662  0.30799369  0.30826338  1
  Zr  Zr36  1  0.29721435  0.29690680  0.49632547  1
  Zr  Zr37  1  0.50207399  0.90057324  0.89323980  1
  Zr  Zr38  1  0.70070196  0.69474758  0.50068258  1
  Zr  Zr39  1  0.30462667  0.90072833  0.70524607  1
  Zr  Zr40  1  0.09739316  0.69773527  0.70322604  1
  Zr  Zr41  1  0.10923258  0.10181405  0.50081216  1
  Zr  Zr42  1  0.70159674  0.49064039  0.49022796  1
  Zr  Zr43  1  0.70644151  0.70086300  0.27850093  1
  Zr  Zr44  1  0.50264858  0.90162988  0.70487990  1
  Zr  Zr45  1  0.49757027  0.69766273  0.29904536  1
  Zr  Zr46  1  0.69882323  0.71096837  0.90118667  1
  Zr  Zr47  1  0.30474284  0.29864026  0.70056998  1
  Zr  Zr48  1  0.50238136  0.49363413  0.70126567  1
  Zr  Zr49  1  0.29779598  0.10376787  0.49916783  1
  Sc  Sc50  1  0.69810878  0.28892834  0.09763372  1
  Sc  Sc51  1  0.29828846  0.49200821  0.70191944  1
  Sc  Sc52  1  0.10393963  0.90004680  0.28780910  1
  Sc  Sc53  1  0.89175131  0.89898445  0.90045651  1
  Sc  Sc54  1  0.70022847  0.09587431  0.90822606  1
  Sc  Sc55  1  0.31004911  0.70166920  0.09898705  1
  Sc  Sc56  1  0.10925396  0.09901973  0.70108226  1
  Sc  Sc57  1  0.88518303  0.09679113  0.50880153  1
  Sc  Sc58  1  0.09543884  0.50182104  0.10689746  1
  Sc  Sc59  1  0.50256780  0.69282035  0.10087013  1
  Sc  Sc60  1  0.10115056  0.09712201  0.29256739  1
  Sc  Sc61  1  0.49559659  0.69863694  0.49310037  1
  Sc  Sc62  1  0.69839992  0.49541186  0.89999388  1
  Sc  Sc63  1  0.10247516  0.10339687  0.89572870  1
  Sc  Sc64  1  0.50431563  0.50622326  0.49164382  1
  Sc  Sc65  1  0.70450221  0.30461603  0.90275227  1
  Sc  Sc66  1  0.68704779  0.50654106  0.10576608  1
  Sc  Sc67  1  0.09457446  0.29828569  0.71155384  1
  Sc  Sc68  1  0.50826155  0.49310809  0.91108492  1
  Sc  Sc69  1  0.90997046  0.91312488  0.09268646  1
  Sc  Sc70  1  0.90714556  0.50521899  0.29079565  1
  Sc  Sc71  1  0.30402147  0.90176942  0.49536624  1
  Sc  Sc72  1  0.89173794  0.09675890  0.90522272  1
  Sc  Sc73  1  0.90132702  0.49547013  0.90182868  1
  Sc  Sc74  1  0.70709797  0.70144959  0.70167132  1
  Sc  Sc75  1  0.10411498  0.30147753  0.90045235  1
  Sc  Sc76  1  0.49760810  0.70301030  0.90960895  1
  Sc  Sc77  1  0.89522380  0.30228153  0.71590572  1
  Sc  Sc78  1  0.30438728  0.90126983  0.29095611  1
  Sc  Sc79  1  0.29983891  0.09918856  0.70379303  1
  Sc  Sc80  1  0.10177347  0.90867555  0.50600989  1
  Sc  Sc81  1  0.49974380  0.90373251  0.49868966  1
  Sc  Sc82  1  0.49196611  0.30168466  0.70656361  1
  Sc  Sc83  1  0.50547463  0.49575466  0.29586697  1
  Sc  Sc84  1  0.30786550  0.69404771  0.29709604  1
  Sc  Sc85  1  0.49761594  0.10176884  0.30110532  1
  Sc  Sc86  1  0.49959089  0.70547280  0.69945012  1
  Sc  Sc87  1  0.49447925  0.29520185  0.49274387  1
  Sc  Sc88  1  0.09469417  0.70434715  0.10489520  1
  Sc  Sc89  1  0.09466964  0.30496002  0.10468473  1
  Sc  Sc90  1  0.30384170  0.09707642  0.29831897  1
  Sc  Sc91  1  0.90304773  0.69959489  0.89738837  1
  Sc  Sc92  1  0.29926446  0.70167793  0.70371421  1
  Sc  Sc93  1  0.90381722  0.69535839  0.11072368  1
  Sc  Sc94  1  0.69684527  0.90152576  0.90113177  1
  Sc  Sc95  1  0.09775795  0.30492399  0.29686621  1
  Sc  Sc96  1  0.70889200  0.90524160  0.49806773  1
  Sc  Sc97  1  0.90747366  0.49904801  0.09600095  1
  Sc  Sc98  1  0.09831783  0.89935411  0.90605924  1
  Sc  Sc99  1  0.70589075  0.49600373  0.70360091  1
  Nb  Nb100  1  0.69858376  0.09416293  0.09666421  1
  Nb  Nb101  1  0.89942140  0.70451675  0.30030105  1
  Nb  Nb102  1  0.09019029  0.70195887  0.30147437  1
  Nb  Nb103  1  0.29855179  0.10162655  0.09729843  1
  Nb  Nb104  1  0.50589775  0.29309634  0.90373064  1
  Nb  Nb105  1  0.69673735  0.90180205  0.70540106  1
  Nb  Nb106  1  0.90017435  0.89854719  0.50396651  1
  Nb  Nb107  1  0.50162700  0.50202841  0.09852875  1
  Nb  Nb108  1  0.10545411  0.68985369  0.49817644  1
  Nb  Nb109  1  0.89706596  0.30146396  0.91281208  1
  Nb  Nb110  1  0.30319864  0.49878521  0.30231097  1
  Nb  Nb111  1  0.09447056  0.50908516  0.90052480  1
  Nb  Nb112  1  0.89671568  0.90099930  0.68799467  1
  Nb  Nb113  1  0.70012811  0.49813909  0.29519639  1
  Nb  Nb114  1  0.69954043  0.69717957  0.09934737  1
  Nb  Nb115  1  0.69893239  0.10385211  0.69516355  1
  Nb  Nb116  1  0.09479972  0.29972383  0.49687997  1
  Nb  Nb117  1  0.89460125  0.89829707  0.31329809  1
  Nb  Nb118  1  0.69677640  0.29788880  0.70256035  1
  Nb  Nb119  1  0.10186433  0.50150185  0.49748936  1
  Nb  Nb120  1  0.29035445  0.50392200  0.49931114  1
  Nb  Nb121  1  0.29879884  0.90825892  0.09903036  1
  Nb  Nb122  1  0.50150561  0.30132066  0.09575925  1
  Nb  Nb123  1  0.89753758  0.30168357  0.09902698  1
  Nb  Nb124  1  0.90143130  0.09921177  0.29835024  1
  Nb  Nb125  1  0.60469228  0.00207134  0.19701816  1
  Nb  Nb126  1  0.39515037  0.59444144  0.60178669  1
  Nb  Nb127  1  -0.00260133  0.19189191  0.40278262  1
  Nb  Nb128  1  0.60223317  0.39565590  0.59983019  1
  Nb  Nb129  1  0.00462378  0.59615535  0.59580305  1
  Nb  Nb130  1  0.60617656  0.79776127  0.39832016  1
  Nb  Nb131  1  0.79919708  0.60344070  0.38845756  1
  Nb  Nb132  1  0.59645330  0.60092744  0.80208046  1
  Nb  Nb133  1  0.00059969  0.80217075  0.40140423  1
  Nb  Nb134  1  0.79401327  0.60492549  0.00581397  1
  Nb  Nb135  1  0.60351747  0.20072668  0.79808437  1
  Nb  Nb136  1  0.19207635  0.40021798  0.59174366  1
  Nb  Nb137  1  0.19843400  0.79345011  0.59390057  1
  Nb  Nb138  1  -0.00800071  -0.00129410  0.40091632  1
  Nb  Nb139  1  0.39476759  0.00265595  0.00292505  1
  Nb  Nb140  1  0.19633486  0.59926222  -0.00077433  1
  Nb  Nb141  1  0.40458718  0.59549948  0.80151014  1
  Nb  Nb142  1  -0.00150802  0.20703203  0.59478679  1
  Nb  Nb143  1  -0.00795669  0.20454661  0.00240675  1
  Nb  Nb144  1  0.79746489  0.39913991  0.19673863  1
  Nb  Nb145  1  0.00363943  0.40015977  0.59509550  1
  Nb  Nb146  1  0.19208460  0.79273957  0.39973689  1
  Nb  Nb147  1  -0.00659576  -0.00223305  0.79301635  1
  Nb  Nb148  1  0.60345479  0.80249052  0.59652859  1
  Nb  Nb149  1  0.20568556  0.19898797  0.19207607  1
  Pd  Pd150  1  0.20385641  0.60416282  0.38609001  1
  Pd  Pd151  1  0.80129038  0.39563488  0.60941999  1
  Pd  Pd152  1  0.60896065  0.60577610  0.38777397  1
  Pd  Pd153  1  0.20256390  0.39532246  0.19873331  1
  Pd  Pd154  1  0.20078269  0.39803771  0.39942959  1
  Pd  Pd155  1  0.59820941  0.19987163  0.39618276  1
  Pd  Pd156  1  0.59207233  0.79863414  0.00506143  1
  Pd  Pd157  1  0.19571553  -0.01012252  0.39228374  1
  Pd  Pd158  1  0.20917491  0.60250088  0.80574717  1
  Pd  Pd159  1  -0.00583408  0.79794406  0.00281101  1
  Pd  Pd160  1  -0.00414633  0.39453732  0.39402137  1
  Pd  Pd161  1  0.40086744  0.79437240  0.59603067  1
  Pd  Pd162  1  0.20847878  0.79179628  0.20292552  1
  Pd  Pd163  1  -0.00371605  -0.00596298  0.20660646  1
  Pd  Pd164  1  0.59516319  0.59942579  0.60817896  1
  Pd  Pd165  1  0.79968173  -0.00707056  0.19457616  1
  Pd  Pd166  1  0.79121154  0.41138100  0.01212719  1
  Pd  Pd167  1  0.39487227  0.00187940  0.59748739  1
  Pd  Pd168  1  0.19332840  0.20998936  0.60904980  1
  Pd  Pd169  1  0.60591744  0.19830874  0.20321130  1
  Pd  Pd170  1  0.20151496  0.00261781  -0.00768267  1
  Pd  Pd171  1  0.39784173  0.00074412  0.39782875  1
  Pd  Pd172  1  -0.00799518  0.60617750  0.40216725  1
  Pd  Pd173  1  0.01083982  0.79453159  0.59210709  1
  Pd  Pd174  1  0.80299437  0.59448226  0.59757645  1
  Pd  Pd175  1  0.40634015  0.19445515  0.60111663  1
  Pd  Pd176  1  0.58620307  0.20850966  0.60789845  1
  Pd  Pd177  1  -0.00463218  0.81069426  0.80302784  1
  Pd  Pd178  1  0.40058094  0.40673832  0.58639493  1
  Pd  Pd179  1  0.81185074  0.79380294  0.00696307  1
  Pd  Pd180  1  0.80019628  0.00639444  0.40491855  1
  Pd  Pd181  1  0.19761972  0.39544573  0.79824475  1
  Pd  Pd182  1  0.19809361  0.80280791  0.79677217  1
  Pd  Pd183  1  0.79480867  0.60047655  0.81245810  1
  Pd  Pd184  1  0.40493771  0.40383697  0.81377341  1
  Pd  Pd185  1  0.19025391  0.40541630  0.00596806  1
  Pd  Pd186  1  0.40534283  0.39924064  -0.00206255  1
  Pd  Pd187  1  -0.00446629  0.19319051  0.80586359  1
  Pd  Pd188  1  0.40321045  0.40668284  0.40441334  1
  Pd  Pd189  1  0.00768764  0.39727534  -0.00398087  1
  Pd  Pd190  1  0.39819105  0.79860567  0.19823446  1
  Pd  Pd191  1  0.81518598  0.81049500  0.18728394  1
  Pd  Pd192  1  0.40540380  0.40341669  0.19455751  1
  Pd  Pd193  1  0.79175836  0.20139958  0.80981510  1
  Pd  Pd194  1  0.19885695  0.60804045  0.19720217  1
  Pd  Pd195  1  -0.00719747  0.81073741  0.20280858  1
  Pd  Pd196  1  0.60754481  0.39481331  0.00791314  1
  Pd  Pd197  1  -0.00152919  0.01401300  0.59971695  1
  Pd  Pd198  1  0.79786734  -0.00357834  0.79824357  1
  Pd  Pd199  1  0.19430176  0.20188536  0.38459298  1
  Rh  Rh200  1  0.20333485  0.20534740  0.79584370  1
  Rh  Rh201  1  0.80297747  0.19073785  0.39990776  1
  Rh  Rh202  1  0.80167122  0.19664589  0.00083816  1
  Rh  Rh203  1  0.39556180  0.20070667  0.19898612  1
  Rh  Rh204  1  -0.00030403  0.60277819  -0.00030171  1
  Rh  Rh205  1  0.59404450  -0.00208497  0.00801379  1
  Rh  Rh206  1  0.40484602  0.00883143  0.19213037  1
  Rh  Rh207  1  0.39635185  0.58871735  0.40053659  1
  Rh  Rh208  1  0.60108263  0.79287052  0.79345097  1
  Rh  Rh209  1  0.80720480  0.21018446  0.60677319  1
  Rh  Rh210  1  0.60436357  -0.00489066  0.39196464  1
  Rh  Rh211  1  -0.00140777  0.39904631  0.80840810  1
  Rh  Rh212  1  0.79982430  0.39684920  0.80604567  1
  Rh  Rh213  1  0.20118095  0.79134642  0.01097559  1
  Rh  Rh214  1  0.40020932  0.19491710  0.39835783  1
  Rh  Rh215  1  0.60235890  0.39585884  0.19294263  1
  Rh  Rh216  1  0.40899732  0.19513167  0.80111788  1
  Rh  Rh217  1  0.78964528  0.20502123  0.19872302  1
  Rh  Rh218  1  0.39117809  0.00388948  0.81030857  1
  Rh  Rh219  1  0.79130321  -0.00578017  0.60496567  1
  Rh  Rh220  1  0.59406333  0.80318826  0.20040482  1
  Rh  Rh221  1  0.20114204  0.59670638  0.60688736  1
  Rh  Rh222  1  0.60564651  -0.00975363  0.60084889  1
  Rh  Rh223  1  0.79854506  0.79187836  0.40115215  1
  Rh  Rh224  1  0.40515736  0.59061048  0.20138244  1
  Rh  Rh225  1  -0.00519122  0.60295416  0.80016206  1
  Rh  Rh226  1  0.59239952  0.59875188  0.20052274  1
  Rh  Rh227  1  0.60083811  0.39567375  0.79503439  1
  Rh  Rh228  1  0.18524941  0.20363470  0.00866200  1
  Rh  Rh229  1  0.19497394  -0.00377422  0.80296600  1
  Rh  Rh230  1  0.60490231  0.20219138  -0.00756588  1
  Rh  Rh231  1  0.78838872  0.80908775  0.60558828  1
  Rh  Rh232  1  0.40507315  0.79223463  0.80374963  1
  Rh  Rh233  1  0.00965811  0.19925773  0.19814365  1
  Rh  Rh234  1  0.40571042  0.19656346  -0.00415407  1
  Rh  Rh235  1  0.40213719  0.81052452  0.00475663  1
  Rh  Rh236  1  0.79856429  -0.00136838  0.00577246  1
  Rh  Rh237  1  0.20600019  0.00752981  0.19864491  1
  Rh  Rh238  1  0.61264842  0.00925814  0.79918967  1
  Rh  Rh239  1  0.00365319  0.60080899  0.20157348  1
  Rh  Rh240  1  0.80210719  0.80739893  0.79631465  1
  Rh  Rh241  1  0.80994744  0.41077208  0.38126463  1
  Rh  Rh242  1  -0.00693694  0.40067475  0.20353409  1
  Rh  Rh243  1  0.59303106  0.39592473  0.40570214  1
  Rh  Rh244  1  0.00055319  0.00943829  -0.01504990  1
  Rh  Rh245  1  0.39625514  0.59183388  -0.00273945  1
  Rh  Rh246  1  0.60672520  0.60394426  -0.00703934  1
  Rh  Rh247  1  0.21154370  -0.00888849  0.60284854  1
  Rh  Rh248  1  0.80304075  0.58938094  0.19471508  1
  Rh  Rh249  1  0.40101302  0.80442682  0.39537614  1
