# generated using pymatgen
data_ZrScNbPdRh
_symmetry_space_group_name_H-M   'P 1'
_cell_length_a   16.55868199
_cell_length_b   16.55644855
_cell_length_c   16.55900135
_cell_angle_alpha   90.00029882
_cell_angle_beta   90.00027378
_cell_angle_gamma   90.01053535
_symmetry_Int_Tables_number   1
_chemical_formula_structural   ZrScNbPdRh
_chemical_formula_sum   'Zr50 Sc50 Nb50 Pd50 Rh50'
_cell_volume   4539.69926253
_cell_formula_units_Z   50
loop_
 _symmetry_equiv_pos_site_id
 _symmetry_equiv_pos_as_xyz
  1  'x, y, z'
loop_
 _atom_site_type_symbol
 _atom_site_label
 _atom_site_symmetry_multiplicity
 _atom_site_fract_x
 _atom_site_fract_y
 _atom_site_fract_z
 _atom_site_occupancy
  Zr  Zr0  1  0.09792077  0.70434847  0.89754285  1
  Zr  Zr1  1  0.10319847  0.70169857  0.09629397  1
  Zr  Zr2  1  0.90480970  0.09948019  0.89657279  1
  Zr  Zr3  1  0.09920483  0.30042927  0.09605559  1
  Zr  Zr4  1  0.09816920  0.89914014  0.29791517  1
  Zr  Zr5  1  0.09671861  0.49841091  0.50597018  1
  Zr  Zr6  1  0.09697307  0.50616381  0.89981103  1
  Zr  Zr7  1  0.69322623  0.29691753  0.90084065  1
  Zr  Zr8  1  0.29599811  0.09842312  0.50455501  1
  Zr  Zr9  1  0.69229808  0.49912463  0.09797403  1
  Zr  Zr10  1  0.69542273  0.30311606  0.71116003  1
  Zr  Zr11  1  0.71149793  0.49687768  0.90197274  1
  Zr  Zr12  1  0.90385713  0.49550839  0.29869260  1
  Zr  Zr13  1  0.09393090  0.09757759  0.09264155  1
  Zr  Zr14  1  0.09047915  0.69220514  0.69739724  1
  Zr  Zr15  1  0.90179162  0.49946882  0.89903919  1
  Zr  Zr16  1  0.29355298  0.49502896  0.29144663  1
  Zr  Zr17  1  0.50376249  0.09784018  0.30048544  1
  Zr  Zr18  1  0.10340896  0.69204789  0.49991484  1
  Zr  Zr19  1  0.30011580  0.09230312  0.70462706  1
  Zr  Zr20  1  0.10100102  0.09505203  0.89983962  1
  Zr  Zr21  1  0.69412511  0.50274067  0.49943624  1
  Zr  Zr22  1  0.31170627  0.50568257  0.09479433  1
  Zr  Zr23  1  0.09972170  0.31341686  0.29839657  1
  Zr  Zr24  1  0.30509342  0.70216851  0.69670480  1
  Zr  Zr25  1  0.10567293  0.09543296  0.50224847  1
  Zr  Zr26  1  0.70003322  0.70668518  0.29799648  1
  Zr  Zr27  1  0.30421380  0.70342190  0.49662152  1
  Zr  Zr28  1  0.09970423  0.30451309  0.50768732  1
  Zr  Zr29  1  0.30409617  0.50254997  0.70446691  1
  Zr  Zr30  1  0.09966825  0.90550697  0.90226437  1
  Zr  Zr31  1  0.48632630  0.49515948  0.89969480  1
  Zr  Zr32  1  0.90085063  0.49856423  0.09075829  1
  Zr  Zr33  1  0.90390444  0.29938241  0.10696618  1
  Zr  Zr34  1  0.70585962  0.30456413  0.49821390  1
  Zr  Zr35  1  0.50336913  0.09680046  0.10790385  1
  Zr  Zr36  1  0.09860056  0.70071228  0.29722557  1
  Zr  Zr37  1  0.90231920  0.30355427  0.49932008  1
  Zr  Zr38  1  0.49867724  0.70104937  0.69597947  1
  Zr  Zr39  1  0.50345041  0.90444279  0.29899433  1
  Zr  Zr40  1  0.09822836  0.09788900  0.29506552  1
  Zr  Zr41  1  0.50279831  0.50034068  0.69692500  1
  Zr  Zr42  1  0.29762148  0.89972878  0.89902016  1
  Zr  Zr43  1  0.29740434  0.70104900  0.09458439  1
  Zr  Zr44  1  0.89505561  0.49527785  0.49904976  1
  Zr  Zr45  1  0.90129083  0.69798510  0.50869557  1
  Zr  Zr46  1  0.89856670  0.70362867  0.10126045  1
  Zr  Zr47  1  0.70649724  0.69932370  0.69333751  1
  Zr  Zr48  1  0.69651440  0.89386781  0.10794286  1
  Zr  Zr49  1  0.50337931  0.30029103  0.29425538  1
  Sc  Sc50  1  0.69661777  0.10771177  0.90791426  1
  Sc  Sc51  1  0.90609241  0.49806258  0.70579570  1
  Sc  Sc52  1  0.50165810  0.30170984  0.10149840  1
  Sc  Sc53  1  0.30362064  0.90166260  0.30750244  1
  Sc  Sc54  1  0.50220954  0.70520033  0.50354260  1
  Sc  Sc55  1  0.09099729  0.89896937  0.70635728  1
  Sc  Sc56  1  0.09671249  0.09974720  0.70432549  1
  Sc  Sc57  1  0.90685899  0.30014718  0.70591095  1
  Sc  Sc58  1  0.70044095  0.90210157  0.49801585  1
  Sc  Sc59  1  0.69660856  0.09774688  0.70095620  1
  Sc  Sc60  1  0.90476183  0.09476660  0.69831941  1
  Sc  Sc61  1  0.30608315  0.30224336  0.10335809  1
  Sc  Sc62  1  0.51023322  0.50177586  0.28703364  1
  Sc  Sc63  1  0.29147058  0.09997832  0.90099633  1
  Sc  Sc64  1  0.28546203  0.50407447  0.50265511  1
  Sc  Sc65  1  0.09663517  0.89677688  0.50315938  1
  Sc  Sc66  1  0.89681107  0.29806058  0.30139959  1
  Sc  Sc67  1  0.70048453  0.90165999  0.68893831  1
  Sc  Sc68  1  0.89864107  0.10292563  0.28658180  1
  Sc  Sc69  1  0.70044981  0.89709854  0.91839544  1
  Sc  Sc70  1  0.29407112  0.70144143  0.30123662  1
  Sc  Sc71  1  0.29785781  0.30616694  0.29587017  1
  Sc  Sc72  1  0.89816059  0.09471275  0.50739988  1
  Sc  Sc73  1  0.29455691  0.30101753  0.69798115  1
  Sc  Sc74  1  0.90417885  0.89459143  0.89949203  1
  Sc  Sc75  1  0.51740028  0.30704025  0.48938384  1
  Sc  Sc76  1  0.49842007  0.69869210  0.09985266  1
  Sc  Sc77  1  0.28613934  0.30262987  0.49993322  1
  Sc  Sc78  1  0.30259873  0.10501545  0.09500346  1
  Sc  Sc79  1  0.89549920  0.89305827  0.29514858  1
  Sc  Sc80  1  0.49577290  0.89383602  0.90284685  1
  Sc  Sc81  1  0.09573395  0.89667932  0.09151101  1
  Sc  Sc82  1  0.49425410  0.89529339  0.69793909  1
  Sc  Sc83  1  0.30639401  0.89855337  0.70764607  1
  Sc  Sc84  1  0.69881666  0.08833831  0.49926240  1
  Sc  Sc85  1  0.29965939  0.09576425  0.30660615  1
  Sc  Sc86  1  0.30061208  0.69769561  0.90168501  1
  Sc  Sc87  1  0.09657017  0.28939766  0.89749977  1
  Sc  Sc88  1  0.30282269  0.90218162  0.49880228  1
  Sc  Sc89  1  0.90194908  0.89672246  0.69695167  1
  Sc  Sc90  1  0.69486057  0.29499073  0.30087631  1
  Sc  Sc91  1  0.70092528  0.09962314  0.09953165  1
  Sc  Sc92  1  0.89881917  0.90277038  0.50604826  1
  Sc  Sc93  1  0.50380375  0.70599203  0.30144460  1
  Sc  Sc94  1  0.90028184  0.10064156  0.10278562  1
  Sc  Sc95  1  0.09707462  0.49986195  0.10326465  1
  Sc  Sc96  1  0.49980474  0.08758911  0.70201621  1
  Sc  Sc97  1  0.69759845  0.89871126  0.30242137  1
  Sc  Sc98  1  0.89780529  0.30364254  0.89477172  1
  Sc  Sc99  1  0.70135023  0.10124533  0.29742179  1
  Nb  Nb100  1  0.30153266  0.90120088  0.09561391  1
  Nb  Nb101  1  0.90023082  0.69806327  0.30095628  1
  Nb  Nb102  1  0.50132849  0.09755968  0.50387943  1
  Nb  Nb103  1  0.50122128  0.29998506  0.70531427  1
  Nb  Nb104  1  0.50041540  0.90675843  0.10481254  1
  Nb  Nb105  1  0.10124651  0.50039706  0.30525018  1
  Nb  Nb106  1  0.70012586  0.69946857  0.09735813  1
  Nb  Nb107  1  0.89083777  0.69430307  0.88941420  1
  Nb  Nb108  1  0.50192436  0.09881888  0.90282826  1
  Nb  Nb109  1  0.50238867  0.50079965  0.49676068  1
  Nb  Nb110  1  0.50688795  0.69883762  0.89790355  1
  Nb  Nb111  1  0.69881580  0.50819587  0.29346812  1
  Nb  Nb112  1  0.89688503  0.90484489  0.10050397  1
  Nb  Nb113  1  0.49819956  0.29381673  0.88997713  1
  Nb  Nb114  1  0.10024858  0.49717724  0.69976639  1
  Nb  Nb115  1  0.50172855  0.90682040  0.49721700  1
  Nb  Nb116  1  0.30014018  0.49654576  0.90101449  1
  Nb  Nb117  1  0.50200619  0.50459252  0.10061918  1
  Nb  Nb118  1  0.69811995  0.30090843  0.10177406  1
  Nb  Nb119  1  0.70217186  0.69339677  0.50068377  1
  Nb  Nb120  1  0.09639000  0.31156904  0.69947091  1
  Nb  Nb121  1  0.69602859  0.49894900  0.69945765  1
  Nb  Nb122  1  0.30438680  0.30313109  0.89993591  1
  Nb  Nb123  1  0.90351365  0.70425666  0.70579291  1
  Nb  Nb124  1  0.70477142  0.69688054  0.90165108  1
  Nb  Nb125  1  0.00090631  0.00382492  0.39583749  1
  Nb  Nb126  1  0.40002196  0.80943152  0.19494913  1
  Nb  Nb127  1  0.19442066  0.19673891  0.19773056  1
  Nb  Nb128  1  0.40363651  -0.00137133  0.00349259  1
  Nb  Nb129  1  0.79822448  0.60144343  0.20025903  1
  Nb  Nb130  1  0.60626920  0.79474543  0.80421364  1
  Nb  Nb131  1  0.40384755  0.40520187  0.40269946  1
  Nb  Nb132  1  0.40857691  0.20431885  0.59881370  1
  Nb  Nb133  1  0.20106485  -0.00004124  0.19361649  1
  Nb  Nb134  1  -0.00119283  0.60053462  0.39608090  1
  Nb  Nb135  1  0.00499079  0.19695096  0.40232007  1
  Nb  Nb136  1  0.40412387  0.20357177  0.40931074  1
  Nb  Nb137  1  0.79252590  0.40590429  0.19760486  1
  Nb  Nb138  1  0.60076176  0.60109792  -0.00562910  1
  Nb  Nb139  1  0.40357116  0.20182494  0.80037638  1
  Nb  Nb140  1  0.60246687  -0.00750861  0.80780171  1
  Nb  Nb141  1  0.20001248  0.79370470  0.60286246  1
  Nb  Nb142  1  0.40197755  0.59192880  0.39960853  1
  Nb  Nb143  1  0.79445189  -0.00213537  0.80469049  1
  Nb  Nb144  1  0.60573368  0.60168869  0.80281977  1
  Nb  Nb145  1  0.59627904  0.20091225  0.60159591  1
  Nb  Nb146  1  0.79316337  0.20437840  0.60081567  1
  Nb  Nb147  1  0.20622973  0.40146006  -0.00783379  1
  Nb  Nb148  1  0.20015323  0.40234903  0.80439015  1
  Nb  Nb149  1  0.40667252  0.39604363  0.59378956  1
  Pd  Pd150  1  0.39899167  0.59244257  0.58913134  1
  Pd  Pd151  1  0.19811082  0.80076607  0.79427382  1
  Pd  Pd152  1  0.80720015  0.79958824  -0.00004585  1
  Pd  Pd153  1  0.59392449  0.60279561  0.39839957  1
  Pd  Pd154  1  0.79928638  0.59460140  0.78948161  1
  Pd  Pd155  1  0.20713840  0.80931901  0.19832658  1
  Pd  Pd156  1  0.39113485  0.19661697  0.20981139  1
  Pd  Pd157  1  0.40419964  0.80100729  0.00267910  1
  Pd  Pd158  1  0.40192738  0.00527592  0.40355671  1
  Pd  Pd159  1  0.80192701  0.80050048  0.40659511  1
  Pd  Pd160  1  0.59569743  0.20299481  0.00794687  1
  Pd  Pd161  1  0.59821922  0.39518489  0.60121818  1
  Pd  Pd162  1  0.40036429  -0.00212305  0.60043317  1
  Pd  Pd163  1  0.80747213  0.19045994  0.40529435  1
  Pd  Pd164  1  0.80455325  0.20292872  0.00269448  1
  Pd  Pd165  1  0.79349150  0.81116584  0.80043222  1
  Pd  Pd166  1  0.19862927  0.59710283  0.19500839  1
  Pd  Pd167  1  -0.00697589  0.80015633  0.40427082  1
  Pd  Pd168  1  0.80165161  0.19100603  0.79346315  1
  Pd  Pd169  1  0.40343554  0.39362089  0.00540820  1
  Pd  Pd170  1  0.60042677  0.80320634  0.59760797  1
  Pd  Pd171  1  0.40332956  0.60768983  0.80553191  1
  Pd  Pd172  1  0.59079280  0.40133491  -0.00511341  1
  Pd  Pd173  1  -0.00304433  0.60891452  -0.00366186  1
  Pd  Pd174  1  0.60063105  0.80090399  0.40984392  1
  Pd  Pd175  1  0.20166299  0.20577797  0.79595992  1
  Pd  Pd176  1  0.80012362  0.80179656  0.59444075  1
  Pd  Pd177  1  0.40295125  0.61057741  0.20899422  1
  Pd  Pd178  1  0.59583067  0.79520013  0.00264664  1
  Pd  Pd179  1  -0.00768026  0.79649097  -0.00457102  1
  Pd  Pd180  1  0.80541788  0.59311763  0.60804738  1
  Pd  Pd181  1  0.20084574  0.59919155  0.79890703  1
  Pd  Pd182  1  0.80254415  0.38808350  0.00361541  1
  Pd  Pd183  1  0.19613787  -0.01519486  0.61056369  1
  Pd  Pd184  1  0.79706707  -0.00164532  0.20189824  1
  Pd  Pd185  1  0.40139648  0.19579015  -0.00538597  1
  Pd  Pd186  1  -0.00326485  0.80457471  0.19540098  1
  Pd  Pd187  1  0.80964746  0.00146878  0.39311445  1
  Pd  Pd188  1  0.60058130  0.19092623  0.40565520  1
  Pd  Pd189  1  0.19986348  0.80557550  0.40678706  1
  Pd  Pd190  1  -0.00257804  0.59860939  0.20223564  1
  Pd  Pd191  1  -0.00411108  0.19830962  0.59954924  1
  Pd  Pd192  1  0.59974285  0.40952131  0.80916134  1
  Pd  Pd193  1  0.20114495  0.20481975  0.39080812  1
  Pd  Pd194  1  0.80342420  0.00260608  -0.00329402  1
  Pd  Pd195  1  0.78949369  0.40263210  0.38757470  1
  Pd  Pd196  1  0.20085428  0.19903694  0.61090613  1
  Pd  Pd197  1  0.80247680  0.60327841  0.39544453  1
  Pd  Pd198  1  -0.00802271  0.20338928  -0.00531987  1
  Pd  Pd199  1  0.80359850  0.39637716  0.61324945  1
  Rh  Rh200  1  0.59585325  -0.00211497  0.60294193  1
  Rh  Rh201  1  0.79914624  0.60726749  0.00665427  1
  Rh  Rh202  1  0.19895516  0.59634140  0.39406909  1
  Rh  Rh203  1  0.60082707  0.00066392  0.39915227  1
  Rh  Rh204  1  -0.00784610  -0.00214532  0.80027990  1
  Rh  Rh205  1  0.79399676  0.20897510  0.19515845  1
  Rh  Rh206  1  0.40647219  0.00579213  0.81303800  1
  Rh  Rh207  1  0.38958796  -0.00275763  0.19412741  1
  Rh  Rh208  1  0.00411594  -0.00166631  0.59522102  1
  Rh  Rh209  1  -0.00579106  0.40370284  0.60331314  1
  Rh  Rh210  1  0.40616106  0.79709124  0.39586983  1
  Rh  Rh211  1  0.79924294  0.00581313  0.60967276  1
  Rh  Rh212  1  -0.00283612  0.40230405  0.20017556  1
  Rh  Rh213  1  0.60291208  0.41066419  0.38841858  1
  Rh  Rh214  1  -0.00982416  -0.00190695  0.00287045  1
  Rh  Rh215  1  0.59246631  0.79789140  0.19560722  1
  Rh  Rh216  1  0.60399287  0.39592095  0.19972662  1
  Rh  Rh217  1  0.40768288  0.40482568  0.20126580  1
  Rh  Rh218  1  0.60450758  0.19856902  0.19574619  1
  Rh  Rh219  1  0.00438971  0.79885705  0.60137068  1
  Rh  Rh220  1  0.19897369  0.80053328  -0.00427213  1
  Rh  Rh221  1  0.80074834  0.79671177  0.19875662  1
  Rh  Rh222  1  0.19643229  -0.00364478  0.79786988  1
  Rh  Rh223  1  0.39213533  0.39079840  0.79085277  1
  Rh  Rh224  1  0.19852824  0.39907804  0.18570357  1
  Rh  Rh225  1  -0.00429065  0.60160390  0.79960300  1
  Rh  Rh226  1  0.20500280  0.21019812  0.00699323  1
  Rh  Rh227  1  0.00831994  0.39912761  0.80560660  1
  Rh  Rh228  1  0.20282501  0.40473334  0.40194025  1
  Rh  Rh229  1  0.00455051  0.39998135  0.40198040  1
  Rh  Rh230  1  0.00583201  0.20854823  0.20817521  1
  Rh  Rh231  1  0.20487994  0.40465833  0.61108624  1
  Rh  Rh232  1  0.00747040  0.39663210  -0.00739089  1
  Rh  Rh233  1  -0.00359227  0.79726895  0.80349616  1
  Rh  Rh234  1  0.20704133  -0.00099932  0.00366574  1
  Rh  Rh235  1  0.40743872  0.79485210  0.80304569  1
  Rh  Rh236  1  0.40584732  0.60432690  -0.00423832  1
  Rh  Rh237  1  0.19334697  -0.00768025  0.39453845  1
  Rh  Rh238  1  -0.00810455  0.59342487  0.59997605  1
  Rh  Rh239  1  0.20026663  0.59573071  0.00088459  1
  Rh  Rh240  1  0.60408491  0.60253561  0.60045417  1
  Rh  Rh241  1  0.20134766  0.60474018  0.60889229  1
  Rh  Rh242  1  0.00052107  -0.01002162  0.19795633  1
  Rh  Rh243  1  0.59110817  0.18542768  0.79500536  1
  Rh  Rh244  1  0.00270462  0.19997103  0.79698063  1
  Rh  Rh245  1  0.59248121  -0.00008595  -0.00189803  1
  Rh  Rh246  1  0.61079955  0.00120772  0.20238294  1
  Rh  Rh247  1  0.79991090  0.40126543  0.79718244  1
  Rh  Rh248  1  0.39534920  0.80881998  0.59388737  1
  Rh  Rh249  1  0.60320134  0.61091314  0.19173813  1
