# generated using pymatgen
data_ZrScNbPdRh
_symmetry_space_group_name_H-M   'P 1'
_cell_length_a   16.56107629
_cell_length_b   16.56254798
_cell_length_c   16.55980530
_cell_angle_alpha   89.99129289
_cell_angle_beta   89.99783853
_cell_angle_gamma   90.00643703
_symmetry_Int_Tables_number   1
_chemical_formula_structural   ZrScNbPdRh
_chemical_formula_sum   'Zr50 Sc50 Nb50 Pd50 Rh50'
_cell_volume   4542.24886699
_cell_formula_units_Z   50
loop_
 _symmetry_equiv_pos_site_id
 _symmetry_equiv_pos_as_xyz
  1  'x, y, z'
loop_
 _atom_site_type_symbol
 _atom_site_label
 _atom_site_symmetry_multiplicity
 _atom_site_fract_x
 _atom_site_fract_y
 _atom_site_fract_z
 _atom_site_occupancy
  Zr  Zr0  1  0.48832295  0.89026785  0.50339048  1
  Zr  Zr1  1  0.09638635  0.09849114  0.09679975  1
  Zr  Zr2  1  0.09110514  0.89983259  0.10462234  1
  Zr  Zr3  1  0.09991883  0.50055505  0.50351582  1
  Zr  Zr4  1  0.69831510  0.10338412  0.90391957  1
  Zr  Zr5  1  0.50125018  0.90332479  0.30794239  1
  Zr  Zr6  1  0.50294261  0.70554533  0.70215847  1
  Zr  Zr7  1  0.89999977  0.29655460  0.70094823  1
  Zr  Zr8  1  0.90701086  0.69451269  0.90303903  1
  Zr  Zr9  1  0.70008855  0.50419988  0.10538316  1
  Zr  Zr10  1  0.70469307  0.29633958  0.89954669  1
  Zr  Zr11  1  0.69853881  0.10415880  0.70307247  1
  Zr  Zr12  1  0.31151644  0.90394121  0.29133026  1
  Zr  Zr13  1  0.29438514  0.50046016  0.70259955  1
  Zr  Zr14  1  0.49104486  0.89563418  0.11045694  1
  Zr  Zr15  1  0.30045777  0.49800672  0.90867670  1
  Zr  Zr16  1  0.70129260  0.29932411  0.49095197  1
  Zr  Zr17  1  0.91138258  0.89616686  0.69579115  1
  Zr  Zr18  1  0.09889296  0.50669483  0.90418371  1
  Zr  Zr19  1  0.50466580  0.30960420  0.90205576  1
  Zr  Zr20  1  0.09974704  0.10134177  0.29474549  1
  Zr  Zr21  1  0.29257626  0.49958500  0.49423408  1
  Zr  Zr22  1  0.30690368  0.70211975  0.50247470  1
  Zr  Zr23  1  0.70490726  0.91042497  0.91350025  1
  Zr  Zr24  1  0.30625931  0.10677692  0.70078978  1
  Zr  Zr25  1  0.29919823  0.49419382  0.30564046  1
  Zr  Zr26  1  0.69794724  0.69854067  0.70178120  1
  Zr  Zr27  1  0.30078311  0.89773879  0.89346311  1
  Zr  Zr28  1  0.49044076  0.09988959  0.29843469  1
  Zr  Zr29  1  0.29851663  0.10112210  0.89874387  1
  Zr  Zr30  1  0.09666419  0.69607299  0.49407936  1
  Zr  Zr31  1  0.10923803  0.50032051  0.09845326  1
  Zr  Zr32  1  0.70482492  0.09020022  0.09173028  1
  Zr  Zr33  1  0.50534677  0.49184835  0.30236155  1
  Zr  Zr34  1  0.89471078  0.49910879  0.90120739  1
  Zr  Zr35  1  0.50422859  0.49991330  0.90306966  1
  Zr  Zr36  1  0.50453556  0.10383811  0.89995846  1
  Zr  Zr37  1  0.09965648  0.89854692  0.69599765  1
  Zr  Zr38  1  0.70374181  0.89904523  0.49049484  1
  Zr  Zr39  1  0.69645092  0.89701608  0.70458780  1
  Zr  Zr40  1  0.89930848  0.89598342  0.29660032  1
  Zr  Zr41  1  0.09734090  0.28445757  0.89500992  1
  Zr  Zr42  1  0.49274111  0.50367469  0.48429698  1
  Zr  Zr43  1  0.70695087  0.50123788  0.69954638  1
  Zr  Zr44  1  0.49837095  0.30371537  0.71188585  1
  Zr  Zr45  1  0.09668009  0.10087421  0.49401063  1
  Zr  Zr46  1  0.30198517  0.29708947  0.89065305  1
  Zr  Zr47  1  0.70615432  0.89684022  0.29540278  1
  Zr  Zr48  1  0.29576635  0.89579228  0.09685149  1
  Zr  Zr49  1  0.90446667  0.69471134  0.30240490  1
  Sc  Sc50  1  0.50209156  0.69201962  0.31702875  1
  Sc  Sc51  1  0.50019574  0.09934479  0.49546616  1
  Sc  Sc52  1  0.90485769  0.10149861  0.49542612  1
  Sc  Sc53  1  0.69638362  0.49774823  0.90143276  1
  Sc  Sc54  1  0.10620351  0.29238785  0.30192362  1
  Sc  Sc55  1  0.10542129  0.51436970  0.30139256  1
  Sc  Sc56  1  0.90343309  0.69828854  0.49571260  1
  Sc  Sc57  1  0.70056151  0.69813489  0.49312974  1
  Sc  Sc58  1  0.90532834  0.11698159  0.90862426  1
  Sc  Sc59  1  0.10247332  0.89597802  0.90898430  1
  Sc  Sc60  1  0.90290626  0.09789478  0.29756973  1
  Sc  Sc61  1  0.88644543  0.29561396  0.29435173  1
  Sc  Sc62  1  0.89667056  0.29979989  0.49778737  1
  Sc  Sc63  1  0.89329540  0.50828077  0.09950849  1
  Sc  Sc64  1  0.08933821  0.89945332  0.29649895  1
  Sc  Sc65  1  0.30004343  0.09493026  0.10618268  1
  Sc  Sc66  1  0.50487528  0.10859595  0.10379020  1
  Sc  Sc67  1  0.89565261  0.50402501  0.50302335  1
  Sc  Sc68  1  0.70353120  0.10488786  0.30335854  1
  Sc  Sc69  1  0.90187252  0.10364048  0.10461877  1
  Sc  Sc70  1  0.09593485  0.10844016  0.69017983  1
  Sc  Sc71  1  0.49945489  0.69403070  0.09563306  1
  Sc  Sc72  1  0.70046339  0.29672854  0.69850197  1
  Sc  Sc73  1  0.70692140  0.70230245  0.30086669  1
  Sc  Sc74  1  0.29795430  0.70468156  0.90008047  1
  Sc  Sc75  1  0.29379895  0.30276490  0.49288804  1
  Sc  Sc76  1  0.29691346  0.70658301  0.71142860  1
  Sc  Sc77  1  0.50103356  0.29606514  0.48917221  1
  Sc  Sc78  1  0.10290848  0.70092711  0.10355285  1
  Sc  Sc79  1  0.49820802  0.10162286  0.69925542  1
  Sc  Sc80  1  0.89552814  0.69992019  0.10345600  1
  Sc  Sc81  1  0.10531503  0.70488157  0.90187091  1
  Sc  Sc82  1  0.49166768  0.89911723  0.70309471  1
  Sc  Sc83  1  0.09938276  0.29768843  0.49523843  1
  Sc  Sc84  1  0.29842066  0.70658849  0.10369165  1
  Sc  Sc85  1  0.50068542  0.69526147  0.89734884  1
  Sc  Sc86  1  0.49363564  0.90382322  0.89871351  1
  Sc  Sc87  1  0.70153019  0.29493694  0.10508056  1
  Sc  Sc88  1  0.29840471  0.29398642  0.30095786  1
  Sc  Sc89  1  0.30590616  0.10057448  0.50633209  1
  Sc  Sc90  1  0.10333366  0.29270609  0.10434652  1
  Sc  Sc91  1  0.30030232  0.31243440  0.10296459  1
  Sc  Sc92  1  0.28882128  0.69593995  0.29513563  1
  Sc  Sc93  1  0.91363188  0.90111112  0.49250280  1
  Sc  Sc94  1  0.69295697  0.69106063  0.90068450  1
  Sc  Sc95  1  0.50084354  0.29273862  0.29256882  1
  Sc  Sc96  1  0.69935707  0.10875662  0.49547152  1
  Sc  Sc97  1  0.09664141  0.70349152  0.29375668  1
  Sc  Sc98  1  0.09723085  0.29607611  0.69020651  1
  Sc  Sc99  1  0.90451943  0.89490807  0.91530968  1
  Nb  Nb100  1  0.30127742  0.90615422  0.69613705  1
  Nb  Nb101  1  0.70602349  0.89415495  0.10616236  1
  Nb  Nb102  1  0.30423716  0.30145951  0.70532009  1
  Nb  Nb103  1  0.30045286  0.09569729  0.30326654  1
  Nb  Nb104  1  0.70162838  0.30944050  0.30356572  1
  Nb  Nb105  1  0.90144693  0.09666446  0.69784651  1
  Nb  Nb106  1  0.30148060  0.90188528  0.50564643  1
  Nb  Nb107  1  0.49722102  0.69470691  0.50619044  1
  Nb  Nb108  1  0.69206395  0.49415827  0.49158727  1
  Nb  Nb109  1  0.10318316  0.10191298  0.89598626  1
  Nb  Nb110  1  0.90150581  0.69947858  0.69705285  1
  Nb  Nb111  1  0.90382183  0.50353675  0.69748244  1
  Nb  Nb112  1  0.09345501  0.70350422  0.69524142  1
  Nb  Nb113  1  0.70500434  0.49075295  0.30388891  1
  Nb  Nb114  1  0.49576922  0.49298820  0.09736635  1
  Nb  Nb115  1  0.49684018  0.30029752  0.09805280  1
  Nb  Nb116  1  0.30402511  0.49940878  0.10381719  1
  Nb  Nb117  1  0.90325320  0.29878503  0.09818701  1
  Nb  Nb118  1  0.88481406  0.90502487  0.10483642  1
  Nb  Nb119  1  0.89352882  0.49724542  0.29541757  1
  Nb  Nb120  1  0.69440483  0.70207733  0.10722894  1
  Nb  Nb121  1  0.09580934  0.50174702  0.69578472  1
  Nb  Nb122  1  0.50175455  0.49865684  0.70423611  1
  Nb  Nb123  1  0.10102653  0.90317326  0.50016608  1
  Nb  Nb124  1  0.90413319  0.30351155  0.90426571  1
  Nb  Nb125  1  0.40367282  0.58792237  0.19881875  1
  Nb  Nb126  1  0.59485161  0.59359359  0.59482220  1
  Nb  Nb127  1  0.19906617  0.80528621  0.59746498  1
  Nb  Nb128  1  0.80342553  0.80178455  0.60378265  1
  Nb  Nb129  1  0.60545319  0.80442567  0.00999329  1
  Nb  Nb130  1  -0.00248389  0.39635735  0.00085717  1
  Nb  Nb131  1  0.20483366  -0.00434490  0.40151947  1
  Nb  Nb132  1  0.79917691  -0.00306186  0.60411714  1
  Nb  Nb133  1  0.59887238  0.59234749  0.20236338  1
  Nb  Nb134  1  -0.00528903  0.40620091  0.38860753  1
  Nb  Nb135  1  0.19191133  0.40040023  0.79689087  1
  Nb  Nb136  1  0.40230394  0.40395801  0.60264291  1
  Nb  Nb137  1  0.60457536  -0.00674920  0.20092732  1
  Nb  Nb138  1  0.40313745  0.20764436  0.00138004  1
  Nb  Nb139  1  -0.00023151  0.40514264  0.79888211  1
  Nb  Nb140  1  0.59523876  0.40630865  0.59622074  1
  Nb  Nb141  1  0.00022849  0.59864235  0.78879452  1
  Nb  Nb142  1  0.60498067  -0.00497941  0.59726150  1
  Nb  Nb143  1  0.80441532  0.80068232  0.79964015  1
  Nb  Nb144  1  0.00209352  0.00653245  0.80368022  1
  Nb  Nb145  1  -0.00454901  0.40109778  0.19960097  1
  Nb  Nb146  1  0.19504145  0.00344264  0.79704049  1
  Nb  Nb147  1  0.40445317  0.59604430  0.60340549  1
  Nb  Nb148  1  0.20177616  0.81180384  0.40574562  1
  Nb  Nb149  1  0.81044706  -0.00046195  0.79937074  1
  Pd  Pd150  1  0.79917431  0.39747081  0.00945168  1
  Pd  Pd151  1  0.80599556  0.19580799  0.80354667  1
  Pd  Pd152  1  0.60733751  0.19480649  0.20252561  1
  Pd  Pd153  1  0.60273623  0.39894338  0.19622795  1
  Pd  Pd154  1  0.60101947  0.00507033  0.39958527  1
  Pd  Pd155  1  0.80219102  0.39786017  0.79753013  1
  Pd  Pd156  1  0.59128029  0.79349628  0.20263606  1
  Pd  Pd157  1  0.59253342  0.20257012  0.59925656  1
  Pd  Pd158  1  0.79446260  0.60513065  0.59130161  1
  Pd  Pd159  1  0.40072236  0.59900707  0.79987209  1
  Pd  Pd160  1  0.60547670  0.79899797  0.59096187  1
  Pd  Pd161  1  0.59885370  -0.00073170  0.79621800  1
  Pd  Pd162  1  0.20363312  0.39127987  0.60404798  1
  Pd  Pd163  1  0.40415154  0.00909147  0.00687080  1
  Pd  Pd164  1  0.00006531  0.79973041  0.80761044  1
  Pd  Pd165  1  0.40663379  0.79432700  -0.00544431  1
  Pd  Pd166  1  0.79319150  0.78820443  -0.00374102  1
  Pd  Pd167  1  0.80389057  0.60476821  0.80207773  1
  Pd  Pd168  1  0.20379362  0.20552674  0.59568097  1
  Pd  Pd169  1  0.60298713  0.80524776  0.81792834  1
  Pd  Pd170  1  0.39967458  0.39709522  0.20732030  1
  Pd  Pd171  1  0.20618876  0.61086574  0.00605887  1
  Pd  Pd172  1  -0.00662149  0.21011902  0.39182334  1
  Pd  Pd173  1  0.39640801  0.60405415  0.00453690  1
  Pd  Pd174  1  0.79877274  0.59562562  0.40014551  1
  Pd  Pd175  1  0.19646683  -0.00510953  0.20547798  1
  Pd  Pd176  1  0.79234235  0.60679742  0.00083620  1
  Pd  Pd177  1  -0.00374646  0.39722828  0.59442315  1
  Pd  Pd178  1  0.19925142  -0.00173111  -0.00429878  1
  Pd  Pd179  1  0.19204742  0.60101448  0.79892956  1
  Pd  Pd180  1  0.19920938  0.00255752  0.60065898  1
  Pd  Pd181  1  0.20500919  0.61154565  0.60427341  1
  Pd  Pd182  1  -0.00548587  0.00487205  -0.00320419  1
  Pd  Pd183  1  0.40807365  0.77932718  0.21074111  1
  Pd  Pd184  1  0.40452561  0.21192590  0.59610224  1
  Pd  Pd185  1  0.80390417  0.19367900  0.59488197  1
  Pd  Pd186  1  0.00026560  0.79382481  0.01129524  1
  Pd  Pd187  1  0.19349889  0.38963780  -0.00737649  1
  Pd  Pd188  1  0.39406997  0.20107439  0.40116575  1
  Pd  Pd189  1  0.59996454  0.79476175  0.40283787  1
  Pd  Pd190  1  0.79604238  0.39974388  0.59567198  1
  Pd  Pd191  1  0.00082041  0.59390595  0.19411264  1
  Pd  Pd192  1  0.79630657  0.19585471  0.19827792  1
  Pd  Pd193  1  0.39289457  0.79403519  0.39198949  1
  Pd  Pd194  1  0.21000825  0.20201442  0.00996116  1
  Pd  Pd195  1  0.60896461  0.39602114  0.00752501  1
  Pd  Pd196  1  0.80624530  0.00377416  0.40335154  1
  Pd  Pd197  1  0.58771030  -0.00876750  0.01300005  1
  Pd  Pd198  1  0.20835083  0.19875794  0.19598522  1
  Pd  Pd199  1  0.19162144  0.40108866  0.20839772  1
  Rh  Rh200  1  0.59693490  0.39117951  0.39906782  1
  Rh  Rh201  1  0.39406212  0.00372209  0.40770651  1
  Rh  Rh202  1  0.19935189  0.80021100  0.00395112  1
  Rh  Rh203  1  0.39994944  0.80144399  0.80026862  1
  Rh  Rh204  1  0.79202143  0.60332262  0.20615507  1
  Rh  Rh205  1  0.80698513  0.79237525  0.20237117  1
  Rh  Rh206  1  0.80186590  0.20117714  0.39705019  1
  Rh  Rh207  1  0.59996866  0.59354674  0.79533278  1
  Rh  Rh208  1  -0.00260722  0.59029988  0.39895586  1
  Rh  Rh209  1  0.60051127  0.60238510  0.00906165  1
  Rh  Rh210  1  0.39231236  0.20147310  0.19146586  1
  Rh  Rh211  1  0.79657204  0.00559364  0.20285439  1
  Rh  Rh212  1  0.81367163  0.00864410  -0.00564043  1
  Rh  Rh213  1  0.00150010  0.59900920  0.00181041  1
  Rh  Rh214  1  -0.00381520  0.19880450  0.79336785  1
  Rh  Rh215  1  0.19785380  0.80877788  0.79348256  1
  Rh  Rh216  1  0.19967439  0.60863347  0.39959832  1
  Rh  Rh217  1  0.59868098  0.20340381  0.80125510  1
  Rh  Rh218  1  0.00721211  0.00165330  0.39375207  1
  Rh  Rh219  1  0.39163834  0.79377257  0.61065312  1
  Rh  Rh220  1  0.19618494  0.80868845  0.20548900  1
  Rh  Rh221  1  0.80735347  0.40129082  0.40260683  1
  Rh  Rh222  1  0.18511718  0.40120626  0.39553683  1
  Rh  Rh223  1  0.39838845  0.39609250  -0.00188699  1
  Rh  Rh224  1  0.80355096  0.39908097  0.19512846  1
  Rh  Rh225  1  0.40625224  0.00714660  0.19383977  1
  Rh  Rh226  1  0.39343481  0.00266658  0.79743204  1
  Rh  Rh227  1  0.40843322  0.19819772  0.80668210  1
  Rh  Rh228  1  0.61332137  0.40211253  0.79472057  1
  Rh  Rh229  1  0.20817231  0.59725144  0.19389204  1
  Rh  Rh230  1  0.61119120  0.60143485  0.39623623  1
  Rh  Rh231  1  0.41156203  0.00168473  0.59944640  1
  Rh  Rh232  1  0.00131369  0.79258866  0.58810367  1
  Rh  Rh233  1  0.19504679  0.19925488  0.78597663  1
  Rh  Rh234  1  0.00014735  0.20600644  0.20171489  1
  Rh  Rh235  1  0.20585352  0.18668042  0.40220300  1
  Rh  Rh236  1  0.39145042  0.40910231  0.80114641  1
  Rh  Rh237  1  0.39939678  0.38826264  0.39860096  1
  Rh  Rh238  1  0.80078292  0.20300452  0.00369612  1
  Rh  Rh239  1  -0.00865348  0.80013243  0.19452294  1
  Rh  Rh240  1  -0.00759606  -0.00097141  0.19634829  1
  Rh  Rh241  1  0.00538072  0.79970005  0.39835782  1
  Rh  Rh242  1  0.59701733  0.20813803  0.00149200  1
  Rh  Rh243  1  -0.00144859  0.60267187  0.60033778  1
  Rh  Rh244  1  0.60080322  0.20212526  0.38892512  1
  Rh  Rh245  1  0.00349912  0.20295261  0.00759674  1
  Rh  Rh246  1  0.80979290  0.79899813  0.40434177  1
  Rh  Rh247  1  -0.00331117  0.00727260  0.59892769  1
  Rh  Rh248  1  -0.00612896  0.20149202  0.59413681  1
  Rh  Rh249  1  0.38893157  0.60462265  0.39542217  1
