# generated using pymatgen
data_ZrScNbPdRh
_symmetry_space_group_name_H-M   'P 1'
_cell_length_a   16.56160574
_cell_length_b   16.56567402
_cell_length_c   16.56875067
_cell_angle_alpha   90.00382474
_cell_angle_beta   89.92494799
_cell_angle_gamma   90.00660044
_symmetry_Int_Tables_number   1
_chemical_formula_structural   ZrScNbPdRh
_chemical_formula_sum   'Zr50 Sc50 Nb50 Pd50 Rh50'
_cell_volume   4545.70176285
_cell_formula_units_Z   50
loop_
 _symmetry_equiv_pos_site_id
 _symmetry_equiv_pos_as_xyz
  1  'x, y, z'
loop_
 _atom_site_type_symbol
 _atom_site_label
 _atom_site_symmetry_multiplicity
 _atom_site_fract_x
 _atom_site_fract_y
 _atom_site_fract_z
 _atom_site_occupancy
  Zr  Zr0  1  0.89688326  0.49908232  0.69584694  1
  Zr  Zr1  1  0.09532892  0.90610810  0.30493338  1
  Zr  Zr2  1  0.69759436  0.29600929  0.49439448  1
  Zr  Zr3  1  0.29955275  0.69580266  0.70512600  1
  Zr  Zr4  1  0.70136160  0.90684104  0.70094752  1
  Zr  Zr5  1  0.09942049  0.69898734  0.90666878  1
  Zr  Zr6  1  0.70631485  0.89899351  0.50395943  1
  Zr  Zr7  1  0.09737343  0.29660120  0.90572093  1
  Zr  Zr8  1  0.29893787  0.50199143  0.10372812  1
  Zr  Zr9  1  0.29149369  0.70074101  0.50610716  1
  Zr  Zr10  1  0.89286504  0.29194369  0.70038848  1
  Zr  Zr11  1  0.30164706  0.29095281  0.90265268  1
  Zr  Zr12  1  0.50395817  0.88968186  0.69315159  1
  Zr  Zr13  1  0.70121825  0.89288450  0.30017905  1
  Zr  Zr14  1  0.50143047  0.11602813  0.70166018  1
  Zr  Zr15  1  0.89882186  0.90162978  0.10583912  1
  Zr  Zr16  1  0.51143883  0.50141890  0.89757770  1
  Zr  Zr17  1  0.69903331  0.09995249  0.09707489  1
  Zr  Zr18  1  0.89418771  0.90377094  0.31058576  1
  Zr  Zr19  1  0.29623415  0.30636172  0.29910270  1
  Zr  Zr20  1  0.10420357  0.89084074  0.50259448  1
  Zr  Zr21  1  0.69813400  0.69737805  0.29783273  1
  Zr  Zr22  1  0.90409414  0.90146362  0.90396326  1
  Zr  Zr23  1  0.29335744  0.50312598  0.69726589  1
  Zr  Zr24  1  0.90103863  0.50931960  0.49667308  1
  Zr  Zr25  1  0.50028423  0.50264778  0.09775553  1
  Zr  Zr26  1  0.10021533  0.30550093  0.49846112  1
  Zr  Zr27  1  0.09879503  0.90083221  0.08885996  1
  Zr  Zr28  1  0.50764902  0.69540453  0.89153348  1
  Zr  Zr29  1  0.29820531  0.09320460  0.90461120  1
  Zr  Zr30  1  0.70617697  0.50871336  0.90100129  1
  Zr  Zr31  1  0.30304091  0.90256482  0.08462207  1
  Zr  Zr32  1  0.89350829  0.69498459  0.29635935  1
  Zr  Zr33  1  0.49841786  0.30257468  0.09841137  1
  Zr  Zr34  1  0.50998463  0.50459604  0.29709895  1
  Zr  Zr35  1  0.91102058  0.09687146  0.30106351  1
  Zr  Zr36  1  0.30620155  0.10285431  0.09711305  1
  Zr  Zr37  1  0.70424902  0.49607749  0.49624050  1
  Zr  Zr38  1  0.30396477  0.89900854  0.50950275  1
  Zr  Zr39  1  0.90338335  0.50104555  0.09857723  1
  Zr  Zr40  1  0.30565347  0.70932925  0.89680863  1
  Zr  Zr41  1  0.50132571  0.29903485  0.50145065  1
  Zr  Zr42  1  0.70422152  0.10020845  0.89589330  1
  Zr  Zr43  1  0.70067542  0.31055235  0.30088974  1
  Zr  Zr44  1  0.49795910  0.09376115  0.09940898  1
  Zr  Zr45  1  0.09610279  0.49913611  0.10362948  1
  Zr  Zr46  1  0.09195185  0.50040132  0.30121866  1
  Zr  Zr47  1  0.29882808  0.50462550  0.89086372  1
  Zr  Zr48  1  0.90102951  0.29341120  0.50407928  1
  Zr  Zr49  1  0.89687775  0.10170836  0.50032390  1
  Sc  Sc50  1  0.30257621  0.09898785  0.29284676  1
  Sc  Sc51  1  0.70246583  0.49484435  0.10115172  1
  Sc  Sc52  1  0.30237931  0.08891974  0.49951233  1
  Sc  Sc53  1  0.70379753  0.69805828  0.49686692  1
  Sc  Sc54  1  0.29769394  0.10031890  0.69867457  1
  Sc  Sc55  1  0.09794995  0.11066810  0.09821146  1
  Sc  Sc56  1  0.70172640  0.30827157  0.89656092  1
  Sc  Sc57  1  0.49967971  0.69345250  0.70388093  1
  Sc  Sc58  1  0.09766614  0.10464694  0.50141062  1
  Sc  Sc59  1  0.49833180  0.89213167  0.89957328  1
  Sc  Sc60  1  0.88574850  0.10226934  0.70121040  1
  Sc  Sc61  1  0.10575079  0.69633174  0.69173565  1
  Sc  Sc62  1  0.69813800  0.10228044  0.50307827  1
  Sc  Sc63  1  0.29423644  0.49733514  0.30066398  1
  Sc  Sc64  1  0.09683360  0.69466646  0.49991529  1
  Sc  Sc65  1  0.49976485  0.90269075  0.10834753  1
  Sc  Sc66  1  0.89045241  0.89923219  0.69432595  1
  Sc  Sc67  1  0.29289974  0.29634710  0.10517434  1
  Sc  Sc68  1  0.70279223  0.49490277  0.70597869  1
  Sc  Sc69  1  0.90165875  0.70192475  0.49868687  1
  Sc  Sc70  1  0.30664122  0.90638479  0.30542551  1
  Sc  Sc71  1  0.30397664  0.70364602  0.10150414  1
  Sc  Sc72  1  0.50348325  0.31106116  0.30561482  1
  Sc  Sc73  1  0.49236545  0.08692160  0.29398455  1
  Sc  Sc74  1  0.89707748  0.30093311  0.09851229  1
  Sc  Sc75  1  0.29692659  0.70005277  0.29363922  1
  Sc  Sc76  1  0.10048963  0.69398916  0.30507310  1
  Sc  Sc77  1  0.10130642  0.10371086  0.90260453  1
  Sc  Sc78  1  0.49016700  0.10736498  0.90124657  1
  Sc  Sc79  1  0.30034082  0.29862086  0.69571870  1
  Sc  Sc80  1  0.68730706  0.70451766  0.70212469  1
  Sc  Sc81  1  0.09362859  0.30205190  0.10078338  1
  Sc  Sc82  1  0.90046372  0.69426247  0.09518426  1
  Sc  Sc83  1  0.09711419  0.30489420  0.29133677  1
  Sc  Sc84  1  0.49663028  0.69999951  0.10801407  1
  Sc  Sc85  1  0.90059730  0.11083796  0.09933674  1
  Sc  Sc86  1  0.69837229  0.90453445  0.10718350  1
  Sc  Sc87  1  0.29564365  0.49701851  0.49917459  1
  Sc  Sc88  1  0.10242895  0.49210540  0.90402637  1
  Sc  Sc89  1  0.11434257  0.90329641  0.90235953  1
  Sc  Sc90  1  0.49679433  0.49685239  0.50116971  1
  Sc  Sc91  1  0.09761792  0.69288013  0.10348849  1
  Sc  Sc92  1  0.10451377  0.10347847  0.69768612  1
  Sc  Sc93  1  0.49700430  0.09812094  0.50385623  1
  Sc  Sc94  1  0.90165058  0.69637659  0.68996875  1
  Sc  Sc95  1  0.51007154  0.69977285  0.51283319  1
  Sc  Sc96  1  0.90182251  0.30250657  0.29465672  1
  Sc  Sc97  1  0.10422789  0.29495257  0.69569234  1
  Sc  Sc98  1  0.29907736  0.31558493  0.49872027  1
  Sc  Sc99  1  0.70381670  0.09542784  0.30362219  1
  Nb  Nb100  1  0.69130813  0.28956293  0.70108490  1
  Nb  Nb101  1  0.70453907  0.70088186  0.90349970  1
  Nb  Nb102  1  0.50443405  0.29939548  0.70708734  1
  Nb  Nb103  1  0.50078477  0.89299351  0.30009680  1
  Nb  Nb104  1  0.70321720  0.29269432  0.10053223  1
  Nb  Nb105  1  0.70942537  0.50214890  0.30164785  1
  Nb  Nb106  1  0.29254112  0.89666383  0.70812178  1
  Nb  Nb107  1  0.10374829  0.10310145  0.29581748  1
  Nb  Nb108  1  0.09807004  0.50115531  0.70192209  1
  Nb  Nb109  1  0.89681496  0.69198663  0.90185204  1
  Nb  Nb110  1  0.09880196  0.90278475  0.70487601  1
  Nb  Nb111  1  0.09780853  0.49946377  0.50296110  1
  Nb  Nb112  1  0.89768222  0.10662004  0.89544597  1
  Nb  Nb113  1  0.89850385  0.90196396  0.50095386  1
  Nb  Nb114  1  0.30039001  0.90053927  0.89426885  1
  Nb  Nb115  1  0.50055441  0.29877052  0.89314077  1
  Nb  Nb116  1  0.70137583  0.90050520  0.89805754  1
  Nb  Nb117  1  0.49797668  0.90039117  0.49917028  1
  Nb  Nb118  1  0.69891755  0.10269744  0.70256856  1
  Nb  Nb119  1  0.49958869  0.49815570  0.70334932  1
  Nb  Nb120  1  0.89979977  0.50114041  0.89967447  1
  Nb  Nb121  1  0.89241798  0.50347405  0.29361663  1
  Nb  Nb122  1  0.71202654  0.70383247  0.09968770  1
  Nb  Nb123  1  0.49990939  0.70551054  0.30196356  1
  Nb  Nb124  1  0.90268325  0.29548315  0.90111938  1
  Nb  Nb125  1  0.80189679  0.00257274  -0.00479075  1
  Nb  Nb126  1  0.80188658  0.79600603  0.80861602  1
  Nb  Nb127  1  -0.00511095  0.40027330  0.79925621  1
  Nb  Nb128  1  0.19665390  -0.00136526  0.19596988  1
  Nb  Nb129  1  -0.00276831  -0.00593968  0.60253323  1
  Nb  Nb130  1  0.39540647  0.20347228  0.39874571  1
  Nb  Nb131  1  0.59753447  0.00204893  0.79750857  1
  Nb  Nb132  1  0.39880014  -0.00780257  0.79620564  1
  Nb  Nb133  1  0.40643045  0.39822778  0.79993350  1
  Nb  Nb134  1  0.40217384  0.40056101  -0.00748545  1
  Nb  Nb135  1  0.61075370  0.79572667  -0.00192245  1
  Nb  Nb136  1  0.20449870  0.59902875  -0.00169482  1
  Nb  Nb137  1  -0.00037396  0.40407284  0.60298406  1
  Nb  Nb138  1  0.40778983  0.79699069  0.40279448  1
  Nb  Nb139  1  0.59418463  -0.01198576  0.40122619  1
  Nb  Nb140  1  0.60116765  0.20532453  0.00164639  1
  Nb  Nb141  1  0.59843287  0.39326259  0.60815854  1
  Nb  Nb142  1  0.60257914  0.20228385  0.19640629  1
  Nb  Nb143  1  0.20311086  0.20129997  0.39494211  1
  Nb  Nb144  1  0.40496905  0.60949040  0.39820524  1
  Nb  Nb145  1  -0.00329294  0.79876136  0.80124063  1
  Nb  Nb146  1  0.19462452  0.81072354  0.19845516  1
  Nb  Nb147  1  -0.00276755  0.59745320  0.80266367  1
  Nb  Nb148  1  0.00081240  0.80409005  0.20330123  1
  Nb  Nb149  1  -0.00132446  -0.00291234  0.79586601  1
  Pd  Pd150  1  0.39074308  0.20308528  0.59181661  1
  Pd  Pd151  1  0.00182609  0.19571033  0.79303322  1
  Pd  Pd152  1  0.19270925  -0.00177330  0.60299154  1
  Pd  Pd153  1  0.39818989  0.79202104  0.60173283  1
  Pd  Pd154  1  0.20488786  0.59577409  0.40142995  1
  Pd  Pd155  1  0.60734310  0.60986262  0.01117771  1
  Pd  Pd156  1  0.81083990  0.39815967  0.39944920  1
  Pd  Pd157  1  0.60041235  0.39440079  -0.00141759  1
  Pd  Pd158  1  0.80355581  0.39877241  -0.00025422  1
  Pd  Pd159  1  0.80198254  0.19776189  0.39213436  1
  Pd  Pd160  1  -0.00273741  0.79448216  0.00284132  1
  Pd  Pd161  1  0.20687547  0.40101237  0.00453683  1
  Pd  Pd162  1  0.79569805  0.79211254  0.60498261  1
  Pd  Pd163  1  0.80127848  0.60978533  0.79107703  1
  Pd  Pd164  1  0.59836237  -0.00257854  -0.00966265  1
  Pd  Pd165  1  0.59806252  0.00564649  0.59966238  1
  Pd  Pd166  1  0.60794746  0.60417620  0.19282020  1
  Pd  Pd167  1  0.20917448  0.20094791  0.58578770  1
  Pd  Pd168  1  0.59665623  0.59846593  0.40485690  1
  Pd  Pd169  1  0.40220209  0.00043085  0.61203758  1
  Pd  Pd170  1  0.41241797  0.79857475  0.00142374  1
  Pd  Pd171  1  0.80217975  0.39390737  0.80080134  1
  Pd  Pd172  1  0.00802852  0.20323204  0.39354821  1
  Pd  Pd173  1  0.00513611  0.00346024  0.41242853  1
  Pd  Pd174  1  0.40001267  0.59926150  0.59480689  1
  Pd  Pd175  1  -0.00508238  0.79340066  0.39593255  1
  Pd  Pd176  1  0.19894825  0.39166960  0.79529139  1
  Pd  Pd177  1  0.80034908  0.00599318  0.19694062  1
  Pd  Pd178  1  0.60613392  0.39930914  0.19706203  1
  Pd  Pd179  1  0.60537354  0.58811935  0.60408146  1
  Pd  Pd180  1  -0.00341479  0.01295131  -0.00637863  1
  Pd  Pd181  1  0.20217259  0.19688530  0.80036544  1
  Pd  Pd182  1  0.79846826  0.80758244  0.00095201  1
  Pd  Pd183  1  0.39953292  0.40210145  0.19799892  1
  Pd  Pd184  1  0.79825906  0.19877981  0.20922530  1
  Pd  Pd185  1  0.60156763  0.79713198  0.18965003  1
  Pd  Pd186  1  0.58838319  0.18501527  0.38800551  1
  Pd  Pd187  1  -0.00724554  0.40177159  0.40224141  1
  Pd  Pd188  1  0.59816448  0.80035368  0.40772631  1
  Pd  Pd189  1  0.78991752  0.60619430  0.60432329  1
  Pd  Pd190  1  0.40994504  0.20571723  0.20927044  1
  Pd  Pd191  1  0.40451342  0.40009749  0.60823997  1
  Pd  Pd192  1  0.39711123  0.59918071  -0.00378475  1
  Pd  Pd193  1  0.19014560  0.79476930  0.79824013  1
  Pd  Pd194  1  0.00567505  0.00170167  0.19373990  1
  Pd  Pd195  1  0.00086070  0.80388605  0.60619404  1
  Pd  Pd196  1  0.79568028  0.39212572  0.59942213  1
  Pd  Pd197  1  0.19996889  0.00757942  0.39631635  1
  Pd  Pd198  1  0.20949859  0.80054991  0.39260369  1
  Pd  Pd199  1  0.39837759  0.59982945  0.20930507  1
  Rh  Rh200  1  0.19805228  0.80032382  0.60634043  1
  Rh  Rh201  1  0.79793197  0.19925595  -0.00894443  1
  Rh  Rh202  1  0.18910319  0.60458064  0.80647303  1
  Rh  Rh203  1  0.00477352  0.59531021  0.60203329  1
  Rh  Rh204  1  0.80663494  0.79846733  0.20022705  1
  Rh  Rh205  1  -0.00669445  0.39792296  -0.00624283  1
  Rh  Rh206  1  0.80331202  0.00740994  0.59631864  1
  Rh  Rh207  1  -0.00318041  0.59972837  0.39775785  1
  Rh  Rh208  1  0.79927102  0.60282103  0.39875505  1
  Rh  Rh209  1  0.19684097  0.59505399  0.59514868  1
  Rh  Rh210  1  0.40347249  0.40711642  0.39603776  1
  Rh  Rh211  1  0.80150687  -0.00494610  0.80432647  1
  Rh  Rh212  1  0.20439880  0.78914257  0.00540297  1
  Rh  Rh213  1  0.40749626  -0.00625875  -0.01069454  1
  Rh  Rh214  1  0.40171871  0.80415928  0.79307996  1
  Rh  Rh215  1  0.60295332  0.00199853  0.21315140  1
  Rh  Rh216  1  0.60532423  0.80032516  0.59631311  1
  Rh  Rh217  1  0.79012185  0.19822185  0.59958632  1
  Rh  Rh218  1  0.39089037  0.19983392  0.79591152  1
  Rh  Rh219  1  0.20075328  0.00525081  0.79953802  1
  Rh  Rh220  1  0.60599405  0.80523717  0.80695955  1
  Rh  Rh221  1  0.60014915  0.40362290  0.79544868  1
  Rh  Rh222  1  0.19691935  0.19641466  0.20232542  1
  Rh  Rh223  1  0.19251129  0.39986395  0.39625252  1
  Rh  Rh224  1  0.59992310  0.41019883  0.40638222  1
  Rh  Rh225  1  -0.00446507  0.20238587  0.00060616  1
  Rh  Rh226  1  0.60252223  0.20243628  0.59691723  1
  Rh  Rh227  1  0.19095906  0.40430509  0.60460045  1
  Rh  Rh228  1  0.19344805  0.40186632  0.19854203  1
  Rh  Rh229  1  -0.00217227  0.19700629  0.60632562  1
  Rh  Rh230  1  0.39177628  0.80422898  0.20810694  1
  Rh  Rh231  1  0.40409436  0.59449105  0.79795920  1
  Rh  Rh232  1  0.20005188  0.60411276  0.19309979  1
  Rh  Rh233  1  0.80080590  0.40219938  0.19847555  1
  Rh  Rh234  1  0.60451301  0.19447332  0.80958334  1
  Rh  Rh235  1  0.79884469  0.59546307  0.00678656  1
  Rh  Rh236  1  0.80321281  0.79606908  0.40272674  1
  Rh  Rh237  1  0.79451971  0.59629786  0.19313682  1
  Rh  Rh238  1  -0.00135179  0.60559189  0.20581848  1
  Rh  Rh239  1  0.39147134  -0.01047671  0.19597507  1
  Rh  Rh240  1  0.00534890  0.59227948  -0.00704252  1
  Rh  Rh241  1  0.40523577  0.20752623  0.00272266  1
  Rh  Rh242  1  0.40647136  -0.00161596  0.40118412  1
  Rh  Rh243  1  0.79277454  0.00125647  0.40578251  1
  Rh  Rh244  1  -0.00734567  0.40207215  0.19838425  1
  Rh  Rh245  1  -0.00109746  0.20237815  0.20099064  1
  Rh  Rh246  1  0.79277447  0.20814161  0.80408422  1
  Rh  Rh247  1  0.19871273  0.00859176  0.00482086  1
  Rh  Rh248  1  0.19776630  0.20083600  0.00509401  1
  Rh  Rh249  1  0.60838647  0.59666072  0.79504293  1
