# generated using pymatgen
data_ZrScNbPdRh
_symmetry_space_group_name_H-M   'P 1'
_cell_length_a   16.55671938
_cell_length_b   16.55341298
_cell_length_c   16.55691920
_cell_angle_alpha   89.98719763
_cell_angle_beta   89.98473848
_cell_angle_gamma   90.02127624
_symmetry_Int_Tables_number   1
_chemical_formula_structural   ZrScNbPdRh
_chemical_formula_sum   'Zr50 Sc50 Nb50 Pd50 Rh50'
_cell_volume   4537.75779252
_cell_formula_units_Z   50
loop_
 _symmetry_equiv_pos_site_id
 _symmetry_equiv_pos_as_xyz
  1  'x, y, z'
loop_
 _atom_site_type_symbol
 _atom_site_label
 _atom_site_symmetry_multiplicity
 _atom_site_fract_x
 _atom_site_fract_y
 _atom_site_fract_z
 _atom_site_occupancy
  Zr  Zr0  1  0.90162139  0.49655956  0.10266939  1
  Zr  Zr1  1  0.09067271  0.90240462  0.89398445  1
  Zr  Zr2  1  0.10358208  0.10292605  0.70277072  1
  Zr  Zr3  1  0.29213639  0.10035086  0.89824773  1
  Zr  Zr4  1  0.89559007  0.10586515  0.09109648  1
  Zr  Zr5  1  0.49912350  0.31502858  0.10179032  1
  Zr  Zr6  1  0.10979625  0.09746323  0.09249700  1
  Zr  Zr7  1  0.89262179  0.50904280  0.70020052  1
  Zr  Zr8  1  0.29437224  0.30455284  0.49591361  1
  Zr  Zr9  1  0.50360873  0.90199409  0.69922875  1
  Zr  Zr10  1  0.89773037  0.30253607  0.10698786  1
  Zr  Zr11  1  0.29745875  0.29965580  0.29671908  1
  Zr  Zr12  1  0.50670327  0.30138456  0.70025532  1
  Zr  Zr13  1  0.69863715  0.09506307  0.09941683  1
  Zr  Zr14  1  0.30024685  0.70030546  0.09837624  1
  Zr  Zr15  1  0.29756703  0.70293203  0.70359482  1
  Zr  Zr16  1  0.49890867  0.89876077  0.89143215  1
  Zr  Zr17  1  0.70353909  0.10317369  0.69593355  1
  Zr  Zr18  1  0.90798335  0.49672583  0.29168966  1
  Zr  Zr19  1  0.91299988  0.90202216  0.70673027  1
  Zr  Zr20  1  0.49979146  0.29326412  0.50059078  1
  Zr  Zr21  1  0.69580386  0.29792903  0.30164141  1
  Zr  Zr22  1  0.49829326  0.30176959  0.89979873  1
  Zr  Zr23  1  0.50359324  0.90803614  0.30542869  1
  Zr  Zr24  1  0.69802227  0.51286743  0.50673259  1
  Zr  Zr25  1  0.48656259  0.49141899  0.90190180  1
  Zr  Zr26  1  0.09520456  0.50348854  0.10184951  1
  Zr  Zr27  1  0.90121447  0.49104075  0.49945527  1
  Zr  Zr28  1  0.89867526  0.70111917  0.29914310  1
  Zr  Zr29  1  0.70501376  0.49012509  0.69807877  1
  Zr  Zr30  1  0.09590233  0.09870683  0.50536659  1
  Zr  Zr31  1  0.28721702  0.90348981  0.10077094  1
  Zr  Zr32  1  0.88896921  0.29815871  0.69518020  1
  Zr  Zr33  1  0.68889584  0.90144458  0.90628771  1
  Zr  Zr34  1  0.29871216  0.49909182  0.10140616  1
  Zr  Zr35  1  0.70156599  0.10085607  0.90168382  1
  Zr  Zr36  1  0.29326139  0.49401732  0.30585909  1
  Zr  Zr37  1  0.90372173  0.28271466  0.90111261  1
  Zr  Zr38  1  0.50119962  0.30066887  0.29594640  1
  Zr  Zr39  1  0.89592196  0.10152783  0.50431233  1
  Zr  Zr40  1  0.11103764  0.49546622  0.90392077  1
  Zr  Zr41  1  0.29666674  0.29341934  0.68787929  1
  Zr  Zr42  1  0.69815450  0.30198768  0.10596535  1
  Zr  Zr43  1  0.50281473  0.09843099  0.89368314  1
  Zr  Zr44  1  0.69272877  0.90132312  0.70079502  1
  Zr  Zr45  1  0.70524541  0.68443956  0.69599885  1
  Zr  Zr46  1  0.10027700  0.69734181  0.89951399  1
  Zr  Zr47  1  0.50108388  0.70668091  0.91371752  1
  Zr  Zr48  1  0.69587958  0.69873969  0.31330638  1
  Zr  Zr49  1  0.50569869  0.50159322  0.29497644  1
  Sc  Sc50  1  0.29496605  0.31284753  0.90076761  1
  Sc  Sc51  1  0.10199037  0.29596399  0.49692883  1
  Sc  Sc52  1  0.70119041  0.30153324  0.50024089  1
  Sc  Sc53  1  0.09939753  0.49253673  0.29539010  1
  Sc  Sc54  1  0.10773574  0.90008226  0.30693121  1
  Sc  Sc55  1  0.90212755  0.10296089  0.69340539  1
  Sc  Sc56  1  0.28769127  0.90394077  0.49400433  1
  Sc  Sc57  1  0.69546907  0.69559357  0.90125695  1
  Sc  Sc58  1  0.09685068  0.90340895  0.49489115  1
  Sc  Sc59  1  0.90078548  0.29262940  0.49564625  1
  Sc  Sc60  1  0.29056683  0.10633918  0.50190060  1
  Sc  Sc61  1  0.10087853  0.91112275  0.70161431  1
  Sc  Sc62  1  0.30203129  0.29744254  0.10740949  1
  Sc  Sc63  1  0.30170625  0.50958544  0.69966030  1
  Sc  Sc64  1  0.50271659  0.90005894  0.09154947  1
  Sc  Sc65  1  0.30534383  0.90169528  0.89046921  1
  Sc  Sc66  1  0.11118033  0.49447943  0.49789226  1
  Sc  Sc67  1  0.70402460  0.89736254  0.30419812  1
  Sc  Sc68  1  0.69259939  0.29564795  0.89467379  1
  Sc  Sc69  1  0.89589720  0.89785075  0.09699847  1
  Sc  Sc70  1  0.90616831  0.69000267  0.09899939  1
  Sc  Sc71  1  0.10120680  0.70079879  0.30463268  1
  Sc  Sc72  1  0.10639763  0.50729038  0.69926689  1
  Sc  Sc73  1  0.09889257  0.70297756  0.49605256  1
  Sc  Sc74  1  0.69316064  0.89975207  0.50274497  1
  Sc  Sc75  1  0.50477432  0.10468969  0.69124201  1
  Sc  Sc76  1  0.68911517  0.09970117  0.30136886  1
  Sc  Sc77  1  0.88950679  0.10096815  0.31313082  1
  Sc  Sc78  1  0.10786381  0.29213208  0.09642592  1
  Sc  Sc79  1  0.30134904  0.70516500  0.89885909  1
  Sc  Sc80  1  0.89994215  0.30776543  0.30471664  1
  Sc  Sc81  1  0.90310328  0.90755918  0.49779766  1
  Sc  Sc82  1  0.89754520  0.89708153  0.30826047  1
  Sc  Sc83  1  0.29153511  0.09859373  0.69499405  1
  Sc  Sc84  1  0.90797572  0.69569666  0.89667699  1
  Sc  Sc85  1  0.29037438  0.69926699  0.30424356  1
  Sc  Sc86  1  0.10409572  0.69876450  0.09238115  1
  Sc  Sc87  1  0.29872332  0.09956129  0.10314547  1
  Sc  Sc88  1  0.70399529  0.50177620  0.30296780  1
  Sc  Sc89  1  0.90685029  0.70329385  0.50215732  1
  Sc  Sc90  1  0.49697520  0.70047084  0.69970277  1
  Sc  Sc91  1  0.70253845  0.49846425  0.10077126  1
  Sc  Sc92  1  0.70583573  0.49752285  0.90079865  1
  Sc  Sc93  1  0.49687528  0.09800356  0.11208899  1
  Sc  Sc94  1  0.29215235  0.69207576  0.49773418  1
  Sc  Sc95  1  0.69578372  0.69387641  0.09900831  1
  Sc  Sc96  1  0.51907104  0.69893351  0.50110992  1
  Sc  Sc97  1  0.29411852  0.90675958  0.30072450  1
  Sc  Sc98  1  0.11173166  0.09935578  0.30756846  1
  Sc  Sc99  1  0.89861264  0.50263115  0.90200678  1
  Nb  Nb100  1  0.30211043  0.90051178  0.69763911  1
  Nb  Nb101  1  0.49491132  0.09865260  0.30491076  1
  Nb  Nb102  1  0.69786996  0.89992253  0.10232366  1
  Nb  Nb103  1  0.89876553  0.09661157  0.90203016  1
  Nb  Nb104  1  0.70464257  0.09991890  0.49591565  1
  Nb  Nb105  1  0.49796790  0.50999221  0.10411606  1
  Nb  Nb106  1  0.50130211  0.69869266  0.30064367  1
  Nb  Nb107  1  0.10095528  0.30024335  0.70031092  1
  Nb  Nb108  1  0.50035138  0.89864744  0.50317037  1
  Nb  Nb109  1  0.49954234  0.69226208  0.10867505  1
  Nb  Nb110  1  0.70301762  0.29789766  0.70078247  1
  Nb  Nb111  1  0.09577629  0.11150204  0.89894975  1
  Nb  Nb112  1  0.50182889  0.09575460  0.49511122  1
  Nb  Nb113  1  0.30207908  0.49758817  0.49908330  1
  Nb  Nb114  1  0.09606810  0.90406173  0.10247272  1
  Nb  Nb115  1  0.90491758  0.69929075  0.70104417  1
  Nb  Nb116  1  0.89811002  0.90139696  0.90016536  1
  Nb  Nb117  1  0.10173075  0.29303521  0.89406508  1
  Nb  Nb118  1  0.70053733  0.70272613  0.50555373  1
  Nb  Nb119  1  0.49959753  0.50025324  0.50210795  1
  Nb  Nb120  1  0.31083447  0.10158214  0.29663399  1
  Nb  Nb121  1  0.09886235  0.30214249  0.29939701  1
  Nb  Nb122  1  0.50063215  0.50096443  0.69838161  1
  Nb  Nb123  1  0.29860411  0.50104140  0.90226129  1
  Nb  Nb124  1  0.09081439  0.70516830  0.70087916  1
  Nb  Nb125  1  0.80320158  -0.00363944  0.80580511  1
  Nb  Nb126  1  0.20010997  0.80010115  0.60762466  1
  Nb  Nb127  1  -0.00132394  0.00330882  -0.00253553  1
  Nb  Nb128  1  0.40160277  -0.00370478  0.59364204  1
  Nb  Nb129  1  0.00228152  0.39671674  0.60814059  1
  Nb  Nb130  1  0.00335155  0.80759856  0.19693305  1
  Nb  Nb131  1  0.80334599  0.79672224  0.60866313  1
  Nb  Nb132  1  -0.00159210  0.59332751  0.39726633  1
  Nb  Nb133  1  0.00403502  0.39393437  0.79886155  1
  Nb  Nb134  1  0.39666494  0.80466855  0.59319624  1
  Nb  Nb135  1  0.40535138  0.79594057  0.20391379  1
  Nb  Nb136  1  -0.00183355  0.00172386  0.19571968  1
  Nb  Nb137  1  0.59191352  0.59003928  0.79900547  1
  Nb  Nb138  1  0.40555255  0.59724845  0.40278276  1
  Nb  Nb139  1  0.80363797  0.80127300  0.80046674  1
  Nb  Nb140  1  0.40205194  0.20215016  -0.00477220  1
  Nb  Nb141  1  0.39894987  0.20320572  0.80023507  1
  Nb  Nb142  1  0.79788045  0.80427776  -0.00464036  1
  Nb  Nb143  1  0.40267685  0.19457466  0.39648957  1
  Nb  Nb144  1  0.59442063  0.79569520  0.20132351  1
  Nb  Nb145  1  0.00152851  0.19379187  0.20215107  1
  Nb  Nb146  1  0.00406672  0.39167203  -0.00679620  1
  Nb  Nb147  1  0.80083812  -0.00100974  0.19600855  1
  Nb  Nb148  1  0.40255087  0.40787507  0.59606200  1
  Nb  Nb149  1  0.40589735  0.79739575  0.40110825  1
  Pd  Pd150  1  0.39890590  -0.01044599  0.19516897  1
  Pd  Pd151  1  0.39067032  0.60228380  0.21188617  1
  Pd  Pd152  1  0.00360807  0.59035023  0.80328508  1
  Pd  Pd153  1  0.19993008  0.80633748  -0.00802550  1
  Pd  Pd154  1  0.00562209  0.59188315  0.59140833  1
  Pd  Pd155  1  0.19342453  0.60607623  0.59770764  1
  Pd  Pd156  1  0.59753061  0.59026636  -0.00523280  1
  Pd  Pd157  1  0.80247187  0.60822308  -0.00227711  1
  Pd  Pd158  1  0.19589721  0.19549923  0.20494727  1
  Pd  Pd159  1  0.39841985  0.01105209  0.78636654  1
  Pd  Pd160  1  0.00046924  0.19926461  0.39318668  1
  Pd  Pd161  1  0.20276593  0.40157773  0.78987704  1
  Pd  Pd162  1  0.60800925  0.19726323  0.59356523  1
  Pd  Pd163  1  0.19908983  0.39455061  0.00788688  1
  Pd  Pd164  1  0.60353163  0.40483876  0.40432919  1
  Pd  Pd165  1  0.79876200  0.80125501  0.19160209  1
  Pd  Pd166  1  0.20080479  0.60190887  0.80211587  1
  Pd  Pd167  1  0.80706635  0.39425516  0.80932417  1
  Pd  Pd168  1  0.40470880  0.60597379  0.59089814  1
  Pd  Pd169  1  0.79600026  0.39968234  0.40143824  1
  Pd  Pd170  1  0.80125019  0.80212185  0.41609241  1
  Pd  Pd171  1  0.38866439  0.39569236  0.78630394  1
  Pd  Pd172  1  0.40037946  0.00450147  0.00330526  1
  Pd  Pd173  1  0.59945703  0.39929256  0.59620851  1
  Pd  Pd174  1  0.80135131  -0.00951421  0.60463332  1
  Pd  Pd175  1  0.40543636  0.39906542  0.40215372  1
  Pd  Pd176  1  0.59023676  0.00434640  0.00311123  1
  Pd  Pd177  1  0.19530534  -0.00593040  -0.01211485  1
  Pd  Pd178  1  0.00010909  0.00376297  0.39213445  1
  Pd  Pd179  1  0.00426061  0.80765135  0.59822436  1
  Pd  Pd180  1  0.60179368  0.40900848  0.00170381  1
  Pd  Pd181  1  0.39080437  0.00091304  0.40849862  1
  Pd  Pd182  1  0.40438112  0.60616530  0.80721907  1
  Pd  Pd183  1  -0.00487593  0.19857357  0.78944704  1
  Pd  Pd184  1  0.39687573  0.80631354  0.00800187  1
  Pd  Pd185  1  0.79381280  0.60099553  0.19912197  1
  Pd  Pd186  1  0.60733308  -0.00019866  0.40388737  1
  Pd  Pd187  1  0.78980358  0.20894244  -0.00125891  1
  Pd  Pd188  1  0.80481636  0.39110266  -0.00710794  1
  Pd  Pd189  1  0.39467037  0.59984476  -0.00279717  1
  Pd  Pd190  1  0.60364019  0.40540312  0.80278582  1
  Pd  Pd191  1  0.60374739  0.78472392  0.79456081  1
  Pd  Pd192  1  -0.00541060  0.80231973  0.00469254  1
  Pd  Pd193  1  0.80338604  0.19412978  0.21028012  1
  Pd  Pd194  1  0.19534092  0.60252681  0.20306058  1
  Pd  Pd195  1  0.19368770  0.80581917  0.79618737  1
  Pd  Pd196  1  0.59162602  0.19775584  0.00888914  1
  Pd  Pd197  1  0.80960744  0.60082122  0.40611752  1
  Pd  Pd198  1  0.59400613  0.19741938  0.19783884  1
  Pd  Pd199  1  0.19702926  0.79936699  0.20313471  1
  Rh  Rh200  1  0.20731867  0.20365491  0.80186966  1
  Rh  Rh201  1  0.59534664  0.59885173  0.60752226  1
  Rh  Rh202  1  0.79289154  0.40074147  0.20715057  1
  Rh  Rh203  1  0.60533387  -0.00777706  0.20224328  1
  Rh  Rh204  1  0.20224803  0.40257815  0.60336350  1
  Rh  Rh205  1  0.80292765  -0.00799167  0.00115079  1
  Rh  Rh206  1  0.20799885  0.60347370  -0.00341346  1
  Rh  Rh207  1  0.21192588  0.20600651  -0.00668635  1
  Rh  Rh208  1  0.00099458  0.00111798  0.59856463  1
  Rh  Rh209  1  0.00599645  0.19974043  0.00666609  1
  Rh  Rh210  1  0.79425056  0.20337770  0.59317696  1
  Rh  Rh211  1  -0.00082566  0.79458263  0.39111173  1
  Rh  Rh212  1  0.20454356  0.79789872  0.40797185  1
  Rh  Rh213  1  0.79225307  0.20131344  0.39931050  1
  Rh  Rh214  1  -0.00082632  0.79475783  0.80152400  1
  Rh  Rh215  1  0.60367286  0.79546046  0.01203383  1
  Rh  Rh216  1  0.60680603  0.00992677  0.79659162  1
  Rh  Rh217  1  0.80962027  0.60763434  0.59085604  1
  Rh  Rh218  1  0.19287172  0.39681227  0.39768714  1
  Rh  Rh219  1  0.79820731  0.19253394  0.79937653  1
  Rh  Rh220  1  0.40482858  0.20225471  0.19971794  1
  Rh  Rh221  1  0.60338466  0.79608475  0.60454651  1
  Rh  Rh222  1  0.00282065  0.20663645  0.60177363  1
  Rh  Rh223  1  0.01039459  0.38549649  0.18991136  1
  Rh  Rh224  1  0.59737948  0.19511293  0.40318400  1
  Rh  Rh225  1  0.39414389  0.40084666  0.00903832  1
  Rh  Rh226  1  0.00562674  0.61261417  0.20804509  1
  Rh  Rh227  1  -0.00219013  0.01319233  0.80552969  1
  Rh  Rh228  1  0.19694806  0.59408020  0.39954296  1
  Rh  Rh229  1  0.19718461  0.00366779  0.20576151  1
  Rh  Rh230  1  0.19812300  0.00022873  0.80227442  1
  Rh  Rh231  1  0.00656776  0.40226639  0.40833516  1
  Rh  Rh232  1  0.20084358  -0.00648206  0.59914671  1
  Rh  Rh233  1  0.00254386  0.59021980  -0.00501315  1
  Rh  Rh234  1  0.39981790  0.19683830  0.59542466  1
  Rh  Rh235  1  0.19011900  0.20011968  0.59644740  1
  Rh  Rh236  1  0.79261985  0.00053112  0.39776454  1
  Rh  Rh237  1  0.19639279  0.39770677  0.19644778  1
  Rh  Rh238  1  0.80242289  0.39530555  0.59415537  1
  Rh  Rh239  1  0.60852333  0.60192315  0.20242591  1
  Rh  Rh240  1  0.59692854  0.00708626  0.59386336  1
  Rh  Rh241  1  0.59816860  0.80261417  0.39756282  1
  Rh  Rh242  1  0.40460726  0.79831435  0.79473889  1
  Rh  Rh243  1  0.60477349  0.40994359  0.19737903  1
  Rh  Rh244  1  0.20410674  0.00836818  0.40052126  1
  Rh  Rh245  1  0.59847080  0.19788891  0.79402033  1
  Rh  Rh246  1  0.59755126  0.59563673  0.40182266  1
  Rh  Rh247  1  0.79494902  0.60554281  0.80736277  1
  Rh  Rh248  1  0.20703915  0.20026356  0.39497494  1
  Rh  Rh249  1  0.39870213  0.40730547  0.19892537  1
