# generated using pymatgen
data_ZrScNbPdRh
_symmetry_space_group_name_H-M   'P 1'
_cell_length_a   16.56379024
_cell_length_b   16.56498121
_cell_length_c   16.56318661
_cell_angle_alpha   89.99693605
_cell_angle_beta   89.98837268
_cell_angle_gamma   90.01022427
_symmetry_Int_Tables_number   1
_chemical_formula_structural   ZrScNbPdRh
_chemical_formula_sum   'Zr50 Sc50 Nb50 Pd50 Rh50'
_cell_volume   4544.58832196
_cell_formula_units_Z   50
loop_
 _symmetry_equiv_pos_site_id
 _symmetry_equiv_pos_as_xyz
  1  'x, y, z'
loop_
 _atom_site_type_symbol
 _atom_site_label
 _atom_site_symmetry_multiplicity
 _atom_site_fract_x
 _atom_site_fract_y
 _atom_site_fract_z
 _atom_site_occupancy
  Zr  Zr0  1  0.70346418  0.69731557  0.89621212  1
  Zr  Zr1  1  0.90339952  0.49863466  0.69582930  1
  Zr  Zr2  1  0.69240937  0.89727724  0.90351285  1
  Zr  Zr3  1  0.70500692  0.70140800  0.50306212  1
  Zr  Zr4  1  0.30979183  0.29662879  0.70734842  1
  Zr  Zr5  1  0.09717872  0.31103426  0.10055231  1
  Zr  Zr6  1  0.90260550  0.30601023  0.10525115  1
  Zr  Zr7  1  0.09996072  0.90057162  0.50315625  1
  Zr  Zr8  1  0.10248735  0.29804869  0.90354071  1
  Zr  Zr9  1  0.70495375  0.49947552  0.50493152  1
  Zr  Zr10  1  0.50016324  0.89388631  0.49922256  1
  Zr  Zr11  1  0.89779504  0.09586627  0.10163723  1
  Zr  Zr12  1  0.70253415  0.28858052  0.29690969  1
  Zr  Zr13  1  0.90318531  0.09968394  0.90597306  1
  Zr  Zr14  1  0.29925763  0.10452003  0.09245747  1
  Zr  Zr15  1  0.89968775  0.89056725  0.49807786  1
  Zr  Zr16  1  0.10359439  0.71215588  0.90638176  1
  Zr  Zr17  1  0.90981594  0.70746624  0.09592295  1
  Zr  Zr18  1  0.30772222  0.30059844  0.49235395  1
  Zr  Zr19  1  0.90211808  0.70235188  0.70013987  1
  Zr  Zr20  1  0.49138076  0.89930121  0.30473762  1
  Zr  Zr21  1  0.50194630  0.89953656  0.89981453  1
  Zr  Zr22  1  0.29174421  0.50131233  0.50093027  1
  Zr  Zr23  1  0.49704110  0.50089191  0.09765335  1
  Zr  Zr24  1  0.50069928  0.69609314  0.10401481  1
  Zr  Zr25  1  0.90420124  0.90064517  0.89995109  1
  Zr  Zr26  1  0.09374517  0.30438387  0.29286592  1
  Zr  Zr27  1  0.70195425  0.50332525  0.29807628  1
  Zr  Zr28  1  0.90472893  0.70484666  0.30697202  1
  Zr  Zr29  1  0.10239487  0.30406801  0.49595240  1
  Zr  Zr30  1  0.09504868  0.10303857  0.09631978  1
  Zr  Zr31  1  0.49452877  0.50750130  0.29824127  1
  Zr  Zr32  1  0.69916301  0.29841752  0.89656332  1
  Zr  Zr33  1  0.70866604  0.89634248  0.70029020  1
  Zr  Zr34  1  0.10026553  0.88931738  0.69521961  1
  Zr  Zr35  1  0.29055278  0.49967839  0.10430576  1
  Zr  Zr36  1  0.90050605  0.89772067  0.70227695  1
  Zr  Zr37  1  0.10671687  0.50360951  0.68109058  1
  Zr  Zr38  1  0.89916536  0.09775453  0.70607583  1
  Zr  Zr39  1  0.30176145  0.29964580  0.90151488  1
  Zr  Zr40  1  0.49861619  0.49730823  0.89457853  1
  Zr  Zr41  1  0.71129414  0.09422549  0.29464792  1
  Zr  Zr42  1  0.10064176  0.10213779  0.50850085  1
  Zr  Zr43  1  0.28870010  0.69423207  0.09965119  1
  Zr  Zr44  1  0.09425591  0.89684816  0.29679141  1
  Zr  Zr45  1  0.70232775  0.49916175  0.10423587  1
  Zr  Zr46  1  0.30858246  0.49754625  0.90309578  1
  Zr  Zr47  1  0.29300655  0.09923593  0.50344889  1
  Zr  Zr48  1  0.49755628  0.29415144  0.31039588  1
  Zr  Zr49  1  0.29586873  0.51170779  0.30222471  1
  Sc  Sc50  1  0.09723945  0.29290902  0.69779552  1
  Sc  Sc51  1  0.10618580  0.70493536  0.29942857  1
  Sc  Sc52  1  0.29594425  0.69823730  0.49390369  1
  Sc  Sc53  1  0.09900907  0.50408583  0.49131206  1
  Sc  Sc54  1  0.90731521  0.30347156  0.50424044  1
  Sc  Sc55  1  0.50450394  0.69828302  0.89623240  1
  Sc  Sc56  1  0.70422132  0.10143095  0.90817906  1
  Sc  Sc57  1  0.09506145  0.49363139  0.91203277  1
  Sc  Sc58  1  0.50318725  0.90782720  0.09211512  1
  Sc  Sc59  1  0.50257013  0.10862422  0.50190667  1
  Sc  Sc60  1  0.29832115  0.10679244  0.70371924  1
  Sc  Sc61  1  0.90276819  0.29738004  0.89882012  1
  Sc  Sc62  1  0.90153053  0.91031236  0.30139418  1
  Sc  Sc63  1  0.71098188  0.89386297  0.50115631  1
  Sc  Sc64  1  0.49422336  0.69659966  0.30645781  1
  Sc  Sc65  1  0.89852238  0.50499964  0.30021893  1
  Sc  Sc66  1  0.08907918  0.11147806  0.29909778  1
  Sc  Sc67  1  0.69719506  0.49628150  0.70477878  1
  Sc  Sc68  1  0.90253302  0.70191212  0.89344455  1
  Sc  Sc69  1  0.49346710  0.89073160  0.71170437  1
  Sc  Sc70  1  0.31063949  0.50276362  0.69535484  1
  Sc  Sc71  1  0.30020516  0.90937158  0.09436756  1
  Sc  Sc72  1  0.09486768  0.89856695  0.09642457  1
  Sc  Sc73  1  0.90848560  0.90899956  0.10282992  1
  Sc  Sc74  1  0.68990908  0.29272780  0.51005975  1
  Sc  Sc75  1  0.69141314  0.69514475  0.10181403  1
  Sc  Sc76  1  0.50174718  0.69182395  0.69879122  1
  Sc  Sc77  1  0.91090797  0.50142683  0.49638557  1
  Sc  Sc78  1  0.90194039  0.30393853  0.70696631  1
  Sc  Sc79  1  0.50052678  0.09633355  0.29895147  1
  Sc  Sc80  1  0.70656386  0.69643449  0.30598535  1
  Sc  Sc81  1  0.50266912  0.10064818  0.09055883  1
  Sc  Sc82  1  0.89850537  0.09016537  0.49640663  1
  Sc  Sc83  1  0.30062762  0.89116320  0.49769369  1
  Sc  Sc84  1  0.29811937  0.89307938  0.89131423  1
  Sc  Sc85  1  0.49548231  0.10329291  0.70513142  1
  Sc  Sc86  1  0.29628241  0.71161740  0.70006946  1
  Sc  Sc87  1  0.09919562  0.10483014  0.90059582  1
  Sc  Sc88  1  0.30016339  0.11072947  0.89642710  1
  Sc  Sc89  1  0.70232390  0.09567068  0.70502866  1
  Sc  Sc90  1  0.49957870  0.70091552  0.50401583  1
  Sc  Sc91  1  0.69552312  0.91482958  0.09573412  1
  Sc  Sc92  1  0.28982242  0.30240149  0.09231235  1
  Sc  Sc93  1  0.69720589  0.49732584  0.89445993  1
  Sc  Sc94  1  0.69893989  0.29333297  0.09431102  1
  Sc  Sc95  1  0.90085976  0.49521021  0.89568345  1
  Sc  Sc96  1  0.70116696  0.69414472  0.70470973  1
  Sc  Sc97  1  0.70580130  0.09419207  0.50275226  1
  Sc  Sc98  1  0.49510751  0.30528081  0.90726580  1
  Sc  Sc99  1  0.49011307  0.50420965  0.51200652  1
  Nb  Nb100  1  0.69675517  0.29632827  0.70043960  1
  Nb  Nb101  1  0.10710104  0.09336456  0.69407167  1
  Nb  Nb102  1  0.10169087  0.69914273  0.69616450  1
  Nb  Nb103  1  0.30170655  0.70582677  0.29566491  1
  Nb  Nb104  1  0.50292766  0.29817952  0.50447104  1
  Nb  Nb105  1  0.09569900  0.49692774  0.10761275  1
  Nb  Nb106  1  0.90381040  0.50087822  0.09816485  1
  Nb  Nb107  1  0.90207092  0.69484653  0.49408755  1
  Nb  Nb108  1  0.89765454  0.28861353  0.29936870  1
  Nb  Nb109  1  0.29928102  0.90128554  0.30129712  1
  Nb  Nb110  1  0.09850593  0.90051787  0.89423951  1
  Nb  Nb111  1  0.09709532  0.69898647  0.10033441  1
  Nb  Nb112  1  0.29662624  0.69997879  0.90084979  1
  Nb  Nb113  1  0.89401550  0.10676509  0.29556536  1
  Nb  Nb114  1  0.29867931  0.29700776  0.30023750  1
  Nb  Nb115  1  0.69995903  0.09964473  0.09856714  1
  Nb  Nb116  1  0.29616170  0.90053251  0.69682625  1
  Nb  Nb117  1  0.70011468  0.89921236  0.29949821  1
  Nb  Nb118  1  0.49565230  0.29852203  0.10275284  1
  Nb  Nb119  1  0.29986579  0.09832359  0.29797655  1
  Nb  Nb120  1  0.49903540  0.10446520  0.89839609  1
  Nb  Nb121  1  0.50446803  0.49721244  0.70638410  1
  Nb  Nb122  1  0.08984449  0.69899399  0.50841706  1
  Nb  Nb123  1  0.09983064  0.49980222  0.29014803  1
  Nb  Nb124  1  0.50915916  0.29972875  0.69260763  1
  Nb  Nb125  1  0.80015341  0.20087337  0.60836482  1
  Nb  Nb126  1  0.39709301  0.80206475  0.19825422  1
  Nb  Nb127  1  0.80509699  0.60044061  0.00299035  1
  Nb  Nb128  1  0.39499739  0.20347043  0.20159905  1
  Nb  Nb129  1  0.79540423  0.80609856  0.19740658  1
  Nb  Nb130  1  0.59958402  0.20505372  0.80019728  1
  Nb  Nb131  1  0.79580746  0.39272477  0.39728470  1
  Nb  Nb132  1  0.79786422  0.79886343  0.00421460  1
  Nb  Nb133  1  0.20183729  0.00423925  0.20715874  1
  Nb  Nb134  1  0.60175556  0.59342817  0.40629146  1
  Nb  Nb135  1  0.59465322  -0.00649839  0.60023416  1
  Nb  Nb136  1  0.59840400  0.39991925  0.40149978  1
  Nb  Nb137  1  0.59361375  0.39490095  0.20381655  1
  Nb  Nb138  1  0.20217547  0.40551574  0.79868464  1
  Nb  Nb139  1  0.39773909  0.79406752  0.00083695  1
  Nb  Nb140  1  0.00518351  0.60001001  0.19276304  1
  Nb  Nb141  1  0.39919212  -0.00439853  0.60316277  1
  Nb  Nb142  1  0.20164192  0.00089806  0.39285872  1
  Nb  Nb143  1  0.80619557  0.60064671  0.59924601  1
  Nb  Nb144  1  0.01279382  0.60158897  0.79502670  1
  Nb  Nb145  1  0.39800231  0.39263691  0.20355701  1
  Nb  Nb146  1  0.59980392  0.80558244  0.20542888  1
  Nb  Nb147  1  0.19771911  0.60077256  0.80207299  1
  Nb  Nb148  1  0.19525428  -0.00313689  0.79292040  1
  Nb  Nb149  1  0.60314226  -0.00762796  0.40103521  1
  Pd  Pd150  1  0.20632269  0.38986580  0.60497127  1
  Pd  Pd151  1  0.80256667  0.20479588  0.41613838  1
  Pd  Pd152  1  0.19641956  0.19680031  0.39579414  1
  Pd  Pd153  1  0.59391708  0.19724322  0.19549920  1
  Pd  Pd154  1  0.19831863  0.40121863  0.39152104  1
  Pd  Pd155  1  0.20442199  0.21093266  0.60269617  1
  Pd  Pd156  1  -0.00742158  0.40154052  0.39099605  1
  Pd  Pd157  1  0.19609225  0.80098173  0.40415111  1
  Pd  Pd158  1  0.79941017  0.40025219  0.79998651  1
  Pd  Pd159  1  0.60120102  0.80245789  0.60899130  1
  Pd  Pd160  1  0.01278283  0.40718143  0.79490196  1
  Pd  Pd161  1  -0.00615465  0.19788909  0.40653161  1
  Pd  Pd162  1  0.60370855  0.79452776  0.39571390  1
  Pd  Pd163  1  0.60043540  0.79288827  0.79369603  1
  Pd  Pd164  1  0.39966180  0.00563889  0.41095272  1
  Pd  Pd165  1  0.40305582  0.40726543  0.40018091  1
  Pd  Pd166  1  0.40081128  0.60644531  -0.00105420  1
  Pd  Pd167  1  0.59658893  0.40684618  0.59743274  1
  Pd  Pd168  1  0.20377711  0.81078464  0.00576633  1
  Pd  Pd169  1  0.79591063  0.00033024  0.81031980  1
  Pd  Pd170  1  -0.00589122  -0.00300105  0.60198302  1
  Pd  Pd171  1  0.60674499  0.59610661  -0.00735087  1
  Pd  Pd172  1  0.20192007  0.19907423  0.19771449  1
  Pd  Pd173  1  0.00961572  0.00334282  0.79863739  1
  Pd  Pd174  1  0.39383932  0.60827909  0.79476817  1
  Pd  Pd175  1  0.00542977  0.19554604  0.79781066  1
  Pd  Pd176  1  -0.00877859  0.19808766  0.60203384  1
  Pd  Pd177  1  0.80962570  0.61277770  0.19200712  1
  Pd  Pd178  1  0.60781615  0.19114132  0.40391295  1
  Pd  Pd179  1  0.00446406  0.00666298  0.39667912  1
  Pd  Pd180  1  0.79903322  0.39598356  0.20527055  1
  Pd  Pd181  1  0.80285278  0.39547309  0.59608312  1
  Pd  Pd182  1  0.59686169  -0.00124733  0.20405933  1
  Pd  Pd183  1  0.19207251  0.60692204  0.39844110  1
  Pd  Pd184  1  0.39686845  0.00240888  0.19399247  1
  Pd  Pd185  1  0.19234032  0.59280460  -0.00469305  1
  Pd  Pd186  1  0.59934492  0.00776285  0.79784069  1
  Pd  Pd187  1  0.80276134  0.40508802  -0.00406036  1
  Pd  Pd188  1  0.38918666  0.00148834  0.79877772  1
  Pd  Pd189  1  0.39816341  0.79905309  0.60173713  1
  Pd  Pd190  1  0.19586546  -0.00124882  -0.00979087  1
  Pd  Pd191  1  0.20421826  0.81005851  0.19129518  1
  Pd  Pd192  1  0.40035220  0.19442398  0.60040130  1
  Pd  Pd193  1  0.39942523  0.19001511  0.39921653  1
  Pd  Pd194  1  0.60070731  0.39809110  0.00624585  1
  Pd  Pd195  1  0.80474943  0.20213858  0.00340622  1
  Pd  Pd196  1  0.39689285  -0.00220371  -0.01347367  1
  Pd  Pd197  1  0.39295440  0.60918798  0.60142977  1
  Pd  Pd198  1  -0.00239489  0.59852343  -0.00461996  1
  Pd  Pd199  1  0.40251610  0.39711319  0.60184255  1
  Rh  Rh200  1  0.79845743  0.00300918  0.60178744  1
  Rh  Rh201  1  0.39645171  0.39924151  0.01105453  1
  Rh  Rh202  1  0.79452226  0.20159428  0.79656309  1
  Rh  Rh203  1  0.19811404  0.80062482  0.79854587  1
  Rh  Rh204  1  0.39873861  0.79277478  0.80754652  1
  Rh  Rh205  1  0.00697128  0.39677132  0.59737139  1
  Rh  Rh206  1  0.00533869  0.00792623  0.20500297  1
  Rh  Rh207  1  0.60739051  0.59658469  0.59953499  1
  Rh  Rh208  1  0.00596694  -0.00042993  -0.00396478  1
  Rh  Rh209  1  0.00978603  0.60185431  0.38896322  1
  Rh  Rh210  1  0.81089790  0.59348006  0.79731226  1
  Rh  Rh211  1  -0.00391372  0.79652123  0.20248882  1
  Rh  Rh212  1  0.40135165  0.60316282  0.40765154  1
  Rh  Rh213  1  0.60551649  0.18751047  0.61042217  1
  Rh  Rh214  1  -0.00555500  0.60197039  0.60115203  1
  Rh  Rh215  1  0.20730674  0.39790781  0.20771702  1
  Rh  Rh216  1  0.80132966  0.19784607  0.18822099  1
  Rh  Rh217  1  -0.00593073  0.19944019  0.19451191  1
  Rh  Rh218  1  0.19129137  0.60391823  0.20283164  1
  Rh  Rh219  1  -0.00577725  0.39693473  0.00007079  1
  Rh  Rh220  1  0.80154584  -0.00391983  0.19622543  1
  Rh  Rh221  1  0.80652114  0.79036226  0.60115423  1
  Rh  Rh222  1  0.19267398  0.19902907  0.79779645  1
  Rh  Rh223  1  0.79814541  0.80369284  0.80856327  1
  Rh  Rh224  1  0.60011655  0.01037567  -0.00748124  1
  Rh  Rh225  1  -0.01036714  0.40736481  0.20867464  1
  Rh  Rh226  1  0.59624223  0.19800843  -0.00657453  1
  Rh  Rh227  1  0.41348502  0.20797468  0.80336032  1
  Rh  Rh228  1  0.59854989  0.79989830  0.00981673  1
  Rh  Rh229  1  0.20028217  0.40512870  -0.00598690  1
  Rh  Rh230  1  -0.00507730  0.79797873  0.59724635  1
  Rh  Rh231  1  0.20624199  0.60886470  0.60057048  1
  Rh  Rh232  1  0.79987177  -0.00548835  -0.00013656  1
  Rh  Rh233  1  0.40271379  0.20253795  0.00431618  1
  Rh  Rh234  1  0.20012587  0.79517181  0.59198987  1
  Rh  Rh235  1  0.00431683  0.79451938  0.80006759  1
  Rh  Rh236  1  0.20737144  -0.00459414  0.60011563  1
  Rh  Rh237  1  0.39138166  0.60326699  0.19843097  1
  Rh  Rh238  1  0.59912915  0.59577287  0.79966223  1
  Rh  Rh239  1  -0.00304527  0.20595681  0.00353122  1
  Rh  Rh240  1  -0.00120288  0.80774696  -0.00271266  1
  Rh  Rh241  1  0.39526377  0.79230615  0.39520780  1
  Rh  Rh242  1  0.60012935  0.60561138  0.21266839  1
  Rh  Rh243  1  0.79830560  -0.00434225  0.39707117  1
  Rh  Rh244  1  0.40522490  0.39661599  0.79371398  1
  Rh  Rh245  1  0.80394082  0.80494190  0.39189961  1
  Rh  Rh246  1  0.59311072  0.39279210  0.79920435  1
  Rh  Rh247  1  0.19572843  0.20052455  -0.00039827  1
  Rh  Rh248  1  0.00426946  0.79762971  0.40320549  1
  Rh  Rh249  1  0.79980189  0.59224320  0.41092369  1
