# generated using pymatgen
data_ZrScNbPdRh
_symmetry_space_group_name_H-M   'P 1'
_cell_length_a   16.55439090
_cell_length_b   16.55778792
_cell_length_c   16.55395131
_cell_angle_alpha   89.97756943
_cell_angle_beta   90.01558918
_cell_angle_gamma   89.98652241
_symmetry_Int_Tables_number   1
_chemical_formula_structural   ZrScNbPdRh
_chemical_formula_sum   'Zr50 Sc50 Nb50 Pd50 Rh50'
_cell_volume   4537.50518102
_cell_formula_units_Z   50
loop_
 _symmetry_equiv_pos_site_id
 _symmetry_equiv_pos_as_xyz
  1  'x, y, z'
loop_
 _atom_site_type_symbol
 _atom_site_label
 _atom_site_symmetry_multiplicity
 _atom_site_fract_x
 _atom_site_fract_y
 _atom_site_fract_z
 _atom_site_occupancy
  Zr  Zr0  1  0.30262795  0.89961972  0.49267426  1
  Zr  Zr1  1  0.29943889  0.50172478  0.30730305  1
  Zr  Zr2  1  0.69660123  0.90797261  0.90691926  1
  Zr  Zr3  1  0.10049863  0.69712077  0.30561494  1
  Zr  Zr4  1  0.89703224  0.49950476  0.90729610  1
  Zr  Zr5  1  0.10397165  0.10451872  0.70629319  1
  Zr  Zr6  1  0.89758836  0.69466609  0.89742693  1
  Zr  Zr7  1  0.29556195  0.69986270  0.70128643  1
  Zr  Zr8  1  0.10097844  0.70241526  0.09797503  1
  Zr  Zr9  1  0.29721120  0.29914792  0.28675668  1
  Zr  Zr10  1  0.70283204  0.90373201  0.49648215  1
  Zr  Zr11  1  0.09734163  0.10913755  0.09915456  1
  Zr  Zr12  1  0.50777676  0.29827462  0.49650838  1
  Zr  Zr13  1  0.89180934  0.90520580  0.10009192  1
  Zr  Zr14  1  0.09219230  0.89676448  0.69439678  1
  Zr  Zr15  1  0.89986641  0.10632681  0.09619258  1
  Zr  Zr16  1  0.09639140  0.29831378  0.29835330  1
  Zr  Zr17  1  0.10317862  0.69682356  0.90022273  1
  Zr  Zr18  1  0.50324359  0.50250951  0.90997493  1
  Zr  Zr19  1  0.70468639  0.09705130  0.10493940  1
  Zr  Zr20  1  0.09811358  0.70124779  0.49779438  1
  Zr  Zr21  1  0.89878771  0.89689636  0.30059386  1
  Zr  Zr22  1  0.09709156  0.09609586  0.29663921  1
  Zr  Zr23  1  0.10126801  0.48237043  0.70509004  1
  Zr  Zr24  1  0.10282253  0.09419868  0.50121678  1
  Zr  Zr25  1  0.29117386  0.30093838  0.70265919  1
  Zr  Zr26  1  0.29856499  0.71039866  0.10545678  1
  Zr  Zr27  1  0.69857843  0.30424758  0.30288259  1
  Zr  Zr28  1  0.89827367  0.69862671  0.10499683  1
  Zr  Zr29  1  0.89787555  0.09927641  0.29320070  1
  Zr  Zr30  1  0.89995628  0.49580145  0.09955256  1
  Zr  Zr31  1  0.89324748  0.10301855  0.89981461  1
  Zr  Zr32  1  0.90112643  0.30272202  0.29819184  1
  Zr  Zr33  1  0.90109125  0.69674751  0.30197545  1
  Zr  Zr34  1  0.09985024  0.30204091  0.50568235  1
  Zr  Zr35  1  0.69840267  0.51275445  0.89957426  1
  Zr  Zr36  1  0.30853910  0.09295964  0.29830572  1
  Zr  Zr37  1  0.30193481  0.89920154  0.29409560  1
  Zr  Zr38  1  0.89564553  0.30135005  0.09947841  1
  Zr  Zr39  1  0.49675505  0.10302128  0.49753259  1
  Zr  Zr40  1  0.70736502  0.29657241  0.69777830  1
  Zr  Zr41  1  0.50827840  0.69389279  0.90489698  1
  Zr  Zr42  1  0.49819177  0.90312815  0.89927389  1
  Zr  Zr43  1  0.29929724  0.48587257  0.10434712  1
  Zr  Zr44  1  0.30359479  0.89737524  0.10020950  1
  Zr  Zr45  1  0.89816860  0.90781414  0.89296695  1
  Zr  Zr46  1  0.09631878  0.70571098  0.69821033  1
  Zr  Zr47  1  0.09982847  0.49835074  0.90860541  1
  Zr  Zr48  1  0.68775257  0.90142975  0.10274797  1
  Zr  Zr49  1  0.50235891  0.10602557  0.89739308  1
  Sc  Sc50  1  0.09830681  0.88962735  0.49840504  1
  Sc  Sc51  1  0.10631822  0.89532916  0.10393712  1
  Sc  Sc52  1  0.70598861  0.69724287  0.29813725  1
  Sc  Sc53  1  0.29570430  0.10173219  0.70937085  1
  Sc  Sc54  1  0.09658073  0.10495009  0.89883038  1
  Sc  Sc55  1  0.50167578  0.10247675  0.30200508  1
  Sc  Sc56  1  0.30598006  0.89784231  0.70710616  1
  Sc  Sc57  1  0.70908488  0.49707142  0.49429901  1
  Sc  Sc58  1  0.50193237  0.10876230  0.10482918  1
  Sc  Sc59  1  0.70586889  0.70949047  0.50112741  1
  Sc  Sc60  1  0.69096955  0.90320272  0.68990087  1
  Sc  Sc61  1  0.49854222  0.70176353  0.10495155  1
  Sc  Sc62  1  0.89644089  0.70286036  0.69434175  1
  Sc  Sc63  1  0.70269097  0.10477484  0.70363974  1
  Sc  Sc64  1  0.70136848  0.10403385  0.49857385  1
  Sc  Sc65  1  0.89877508  0.49447300  0.49708977  1
  Sc  Sc66  1  0.30138138  0.49681943  0.70398024  1
  Sc  Sc67  1  0.50336841  0.90234450  0.29603950  1
  Sc  Sc68  1  0.70527998  0.51117685  0.70352749  1
  Sc  Sc69  1  0.31316507  0.30095451  0.50956662  1
  Sc  Sc70  1  0.09632542  0.89678347  0.29780305  1
  Sc  Sc71  1  0.49667409  0.50332677  0.70438686  1
  Sc  Sc72  1  0.28770891  0.09892193  0.90160753  1
  Sc  Sc73  1  0.49000575  0.48768618  0.49152592  1
  Sc  Sc74  1  0.10052704  0.90662675  0.90015093  1
  Sc  Sc75  1  0.49640309  0.29593390  0.69087997  1
  Sc  Sc76  1  0.70044882  0.10003441  0.30377601  1
  Sc  Sc77  1  0.89477843  0.49717069  0.30267750  1
  Sc  Sc78  1  0.69340077  0.70257092  0.10777450  1
  Sc  Sc79  1  0.90200642  0.89198408  0.49794271  1
  Sc  Sc80  1  0.70162409  0.49556540  0.10471415  1
  Sc  Sc81  1  0.49773502  0.49383173  0.29438644  1
  Sc  Sc82  1  0.51259834  0.89448893  0.50344478  1
  Sc  Sc83  1  0.50998208  0.10001739  0.70045225  1
  Sc  Sc84  1  0.09897716  0.49542858  0.49002174  1
  Sc  Sc85  1  0.30383501  0.70023852  0.90587000  1
  Sc  Sc86  1  0.89663231  0.69591840  0.49231510  1
  Sc  Sc87  1  0.69934299  0.90526157  0.29757937  1
  Sc  Sc88  1  0.70667818  0.29777775  0.49616678  1
  Sc  Sc89  1  0.29543827  0.50602238  0.90237689  1
  Sc  Sc90  1  0.90233317  0.30396394  0.69631622  1
  Sc  Sc91  1  0.70388170  0.10791912  0.89394615  1
  Sc  Sc92  1  0.30668510  0.70283935  0.30025650  1
  Sc  Sc93  1  0.89299953  0.10005924  0.49451702  1
  Sc  Sc94  1  0.50775403  0.30090747  0.30023191  1
  Sc  Sc95  1  0.29450715  0.70743450  0.48843285  1
  Sc  Sc96  1  0.89073101  0.30293275  0.50433961  1
  Sc  Sc97  1  0.69999615  0.49710684  0.29669902  1
  Sc  Sc98  1  0.49438541  0.70902406  0.69961092  1
  Sc  Sc99  1  0.09448467  0.48945621  0.30797007  1
  Nb  Nb100  1  0.69940977  0.69888888  0.89150197  1
  Nb  Nb101  1  0.30105821  0.50391195  0.50166317  1
  Nb  Nb102  1  0.50267082  0.69811251  0.30063130  1
  Nb  Nb103  1  0.09771118  0.49935518  0.09651372  1
  Nb  Nb104  1  0.50245552  0.30904841  0.08555899  1
  Nb  Nb105  1  0.30337650  0.10860983  0.09678729  1
  Nb  Nb106  1  0.30478756  0.29641395  0.91294815  1
  Nb  Nb107  1  0.88789117  0.29834114  0.90522094  1
  Nb  Nb108  1  0.69589923  0.69874888  0.70372454  1
  Nb  Nb109  1  0.10069713  0.29597766  0.70153362  1
  Nb  Nb110  1  0.69467636  0.30332655  0.09480334  1
  Nb  Nb111  1  0.89994108  0.49680481  0.69908663  1
  Nb  Nb112  1  0.69878490  0.30072584  0.89910260  1
  Nb  Nb113  1  0.09880675  0.30239480  0.89092292  1
  Nb  Nb114  1  0.89915010  0.09501825  0.70393184  1
  Nb  Nb115  1  0.30422022  0.09357120  0.49481614  1
  Nb  Nb116  1  0.50035155  0.90310291  0.69809219  1
  Nb  Nb117  1  0.50310160  0.70133167  0.49870992  1
  Nb  Nb118  1  0.50472832  0.89642766  0.09735960  1
  Nb  Nb119  1  0.29617122  0.90378455  0.90140717  1
  Nb  Nb120  1  0.50533783  0.29968666  0.90765743  1
  Nb  Nb121  1  0.50436397  0.49074603  0.10031454  1
  Nb  Nb122  1  0.10453686  0.30863328  0.10078198  1
  Nb  Nb123  1  0.29977822  0.29028316  0.09242737  1
  Nb  Nb124  1  0.90231746  0.90063670  0.70356542  1
  Nb  Nb125  1  0.40039881  -0.00058756  0.59958569  1
  Nb  Nb126  1  0.60168680  0.80101793  0.80099214  1
  Nb  Nb127  1  0.79808402  0.40037337  0.80559864  1
  Nb  Nb128  1  0.00308486  0.59259451  0.60413983  1
  Nb  Nb129  1  0.39818862  0.60265479  0.59082242  1
  Nb  Nb130  1  0.39981556  0.20876794  0.80998759  1
  Nb  Nb131  1  0.59493367  0.60212950  0.59269918  1
  Nb  Nb132  1  0.79594247  0.79936750  -0.00618540  1
  Nb  Nb133  1  0.20405171  0.19454875  0.40067567  1
  Nb  Nb134  1  0.79275666  0.80240936  0.79895427  1
  Nb  Nb135  1  0.19951421  0.59680727  0.59658158  1
  Nb  Nb136  1  0.00577053  0.59447844  0.19643636  1
  Nb  Nb137  1  0.80739610  -0.00170518  0.60608884  1
  Nb  Nb138  1  0.19590574  0.59402908  0.19956680  1
  Nb  Nb139  1  0.39709985  0.00066062  0.00277559  1
  Nb  Nb140  1  0.60092349  0.39605512  0.80232461  1
  Nb  Nb141  1  0.20607338  -0.00210862  0.59813165  1
  Nb  Nb142  1  -0.00784024  0.80064917  -0.00228565  1
  Nb  Nb143  1  0.20014994  0.80234984  0.80320586  1
  Nb  Nb144  1  0.00449344  0.19936345  0.40320359  1
  Nb  Nb145  1  0.59406347  0.60286289  0.40421290  1
  Nb  Nb146  1  -0.00096444  0.59274673  0.79475284  1
  Nb  Nb147  1  0.60293905  0.40631469  0.60278923  1
  Nb  Nb148  1  0.00272671  0.19696049  0.60259989  1
  Nb  Nb149  1  0.40524777  0.39119491  0.81119804  1
  Pd  Pd150  1  -0.00554359  -0.00040992  0.40338732  1
  Pd  Pd151  1  0.40837379  0.80550141  0.39551092  1
  Pd  Pd152  1  0.60611368  -0.00208997  0.79517098  1
  Pd  Pd153  1  0.40974660  0.20878841  0.19580049  1
  Pd  Pd154  1  0.39604382  0.59882361  0.19520945  1
  Pd  Pd155  1  0.19721402  -0.00414192  0.39957652  1
  Pd  Pd156  1  0.60660012  0.20265300  0.59762815  1
  Pd  Pd157  1  0.40883192  -0.00026530  0.19064684  1
  Pd  Pd158  1  0.00352937  0.21087836  -0.00390860  1
  Pd  Pd159  1  0.20977700  0.39651110  0.81285790  1
  Pd  Pd160  1  0.39602109  0.40527377  -0.00244583  1
  Pd  Pd161  1  0.39492203  0.20748108  0.39408911  1
  Pd  Pd162  1  0.60532624  0.60207118  0.01568077  1
  Pd  Pd163  1  0.59246789  0.01254057  0.00480128  1
  Pd  Pd164  1  0.18963533  0.20595231  -0.00437502  1
  Pd  Pd165  1  0.40394717  0.80317639  -0.00315471  1
  Pd  Pd166  1  0.20176897  0.00152118  0.00840653  1
  Pd  Pd167  1  0.39502710  0.18857120  0.61102149  1
  Pd  Pd168  1  0.60717563  0.79437008  0.39117144  1
  Pd  Pd169  1  0.39568228  0.59749151  0.01333292  1
  Pd  Pd170  1  0.40543985  0.60209396  0.40258901  1
  Pd  Pd171  1  0.00399236  -0.00401030  0.00410867  1
  Pd  Pd172  1  0.40065544  0.79769149  0.80801631  1
  Pd  Pd173  1  0.19997346  0.19378470  0.20214071  1
  Pd  Pd174  1  0.80095925  0.80589463  0.60583561  1
  Pd  Pd175  1  0.20125170  0.00471018  0.19206819  1
  Pd  Pd176  1  0.00627493  0.00471450  0.80275137  1
  Pd  Pd177  1  0.79307723  0.80391199  0.19842585  1
  Pd  Pd178  1  0.39773965  0.00990414  0.80074325  1
  Pd  Pd179  1  0.79340139  0.20568950  0.20125439  1
  Pd  Pd180  1  -0.00300487  0.00375971  0.59604124  1
  Pd  Pd181  1  0.00074491  -0.00445690  0.19215771  1
  Pd  Pd182  1  0.21115849  0.38809479  0.40653094  1
  Pd  Pd183  1  0.40153202  0.59704318  0.79815754  1
  Pd  Pd184  1  0.40736736  0.38891965  0.19723752  1
  Pd  Pd185  1  0.59860496  0.00477790  0.39967513  1
  Pd  Pd186  1  0.20291101  0.40504368  0.59377448  1
  Pd  Pd187  1  0.60835174  0.19448965  0.00252364  1
  Pd  Pd188  1  0.59835877  0.59561997  0.20620209  1
  Pd  Pd189  1  0.20398907  0.19346321  0.59362324  1
  Pd  Pd190  1  0.19327247  0.40471459  0.20213344  1
  Pd  Pd191  1  0.00116595  0.38926508  -0.00053503  1
  Pd  Pd192  1  0.59968025  0.20610534  0.19865510  1
  Pd  Pd193  1  0.80008193  0.59870779  0.59580849  1
  Pd  Pd194  1  -0.00997340  0.39726421  0.80541522  1
  Pd  Pd195  1  0.21007467  0.59950570  0.01044307  1
  Pd  Pd196  1  0.39774521  0.80136027  0.59585923  1
  Pd  Pd197  1  0.39519157  0.39051512  0.39561014  1
  Pd  Pd198  1  -0.00903915  0.20508960  0.79653147  1
  Pd  Pd199  1  0.78923378  0.60651950  0.01142427  1
  Rh  Rh200  1  0.80232118  -0.00230367  0.40457296  1
  Rh  Rh201  1  0.79937748  0.39817178  0.39640461  1
  Rh  Rh202  1  0.19397658  0.80609794  -0.01067699  1
  Rh  Rh203  1  0.41044996  0.80136989  0.20450995  1
  Rh  Rh204  1  0.79581078  0.39638178  0.19846133  1
  Rh  Rh205  1  0.40194796  0.19259743  -0.00085950  1
  Rh  Rh206  1  0.19951497  0.79364703  0.20961612  1
  Rh  Rh207  1  0.60052644  0.00615861  0.59704978  1
  Rh  Rh208  1  0.19449702  -0.01162060  0.79047881  1
  Rh  Rh209  1  0.19863995  0.39289457  -0.00294533  1
  Rh  Rh210  1  0.19919983  0.80613345  0.39134173  1
  Rh  Rh211  1  0.80644355  0.20061720  0.39335308  1
  Rh  Rh212  1  0.79758145  0.80203200  0.39385266  1
  Rh  Rh213  1  0.80702526  0.59362800  0.20014080  1
  Rh  Rh214  1  0.79147358  0.20023344  0.00328531  1
  Rh  Rh215  1  -0.00212993  0.79855170  0.39893105  1
  Rh  Rh216  1  0.60314973  0.40712396  0.40677378  1
  Rh  Rh217  1  0.59229546  0.20977393  0.79807440  1
  Rh  Rh218  1  0.79729458  0.00333549  0.00118970  1
  Rh  Rh219  1  0.81039446  0.60051448  0.79226845  1
  Rh  Rh220  1  -0.00337382  0.59410604  0.39998103  1
  Rh  Rh221  1  0.79358275  -0.00549364  0.78974071  1
  Rh  Rh222  1  0.60388007  0.19847317  0.39937506  1
  Rh  Rh223  1  0.00036201  0.39772369  0.59688839  1
  Rh  Rh224  1  0.79822768  -0.00022693  0.20271702  1
  Rh  Rh225  1  0.79067775  0.39795871  -0.00358561  1
  Rh  Rh226  1  0.79215811  0.59967855  0.39837095  1
  Rh  Rh227  1  0.58896810  0.60501623  0.78886426  1
  Rh  Rh228  1  0.00075813  0.60525860  0.00018412  1
  Rh  Rh229  1  0.60048032  0.79322157  0.60849965  1
  Rh  Rh230  1  0.20544021  0.20965862  0.81092974  1
  Rh  Rh231  1  -0.00867987  0.39171928  0.40543843  1
  Rh  Rh232  1  0.60951886  0.40497231  -0.00282294  1
  Rh  Rh233  1  0.59535917  0.00335562  0.20029955  1
  Rh  Rh234  1  -0.00190273  0.79379965  0.80815553  1
  Rh  Rh235  1  0.81096046  0.18912927  0.60420288  1
  Rh  Rh236  1  0.59854422  0.39597885  0.19498576  1
  Rh  Rh237  1  0.00059807  0.20550172  0.19849923  1
  Rh  Rh238  1  0.00091995  0.79509169  0.19552708  1
  Rh  Rh239  1  0.60400140  0.79417782  -0.00390698  1
  Rh  Rh240  1  0.00151415  0.40393157  0.19553645  1
  Rh  Rh241  1  0.20007406  0.59871105  0.39879243  1
  Rh  Rh242  1  0.80798118  0.20811728  0.79658433  1
  Rh  Rh243  1  0.40663380  0.40968071  0.60978697  1
  Rh  Rh244  1  0.20680768  0.80463696  0.60689363  1
  Rh  Rh245  1  0.41257767  -0.00843084  0.40680019  1
  Rh  Rh246  1  0.19142628  0.60356895  0.79114905  1
  Rh  Rh247  1  0.79185780  0.40732077  0.60907454  1
  Rh  Rh248  1  0.59564999  0.79944805  0.20613525  1
  Rh  Rh249  1  -0.01171693  0.79093291  0.59269796  1
