# generated using pymatgen
data_ZrScNbPdRh
_symmetry_space_group_name_H-M   'P 1'
_cell_length_a   16.56289839
_cell_length_b   16.56303026
_cell_length_c   16.55991660
_cell_angle_alpha   89.99175764
_cell_angle_beta   90.01679667
_cell_angle_gamma   89.98149529
_symmetry_Int_Tables_number   1
_chemical_formula_structural   ZrScNbPdRh
_chemical_formula_sum   'Zr50 Sc50 Nb50 Pd50 Rh50'
_cell_volume   4542.91104007
_cell_formula_units_Z   50
loop_
 _symmetry_equiv_pos_site_id
 _symmetry_equiv_pos_as_xyz
  1  'x, y, z'
loop_
 _atom_site_type_symbol
 _atom_site_label
 _atom_site_symmetry_multiplicity
 _atom_site_fract_x
 _atom_site_fract_y
 _atom_site_fract_z
 _atom_site_occupancy
  Zr  Zr0  1  0.70093489  0.09169605  0.29674373  1
  Zr  Zr1  1  0.30585513  0.69682058  0.09419535  1
  Zr  Zr2  1  0.49662231  0.29664094  0.09980245  1
  Zr  Zr3  1  0.89651377  0.69980538  0.29699892  1
  Zr  Zr4  1  0.49393275  0.09017073  0.10059330  1
  Zr  Zr5  1  0.89269426  0.31045611  0.29878965  1
  Zr  Zr6  1  0.10252241  0.90169203  0.29366063  1
  Zr  Zr7  1  0.30044006  0.89214444  0.89886959  1
  Zr  Zr8  1  0.29877131  0.11126005  0.69843824  1
  Zr  Zr9  1  0.50139845  0.49161540  0.50242656  1
  Zr  Zr10  1  0.89402867  0.90074505  0.29508971  1
  Zr  Zr11  1  0.71309464  0.09845506  0.69687116  1
  Zr  Zr12  1  0.90240360  0.09920496  0.89821133  1
  Zr  Zr13  1  0.70328815  0.09967169  0.90921642  1
  Zr  Zr14  1  0.69723227  0.69739230  0.90305663  1
  Zr  Zr15  1  0.30462675  0.29159084  0.10437727  1
  Zr  Zr16  1  0.69425973  0.89440615  0.89777539  1
  Zr  Zr17  1  0.28505878  0.89459995  0.30103725  1
  Zr  Zr18  1  0.49173062  0.30251417  0.70006158  1
  Zr  Zr19  1  0.50326304  0.69627920  0.29882651  1
  Zr  Zr20  1  0.69688758  0.50058733  0.89890856  1
  Zr  Zr21  1  0.10326905  0.30586023  0.69594895  1
  Zr  Zr22  1  0.31029512  0.29706601  0.50485487  1
  Zr  Zr23  1  0.10047290  0.09666329  0.29368792  1
  Zr  Zr24  1  0.31350009  0.49920702  0.30027277  1
  Zr  Zr25  1  0.10184193  0.90269411  0.10466515  1
  Zr  Zr26  1  0.90344696  0.10781213  0.70212283  1
  Zr  Zr27  1  0.89415814  0.29914416  0.90001733  1
  Zr  Zr28  1  0.69200043  0.70591147  0.70255126  1
  Zr  Zr29  1  0.49632777  0.90575742  0.90443584  1
  Zr  Zr30  1  0.09526101  0.69886343  0.50673724  1
  Zr  Zr31  1  0.10825038  0.69844411  0.89175252  1
  Zr  Zr32  1  0.89233256  0.09661320  0.09385808  1
  Zr  Zr33  1  0.49454420  0.50744320  0.11090642  1
  Zr  Zr34  1  0.49872966  0.71335337  0.69017809  1
  Zr  Zr35  1  0.70006788  0.90560422  0.10280779  1
  Zr  Zr36  1  0.30002873  0.50061716  0.09984002  1
  Zr  Zr37  1  0.69996443  0.29842896  0.29926400  1
  Zr  Zr38  1  0.30106648  0.09711036  0.89748491  1
  Zr  Zr39  1  0.29916752  0.70219584  0.89641433  1
  Zr  Zr40  1  0.49719817  0.10464342  0.49380125  1
  Zr  Zr41  1  0.49158043  0.09555366  0.70255052  1
  Zr  Zr42  1  0.90650063  0.30236857  0.49998380  1
  Zr  Zr43  1  0.10018794  0.50342885  0.70847520  1
  Zr  Zr44  1  0.69630540  0.30912240  0.49177696  1
  Zr  Zr45  1  0.90050539  0.10964030  0.29452523  1
  Zr  Zr46  1  0.89853291  0.10379078  0.51020413  1
  Zr  Zr47  1  0.10296080  0.10168489  0.09901752  1
  Zr  Zr48  1  0.08954989  0.29430906  0.29480631  1
  Zr  Zr49  1  0.09778099  0.89352293  0.69870723  1
  Sc  Sc50  1  0.68809474  0.50021935  0.09753347  1
  Sc  Sc51  1  0.69323177  0.70671644  0.30235331  1
  Sc  Sc52  1  0.30198252  0.69476050  0.49814785  1
  Sc  Sc53  1  0.90524749  0.69206398  0.70014156  1
  Sc  Sc54  1  0.50424460  0.48572409  0.70003938  1
  Sc  Sc55  1  0.31576584  0.89680311  0.70126043  1
  Sc  Sc56  1  0.70804404  0.90611518  0.49895679  1
  Sc  Sc57  1  0.50394860  0.69572245  0.49775717  1
  Sc  Sc58  1  0.10122389  0.69078809  0.69989137  1
  Sc  Sc59  1  0.10516425  0.90630438  0.90374014  1
  Sc  Sc60  1  0.09824379  0.68661259  0.09639798  1
  Sc  Sc61  1  0.29498427  0.49700813  0.90383529  1
  Sc  Sc62  1  0.10442800  0.10728288  0.70660315  1
  Sc  Sc63  1  0.09685165  0.30705154  0.90222687  1
  Sc  Sc64  1  0.69675796  0.50483489  0.69868244  1
  Sc  Sc65  1  0.70188065  0.90168103  0.30020839  1
  Sc  Sc66  1  0.10323049  0.89063850  0.48802692  1
  Sc  Sc67  1  0.30382701  0.49833506  0.50117760  1
  Sc  Sc68  1  0.89917276  0.69849639  0.50268726  1
  Sc  Sc69  1  0.49128450  0.89719316  0.51666276  1
  Sc  Sc70  1  0.90539365  0.89177901  0.50008712  1
  Sc  Sc71  1  0.09455958  0.49592134  0.51530093  1
  Sc  Sc72  1  0.49995924  0.50179771  0.30185590  1
  Sc  Sc73  1  0.29664279  0.90450882  0.10059739  1
  Sc  Sc74  1  0.70166676  0.10385229  0.49060560  1
  Sc  Sc75  1  0.70219547  0.30503355  0.70821714  1
  Sc  Sc76  1  0.49660872  0.30537767  0.31022276  1
  Sc  Sc77  1  0.51099424  0.90700151  0.29378957  1
  Sc  Sc78  1  0.30886394  0.09541147  0.49917680  1
  Sc  Sc79  1  0.49726944  0.29999976  0.89431462  1
  Sc  Sc80  1  0.89997871  0.50132031  0.89831942  1
  Sc  Sc81  1  0.49523953  0.09609204  0.90548893  1
  Sc  Sc82  1  0.10617077  0.70839235  0.29144840  1
  Sc  Sc83  1  0.90894862  0.51318577  0.08686784  1
  Sc  Sc84  1  0.09629312  0.50652481  0.28622773  1
  Sc  Sc85  1  0.89224986  0.69651568  0.91172709  1
  Sc  Sc86  1  0.70272247  0.49081589  0.30132172  1
  Sc  Sc87  1  0.09819162  0.29300897  0.09365395  1
  Sc  Sc88  1  0.69692161  0.50349099  0.50303528  1
  Sc  Sc89  1  0.70088690  0.30279009  0.90321706  1
  Sc  Sc90  1  0.30653340  0.29900666  0.89684617  1
  Sc  Sc91  1  0.89773018  0.50155099  0.49609500  1
  Sc  Sc92  1  0.29756051  0.69642797  0.29847892  1
  Sc  Sc93  1  0.50408032  0.89901593  0.70845919  1
  Sc  Sc94  1  0.49611736  0.48778612  0.89894164  1
  Sc  Sc95  1  0.69206631  0.69769321  0.50624343  1
  Sc  Sc96  1  0.49591095  0.71465826  0.91357268  1
  Sc  Sc97  1  0.09628851  0.29830329  0.50637269  1
  Sc  Sc98  1  0.30877449  0.09428312  0.29619651  1
  Sc  Sc99  1  0.70408849  0.30132144  0.09553644  1
  Nb  Nb100  1  0.89952407  0.89499419  0.09033697  1
  Nb  Nb101  1  0.09658069  0.50118101  0.91421862  1
  Nb  Nb102  1  0.70064216  0.89876531  0.70235006  1
  Nb  Nb103  1  0.50430366  0.30178380  0.50602929  1
  Nb  Nb104  1  0.90113517  0.29902022  0.70204362  1
  Nb  Nb105  1  0.30151734  0.30368028  0.70014468  1
  Nb  Nb106  1  0.50730995  0.70312234  0.10645056  1
  Nb  Nb107  1  0.69704385  0.09944619  0.09802098  1
  Nb  Nb108  1  0.69100634  0.69487451  0.09967562  1
  Nb  Nb109  1  0.90500639  0.49544088  0.69739974  1
  Nb  Nb110  1  0.29963659  0.89760717  0.49824574  1
  Nb  Nb111  1  0.30702251  0.10591760  0.09505870  1
  Nb  Nb112  1  0.09997592  0.49569760  0.09170045  1
  Nb  Nb113  1  0.10284885  0.09954160  0.89934285  1
  Nb  Nb114  1  0.90045090  0.50367813  0.29486990  1
  Nb  Nb115  1  0.89440688  0.70099705  0.09790788  1
  Nb  Nb116  1  0.90203314  0.30121031  0.09831460  1
  Nb  Nb117  1  0.90108113  0.90307109  0.69907327  1
  Nb  Nb118  1  0.89933828  0.89808924  0.90427824  1
  Nb  Nb119  1  0.29490835  0.69793808  0.70438081  1
  Nb  Nb120  1  0.29504361  0.30469246  0.30235690  1
  Nb  Nb121  1  0.51149722  0.10052009  0.30105592  1
  Nb  Nb122  1  0.10275902  0.10235311  0.50451594  1
  Nb  Nb123  1  0.50192056  0.89448316  0.09701337  1
  Nb  Nb124  1  0.29449733  0.50244738  0.69967380  1
  Nb  Nb125  1  -0.00165459  0.40414288  0.19121455  1
  Nb  Nb126  1  0.20651968  0.80012425  0.60030289  1
  Nb  Nb127  1  0.79968355  0.60390042  0.19459517  1
  Nb  Nb128  1  0.00205368  0.00566062  0.40213007  1
  Nb  Nb129  1  -0.00680998  0.80485580  0.80559714  1
  Nb  Nb130  1  0.40530372  0.79997814  0.19950701  1
  Nb  Nb131  1  0.19756274  0.39775270  0.19955926  1
  Nb  Nb132  1  0.59874072  0.19278837  0.19994992  1
  Nb  Nb133  1  -0.00957769  0.79963570  0.18873799  1
  Nb  Nb134  1  0.20105176  0.20246886  0.39917433  1
  Nb  Nb135  1  0.00286472  0.60038255  0.39343670  1
  Nb  Nb136  1  0.79972866  0.80306104  0.61041210  1
  Nb  Nb137  1  0.60434957  0.00634970  0.60421833  1
  Nb  Nb138  1  0.39822661  0.80362298  0.39530322  1
  Nb  Nb139  1  0.59766270  0.20108050  0.60153049  1
  Nb  Nb140  1  0.60075761  0.19465658  0.79515898  1
  Nb  Nb141  1  0.80580879  -0.00946544  0.80175692  1
  Nb  Nb142  1  0.00679397  0.00059643  0.59695222  1
  Nb  Nb143  1  0.39707876  0.59807163  0.61137550  1
  Nb  Nb144  1  0.19829056  0.39781874  0.39366586  1
  Nb  Nb145  1  0.58877968  0.60557850  0.80066534  1
  Nb  Nb146  1  0.19299654  0.59225132  0.40039348  1
  Nb  Nb147  1  0.80777940  0.39965420  0.60534572  1
  Nb  Nb148  1  0.40025799  0.60103775  0.79394758  1
  Nb  Nb149  1  0.20012003  -0.00539750  0.59634919  1
  Pd  Pd150  1  0.40012262  0.39911274  0.00275178  1
  Pd  Pd151  1  0.59419727  0.20094070  -0.00159384  1
  Pd  Pd152  1  -0.00045831  0.19793836  -0.00333690  1
  Pd  Pd153  1  0.80886551  0.79833748  0.79686241  1
  Pd  Pd154  1  0.59487183  0.39170322  0.20249624  1
  Pd  Pd155  1  0.59426723  0.39699769  0.00041054  1
  Pd  Pd156  1  0.20441426  0.19858070  0.20464177  1
  Pd  Pd157  1  0.00750153  0.41171727  0.39195808  1
  Pd  Pd158  1  0.40729105  -0.01071441  0.39389791  1
  Pd  Pd159  1  0.19687268  0.20934723  0.80777350  1
  Pd  Pd160  1  -0.00468433  0.60437716  0.80879000  1
  Pd  Pd161  1  0.20091258  0.40228286  0.80621314  1
  Pd  Pd162  1  0.00064165  0.79779133  0.38832875  1
  Pd  Pd163  1  0.20544492  0.00456979  0.00271015  1
  Pd  Pd164  1  0.20441406  0.39031172  0.00589711  1
  Pd  Pd165  1  -0.00900286  -0.00334973  0.19798313  1
  Pd  Pd166  1  0.00384129  0.00195042  -0.00076405  1
  Pd  Pd167  1  0.20381321  0.59565959  0.20105098  1
  Pd  Pd168  1  0.00048274  0.40062791  0.80381607  1
  Pd  Pd169  1  0.00815131  0.20728319  0.80308149  1
  Pd  Pd170  1  0.79721943  0.59831859  0.79608032  1
  Pd  Pd171  1  0.00893421  0.79426004  -0.00274584  1
  Pd  Pd172  1  0.20205009  0.20325387  -0.00982044  1
  Pd  Pd173  1  0.19406226  0.79635912  0.00589205  1
  Pd  Pd174  1  0.60508248  0.59319087  0.39599385  1
  Pd  Pd175  1  0.40769994  0.59720823  -0.01007292  1
  Pd  Pd176  1  0.00433727  0.19480166  0.40422628  1
  Pd  Pd177  1  0.79840488  0.40698578  0.79576176  1
  Pd  Pd178  1  0.59273184  0.81002639  0.40798963  1
  Pd  Pd179  1  0.80774384  0.41478070  0.18375150  1
  Pd  Pd180  1  0.79508957  0.79384060  0.41150202  1
  Pd  Pd181  1  0.80445932  0.40964653  0.00434366  1
  Pd  Pd182  1  0.40890166  0.20010212  0.21236994  1
  Pd  Pd183  1  0.00059403  -0.00392886  0.79812348  1
  Pd  Pd184  1  0.79024605  0.79944901  0.00418095  1
  Pd  Pd185  1  0.39735222  -0.00947959  0.20291774  1
  Pd  Pd186  1  0.19702545  0.00960465  0.40568991  1
  Pd  Pd187  1  0.80048178  0.20079371  0.40086790  1
  Pd  Pd188  1  0.39728676  0.20157203  0.39276654  1
  Pd  Pd189  1  0.81118784  0.00127417  0.40271089  1
  Pd  Pd190  1  0.80187228  0.60053497  0.60403122  1
  Pd  Pd191  1  0.79312352  0.20019090  0.19288942  1
  Pd  Pd192  1  0.60683357  0.00740646  0.79718760  1
  Pd  Pd193  1  0.58657903  0.59672051  -0.00839938  1
  Pd  Pd194  1  0.59429522  -0.00885976  0.41296185  1
  Pd  Pd195  1  0.20599069  -0.00572577  0.79020347  1
  Pd  Pd196  1  0.79893030  0.60054325  0.39403738  1
  Pd  Pd197  1  0.79432052  0.79577669  0.19404236  1
  Pd  Pd198  1  0.20594134  0.39929078  0.59353116  1
  Pd  Pd199  1  0.79082963  0.21571926  0.59649617  1
  Rh  Rh200  1  0.20647206  0.78667392  0.40784695  1
  Rh  Rh201  1  0.60023174  0.80338226  0.19838942  1
  Rh  Rh202  1  0.59956181  -0.00294476  0.00375324  1
  Rh  Rh203  1  -0.00649375  0.39811827  0.00186667  1
  Rh  Rh204  1  0.20510697  0.19761227  0.59346515  1
  Rh  Rh205  1  0.39228034  -0.00506310  0.00261674  1
  Rh  Rh206  1  0.61307841  0.39430651  0.60311560  1
  Rh  Rh207  1  0.21117828  0.01237026  0.19037806  1
  Rh  Rh208  1  0.00668998  0.19913048  0.60797983  1
  Rh  Rh209  1  0.80138918  0.20372491  0.00233410  1
  Rh  Rh210  1  0.39004586  0.79002715  0.59112456  1
  Rh  Rh211  1  0.00320216  0.60759009  -0.00700148  1
  Rh  Rh212  1  0.20327531  0.58941319  0.80766599  1
  Rh  Rh213  1  0.20542627  0.60543409  0.59337011  1
  Rh  Rh214  1  0.80348006  -0.00043252  0.19453855  1
  Rh  Rh215  1  0.60101265  0.00358685  0.19320110  1
  Rh  Rh216  1  0.60967122  0.59806056  0.20687519  1
  Rh  Rh217  1  0.40416795  0.20076220  0.80160939  1
  Rh  Rh218  1  0.20016612  0.59911021  -0.00386425  1
  Rh  Rh219  1  -0.00633921  0.40014325  0.60594630  1
  Rh  Rh220  1  0.60497980  0.80331054  0.00487880  1
  Rh  Rh221  1  -0.00235884  0.80001734  0.60903984  1
  Rh  Rh222  1  0.79739075  -0.00567221  -0.00451817  1
  Rh  Rh223  1  0.80433865  -0.00821418  0.60323332  1
  Rh  Rh224  1  0.39901485  0.60292450  0.40777067  1
  Rh  Rh225  1  0.40452777  0.79434049  0.80255840  1
  Rh  Rh226  1  0.20126962  0.79236447  0.18738396  1
  Rh  Rh227  1  0.39807940  0.00174973  0.60368468  1
  Rh  Rh228  1  -0.00856120  0.20518063  0.18995721  1
  Rh  Rh229  1  0.79476311  0.19621355  0.80787976  1
  Rh  Rh230  1  0.59998614  0.20327482  0.39760188  1
  Rh  Rh231  1  0.40414051  0.20022282  0.60155190  1
  Rh  Rh232  1  0.59637736  0.40465227  0.39709603  1
  Rh  Rh233  1  0.61274294  0.81536123  0.59191271  1
  Rh  Rh234  1  -0.00627228  0.59470500  0.59505330  1
  Rh  Rh235  1  0.39355130  0.40546481  0.60355937  1
  Rh  Rh236  1  0.80285123  0.40548361  0.40713772  1
  Rh  Rh237  1  0.40171931  0.19854743  -0.00648173  1
  Rh  Rh238  1  0.19577960  0.80474407  0.79277164  1
  Rh  Rh239  1  0.40088834  0.61022923  0.20100838  1
  Rh  Rh240  1  0.39995448  0.39881015  0.40537700  1
  Rh  Rh241  1  0.58679296  0.59433062  0.60914437  1
  Rh  Rh242  1  0.78957295  0.59587356  0.00797640  1
  Rh  Rh243  1  0.39791427  0.80575242  0.01075504  1
  Rh  Rh244  1  0.59137503  0.79602667  0.80641573  1
  Rh  Rh245  1  -0.00835065  0.60355826  0.20033588  1
  Rh  Rh246  1  0.38888324  0.40619953  0.79508524  1
  Rh  Rh247  1  0.39899039  0.39548236  0.19893564  1
  Rh  Rh248  1  0.60551967  0.39736178  0.80351256  1
  Rh  Rh249  1  0.39320613  -0.00140501  0.80180730  1
