# generated using pymatgen
data_ZrScNbPdRh
_symmetry_space_group_name_H-M   'P 1'
_cell_length_a   16.56080451
_cell_length_b   16.56067266
_cell_length_c   16.56377517
_cell_angle_alpha   90.00775860
_cell_angle_beta   89.99175567
_cell_angle_gamma   90.03727456
_symmetry_Int_Tables_number   1
_chemical_formula_structural   ZrScNbPdRh
_chemical_formula_sum   'Zr50 Sc50 Nb50 Pd50 Rh50'
_cell_volume   4542.74783570
_cell_formula_units_Z   50
loop_
 _symmetry_equiv_pos_site_id
 _symmetry_equiv_pos_as_xyz
  1  'x, y, z'
loop_
 _atom_site_type_symbol
 _atom_site_label
 _atom_site_symmetry_multiplicity
 _atom_site_fract_x
 _atom_site_fract_y
 _atom_site_fract_z
 _atom_site_occupancy
  Zr  Zr0  1  0.90405431  0.90336723  0.89869082  1
  Zr  Zr1  1  0.49529429  0.29462307  0.11001167  1
  Zr  Zr2  1  0.70328659  0.49283501  0.10159744  1
  Zr  Zr3  1  0.29650273  0.10345036  0.10181219  1
  Zr  Zr4  1  0.29421159  0.50642684  0.10639629  1
  Zr  Zr5  1  0.90402741  0.49990650  0.70485136  1
  Zr  Zr6  1  0.70102907  0.29747075  0.50133553  1
  Zr  Zr7  1  0.49171518  0.30541897  0.49538783  1
  Zr  Zr8  1  0.70126156  0.89667272  0.70788615  1
  Zr  Zr9  1  0.68768377  0.09810118  0.09886997  1
  Zr  Zr10  1  0.69040097  0.09518608  0.29873036  1
  Zr  Zr11  1  0.50284099  0.70275861  0.30561008  1
  Zr  Zr12  1  0.28835098  0.89949049  0.89199058  1
  Zr  Zr13  1  0.91229120  0.70330319  0.10176181  1
  Zr  Zr14  1  0.69523513  0.49739585  0.48787474  1
  Zr  Zr15  1  0.09866512  0.50312228  0.70380022  1
  Zr  Zr16  1  0.89973863  0.49440327  0.90189121  1
  Zr  Zr17  1  0.90140168  0.89910119  0.50312253  1
  Zr  Zr18  1  0.69617324  0.70816284  0.89013135  1
  Zr  Zr19  1  0.90282090  0.90124274  0.70252370  1
  Zr  Zr20  1  0.69015976  0.30275292  0.10352509  1
  Zr  Zr21  1  0.89736714  0.70727966  0.90592949  1
  Zr  Zr22  1  0.69648636  0.49620340  0.90604184  1
  Zr  Zr23  1  0.50552117  0.09923069  0.10056774  1
  Zr  Zr24  1  0.10009808  0.69963625  0.90372821  1
  Zr  Zr25  1  0.30403586  0.30140850  0.29597364  1
  Zr  Zr26  1  0.09787791  0.70624090  0.30061648  1
  Zr  Zr27  1  0.10095720  0.90843373  0.30586816  1
  Zr  Zr28  1  0.49827949  0.69335454  0.89800357  1
  Zr  Zr29  1  0.50073182  0.09937061  0.88968413  1
  Zr  Zr30  1  0.09441445  0.90833389  0.09790137  1
  Zr  Zr31  1  0.30762179  0.49365667  0.50212909  1
  Zr  Zr32  1  0.29722599  0.50517340  0.70027514  1
  Zr  Zr33  1  0.29102801  0.30081505  0.10031747  1
  Zr  Zr34  1  0.50276630  0.90004879  0.09566811  1
  Zr  Zr35  1  0.10008928  0.50424511  0.09790413  1
  Zr  Zr36  1  0.90974773  0.09806345  0.30374466  1
  Zr  Zr37  1  0.70363771  0.70110773  0.29862177  1
  Zr  Zr38  1  0.70044113  0.30926380  0.30214946  1
  Zr  Zr39  1  0.90902120  0.09532807  0.69943264  1
  Zr  Zr40  1  0.90608312  0.30177687  0.89932484  1
  Zr  Zr41  1  0.49542734  0.50407910  0.90149660  1
  Zr  Zr42  1  0.50565723  0.49961607  0.09644458  1
  Zr  Zr43  1  0.89429115  0.49582249  0.29309832  1
  Zr  Zr44  1  0.10500075  0.89844145  0.70877299  1
  Zr  Zr45  1  0.29829433  0.90189423  0.30408984  1
  Zr  Zr46  1  0.89904186  0.89867082  0.09159047  1
  Zr  Zr47  1  0.09905629  0.50007876  0.49882824  1
  Zr  Zr48  1  0.91080399  0.30503397  0.09717810  1
  Zr  Zr49  1  0.09922152  0.10663952  0.49650173  1
  Sc  Sc50  1  0.90308476  0.49940461  0.09822733  1
  Sc  Sc51  1  0.48653925  0.49504852  0.70622946  1
  Sc  Sc52  1  0.69980750  0.89750758  0.30871827  1
  Sc  Sc53  1  0.31028335  0.69931814  0.29643785  1
  Sc  Sc54  1  0.29979692  0.30667291  0.70423699  1
  Sc  Sc55  1  0.90217207  0.51218671  0.49416713  1
  Sc  Sc56  1  0.50238484  0.29898655  0.88708935  1
  Sc  Sc57  1  0.30273194  0.89657315  0.69928043  1
  Sc  Sc58  1  0.69898266  0.49504315  0.70871699  1
  Sc  Sc59  1  0.50871936  0.89290492  0.89720646  1
  Sc  Sc60  1  0.09974138  0.49860538  0.89817869  1
  Sc  Sc61  1  0.49662871  0.30241943  0.29799739  1
  Sc  Sc62  1  0.71768918  0.70529588  0.09278092  1
  Sc  Sc63  1  0.70004368  0.49978596  0.30060620  1
  Sc  Sc64  1  0.10320347  0.29250532  0.50289294  1
  Sc  Sc65  1  0.30515155  0.69537570  0.89540736  1
  Sc  Sc66  1  0.30546316  0.90313108  0.49927573  1
  Sc  Sc67  1  0.30955576  0.71022476  0.50591303  1
  Sc  Sc68  1  0.49728685  0.70398886  0.50008025  1
  Sc  Sc69  1  0.90494152  0.09821929  0.89550324  1
  Sc  Sc70  1  0.69230626  0.70357361  0.49057149  1
  Sc  Sc71  1  0.50284955  0.90335239  0.30781135  1
  Sc  Sc72  1  0.70152221  0.29624923  0.71407013  1
  Sc  Sc73  1  0.90416133  0.89688387  0.30089287  1
  Sc  Sc74  1  0.09452851  0.70312061  0.69725842  1
  Sc  Sc75  1  0.29489668  0.29906184  0.49236981  1
  Sc  Sc76  1  0.29861995  0.50068225  0.89043956  1
  Sc  Sc77  1  0.09851877  0.29290854  0.29709247  1
  Sc  Sc78  1  0.10219272  0.49979121  0.29078142  1
  Sc  Sc79  1  0.69477828  0.09418145  0.89814262  1
  Sc  Sc80  1  0.49824686  0.10095126  0.29664798  1
  Sc  Sc81  1  0.48361407  0.69967827  0.09122673  1
  Sc  Sc82  1  0.90473583  0.09497648  0.50533324  1
  Sc  Sc83  1  0.70242654  0.09098500  0.70502016  1
  Sc  Sc84  1  0.49817140  0.50149930  0.31053328  1
  Sc  Sc85  1  0.91100071  0.09392707  0.09492368  1
  Sc  Sc86  1  0.49316887  0.70336395  0.69593917  1
  Sc  Sc87  1  0.29214831  0.09969469  0.89093533  1
  Sc  Sc88  1  0.49992073  0.90186456  0.50122224  1
  Sc  Sc89  1  0.69687016  0.90186518  0.49914705  1
  Sc  Sc90  1  0.10177155  0.89023927  0.49643480  1
  Sc  Sc91  1  0.09584213  0.29485386  0.70498197  1
  Sc  Sc92  1  0.28971719  0.10184343  0.30573103  1
  Sc  Sc93  1  0.90065740  0.28178960  0.49884026  1
  Sc  Sc94  1  0.90247765  0.29854157  0.29534213  1
  Sc  Sc95  1  0.30089825  0.70488762  0.70160777  1
  Sc  Sc96  1  0.28609695  0.30197743  0.90204038  1
  Sc  Sc97  1  0.71283895  0.09434276  0.50310979  1
  Sc  Sc98  1  0.89942235  0.29542175  0.71056180  1
  Sc  Sc99  1  0.09984672  0.10429652  0.09824852  1
  Nb  Nb100  1  0.10648335  0.69734248  0.10131214  1
  Nb  Nb101  1  0.09587117  0.09392670  0.30610946  1
  Nb  Nb102  1  0.89957828  0.70119441  0.30273581  1
  Nb  Nb103  1  0.09950162  0.90249751  0.89996148  1
  Nb  Nb104  1  0.09402911  0.69616797  0.49852707  1
  Nb  Nb105  1  0.10184701  0.30307366  0.08536569  1
  Nb  Nb106  1  0.29558114  0.70289972  0.09960275  1
  Nb  Nb107  1  0.50109628  0.50167572  0.50523068  1
  Nb  Nb108  1  0.29928672  0.10108499  0.50347400  1
  Nb  Nb109  1  0.30402487  0.09373913  0.69968719  1
  Nb  Nb110  1  0.50074100  0.91589661  0.69186145  1
  Nb  Nb111  1  0.49807488  0.09835743  0.70174267  1
  Nb  Nb112  1  0.10250026  0.10186646  0.69836466  1
  Nb  Nb113  1  0.49778220  0.09710447  0.50595846  1
  Nb  Nb114  1  0.91763369  0.70053289  0.50562654  1
  Nb  Nb115  1  0.70223047  0.69803122  0.69774732  1
  Nb  Nb116  1  0.70445809  0.89870287  0.90342746  1
  Nb  Nb117  1  0.10006352  0.10206147  0.89305485  1
  Nb  Nb118  1  0.29474755  0.50283267  0.30228353  1
  Nb  Nb119  1  0.70913503  0.30221771  0.90216707  1
  Nb  Nb120  1  0.69626394  0.90761896  0.09444541  1
  Nb  Nb121  1  0.89805226  0.69893860  0.69615481  1
  Nb  Nb122  1  0.50117181  0.29047678  0.69966010  1
  Nb  Nb123  1  0.30071934  0.89945704  0.09779413  1
  Nb  Nb124  1  0.09720363  0.29284690  0.91374197  1
  Nb  Nb125  1  0.59806341  0.39749211  0.60082576  1
  Nb  Nb126  1  0.39660260  0.39576277  0.00293822  1
  Nb  Nb127  1  -0.00635879  0.40008921  0.59635045  1
  Nb  Nb128  1  0.00073843  0.39988766  0.40295317  1
  Nb  Nb129  1  0.79703469  0.20315285  0.00287956  1
  Nb  Nb130  1  0.39542693  -0.00326285  0.19413839  1
  Nb  Nb131  1  0.59746953  0.19818546  0.41057756  1
  Nb  Nb132  1  0.20252334  0.60137319  0.40338911  1
  Nb  Nb133  1  0.79664407  0.60268502  0.60137992  1
  Nb  Nb134  1  0.19910060  0.80021681  0.00533429  1
  Nb  Nb135  1  0.20213319  0.80149075  0.19279613  1
  Nb  Nb136  1  0.40130013  0.19195771  0.60399558  1
  Nb  Nb137  1  0.79964973  0.60577580  0.79680411  1
  Nb  Nb138  1  0.59304939  0.19821388  0.60245024  1
  Nb  Nb139  1  0.80069363  0.40320515  0.59899973  1
  Nb  Nb140  1  0.20173047  0.00925259  0.60226278  1
  Nb  Nb141  1  0.80300501  0.79100483  0.60291737  1
  Nb  Nb142  1  0.60231236  0.79765622  0.19445432  1
  Nb  Nb143  1  0.79646570  0.00133272  0.19517434  1
  Nb  Nb144  1  0.60065067  0.59286665  0.59913685  1
  Nb  Nb145  1  0.19780188  0.60240792  0.59136923  1
  Nb  Nb146  1  0.79808279  0.19380713  0.19345687  1
  Nb  Nb147  1  0.39887921  0.19960749  -0.00128846  1
  Nb  Nb148  1  0.39737832  0.00097782  -0.00027427  1
  Nb  Nb149  1  0.60129716  0.60817922  0.19753976  1
  Pd  Pd150  1  0.59829775  0.59690230  0.78956151  1
  Pd  Pd151  1  0.60122356  0.79545863  0.60138610  1
  Pd  Pd152  1  0.79844369  0.18976691  0.80720916  1
  Pd  Pd153  1  0.58952757  0.38827123  -0.00600543  1
  Pd  Pd154  1  0.79696412  0.20210659  0.61230746  1
  Pd  Pd155  1  0.19372870  0.40017527  0.39364322  1
  Pd  Pd156  1  0.79621697  0.81163750  0.19836932  1
  Pd  Pd157  1  0.40218517  0.80721307  0.20357638  1
  Pd  Pd158  1  0.80761555  0.79387415  0.40969399  1
  Pd  Pd159  1  0.80110652  0.59940331  -0.00521003  1
  Pd  Pd160  1  0.00337777  0.59415571  0.38613981  1
  Pd  Pd161  1  0.40219578  -0.00939417  0.80550706  1
  Pd  Pd162  1  0.20950993  0.20054734  0.60699638  1
  Pd  Pd163  1  0.19079171  0.19933757  0.20309147  1
  Pd  Pd164  1  0.19190854  0.40011244  0.60312057  1
  Pd  Pd165  1  0.39120460  0.80565931  -0.01161700  1
  Pd  Pd166  1  0.81610679  0.39480400  0.40873895  1
  Pd  Pd167  1  -0.00222672  0.59910870  0.20415853  1
  Pd  Pd168  1  0.40134985  0.19408757  0.40147243  1
  Pd  Pd169  1  -0.00452842  0.60771435  0.80681324  1
  Pd  Pd170  1  0.80406357  0.00041752  0.39430534  1
  Pd  Pd171  1  0.40124953  0.39210338  0.60585043  1
  Pd  Pd172  1  0.60352407  0.79181390  0.00634079  1
  Pd  Pd173  1  0.20007514  0.00200541  -0.00375581  1
  Pd  Pd174  1  0.19110716  0.39573529  0.80369831  1
  Pd  Pd175  1  0.38952367  0.20527549  0.80145143  1
  Pd  Pd176  1  0.20843361  0.79079275  0.39754346  1
  Pd  Pd177  1  0.79588765  0.19435194  0.39011999  1
  Pd  Pd178  1  0.20580242  0.60095215  -0.00810092  1
  Pd  Pd179  1  0.79924337  0.60010949  0.19670048  1
  Pd  Pd180  1  0.80413052  0.61027037  0.40550996  1
  Pd  Pd181  1  0.39533162  0.60224074  0.40675301  1
  Pd  Pd182  1  0.59786537  0.20684327  -0.01255338  1
  Pd  Pd183  1  0.40637025  0.80693681  0.79660080  1
  Pd  Pd184  1  0.79971219  0.00866671  -0.00048159  1
  Pd  Pd185  1  0.60627624  0.61228802  0.00950757  1
  Pd  Pd186  1  0.19193436  0.39540672  0.20115011  1
  Pd  Pd187  1  0.00207456  0.19856534  0.19625804  1
  Pd  Pd188  1  0.40160917  0.41200176  0.20069266  1
  Pd  Pd189  1  0.40681064  0.59683171  0.19946910  1
  Pd  Pd190  1  0.00544400  0.80668587  0.20115349  1
  Pd  Pd191  1  0.19884001  0.79971887  0.59767589  1
  Pd  Pd192  1  0.19984528  0.20288453  0.79629672  1
  Pd  Pd193  1  0.60795542  0.00437554  0.59832170  1
  Pd  Pd194  1  0.59633332  0.39994499  0.79671205  1
  Pd  Pd195  1  0.40122993  0.00633616  0.39540274  1
  Pd  Pd196  1  0.20174264  -0.00067475  0.20179468  1
  Pd  Pd197  1  0.01433260  -0.00610565  0.59667986  1
  Pd  Pd198  1  0.58967725  0.80198752  0.78910088  1
  Pd  Pd199  1  -0.00039591  0.79539811  0.79981068  1
  Rh  Rh200  1  0.59440477  0.41212666  0.20892152  1
  Rh  Rh201  1  0.00977039  0.80002593  0.00067472  1
  Rh  Rh202  1  0.40029742  0.60241716  0.79535605  1
  Rh  Rh203  1  -0.00573397  0.20444316  0.60686262  1
  Rh  Rh204  1  0.39355004  0.00066901  0.59961146  1
  Rh  Rh205  1  0.20095428  0.19288651  -0.00337538  1
  Rh  Rh206  1  0.19981124  0.20002210  0.39465311  1
  Rh  Rh207  1  0.59708194  0.80322116  0.39710182  1
  Rh  Rh208  1  0.00767233  0.00237234  0.80148454  1
  Rh  Rh209  1  0.00718124  0.00656888  -0.01043887  1
  Rh  Rh210  1  0.59436912  -0.00339484  -0.01450826  1
  Rh  Rh211  1  0.80349154  0.39229266  0.19320677  1
  Rh  Rh212  1  0.59601179  0.60204872  0.39961834  1
  Rh  Rh213  1  0.80421405  0.79928078  0.79756591  1
  Rh  Rh214  1  -0.00074614  0.59836500  0.00115115  1
  Rh  Rh215  1  0.00123841  0.80506693  0.60299374  1
  Rh  Rh216  1  0.00539203  0.39864992  0.20129292  1
  Rh  Rh217  1  0.39885071  0.60161066  0.60033816  1
  Rh  Rh218  1  0.80031269  -0.00178385  0.80460409  1
  Rh  Rh219  1  -0.00544802  0.80014878  0.39806382  1
  Rh  Rh220  1  -0.00492144  -0.00043084  0.20171691  1
  Rh  Rh221  1  0.59831618  0.00735131  0.40747562  1
  Rh  Rh222  1  0.79994040  0.40674960  0.79993779  1
  Rh  Rh223  1  0.19652926  0.79156693  0.80700725  1
  Rh  Rh224  1  0.00743045  0.40751581  -0.00207906  1
  Rh  Rh225  1  0.00322420  0.20331186  0.39836926  1
  Rh  Rh226  1  -0.00333546  0.19375550  -0.00346911  1
  Rh  Rh227  1  0.00277515  0.59505869  0.60296499  1
  Rh  Rh228  1  0.40569049  0.81077535  0.60370311  1
  Rh  Rh229  1  0.19733650  0.00385480  0.41309141  1
  Rh  Rh230  1  0.19403734  0.00546683  0.79226739  1
  Rh  Rh231  1  0.39681117  0.19088948  0.20003566  1
  Rh  Rh232  1  0.38959816  0.59048975  0.00106502  1
  Rh  Rh233  1  0.00736116  0.39174896  0.80103311  1
  Rh  Rh234  1  0.80151182  0.39242319  0.00446251  1
  Rh  Rh235  1  0.60859104  0.19642345  0.79746245  1
  Rh  Rh236  1  0.59950955  -0.01690698  0.20654420  1
  Rh  Rh237  1  0.00111530  -0.00342284  0.40821917  1
  Rh  Rh238  1  0.79791579  -0.01169583  0.60423953  1
  Rh  Rh239  1  0.60001459  -0.00664735  0.80026959  1
  Rh  Rh240  1  0.39784167  0.39528258  0.80683735  1
  Rh  Rh241  1  0.20338526  0.61162776  0.21216477  1
  Rh  Rh242  1  0.60406111  0.20901992  0.21698363  1
  Rh  Rh243  1  0.39633509  0.40400995  0.39360798  1
  Rh  Rh244  1  0.00515714  0.19847138  0.80230052  1
  Rh  Rh245  1  0.79900023  0.80648347  -0.00257784  1
  Rh  Rh246  1  0.40157854  0.80468284  0.40228662  1
  Rh  Rh247  1  0.59219259  0.39500381  0.40009831  1
  Rh  Rh248  1  0.20228106  0.41007798  -0.00225199  1
  Rh  Rh249  1  0.19943291  0.60661867  0.78960904  1
