# generated using pymatgen
data_ZrScNbPdRh
_symmetry_space_group_name_H-M   'P 1'
_cell_length_a   16.56151786
_cell_length_b   16.56210900
_cell_length_c   16.56172881
_cell_angle_alpha   90.00751851
_cell_angle_beta   90.01874165
_cell_angle_gamma   89.97646746
_symmetry_Int_Tables_number   1
_chemical_formula_structural   ZrScNbPdRh
_chemical_formula_sum   'Zr50 Sc50 Nb50 Pd50 Rh50'
_cell_volume   4542.77661275
_cell_formula_units_Z   50
loop_
 _symmetry_equiv_pos_site_id
 _symmetry_equiv_pos_as_xyz
  1  'x, y, z'
loop_
 _atom_site_type_symbol
 _atom_site_label
 _atom_site_symmetry_multiplicity
 _atom_site_fract_x
 _atom_site_fract_y
 _atom_site_fract_z
 _atom_site_occupancy
  Zr  Zr0  1  0.30255701  0.29415210  0.71869903  1
  Zr  Zr1  1  0.90217458  0.50424218  0.29029828  1
  Zr  Zr2  1  0.70621146  0.69551724  0.90077997  1
  Zr  Zr3  1  0.50896019  0.50169085  0.29405578  1
  Zr  Zr4  1  0.29481337  0.90077309  0.90160451  1
  Zr  Zr5  1  0.09282229  0.50185679  0.70253988  1
  Zr  Zr6  1  0.09134092  0.70234126  0.30003232  1
  Zr  Zr7  1  0.49939083  0.29213747  0.30017638  1
  Zr  Zr8  1  0.50185718  0.69847633  0.69310220  1
  Zr  Zr9  1  0.30622871  0.90644288  0.10338458  1
  Zr  Zr10  1  0.50608834  0.29328204  0.69962253  1
  Zr  Zr11  1  0.09822503  0.90036572  0.29953400  1
  Zr  Zr12  1  0.69477027  0.90143288  0.30102168  1
  Zr  Zr13  1  0.30691332  0.50132874  0.09750918  1
  Zr  Zr14  1  0.09842221  0.29931132  0.28908974  1
  Zr  Zr15  1  0.69744079  0.69989151  0.70700437  1
  Zr  Zr16  1  0.30261391  0.29241988  0.10047657  1
  Zr  Zr17  1  0.90015019  0.70347187  0.49326329  1
  Zr  Zr18  1  0.69695374  0.70857242  0.49694690  1
  Zr  Zr19  1  0.09035491  0.89836332  0.70120182  1
  Zr  Zr20  1  0.89559545  0.49387364  0.89550055  1
  Zr  Zr21  1  0.50190964  0.09780619  0.50458279  1
  Zr  Zr22  1  0.89724284  0.29374346  0.49965900  1
  Zr  Zr23  1  0.69713213  0.29787297  0.70254075  1
  Zr  Zr24  1  0.51045542  0.90547856  0.69447192  1
  Zr  Zr25  1  0.09875117  0.49953990  0.89109637  1
  Zr  Zr26  1  0.31304955  0.10491445  0.30381658  1
  Zr  Zr27  1  0.50424490  0.50256233  0.09735827  1
  Zr  Zr28  1  0.49840492  0.89845464  0.10265613  1
  Zr  Zr29  1  0.89965065  0.30128042  0.09821614  1
  Zr  Zr30  1  0.30032940  0.49909841  0.49874232  1
  Zr  Zr31  1  0.29861437  0.90116039  0.69518157  1
  Zr  Zr32  1  0.50138352  0.50338791  0.50406913  1
  Zr  Zr33  1  0.69904163  0.70696622  0.30020638  1
  Zr  Zr34  1  0.89996968  0.90052573  0.09904696  1
  Zr  Zr35  1  0.69654750  0.09462555  0.30441173  1
  Zr  Zr36  1  0.10081468  0.90429852  0.49907899  1
  Zr  Zr37  1  0.69240663  0.09712910  0.69911910  1
  Zr  Zr38  1  0.90184837  0.69027016  0.69862780  1
  Zr  Zr39  1  0.09599013  0.69877333  0.89987376  1
  Zr  Zr40  1  0.51091944  0.30294302  0.09685065  1
  Zr  Zr41  1  0.89500712  0.89515566  0.89913052  1
  Zr  Zr42  1  0.90211342  0.50300099  0.50635411  1
  Zr  Zr43  1  0.10205813  0.48927470  0.50429273  1
  Zr  Zr44  1  0.30286571  0.49394779  0.89993180  1
  Zr  Zr45  1  0.29853075  0.11870262  0.89929747  1
  Zr  Zr46  1  0.69527367  0.48731337  0.10404013  1
  Zr  Zr47  1  0.10641889  0.10632763  0.50847287  1
  Zr  Zr48  1  0.50256494  0.50011163  0.90599925  1
  Zr  Zr49  1  0.29923054  0.69427316  0.49581532  1
  Sc  Sc50  1  0.50381916  0.69901603  0.10200035  1
  Sc  Sc51  1  0.69856107  0.70034425  0.09461201  1
  Sc  Sc52  1  0.70797880  0.50335009  0.69899212  1
  Sc  Sc53  1  0.28274332  0.70127447  0.90086211  1
  Sc  Sc54  1  0.89752476  0.30338400  0.69728820  1
  Sc  Sc55  1  0.30099858  0.91294141  0.29723195  1
  Sc  Sc56  1  0.90281787  0.49826188  0.70579591  1
  Sc  Sc57  1  0.90400381  0.29882515  0.29496492  1
  Sc  Sc58  1  0.50351535  0.89774720  0.50224203  1
  Sc  Sc59  1  0.50311149  0.70401579  0.29170930  1
  Sc  Sc60  1  0.69685665  0.29473573  0.29631598  1
  Sc  Sc61  1  0.50264358  0.90274146  0.29313281  1
  Sc  Sc62  1  0.28981930  0.50059622  0.70240569  1
  Sc  Sc63  1  0.89789709  0.50123159  0.10138606  1
  Sc  Sc64  1  0.70393804  0.29478606  0.51006120  1
  Sc  Sc65  1  0.50367136  0.70253106  0.50306792  1
  Sc  Sc66  1  0.69316456  0.90351226  0.49500437  1
  Sc  Sc67  1  0.10754571  0.10271381  0.28338641  1
  Sc  Sc68  1  0.50653231  0.29983865  0.50670911  1
  Sc  Sc69  1  0.29971970  0.69920915  0.09964570  1
  Sc  Sc70  1  0.11639458  0.29260628  0.88769427  1
  Sc  Sc71  1  0.49772019  0.29680727  0.90345041  1
  Sc  Sc72  1  0.09869401  0.69574968  0.70741206  1
  Sc  Sc73  1  0.30438461  0.10074421  0.10418649  1
  Sc  Sc74  1  0.90118057  0.08900287  0.09913950  1
  Sc  Sc75  1  0.09460401  0.89248357  0.90037723  1
  Sc  Sc76  1  0.69623986  0.09364222  0.09628419  1
  Sc  Sc77  1  0.09862031  0.70158697  0.09486099  1
  Sc  Sc78  1  0.29085266  0.29940950  0.49481279  1
  Sc  Sc79  1  0.89460335  0.09210509  0.69724864  1
  Sc  Sc80  1  0.49823169  0.10638331  0.90174805  1
  Sc  Sc81  1  0.89519539  0.89376987  0.29401691  1
  Sc  Sc82  1  0.30158954  0.50699405  0.30464318  1
  Sc  Sc83  1  0.49486471  0.10085604  0.09960029  1
  Sc  Sc84  1  0.09656285  0.90506416  0.10212609  1
  Sc  Sc85  1  0.29963111  0.91335068  0.49760154  1
  Sc  Sc86  1  0.51996417  0.69789085  0.90613734  1
  Sc  Sc87  1  0.89135292  0.10113813  0.29993665  1
  Sc  Sc88  1  0.09926349  0.49917355  0.10987908  1
  Sc  Sc89  1  0.29973765  0.29782708  0.30119800  1
  Sc  Sc90  1  0.88854922  0.10440570  0.50337027  1
  Sc  Sc91  1  0.69898143  0.89894206  0.10794619  1
  Sc  Sc92  1  0.69381035  0.10469045  0.90259514  1
  Sc  Sc93  1  0.09322889  0.69937553  0.49332013  1
  Sc  Sc94  1  0.09811050  0.10374927  0.69475090  1
  Sc  Sc95  1  0.89987921  0.08502885  0.90832084  1
  Sc  Sc96  1  0.09780748  0.30141557  0.69345010  1
  Sc  Sc97  1  0.90288734  0.89950676  0.50091738  1
  Sc  Sc98  1  0.29411502  0.69889697  0.69918876  1
  Sc  Sc99  1  0.09598059  0.49863044  0.29821106  1
  Nb  Nb100  1  0.70520775  0.90055425  0.70892784  1
  Nb  Nb101  1  0.70586910  0.30411242  0.90830796  1
  Nb  Nb102  1  0.90334755  0.70009968  0.10224009  1
  Nb  Nb103  1  0.70356404  0.10135358  0.49578870  1
  Nb  Nb104  1  0.29983768  0.09506742  0.51029671  1
  Nb  Nb105  1  0.49734124  0.10412709  0.69896508  1
  Nb  Nb106  1  0.30631843  0.09738572  0.69401927  1
  Nb  Nb107  1  0.69047910  0.89170634  0.89421572  1
  Nb  Nb108  1  0.89399126  0.89956133  0.70264226  1
  Nb  Nb109  1  0.89917399  0.69309156  0.91679409  1
  Nb  Nb110  1  0.49548633  0.90052231  0.89903913  1
  Nb  Nb111  1  0.30214766  0.30289686  0.90409234  1
  Nb  Nb112  1  0.50507236  0.49887201  0.70192311  1
  Nb  Nb113  1  0.09408099  0.29623680  0.49538075  1
  Nb  Nb114  1  0.90113802  0.70180911  0.29663617  1
  Nb  Nb115  1  0.29682300  0.70601084  0.30032671  1
  Nb  Nb116  1  0.70012012  0.50263088  0.29857035  1
  Nb  Nb117  1  0.89790499  0.30204394  0.90010634  1
  Nb  Nb118  1  0.70146720  0.49794034  0.89727305  1
  Nb  Nb119  1  0.10018890  0.29243891  0.10531507  1
  Nb  Nb120  1  0.10124597  0.10010335  0.90071131  1
  Nb  Nb121  1  0.70199132  0.29588654  0.08946183  1
  Nb  Nb122  1  0.70030931  0.50066920  0.49434888  1
  Nb  Nb123  1  0.10049819  0.10521036  0.09596147  1
  Nb  Nb124  1  0.50693988  0.10212308  0.30207030  1
  Nb  Nb125  1  0.39383910  0.79868875  0.39472287  1
  Nb  Nb126  1  0.00518155  0.19741762  0.40153457  1
  Nb  Nb127  1  0.59345722  -0.01125849  -0.00656339  1
  Nb  Nb128  1  0.40349492  0.79961389  0.80244231  1
  Nb  Nb129  1  0.40268057  0.80379765  -0.00649590  1
  Nb  Nb130  1  0.80334958  0.20307353  0.80787194  1
  Nb  Nb131  1  0.79813712  0.59788548  0.39400945  1
  Nb  Nb132  1  0.79578778  0.40727383  0.39839788  1
  Nb  Nb133  1  0.79911136  0.80644366  0.61057006  1
  Nb  Nb134  1  -0.00686060  0.19884362  0.80777136  1
  Nb  Nb135  1  0.19792400  0.39210262  0.00281881  1
  Nb  Nb136  1  0.60721321  0.40540531  0.40038778  1
  Nb  Nb137  1  0.20183635  0.80115219  0.20555362  1
  Nb  Nb138  1  0.39921856  0.00243029  0.79621557  1
  Nb  Nb139  1  0.00533657  0.20158497  -0.00364874  1
  Nb  Nb140  1  0.00771845  0.38934144  -0.00336598  1
  Nb  Nb141  1  0.40039874  0.40162350  0.60556400  1
  Nb  Nb142  1  0.20185782  0.00552470  0.80028903  1
  Nb  Nb143  1  0.40604761  0.40026873  0.19927285  1
  Nb  Nb144  1  0.00302539  0.00822499  0.39969528  1
  Nb  Nb145  1  0.19633720  0.80270296  0.59555616  1
  Nb  Nb146  1  0.79532276  0.20062145  0.19109389  1
  Nb  Nb147  1  0.40548173  0.60384212  0.80073224  1
  Nb  Nb148  1  0.60446118  0.40201814  0.80402797  1
  Nb  Nb149  1  0.19742613  0.00856841  -0.00420974  1
  Pd  Pd150  1  0.20798179  0.20809114  0.60595387  1
  Pd  Pd151  1  0.00225843  0.00556890  0.80078723  1
  Pd  Pd152  1  -0.00226266  0.59386281  0.40012236  1
  Pd  Pd153  1  0.20616843  0.80472036  0.40156883  1
  Pd  Pd154  1  0.79663531  0.39045673  0.20519369  1
  Pd  Pd155  1  -0.00075180  0.79481451  0.60147215  1
  Pd  Pd156  1  0.39143287  0.80219922  0.59332627  1
  Pd  Pd157  1  -0.00630828  0.39459919  0.39692540  1
  Pd  Pd158  1  0.80901583  0.79012612  0.80074147  1
  Pd  Pd159  1  0.79634222  0.59031068  0.00588528  1
  Pd  Pd160  1  0.79249755  -0.00720772  0.59442926  1
  Pd  Pd161  1  0.78405308  -0.00993887  -0.00486720  1
  Pd  Pd162  1  0.80747708  -0.00751900  0.40104085  1
  Pd  Pd163  1  0.21049137  0.40167610  0.19898095  1
  Pd  Pd164  1  0.39501032  0.59264644  0.60952666  1
  Pd  Pd165  1  0.19711671  0.40127276  0.39197809  1
  Pd  Pd166  1  0.79439525  0.60773836  0.59316556  1
  Pd  Pd167  1  0.60553087  0.19304913  0.19336919  1
  Pd  Pd168  1  0.39262478  0.20942410  0.59347803  1
  Pd  Pd169  1  0.79486975  0.00713468  0.80856431  1
  Pd  Pd170  1  0.59282452  0.79759585  0.79760237  1
  Pd  Pd171  1  0.19721751  0.60730455  0.20161847  1
  Pd  Pd172  1  0.40891779  0.39674947  0.40125444  1
  Pd  Pd173  1  -0.00346646  0.39621778  0.60317953  1
  Pd  Pd174  1  0.60930926  0.59743393  0.60167719  1
  Pd  Pd175  1  0.39926745  0.61734234  -0.01163981  1
  Pd  Pd176  1  0.59990374  0.60272523  0.39787272  1
  Pd  Pd177  1  -0.01071169  0.79228081  0.80294429  1
  Pd  Pd178  1  0.60536522  0.20626949  0.40816657  1
  Pd  Pd179  1  0.00271412  0.58815009  0.00412982  1
  Pd  Pd180  1  0.79511102  0.60769509  0.19853138  1
  Pd  Pd181  1  0.19151928  0.59451493  0.39664488  1
  Pd  Pd182  1  0.19407680  0.58994855  0.00254668  1
  Pd  Pd183  1  0.20695962  0.39072100  0.60508045  1
  Pd  Pd184  1  0.19101041  0.60700190  0.59843028  1
  Pd  Pd185  1  0.79956282  0.40127194  0.59865173  1
  Pd  Pd186  1  -0.00008073  0.80260384  0.00379375  1
  Pd  Pd187  1  0.80743231  0.19070046  0.00094212  1
  Pd  Pd188  1  0.19549014  0.01335477  0.39535843  1
  Pd  Pd189  1  0.39970423  0.20121793  0.41378096  1
  Pd  Pd190  1  -0.00571058  0.00613056  0.59471756  1
  Pd  Pd191  1  -0.00341950  0.00553840  0.20633520  1
  Pd  Pd192  1  0.79994643  0.79534122  0.19434202  1
  Pd  Pd193  1  0.40050454  0.59984032  0.20426848  1
  Pd  Pd194  1  0.40995601  0.60949853  0.39349227  1
  Pd  Pd195  1  0.19569828  0.19380252  0.39411059  1
  Pd  Pd196  1  0.40866753  0.40476383  0.79679500  1
  Pd  Pd197  1  0.59415092  0.00620969  0.80623165  1
  Pd  Pd198  1  0.79532059  0.80555331  0.00466278  1
  Pd  Pd199  1  0.40928927  -0.00584760  0.39957261  1
  Rh  Rh200  1  0.59779106  0.80679595  0.00311252  1
  Rh  Rh201  1  0.79617147  0.19454013  0.61326244  1
  Rh  Rh202  1  0.79259900  0.39415865  0.79677696  1
  Rh  Rh203  1  0.59568150  0.00508941  0.19302749  1
  Rh  Rh204  1  0.80533159  0.60218316  0.80517118  1
  Rh  Rh205  1  0.61354445  0.80713736  0.60508915  1
  Rh  Rh206  1  0.19730560  0.20147740  0.00621506  1
  Rh  Rh207  1  0.59878290  0.39264533  0.20720708  1
  Rh  Rh208  1  0.19983450  -0.00083150  0.18983996  1
  Rh  Rh209  1  0.60702137  0.60547941  0.19460184  1
  Rh  Rh210  1  0.60411045  0.79810123  0.19762328  1
  Rh  Rh211  1  0.59921870  0.59141906  0.79988622  1
  Rh  Rh212  1  0.40628779  0.19535465  0.80076005  1
  Rh  Rh213  1  -0.00061788  0.40160342  0.19290969  1
  Rh  Rh214  1  0.19531316  -0.00395933  0.60753911  1
  Rh  Rh215  1  0.60563018  0.18927541  0.59456435  1
  Rh  Rh216  1  0.00127527  0.60627962  0.19441750  1
  Rh  Rh217  1  -0.01155720  0.19184424  0.19591395  1
  Rh  Rh218  1  0.19958577  0.80524343  0.78661659  1
  Rh  Rh219  1  0.40426912  0.20268656  0.19984037  1
  Rh  Rh220  1  0.00496278  0.38924605  0.80347479  1
  Rh  Rh221  1  0.80281871  0.79967141  0.40377245  1
  Rh  Rh222  1  0.00601843  0.59937590  0.59772196  1
  Rh  Rh223  1  0.20991922  0.19577244  0.20090695  1
  Rh  Rh224  1  -0.00651856  0.81141495  0.39481208  1
  Rh  Rh225  1  0.80433347  0.40697266  0.00297751  1
  Rh  Rh226  1  0.60616780  0.00260638  0.59760322  1
  Rh  Rh227  1  0.40747908  0.00039147  0.60197255  1
  Rh  Rh228  1  0.19771590  0.40091001  0.80122639  1
  Rh  Rh229  1  0.20500246  0.59816801  0.80220577  1
  Rh  Rh230  1  0.61078452  0.59427689  0.00524703  1
  Rh  Rh231  1  0.00275947  0.79598729  0.19484827  1
  Rh  Rh232  1  0.59703012  0.40774149  0.60097773  1
  Rh  Rh233  1  0.79536290  0.00547942  0.20273626  1
  Rh  Rh234  1  0.00949924  -0.00190208  -0.00268373  1
  Rh  Rh235  1  0.39631699  0.39291794  0.00904922  1
  Rh  Rh236  1  0.59459586  0.00202803  0.40273991  1
  Rh  Rh237  1  0.19362606  0.19161985  0.78758915  1
  Rh  Rh238  1  0.20517001  0.81157683  0.01703626  1
  Rh  Rh239  1  0.40432353  0.20312752  0.00320343  1
  Rh  Rh240  1  0.80364161  0.20959049  0.38938215  1
  Rh  Rh241  1  0.58560939  0.80435122  0.39516648  1
  Rh  Rh242  1  0.60568107  0.20854187  0.80837918  1
  Rh  Rh243  1  -0.00685018  0.20026040  0.60011212  1
  Rh  Rh244  1  0.39138313  0.79688387  0.19931964  1
  Rh  Rh245  1  0.40877617  0.01028460  0.20875224  1
  Rh  Rh246  1  0.39794511  -0.00066940  -0.00850350  1
  Rh  Rh247  1  0.60374535  0.40044299  -0.00882050  1
  Rh  Rh248  1  0.59870228  0.19431236  0.00055643  1
  Rh  Rh249  1  -0.00957385  0.60632832  0.80944599  1
