# generated using pymatgen
data_ZrScNbPdRh
_symmetry_space_group_name_H-M   'P 1'
_cell_length_a   16.55835922
_cell_length_b   16.55767941
_cell_length_c   16.55353406
_cell_angle_alpha   90.00156943
_cell_angle_beta   89.99785861
_cell_angle_gamma   89.95875481
_symmetry_Int_Tables_number   1
_chemical_formula_structural   ZrScNbPdRh
_chemical_formula_sum   'Zr50 Sc50 Nb50 Pd50 Rh50'
_cell_volume   4538.44820152
_cell_formula_units_Z   50
loop_
 _symmetry_equiv_pos_site_id
 _symmetry_equiv_pos_as_xyz
  1  'x, y, z'
loop_
 _atom_site_type_symbol
 _atom_site_label
 _atom_site_symmetry_multiplicity
 _atom_site_fract_x
 _atom_site_fract_y
 _atom_site_fract_z
 _atom_site_occupancy
  Zr  Zr0  1  0.30413080  0.89281437  0.50237941  1
  Zr  Zr1  1  0.50828381  0.88240191  0.29720941  1
  Zr  Zr2  1  0.49677523  0.10343675  0.69633522  1
  Zr  Zr3  1  0.49753278  0.50310598  0.49708281  1
  Zr  Zr4  1  0.10049336  0.10550865  0.70396895  1
  Zr  Zr5  1  0.09823256  0.69686616  0.50138768  1
  Zr  Zr6  1  0.10429251  0.49557101  0.69902335  1
  Zr  Zr7  1  0.89636313  0.29948492  0.70464660  1
  Zr  Zr8  1  0.70369275  0.90020462  0.70081137  1
  Zr  Zr9  1  0.29498996  0.69295249  0.49654707  1
  Zr  Zr10  1  0.89110717  0.49968668  0.70109466  1
  Zr  Zr11  1  0.49625624  0.50141449  0.09488390  1
  Zr  Zr12  1  0.30180248  0.30521179  0.10280169  1
  Zr  Zr13  1  0.30322480  0.29797166  0.90260494  1
  Zr  Zr14  1  0.69781702  0.10436074  0.10051163  1
  Zr  Zr15  1  0.09686263  0.29643797  0.49699408  1
  Zr  Zr16  1  0.69113209  0.50544016  0.30544332  1
  Zr  Zr17  1  0.30739049  0.29966136  0.50121676  1
  Zr  Zr18  1  0.70598751  0.09682654  0.91171822  1
  Zr  Zr19  1  0.49790536  0.70863662  0.10260334  1
  Zr  Zr20  1  0.50390097  0.90490480  0.71364873  1
  Zr  Zr21  1  0.89777662  0.30317363  0.49429472  1
  Zr  Zr22  1  0.48878424  0.49632582  0.70509522  1
  Zr  Zr23  1  0.50205062  0.71099022  0.89979715  1
  Zr  Zr24  1  0.29864852  0.30409690  0.70002152  1
  Zr  Zr25  1  0.69755958  0.89593595  0.30009908  1
  Zr  Zr26  1  0.90833604  0.70151970  0.49912880  1
  Zr  Zr27  1  0.90234039  0.89743293  0.69892706  1
  Zr  Zr28  1  0.70138138  0.30529353  0.49663229  1
  Zr  Zr29  1  0.10131004  0.49865831  0.09672145  1
  Zr  Zr30  1  0.90017506  0.10194449  0.29518394  1
  Zr  Zr31  1  0.30509721  0.90433001  0.90582798  1
  Zr  Zr32  1  0.89650131  0.49823230  0.49637362  1
  Zr  Zr33  1  0.09965864  0.30595560  0.09623464  1
  Zr  Zr34  1  0.90109341  0.90513774  0.89673758  1
  Zr  Zr35  1  0.10037558  0.50508098  0.29778260  1
  Zr  Zr36  1  0.89132970  0.09669569  0.09790283  1
  Zr  Zr37  1  0.70004111  0.30770146  0.90103123  1
  Zr  Zr38  1  0.89198964  0.29947345  0.10425092  1
  Zr  Zr39  1  0.30604295  0.49887879  0.89245663  1
  Zr  Zr40  1  0.90156933  0.89546476  0.29248135  1
  Zr  Zr41  1  0.30064603  0.69750175  0.69607288  1
  Zr  Zr42  1  0.10468859  0.09861466  0.30237820  1
  Zr  Zr43  1  0.10267240  0.50402866  0.49590727  1
  Zr  Zr44  1  0.30000013  0.09458830  0.50081091  1
  Zr  Zr45  1  0.89950494  0.51352234  0.89544506  1
  Zr  Zr46  1  0.49792718  0.28468326  0.50266063  1
  Zr  Zr47  1  0.10157868  0.29841490  0.70604335  1
  Zr  Zr48  1  0.09914835  0.49891101  0.90325233  1
  Zr  Zr49  1  0.31243899  0.50125176  0.30384915  1
  Sc  Sc50  1  0.70239929  0.50217805  0.69775874  1
  Sc  Sc51  1  0.49381896  0.29986240  0.30405887  1
  Sc  Sc52  1  0.30737169  0.69983773  0.29719574  1
  Sc  Sc53  1  0.10056056  0.69806584  0.30693997  1
  Sc  Sc54  1  0.29512239  0.89427234  0.29667045  1
  Sc  Sc55  1  0.69467614  0.09590714  0.70456989  1
  Sc  Sc56  1  0.69761179  0.30398980  0.70618607  1
  Sc  Sc57  1  0.69993116  0.30194608  0.30136225  1
  Sc  Sc58  1  0.30031135  0.90130222  0.10198226  1
  Sc  Sc59  1  0.69660072  0.69966106  0.09598637  1
  Sc  Sc60  1  0.49313879  0.09854596  0.89517749  1
  Sc  Sc61  1  0.10226375  0.10741586  0.90036709  1
  Sc  Sc62  1  0.49773928  0.29436592  0.70543609  1
  Sc  Sc63  1  0.50535879  0.09877617  0.10125520  1
  Sc  Sc64  1  0.70347877  0.50112271  0.08858182  1
  Sc  Sc65  1  0.29753646  0.89439142  0.69807414  1
  Sc  Sc66  1  0.09888791  0.68681027  0.10709554  1
  Sc  Sc67  1  0.89237114  0.09967359  0.89893047  1
  Sc  Sc68  1  0.49089391  0.30393073  0.10073936  1
  Sc  Sc69  1  0.68976999  0.90280896  0.89988631  1
  Sc  Sc70  1  0.69881185  0.69313550  0.70045085  1
  Sc  Sc71  1  0.09513946  0.69431502  0.89238833  1
  Sc  Sc72  1  0.90492658  0.69291022  0.70092144  1
  Sc  Sc73  1  0.69827031  0.49784791  0.90157492  1
  Sc  Sc74  1  0.69779379  0.69187374  0.90519034  1
  Sc  Sc75  1  0.70227798  0.50051191  0.50557419  1
  Sc  Sc76  1  0.89865448  0.09917191  0.71007923  1
  Sc  Sc77  1  0.30077954  0.09910419  0.09831295  1
  Sc  Sc78  1  0.30351348  0.10342251  0.90183264  1
  Sc  Sc79  1  0.30009166  0.70695444  0.89182005  1
  Sc  Sc80  1  0.90694460  0.50487429  0.09686358  1
  Sc  Sc81  1  0.69595340  0.69097322  0.51210300  1
  Sc  Sc82  1  0.30713107  0.09753486  0.70548398  1
  Sc  Sc83  1  0.89821180  0.30412264  0.30257982  1
  Sc  Sc84  1  0.29414306  0.49805250  0.09966140  1
  Sc  Sc85  1  0.09918354  0.89620195  0.29170831  1
  Sc  Sc86  1  0.69350383  0.90992171  0.10086592  1
  Sc  Sc87  1  0.90606329  0.49682361  0.30046621  1
  Sc  Sc88  1  0.50567820  0.10763952  0.30000058  1
  Sc  Sc89  1  0.29655065  0.10079809  0.30012980  1
  Sc  Sc90  1  0.09928255  0.88923795  0.70079445  1
  Sc  Sc91  1  0.10489196  0.89234995  0.50156668  1
  Sc  Sc92  1  0.49456400  0.70199354  0.49741488  1
  Sc  Sc93  1  0.91233409  0.71048237  0.29338389  1
  Sc  Sc94  1  0.89441230  0.89631968  0.50434609  1
  Sc  Sc95  1  0.49992617  0.70122125  0.69961799  1
  Sc  Sc96  1  0.10381691  0.30144515  0.89476991  1
  Sc  Sc97  1  0.10418184  0.10281475  0.11076976  1
  Sc  Sc98  1  0.70071349  0.09395942  0.29717934  1
  Sc  Sc99  1  0.09741697  0.29710645  0.29435906  1
  Nb  Nb100  1  0.69543238  0.70417706  0.29338778  1
  Nb  Nb101  1  0.29827021  0.49492500  0.69063084  1
  Nb  Nb102  1  0.89570009  0.29636718  0.89924831  1
  Nb  Nb103  1  0.10109937  0.90166575  0.09864072  1
  Nb  Nb104  1  0.50501393  0.90324393  0.49593651  1
  Nb  Nb105  1  0.49512752  0.90357817  0.91188673  1
  Nb  Nb106  1  0.50729844  0.68959860  0.29277171  1
  Nb  Nb107  1  0.49573064  0.90215564  0.09528907  1
  Nb  Nb108  1  0.50035891  0.51008003  0.29493268  1
  Nb  Nb109  1  0.69787944  0.90447701  0.49914250  1
  Nb  Nb110  1  0.30590330  0.30184058  0.30219474  1
  Nb  Nb111  1  0.10466734  0.69935023  0.69679901  1
  Nb  Nb112  1  0.70202383  0.09110582  0.49972889  1
  Nb  Nb113  1  0.29842885  0.49701487  0.50738233  1
  Nb  Nb114  1  0.89943113  0.70358982  0.10080166  1
  Nb  Nb115  1  0.69813523  0.30628965  0.09662388  1
  Nb  Nb116  1  0.30137595  0.70392484  0.09161868  1
  Nb  Nb117  1  0.89793674  0.69695757  0.90427561  1
  Nb  Nb118  1  0.09988465  0.09940894  0.49872463  1
  Nb  Nb119  1  0.50215499  0.31573258  0.90090803  1
  Nb  Nb120  1  0.90093872  0.10334227  0.49664172  1
  Nb  Nb121  1  0.90616088  0.89249839  0.10384527  1
  Nb  Nb122  1  0.10132576  0.89660348  0.89991653  1
  Nb  Nb123  1  0.49982761  0.09703008  0.50101356  1
  Nb  Nb124  1  0.49982573  0.49690923  0.89954152  1
  Nb  Nb125  1  0.60006001  0.81354971  0.59665597  1
  Nb  Nb126  1  0.40764384  -0.00657994  0.20503676  1
  Nb  Nb127  1  0.79151190  0.79596768  0.39958908  1
  Nb  Nb128  1  0.80015329  0.60807269  0.20384708  1
  Nb  Nb129  1  -0.00065666  0.39741317  0.60065128  1
  Nb  Nb130  1  0.40137691  0.60490093  -0.00493398  1
  Nb  Nb131  1  0.19179846  0.80226654  -0.00016055  1
  Nb  Nb132  1  0.79861060  0.19289160  0.59165655  1
  Nb  Nb133  1  0.59363478  0.39843477  0.59828868  1
  Nb  Nb134  1  0.19763501  -0.00671279  0.80584903  1
  Nb  Nb135  1  0.59002803  0.59535914  0.80463497  1
  Nb  Nb136  1  -0.00059752  0.00391707  0.40569433  1
  Nb  Nb137  1  0.40824195  -0.00467059  0.40060136  1
  Nb  Nb138  1  0.00192806  0.00797978  0.59391428  1
  Nb  Nb139  1  -0.00765878  0.19999615  0.00267099  1
  Nb  Nb140  1  0.59637078  0.40635278  0.20024324  1
  Nb  Nb141  1  0.60155387  0.21047580  -0.00115335  1
  Nb  Nb142  1  0.00320894  -0.00401407  0.00373018  1
  Nb  Nb143  1  0.20271706  0.59640484  0.79024943  1
  Nb  Nb144  1  0.19814498  0.19664605  0.59712266  1
  Nb  Nb145  1  0.80817806  0.80164413  0.00079051  1
  Nb  Nb146  1  0.79879639  0.61068442  0.39135365  1
  Nb  Nb147  1  0.00051932  0.80086850  0.00278873  1
  Nb  Nb148  1  0.80249229  0.79613011  0.80753734  1
  Nb  Nb149  1  0.20883253  0.40023439  0.39929454  1
  Pd  Pd150  1  0.60785671  0.19323491  0.40093010  1
  Pd  Pd151  1  -0.00442749  0.20013622  0.60299480  1
  Pd  Pd152  1  0.20494666  0.20446668  0.19909239  1
  Pd  Pd153  1  0.19932328  -0.01077608  0.39721737  1
  Pd  Pd154  1  0.80774953  0.00754554  0.60326456  1
  Pd  Pd155  1  0.61111161  0.20206217  0.59928572  1
  Pd  Pd156  1  0.60162994  0.60827357  0.40650345  1
  Pd  Pd157  1  0.59562644  0.00501165  0.39312418  1
  Pd  Pd158  1  0.40096927  0.79730321  0.39480908  1
  Pd  Pd159  1  0.79390431  0.79106302  0.60202791  1
  Pd  Pd160  1  -0.00112780  0.59197534  0.60441771  1
  Pd  Pd161  1  0.59853382  -0.00061778  0.60191394  1
  Pd  Pd162  1  0.79252539  0.19681538  0.39874964  1
  Pd  Pd163  1  0.59971065  0.21405508  0.19464397  1
  Pd  Pd164  1  0.79193503  0.19752305  0.79491222  1
  Pd  Pd165  1  0.79225069  0.41228269  0.20465551  1
  Pd  Pd166  1  0.79356599  0.20411195  0.20546168  1
  Pd  Pd167  1  0.59107327  0.39904703  0.39995604  1
  Pd  Pd168  1  0.19293260  0.00123317  0.61091806  1
  Pd  Pd169  1  0.79700641  -0.00521394  0.19671812  1
  Pd  Pd170  1  0.00347262  0.00356452  0.20009836  1
  Pd  Pd171  1  0.20281102  0.39965789  0.20909554  1
  Pd  Pd172  1  0.39803609  0.80562279  0.79793184  1
  Pd  Pd173  1  0.40312921  -0.00597179  0.59900030  1
  Pd  Pd174  1  0.00831842  0.00498044  0.80159097  1
  Pd  Pd175  1  -0.00130668  0.19755906  0.39099566  1
  Pd  Pd176  1  0.19875517  0.79977456  0.39727434  1
  Pd  Pd177  1  0.20529044  0.20675765  0.40176043  1
  Pd  Pd178  1  0.80745830  -0.00809929  0.39812994  1
  Pd  Pd179  1  0.39238293  0.60308699  0.18907404  1
  Pd  Pd180  1  0.41110902  0.19745221  -0.00003256  1
  Pd  Pd181  1  -0.00517522  0.40120956  0.80089395  1
  Pd  Pd182  1  0.41012799  0.80364840  0.60273741  1
  Pd  Pd183  1  0.40222642  0.60146524  0.59699267  1
  Pd  Pd184  1  0.19559649  0.00152850  -0.00239095  1
  Pd  Pd185  1  0.40488981  0.40102134  0.40248601  1
  Pd  Pd186  1  0.19419172  0.20010957  0.00365566  1
  Pd  Pd187  1  0.60889672  0.80492147  0.00302161  1
  Pd  Pd188  1  0.80949197  0.40681200  -0.00399986  1
  Pd  Pd189  1  0.59897606  0.00641198  0.80847805  1
  Pd  Pd190  1  0.60647072  0.78753212  0.41126233  1
  Pd  Pd191  1  -0.00837554  0.39380490  -0.00636324  1
  Pd  Pd192  1  0.19807307  0.79200725  0.19247930  1
  Pd  Pd193  1  0.60744426  0.59564430  0.18725057  1
  Pd  Pd194  1  -0.00330399  0.79081022  0.80173519  1
  Pd  Pd195  1  0.20926580  0.60306873  0.20452122  1
  Pd  Pd196  1  0.39771242  0.19197783  0.20178551  1
  Pd  Pd197  1  0.59852570  0.19914930  0.81111078  1
  Pd  Pd198  1  0.20571161  0.60873537  -0.01098790  1
  Pd  Pd199  1  -0.00173257  0.39924045  0.20023358  1
  Rh  Rh200  1  0.40215148  0.60458373  0.40132004  1
  Rh  Rh201  1  0.79782385  0.20835118  0.00055169  1
  Rh  Rh202  1  0.60308214  0.80187370  0.18821924  1
  Rh  Rh203  1  0.80409591  0.60453404  0.00763315  1
  Rh  Rh204  1  0.39600861  0.39341939  0.79893383  1
  Rh  Rh205  1  0.80515884  -0.01206249  0.00498250  1
  Rh  Rh206  1  0.79733629  0.38871544  0.60332295  1
  Rh  Rh207  1  0.39852003  0.60118388  0.80314740  1
  Rh  Rh208  1  0.59108643  0.00890407  -0.00325881  1
  Rh  Rh209  1  0.40062477  0.80257968  0.19958196  1
  Rh  Rh210  1  0.20086867  0.60265614  0.60371508  1
  Rh  Rh211  1  0.80795216  0.60447481  0.59394270  1
  Rh  Rh212  1  0.19851139  0.79785016  0.80274081  1
  Rh  Rh213  1  0.79757298  0.41177575  0.39119715  1
  Rh  Rh214  1  0.20800112  0.59341220  0.39514999  1
  Rh  Rh215  1  0.00200258  0.60477613  0.00287741  1
  Rh  Rh216  1  0.40938754  0.39650646  0.59869138  1
  Rh  Rh217  1  0.59203405  -0.00418085  0.20417502  1
  Rh  Rh218  1  0.79144380  0.79712195  0.19684428  1
  Rh  Rh219  1  0.00763254  0.59986550  0.79327634  1
  Rh  Rh220  1  0.40615246  0.40168363  0.20347043  1
  Rh  Rh221  1  0.19370432  0.39079132  0.58951985  1
  Rh  Rh222  1  0.20963663  0.19253294  0.79474397  1
  Rh  Rh223  1  0.01029665  0.40096348  0.40131075  1
  Rh  Rh224  1  0.60879293  0.79127116  0.79346577  1
  Rh  Rh225  1  0.20390854  0.39839635  -0.00403727  1
  Rh  Rh226  1  0.20570743  0.40485073  0.80517961  1
  Rh  Rh227  1  0.01481998  0.79396829  0.19439762  1
  Rh  Rh228  1  0.39771727  0.18704349  0.39724474  1
  Rh  Rh229  1  -0.00775392  0.60130371  0.39385521  1
  Rh  Rh230  1  0.19899601  0.79402624  0.59726947  1
  Rh  Rh231  1  0.40290188  0.20711236  0.80465319  1
  Rh  Rh232  1  0.39368900  0.40716427  0.00043388  1
  Rh  Rh233  1  0.39302499  0.79903356  0.00151767  1
  Rh  Rh234  1  0.39425213  -0.00466857  0.80144016  1
  Rh  Rh235  1  -0.00533204  0.59990141  0.20224475  1
  Rh  Rh236  1  0.78877110  0.60433339  0.80314447  1
  Rh  Rh237  1  -0.00421099  0.81134786  0.40232113  1
  Rh  Rh238  1  0.20894765  -0.00129714  0.20121561  1
  Rh  Rh239  1  -0.00545227  0.19926819  0.81457765  1
  Rh  Rh240  1  0.40398331  0.00631262  0.00937272  1
  Rh  Rh241  1  0.00354745  0.80431398  0.60032934  1
  Rh  Rh242  1  0.39214639  0.19541515  0.60312859  1
  Rh  Rh243  1  0.79388895  -0.00573079  0.80132614  1
  Rh  Rh244  1  0.59046046  0.59250163  0.61091709  1
  Rh  Rh245  1  0.79956932  0.40537188  0.80687259  1
  Rh  Rh246  1  0.58938728  0.59987706  -0.00631851  1
  Rh  Rh247  1  0.60101748  0.40860180  0.79045874  1
  Rh  Rh248  1  0.59548475  0.39739229  0.00858434  1
  Rh  Rh249  1  -0.00321839  0.20275789  0.19428604  1
