# generated using pymatgen
data_ZrScNbPdRh
_symmetry_space_group_name_H-M   'P 1'
_cell_length_a   16.56031448
_cell_length_b   16.55976434
_cell_length_c   16.55254237
_cell_angle_alpha   89.99431660
_cell_angle_beta   89.99118392
_cell_angle_gamma   90.01300492
_symmetry_Int_Tables_number   1
_chemical_formula_structural   ZrScNbPdRh
_chemical_formula_sum   'Zr50 Sc50 Nb50 Pd50 Rh50'
_cell_volume   4539.28469284
_cell_formula_units_Z   50
loop_
 _symmetry_equiv_pos_site_id
 _symmetry_equiv_pos_as_xyz
  1  'x, y, z'
loop_
 _atom_site_type_symbol
 _atom_site_label
 _atom_site_symmetry_multiplicity
 _atom_site_fract_x
 _atom_site_fract_y
 _atom_site_fract_z
 _atom_site_occupancy
  Zr  Zr0  1  0.29865097  0.88656189  0.29698067  1
  Zr  Zr1  1  0.69446074  0.50497076  0.10221866  1
  Zr  Zr2  1  0.29519570  0.09588967  0.09518551  1
  Zr  Zr3  1  0.29937169  0.50192981  0.29997508  1
  Zr  Zr4  1  0.90246105  0.71216305  0.90070514  1
  Zr  Zr5  1  0.50349125  0.90145999  0.30199743  1
  Zr  Zr6  1  0.90906598  0.10168496  0.30030888  1
  Zr  Zr7  1  0.50800689  0.50661836  0.30471153  1
  Zr  Zr8  1  0.09966991  0.70435480  0.50512202  1
  Zr  Zr9  1  0.69185088  0.69624980  0.90453993  1
  Zr  Zr10  1  0.29998250  0.29924490  0.30325519  1
  Zr  Zr11  1  0.28991016  0.30477032  0.49621157  1
  Zr  Zr12  1  0.69218028  0.89603181  0.69047876  1
  Zr  Zr13  1  0.50159530  0.10207676  0.30639143  1
  Zr  Zr14  1  0.49876654  0.09030947  0.69723488  1
  Zr  Zr15  1  0.69966768  0.69988336  0.30189441  1
  Zr  Zr16  1  0.89483187  0.69960445  0.49949092  1
  Zr  Zr17  1  0.90698018  0.10259059  0.10954185  1
  Zr  Zr18  1  0.50048609  0.90907151  0.90270140  1
  Zr  Zr19  1  0.31327102  0.30125282  0.10794023  1
  Zr  Zr20  1  0.69520551  0.29187276  0.89871083  1
  Zr  Zr21  1  0.29692280  0.91026765  0.70066696  1
  Zr  Zr22  1  0.89600559  0.90130352  0.71066045  1
  Zr  Zr23  1  0.10156325  0.09585127  0.10508712  1
  Zr  Zr24  1  0.90709697  0.49728041  0.29371779  1
  Zr  Zr25  1  0.70330133  0.70297914  0.09947645  1
  Zr  Zr26  1  0.09754001  0.70256960  0.29810635  1
  Zr  Zr27  1  0.69156395  0.90120210  0.09155908  1
  Zr  Zr28  1  0.30412966  0.10205026  0.30632653  1
  Zr  Zr29  1  0.29716884  0.70608620  0.11167220  1
  Zr  Zr30  1  0.50116231  0.49937745  0.10288729  1
  Zr  Zr31  1  0.10943763  0.69999770  0.08960018  1
  Zr  Zr32  1  0.09894928  0.90016691  0.69464485  1
  Zr  Zr33  1  0.88686105  0.29648496  0.89283701  1
  Zr  Zr34  1  0.89832785  0.49844028  0.50268208  1
  Zr  Zr35  1  0.69922786  0.10457378  0.89197905  1
  Zr  Zr36  1  0.29687318  0.89992654  0.09866113  1
  Zr  Zr37  1  0.70112002  0.10570077  0.30469287  1
  Zr  Zr38  1  0.50381112  0.30458635  0.09575470  1
  Zr  Zr39  1  0.10213741  0.09157413  0.49159891  1
  Zr  Zr40  1  0.09531757  0.50710858  0.69790170  1
  Zr  Zr41  1  0.28588386  0.10522546  0.89409083  1
  Zr  Zr42  1  0.30770308  0.50668858  0.69118486  1
  Zr  Zr43  1  0.10236816  0.09555045  0.69656895  1
  Zr  Zr44  1  0.50298175  0.10007523  0.49984074  1
  Zr  Zr45  1  0.70536535  0.30088036  0.30534293  1
  Zr  Zr46  1  0.69431514  0.69888424  0.68946573  1
  Zr  Zr47  1  0.89437298  0.29858224  0.30682556  1
  Zr  Zr48  1  0.50277070  0.08828548  0.09223570  1
  Zr  Zr49  1  0.89692893  0.69928711  0.30215824  1
  Sc  Sc50  1  0.91149998  0.10282604  0.50157388  1
  Sc  Sc51  1  0.51445876  0.30349050  0.50205336  1
  Sc  Sc52  1  0.90211550  0.09639522  0.69647700  1
  Sc  Sc53  1  0.90559151  0.89286496  0.29869764  1
  Sc  Sc54  1  0.89627731  0.70031309  0.10610474  1
  Sc  Sc55  1  0.10067270  0.90125877  0.50028874  1
  Sc  Sc56  1  0.10712773  0.49705588  0.90599725  1
  Sc  Sc57  1  0.89879691  0.29745431  0.12103516  1
  Sc  Sc58  1  0.50307748  0.50456319  0.89754635  1
  Sc  Sc59  1  0.89850795  0.88880375  0.10187167  1
  Sc  Sc60  1  0.29944704  0.48787243  0.90048174  1
  Sc  Sc61  1  0.49420197  0.28786191  0.70029214  1
  Sc  Sc62  1  0.50462588  0.69477549  0.10267679  1
  Sc  Sc63  1  0.49351212  0.70086929  0.30352877  1
  Sc  Sc64  1  0.50777104  0.69782006  0.49848874  1
  Sc  Sc65  1  0.10706184  0.90319292  0.10687353  1
  Sc  Sc66  1  0.69086953  0.11256580  0.49677565  1
  Sc  Sc67  1  0.69864168  0.50539134  0.69670810  1
  Sc  Sc68  1  0.10063503  0.30545622  0.30876552  1
  Sc  Sc69  1  0.30419732  0.09720254  0.49525438  1
  Sc  Sc70  1  0.70122249  0.70539835  0.49847029  1
  Sc  Sc71  1  0.69908120  0.89618518  0.30581479  1
  Sc  Sc72  1  0.30462080  0.29920421  0.71042134  1
  Sc  Sc73  1  0.89030794  0.50655267  0.89265574  1
  Sc  Sc74  1  0.89295604  0.50341810  0.69434336  1
  Sc  Sc75  1  0.09723870  0.29909652  0.10834698  1
  Sc  Sc76  1  0.89856416  0.69573005  0.69653538  1
  Sc  Sc77  1  0.09596064  0.88717581  0.89339198  1
  Sc  Sc78  1  0.90463803  0.89583752  0.50064493  1
  Sc  Sc79  1  0.10479571  0.30262397  0.69599472  1
  Sc  Sc80  1  0.49995611  0.50909739  0.69795878  1
  Sc  Sc81  1  0.70505543  0.89399024  0.89467386  1
  Sc  Sc82  1  0.71111644  0.29563178  0.69285584  1
  Sc  Sc83  1  0.28917672  0.89403911  0.49517748  1
  Sc  Sc84  1  0.29077585  0.90033713  0.89554964  1
  Sc  Sc85  1  0.10315612  0.49740780  0.50568305  1
  Sc  Sc86  1  0.70152035  0.49742629  0.30380837  1
  Sc  Sc87  1  0.10121011  0.49710427  0.10969879  1
  Sc  Sc88  1  0.49176199  0.30353033  0.29533605  1
  Sc  Sc89  1  0.30664272  0.70034625  0.70785188  1
  Sc  Sc90  1  0.69725285  0.50558766  0.89939720  1
  Sc  Sc91  1  0.29592277  0.49946821  0.10110507  1
  Sc  Sc92  1  0.09259798  0.70409177  0.70396629  1
  Sc  Sc93  1  0.12171816  0.30049144  0.89454821  1
  Sc  Sc94  1  0.09597125  0.30218071  0.49933508  1
  Sc  Sc95  1  0.69489985  0.49572628  0.49998885  1
  Sc  Sc96  1  0.89246259  0.09864677  0.88676296  1
  Sc  Sc97  1  0.50474457  0.50215896  0.50759780  1
  Sc  Sc98  1  0.69965666  0.10405598  0.09379444  1
  Sc  Sc99  1  0.51504672  0.90256778  0.50110671  1
  Nb  Nb100  1  0.09958281  0.09202706  0.29751688  1
  Nb  Nb101  1  0.89812718  0.90275984  0.89981806  1
  Nb  Nb102  1  0.90294217  0.49343085  0.09786995  1
  Nb  Nb103  1  0.69812604  0.09378046  0.69957239  1
  Nb  Nb104  1  0.30015992  0.70341868  0.30912693  1
  Nb  Nb105  1  0.09906052  0.10772132  0.90555059  1
  Nb  Nb106  1  0.31108962  0.29634274  0.89947408  1
  Nb  Nb107  1  0.48936548  0.69582738  0.88960469  1
  Nb  Nb108  1  0.70359610  0.89552652  0.49932797  1
  Nb  Nb109  1  0.10255211  0.91253640  0.30216421  1
  Nb  Nb110  1  0.90115980  0.29948532  0.69690815  1
  Nb  Nb111  1  0.71011502  0.30456733  0.49163091  1
  Nb  Nb112  1  0.10467972  0.69764248  0.90079013  1
  Nb  Nb113  1  0.49729266  0.90005052  0.09810830  1
  Nb  Nb114  1  0.88703414  0.30124944  0.50859046  1
  Nb  Nb115  1  0.70135112  0.30373810  0.10279571  1
  Nb  Nb116  1  0.49662033  0.89741206  0.69822490  1
  Nb  Nb117  1  0.10048878  0.50142955  0.30621446  1
  Nb  Nb118  1  0.50519960  0.10928697  0.89248921  1
  Nb  Nb119  1  0.30108777  0.50519656  0.50333176  1
  Nb  Nb120  1  0.29903759  0.10020252  0.69486810  1
  Nb  Nb121  1  0.49574836  0.69578727  0.70378443  1
  Nb  Nb122  1  0.49927537  0.29463491  0.89183551  1
  Nb  Nb123  1  0.30121824  0.70073883  0.49687780  1
  Nb  Nb124  1  0.29141927  0.69994960  0.90644724  1
  Nb  Nb125  1  0.59703277  0.80379027  0.19707262  1
  Nb  Nb126  1  -0.00016685  0.20192614  -0.00807049  1
  Nb  Nb127  1  0.40150326  -0.00430718  0.19930227  1
  Nb  Nb128  1  0.79914757  -0.00017969  0.20078382  1
  Nb  Nb129  1  0.79264378  -0.00188506  0.59447406  1
  Nb  Nb130  1  -0.00435308  0.39513744  0.80188786  1
  Nb  Nb131  1  0.20480315  0.60347136  0.40254029  1
  Nb  Nb132  1  0.80704806  -0.00096716  -0.00048511  1
  Nb  Nb133  1  0.40299225  0.19966134  -0.00987765  1
  Nb  Nb134  1  -0.00331258  0.00248360  -0.00493460  1
  Nb  Nb135  1  0.00270156  0.20538007  0.80068660  1
  Nb  Nb136  1  0.40482823  0.80028791  0.60454932  1
  Nb  Nb137  1  0.39423255  0.60736586  -0.00384732  1
  Nb  Nb138  1  -0.00862133  0.39608407  -0.00407355  1
  Nb  Nb139  1  0.59908573  0.39198279  0.79952569  1
  Nb  Nb140  1  0.58645630  0.79579488  0.79516314  1
  Nb  Nb141  1  0.20421493  0.19450470  0.59977090  1
  Nb  Nb142  1  0.79906232  0.39748224  0.00755600  1
  Nb  Nb143  1  0.20277783  0.19428664  0.20739379  1
  Nb  Nb144  1  0.20083826  0.60261474  0.80523400  1
  Nb  Nb145  1  -0.00029598  0.59716244  -0.00020610  1
  Nb  Nb146  1  0.39536529  0.40792997  0.40565494  1
  Nb  Nb147  1  0.80053359  0.00118650  0.40307933  1
  Nb  Nb148  1  0.40035819  0.79593675  -0.00352729  1
  Nb  Nb149  1  0.59967936  0.20332686  0.19660864  1
  Pd  Pd150  1  0.00716674  0.00493460  0.80587654  1
  Pd  Pd151  1  0.20334954  0.39646427  0.60666400  1
  Pd  Pd152  1  0.39568891  -0.01036570  0.58769030  1
  Pd  Pd153  1  0.00415290  0.59357340  0.81017934  1
  Pd  Pd154  1  0.19748676  0.39323612  0.20279453  1
  Pd  Pd155  1  0.00159787  0.20603686  0.40147480  1
  Pd  Pd156  1  0.39906227  0.60021190  0.19585343  1
  Pd  Pd157  1  -0.00443183  0.39852834  0.40506453  1
  Pd  Pd158  1  0.19919447  0.40856552  0.79089946  1
  Pd  Pd159  1  0.79098628  0.79182580  0.79618645  1
  Pd  Pd160  1  0.20216980  0.21287683  0.01095621  1
  Pd  Pd161  1  0.00825297  0.80209864  0.19510382  1
  Pd  Pd162  1  0.58745747  0.79360462  -0.00403705  1
  Pd  Pd163  1  0.39672178  0.80531568  0.80213336  1
  Pd  Pd164  1  0.80810865  0.59709850  0.00289486  1
  Pd  Pd165  1  0.40815591  0.21407514  0.41189334  1
  Pd  Pd166  1  0.00228820  0.60099532  0.19159475  1
  Pd  Pd167  1  0.60434010  -0.00722021  0.80123128  1
  Pd  Pd168  1  0.39362968  0.20470165  0.59284478  1
  Pd  Pd169  1  0.39293834  0.00170665  -0.00766238  1
  Pd  Pd170  1  0.39737758  0.00696740  0.80514023  1
  Pd  Pd171  1  0.00433295  0.80451751  0.39978986  1
  Pd  Pd172  1  0.60257050  0.00101433  0.20317923  1
  Pd  Pd173  1  -0.00720448  0.80165137  0.60513276  1
  Pd  Pd174  1  0.19807191  0.60123245  0.20712903  1
  Pd  Pd175  1  0.79500132  0.60826199  0.79684757  1
  Pd  Pd176  1  0.60209695  0.39467941  0.20861532  1
  Pd  Pd177  1  -0.00300420  0.40026646  0.60583098  1
  Pd  Pd178  1  0.79403189  0.40397319  0.79856904  1
  Pd  Pd179  1  0.59547916  0.19860087  0.00399796  1
  Pd  Pd180  1  0.00795617  0.20251084  0.60326332  1
  Pd  Pd181  1  0.20957740  0.79443693  0.60881034  1
  Pd  Pd182  1  0.79844599  0.18836560  0.59726870  1
  Pd  Pd183  1  0.39691127  -0.01235318  0.40191976  1
  Pd  Pd184  1  0.80065225  0.59410034  0.20065789  1
  Pd  Pd185  1  0.40436127  0.40280216  -0.00509660  1
  Pd  Pd186  1  0.19757809  0.39253723  0.00874083  1
  Pd  Pd187  1  0.41029598  0.40693595  0.79697575  1
  Pd  Pd188  1  0.60444023  0.40250170  -0.01021171  1
  Pd  Pd189  1  0.18841698  -0.00112625  0.80485616  1
  Pd  Pd190  1  0.80918263  0.19964194  0.00956844  1
  Pd  Pd191  1  0.40851310  0.80512991  0.41426618  1
  Pd  Pd192  1  0.20075253  0.61122815  0.60489339  1
  Pd  Pd193  1  0.60556793  0.39548861  0.61079102  1
  Pd  Pd194  1  0.00767374  0.59752481  0.40800500  1
  Pd  Pd195  1  0.60418884  0.20316748  0.60510955  1
  Pd  Pd196  1  0.00274692  0.80177919  0.00451780  1
  Pd  Pd197  1  0.79528180  0.59302344  0.40328626  1
  Pd  Pd198  1  0.40094739  0.59641082  0.40702157  1
  Pd  Pd199  1  0.40352251  0.39269414  0.59628080  1
  Rh  Rh200  1  0.19201926  0.79932156  0.20699082  1
  Rh  Rh201  1  0.19074531  0.79535664  0.39623846  1
  Rh  Rh202  1  0.19854744  0.79196264  0.79476505  1
  Rh  Rh203  1  0.20117580  0.59205469  -0.00256133  1
  Rh  Rh204  1  0.39645375  0.18806099  0.80149230  1
  Rh  Rh205  1  0.20219077  0.41424286  0.40280083  1
  Rh  Rh206  1  0.20516020  -0.00339470  0.39734832  1
  Rh  Rh207  1  0.60528427  0.00396830  0.59472338  1
  Rh  Rh208  1  0.61106039  0.00328569  -0.01480716  1
  Rh  Rh209  1  0.59918673  0.60154998  0.59723888  1
  Rh  Rh210  1  -0.00144879  0.79871281  0.79781279  1
  Rh  Rh211  1  0.19191860  0.19295074  0.40013808  1
  Rh  Rh212  1  -0.00255359  0.60228848  0.59512557  1
  Rh  Rh213  1  0.58981912  0.79481029  0.60314580  1
  Rh  Rh214  1  0.80227790  0.80418305  -0.00166003  1
  Rh  Rh215  1  -0.00821618  -0.00770996  0.60065368  1
  Rh  Rh216  1  0.59483842  0.21299172  0.39152575  1
  Rh  Rh217  1  0.80306552  0.19224507  0.78349148  1
  Rh  Rh218  1  0.78840709  0.19407091  0.19796243  1
  Rh  Rh219  1  0.79620998  0.59885368  0.59189281  1
  Rh  Rh220  1  0.59427439  0.39833871  0.39837272  1
  Rh  Rh221  1  0.40402387  0.18365755  0.18560062  1
  Rh  Rh222  1  0.60348548  0.20296885  0.78505781  1
  Rh  Rh223  1  0.40252229  0.61259926  0.59346473  1
  Rh  Rh224  1  -0.00529141  -0.00613090  0.39832265  1
  Rh  Rh225  1  0.20224620  0.80719648  -0.00239720  1
  Rh  Rh226  1  0.40293456  0.41288502  0.20829108  1
  Rh  Rh227  1  0.38732057  0.59084608  0.80911251  1
  Rh  Rh228  1  0.79220636  0.00041102  0.79612615  1
  Rh  Rh229  1  0.58903520  0.60279646  -0.00209909  1
  Rh  Rh230  1  0.40848339  0.80372493  0.19384818  1
  Rh  Rh231  1  0.79735306  0.40688913  0.19741733  1
  Rh  Rh232  1  0.21188665  0.00403766  0.21156756  1
  Rh  Rh233  1  0.78833082  0.80622039  0.20181483  1
  Rh  Rh234  1  0.60258214  0.59987485  0.79787319  1
  Rh  Rh235  1  0.79587468  0.40323355  0.60008483  1
  Rh  Rh236  1  0.01527580  0.20610888  0.21034483  1
  Rh  Rh237  1  0.80651403  0.80624126  0.60067758  1
  Rh  Rh238  1  0.20500034  0.00587089  0.59315090  1
  Rh  Rh239  1  0.18406403  -0.00979590  -0.01077936  1
  Rh  Rh240  1  0.80915368  0.19356706  0.41094596  1
  Rh  Rh241  1  0.19760147  0.19986797  0.78803450  1
  Rh  Rh242  1  0.00414907  0.39890215  0.20386895  1
  Rh  Rh243  1  0.61119817  -0.00075325  0.40765986  1
  Rh  Rh244  1  0.59968333  0.79655108  0.39375777  1
  Rh  Rh245  1  0.60467795  0.60137438  0.40243679  1
  Rh  Rh246  1  0.80391902  0.80468589  0.39865654  1
  Rh  Rh247  1  0.60271075  0.60884295  0.20460861  1
  Rh  Rh248  1  -0.00751088  -0.01130018  0.19671251  1
  Rh  Rh249  1  0.80575458  0.40633266  0.40104242  1
