# generated using pymatgen
data_ZrScNbPdRh
_symmetry_space_group_name_H-M   'P 1'
_cell_length_a   16.55895469
_cell_length_b   16.55966866
_cell_length_c   16.55936831
_cell_angle_alpha   89.97732053
_cell_angle_beta   89.96937443
_cell_angle_gamma   90.03041911
_symmetry_Int_Tables_number   1
_chemical_formula_structural   ZrScNbPdRh
_chemical_formula_sum   'Zr50 Sc50 Nb50 Pd50 Rh50'
_cell_volume   4540.75603799
_cell_formula_units_Z   50
loop_
 _symmetry_equiv_pos_site_id
 _symmetry_equiv_pos_as_xyz
  1  'x, y, z'
loop_
 _atom_site_type_symbol
 _atom_site_label
 _atom_site_symmetry_multiplicity
 _atom_site_fract_x
 _atom_site_fract_y
 _atom_site_fract_z
 _atom_site_occupancy
  Zr  Zr0  1  0.49724231  0.50511691  0.69669902  1
  Zr  Zr1  1  0.09852056  0.90160904  0.90292067  1
  Zr  Zr2  1  0.09714926  0.10741532  0.69311242  1
  Zr  Zr3  1  0.29379212  0.49392913  0.69536673  1
  Zr  Zr4  1  0.29887921  0.29201532  0.90413368  1
  Zr  Zr5  1  0.69958682  0.89970875  0.69294889  1
  Zr  Zr6  1  0.90304735  0.89789776  0.10657286  1
  Zr  Zr7  1  0.90271166  0.89801222  0.89650353  1
  Zr  Zr8  1  0.70049842  0.69595800  0.30902464  1
  Zr  Zr9  1  0.50683071  0.29910160  0.69273094  1
  Zr  Zr10  1  0.70047472  0.69918725  0.50306267  1
  Zr  Zr11  1  0.50612580  0.29509551  0.89778666  1
  Zr  Zr12  1  0.70043982  0.09662407  0.30519114  1
  Zr  Zr13  1  0.50270649  0.51344576  0.90989636  1
  Zr  Zr14  1  0.89894524  0.10660299  0.90218522  1
  Zr  Zr15  1  0.30293714  0.90149783  0.70458296  1
  Zr  Zr16  1  0.50061109  0.90621395  0.70488764  1
  Zr  Zr17  1  0.69221560  0.50231829  0.11145215  1
  Zr  Zr18  1  0.09285099  0.49546587  0.69403474  1
  Zr  Zr19  1  0.09731497  0.08909212  0.10533438  1
  Zr  Zr20  1  0.89529820  0.69082978  0.90280039  1
  Zr  Zr21  1  0.50020403  0.90840749  0.10925383  1
  Zr  Zr22  1  0.70474774  0.49759610  0.29976855  1
  Zr  Zr23  1  0.50013291  0.89954047  0.49420184  1
  Zr  Zr24  1  0.10014863  0.69794797  0.69300128  1
  Zr  Zr25  1  0.09705956  0.90624070  0.70636634  1
  Zr  Zr26  1  0.30691686  0.09773166  0.09414688  1
  Zr  Zr27  1  0.08514802  0.50005246  0.90080096  1
  Zr  Zr28  1  0.30415752  0.28990532  0.10312027  1
  Zr  Zr29  1  0.30230704  0.70452959  0.90211291  1
  Zr  Zr30  1  0.50359245  0.09264927  0.90930443  1
  Zr  Zr31  1  0.30735167  0.70014834  0.49351207  1
  Zr  Zr32  1  0.09620203  0.29902166  0.69307029  1
  Zr  Zr33  1  0.68983179  0.89204434  0.29680832  1
  Zr  Zr34  1  0.89632538  0.70112750  0.30166478  1
  Zr  Zr35  1  0.90233065  0.30068760  0.69391370  1
  Zr  Zr36  1  0.30115873  0.09704625  0.69822770  1
  Zr  Zr37  1  0.90274002  0.10269612  0.69726346  1
  Zr  Zr38  1  0.70391743  0.50450031  0.49821561  1
  Zr  Zr39  1  0.10233904  0.49726389  0.49130090  1
  Zr  Zr40  1  0.71101397  0.50823073  0.69216723  1
  Zr  Zr41  1  0.50463532  0.69359605  0.49935865  1
  Zr  Zr42  1  0.70484128  0.10626889  0.90009214  1
  Zr  Zr43  1  0.70019505  0.10190758  0.69642677  1
  Zr  Zr44  1  0.50135996  0.68723248  0.08999796  1
  Zr  Zr45  1  0.49831480  0.70808977  0.30876478  1
  Zr  Zr46  1  0.10202186  0.68537271  0.30225144  1
  Zr  Zr47  1  0.70453431  0.29372728  0.89723815  1
  Zr  Zr48  1  0.69667654  0.70242985  0.69834183  1
  Zr  Zr49  1  0.29594508  0.50134471  0.10263759  1
  Sc  Sc50  1  0.10523993  0.89623691  0.09885282  1
  Sc  Sc51  1  0.29721734  0.90348566  0.10472900  1
  Sc  Sc52  1  0.70464201  0.09690942  0.49622304  1
  Sc  Sc53  1  0.70088337  0.29330186  0.69464698  1
  Sc  Sc54  1  0.30367183  0.50279279  0.89764081  1
  Sc  Sc55  1  0.28946774  0.29902007  0.69650885  1
  Sc  Sc56  1  0.90088438  0.30170203  0.29534094  1
  Sc  Sc57  1  0.50125258  0.09380876  0.49220613  1
  Sc  Sc58  1  0.50589372  0.50107874  0.30551640  1
  Sc  Sc59  1  0.49268542  0.50083392  0.50476635  1
  Sc  Sc60  1  0.10420331  0.29691035  0.49627131  1
  Sc  Sc61  1  0.30008602  0.29951986  0.31015546  1
  Sc  Sc62  1  0.50419272  0.09553473  0.29217796  1
  Sc  Sc63  1  0.89737135  0.69843890  0.69207088  1
  Sc  Sc64  1  0.90387006  0.29407205  0.90402697  1
  Sc  Sc65  1  0.70209371  0.69971457  0.11795425  1
  Sc  Sc66  1  0.90275201  0.10317304  0.30134508  1
  Sc  Sc67  1  0.29466760  0.90631798  0.90172944  1
  Sc  Sc68  1  0.09327145  0.69538954  0.49657824  1
  Sc  Sc69  1  0.89858156  0.30032928  0.10205532  1
  Sc  Sc70  1  0.50029803  0.28832437  0.29968116  1
  Sc  Sc71  1  0.30463122  0.49213500  0.49345097  1
  Sc  Sc72  1  0.69622989  0.10482021  0.09707880  1
  Sc  Sc73  1  0.89503593  0.49737709  0.50393940  1
  Sc  Sc74  1  0.10050788  0.10223702  0.89823783  1
  Sc  Sc75  1  0.90510350  0.90146297  0.69137670  1
  Sc  Sc76  1  0.69711571  0.90323418  0.89437190  1
  Sc  Sc77  1  0.08964095  0.30421185  0.10485736  1
  Sc  Sc78  1  0.90406436  0.49981714  0.10421434  1
  Sc  Sc79  1  0.90274261  0.70098136  0.10933869  1
  Sc  Sc80  1  0.89643978  0.10564586  0.09794290  1
  Sc  Sc81  1  0.09581596  0.70494410  0.10388818  1
  Sc  Sc82  1  0.89907623  0.89710299  0.30708627  1
  Sc  Sc83  1  0.89897056  0.30388013  0.49993473  1
  Sc  Sc84  1  0.30204590  0.09536217  0.30940033  1
  Sc  Sc85  1  0.29091831  0.70804979  0.10318427  1
  Sc  Sc86  1  0.10068197  0.91939002  0.29475348  1
  Sc  Sc87  1  0.90077703  0.49627449  0.30233377  1
  Sc  Sc88  1  0.50489863  0.28924459  0.11067834  1
  Sc  Sc89  1  0.89593715  0.09585952  0.49707482  1
  Sc  Sc90  1  0.70032948  0.29730685  0.29113175  1
  Sc  Sc91  1  0.09527876  0.29512950  0.89914024  1
  Sc  Sc92  1  0.09127569  0.71094059  0.90592058  1
  Sc  Sc93  1  0.69617679  0.89668363  0.10746040  1
  Sc  Sc94  1  0.08966203  0.90579080  0.49385936  1
  Sc  Sc95  1  0.30235374  0.70054700  0.29913445  1
  Sc  Sc96  1  0.30229902  0.70234959  0.70599634  1
  Sc  Sc97  1  0.70267660  0.90418011  0.49630077  1
  Sc  Sc98  1  0.10253429  0.10616828  0.48978429  1
  Sc  Sc99  1  0.50070868  0.69642045  0.88684244  1
  Nb  Nb100  1  0.30346036  0.90963074  0.49652863  1
  Nb  Nb101  1  0.10279694  0.10874059  0.30219710  1
  Nb  Nb102  1  0.69269955  0.30277989  0.50259107  1
  Nb  Nb103  1  0.49865006  0.49801372  0.10130408  1
  Nb  Nb104  1  0.70478822  0.51099399  0.89828807  1
  Nb  Nb105  1  0.49275144  0.09890581  0.10473660  1
  Nb  Nb106  1  0.30901137  0.29160739  0.49949576  1
  Nb  Nb107  1  0.50002140  0.70840382  0.69186360  1
  Nb  Nb108  1  0.70267826  0.69519882  0.90057828  1
  Nb  Nb109  1  0.89874296  0.70959921  0.49015764  1
  Nb  Nb110  1  0.49700677  0.09971471  0.70073195  1
  Nb  Nb111  1  0.49829021  0.90085750  0.29885745  1
  Nb  Nb112  1  0.29118857  0.49806345  0.29448837  1
  Nb  Nb113  1  0.69980653  0.31036905  0.10261683  1
  Nb  Nb114  1  0.10588107  0.49707954  0.10856805  1
  Nb  Nb115  1  0.50009421  0.89737587  0.90510532  1
  Nb  Nb116  1  0.89542214  0.89659993  0.49517966  1
  Nb  Nb117  1  0.90083859  0.49762686  0.70087610  1
  Nb  Nb118  1  0.30021097  0.09687500  0.49998301  1
  Nb  Nb119  1  0.11438473  0.48620997  0.29062017  1
  Nb  Nb120  1  0.89296994  0.50366753  0.89768510  1
  Nb  Nb121  1  0.31041276  0.89815172  0.30646954  1
  Nb  Nb122  1  0.10351600  0.30274037  0.30122369  1
  Nb  Nb123  1  0.49526921  0.30431406  0.50147796  1
  Nb  Nb124  1  0.30165657  0.10414638  0.90946494  1
  Nb  Nb125  1  0.60001665  0.39224480  0.40713548  1
  Nb  Nb126  1  0.79357273  0.40775487  -0.00480801  1
  Nb  Nb127  1  0.39887155  0.40413427  0.19947846  1
  Nb  Nb128  1  0.19901948  0.40322638  0.00367721  1
  Nb  Nb129  1  0.60295216  0.40399951  0.00058489  1
  Nb  Nb130  1  0.40132464  0.19728090  0.59777778  1
  Nb  Nb131  1  -0.00284401  -0.00203104  -0.00037243  1
  Nb  Nb132  1  0.80220145  0.00305621  0.79642554  1
  Nb  Nb133  1  0.79393677  0.79534898  -0.00235178  1
  Nb  Nb134  1  0.40242487  0.19549819  0.79722947  1
  Nb  Nb135  1  0.19562803  0.19699722  0.20623963  1
  Nb  Nb136  1  0.20454171  0.80883923  0.40154302  1
  Nb  Nb137  1  0.79850214  -0.00103733  0.20332565  1
  Nb  Nb138  1  0.40660809  0.39537149  0.80250452  1
  Nb  Nb139  1  0.40793048  0.80442767  -0.00205442  1
  Nb  Nb140  1  0.39989735  0.80513824  0.59933182  1
  Nb  Nb141  1  0.60577317  0.40925734  0.80429987  1
  Nb  Nb142  1  0.80129606  0.40798637  0.80281349  1
  Nb  Nb143  1  0.19252059  0.59521256  -0.00129573  1
  Nb  Nb144  1  0.19188754  0.59795203  0.80285316  1
  Nb  Nb145  1  0.20328004  -0.00222700  0.59478256  1
  Nb  Nb146  1  0.60103715  0.79581112  -0.00346079  1
  Nb  Nb147  1  0.40421075  0.39900759  0.00286067  1
  Nb  Nb148  1  0.39837500  0.59337365  0.20106214  1
  Nb  Nb149  1  0.20437082  0.80810532  0.59256773  1
  Pd  Pd150  1  0.01218637  0.80317845  0.39098385  1
  Pd  Pd151  1  -0.00593976  0.58958653  0.39872554  1
  Pd  Pd152  1  0.79303853  0.39080960  0.39843466  1
  Pd  Pd153  1  0.20661195  0.60080999  0.40136088  1
  Pd  Pd154  1  0.39390387  0.59744959  0.79286495  1
  Pd  Pd155  1  0.60627380  0.00503086  0.80046063  1
  Pd  Pd156  1  0.60617498  -0.00547057  0.00701815  1
  Pd  Pd157  1  0.80120685  -0.01008655  0.00300956  1
  Pd  Pd158  1  0.79699956  0.60162419  0.01709954  1
  Pd  Pd159  1  0.00954148  0.80402875  0.21160016  1
  Pd  Pd160  1  -0.00500288  0.00456305  0.39787338  1
  Pd  Pd161  1  0.80144501  0.80272159  0.80081846  1
  Pd  Pd162  1  0.60020006  0.60044687  0.79137771  1
  Pd  Pd163  1  0.40550840  0.40250731  0.39059366  1
  Pd  Pd164  1  0.80178033  0.20136099  0.58976623  1
  Pd  Pd165  1  0.19363196  0.80355365  0.21440417  1
  Pd  Pd166  1  0.20104098  0.39488736  0.58767050  1
  Pd  Pd167  1  0.00274442  0.60104798  0.01099147  1
  Pd  Pd168  1  0.18586578  0.20383444  0.01089885  1
  Pd  Pd169  1  0.59133389  0.60472309  0.21080579  1
  Pd  Pd170  1  0.40480600  0.19193303  0.40065036  1
  Pd  Pd171  1  -0.00543140  0.79184510  0.79489823  1
  Pd  Pd172  1  0.00529716  0.80230666  0.59533991  1
  Pd  Pd173  1  0.19830762  0.00969603  0.80075057  1
  Pd  Pd174  1  0.00326474  0.00466562  0.58965606  1
  Pd  Pd175  1  0.60382078  0.40874966  0.59938496  1
  Pd  Pd176  1  0.59926166  0.20368551  0.00848821  1
  Pd  Pd177  1  0.79557326  0.19502966  0.19729646  1
  Pd  Pd178  1  0.20231592  0.19636399  0.79986447  1
  Pd  Pd179  1  -0.00789638  0.39307365  0.80226564  1
  Pd  Pd180  1  0.80243641  0.80177423  0.59451805  1
  Pd  Pd181  1  -0.00754785  0.59721176  0.59057600  1
  Pd  Pd182  1  0.59939324  0.79905214  0.80385356  1
  Pd  Pd183  1  0.60056814  0.20319116  0.40276277  1
  Pd  Pd184  1  -0.00495174  0.40032833  0.00377959  1
  Pd  Pd185  1  0.00112448  0.59211155  0.20408357  1
  Pd  Pd186  1  0.00175960  0.39882978  0.39717952  1
  Pd  Pd187  1  0.20050173  0.40431060  0.81035138  1
  Pd  Pd188  1  0.39223705  0.60667735  0.60460893  1
  Pd  Pd189  1  0.20611315  0.60452077  0.59942294  1
  Pd  Pd190  1  0.00276410  0.20012769  0.20071179  1
  Pd  Pd191  1  0.19493248  0.79426008  0.79792244  1
  Pd  Pd192  1  -0.00477969  0.20643849  0.40225331  1
  Pd  Pd193  1  0.59457174  0.18931407  0.58940051  1
  Pd  Pd194  1  0.21094379  0.00525292  0.20569016  1
  Pd  Pd195  1  0.80122851  0.20720594  0.40186308  1
  Pd  Pd196  1  0.40558030  0.79295257  0.19104622  1
  Pd  Pd197  1  0.39798097  0.00394479  0.81299384  1
  Pd  Pd198  1  -0.00030403  0.60677422  0.79573547  1
  Pd  Pd199  1  0.59965550  0.00368288  0.59398410  1
  Rh  Rh200  1  0.40780199  0.80420137  0.80176714  1
  Rh  Rh201  1  0.59561256  0.19220320  0.79661537  1
  Rh  Rh202  1  0.80585383  0.40129322  0.19427684  1
  Rh  Rh203  1  -0.01118138  0.00430248  0.19826130  1
  Rh  Rh204  1  0.39873628  -0.00720021  0.00048361  1
  Rh  Rh205  1  0.81007309  0.60777706  0.59341446  1
  Rh  Rh206  1  0.59416498  0.80510933  0.59599238  1
  Rh  Rh207  1  0.38425027  0.60660276  0.00973286  1
  Rh  Rh208  1  0.20726027  0.79842008  -0.00135821  1
  Rh  Rh209  1  0.19429811  0.00051170  -0.00279762  1
  Rh  Rh210  1  0.00150248  0.40232007  0.59176550  1
  Rh  Rh211  1  0.39993160  0.00132592  0.59705812  1
  Rh  Rh212  1  0.40648431  0.00241341  0.39300710  1
  Rh  Rh213  1  0.39890425  0.80358448  0.40529610  1
  Rh  Rh214  1  0.39636080  0.00298419  0.20645373  1
  Rh  Rh215  1  0.61344409  0.60365394  0.00338492  1
  Rh  Rh216  1  0.80812283  0.60235388  0.40269907  1
  Rh  Rh217  1  0.79745348  0.21395761  0.00956909  1
  Rh  Rh218  1  0.58964987  0.39365600  0.20771503  1
  Rh  Rh219  1  0.00186089  0.20357918  0.79786585  1
  Rh  Rh220  1  0.20396464  0.39376466  0.40452520  1
  Rh  Rh221  1  0.39263175  0.38947141  0.60708125  1
  Rh  Rh222  1  0.20047661  0.60727805  0.19574895  1
  Rh  Rh223  1  -0.01076338  0.80388755  0.00324119  1
  Rh  Rh224  1  0.60242275  0.80219610  0.40503151  1
  Rh  Rh225  1  0.39175924  0.19597040  0.20756011  1
  Rh  Rh226  1  0.60589341  0.00726518  0.19914757  1
  Rh  Rh227  1  0.80528769  0.20071884  0.79268035  1
  Rh  Rh228  1  0.19948246  -0.00261037  0.40131574  1
  Rh  Rh229  1  0.58869578  0.79219693  0.19612287  1
  Rh  Rh230  1  0.79854218  0.39551915  0.60513664  1
  Rh  Rh231  1  0.80498216  0.60244691  0.79109174  1
  Rh  Rh232  1  0.59903383  -0.00318689  0.39570638  1
  Rh  Rh233  1  0.20253794  0.20205828  0.39690033  1
  Rh  Rh234  1  0.00290291  0.19139808  0.00543511  1
  Rh  Rh235  1  0.41182881  0.19972731  -0.00333206  1
  Rh  Rh236  1  0.80589449  0.59658928  0.20513790  1
  Rh  Rh237  1  0.59832877  0.59810189  0.60058880  1
  Rh  Rh238  1  -0.00076550  0.40197892  0.20535039  1
  Rh  Rh239  1  0.39495181  0.59059543  0.38874833  1
  Rh  Rh240  1  0.20570218  0.19401473  0.59116736  1
  Rh  Rh241  1  0.20505308  0.38261849  0.19623869  1
  Rh  Rh242  1  0.79437504  0.80250127  0.40157246  1
  Rh  Rh243  1  0.80107486  -0.00532723  0.39326182  1
  Rh  Rh244  1  0.60534831  0.19472486  0.19677315  1
  Rh  Rh245  1  0.80133922  0.80565132  0.19931864  1
  Rh  Rh246  1  -0.00748632  0.00733892  0.80721882  1
  Rh  Rh247  1  0.59992602  0.59127107  0.40330350  1
  Rh  Rh248  1  -0.00128146  0.19949259  0.58947888  1
  Rh  Rh249  1  0.80383625  -0.00393140  0.60216708  1
