# generated using pymatgen
data_ZrScNbPdRh
_symmetry_space_group_name_H-M   'P 1'
_cell_length_a   16.55272849
_cell_length_b   16.55370993
_cell_length_c   16.55165891
_cell_angle_alpha   90.03646990
_cell_angle_beta   90.01848715
_cell_angle_gamma   89.97510979
_symmetry_Int_Tables_number   1
_chemical_formula_structural   ZrScNbPdRh
_chemical_formula_sum   'Zr50 Sc50 Nb50 Pd50 Rh50'
_cell_volume   4535.30301520
_cell_formula_units_Z   50
loop_
 _symmetry_equiv_pos_site_id
 _symmetry_equiv_pos_as_xyz
  1  'x, y, z'
loop_
 _atom_site_type_symbol
 _atom_site_label
 _atom_site_symmetry_multiplicity
 _atom_site_fract_x
 _atom_site_fract_y
 _atom_site_fract_z
 _atom_site_occupancy
  Zr  Zr0  1  0.29978607  0.09981806  0.50024537  1
  Zr  Zr1  1  0.68906501  0.10135180  0.30202607  1
  Zr  Zr2  1  0.68972389  0.10443650  0.69505751  1
  Zr  Zr3  1  0.89247527  0.10341911  0.09585254  1
  Zr  Zr4  1  0.10293127  0.69456773  0.88525969  1
  Zr  Zr5  1  0.49531030  0.89964061  0.50635864  1
  Zr  Zr6  1  0.30972112  0.89461049  0.90349647  1
  Zr  Zr7  1  0.70392507  0.91072661  0.30613894  1
  Zr  Zr8  1  0.09987949  0.69593381  0.30630024  1
  Zr  Zr9  1  0.49946662  0.10677239  0.30737049  1
  Zr  Zr10  1  0.31149677  0.49858817  0.89905950  1
  Zr  Zr11  1  0.09882885  0.09552205  0.49412804  1
  Zr  Zr12  1  0.30352931  0.29402501  0.89871125  1
  Zr  Zr13  1  0.49890686  0.69857674  0.30816939  1
  Zr  Zr14  1  0.29926998  0.30904129  0.50626001  1
  Zr  Zr15  1  0.30784493  0.49032155  0.09971179  1
  Zr  Zr16  1  0.49630686  0.09573778  0.89048288  1
  Zr  Zr17  1  0.29673779  0.70140267  0.10166865  1
  Zr  Zr18  1  0.30429018  0.29863670  0.10099199  1
  Zr  Zr19  1  0.09924537  0.10460966  0.89864144  1
  Zr  Zr20  1  0.29739260  0.89516946  0.09830242  1
  Zr  Zr21  1  0.69447548  0.70003633  0.50579268  1
  Zr  Zr22  1  0.30047742  0.89583599  0.68789493  1
  Zr  Zr23  1  0.50058655  0.10291051  0.49785387  1
  Zr  Zr24  1  0.09908618  0.89880062  0.09218639  1
  Zr  Zr25  1  0.89129329  0.29946183  0.10682194  1
  Zr  Zr26  1  0.69465368  0.90375258  0.69449226  1
  Zr  Zr27  1  0.10379974  0.10297263  0.09773228  1
  Zr  Zr28  1  0.09727638  0.29770217  0.49694120  1
  Zr  Zr29  1  0.90164866  0.10851953  0.89880974  1
  Zr  Zr30  1  0.89946708  0.90498287  0.90140360  1
  Zr  Zr31  1  0.69220390  0.50401570  0.50606854  1
  Zr  Zr32  1  0.70025348  0.69396211  0.69009689  1
  Zr  Zr33  1  0.69561095  0.10074940  0.50065817  1
  Zr  Zr34  1  0.70302306  0.91024882  0.09845014  1
  Zr  Zr35  1  0.10056746  0.70569902  0.69098909  1
  Zr  Zr36  1  0.90012933  0.89733245  0.09822782  1
  Zr  Zr37  1  0.30282729  0.10682800  0.29761962  1
  Zr  Zr38  1  0.69688461  0.90609110  0.90192579  1
  Zr  Zr39  1  0.09671699  0.50897147  0.71005535  1
  Zr  Zr40  1  0.29850357  0.10322785  0.89505838  1
  Zr  Zr41  1  0.90061842  0.10721626  0.50026496  1
  Zr  Zr42  1  0.09929164  0.10266551  0.30630156  1
  Zr  Zr43  1  0.09435691  0.30391776  0.89920985  1
  Zr  Zr44  1  0.89354616  0.09943748  0.69674763  1
  Zr  Zr45  1  0.89777354  0.31053604  0.30348609  1
  Zr  Zr46  1  0.31203494  0.69745551  0.89686277  1
  Zr  Zr47  1  0.49971431  0.10404385  0.10608562  1
  Zr  Zr48  1  0.49787722  0.90541840  0.09818624  1
  Zr  Zr49  1  0.30334302  0.49559851  0.30496910  1
  Sc  Sc50  1  0.89285820  0.10049240  0.31235485  1
  Sc  Sc51  1  0.30452815  0.30116942  0.29872536  1
  Sc  Sc52  1  0.09470207  0.70758342  0.10136071  1
  Sc  Sc53  1  0.50091879  0.70026466  0.69374504  1
  Sc  Sc54  1  0.29740150  0.89522955  0.49966482  1
  Sc  Sc55  1  0.49616456  0.29932783  0.30387550  1
  Sc  Sc56  1  0.69756012  0.10048421  0.90406194  1
  Sc  Sc57  1  0.69688745  0.51496236  0.09001484  1
  Sc  Sc58  1  0.70786588  0.50101859  0.30695842  1
  Sc  Sc59  1  0.89182007  0.49190822  0.48619293  1
  Sc  Sc60  1  0.10063542  0.30308322  0.30219842  1
  Sc  Sc61  1  0.50111311  0.68551045  0.10682922  1
  Sc  Sc62  1  0.70646017  0.30792317  0.50513383  1
  Sc  Sc63  1  0.10498934  0.29733881  0.69857711  1
  Sc  Sc64  1  0.50091478  0.30730602  0.49420396  1
  Sc  Sc65  1  0.09992033  0.10218074  0.70086733  1
  Sc  Sc66  1  0.89787327  0.69818957  0.09586646  1
  Sc  Sc67  1  0.11078849  0.29712016  0.10016863  1
  Sc  Sc68  1  0.29847940  0.69420087  0.69916896  1
  Sc  Sc69  1  0.68728072  0.30186834  0.90405589  1
  Sc  Sc70  1  0.70110720  0.68993099  0.30392312  1
  Sc  Sc71  1  0.88848716  0.70636641  0.50677287  1
  Sc  Sc72  1  0.71023856  0.69006349  0.91559041  1
  Sc  Sc73  1  0.29883305  0.70174835  0.49713053  1
  Sc  Sc74  1  0.50045976  0.49093557  0.70605059  1
  Sc  Sc75  1  0.29955369  0.49593865  0.49992234  1
  Sc  Sc76  1  0.69753807  0.29331323  0.09488318  1
  Sc  Sc77  1  0.69981252  0.10592327  0.10066628  1
  Sc  Sc78  1  0.10950777  0.50245237  0.49311220  1
  Sc  Sc79  1  0.30536205  0.70233909  0.30505638  1
  Sc  Sc80  1  0.49784552  0.50373175  0.30600066  1
  Sc  Sc81  1  0.30385702  0.49482929  0.69533021  1
  Sc  Sc82  1  0.49949955  0.30339586  0.90135033  1
  Sc  Sc83  1  0.89914607  0.89742993  0.69991801  1
  Sc  Sc84  1  0.70190562  0.29854787  0.29771937  1
  Sc  Sc85  1  0.49758546  0.29962616  0.09119619  1
  Sc  Sc86  1  0.08950064  0.49688723  0.30497267  1
  Sc  Sc87  1  0.49927348  0.91269399  0.30033193  1
  Sc  Sc88  1  0.10060918  0.89713015  0.30846665  1
  Sc  Sc89  1  0.10296561  0.48290575  0.10022578  1
  Sc  Sc90  1  0.50521534  0.30361129  0.70911493  1
  Sc  Sc91  1  0.89650888  0.69652844  0.90284607  1
  Sc  Sc92  1  0.30025856  0.10943934  0.09592748  1
  Sc  Sc93  1  0.89886464  0.69914440  0.70103678  1
  Sc  Sc94  1  0.49885893  0.90578341  0.69785507  1
  Sc  Sc95  1  0.29982256  0.10237443  0.70503362  1
  Sc  Sc96  1  0.89726554  0.30002855  0.68846029  1
  Sc  Sc97  1  0.50249679  0.69864086  0.50168715  1
  Sc  Sc98  1  0.30368136  0.89072248  0.30259034  1
  Sc  Sc99  1  0.90438764  0.68618259  0.29395820  1
  Nb  Nb100  1  0.49885407  0.69639116  0.89258868  1
  Nb  Nb101  1  0.09944715  0.89144076  0.69667102  1
  Nb  Nb102  1  0.90965100  0.49499001  0.89398660  1
  Nb  Nb103  1  0.90031046  0.30176555  0.50012598  1
  Nb  Nb104  1  0.09962118  0.90028445  0.89440573  1
  Nb  Nb105  1  0.09744976  0.70103776  0.50222223  1
  Nb  Nb106  1  0.49974544  0.10117063  0.69291343  1
  Nb  Nb107  1  0.50092408  0.49217512  0.09718030  1
  Nb  Nb108  1  0.90370335  0.49557689  0.10615149  1
  Nb  Nb109  1  0.30575357  0.30224814  0.70322518  1
  Nb  Nb110  1  0.89716389  0.30282146  0.89757108  1
  Nb  Nb111  1  0.89855731  0.90349350  0.30781052  1
  Nb  Nb112  1  0.70406128  0.89481327  0.50061786  1
  Nb  Nb113  1  0.70176533  0.70935592  0.10132961  1
  Nb  Nb114  1  0.90356095  0.49925862  0.70398778  1
  Nb  Nb115  1  0.09817278  0.89019310  0.50782460  1
  Nb  Nb116  1  0.70330585  0.49524191  0.70204099  1
  Nb  Nb117  1  0.70535128  0.50041078  0.89991902  1
  Nb  Nb118  1  0.50026472  0.89401594  0.89944789  1
  Nb  Nb119  1  0.89592391  0.90199988  0.49422403  1
  Nb  Nb120  1  0.50675397  0.49909419  0.90431278  1
  Nb  Nb121  1  0.90246870  0.49118338  0.28810414  1
  Nb  Nb122  1  0.70269736  0.30789561  0.70255498  1
  Nb  Nb123  1  0.49797857  0.50134903  0.49946804  1
  Nb  Nb124  1  0.09747289  0.49479445  0.89785491  1
  Nb  Nb125  1  0.79792342  0.80342501  0.20301938  1
  Nb  Nb126  1  0.19640695  -0.00083431  0.19915140  1
  Nb  Nb127  1  0.80182105  0.40240375  0.80063348  1
  Nb  Nb128  1  0.60423690  0.59703753  0.80539909  1
  Nb  Nb129  1  0.59658238  0.40740537  0.19418903  1
  Nb  Nb130  1  0.60519708  0.80491136  0.39962376  1
  Nb  Nb131  1  0.78899649  0.80009331  0.80259320  1
  Nb  Nb132  1  0.00009332  0.00123151  0.20273677  1
  Nb  Nb133  1  0.40195140  0.20416837  0.60468291  1
  Nb  Nb134  1  0.59629364  0.79695016  -0.00074714  1
  Nb  Nb135  1  0.80565186  0.40618856  -0.00708727  1
  Nb  Nb136  1  0.19683794  0.59415763  -0.00076533  1
  Nb  Nb137  1  0.60141844  0.79394443  0.80864506  1
  Nb  Nb138  1  0.40397350  0.59292661  0.59621675  1
  Nb  Nb139  1  0.00417132  0.58700241  -0.00422688  1
  Nb  Nb140  1  0.19495803  -0.01283412  0.80112726  1
  Nb  Nb141  1  0.00272268  -0.00913640  0.59403541  1
  Nb  Nb142  1  -0.00463777  0.80037958  0.40733899  1
  Nb  Nb143  1  -0.00061869  0.59575705  0.59732871  1
  Nb  Nb144  1  0.60679134  0.80161886  0.20016643  1
  Nb  Nb145  1  0.20129840  0.59698183  0.19646960  1
  Nb  Nb146  1  -0.00383703  0.19609388  0.20312509  1
  Nb  Nb147  1  -0.00192231  0.40696727  0.59814347  1
  Nb  Nb148  1  0.20192126  0.39940644  0.80287257  1
  Nb  Nb149  1  0.79506433  0.20990096  0.79713153  1
  Pd  Pd150  1  0.79957945  0.60094569  0.80100756  1
  Pd  Pd151  1  0.80382121  -0.00257992  0.59483206  1
  Pd  Pd152  1  0.38980736  0.00232416  0.19873341  1
  Pd  Pd153  1  0.20790873  0.80357667  0.79990685  1
  Pd  Pd154  1  0.40622980  0.80048540  0.78745578  1
  Pd  Pd155  1  -0.00763242  0.20830149  0.78948917  1
  Pd  Pd156  1  0.19630784  0.79992235  0.20833323  1
  Pd  Pd157  1  0.21157760  0.59196438  0.80185204  1
  Pd  Pd158  1  0.59497016  0.39911838  0.60131879  1
  Pd  Pd159  1  0.00288061  0.78959784  -0.01118908  1
  Pd  Pd160  1  0.20491288  0.00039008  -0.00337863  1
  Pd  Pd161  1  0.00297743  0.20019420  0.60171926  1
  Pd  Pd162  1  0.59454056  0.21569535  0.59595808  1
  Pd  Pd163  1  0.80608167  0.60092981  0.40152846  1
  Pd  Pd164  1  0.60387755  0.40098184  0.39098145  1
  Pd  Pd165  1  0.60448440  0.59647939  0.20517625  1
  Pd  Pd166  1  -0.00195451  0.00268581  0.00183450  1
  Pd  Pd167  1  0.01143049  0.59276037  0.18867652  1
  Pd  Pd168  1  0.59550214  0.60503374  -0.00312608  1
  Pd  Pd169  1  0.39737171  0.00728139  0.00163567  1
  Pd  Pd170  1  0.59523011  0.00455921  0.00023085  1
  Pd  Pd171  1  0.41204548  0.78789934  0.00960863  1
  Pd  Pd172  1  -0.01043932  0.79689177  0.80290998  1
  Pd  Pd173  1  0.59497995  0.21260608  0.19975042  1
  Pd  Pd174  1  0.79779414  0.60180012  0.19380109  1
  Pd  Pd175  1  0.20563994  0.60099996  0.39590507  1
  Pd  Pd176  1  0.80975158  0.58889578  0.59576182  1
  Pd  Pd177  1  0.20602265  0.20905921  0.39755373  1
  Pd  Pd178  1  0.80586810  0.00460770  0.20418900  1
  Pd  Pd179  1  0.39383470  -0.00419341  0.40090936  1
  Pd  Pd180  1  -0.00824425  0.80581092  0.21195173  1
  Pd  Pd181  1  0.79379835  0.00484551  0.80040184  1
  Pd  Pd182  1  0.19064692  0.40685933  0.60806084  1
  Pd  Pd183  1  -0.00014376  0.21059632  0.00898707  1
  Pd  Pd184  1  -0.01089555  0.60280407  0.41036386  1
  Pd  Pd185  1  0.78201063  0.40887905  0.18828558  1
  Pd  Pd186  1  0.41076127  0.79918847  0.19989663  1
  Pd  Pd187  1  -0.00452759  0.39575971  0.00927581  1
  Pd  Pd188  1  0.80106733  0.79020079  0.39070885  1
  Pd  Pd189  1  0.19523068  0.79045899  -0.00996703  1
  Pd  Pd190  1  0.20600221  0.19732855  0.60383630  1
  Pd  Pd191  1  0.39501600  0.59529673  0.20296162  1
  Pd  Pd192  1  0.79425201  0.20615050  0.40084388  1
  Pd  Pd193  1  0.19830977  0.40332915  0.20915774  1
  Pd  Pd194  1  0.40093403  0.60113668  0.00474600  1
  Pd  Pd195  1  0.39493638  -0.00407677  0.79224874  1
  Pd  Pd196  1  0.60128563  0.20030529  0.80220449  1
  Pd  Pd197  1  0.20524572  -0.00979204  0.39563331  1
  Pd  Pd198  1  0.19362945  0.00115577  0.60625895  1
  Pd  Pd199  1  0.00591987  -0.00189928  0.78985257  1
  Rh  Rh200  1  0.81708487  0.58789932  0.00672699  1
  Rh  Rh201  1  0.59907888  0.60224233  0.40214413  1
  Rh  Rh202  1  0.59427936  -0.00170223  0.79800605  1
  Rh  Rh203  1  0.20626771  0.79255873  0.59572921  1
  Rh  Rh204  1  0.00210591  0.39079607  0.78707344  1
  Rh  Rh205  1  0.60620085  0.40261614  0.00519225  1
  Rh  Rh206  1  0.40990785  0.80213652  0.40279283  1
  Rh  Rh207  1  0.80631023  0.40623188  0.60356590  1
  Rh  Rh208  1  0.40379933  0.20498715  0.19976618  1
  Rh  Rh209  1  -0.00519813  0.20817134  0.39438445  1
  Rh  Rh210  1  0.39912036  0.59877218  0.40994270  1
  Rh  Rh211  1  0.40650843  0.39876915  0.59967940  1
  Rh  Rh212  1  0.20140559  0.60210297  0.59700132  1
  Rh  Rh213  1  0.19668125  0.19520834  0.20549304  1
  Rh  Rh214  1  -0.00930168  0.79851916  0.59504569  1
  Rh  Rh215  1  0.59790491  0.00226862  0.19945832  1
  Rh  Rh216  1  0.19966122  0.20494645  -0.00502107  1
  Rh  Rh217  1  0.79453716  0.20814522  -0.01230978  1
  Rh  Rh218  1  0.60511902  0.20979518  0.40543828  1
  Rh  Rh219  1  0.79615269  0.80609454  -0.00089956  1
  Rh  Rh220  1  0.19279117  0.79717189  0.40309640  1
  Rh  Rh221  1  0.79519910  0.00823178  0.40792356  1
  Rh  Rh222  1  0.79392787  0.20285168  0.60274370  1
  Rh  Rh223  1  0.00497297  0.38875493  0.19818102  1
  Rh  Rh224  1  0.59052758  0.58786749  0.60981845  1
  Rh  Rh225  1  0.80083507  0.80626766  0.60897116  1
  Rh  Rh226  1  0.59803478  0.80641015  0.59738991  1
  Rh  Rh227  1  0.39776245  0.78779845  0.59924466  1
  Rh  Rh228  1  0.40859998  0.20103785  0.79194260  1
  Rh  Rh229  1  0.39410923  0.20641620  0.41114861  1
  Rh  Rh230  1  0.39879078  0.39872859  0.80414887  1
  Rh  Rh231  1  0.20035730  0.39717463  0.39739586  1
  Rh  Rh232  1  -0.00007920  0.39976908  0.40594827  1
  Rh  Rh233  1  0.19835151  0.20387383  0.80031098  1
  Rh  Rh234  1  0.39967283  0.40083392  0.40003833  1
  Rh  Rh235  1  0.80244746  0.19372260  0.20863876  1
  Rh  Rh236  1  -0.00629054  0.60886238  0.79961960  1
  Rh  Rh237  1  0.79475125  0.39951567  0.39889452  1
  Rh  Rh238  1  0.80301822  0.00670583  -0.00475241  1
  Rh  Rh239  1  0.40308016  0.39621368  -0.00367625  1
  Rh  Rh240  1  0.59210679  0.19328939  -0.00308112  1
  Rh  Rh241  1  0.59816357  -0.00263432  0.59415468  1
  Rh  Rh242  1  0.20848017  0.39940538  -0.01073852  1
  Rh  Rh243  1  0.41305267  0.39764137  0.20258757  1
  Rh  Rh244  1  0.59986971  -0.00737107  0.41018676  1
  Rh  Rh245  1  0.60711243  0.40766242  0.80684264  1
  Rh  Rh246  1  0.00089409  -0.00926385  0.40442323  1
  Rh  Rh247  1  0.41059542  0.59522669  0.78913779  1
  Rh  Rh248  1  0.40469930  0.19662001  -0.00418071  1
  Rh  Rh249  1  0.39786335  0.01085055  0.60043547  1
