# generated using pymatgen
data_ZrScNbPdRh
_symmetry_space_group_name_H-M   'P 1'
_cell_length_a   16.55631977
_cell_length_b   16.55542860
_cell_length_c   16.55579383
_cell_angle_alpha   90.02979090
_cell_angle_beta   90.00933945
_cell_angle_gamma   89.99040096
_symmetry_Int_Tables_number   1
_chemical_formula_structural   ZrScNbPdRh
_chemical_formula_sum   'Zr50 Sc50 Nb50 Pd50 Rh50'
_cell_volume   4537.89218365
_cell_formula_units_Z   50
loop_
 _symmetry_equiv_pos_site_id
 _symmetry_equiv_pos_as_xyz
  1  'x, y, z'
loop_
 _atom_site_type_symbol
 _atom_site_label
 _atom_site_symmetry_multiplicity
 _atom_site_fract_x
 _atom_site_fract_y
 _atom_site_fract_z
 _atom_site_occupancy
  Zr  Zr0  1  0.09813962  0.30125878  0.50721323  1
  Zr  Zr1  1  0.89556412  0.29500482  0.50728684  1
  Zr  Zr2  1  0.30305917  0.90422090  0.49696354  1
  Zr  Zr3  1  0.10799636  0.89689340  0.69653171  1
  Zr  Zr4  1  0.10488006  0.49436351  0.09772907  1
  Zr  Zr5  1  0.49304711  0.29723201  0.70114695  1
  Zr  Zr6  1  0.29948836  0.90659773  0.90129677  1
  Zr  Zr7  1  0.09583494  0.68736401  0.30017285  1
  Zr  Zr8  1  0.30638242  0.90138432  0.09617505  1
  Zr  Zr9  1  0.30118610  0.29177056  0.29871403  1
  Zr  Zr10  1  0.69969337  0.90440314  0.10456459  1
  Zr  Zr11  1  0.10085770  0.30392061  0.29618651  1
  Zr  Zr12  1  0.10280039  0.30540586  0.10140708  1
  Zr  Zr13  1  0.49642111  0.29955505  0.09446688  1
  Zr  Zr14  1  0.09742890  0.50915562  0.50133862  1
  Zr  Zr15  1  0.49177698  0.49711157  0.10586837  1
  Zr  Zr16  1  0.69514228  0.49670980  0.70047554  1
  Zr  Zr17  1  0.69755261  0.30036942  0.08833872  1
  Zr  Zr18  1  0.50410921  0.69704755  0.69054553  1
  Zr  Zr19  1  0.29397704  0.68950478  0.89482431  1
  Zr  Zr20  1  0.09867813  0.69081628  0.10346539  1
  Zr  Zr21  1  0.69719699  0.70551991  0.09974632  1
  Zr  Zr22  1  0.49653335  0.89808679  0.91029548  1
  Zr  Zr23  1  0.69252493  0.90214382  0.49384728  1
  Zr  Zr24  1  0.49915107  0.90038317  0.69656970  1
  Zr  Zr25  1  0.50089493  0.89950325  0.10478895  1
  Zr  Zr26  1  0.31453059  0.50064395  0.30065168  1
  Zr  Zr27  1  0.50151605  0.89932258  0.30737962  1
  Zr  Zr28  1  0.10562632  0.70059205  0.50536707  1
  Zr  Zr29  1  0.49977299  0.10429874  0.70015927  1
  Zr  Zr30  1  0.50102809  0.88826975  0.49573635  1
  Zr  Zr31  1  0.90325150  0.69733976  0.69814659  1
  Zr  Zr32  1  0.90028688  0.69905228  0.29438888  1
  Zr  Zr33  1  0.70215853  0.30673278  0.90010983  1
  Zr  Zr34  1  0.90643741  0.90610703  0.49421289  1
  Zr  Zr35  1  0.90554416  0.30970084  0.30221327  1
  Zr  Zr36  1  0.10671432  0.30125914  0.70444529  1
  Zr  Zr37  1  0.49588521  0.69804174  0.30365820  1
  Zr  Zr38  1  0.10578791  0.10160124  0.89327901  1
  Zr  Zr39  1  0.10555576  0.10542590  0.29209092  1
  Zr  Zr40  1  0.30259982  0.11172696  0.70390388  1
  Zr  Zr41  1  0.50625463  0.70039277  0.09219404  1
  Zr  Zr42  1  0.89876501  0.08594180  0.09520696  1
  Zr  Zr43  1  0.11254960  0.69645512  0.69762753  1
  Zr  Zr44  1  0.69802709  0.10391490  0.70250628  1
  Zr  Zr45  1  0.89248049  0.70384984  0.89650127  1
  Zr  Zr46  1  0.69373017  0.89875648  0.30161759  1
  Zr  Zr47  1  0.89689990  0.70487026  0.10629924  1
  Zr  Zr48  1  0.30309367  0.30407163  0.09542785  1
  Zr  Zr49  1  0.69158613  0.30157451  0.30960850  1
  Sc  Sc50  1  0.10169136  0.10507331  0.70171161  1
  Sc  Sc51  1  0.89699479  0.30028776  0.70439313  1
  Sc  Sc52  1  0.69405631  0.49991434  0.89222660  1
  Sc  Sc53  1  0.70095589  0.90278027  0.70574706  1
  Sc  Sc54  1  0.49740131  0.29957320  0.90359133  1
  Sc  Sc55  1  0.89547383  0.91124722  0.90051155  1
  Sc  Sc56  1  0.49587316  0.49633152  0.50766625  1
  Sc  Sc57  1  0.10726309  0.91284955  0.90132766  1
  Sc  Sc58  1  0.89736139  0.30450416  0.89759917  1
  Sc  Sc59  1  0.49997844  0.50245453  0.89497928  1
  Sc  Sc60  1  0.70290289  0.69747703  0.29137417  1
  Sc  Sc61  1  0.69526244  0.29669853  0.69700947  1
  Sc  Sc62  1  0.49826678  0.10102962  0.49760380  1
  Sc  Sc63  1  0.30154021  0.09996741  0.30380113  1
  Sc  Sc64  1  0.31349608  0.90417305  0.29951313  1
  Sc  Sc65  1  0.69736853  0.09294070  0.31140217  1
  Sc  Sc66  1  0.89834174  0.30809558  0.08822816  1
  Sc  Sc67  1  0.90029257  0.90111082  0.29329686  1
  Sc  Sc68  1  0.10485083  0.09272406  0.09943740  1
  Sc  Sc69  1  0.69589077  0.69896845  0.70715874  1
  Sc  Sc70  1  0.89577385  0.09121766  0.30583879  1
  Sc  Sc71  1  0.30398027  0.10136552  0.10431805  1
  Sc  Sc72  1  0.30586250  0.69316075  0.50339313  1
  Sc  Sc73  1  0.90239825  0.49709449  0.09821526  1
  Sc  Sc74  1  0.29796094  0.50051381  0.90251319  1
  Sc  Sc75  1  0.69917549  0.89815519  0.89698217  1
  Sc  Sc76  1  0.29905076  0.90254690  0.69585334  1
  Sc  Sc77  1  0.10264118  0.90192522  0.50497451  1
  Sc  Sc78  1  0.69157792  0.50316342  0.09560112  1
  Sc  Sc79  1  0.30450454  0.30172740  0.89330190  1
  Sc  Sc80  1  0.30687613  0.69240419  0.30367329  1
  Sc  Sc81  1  0.91508024  0.69262546  0.49455687  1
  Sc  Sc82  1  0.09838443  0.09773849  0.50674856  1
  Sc  Sc83  1  0.30591828  0.68348074  0.10176839  1
  Sc  Sc84  1  0.89981541  0.90474000  0.70615025  1
  Sc  Sc85  1  0.49167888  0.09938236  0.30170990  1
  Sc  Sc86  1  0.70135681  0.10459708  0.90323635  1
  Sc  Sc87  1  0.89322656  0.48756519  0.89410276  1
  Sc  Sc88  1  0.50215364  0.49609596  0.69952991  1
  Sc  Sc89  1  0.49224874  0.10333768  0.89847932  1
  Sc  Sc90  1  0.68944311  0.69984968  0.50495098  1
  Sc  Sc91  1  0.09574859  0.90701421  0.29977291  1
  Sc  Sc92  1  0.90303674  0.10534660  0.70518320  1
  Sc  Sc93  1  0.50420874  0.30166911  0.49558962  1
  Sc  Sc94  1  0.49917755  0.09936351  0.09063047  1
  Sc  Sc95  1  0.30170153  0.49749119  0.50613076  1
  Sc  Sc96  1  0.30027645  0.49797697  0.70004191  1
  Sc  Sc97  1  0.90635991  0.50547850  0.30503253  1
  Sc  Sc98  1  0.09678536  0.91049021  0.10168360  1
  Sc  Sc99  1  0.69696647  0.50258346  0.29999890  1
  Nb  Nb100  1  0.09999744  0.30839531  0.90321539  1
  Nb  Nb101  1  0.10008891  0.49673159  0.89866097  1
  Nb  Nb102  1  0.10334338  0.69345972  0.90050301  1
  Nb  Nb103  1  0.29777029  0.70159422  0.70336344  1
  Nb  Nb104  1  0.50130007  0.48900594  0.30836791  1
  Nb  Nb105  1  0.89484849  0.10366518  0.50229946  1
  Nb  Nb106  1  0.69834134  0.10733074  0.10457795  1
  Nb  Nb107  1  0.50463897  0.70094762  0.49975728  1
  Nb  Nb108  1  0.29111291  0.29920239  0.50964471  1
  Nb  Nb109  1  0.29815911  0.10619613  0.49746472  1
  Nb  Nb110  1  0.90087945  0.89799312  0.09694942  1
  Nb  Nb111  1  0.90705409  0.09883725  0.90016241  1
  Nb  Nb112  1  0.70065966  0.29282073  0.50153200  1
  Nb  Nb113  1  0.89875648  0.49748257  0.50183198  1
  Nb  Nb114  1  0.30285287  0.49641834  0.09605284  1
  Nb  Nb115  1  0.50918006  0.70238323  0.89775160  1
  Nb  Nb116  1  0.29576906  0.30202778  0.68692377  1
  Nb  Nb117  1  0.49965269  0.31200102  0.29665752  1
  Nb  Nb118  1  0.29601851  0.10031625  0.90088857  1
  Nb  Nb119  1  0.09773551  0.49831609  0.70131804  1
  Nb  Nb120  1  0.09646348  0.49065647  0.30060209  1
  Nb  Nb121  1  0.69066604  0.69752606  0.90372961  1
  Nb  Nb122  1  0.70427836  0.10760751  0.50186750  1
  Nb  Nb123  1  0.69907714  0.49553615  0.50284595  1
  Nb  Nb124  1  0.89973247  0.49925605  0.70048424  1
  Nb  Nb125  1  0.40046604  0.79226912  0.80109724  1
  Nb  Nb126  1  0.00450810  0.59608547  0.80144176  1
  Nb  Nb127  1  0.80171353  0.79862579  0.40412937  1
  Nb  Nb128  1  0.79556922  0.40122781  0.40781523  1
  Nb  Nb129  1  -0.00752116  0.19980413  0.19629608  1
  Nb  Nb130  1  0.00267071  0.79889385  -0.00313629  1
  Nb  Nb131  1  -0.00161131  0.20045842  0.39933048  1
  Nb  Nb132  1  0.59414317  0.59459327  0.40424846  1
  Nb  Nb133  1  0.80161781  0.59589319  0.59736491  1
  Nb  Nb134  1  0.19703752  0.20319331  -0.00568478  1
  Nb  Nb135  1  0.00901791  0.79427085  0.80691682  1
  Nb  Nb136  1  -0.00217689  0.60195352  -0.00947588  1
  Nb  Nb137  1  0.79798821  0.00358040  0.59359744  1
  Nb  Nb138  1  0.19547001  0.79346191  0.00482931  1
  Nb  Nb139  1  0.79761087  0.20178371  0.19786238  1
  Nb  Nb140  1  0.60212217  0.20351819  0.19962735  1
  Nb  Nb141  1  -0.00183360  0.40656123  0.60428604  1
  Nb  Nb142  1  0.60401356  0.00433142  0.59743354  1
  Nb  Nb143  1  0.80205570  0.80020630  0.59352726  1
  Nb  Nb144  1  0.00370154  0.19766195  -0.00302211  1
  Nb  Nb145  1  0.79591670  0.39415870  0.20463361  1
  Nb  Nb146  1  0.20049983  0.79755310  0.39433574  1
  Nb  Nb147  1  0.20122868  0.79704114  0.20009540  1
  Nb  Nb148  1  0.79835261  0.60620785  -0.00465156  1
  Nb  Nb149  1  0.19885879  0.39957959  0.39985297  1
  Pd  Pd150  1  0.40211165  0.20735414  0.40449909  1
  Pd  Pd151  1  0.59586497  0.39215373  0.59870400  1
  Pd  Pd152  1  0.21158829  0.40626688  0.20697113  1
  Pd  Pd153  1  0.39639901  0.79399189  0.20019864  1
  Pd  Pd154  1  0.00465276  -0.00597848  0.79678921  1
  Pd  Pd155  1  0.38999255  0.78714608  -0.00581952  1
  Pd  Pd156  1  0.40791394  0.19860288  0.19888891  1
  Pd  Pd157  1  0.40655328  0.59826775  -0.00528184  1
  Pd  Pd158  1  0.39307383  0.79633182  0.60296726  1
  Pd  Pd159  1  0.59690761  0.20478741  0.80959087  1
  Pd  Pd160  1  0.81026549  0.19625573  0.00012071  1
  Pd  Pd161  1  0.00352079  0.79928185  0.39611019  1
  Pd  Pd162  1  0.79885785  0.59621711  0.79990761  1
  Pd  Pd163  1  0.79875639  0.00164617  0.20359600  1
  Pd  Pd164  1  0.20203248  0.80568732  0.80863173  1
  Pd  Pd165  1  0.59342856  0.01166991  0.20266040  1
  Pd  Pd166  1  0.59759276  0.00150931  0.80198703  1
  Pd  Pd167  1  0.79828517  0.80267504  -0.00129237  1
  Pd  Pd168  1  0.20520096  0.00845838  0.60223081  1
  Pd  Pd169  1  0.40498931  0.60229210  0.79541180  1
  Pd  Pd170  1  0.20420573  0.59573415  0.39876922  1
  Pd  Pd171  1  0.20450300  0.59459875  0.20428267  1
  Pd  Pd172  1  0.79098647  0.00083578  -0.00455099  1
  Pd  Pd173  1  0.79998653  0.58728512  0.19097746  1
  Pd  Pd174  1  0.80113140  0.80398742  0.79483457  1
  Pd  Pd175  1  0.19979730  -0.00408777  0.39729943  1
  Pd  Pd176  1  0.19294020  0.20243189  0.40673027  1
  Pd  Pd177  1  0.79192854  0.60224548  0.40817598  1
  Pd  Pd178  1  0.40427460  0.00457416  0.59385020  1
  Pd  Pd179  1  0.00811955  0.80750443  0.19622057  1
  Pd  Pd180  1  0.20935490  -0.00725993  0.20343797  1
  Pd  Pd181  1  -0.00616384  0.00348915  0.60781846  1
  Pd  Pd182  1  0.39118637  0.39167903  0.41076533  1
  Pd  Pd183  1  0.80092401  0.40047273  0.60227030  1
  Pd  Pd184  1  0.60492000  0.39794647  0.19587183  1
  Pd  Pd185  1  0.39930043  0.59758940  0.60286421  1
  Pd  Pd186  1  0.59294059  0.59766619  0.20747343  1
  Pd  Pd187  1  0.20631625  0.40253486  0.80159482  1
  Pd  Pd188  1  0.59478973  0.80206506  0.79781508  1
  Pd  Pd189  1  0.80597457  0.20445364  0.39137823  1
  Pd  Pd190  1  0.39741094  0.39966372  0.79775738  1
  Pd  Pd191  1  0.60359533  0.00407224  -0.00446872  1
  Pd  Pd192  1  0.80196399  0.20067646  0.80154908  1
  Pd  Pd193  1  0.00614253  0.00964980  0.39892833  1
  Pd  Pd194  1  0.39878230  -0.00313964  0.79999892  1
  Pd  Pd195  1  0.59405791  0.40792301  -0.00635088  1
  Pd  Pd196  1  -0.00383113  0.80450884  0.60626406  1
  Pd  Pd197  1  0.59086443  0.19568232  0.39493327  1
  Pd  Pd198  1  0.40287800  0.20309288  0.58996043  1
  Pd  Pd199  1  -0.00051636  0.20826655  0.80594879  1
  Rh  Rh200  1  0.39079239  0.79483007  0.40488523  1
  Rh  Rh201  1  0.20978046  0.79927599  0.58744674  1
  Rh  Rh202  1  0.20516497  0.00321834  0.78831995  1
  Rh  Rh203  1  -0.00793451  0.40031917  0.19248979  1
  Rh  Rh204  1  0.40076023  0.39375818  0.60086652  1
  Rh  Rh205  1  0.19755420  0.58915125  0.79431014  1
  Rh  Rh206  1  0.79295752  0.39586387  0.79361659  1
  Rh  Rh207  1  0.59363117  0.00740139  0.40673470  1
  Rh  Rh208  1  0.59646233  0.39349045  0.79965149  1
  Rh  Rh209  1  -0.00124166  0.58696839  0.19619433  1
  Rh  Rh210  1  0.40520261  0.00260238  0.19819727  1
  Rh  Rh211  1  0.39642909  0.39708731  0.20030502  1
  Rh  Rh212  1  0.59674958  0.19745709  0.00008072  1
  Rh  Rh213  1  -0.00062358  0.40243384  -0.00490373  1
  Rh  Rh214  1  0.40705839  0.59589826  0.20006875  1
  Rh  Rh215  1  0.79989921  -0.00721820  0.40552680  1
  Rh  Rh216  1  -0.00436472  0.59322063  0.60719524  1
  Rh  Rh217  1  0.19737869  0.19795053  0.18722898  1
  Rh  Rh218  1  0.39533630  0.20555072  0.80055712  1
  Rh  Rh219  1  0.59678008  0.19718092  0.59721842  1
  Rh  Rh220  1  0.60557633  0.80734234  0.00101780  1
  Rh  Rh221  1  0.19312672  0.40796945  0.59584688  1
  Rh  Rh222  1  0.59611492  0.79820914  0.20169540  1
  Rh  Rh223  1  0.19863180  0.19208673  0.60111660  1
  Rh  Rh224  1  0.00148011  0.59679123  0.39785744  1
  Rh  Rh225  1  0.00157049  0.39928936  0.41332118  1
  Rh  Rh226  1  0.20454214  0.20779604  0.80342803  1
  Rh  Rh227  1  0.80010457  0.00912445  0.80016740  1
  Rh  Rh228  1  0.40006730  0.40630871  -0.00464559  1
  Rh  Rh229  1  0.60349534  0.59617156  0.59631581  1
  Rh  Rh230  1  0.59568329  0.60050874  0.79745759  1
  Rh  Rh231  1  0.38995799  0.19718379  -0.00576687  1
  Rh  Rh232  1  -0.00042599  0.20464030  0.59903748  1
  Rh  Rh233  1  0.41061240  0.59714664  0.40885944  1
  Rh  Rh234  1  0.60385348  0.40520432  0.40779287  1
  Rh  Rh235  1  0.79484103  0.41439473  0.00329172  1
  Rh  Rh236  1  0.19722975  0.59448532  0.00324063  1
  Rh  Rh237  1  0.39997335  0.00386045  0.40481896  1
  Rh  Rh238  1  0.00073583  -0.00135105  -0.00391115  1
  Rh  Rh239  1  0.60786459  0.80796470  0.60822584  1
  Rh  Rh240  1  -0.00479908  0.00421149  0.20159769  1
  Rh  Rh241  1  0.20631710  0.00450070  0.00446020  1
  Rh  Rh242  1  0.39851156  0.00664280  0.00173656  1
  Rh  Rh243  1  0.80013850  0.19500207  0.60960308  1
  Rh  Rh244  1  0.79697375  0.80857874  0.20539879  1
  Rh  Rh245  1  0.20886777  0.59631197  0.60635305  1
  Rh  Rh246  1  0.00075548  0.40145795  0.79495452  1
  Rh  Rh247  1  0.60016456  0.59682158  -0.00382170  1
  Rh  Rh248  1  0.60788853  0.78327425  0.38992133  1
  Rh  Rh249  1  0.20679405  0.39827931  -0.00606753  1
