# generated using pymatgen
data_ZrScNbPdRh
_symmetry_space_group_name_H-M   'P 1'
_cell_length_a   16.55701269
_cell_length_b   16.55571865
_cell_length_c   16.55609127
_cell_angle_alpha   90.00068276
_cell_angle_beta   89.99310733
_cell_angle_gamma   89.97651829
_symmetry_Int_Tables_number   1
_chemical_formula_structural   ZrScNbPdRh
_chemical_formula_sum   'Zr50 Sc50 Nb50 Pd50 Rh50'
_cell_volume   4538.24346929
_cell_formula_units_Z   50
loop_
 _symmetry_equiv_pos_site_id
 _symmetry_equiv_pos_as_xyz
  1  'x, y, z'
loop_
 _atom_site_type_symbol
 _atom_site_label
 _atom_site_symmetry_multiplicity
 _atom_site_fract_x
 _atom_site_fract_y
 _atom_site_fract_z
 _atom_site_occupancy
  Zr  Zr0  1  0.28593779  0.10454986  0.89776159  1
  Zr  Zr1  1  0.29741301  0.28873186  0.69410204  1
  Zr  Zr2  1  0.70186539  0.10299553  0.30545908  1
  Zr  Zr3  1  0.50576426  0.30289211  0.90444191  1
  Zr  Zr4  1  0.51056153  0.49297724  0.10427576  1
  Zr  Zr5  1  0.29191730  0.69324003  0.30563409  1
  Zr  Zr6  1  0.08746936  0.10316107  0.90030865  1
  Zr  Zr7  1  0.90101656  0.70024871  0.70199924  1
  Zr  Zr8  1  0.49046455  0.90254701  0.10237380  1
  Zr  Zr9  1  0.89779614  0.70129225  0.29583684  1
  Zr  Zr10  1  0.49814682  0.69834272  0.50151687  1
  Zr  Zr11  1  0.09695588  0.70067132  0.90877700  1
  Zr  Zr12  1  0.69692499  0.09831509  0.49461013  1
  Zr  Zr13  1  0.50313246  0.09883933  0.49567849  1
  Zr  Zr14  1  0.29447473  0.69199322  0.70177005  1
  Zr  Zr15  1  0.30404788  0.30611728  0.30752815  1
  Zr  Zr16  1  0.29925227  0.11178315  0.50508376  1
  Zr  Zr17  1  0.90175312  0.10241755  0.71151404  1
  Zr  Zr18  1  0.30135541  0.90253061  0.09900052  1
  Zr  Zr19  1  0.09849069  0.10020356  0.29186060  1
  Zr  Zr20  1  0.51163544  0.50070274  0.50038121  1
  Zr  Zr21  1  0.69883845  0.49964453  0.90528345  1
  Zr  Zr22  1  0.69307969  0.30826691  0.09417224  1
  Zr  Zr23  1  0.09849107  0.69546073  0.70312364  1
  Zr  Zr24  1  0.90386498  0.50284672  0.69821885  1
  Zr  Zr25  1  0.30364703  0.69992035  0.89348098  1
  Zr  Zr26  1  0.70449514  0.89917209  0.70094926  1
  Zr  Zr27  1  0.90303129  0.90091229  0.90702183  1
  Zr  Zr28  1  0.29466322  0.90131632  0.49379029  1
  Zr  Zr29  1  0.70470467  0.30407936  0.90170653  1
  Zr  Zr30  1  0.50342381  0.90485737  0.49594080  1
  Zr  Zr31  1  0.70589255  0.69951893  0.29490411  1
  Zr  Zr32  1  0.90139801  0.49987444  0.50559074  1
  Zr  Zr33  1  0.10343289  0.90181997  0.30732224  1
  Zr  Zr34  1  0.49982536  0.70077038  0.90057830  1
  Zr  Zr35  1  0.90203773  0.70511326  0.09588300  1
  Zr  Zr36  1  0.09677432  0.49902254  0.08643878  1
  Zr  Zr37  1  0.69600202  0.29879269  0.69415506  1
  Zr  Zr38  1  0.90509807  0.89676815  0.50632156  1
  Zr  Zr39  1  0.89269882  0.09887769  0.29887790  1
  Zr  Zr40  1  0.29756313  0.49623614  0.49987313  1
  Zr  Zr41  1  0.90370628  0.89411271  0.70198697  1
  Zr  Zr42  1  0.90619920  0.10603138  0.09083138  1
  Zr  Zr43  1  0.90751843  0.30313453  0.29602963  1
  Zr  Zr44  1  0.89988313  0.89579247  0.30111460  1
  Zr  Zr45  1  0.10418011  0.09237927  0.49809901  1
  Zr  Zr46  1  0.10104676  0.70121733  0.29828770  1
  Zr  Zr47  1  0.90262435  0.30244456  0.50045708  1
  Zr  Zr48  1  0.29172425  0.89725869  0.70921733  1
  Zr  Zr49  1  0.70397007  0.10775166  0.10340176  1
  Sc  Sc50  1  0.50033001  0.69136689  0.70047343  1
  Sc  Sc51  1  0.68174182  0.50064446  0.29137265  1
  Sc  Sc52  1  0.90026921  0.29488402  0.89548317  1
  Sc  Sc53  1  0.70063561  0.90300194  0.50898978  1
  Sc  Sc54  1  0.28695961  0.49691064  0.09460722  1
  Sc  Sc55  1  0.90749305  0.49428460  0.29462784  1
  Sc  Sc56  1  0.10703166  0.89110428  0.09811571  1
  Sc  Sc57  1  0.29683980  0.29764214  0.49880495  1
  Sc  Sc58  1  0.49697778  0.11384997  0.90520784  1
  Sc  Sc59  1  0.49161355  0.70289347  0.09308761  1
  Sc  Sc60  1  0.10012347  0.29973578  0.89960573  1
  Sc  Sc61  1  0.09862440  0.49718884  0.50409425  1
  Sc  Sc62  1  0.10446532  0.49830695  0.30251648  1
  Sc  Sc63  1  0.70836837  0.11573869  0.90581637  1
  Sc  Sc64  1  0.69493695  0.10525277  0.69325384  1
  Sc  Sc65  1  0.90189356  0.30104717  0.69673081  1
  Sc  Sc66  1  0.30109936  0.89803745  0.29438453  1
  Sc  Sc67  1  0.29607603  0.89534554  0.90423874  1
  Sc  Sc68  1  0.49077352  0.89386999  0.90959481  1
  Sc  Sc69  1  0.50816060  0.90250255  0.69342943  1
  Sc  Sc70  1  0.90197057  0.49964387  0.89918400  1
  Sc  Sc71  1  0.49729767  0.29947909  0.49538088  1
  Sc  Sc72  1  0.10339832  0.49325477  0.89339674  1
  Sc  Sc73  1  0.90441263  0.69684012  0.50553511  1
  Sc  Sc74  1  0.29570054  0.69432831  0.49461656  1
  Sc  Sc75  1  0.10187467  0.10408792  0.09514916  1
  Sc  Sc76  1  0.71469262  0.90704047  0.30068931  1
  Sc  Sc77  1  0.09307381  0.30173609  0.09444768  1
  Sc  Sc78  1  0.69624124  0.29696836  0.50159708  1
  Sc  Sc79  1  0.09692512  0.30751943  0.29525290  1
  Sc  Sc80  1  0.30481849  0.09942308  0.09580984  1
  Sc  Sc81  1  0.30396591  0.10040093  0.30073645  1
  Sc  Sc82  1  0.69343849  0.29715566  0.30482103  1
  Sc  Sc83  1  0.29207369  0.29392309  0.90385416  1
  Sc  Sc84  1  0.10015956  0.30514047  0.69705169  1
  Sc  Sc85  1  0.28968211  0.70142369  0.09946179  1
  Sc  Sc86  1  0.50286245  0.29509517  0.30336933  1
  Sc  Sc87  1  0.50144112  0.51319893  0.90239448  1
  Sc  Sc88  1  0.10438094  0.09741363  0.70335683  1
  Sc  Sc89  1  0.70869975  0.69716516  0.10284223  1
  Sc  Sc90  1  0.89257724  0.10059824  0.49977878  1
  Sc  Sc91  1  0.70873278  0.69863926  0.70079669  1
  Sc  Sc92  1  0.69982053  0.69653938  0.50806098  1
  Sc  Sc93  1  0.70677255  0.69764450  0.90539950  1
  Sc  Sc94  1  0.70537645  0.89448627  0.90760593  1
  Sc  Sc95  1  0.70995977  0.89844098  0.10037474  1
  Sc  Sc96  1  0.70808733  0.49896568  0.10027090  1
  Sc  Sc97  1  0.49482498  0.69260773  0.30326851  1
  Sc  Sc98  1  0.10236621  0.89920909  0.89550693  1
  Sc  Sc99  1  0.10022736  0.69142884  0.49581192  1
  Nb  Nb100  1  0.30162195  0.49523559  0.89437164  1
  Nb  Nb101  1  0.09825166  0.69497483  0.09787342  1
  Nb  Nb102  1  0.11267892  0.50201402  0.69922302  1
  Nb  Nb103  1  0.50278070  0.10887625  0.10401339  1
  Nb  Nb104  1  0.49528896  0.49152066  0.30100758  1
  Nb  Nb105  1  0.90068159  0.10071016  0.89920904  1
  Nb  Nb106  1  0.70160859  0.49629730  0.50582077  1
  Nb  Nb107  1  0.89842978  0.90285648  0.10342363  1
  Nb  Nb108  1  0.30184320  0.29788058  0.09872889  1
  Nb  Nb109  1  0.50002350  0.90351887  0.30092761  1
  Nb  Nb110  1  0.50793495  0.09790310  0.30077042  1
  Nb  Nb111  1  0.09903723  0.29330331  0.50047629  1
  Nb  Nb112  1  0.09875769  0.90039529  0.50560850  1
  Nb  Nb113  1  0.89824062  0.49195683  0.10423420  1
  Nb  Nb114  1  0.29172209  0.49684062  0.70053423  1
  Nb  Nb115  1  0.49563635  0.10799315  0.69904916  1
  Nb  Nb116  1  0.89989411  0.30974099  0.10485435  1
  Nb  Nb117  1  0.49625031  0.29245989  0.09752634  1
  Nb  Nb118  1  0.09561029  0.89774466  0.69160999  1
  Nb  Nb119  1  0.69817943  0.49727796  0.68502439  1
  Nb  Nb120  1  0.30275567  0.49352261  0.30114070  1
  Nb  Nb121  1  0.89808003  0.70823353  0.89502917  1
  Nb  Nb122  1  0.30462728  0.10287002  0.70084516  1
  Nb  Nb123  1  0.50347542  0.49734866  0.69558166  1
  Nb  Nb124  1  0.49920734  0.29762545  0.70050139  1
  Nb  Nb125  1  0.59669821  0.00545526  0.00529202  1
  Nb  Nb126  1  0.19603624  0.80393384  0.59929968  1
  Nb  Nb127  1  0.79742194  0.59049221  0.40038299  1
  Nb  Nb128  1  0.39298105  0.80404176  0.59952724  1
  Nb  Nb129  1  0.60115082  0.80279396  0.80335613  1
  Nb  Nb130  1  0.79576846  0.40775950  0.40332391  1
  Nb  Nb131  1  0.40147722  0.40267525  0.60941186  1
  Nb  Nb132  1  0.39465412  0.58685735  0.20352834  1
  Nb  Nb133  1  0.39924214  0.39775954  0.19621741  1
  Nb  Nb134  1  0.39616009  0.00299324  0.60585958  1
  Nb  Nb135  1  0.20551529  0.20726199  0.19699773  1
  Nb  Nb136  1  0.59974383  0.80306439  0.39340572  1
  Nb  Nb137  1  -0.00309546  -0.00518477  0.19685978  1
  Nb  Nb138  1  0.59510648  0.00191568  0.19917323  1
  Nb  Nb139  1  0.40096201  0.40229946  0.79744580  1
  Nb  Nb140  1  0.00263908  0.60185684  0.18965488  1
  Nb  Nb141  1  0.79202372  0.40388418  0.79216401  1
  Nb  Nb142  1  0.59545920  0.80796777  0.20597122  1
  Nb  Nb143  1  0.59766684  0.40469506  0.79102454  1
  Nb  Nb144  1  0.40266708  0.00748028  0.79557747  1
  Nb  Nb145  1  0.80079096  0.00367783  0.80536995  1
  Nb  Nb146  1  0.39887639  0.39863902  0.00087995  1
  Nb  Nb147  1  0.80437294  0.20845212  0.19558067  1
  Nb  Nb148  1  0.00309174  0.20066832  0.40153764  1
  Nb  Nb149  1  0.59899987  0.00159127  0.80809135  1
  Pd  Pd150  1  0.19720485  0.59321498  0.19974623  1
  Pd  Pd151  1  0.39660988  0.20310437  0.20694655  1
  Pd  Pd152  1  0.60455892  0.19903267  0.80177592  1
  Pd  Pd153  1  0.20593710  0.59981490  -0.00984697  1
  Pd  Pd154  1  0.19167057  0.39869470  0.40670748  1
  Pd  Pd155  1  0.40299856  0.01075842  -0.00991754  1
  Pd  Pd156  1  0.39624694  0.20336174  0.80890811  1
  Pd  Pd157  1  0.00442277  0.59484534  0.80513731  1
  Pd  Pd158  1  0.39272029  0.59292245  0.00995041  1
  Pd  Pd159  1  0.20124442  0.80086899  0.20058058  1
  Pd  Pd160  1  0.41105995  0.80889902  0.79072610  1
  Pd  Pd161  1  0.59606687  0.79322231  0.60249499  1
  Pd  Pd162  1  0.40353217  0.79924610  0.40049318  1
  Pd  Pd163  1  0.00423992  0.79630521  0.40738064  1
  Pd  Pd164  1  0.19238700  0.20325186  0.38936397  1
  Pd  Pd165  1  0.00459689  0.80250979  0.80381435  1
  Pd  Pd166  1  0.00439697  0.19116483  0.59781913  1
  Pd  Pd167  1  0.60407894  0.80392000  0.00523253  1
  Pd  Pd168  1  0.00791158  0.40359417  0.60414595  1
  Pd  Pd169  1  0.79450015  0.00367932  -0.00326767  1
  Pd  Pd170  1  0.58933143  0.61244878  0.19413391  1
  Pd  Pd171  1  0.40097207  0.00810583  0.20240651  1
  Pd  Pd172  1  0.40019000  0.78779832  0.20431561  1
  Pd  Pd173  1  0.78875515  0.39876015  0.21180766  1
  Pd  Pd174  1  0.60915081  0.60275333  0.79391852  1
  Pd  Pd175  1  -0.00982339  0.59777071  -0.00219309  1
  Pd  Pd176  1  0.19874348  0.39603028  0.19420192  1
  Pd  Pd177  1  0.79573051  0.59326834  0.79889848  1
  Pd  Pd178  1  0.20731997  0.00347740  0.39404561  1
  Pd  Pd179  1  0.00489387  0.80265179  0.19447753  1
  Pd  Pd180  1  0.39340450  0.00500291  0.40131747  1
  Pd  Pd181  1  -0.00637720  0.39513528  -0.00953896  1
  Pd  Pd182  1  0.60731499  0.60505452  0.40010774  1
  Pd  Pd183  1  0.60397586  0.60610038  0.01121495  1
  Pd  Pd184  1  0.39978676  0.59194997  0.39868269  1
  Pd  Pd185  1  -0.00598920  0.59743450  0.39140112  1
  Pd  Pd186  1  0.00926635  -0.00772174  0.00676685  1
  Pd  Pd187  1  0.20439656  0.39006168  0.80073206  1
  Pd  Pd188  1  -0.00642023  0.00486232  0.39758517  1
  Pd  Pd189  1  0.19356153  -0.00021574  0.00139336  1
  Pd  Pd190  1  0.20492837  -0.00064003  0.60486361  1
  Pd  Pd191  1  0.39558477  0.59739366  0.59977277  1
  Pd  Pd192  1  0.80926774  0.59888579  -0.00058462  1
  Pd  Pd193  1  0.19787577  0.00125477  0.80129608  1
  Pd  Pd194  1  -0.00362139  0.00831301  0.60360976  1
  Pd  Pd195  1  0.00520020  0.20939176  0.79671128  1
  Pd  Pd196  1  0.79352217  0.79490069  0.41144384  1
  Pd  Pd197  1  0.80254661  0.00566104  0.60625210  1
  Pd  Pd198  1  0.80048025  0.19941583  0.60032469  1
  Pd  Pd199  1  0.40114178  0.59114314  0.79541768  1
  Rh  Rh200  1  0.59394171  0.20006609  0.59342171  1
  Rh  Rh201  1  0.60297861  0.60498648  0.60359471  1
  Rh  Rh202  1  0.19146573  0.19794834  0.60244479  1
  Rh  Rh203  1  0.59719690  0.20160654  0.40359518  1
  Rh  Rh204  1  0.81190118  0.59098824  0.20538695  1
  Rh  Rh205  1  0.80496839  0.79501367  0.59786229  1
  Rh  Rh206  1  0.60995917  -0.00836418  0.39078535  1
  Rh  Rh207  1  0.00016375  0.80345133  0.00140919  1
  Rh  Rh208  1  -0.00327688  0.20906295  -0.00219640  1
  Rh  Rh209  1  0.80203294  0.60229771  0.59670255  1
  Rh  Rh210  1  0.79632682  0.80578787  0.80490319  1
  Rh  Rh211  1  0.39513891  0.20166513  -0.00259683  1
  Rh  Rh212  1  0.59485543  0.01040981  0.60852897  1
  Rh  Rh213  1  0.59298576  0.38834901  0.20227250  1
  Rh  Rh214  1  0.40437880  0.19691298  0.39711488  1
  Rh  Rh215  1  -0.00406004  -0.00536557  0.79887046  1
  Rh  Rh216  1  0.19394698  0.80036691  0.40619693  1
  Rh  Rh217  1  0.20302671  0.39522043  0.59668848  1
  Rh  Rh218  1  0.00046274  0.39461947  0.40503659  1
  Rh  Rh219  1  0.19700089  0.59955868  0.80785195  1
  Rh  Rh220  1  0.19266653  0.20062962  0.79567828  1
  Rh  Rh221  1  0.60368189  0.39956671  0.40284105  1
  Rh  Rh222  1  0.79537861  0.80254894  0.19617046  1
  Rh  Rh223  1  0.80834962  0.40005923  -0.00678432  1
  Rh  Rh224  1  0.80080220  0.39643031  0.59911944  1
  Rh  Rh225  1  0.20380505  0.39674700  -0.00455128  1
  Rh  Rh226  1  0.19632718  0.00613389  0.19590330  1
  Rh  Rh227  1  0.80476663  0.00767242  0.19229746  1
  Rh  Rh228  1  0.19790629  0.60334039  0.59657690  1
  Rh  Rh229  1  -0.00431984  0.40229316  0.79449069  1
  Rh  Rh230  1  0.80486790  0.79618672  0.00133366  1
  Rh  Rh231  1  0.00818002  0.79079719  0.59598750  1
  Rh  Rh232  1  0.80301709  -0.01046417  0.41261032  1
  Rh  Rh233  1  0.81075085  0.21330107  0.00722507  1
  Rh  Rh234  1  0.01086220  0.41254074  0.19405739  1
  Rh  Rh235  1  0.59427623  0.40547763  -0.00481353  1
  Rh  Rh236  1  0.00656441  0.59721610  0.60550901  1
  Rh  Rh237  1  0.59227829  0.39172333  0.59814890  1
  Rh  Rh238  1  0.80868342  0.21567451  0.39293379  1
  Rh  Rh239  1  0.60088368  0.19662054  0.00296308  1
  Rh  Rh240  1  0.40597690  0.20225066  0.59446895  1
  Rh  Rh241  1  0.19558515  0.20157503  0.00726693  1
  Rh  Rh242  1  0.60489494  0.20022268  0.20032822  1
  Rh  Rh243  1  -0.00057375  0.19472279  0.20121999  1
  Rh  Rh244  1  0.40482537  0.40166779  0.40537249  1
  Rh  Rh245  1  0.79861274  0.20156686  0.79659790  1
  Rh  Rh246  1  0.20142433  0.79618014  -0.00257862  1
  Rh  Rh247  1  0.19091969  0.79628450  0.79806530  1
  Rh  Rh248  1  0.38780059  0.79314294  0.00340981  1
  Rh  Rh249  1  0.19842952  0.59096538  0.40075757  1
