# generated using pymatgen
data_ZrScNbPdRh
_symmetry_space_group_name_H-M   'P 1'
_cell_length_a   16.56061950
_cell_length_b   16.56234186
_cell_length_c   16.56008686
_cell_angle_alpha   89.96287850
_cell_angle_beta   90.03811167
_cell_angle_gamma   89.99540642
_symmetry_Int_Tables_number   1
_chemical_formula_structural   ZrScNbPdRh
_chemical_formula_sum   'Zr50 Sc50 Nb50 Pd50 Rh50'
_cell_volume   4542.14239702
_cell_formula_units_Z   50
loop_
 _symmetry_equiv_pos_site_id
 _symmetry_equiv_pos_as_xyz
  1  'x, y, z'
loop_
 _atom_site_type_symbol
 _atom_site_label
 _atom_site_symmetry_multiplicity
 _atom_site_fract_x
 _atom_site_fract_y
 _atom_site_fract_z
 _atom_site_occupancy
  Zr  Zr0  1  0.50128290  0.10528940  0.69840458  1
  Zr  Zr1  1  0.49852129  0.90468836  0.29601551  1
  Zr  Zr2  1  0.69495569  0.10390736  0.29089762  1
  Zr  Zr3  1  0.50005006  0.89695301  0.09877587  1
  Zr  Zr4  1  0.49814347  0.09879343  0.89499097  1
  Zr  Zr5  1  0.10217594  0.69843111  0.30239287  1
  Zr  Zr6  1  0.29709838  0.49519525  0.51299044  1
  Zr  Zr7  1  0.49909515  0.49607288  0.50032075  1
  Zr  Zr8  1  0.89704634  0.89439544  0.70264898  1
  Zr  Zr9  1  0.50295380  0.69938885  0.29704921  1
  Zr  Zr10  1  0.09365329  0.10443919  0.09831418  1
  Zr  Zr11  1  0.89355475  0.50432999  0.50609382  1
  Zr  Zr12  1  0.29931169  0.29696682  0.29789065  1
  Zr  Zr13  1  0.70501530  0.28486605  0.11085544  1
  Zr  Zr14  1  0.29420097  0.10344756  0.89641521  1
  Zr  Zr15  1  0.90092453  0.10191047  0.70344733  1
  Zr  Zr16  1  0.09983671  0.68518390  0.49530585  1
  Zr  Zr17  1  0.70301198  0.70602068  0.69484006  1
  Zr  Zr18  1  0.30499859  0.90558033  0.90382839  1
  Zr  Zr19  1  0.08500927  0.30204894  0.70132157  1
  Zr  Zr20  1  0.49921536  0.49880135  0.30033664  1
  Zr  Zr21  1  0.89923785  0.70341288  0.30629511  1
  Zr  Zr22  1  0.29789546  0.69204080  0.50169976  1
  Zr  Zr23  1  0.09715187  0.70253393  0.89601708  1
  Zr  Zr24  1  0.90291814  0.49032327  0.69863415  1
  Zr  Zr25  1  0.28782731  0.69128271  0.29401781  1
  Zr  Zr26  1  0.69685666  0.69790594  0.90601050  1
  Zr  Zr27  1  0.69634015  0.09718603  0.89720284  1
  Zr  Zr28  1  0.09854082  0.89835132  0.29463016  1
  Zr  Zr29  1  0.69897778  0.09891664  0.70484874  1
  Zr  Zr30  1  0.89532623  0.69855588  0.50259949  1
  Zr  Zr31  1  0.10007267  0.09799890  0.69760893  1
  Zr  Zr32  1  0.50735387  0.49497995  0.91152767  1
  Zr  Zr33  1  0.49633602  0.70338589  0.90208421  1
  Zr  Zr34  1  0.90565533  0.89545006  0.90486985  1
  Zr  Zr35  1  0.70221321  0.90265583  0.89823876  1
  Zr  Zr36  1  0.90915260  0.30378182  0.49569353  1
  Zr  Zr37  1  0.30183534  0.09986333  0.69710047  1
  Zr  Zr38  1  0.90555984  0.30337353  0.89725405  1
  Zr  Zr39  1  0.69424791  0.70227455  0.10351706  1
  Zr  Zr40  1  0.49927539  0.89875680  0.90073157  1
  Zr  Zr41  1  0.09289169  0.29728933  0.10314703  1
  Zr  Zr42  1  0.29677057  0.89679608  0.69538829  1
  Zr  Zr43  1  0.50052574  0.09862637  0.29745960  1
  Zr  Zr44  1  0.50374707  0.89885122  0.48843872  1
  Zr  Zr45  1  0.10029112  0.89702990  0.69897836  1
  Zr  Zr46  1  0.50181692  0.30367048  0.89901764  1
  Zr  Zr47  1  0.71224393  0.09511755  0.09728151  1
  Zr  Zr48  1  0.90302797  0.69403867  0.69335302  1
  Zr  Zr49  1  0.30588100  0.70390396  0.89115969  1
  Sc  Sc50  1  0.89851151  0.90121118  0.48699111  1
  Sc  Sc51  1  0.70234099  0.89491304  0.49083147  1
  Sc  Sc52  1  0.70308556  0.50144634  0.30797175  1
  Sc  Sc53  1  0.89210854  0.10049316  0.90637108  1
  Sc  Sc54  1  0.89023586  0.70208038  0.10623466  1
  Sc  Sc55  1  0.29532347  0.90470065  0.29926823  1
  Sc  Sc56  1  0.69822027  0.90672564  0.30413835  1
  Sc  Sc57  1  0.30376317  0.50870921  0.89507289  1
  Sc  Sc58  1  0.49104630  0.10562706  0.50006031  1
  Sc  Sc59  1  0.30286230  0.90809322  0.10003669  1
  Sc  Sc60  1  0.70175466  0.89642821  0.70628132  1
  Sc  Sc61  1  0.09373357  0.49635671  0.10130977  1
  Sc  Sc62  1  0.28587954  0.09880814  0.10425736  1
  Sc  Sc63  1  0.51347058  0.09708512  0.10481324  1
  Sc  Sc64  1  0.29169179  0.30593482  0.10435248  1
  Sc  Sc65  1  0.89126075  0.49627948  0.30724210  1
  Sc  Sc66  1  0.30478649  0.30319556  0.50150943  1
  Sc  Sc67  1  0.10806958  0.91089795  0.49980488  1
  Sc  Sc68  1  0.70404150  0.30788237  0.30149690  1
  Sc  Sc69  1  0.09591620  0.28997106  0.90334234  1
  Sc  Sc70  1  0.90586855  0.70290048  0.90398433  1
  Sc  Sc71  1  0.49214434  0.30140874  0.49992290  1
  Sc  Sc72  1  0.50904737  0.89328770  0.70440677  1
  Sc  Sc73  1  0.89920341  0.49274453  0.09972270  1
  Sc  Sc74  1  0.90118355  0.09094243  0.29840879  1
  Sc  Sc75  1  0.70295251  0.48617757  0.69545238  1
  Sc  Sc76  1  0.69389945  0.31197770  0.50416152  1
  Sc  Sc77  1  0.30109418  0.51253307  0.69653146  1
  Sc  Sc78  1  0.29985194  0.30403756  0.69462719  1
  Sc  Sc79  1  0.29692079  0.09587844  0.29653675  1
  Sc  Sc80  1  0.29991016  0.90528688  0.49703030  1
  Sc  Sc81  1  0.91364146  0.09768318  0.49524969  1
  Sc  Sc82  1  0.50548675  0.70476708  0.49295384  1
  Sc  Sc83  1  0.50012964  0.30947554  0.09139498  1
  Sc  Sc84  1  0.69619866  0.29877928  0.70369652  1
  Sc  Sc85  1  0.69332294  0.30675160  0.89907417  1
  Sc  Sc86  1  0.30741373  0.50205535  0.10481723  1
  Sc  Sc87  1  0.10101448  0.09466302  0.29391347  1
  Sc  Sc88  1  0.30215653  0.09753269  0.50065384  1
  Sc  Sc89  1  0.29276105  0.49498520  0.29185346  1
  Sc  Sc90  1  0.70621632  0.50933809  0.09513216  1
  Sc  Sc91  1  0.10098112  0.70106422  0.10859403  1
  Sc  Sc92  1  0.89896315  0.30657478  0.29668780  1
  Sc  Sc93  1  0.11479923  0.69869276  0.70129207  1
  Sc  Sc94  1  0.70699944  0.70290820  0.49644456  1
  Sc  Sc95  1  0.90052731  0.49205473  0.91033046  1
  Sc  Sc96  1  0.09451230  0.90904485  0.09810665  1
  Sc  Sc97  1  0.09771563  0.31296516  0.29894813  1
  Sc  Sc98  1  0.70510128  0.69888281  0.29914477  1
  Sc  Sc99  1  0.50251165  0.29641854  0.69615897  1
  Nb  Nb100  1  0.90374345  0.28800162  0.09554293  1
  Nb  Nb101  1  0.49519808  0.69316485  0.10095201  1
  Nb  Nb102  1  0.89409676  0.91187942  0.10335025  1
  Nb  Nb103  1  0.10338280  0.50702660  0.30428164  1
  Nb  Nb104  1  0.30031263  0.69771356  0.09797366  1
  Nb  Nb105  1  0.69871174  0.50300403  0.89575787  1
  Nb  Nb106  1  0.31127548  0.69538106  0.70055891  1
  Nb  Nb107  1  0.69993393  0.49929066  0.50068031  1
  Nb  Nb108  1  0.49404575  0.50533351  0.70247392  1
  Nb  Nb109  1  0.49797708  0.69579034  0.70366716  1
  Nb  Nb110  1  0.09765212  0.50152922  0.89877624  1
  Nb  Nb111  1  0.10010959  0.10651894  0.50162338  1
  Nb  Nb112  1  0.50116101  0.50718861  0.10347325  1
  Nb  Nb113  1  0.89650955  0.10736432  0.10284134  1
  Nb  Nb114  1  0.89774893  0.29673739  0.69731456  1
  Nb  Nb115  1  0.49909899  0.29973852  0.30489828  1
  Nb  Nb116  1  0.90439409  0.89736726  0.29619013  1
  Nb  Nb117  1  0.10658400  0.09137821  0.90403841  1
  Nb  Nb118  1  0.70320663  0.09583827  0.49229550  1
  Nb  Nb119  1  0.09904120  0.89736143  0.90199982  1
  Nb  Nb120  1  0.30172302  0.30562627  0.90173616  1
  Nb  Nb121  1  0.10287890  0.49926424  0.69961009  1
  Nb  Nb122  1  0.70592176  0.89882528  0.09650149  1
  Nb  Nb123  1  0.10124437  0.30157324  0.49916398  1
  Nb  Nb124  1  0.10223517  0.49276731  0.50186381  1
  Nb  Nb125  1  0.39942323  0.40340501  0.80160121  1
  Nb  Nb126  1  0.39522360  0.20165165  0.00076077  1
  Nb  Nb127  1  0.79676367  0.19754422  0.40472023  1
  Nb  Nb128  1  -0.00088431  0.59910183  0.20976298  1
  Nb  Nb129  1  0.39703441  0.59724011  0.39773044  1
  Nb  Nb130  1  0.59862559  0.59884711  0.60426208  1
  Nb  Nb131  1  0.20162813  0.79844202  -0.00196133  1
  Nb  Nb132  1  0.19100607  0.20330019  0.59512951  1
  Nb  Nb133  1  0.60517861  0.00252785  0.59480488  1
  Nb  Nb134  1  0.80278614  0.19829786  0.59510019  1
  Nb  Nb135  1  0.19847781  0.40291333  0.80325540  1
  Nb  Nb136  1  -0.00017268  0.59333409  0.79759090  1
  Nb  Nb137  1  0.39874591  0.79168211  0.19600644  1
  Nb  Nb138  1  0.59611444  0.40399522  0.19918036  1
  Nb  Nb139  1  0.00250932  0.79613153  0.59622487  1
  Nb  Nb140  1  0.60270001  0.59660979  0.79700186  1
  Nb  Nb141  1  0.19920020  0.60277042  -0.00172800  1
  Nb  Nb142  1  0.79958110  0.59451598  0.80146511  1
  Nb  Nb143  1  0.19350730  0.20195550  0.40502499  1
  Nb  Nb144  1  0.00631636  -0.00273672  0.80839362  1
  Nb  Nb145  1  0.60209761  0.20083305  0.39820347  1
  Nb  Nb146  1  0.40346272  0.20222849  0.19656830  1
  Nb  Nb147  1  0.79678016  0.00546535  0.59694596  1
  Nb  Nb148  1  0.19824303  0.40597851  -0.00763001  1
  Nb  Nb149  1  0.40077776  0.79300867  0.60248975  1
  Pd  Pd150  1  -0.00358486  0.40833823  0.20486075  1
  Pd  Pd151  1  0.59944861  0.80075174  0.00179950  1
  Pd  Pd152  1  0.20527204  0.80322201  0.80429957  1
  Pd  Pd153  1  0.20260888  0.39828575  0.39964751  1
  Pd  Pd154  1  0.20638179  0.80924949  0.18957630  1
  Pd  Pd155  1  0.00032305  0.40235584  0.59542137  1
  Pd  Pd156  1  0.20144138  0.79466544  0.59303035  1
  Pd  Pd157  1  0.61466873  0.40202043  0.01432245  1
  Pd  Pd158  1  0.39820741  0.20972744  0.80053242  1
  Pd  Pd159  1  0.00156828  0.20162715  0.38910871  1
  Pd  Pd160  1  0.39606319  0.59701888  -0.00147542  1
  Pd  Pd161  1  0.39879029  0.01601448  0.00990503  1
  Pd  Pd162  1  0.40450701  -0.00545997  0.79028367  1
  Pd  Pd163  1  0.79400185  0.40357210  0.19354586  1
  Pd  Pd164  1  0.59847958  0.80394113  0.20304026  1
  Pd  Pd165  1  0.00085261  0.18825790  0.81011890  1
  Pd  Pd166  1  0.79472579  0.39079082  0.00552766  1
  Pd  Pd167  1  0.19771158  -0.00563795  0.79987547  1
  Pd  Pd168  1  0.19781511  0.21050513  0.79236158  1
  Pd  Pd169  1  0.60754847  0.59282512  0.20084859  1
  Pd  Pd170  1  0.60198213  -0.00145187  0.00266801  1
  Pd  Pd171  1  0.79690237  0.80719045  0.20453728  1
  Pd  Pd172  1  0.80787874  0.60173693  -0.00378838  1
  Pd  Pd173  1  0.39536529  0.00514912  0.39787357  1
  Pd  Pd174  1  0.00731814  0.80421454  0.40903806  1
  Pd  Pd175  1  -0.00600903  0.00691806  -0.00108553  1
  Pd  Pd176  1  0.40567139  0.39348888  0.19618493  1
  Pd  Pd177  1  0.20031456  0.80448456  0.40524431  1
  Pd  Pd178  1  0.38935979  0.79300881  0.39486790  1
  Pd  Pd179  1  0.59649244  0.80073497  0.59634880  1
  Pd  Pd180  1  -0.00344167  0.19904578  0.21152697  1
  Pd  Pd181  1  0.60130586  0.60196025  0.40704828  1
  Pd  Pd182  1  0.20321003  0.20764392  0.00231023  1
  Pd  Pd183  1  0.41208504  -0.01239446  0.60279988  1
  Pd  Pd184  1  0.59256886  0.40268651  0.60478046  1
  Pd  Pd185  1  0.00374109  0.79765420  0.01547096  1
  Pd  Pd186  1  0.00703628  -0.00245698  0.39558912  1
  Pd  Pd187  1  -0.00686921  -0.00858461  0.60220928  1
  Pd  Pd188  1  0.59500223  0.19921464  0.00038179  1
  Pd  Pd189  1  0.79970350  0.39968859  0.80240958  1
  Pd  Pd190  1  -0.00482783  0.79745982  0.19373858  1
  Pd  Pd191  1  -0.00586837  0.59042590  0.39751431  1
  Pd  Pd192  1  0.60680816  0.19608840  0.58845609  1
  Pd  Pd193  1  0.80226337  0.79976460  0.00140573  1
  Pd  Pd194  1  0.79597688  0.20788958  0.80156868  1
  Pd  Pd195  1  0.00171042  0.60201469  0.00700894  1
  Pd  Pd196  1  0.39188969  0.40600944  0.39904041  1
  Pd  Pd197  1  0.79794392  0.20777301  -0.01017694  1
  Pd  Pd198  1  0.79914939  -0.00323637  0.20703793  1
  Pd  Pd199  1  0.80223416  0.78985038  0.80703896  1
  Rh  Rh200  1  0.19397035  -0.00401731  0.19749054  1
  Rh  Rh201  1  0.39952176  0.60482671  0.20667186  1
  Rh  Rh202  1  0.80794869  0.81334065  0.59012720  1
  Rh  Rh203  1  0.19031769  0.59074923  0.18805991  1
  Rh  Rh204  1  0.59537389  -0.00120297  0.79454003  1
  Rh  Rh205  1  0.60064508  0.20175038  0.80349960  1
  Rh  Rh206  1  0.59008620  0.21470129  0.20554164  1
  Rh  Rh207  1  0.20237049  0.00981577  0.59729309  1
  Rh  Rh208  1  0.00226689  0.79694994  0.78912711  1
  Rh  Rh209  1  0.39154435  0.40052484  -0.00191018  1
  Rh  Rh210  1  0.79887963  0.39593771  0.40973068  1
  Rh  Rh211  1  0.19551882  0.59887431  0.60361461  1
  Rh  Rh212  1  0.80252432  0.39037914  0.59718666  1
  Rh  Rh213  1  0.79692477  0.59982426  0.40322436  1
  Rh  Rh214  1  0.39988661  0.00173094  0.19780010  1
  Rh  Rh215  1  0.80761107  0.59723705  0.20294909  1
  Rh  Rh216  1  -0.00207120  0.20296441  0.59801646  1
  Rh  Rh217  1  0.39421603  0.79846933  0.00910447  1
  Rh  Rh218  1  0.20883779  0.58465991  0.40512660  1
  Rh  Rh219  1  0.80333461  -0.00278172  -0.00141526  1
  Rh  Rh220  1  -0.00262659  0.19293744  -0.00442042  1
  Rh  Rh221  1  0.78503349  0.59211872  0.60565973  1
  Rh  Rh222  1  0.39726167  0.19797466  0.39159202  1
  Rh  Rh223  1  0.60174062  0.39383602  0.39488415  1
  Rh  Rh224  1  0.59827059  0.60136414  0.00054308  1
  Rh  Rh225  1  0.59461815  0.00807265  0.40557088  1
  Rh  Rh226  1  0.00299939  0.40449714  0.80443336  1
  Rh  Rh227  1  0.20051679  0.20200699  0.20972866  1
  Rh  Rh228  1  0.38912392  0.20292540  0.59931241  1
  Rh  Rh229  1  0.60022165  0.79387685  0.80626994  1
  Rh  Rh230  1  0.00426063  0.39243875  0.00022240  1
  Rh  Rh231  1  0.19157483  0.40406607  0.19299199  1
  Rh  Rh232  1  0.41049017  0.59303218  0.80953895  1
  Rh  Rh233  1  0.60971936  -0.00988668  0.19063953  1
  Rh  Rh234  1  0.40415871  0.39778215  0.61162396  1
  Rh  Rh235  1  0.60780024  0.79720312  0.39241838  1
  Rh  Rh236  1  0.80041587  0.80387257  0.39243073  1
  Rh  Rh237  1  -0.00410467  0.00097753  0.19387269  1
  Rh  Rh238  1  0.01209605  0.60082644  0.60582229  1
  Rh  Rh239  1  0.40080643  0.80772095  0.79091168  1
  Rh  Rh240  1  0.41247716  0.60887858  0.58691820  1
  Rh  Rh241  1  0.19776889  0.00898215  0.39854522  1
  Rh  Rh242  1  0.80966518  -0.00533990  0.80135696  1
  Rh  Rh243  1  0.19545312  0.39530768  0.60935671  1
  Rh  Rh244  1  0.81200962  0.19958252  0.21070079  1
  Rh  Rh245  1  0.59175011  0.40606382  0.79394669  1
  Rh  Rh246  1  0.80497411  0.00298617  0.39702576  1
  Rh  Rh247  1  0.19387085  0.59489185  0.80134813  1
  Rh  Rh248  1  0.00152985  0.40849508  0.40148078  1
  Rh  Rh249  1  0.19871687  -0.00669054  0.00078816  1
