# generated using pymatgen
data_ZrScNbPdRh
_symmetry_space_group_name_H-M   'P 1'
_cell_length_a   16.56163245
_cell_length_b   16.55710124
_cell_length_c   16.56238507
_cell_angle_alpha   90.01194172
_cell_angle_beta   89.95687702
_cell_angle_gamma   89.97516601
_symmetry_Int_Tables_number   1
_chemical_formula_structural   ZrScNbPdRh
_chemical_formula_sum   'Zr50 Sc50 Nb50 Pd50 Rh50'
_cell_volume   4541.61327629
_cell_formula_units_Z   50
loop_
 _symmetry_equiv_pos_site_id
 _symmetry_equiv_pos_as_xyz
  1  'x, y, z'
loop_
 _atom_site_type_symbol
 _atom_site_label
 _atom_site_symmetry_multiplicity
 _atom_site_fract_x
 _atom_site_fract_y
 _atom_site_fract_z
 _atom_site_occupancy
  Zr  Zr0  1  0.69544118  0.09824101  0.50415142  1
  Zr  Zr1  1  0.29249588  0.90132287  0.49655281  1
  Zr  Zr2  1  0.50674953  0.30405726  0.89986049  1
  Zr  Zr3  1  0.70754923  0.90124106  0.29430567  1
  Zr  Zr4  1  0.50245779  0.29462779  0.29449205  1
  Zr  Zr5  1  0.49596319  0.49674230  0.70367657  1
  Zr  Zr6  1  0.51318058  0.89529596  0.69735498  1
  Zr  Zr7  1  0.29675822  0.69869512  0.49552305  1
  Zr  Zr8  1  0.30465252  0.09917422  0.50500713  1
  Zr  Zr9  1  0.49614587  0.49985132  0.10030049  1
  Zr  Zr10  1  0.49396470  0.70589516  0.29612731  1
  Zr  Zr11  1  0.88842259  0.90756130  0.89549037  1
  Zr  Zr12  1  0.10969856  0.49540978  0.09860596  1
  Zr  Zr13  1  0.50883906  0.10361534  0.69575366  1
  Zr  Zr14  1  0.89542382  0.89560997  0.69694958  1
  Zr  Zr15  1  0.49800768  0.29815791  0.70700659  1
  Zr  Zr16  1  0.29608201  0.50799359  0.29743969  1
  Zr  Zr17  1  0.29425452  0.10276099  0.09749717  1
  Zr  Zr18  1  0.49945155  0.10397011  0.29751679  1
  Zr  Zr19  1  0.30454195  0.89572184  0.71516554  1
  Zr  Zr20  1  0.49965738  0.11080818  0.89772311  1
  Zr  Zr21  1  0.09407387  0.50201729  0.30152871  1
  Zr  Zr22  1  0.89569446  0.69509765  0.89524062  1
  Zr  Zr23  1  0.50159023  0.09880003  0.50355578  1
  Zr  Zr24  1  0.89100942  0.49318172  0.89922836  1
  Zr  Zr25  1  0.89609792  0.29709714  0.09787157  1
  Zr  Zr26  1  0.89046066  0.30190496  0.89731025  1
  Zr  Zr27  1  0.29553100  0.70703903  0.89042681  1
  Zr  Zr28  1  0.49016797  0.29406809  0.50824485  1
  Zr  Zr29  1  0.09343298  0.49697858  0.90044580  1
  Zr  Zr30  1  0.10841964  0.08733148  0.51168847  1
  Zr  Zr31  1  0.50297698  0.69853938  0.09881408  1
  Zr  Zr32  1  0.89762802  0.10481458  0.09481243  1
  Zr  Zr33  1  0.49959134  0.09989232  0.10390639  1
  Zr  Zr34  1  0.70841812  0.69480834  0.29156134  1
  Zr  Zr35  1  0.28877544  0.30023311  0.10086939  1
  Zr  Zr36  1  0.10016377  0.69963461  0.89546417  1
  Zr  Zr37  1  0.29542699  0.49817005  0.50013359  1
  Zr  Zr38  1  0.89825019  0.30187378  0.50276553  1
  Zr  Zr39  1  0.10258761  0.70872186  0.50195946  1
  Zr  Zr40  1  0.50975846  0.69187740  0.69870014  1
  Zr  Zr41  1  0.10286790  0.09703505  0.90508303  1
  Zr  Zr42  1  0.90448274  0.49894332  0.49333071  1
  Zr  Zr43  1  0.29476441  0.09116383  0.90285725  1
  Zr  Zr44  1  0.69773151  0.70711835  0.09401434  1
  Zr  Zr45  1  0.30280575  0.10019566  0.29537920  1
  Zr  Zr46  1  0.30063165  0.09963177  0.70483596  1
  Zr  Zr47  1  0.69349998  0.50283139  0.70316057  1
  Zr  Zr48  1  0.90006130  0.90019227  0.29799829  1
  Zr  Zr49  1  0.90381968  0.30937597  0.30397798  1
  Sc  Sc50  1  0.49677938  0.90598200  0.29351694  1
  Sc  Sc51  1  0.09992770  0.10325682  0.29618097  1
  Sc  Sc52  1  0.69922023  0.70059648  0.50325327  1
  Sc  Sc53  1  0.30466205  0.30226364  0.69567345  1
  Sc  Sc54  1  0.50506395  0.89314531  0.88715747  1
  Sc  Sc55  1  0.09939472  0.11045993  0.09980846  1
  Sc  Sc56  1  0.70763720  0.29392301  0.50232730  1
  Sc  Sc57  1  0.28998845  0.69405373  0.70069461  1
  Sc  Sc58  1  0.70222820  0.50537278  0.49763606  1
  Sc  Sc59  1  0.70101733  0.89823939  0.49803800  1
  Sc  Sc60  1  0.89893452  0.49331560  0.71395396  1
  Sc  Sc61  1  0.90038404  0.50694953  0.30133046  1
  Sc  Sc62  1  0.89833153  0.08940232  0.71107654  1
  Sc  Sc63  1  0.50608164  0.69478509  0.89334934  1
  Sc  Sc64  1  0.50988167  0.89412429  0.10280516  1
  Sc  Sc65  1  0.69638462  0.70870975  0.69778441  1
  Sc  Sc66  1  0.69623584  0.50607580  0.09340197  1
  Sc  Sc67  1  0.10135619  0.30856420  0.29821284  1
  Sc  Sc68  1  0.89540592  0.09878655  0.29500666  1
  Sc  Sc69  1  0.70558329  0.10740520  0.09995566  1
  Sc  Sc70  1  0.70972188  0.10713210  0.89224991  1
  Sc  Sc71  1  0.50470027  0.49811062  0.88825611  1
  Sc  Sc72  1  0.30302823  0.28885762  0.89821583  1
  Sc  Sc73  1  0.51070132  0.29769829  0.10076510  1
  Sc  Sc74  1  0.89587342  0.70194060  0.10679763  1
  Sc  Sc75  1  0.11196023  0.30033799  0.69918995  1
  Sc  Sc76  1  0.30062776  0.29638951  0.29548351  1
  Sc  Sc77  1  0.69707057  0.10116549  0.30737812  1
  Sc  Sc78  1  0.49694736  0.50858885  0.29449195  1
  Sc  Sc79  1  0.28947215  0.89811061  0.09780255  1
  Sc  Sc80  1  0.30177986  0.49340173  0.70139074  1
  Sc  Sc81  1  0.09994693  0.30645722  0.90891054  1
  Sc  Sc82  1  0.10872484  0.89542681  0.90600395  1
  Sc  Sc83  1  0.09862724  0.70302696  0.10347995  1
  Sc  Sc84  1  0.49870412  0.90050541  0.49699859  1
  Sc  Sc85  1  0.09497818  0.90472408  0.68316004  1
  Sc  Sc86  1  0.10530667  0.49733586  0.70539471  1
  Sc  Sc87  1  0.29974682  0.89394097  0.30628308  1
  Sc  Sc88  1  0.29941101  0.70219485  0.30088992  1
  Sc  Sc89  1  0.11054921  0.49953092  0.49363074  1
  Sc  Sc90  1  0.10438152  0.09446330  0.70061798  1
  Sc  Sc91  1  0.09268863  0.89340946  0.10331235  1
  Sc  Sc92  1  0.29301856  0.49887848  0.89619341  1
  Sc  Sc93  1  0.90267629  0.89085980  0.50161434  1
  Sc  Sc94  1  0.90145328  0.49901770  0.10679430  1
  Sc  Sc95  1  0.70501293  0.29191312  0.70370309  1
  Sc  Sc96  1  0.89031757  0.09514204  0.49781482  1
  Sc  Sc97  1  0.29112101  0.69631309  0.11179637  1
  Sc  Sc98  1  0.90343643  0.70057756  0.30350376  1
  Sc  Sc99  1  0.50790132  0.69895330  0.49688319  1
  Nb  Nb100  1  0.30325555  0.89966607  0.90359341  1
  Nb  Nb101  1  0.89283850  0.90836136  0.09950005  1
  Nb  Nb102  1  0.69378026  0.30301676  0.29662583  1
  Nb  Nb103  1  0.69945575  0.69922468  0.90708022  1
  Nb  Nb104  1  0.10205098  0.90264557  0.49221823  1
  Nb  Nb105  1  0.90509001  0.29952500  0.70060595  1
  Nb  Nb106  1  0.70253065  0.49462789  0.89710141  1
  Nb  Nb107  1  0.10073768  0.89836640  0.30618100  1
  Nb  Nb108  1  0.70216567  0.50041521  0.30096706  1
  Nb  Nb109  1  0.69480204  0.09825794  0.69802891  1
  Nb  Nb110  1  0.30143299  0.50205002  0.09924582  1
  Nb  Nb111  1  0.70021932  0.89467066  0.90275909  1
  Nb  Nb112  1  0.10287260  0.70761002  0.29809308  1
  Nb  Nb113  1  0.09762971  0.30446997  0.10323238  1
  Nb  Nb114  1  0.70793515  0.90072791  0.08787285  1
  Nb  Nb115  1  0.09671069  0.70021386  0.69870007  1
  Nb  Nb116  1  0.29305949  0.30386967  0.50570746  1
  Nb  Nb117  1  0.90016719  0.10191058  0.89997151  1
  Nb  Nb118  1  0.70072433  0.31246995  0.90826365  1
  Nb  Nb119  1  0.69894541  0.30455726  0.09873533  1
  Nb  Nb120  1  0.90356590  0.70508690  0.69342321  1
  Nb  Nb121  1  0.69703605  0.90266990  0.70553998  1
  Nb  Nb122  1  0.90240167  0.70374212  0.50913550  1
  Nb  Nb123  1  0.10467060  0.30114160  0.50236984  1
  Nb  Nb124  1  0.50144440  0.49907863  0.50181850  1
  Nb  Nb125  1  -0.00124066  0.79817203  0.79455941  1
  Nb  Nb126  1  0.39992885  0.79401609  0.60106871  1
  Nb  Nb127  1  0.60498559  -0.00369557  -0.00416205  1
  Nb  Nb128  1  0.78966263  0.39805215  0.20300344  1
  Nb  Nb129  1  0.00526034  -0.00132678  0.40004920  1
  Nb  Nb130  1  0.59636338  0.40041033  0.40042319  1
  Nb  Nb131  1  -0.00228543  0.20160555  0.79965344  1
  Nb  Nb132  1  0.39700425  0.40491153  0.00458328  1
  Nb  Nb133  1  0.19797158  0.20119273  0.40829667  1
  Nb  Nb134  1  0.59621099  0.39986478  0.59611736  1
  Nb  Nb135  1  -0.00922552  -0.00032944  0.00136659  1
  Nb  Nb136  1  0.19499875  -0.00213636  0.20435376  1
  Nb  Nb137  1  0.00094155  0.39796054  0.59947953  1
  Nb  Nb138  1  0.81129173  0.60374372  0.60331765  1
  Nb  Nb139  1  -0.00102416  0.59980376  0.60263502  1
  Nb  Nb140  1  0.79240393  -0.00407926  0.60834935  1
  Nb  Nb141  1  -0.00064949  0.20152584  0.60173085  1
  Nb  Nb142  1  0.40250150  0.40018279  0.40294833  1
  Nb  Nb143  1  0.39809443  0.79831722  -0.00426485  1
  Nb  Nb144  1  0.39442284  0.60081878  -0.00091357  1
  Nb  Nb145  1  0.40237126  0.59977036  0.59800313  1
  Nb  Nb146  1  0.00035341  0.59917190  -0.00405602  1
  Nb  Nb147  1  0.00595320  0.19868742  0.40931399  1
  Nb  Nb148  1  0.40447449  -0.00746495  -0.00418453  1
  Nb  Nb149  1  0.60244553  0.79815021  0.38876880  1
  Pd  Pd150  1  0.80629951  0.59606437  0.00629785  1
  Pd  Pd151  1  0.00817785  -0.00532648  0.80778739  1
  Pd  Pd152  1  0.20450759  0.79279968  0.00490733  1
  Pd  Pd153  1  0.79725600  0.79404603  0.79797812  1
  Pd  Pd154  1  0.60012568  0.60118334  0.39506310  1
  Pd  Pd155  1  0.61024107  0.19466245  -0.00230808  1
  Pd  Pd156  1  0.59341297  0.59326705  -0.00872266  1
  Pd  Pd157  1  -0.00970830  0.80116909  -0.00703162  1
  Pd  Pd158  1  0.19937436  0.60517959  -0.00012721  1
  Pd  Pd159  1  0.19407283  0.20283403  0.80325845  1
  Pd  Pd160  1  0.19071780  -0.00960809  0.79770513  1
  Pd  Pd161  1  0.79104415  0.40054305  0.39659334  1
  Pd  Pd162  1  0.61030282  0.00323880  0.19246645  1
  Pd  Pd163  1  0.60333258  0.59847325  0.19969687  1
  Pd  Pd164  1  -0.00522641  0.79981507  0.20196703  1
  Pd  Pd165  1  0.79684989  0.79550989  0.40265060  1
  Pd  Pd166  1  0.20435586  0.39105817  0.80514822  1
  Pd  Pd167  1  0.80237774  0.60681932  0.40656202  1
  Pd  Pd168  1  0.80768022  0.18743340  0.60989944  1
  Pd  Pd169  1  0.00271817  0.20680237  0.20764932  1
  Pd  Pd170  1  0.00414691  0.60220129  0.19362934  1
  Pd  Pd171  1  0.41020109  0.00358490  0.80387799  1
  Pd  Pd172  1  0.40029420  -0.01004990  0.60674906  1
  Pd  Pd173  1  0.20570024  0.80590670  0.60625774  1
  Pd  Pd174  1  0.81033732  0.79705757  0.00151814  1
  Pd  Pd175  1  0.39256544  0.80528906  0.18997266  1
  Pd  Pd176  1  0.40253005  0.59743115  0.40364035  1
  Pd  Pd177  1  0.39009275  -0.00984388  0.19030125  1
  Pd  Pd178  1  0.80295075  0.19918899  0.39327460  1
  Pd  Pd179  1  0.20108148  0.40196923  0.20644328  1
  Pd  Pd180  1  0.79513739  0.20604332  0.20833458  1
  Pd  Pd181  1  0.79859700  0.40943910  0.60639197  1
  Pd  Pd182  1  -0.00145103  0.60114488  0.79722239  1
  Pd  Pd183  1  0.00551393  0.00128885  0.19848497  1
  Pd  Pd184  1  0.60260598  0.40889131  0.20306798  1
  Pd  Pd185  1  0.40752737  0.78940390  0.79615450  1
  Pd  Pd186  1  0.59809801  -0.00790686  0.39875390  1
  Pd  Pd187  1  0.79494630  0.00610569  0.19755918  1
  Pd  Pd188  1  0.60682002  0.80382290  0.20297759  1
  Pd  Pd189  1  0.39810763  0.39531332  0.20014659  1
  Pd  Pd190  1  0.79310529  0.60700726  0.79180894  1
  Pd  Pd191  1  0.00579043  0.60962102  0.40652989  1
  Pd  Pd192  1  0.00211371  0.20044976  -0.00728824  1
  Pd  Pd193  1  0.39973694  0.20428744  0.00599585  1
  Pd  Pd194  1  0.60171602  0.20689806  0.40601635  1
  Pd  Pd195  1  0.20012821  0.59501090  0.79721811  1
  Pd  Pd196  1  0.40187289  -0.00279540  0.39818647  1
  Pd  Pd197  1  0.60491489  0.00452706  0.80917270  1
  Pd  Pd198  1  -0.00616636  0.40388760  0.00590958  1
  Pd  Pd199  1  0.39116940  0.20610518  0.40162728  1
  Rh  Rh200  1  0.18563982  0.80793874  0.79135794  1
  Rh  Rh201  1  0.80418472  0.20105280  0.79642308  1
  Rh  Rh202  1  0.79704919  0.59183119  0.19711799  1
  Rh  Rh203  1  0.79755735  0.00646983  -0.00334999  1
  Rh  Rh204  1  0.20961648  0.39187211  0.39326837  1
  Rh  Rh205  1  0.21333296  -0.00915984  0.60955056  1
  Rh  Rh206  1  -0.00614998  0.39967657  0.19675449  1
  Rh  Rh207  1  0.60189884  0.20891600  0.59877147  1
  Rh  Rh208  1  0.20767464  0.39691120  -0.00340306  1
  Rh  Rh209  1  0.80683429  -0.00469257  0.40636608  1
  Rh  Rh210  1  0.19911321  0.79548197  0.39602525  1
  Rh  Rh211  1  0.19471473  -0.00261980  0.01114031  1
  Rh  Rh212  1  0.60962175  0.79246156  0.80722713  1
  Rh  Rh213  1  0.78980696  0.00155468  0.79679421  1
  Rh  Rh214  1  0.60812975  0.39327587  0.79370707  1
  Rh  Rh215  1  0.19225686  0.60016243  0.20506388  1
  Rh  Rh216  1  0.39474483  0.60011218  0.79762983  1
  Rh  Rh217  1  0.40252115  0.20565639  0.19105419  1
  Rh  Rh218  1  0.00637427  0.39540119  0.40696474  1
  Rh  Rh219  1  0.39429178  0.19714495  0.60697273  1
  Rh  Rh220  1  0.79653614  0.40433058  0.01121962  1
  Rh  Rh221  1  0.61272462  0.60389988  0.80691694  1
  Rh  Rh222  1  0.79505867  0.20471609  -0.00438367  1
  Rh  Rh223  1  0.00705197  0.38899709  0.79318292  1
  Rh  Rh224  1  0.60904256  0.20598929  0.80428423  1
  Rh  Rh225  1  0.00043927  0.80291957  0.39899173  1
  Rh  Rh226  1  0.19297028  0.60753470  0.39208812  1
  Rh  Rh227  1  0.19431160  0.40590767  0.60327040  1
  Rh  Rh228  1  0.20218604  0.19810297  0.59911556  1
  Rh  Rh229  1  0.60230757  0.59167239  0.59826318  1
  Rh  Rh230  1  0.39873008  0.19753888  0.79600308  1
  Rh  Rh231  1  0.59444967  0.80570682  -0.00678076  1
  Rh  Rh232  1  0.40823676  0.80024520  0.40644779  1
  Rh  Rh233  1  0.39705948  0.60656775  0.19433831  1
  Rh  Rh234  1  0.60561677  -0.00595080  0.59755518  1
  Rh  Rh235  1  0.80295969  0.80229229  0.19485564  1
  Rh  Rh236  1  0.59790156  0.80628725  0.58853715  1
  Rh  Rh237  1  -0.01489905  0.00435005  0.58833985  1
  Rh  Rh238  1  0.39472694  0.39586970  0.81355209  1
  Rh  Rh239  1  0.19521571  0.00950481  0.38900922  1
  Rh  Rh240  1  0.79074065  0.80190870  0.60134755  1
  Rh  Rh241  1  0.40215987  0.40635214  0.59424683  1
  Rh  Rh242  1  0.19748381  0.80686080  0.20553953  1
  Rh  Rh243  1  0.59649809  0.40623572  -0.00142609  1
  Rh  Rh244  1  0.19357294  0.19819380  0.20453927  1
  Rh  Rh245  1  0.19835853  0.59382101  0.60411872  1
  Rh  Rh246  1  0.60621056  0.19269524  0.19916462  1
  Rh  Rh247  1  0.79171418  0.39335260  0.79499697  1
  Rh  Rh248  1  0.00688343  0.79909856  0.60036038  1
  Rh  Rh249  1  0.19286195  0.20746777  0.00044666  1
