# generated using pymatgen
data_ZrScNbPdRh
_symmetry_space_group_name_H-M   'P 1'
_cell_length_a   16.55497264
_cell_length_b   16.55244367
_cell_length_c   16.54837183
_cell_angle_alpha   89.98395717
_cell_angle_beta   90.00138657
_cell_angle_gamma   89.98573026
_symmetry_Int_Tables_number   1
_chemical_formula_structural   ZrScNbPdRh
_chemical_formula_sum   'Zr50 Sc50 Nb50 Pd50 Rh50'
_cell_volume   4534.67144239
_cell_formula_units_Z   50
loop_
 _symmetry_equiv_pos_site_id
 _symmetry_equiv_pos_as_xyz
  1  'x, y, z'
loop_
 _atom_site_type_symbol
 _atom_site_label
 _atom_site_symmetry_multiplicity
 _atom_site_fract_x
 _atom_site_fract_y
 _atom_site_fract_z
 _atom_site_occupancy
  Zr  Zr0  1  0.90000431  0.50764070  0.70085714  1
  Zr  Zr1  1  0.50223240  0.50045372  0.50017666  1
  Zr  Zr2  1  0.30018131  0.29834384  0.29965788  1
  Zr  Zr3  1  0.10484747  0.89177756  0.70412296  1
  Zr  Zr4  1  0.09578007  0.09375367  0.50112534  1
  Zr  Zr5  1  0.69501297  0.30155595  0.69733856  1
  Zr  Zr6  1  0.29326803  0.69155292  0.71132073  1
  Zr  Zr7  1  0.31369019  0.10385202  0.30374190  1
  Zr  Zr8  1  0.69009138  0.49932274  0.89184010  1
  Zr  Zr9  1  0.90630124  0.09332759  0.90071861  1
  Zr  Zr10  1  0.70053671  0.10302493  0.69334838  1
  Zr  Zr11  1  0.69283776  0.50371320  0.30124247  1
  Zr  Zr12  1  0.30321139  0.10589480  0.90396956  1
  Zr  Zr13  1  0.30226284  0.29121778  0.89864376  1
  Zr  Zr14  1  0.31150189  0.49777241  0.89189216  1
  Zr  Zr15  1  0.50383756  0.70280390  0.30173000  1
  Zr  Zr16  1  0.89577904  0.70482849  0.30150640  1
  Zr  Zr17  1  0.10471657  0.50660088  0.69863265  1
  Zr  Zr18  1  0.49372786  0.89911363  0.09407665  1
  Zr  Zr19  1  0.69339636  0.29679682  0.09676243  1
  Zr  Zr20  1  0.09650457  0.90185961  0.11816252  1
  Zr  Zr21  1  0.89797713  0.09509815  0.50399462  1
  Zr  Zr22  1  0.71431261  0.10322472  0.49638082  1
  Zr  Zr23  1  0.88699712  0.70202635  0.10189992  1
  Zr  Zr24  1  0.89304802  0.29499123  0.09163515  1
  Zr  Zr25  1  0.29939778  0.29975350  0.49948226  1
  Zr  Zr26  1  0.89744215  0.09128781  0.10267891  1
  Zr  Zr27  1  0.70166548  0.30152283  0.89990641  1
  Zr  Zr28  1  0.70070254  0.70156432  0.30373913  1
  Zr  Zr29  1  0.69628707  0.89300746  0.69901796  1
  Zr  Zr30  1  0.10033922  0.49750618  0.50116715  1
  Zr  Zr31  1  0.29507045  0.89868509  0.29551940  1
  Zr  Zr32  1  0.10850776  0.10557514  0.89748667  1
  Zr  Zr33  1  0.09374531  0.10112065  0.29370853  1
  Zr  Zr34  1  0.69265783  0.29493972  0.29587087  1
  Zr  Zr35  1  0.10597259  0.70444292  0.89461458  1
  Zr  Zr36  1  0.09880140  0.49049055  0.30133889  1
  Zr  Zr37  1  0.10189829  0.69677698  0.09124635  1
  Zr  Zr38  1  0.10636455  0.30523828  0.69910587  1
  Zr  Zr39  1  0.90090020  0.50591053  0.09145107  1
  Zr  Zr40  1  0.29868964  0.70032192  0.29184047  1
  Zr  Zr41  1  0.49757212  0.91309063  0.30144580  1
  Zr  Zr42  1  0.29890434  0.50062185  0.10435613  1
  Zr  Zr43  1  0.10164479  0.30026920  0.29562803  1
  Zr  Zr44  1  0.50552658  0.90172168  0.89309655  1
  Zr  Zr45  1  0.10002219  0.71737399  0.29791815  1
  Zr  Zr46  1  0.49707899  0.09848368  0.89802103  1
  Zr  Zr47  1  0.09960289  0.49816955  0.10167926  1
  Zr  Zr48  1  0.89688361  0.10069897  0.30883002  1
  Zr  Zr49  1  0.91145506  0.29911542  0.29468342  1
  Sc  Sc50  1  0.50033777  0.30427087  0.49799284  1
  Sc  Sc51  1  0.29716501  0.89826079  0.09846389  1
  Sc  Sc52  1  0.50470572  0.89848850  0.50825861  1
  Sc  Sc53  1  0.30722416  0.89586247  0.90582969  1
  Sc  Sc54  1  0.49205331  0.30612861  0.29645507  1
  Sc  Sc55  1  0.10370870  0.09993341  0.10126966  1
  Sc  Sc56  1  0.89634389  0.89340865  0.50056728  1
  Sc  Sc57  1  0.70032826  0.89926664  0.50402491  1
  Sc  Sc58  1  0.70098085  0.71249399  0.50141723  1
  Sc  Sc59  1  0.49309633  0.50624314  0.71566036  1
  Sc  Sc60  1  0.71380102  0.90588676  0.09992660  1
  Sc  Sc61  1  0.10468198  0.29743057  0.10676061  1
  Sc  Sc62  1  0.50964769  0.70272738  0.50248642  1
  Sc  Sc63  1  0.88980946  0.28820130  0.49269067  1
  Sc  Sc64  1  0.50085093  0.09661278  0.70374003  1
  Sc  Sc65  1  0.69031134  0.10237144  0.90090917  1
  Sc  Sc66  1  0.90620811  0.89902024  0.29442577  1
  Sc  Sc67  1  0.49766097  0.30114954  0.90035484  1
  Sc  Sc68  1  0.50222161  0.69928944  0.89535934  1
  Sc  Sc69  1  0.69750804  0.50356417  0.09073093  1
  Sc  Sc70  1  0.70052765  0.09051163  0.29361633  1
  Sc  Sc71  1  0.10471921  0.70006659  0.50558407  1
  Sc  Sc72  1  0.09612285  0.70184160  0.70390351  1
  Sc  Sc73  1  0.68787167  0.49428788  0.49841266  1
  Sc  Sc74  1  0.30223902  0.90227954  0.50644818  1
  Sc  Sc75  1  0.90900456  0.89058906  0.70471618  1
  Sc  Sc76  1  0.90532836  0.49585245  0.29443033  1
  Sc  Sc77  1  0.69898642  0.69745598  0.89511656  1
  Sc  Sc78  1  0.70432995  0.90080735  0.30999683  1
  Sc  Sc79  1  0.69055398  0.29871252  0.50346063  1
  Sc  Sc80  1  0.30754688  0.89052609  0.69911371  1
  Sc  Sc81  1  0.50131077  0.10171516  0.10192124  1
  Sc  Sc82  1  0.70176870  0.10597341  0.10123050  1
  Sc  Sc83  1  0.30350237  0.29248620  0.70033038  1
  Sc  Sc84  1  0.49434443  0.70338953  0.70270062  1
  Sc  Sc85  1  0.89917433  0.69560643  0.89461689  1
  Sc  Sc86  1  0.29840417  0.49637328  0.29711396  1
  Sc  Sc87  1  0.08890547  0.50663870  0.90431376  1
  Sc  Sc88  1  0.48748645  0.09015288  0.49473507  1
  Sc  Sc89  1  0.09359804  0.90222570  0.89115113  1
  Sc  Sc90  1  0.10049265  0.89570681  0.50622083  1
  Sc  Sc91  1  0.30161721  0.10187497  0.50567490  1
  Sc  Sc92  1  0.69785588  0.89758149  0.89429274  1
  Sc  Sc93  1  0.50272686  0.29384394  0.70016271  1
  Sc  Sc94  1  0.30306442  0.30144938  0.10018089  1
  Sc  Sc95  1  0.10317078  0.30824474  0.90036176  1
  Sc  Sc96  1  0.30178397  0.69736619  0.51289668  1
  Sc  Sc97  1  0.09906465  0.09326135  0.69876628  1
  Sc  Sc98  1  0.10897133  0.30462200  0.49401837  1
  Sc  Sc99  1  0.29091032  0.50576858  0.50286700  1
  Nb  Nb100  1  0.49974377  0.50218196  0.90576281  1
  Nb  Nb101  1  0.70546974  0.69453266  0.70183387  1
  Nb  Nb102  1  0.51115391  0.89747552  0.70559118  1
  Nb  Nb103  1  0.50312330  0.30841162  0.10198148  1
  Nb  Nb104  1  0.49879489  0.49605465  0.09852392  1
  Nb  Nb105  1  0.50055905  0.10050496  0.30088258  1
  Nb  Nb106  1  0.90255819  0.49870906  0.49914164  1
  Nb  Nb107  1  0.89909353  0.30584958  0.89545590  1
  Nb  Nb108  1  0.49528483  0.70076192  0.10179169  1
  Nb  Nb109  1  0.89820238  0.10562850  0.69971080  1
  Nb  Nb110  1  0.90189910  0.90263387  0.09178241  1
  Nb  Nb111  1  0.69981323  0.69838339  0.10369996  1
  Nb  Nb112  1  0.89918262  0.69171256  0.50691926  1
  Nb  Nb113  1  0.30347024  0.50393589  0.69806205  1
  Nb  Nb114  1  0.29668285  0.70125360  0.90985882  1
  Nb  Nb115  1  0.89248983  0.69683114  0.68943610  1
  Nb  Nb116  1  0.90290159  0.90298130  0.90160712  1
  Nb  Nb117  1  0.90001563  0.48368176  0.89489276  1
  Nb  Nb118  1  0.10532419  0.90034406  0.29836730  1
  Nb  Nb119  1  0.30389938  0.70140620  0.09129218  1
  Nb  Nb120  1  0.50307317  0.50276217  0.30342957  1
  Nb  Nb121  1  0.29868208  0.10475848  0.70849772  1
  Nb  Nb122  1  0.89841754  0.30862451  0.70666077  1
  Nb  Nb123  1  0.69687527  0.49885291  0.70057238  1
  Nb  Nb124  1  0.29518839  0.11189189  0.09187588  1
  Nb  Nb125  1  0.60525530  0.59985344  0.61051771  1
  Nb  Nb126  1  0.79781521  0.40002687  0.19881194  1
  Nb  Nb127  1  -0.00452231  0.20546528  0.79805184  1
  Nb  Nb128  1  0.80535311  0.20100800  0.79927860  1
  Nb  Nb129  1  -0.00536405  0.20513351  0.60599863  1
  Nb  Nb130  1  0.39631840  0.40590352  0.60511759  1
  Nb  Nb131  1  0.00004076  0.60557605  0.20250136  1
  Nb  Nb132  1  0.39983192  0.79801645  0.39811813  1
  Nb  Nb133  1  0.40284651  0.60105309  0.00472921  1
  Nb  Nb134  1  0.80489034  0.59532414  0.40564245  1
  Nb  Nb135  1  0.20727433  0.40670126  0.79662432  1
  Nb  Nb136  1  0.79952185  0.40123329  0.39724767  1
  Nb  Nb137  1  -0.00755825  0.80558099  0.00106710  1
  Nb  Nb138  1  0.60122283  0.79453781  0.01019501  1
  Nb  Nb139  1  0.80588799  0.00332618  0.79711624  1
  Nb  Nb140  1  0.59387394  0.60313208  0.19287651  1
  Nb  Nb141  1  0.59439034  0.19222403  0.39309450  1
  Nb  Nb142  1  0.20935180  0.00275442  0.79853708  1
  Nb  Nb143  1  -0.00851841  0.39674393  0.60033097  1
  Nb  Nb144  1  -0.00402597  0.20048905  -0.00624556  1
  Nb  Nb145  1  0.40337724  0.60324270  0.39679818  1
  Nb  Nb146  1  -0.00269590  0.60216997  0.40038608  1
  Nb  Nb147  1  0.19651210  -0.00198897  0.39410983  1
  Nb  Nb148  1  0.59995481  0.79892001  0.19400913  1
  Nb  Nb149  1  0.80230360  0.40427472  0.59958381  1
  Pd  Pd150  1  0.00041894  0.79401876  0.59881093  1
  Pd  Pd151  1  0.20664856  0.58949649  -0.00773328  1
  Pd  Pd152  1  0.58849368  0.18904445  0.58520687  1
  Pd  Pd153  1  0.40555773  0.79858773  0.59747397  1
  Pd  Pd154  1  0.18895565  0.81308630  0.00079451  1
  Pd  Pd155  1  0.19942536  0.60421103  0.39696200  1
  Pd  Pd156  1  0.60075398  0.40721685  0.19778197  1
  Pd  Pd157  1  0.79918133  0.59673176  -0.01414294  1
  Pd  Pd158  1  -0.00071933  0.79940254  0.40916431  1
  Pd  Pd159  1  0.39637290  0.00587765  0.00494831  1
  Pd  Pd160  1  -0.00564912  -0.00253003  0.60713420  1
  Pd  Pd161  1  0.39243379  0.00654049  0.18919710  1
  Pd  Pd162  1  0.40134692  0.80481404  0.20238039  1
  Pd  Pd163  1  0.58893072  0.39765009  0.79906267  1
  Pd  Pd164  1  0.79523160  0.81123045  0.20309208  1
  Pd  Pd165  1  0.59092230  0.20233614  0.00049152  1
  Pd  Pd166  1  0.60709405  -0.00646143  0.00431241  1
  Pd  Pd167  1  0.80226710  0.59424561  0.80603758  1
  Pd  Pd168  1  0.79703348  0.79960480  -0.00839124  1
  Pd  Pd169  1  0.79293574  0.40552749  0.00146744  1
  Pd  Pd170  1  0.40550646  0.20311137  0.59919918  1
  Pd  Pd171  1  0.40148490  -0.00223684  0.61155124  1
  Pd  Pd172  1  0.00459474  0.39105401  0.00441909  1
  Pd  Pd173  1  0.40490374  0.59406007  0.20125617  1
  Pd  Pd174  1  0.40134573  0.39951060  0.00225967  1
  Pd  Pd175  1  0.59952605  0.00598088  0.59541050  1
  Pd  Pd176  1  0.78708591  0.59332078  0.59035064  1
  Pd  Pd177  1  0.39828959  0.79640925  0.80536331  1
  Pd  Pd178  1  0.20690331  -0.00099837  0.60345716  1
  Pd  Pd179  1  0.00565672  0.20517807  0.41037317  1
  Pd  Pd180  1  0.79003240  0.00382260  -0.01024977  1
  Pd  Pd181  1  0.39542142  -0.00297327  0.79375551  1
  Pd  Pd182  1  0.21011774  0.01227036  0.20289017  1
  Pd  Pd183  1  0.40506842  0.20302475  0.19262536  1
  Pd  Pd184  1  0.01385825  -0.00108485  0.00236158  1
  Pd  Pd185  1  0.20150137  0.40232453  -0.00639643  1
  Pd  Pd186  1  0.19211957  0.60453558  0.20234201  1
  Pd  Pd187  1  0.80429549  0.80322354  0.80035155  1
  Pd  Pd188  1  0.80140294  0.20078586  0.20408251  1
  Pd  Pd189  1  0.60463511  0.00439162  0.40955564  1
  Pd  Pd190  1  0.60513351  -0.00537279  0.19367757  1
  Pd  Pd191  1  0.59455750  0.60557344  0.00222792  1
  Pd  Pd192  1  0.39332531  0.41001319  0.40599584  1
  Pd  Pd193  1  0.19651683  -0.00755709  -0.00559849  1
  Pd  Pd194  1  0.20801209  0.80493034  0.41053997  1
  Pd  Pd195  1  0.80683835  -0.01302483  0.60900196  1
  Pd  Pd196  1  0.00293183  -0.01202291  0.39883365  1
  Pd  Pd197  1  -0.00366605  0.60366022  0.80050102  1
  Pd  Pd198  1  0.19408760  0.19462606  0.60046283  1
  Pd  Pd199  1  0.19794718  0.19041247  0.39897516  1
  Rh  Rh200  1  0.20191662  0.79663787  0.60510934  1
  Rh  Rh201  1  -0.00842160  0.60983218  0.00152598  1
  Rh  Rh202  1  0.39855141  0.60978130  0.81116564  1
  Rh  Rh203  1  0.59788938  0.60327758  0.79447459  1
  Rh  Rh204  1  -0.00337333  0.19386901  0.18814307  1
  Rh  Rh205  1  0.19571678  0.20170554  0.79631508  1
  Rh  Rh206  1  0.19676892  0.60605435  0.60356949  1
  Rh  Rh207  1  0.79709494  0.58988628  0.20649126  1
  Rh  Rh208  1  -0.00792051  0.79120004  0.80389721  1
  Rh  Rh209  1  0.20620859  0.19778718  0.20071275  1
  Rh  Rh210  1  0.79250530  0.40145144  0.79576850  1
  Rh  Rh211  1  0.00588476  0.59860765  0.59630267  1
  Rh  Rh212  1  0.41027798  0.59354804  0.59417829  1
  Rh  Rh213  1  0.20099047  0.59420836  0.80810264  1
  Rh  Rh214  1  0.80475975  0.79693482  0.40595871  1
  Rh  Rh215  1  0.39005216  -0.00940220  0.40203983  1
  Rh  Rh216  1  0.40801056  0.20283133  0.40427661  1
  Rh  Rh217  1  0.01170851  0.40255950  0.79647175  1
  Rh  Rh218  1  0.20499725  0.39469816  0.20050279  1
  Rh  Rh219  1  0.40717972  0.20331391  0.00711785  1
  Rh  Rh220  1  0.59249466  0.81388641  0.39461748  1
  Rh  Rh221  1  0.80515497  0.21341394  0.60821250  1
  Rh  Rh222  1  0.60241642  0.79236943  0.80097304  1
  Rh  Rh223  1  0.39761920  0.39116851  0.79200980  1
  Rh  Rh224  1  0.20651662  0.40022661  0.39634603  1
  Rh  Rh225  1  0.80362392  0.19412930  -0.01129693  1
  Rh  Rh226  1  0.40866535  0.79282158  -0.00667640  1
  Rh  Rh227  1  0.20809331  0.40091831  0.60617238  1
  Rh  Rh228  1  0.80362990  -0.00587036  0.40006013  1
  Rh  Rh229  1  0.20904586  0.80754482  0.80454642  1
  Rh  Rh230  1  -0.00457542  0.39678237  0.40997980  1
  Rh  Rh231  1  0.00277081  0.00135652  0.79279086  1
  Rh  Rh232  1  0.40155608  0.40289915  0.20002829  1
  Rh  Rh233  1  0.60113650  0.79096063  0.61056668  1
  Rh  Rh234  1  0.19432082  0.20796771  0.00454294  1
  Rh  Rh235  1  0.60844995  0.00283039  0.79514365  1
  Rh  Rh236  1  -0.00585019  0.00198729  0.20386943  1
  Rh  Rh237  1  -0.00751378  0.40436176  0.18719667  1
  Rh  Rh238  1  0.80114810  0.79941388  0.60186359  1
  Rh  Rh239  1  0.60046435  0.38727739  0.39573152  1
  Rh  Rh240  1  0.60148547  0.60296417  0.40670727  1
  Rh  Rh241  1  0.59037118  0.41083857  0.61104263  1
  Rh  Rh242  1  0.78942742  0.20529241  0.39084793  1
  Rh  Rh243  1  0.80392784  -0.00316062  0.20341572  1
  Rh  Rh244  1  0.59122264  0.19838127  0.20307450  1
  Rh  Rh245  1  0.59758926  0.39869989  -0.00382158  1
  Rh  Rh246  1  -0.00498892  0.79495361  0.19004205  1
  Rh  Rh247  1  0.20455781  0.79366790  0.18790644  1
  Rh  Rh248  1  0.60357965  0.19973875  0.80243086  1
  Rh  Rh249  1  0.40733883  0.19889159  0.79950833  1
