# generated using pymatgen
data_ZrScNbPdRh
_symmetry_space_group_name_H-M   'P 1'
_cell_length_a   16.55456389
_cell_length_b   16.55263555
_cell_length_c   16.55430358
_cell_angle_alpha   90.01023872
_cell_angle_beta   89.99654057
_cell_angle_gamma   89.99324754
_symmetry_Int_Tables_number   1
_chemical_formula_structural   ZrScNbPdRh
_chemical_formula_sum   'Zr50 Sc50 Nb50 Pd50 Rh50'
_cell_volume   4536.23767835
_cell_formula_units_Z   50
loop_
 _symmetry_equiv_pos_site_id
 _symmetry_equiv_pos_as_xyz
  1  'x, y, z'
loop_
 _atom_site_type_symbol
 _atom_site_label
 _atom_site_symmetry_multiplicity
 _atom_site_fract_x
 _atom_site_fract_y
 _atom_site_fract_z
 _atom_site_occupancy
  Zr  Zr0  1  0.50317967  0.10536587  0.69189217  1
  Zr  Zr1  1  0.90256559  0.09439619  0.29859814  1
  Zr  Zr2  1  0.70776953  0.70633684  0.49165730  1
  Zr  Zr3  1  0.50839675  0.49625645  0.89815269  1
  Zr  Zr4  1  0.89660071  0.90288807  0.10522577  1
  Zr  Zr5  1  0.91052174  0.30663686  0.68865378  1
  Zr  Zr6  1  0.29241731  0.90121142  0.30424329  1
  Zr  Zr7  1  0.51215417  0.89776006  0.69980548  1
  Zr  Zr8  1  0.10132492  0.50048218  0.49284877  1
  Zr  Zr9  1  0.90097593  0.29682888  0.10594850  1
  Zr  Zr10  1  0.50024946  0.50118949  0.50132320  1
  Zr  Zr11  1  0.89882676  0.29351392  0.90632633  1
  Zr  Zr12  1  0.29246097  0.69885960  0.30434315  1
  Zr  Zr13  1  0.70245219  0.50136908  0.50595735  1
  Zr  Zr14  1  0.70220968  0.30615423  0.49657519  1
  Zr  Zr15  1  0.29178286  0.69800382  0.50620852  1
  Zr  Zr16  1  0.30171024  0.50629141  0.69575644  1
  Zr  Zr17  1  0.49410525  0.29798329  0.10369953  1
  Zr  Zr18  1  0.11476651  0.49602703  0.10432005  1
  Zr  Zr19  1  0.09778092  0.69817172  0.68517559  1
  Zr  Zr20  1  0.90143040  0.70640264  0.09919998  1
  Zr  Zr21  1  0.89820542  0.09696288  0.89879485  1
  Zr  Zr22  1  0.29566101  0.10820537  0.10106377  1
  Zr  Zr23  1  0.10251285  0.09666788  0.88966845  1
  Zr  Zr24  1  0.70125297  0.69054782  0.91130699  1
  Zr  Zr25  1  0.89920693  0.50743629  0.69551352  1
  Zr  Zr26  1  0.30219172  0.49999322  0.91439699  1
  Zr  Zr27  1  0.30301648  0.09078697  0.49717891  1
  Zr  Zr28  1  0.70583071  0.08949660  0.69720236  1
  Zr  Zr29  1  0.70453042  0.69743302  0.10444106  1
  Zr  Zr30  1  0.49742093  0.10758846  0.90119275  1
  Zr  Zr31  1  0.09219573  0.89135697  0.10040315  1
  Zr  Zr32  1  0.49587912  0.90391343  0.10064229  1
  Zr  Zr33  1  0.49517442  0.69435197  0.69842514  1
  Zr  Zr34  1  0.50581896  0.50248633  0.70019637  1
  Zr  Zr35  1  0.09632676  0.48702764  0.70298333  1
  Zr  Zr36  1  0.30000898  0.69940319  0.70217203  1
  Zr  Zr37  1  0.28692733  0.29846011  0.69604591  1
  Zr  Zr38  1  0.70270118  0.69794073  0.68754614  1
  Zr  Zr39  1  0.49882529  0.10915278  0.29894849  1
  Zr  Zr40  1  0.90555994  0.89997467  0.89876505  1
  Zr  Zr41  1  0.69908978  0.49973534  0.69701859  1
  Zr  Zr42  1  0.70322550  0.70239962  0.30233852  1
  Zr  Zr43  1  0.49567540  0.90539059  0.49954194  1
  Zr  Zr44  1  0.69864076  0.89853510  0.10201327  1
  Zr  Zr45  1  0.29536410  0.10657032  0.31066727  1
  Zr  Zr46  1  0.69626843  0.09710409  0.10749145  1
  Zr  Zr47  1  0.29741248  0.31174489  0.10663363  1
  Zr  Zr48  1  0.70341092  0.10044300  0.90193284  1
  Zr  Zr49  1  0.10372863  0.30598480  0.88813079  1
  Sc  Sc50  1  0.69716823  0.50680872  0.10330241  1
  Sc  Sc51  1  0.70530086  0.90343533  0.30733806  1
  Sc  Sc52  1  0.89883416  0.10298705  0.50680025  1
  Sc  Sc53  1  0.89757965  0.48915974  0.49848629  1
  Sc  Sc54  1  0.50850663  0.69365776  0.09493365  1
  Sc  Sc55  1  0.10221316  0.90888916  0.70352309  1
  Sc  Sc56  1  0.29943514  0.50247108  0.49779555  1
  Sc  Sc57  1  0.09628395  0.30167392  0.50954174  1
  Sc  Sc58  1  0.29688562  0.48972514  0.30596577  1
  Sc  Sc59  1  0.49304957  0.49441662  0.09070512  1
  Sc  Sc60  1  0.89630830  0.10639010  0.10241117  1
  Sc  Sc61  1  0.48839298  0.49685755  0.31062373  1
  Sc  Sc62  1  0.70129139  0.29607085  0.10556369  1
  Sc  Sc63  1  0.69844446  0.90000930  0.89406269  1
  Sc  Sc64  1  0.29249595  0.29103737  0.49562006  1
  Sc  Sc65  1  0.50279395  0.90624720  0.29977410  1
  Sc  Sc66  1  0.10437750  0.69262843  0.11274171  1
  Sc  Sc67  1  0.90878322  0.49150839  0.30495787  1
  Sc  Sc68  1  0.90172319  0.91298547  0.68958755  1
  Sc  Sc69  1  0.90323525  0.50457254  0.88761733  1
  Sc  Sc70  1  0.29698027  0.29331179  0.90245798  1
  Sc  Sc71  1  0.30080400  0.10034739  0.89780667  1
  Sc  Sc72  1  0.71289640  0.49771491  0.29799895  1
  Sc  Sc73  1  0.89936546  0.30148519  0.49595795  1
  Sc  Sc74  1  0.70203992  0.29444425  0.30418071  1
  Sc  Sc75  1  0.30585439  0.90239687  0.10692915  1
  Sc  Sc76  1  0.49808404  0.70088569  0.49943832  1
  Sc  Sc77  1  0.30058995  0.89891732  0.69309179  1
  Sc  Sc78  1  0.10595400  0.29251535  0.10369432  1
  Sc  Sc79  1  0.70375261  0.10788735  0.49852245  1
  Sc  Sc80  1  0.49961702  0.69398721  0.89409780  1
  Sc  Sc81  1  0.10174651  0.10067931  0.69319812  1
  Sc  Sc82  1  0.29566031  0.69644810  0.10342937  1
  Sc  Sc83  1  0.49495430  0.10282588  0.49702102  1
  Sc  Sc84  1  0.29797106  0.09987167  0.69435727  1
  Sc  Sc85  1  0.90339714  0.90458617  0.49582915  1
  Sc  Sc86  1  0.89806477  0.49520198  0.11563015  1
  Sc  Sc87  1  0.09512565  0.70462653  0.90529656  1
  Sc  Sc88  1  0.10526941  0.10097990  0.49595341  1
  Sc  Sc89  1  0.68852991  0.29902279  0.68948973  1
  Sc  Sc90  1  0.68616926  0.29632313  0.90442567  1
  Sc  Sc91  1  0.69830554  0.09904639  0.30064710  1
  Sc  Sc92  1  0.90605504  0.70444274  0.50643536  1
  Sc  Sc93  1  0.09947641  0.89823052  0.49689357  1
  Sc  Sc94  1  0.29670915  0.90337856  0.88660401  1
  Sc  Sc95  1  0.89765281  0.69678617  0.90266017  1
  Sc  Sc96  1  0.49823091  0.69958816  0.30281131  1
  Sc  Sc97  1  0.69963414  0.89902828  0.49978471  1
  Sc  Sc98  1  0.10493655  0.30558414  0.29640550  1
  Sc  Sc99  1  0.49438225  0.09918349  0.10589679  1
  Nb  Nb100  1  0.90735187  0.90625218  0.30345105  1
  Nb  Nb101  1  0.09923502  0.90216313  0.89858333  1
  Nb  Nb102  1  0.70183456  0.49241112  0.89753111  1
  Nb  Nb103  1  0.30211958  0.90453419  0.49436257  1
  Nb  Nb104  1  0.09992564  0.50854025  0.30170418  1
  Nb  Nb105  1  0.89880723  0.70535845  0.30601269  1
  Nb  Nb106  1  0.49727519  0.29839757  0.69909200  1
  Nb  Nb107  1  0.30108293  0.49866781  0.10346032  1
  Nb  Nb108  1  0.90086333  0.10272102  0.70085041  1
  Nb  Nb109  1  0.29923038  0.70131991  0.89568462  1
  Nb  Nb110  1  0.09569990  0.10013607  0.10704547  1
  Nb  Nb111  1  0.89915722  0.30243989  0.30058465  1
  Nb  Nb112  1  0.49309063  0.30121894  0.30208249  1
  Nb  Nb113  1  0.09968287  0.49879323  0.90210616  1
  Nb  Nb114  1  0.10016327  0.29995804  0.69729119  1
  Nb  Nb115  1  0.90282053  0.70262906  0.69996384  1
  Nb  Nb116  1  0.09963183  0.69758876  0.31265491  1
  Nb  Nb117  1  0.70245111  0.89848008  0.70021582  1
  Nb  Nb118  1  0.09442114  0.09886576  0.29507385  1
  Nb  Nb119  1  0.31016558  0.29770563  0.29531332  1
  Nb  Nb120  1  0.09265464  0.90565943  0.30477998  1
  Nb  Nb121  1  0.50823792  0.30146758  0.50318825  1
  Nb  Nb122  1  0.49907886  0.30319794  0.89564812  1
  Nb  Nb123  1  0.10522474  0.69804613  0.49237870  1
  Nb  Nb124  1  0.49786677  0.90186288  0.90082776  1
  Nb  Nb125  1  0.41014510  0.00070032  0.79621049  1
  Nb  Nb126  1  0.60573331  0.59952555  0.40002741  1
  Nb  Nb127  1  0.79636898  0.39484372  0.80144107  1
  Nb  Nb128  1  0.00633896  0.00172228  0.00135869  1
  Nb  Nb129  1  0.00339977  0.59036308  0.00447840  1
  Nb  Nb130  1  0.40408161  0.39258898  0.60294303  1
  Nb  Nb131  1  0.19754619  0.59974964  0.80536005  1
  Nb  Nb132  1  0.39189497  0.80420287  0.40221416  1
  Nb  Nb133  1  0.19464752  -0.00306301  0.00413079  1
  Nb  Nb134  1  0.59412798  -0.00053164  -0.00174852  1
  Nb  Nb135  1  0.39415888  0.59364622  0.19904586  1
  Nb  Nb136  1  0.59202066  0.39729544  0.20659155  1
  Nb  Nb137  1  0.18991955  0.00304927  0.20120396  1
  Nb  Nb138  1  0.40444362  0.39450169  0.79767082  1
  Nb  Nb139  1  -0.00156153  0.20005622  0.39160478  1
  Nb  Nb140  1  0.20333227  0.80430701  -0.00370864  1
  Nb  Nb141  1  0.00119748  0.40353078  -0.00076193  1
  Nb  Nb142  1  -0.00470517  0.80016682  0.79360141  1
  Nb  Nb143  1  0.39486840  0.80011262  -0.00694461  1
  Nb  Nb144  1  0.60365680  0.79833356  0.19981890  1
  Nb  Nb145  1  -0.00134816  0.79793444  0.21783528  1
  Nb  Nb146  1  0.80349824  0.20309984  0.79411167  1
  Nb  Nb147  1  0.80165472  0.79862644  0.79064569  1
  Nb  Nb148  1  -0.00283853  0.20154188  0.79201248  1
  Nb  Nb149  1  0.80199984  0.40149796  -0.00447773  1
  Pd  Pd150  1  0.39701316  0.20647038  0.00281704  1
  Pd  Pd151  1  0.59853494  0.19983979  0.40237254  1
  Pd  Pd152  1  0.39958412  0.80285236  0.59559778  1
  Pd  Pd153  1  0.60829181  0.60616666  0.80032962  1
  Pd  Pd154  1  0.60711888  0.40053863  0.01175472  1
  Pd  Pd155  1  0.60753092  0.20103024  0.79468461  1
  Pd  Pd156  1  0.19860380  -0.00313988  0.59729342  1
  Pd  Pd157  1  0.80026941  0.00328565  0.40628568  1
  Pd  Pd158  1  -0.00277576  0.60423657  0.20124418  1
  Pd  Pd159  1  0.59738749  0.19446377  0.00843953  1
  Pd  Pd160  1  0.59953107  0.79684843  0.59362661  1
  Pd  Pd161  1  0.39418748  0.19942044  0.79672362  1
  Pd  Pd162  1  0.79418384  0.60201424  0.79774247  1
  Pd  Pd163  1  0.40279992  0.80680647  0.80074887  1
  Pd  Pd164  1  0.80781330  0.80782567  0.59982768  1
  Pd  Pd165  1  0.18889539  0.79338549  0.80079032  1
  Pd  Pd166  1  0.39363211  0.38971010  0.41320971  1
  Pd  Pd167  1  0.19450895  0.80881811  0.59639579  1
  Pd  Pd168  1  0.59714614  0.00345504  0.80558556  1
  Pd  Pd169  1  0.19373839  0.19775906  -0.00250391  1
  Pd  Pd170  1  0.79933046  0.80471983  -0.00955776  1
  Pd  Pd171  1  0.79833507  -0.00181134  0.00311469  1
  Pd  Pd172  1  0.21310648  0.40818563  0.80372256  1
  Pd  Pd173  1  0.19527960  0.60952734  -0.00326785  1
  Pd  Pd174  1  -0.00883756  0.59987497  0.40560084  1
  Pd  Pd175  1  0.59362120  0.80252861  0.00086538  1
  Pd  Pd176  1  0.60561992  0.40721852  0.39120062  1
  Pd  Pd177  1  0.40773209  0.78841420  0.19777324  1
  Pd  Pd178  1  0.58756236  0.59337980  0.20945764  1
  Pd  Pd179  1  0.18930694  0.20684089  0.39669896  1
  Pd  Pd180  1  0.00929083  0.39689237  0.19675108  1
  Pd  Pd181  1  0.00484647  0.00492582  0.59323744  1
  Pd  Pd182  1  0.79882287  0.20588701  0.60249106  1
  Pd  Pd183  1  0.79867229  0.19738797  0.20722579  1
  Pd  Pd184  1  0.80663023  0.59672905  0.40236486  1
  Pd  Pd185  1  0.00925336  0.60907523  0.80499152  1
  Pd  Pd186  1  -0.00057972  0.79973110  0.40413251  1
  Pd  Pd187  1  0.00024520  0.59405818  0.58993254  1
  Pd  Pd188  1  0.81097427  0.59896008  0.20720208  1
  Pd  Pd189  1  0.19229482  0.80400823  0.20097508  1
  Pd  Pd190  1  0.60132844  0.00588169  0.40303272  1
  Pd  Pd191  1  0.01090186  0.19863371  -0.00453677  1
  Pd  Pd192  1  0.60442713  0.00408343  0.58876963  1
  Pd  Pd193  1  0.40160622  0.60876080  0.00416664  1
  Pd  Pd194  1  0.80124962  0.80686624  0.21018148  1
  Pd  Pd195  1  0.39597173  0.20461980  0.59150339  1
  Pd  Pd196  1  0.60803140  0.79010564  0.80420857  1
  Pd  Pd197  1  0.19871754  0.39349336  0.40023753  1
  Pd  Pd198  1  0.39040927  0.00859277  0.20868428  1
  Pd  Pd199  1  0.81052127  0.58526670  0.00404446  1
  Rh  Rh200  1  0.40346222  0.20589481  0.40519724  1
  Rh  Rh201  1  0.20001106  0.80386658  0.40467431  1
  Rh  Rh202  1  0.81034416  0.80674822  0.40108067  1
  Rh  Rh203  1  0.79900218  0.00089072  0.20455895  1
  Rh  Rh204  1  0.39833827  0.61062296  0.39671003  1
  Rh  Rh205  1  0.20348656  0.40299222  0.59425312  1
  Rh  Rh206  1  0.59402185  0.39922875  0.60114984  1
  Rh  Rh207  1  0.40534492  0.40807991  0.20220656  1
  Rh  Rh208  1  0.40352239  -0.00340064  0.39376448  1
  Rh  Rh209  1  0.19147844  0.59178222  0.60270012  1
  Rh  Rh210  1  0.39654305  -0.00696779  -0.01183931  1
  Rh  Rh211  1  0.60022720  0.39373105  0.79506617  1
  Rh  Rh212  1  0.00356207  0.40631291  0.59185793  1
  Rh  Rh213  1  -0.00170699  0.20562463  0.20774970  1
  Rh  Rh214  1  0.19216203  -0.00063191  0.39660034  1
  Rh  Rh215  1  0.00268149  0.79548245  -0.00005926  1
  Rh  Rh216  1  0.39718725  0.39085257  -0.00758845  1
  Rh  Rh217  1  0.39283460  0.58925136  0.80685056  1
  Rh  Rh218  1  0.00531501  0.39229335  0.39702308  1
  Rh  Rh219  1  0.40389037  -0.00351130  0.60772432  1
  Rh  Rh220  1  0.00067484  -0.00514335  0.19349785  1
  Rh  Rh221  1  0.21013962  0.00521945  0.79806025  1
  Rh  Rh222  1  0.60283737  0.19708434  0.59445261  1
  Rh  Rh223  1  0.00360370  0.19617701  0.59667876  1
  Rh  Rh224  1  0.78878461  0.20522451  -0.00112863  1
  Rh  Rh225  1  0.00186843  0.01107224  0.40645399  1
  Rh  Rh226  1  0.79911903  0.39752393  0.39695334  1
  Rh  Rh227  1  0.79132957  0.39485893  0.19743843  1
  Rh  Rh228  1  0.19675827  0.19587786  0.59747707  1
  Rh  Rh229  1  0.59075947  0.79583731  0.39233043  1
  Rh  Rh230  1  0.20703151  0.59220826  0.21268894  1
  Rh  Rh231  1  0.20111059  0.40229390  0.20869190  1
  Rh  Rh232  1  0.80730142  0.60197778  0.59401015  1
  Rh  Rh233  1  0.00408030  0.80577603  0.60294305  1
  Rh  Rh234  1  0.40138536  0.59636272  0.59558419  1
  Rh  Rh235  1  0.80273325  -0.00415819  0.79455269  1
  Rh  Rh236  1  0.19490979  0.19560792  0.79275347  1
  Rh  Rh237  1  0.79755767  -0.00237422  0.59582032  1
  Rh  Rh238  1  0.20233889  0.59492985  0.39839668  1
  Rh  Rh239  1  -0.00891583  0.39348632  0.80466524  1
  Rh  Rh240  1  0.60162939  -0.00634303  0.19757741  1
  Rh  Rh241  1  0.60076587  0.59177155  -0.00184594  1
  Rh  Rh242  1  0.81049862  0.20005354  0.39591552  1
  Rh  Rh243  1  0.19688616  0.39397622  0.00053414  1
  Rh  Rh244  1  0.39544228  0.19742137  0.20068765  1
  Rh  Rh245  1  0.20280210  0.19738151  0.20716177  1
  Rh  Rh246  1  0.79961491  0.39763644  0.60583287  1
  Rh  Rh247  1  -0.00337454  0.00136409  0.79968526  1
  Rh  Rh248  1  0.60039351  0.60856906  0.58863850  1
  Rh  Rh249  1  0.59584750  0.20785967  0.20422589  1
