# generated using pymatgen
data_ZrScNbPdRh
_symmetry_space_group_name_H-M   'P 1'
_cell_length_a   16.55660696
_cell_length_b   16.55061425
_cell_length_c   16.55416386
_cell_angle_alpha   89.99703746
_cell_angle_beta   90.04010293
_cell_angle_gamma   90.00666456
_symmetry_Int_Tables_number   1
_chemical_formula_structural   ZrScNbPdRh
_chemical_formula_sum   'Zr50 Sc50 Nb50 Pd50 Rh50'
_cell_volume   4536.20419338
_cell_formula_units_Z   50
loop_
 _symmetry_equiv_pos_site_id
 _symmetry_equiv_pos_as_xyz
  1  'x, y, z'
loop_
 _atom_site_type_symbol
 _atom_site_label
 _atom_site_symmetry_multiplicity
 _atom_site_fract_x
 _atom_site_fract_y
 _atom_site_fract_z
 _atom_site_occupancy
  Zr  Zr0  1  0.50714475  0.70384498  0.90958337  1
  Zr  Zr1  1  0.29978457  0.09659010  0.90165595  1
  Zr  Zr2  1  0.09833922  0.29309761  0.09955729  1
  Zr  Zr3  1  0.69919121  0.70330243  0.30054164  1
  Zr  Zr4  1  0.48445458  0.09889140  0.09199321  1
  Zr  Zr5  1  0.29056484  0.29886621  0.30599431  1
  Zr  Zr6  1  0.70476650  0.29708120  0.49168417  1
  Zr  Zr7  1  0.10412763  0.49768018  0.89075108  1
  Zr  Zr8  1  0.70246241  0.71019168  0.89551687  1
  Zr  Zr9  1  0.30016188  0.90064850  0.10685109  1
  Zr  Zr10  1  0.10369922  0.71116763  0.90510581  1
  Zr  Zr11  1  0.69864212  0.50329364  0.50801501  1
  Zr  Zr12  1  0.29793759  0.89952255  0.89291843  1
  Zr  Zr13  1  0.30256769  0.69924062  0.29213097  1
  Zr  Zr14  1  0.50097297  0.49404997  0.69786489  1
  Zr  Zr15  1  0.49472215  0.49029016  0.50330244  1
  Zr  Zr16  1  0.90294098  0.29400578  0.08943406  1
  Zr  Zr17  1  0.10149686  0.71349338  0.09912828  1
  Zr  Zr18  1  0.10236833  0.50064747  0.29830251  1
  Zr  Zr19  1  0.70155332  0.90177598  0.49514047  1
  Zr  Zr20  1  0.49981728  0.30294381  0.69564919  1
  Zr  Zr21  1  0.70322193  0.90110558  0.09725431  1
  Zr  Zr22  1  0.29503212  0.70681442  0.69913010  1
  Zr  Zr23  1  0.10698334  0.89789487  0.69624981  1
  Zr  Zr24  1  0.89388514  0.49736639  0.49890041  1
  Zr  Zr25  1  0.29896016  0.49210938  0.29677277  1
  Zr  Zr26  1  0.49908427  0.69846874  0.70650707  1
  Zr  Zr27  1  0.49428944  0.10375350  0.30746427  1
  Zr  Zr28  1  0.90370056  0.70217411  0.29530603  1
  Zr  Zr29  1  0.29874328  0.30294672  0.09877096  1
  Zr  Zr30  1  0.90217550  0.70586544  0.09787421  1
  Zr  Zr31  1  0.89810489  0.29962926  0.31158375  1
  Zr  Zr32  1  0.90630973  0.90103986  0.30685183  1
  Zr  Zr33  1  0.71095147  0.50144982  0.30307697  1
  Zr  Zr34  1  0.49975223  0.89330315  0.09656493  1
  Zr  Zr35  1  0.70916689  0.10384932  0.89381554  1
  Zr  Zr36  1  0.90923229  0.90378422  0.49980268  1
  Zr  Zr37  1  0.89600323  0.69798364  0.70459859  1
  Zr  Zr38  1  0.29207874  0.49982907  0.70535861  1
  Zr  Zr39  1  0.89999483  0.09396083  0.30085828  1
  Zr  Zr40  1  0.09716477  0.69194190  0.69708681  1
  Zr  Zr41  1  0.10094214  0.09993903  0.50683118  1
  Zr  Zr42  1  0.49747894  0.69971830  0.49676070  1
  Zr  Zr43  1  0.50031819  0.90066921  0.29331154  1
  Zr  Zr44  1  0.50047948  0.29615654  0.30046986  1
  Zr  Zr45  1  0.70067538  0.69212644  0.10123765  1
  Zr  Zr46  1  0.29699450  0.90436746  0.69802142  1
  Zr  Zr47  1  0.09096151  0.29921650  0.89306832  1
  Zr  Zr48  1  0.90462776  0.09492458  0.50043068  1
  Zr  Zr49  1  0.90909308  0.10085273  0.10161203  1
  Sc  Sc50  1  0.69532982  0.29912619  0.71154438  1
  Sc  Sc51  1  0.70251420  0.89950534  0.70660730  1
  Sc  Sc52  1  0.49705653  0.90120935  0.69625272  1
  Sc  Sc53  1  0.69498686  0.50130931  0.09751318  1
  Sc  Sc54  1  0.91420743  0.29547123  0.70728034  1
  Sc  Sc55  1  0.28565937  0.90627262  0.50210678  1
  Sc  Sc56  1  0.48840250  0.09541176  0.90210352  1
  Sc  Sc57  1  0.89096600  0.50324249  0.09307833  1
  Sc  Sc58  1  0.50123399  0.50042607  0.09488665  1
  Sc  Sc59  1  0.89709699  0.10919805  0.90216579  1
  Sc  Sc60  1  0.09715674  0.70692472  0.50427396  1
  Sc  Sc61  1  0.70083288  0.69128993  0.70701243  1
  Sc  Sc62  1  0.89878001  0.90236377  0.69655234  1
  Sc  Sc63  1  0.91496091  0.29247889  0.49915434  1
  Sc  Sc64  1  0.49746049  0.30855094  0.09882358  1
  Sc  Sc65  1  0.10005020  0.70604199  0.30149067  1
  Sc  Sc66  1  0.71078339  0.10297096  0.10488894  1
  Sc  Sc67  1  0.88818739  0.90019593  0.90292465  1
  Sc  Sc68  1  0.29690977  0.70311373  0.50304183  1
  Sc  Sc69  1  0.70507510  0.90192487  0.29711305  1
  Sc  Sc70  1  0.90269419  0.50976657  0.70179617  1
  Sc  Sc71  1  0.30206239  0.69991484  0.09866686  1
  Sc  Sc72  1  0.30732159  0.49810881  0.09830553  1
  Sc  Sc73  1  0.10409550  0.89985751  0.30995770  1
  Sc  Sc74  1  0.49647209  0.90766375  0.50590600  1
  Sc  Sc75  1  0.11439810  0.49397733  0.09232877  1
  Sc  Sc76  1  0.69323622  0.30290514  0.09991613  1
  Sc  Sc77  1  0.70393547  0.30194046  0.89855337  1
  Sc  Sc78  1  0.10719743  0.10445158  0.29135926  1
  Sc  Sc79  1  0.48574951  0.29623896  0.50004466  1
  Sc  Sc80  1  0.49747486  0.09334958  0.68848344  1
  Sc  Sc81  1  0.29864880  0.29691267  0.69487789  1
  Sc  Sc82  1  0.49695287  0.49919419  0.90495006  1
  Sc  Sc83  1  0.69899180  0.49941581  0.70156084  1
  Sc  Sc84  1  0.70179252  0.09497879  0.70265411  1
  Sc  Sc85  1  0.90449771  0.50602896  0.31112938  1
  Sc  Sc86  1  0.48760304  0.50131152  0.29274892  1
  Sc  Sc87  1  0.70145622  0.10455896  0.29953458  1
  Sc  Sc88  1  0.30364427  0.11076569  0.50116219  1
  Sc  Sc89  1  0.90890622  0.69347255  0.50001433  1
  Sc  Sc90  1  0.90544999  0.90319506  0.10432733  1
  Sc  Sc91  1  0.69786579  0.49882900  0.90462050  1
  Sc  Sc92  1  0.69741868  0.29227218  0.29830006  1
  Sc  Sc93  1  0.89683698  0.49741800  0.89497797  1
  Sc  Sc94  1  0.70447480  0.09553046  0.49679628  1
  Sc  Sc95  1  0.30515526  0.69991831  0.89953635  1
  Sc  Sc96  1  0.08665136  0.50893307  0.50277016  1
  Sc  Sc97  1  0.30075761  0.30709802  0.90234697  1
  Sc  Sc98  1  0.29987384  0.49836566  0.90616457  1
  Sc  Sc99  1  0.10714848  0.11454675  0.70372423  1
  Nb  Nb100  1  0.50637315  0.89566714  0.90360643  1
  Nb  Nb101  1  0.29913847  0.09394198  0.29229218  1
  Nb  Nb102  1  0.29844920  0.09946181  0.70294200  1
  Nb  Nb103  1  0.30381075  0.49154212  0.49534084  1
  Nb  Nb104  1  0.69718397  0.70021101  0.50263364  1
  Nb  Nb105  1  0.29233578  0.09977081  0.09903385  1
  Nb  Nb106  1  0.29771915  0.30669846  0.50026907  1
  Nb  Nb107  1  0.89916208  0.29549280  0.90306668  1
  Nb  Nb108  1  0.50032415  0.29350432  0.90119463  1
  Nb  Nb109  1  0.09941237  0.09823492  0.09616790  1
  Nb  Nb110  1  0.89601762  0.09961469  0.70710642  1
  Nb  Nb111  1  0.10297910  0.30532237  0.29812450  1
  Nb  Nb112  1  0.10135945  0.30464700  0.69479829  1
  Nb  Nb113  1  0.10503850  0.29139485  0.50721843  1
  Nb  Nb114  1  0.90219303  0.69698388  0.89308211  1
  Nb  Nb115  1  0.10056720  0.49696782  0.70165621  1
  Nb  Nb116  1  0.50477485  0.10504785  0.49888184  1
  Nb  Nb117  1  0.49781882  0.70105508  0.29638987  1
  Nb  Nb118  1  0.09328767  0.90244916  0.50521826  1
  Nb  Nb119  1  0.10314038  0.09742097  0.89761275  1
  Nb  Nb120  1  0.69326686  0.89775422  0.89924921  1
  Nb  Nb121  1  0.09522702  0.89658509  0.08531171  1
  Nb  Nb122  1  0.49925893  0.69623146  0.10716928  1
  Nb  Nb123  1  0.30336186  0.90399526  0.30315499  1
  Nb  Nb124  1  0.10040352  0.90022542  0.89966166  1
  Nb  Nb125  1  0.00426468  0.00017202  0.80412800  1
  Nb  Nb126  1  0.79560928  0.79496816  0.59473428  1
  Nb  Nb127  1  0.59599222  0.19437223  -0.00591837  1
  Nb  Nb128  1  0.19398914  0.00009159  0.00196113  1
  Nb  Nb129  1  0.19353812  0.40015275  0.59677505  1
  Nb  Nb130  1  0.20546951  0.59605948  0.40094523  1
  Nb  Nb131  1  0.80822386  0.39840208  0.20273588  1
  Nb  Nb132  1  0.59454057  0.00327591  0.40007947  1
  Nb  Nb133  1  0.00202230  0.60461886  -0.00259502  1
  Nb  Nb134  1  0.59632765  0.60153076  0.39873151  1
  Nb  Nb135  1  -0.00219953  0.39974625  0.20044273  1
  Nb  Nb136  1  0.60516850  0.79712967  0.59760638  1
  Nb  Nb137  1  0.59881585  0.40542166  0.40098168  1
  Nb  Nb138  1  0.19623588  0.19249106  0.00001533  1
  Nb  Nb139  1  0.39762440  0.80500322  0.39240982  1
  Nb  Nb140  1  0.39913581  0.19742118  0.79792113  1
  Nb  Nb141  1  0.59796931  -0.00372840  0.81032385  1
  Nb  Nb142  1  0.00303145  0.59703020  0.19112922  1
  Nb  Nb143  1  0.60160471  0.00087738  -0.00381176  1
  Nb  Nb144  1  0.80401581  0.39136705  0.60004662  1
  Nb  Nb145  1  0.39596284  0.59502499  0.60160139  1
  Nb  Nb146  1  0.00072916  0.80390883  0.80266647  1
  Nb  Nb147  1  0.80329442  0.19989721  0.60466411  1
  Nb  Nb148  1  0.38914878  0.19491593  0.20077713  1
  Nb  Nb149  1  0.60297833  0.19791042  0.59574840  1
  Pd  Pd150  1  0.40752707  0.00091158  0.79615636  1
  Pd  Pd151  1  0.20020308  0.60308997  -0.00168704  1
  Pd  Pd152  1  0.00884255  0.39747517  0.40203455  1
  Pd  Pd153  1  0.39906995  -0.00230190  0.40784626  1
  Pd  Pd154  1  0.40094812  0.00257537  0.19836357  1
  Pd  Pd155  1  0.58922580  0.19168946  0.18647542  1
  Pd  Pd156  1  0.79548446  0.39632270  0.00509011  1
  Pd  Pd157  1  0.39877338  0.39437207  0.80154768  1
  Pd  Pd158  1  0.18627365  0.40622036  0.41228602  1
  Pd  Pd159  1  0.20038005  0.19296347  0.40125106  1
  Pd  Pd160  1  -0.00678060  0.40415402  0.79756168  1
  Pd  Pd161  1  -0.00251054  0.00200603  -0.00891950  1
  Pd  Pd162  1  0.60100364  0.00991487  0.19754374  1
  Pd  Pd163  1  0.60438800  0.79834809  0.19560248  1
  Pd  Pd164  1  0.39135543  0.00521346  0.59280651  1
  Pd  Pd165  1  0.19882819  0.00824102  0.40261071  1
  Pd  Pd166  1  0.80694734  0.39824679  0.79196189  1
  Pd  Pd167  1  -0.00037484  0.41073071  0.00266585  1
  Pd  Pd168  1  0.80202892  0.80694589  0.19914991  1
  Pd  Pd169  1  0.01077690  -0.00744664  0.20444975  1
  Pd  Pd170  1  0.79781829  0.61077056  0.40416313  1
  Pd  Pd171  1  -0.00088243  0.20508058  0.20896091  1
  Pd  Pd172  1  0.18900461  -0.00914948  0.19523200  1
  Pd  Pd173  1  0.39766850  0.59706028  0.79989912  1
  Pd  Pd174  1  0.60075787  0.59348043  0.80880081  1
  Pd  Pd175  1  0.20368703  0.59164143  0.58953699  1
  Pd  Pd176  1  0.59239225  0.60468419  0.59928854  1
  Pd  Pd177  1  0.39522330  0.79816725  0.00030164  1
  Pd  Pd178  1  0.19735945  0.59967066  0.19894019  1
  Pd  Pd179  1  0.79881162  0.00403934  0.00070143  1
  Pd  Pd180  1  0.58771201  0.18631425  0.79741904  1
  Pd  Pd181  1  0.40529952  0.80299189  0.80194333  1
  Pd  Pd182  1  0.39620968  0.60443811  0.40303436  1
  Pd  Pd183  1  -0.00144083  0.40248918  0.60056085  1
  Pd  Pd184  1  0.40160126  0.79925220  0.59315411  1
  Pd  Pd185  1  0.80973000  0.79444990  0.40666145  1
  Pd  Pd186  1  0.80176549  0.79869103  0.00072978  1
  Pd  Pd187  1  0.20445196  0.79625022  0.40394820  1
  Pd  Pd188  1  0.01039752  0.19423884  0.39370801  1
  Pd  Pd189  1  0.59799984  0.40477197  0.80798130  1
  Pd  Pd190  1  0.59153603  0.80497866  0.40346236  1
  Pd  Pd191  1  0.59599427  0.59325550  0.20632823  1
  Pd  Pd192  1  0.19556285  0.80928822  0.20340711  1
  Pd  Pd193  1  0.79637491  -0.00152262  0.60382522  1
  Pd  Pd194  1  0.20774160  0.20911273  0.80467539  1
  Pd  Pd195  1  0.80219371  0.60215359  -0.00854803  1
  Pd  Pd196  1  0.60707192  0.40787475  0.20782386  1
  Pd  Pd197  1  0.00750539  0.00881236  0.61620098  1
  Pd  Pd198  1  0.80408362  0.20754705  0.19850396  1
  Pd  Pd199  1  0.20136986  0.60644461  0.80752737  1
  Rh  Rh200  1  0.79165565  0.59480464  0.80542157  1
  Rh  Rh201  1  0.19664169  0.39644002  0.19524047  1
  Rh  Rh202  1  0.19441526  0.00010445  0.79872802  1
  Rh  Rh203  1  0.79349715  0.00267630  0.39304227  1
  Rh  Rh204  1  0.40443999  0.40122698  -0.00220980  1
  Rh  Rh205  1  0.38866098  0.20169522  0.39522347  1
  Rh  Rh206  1  0.19973955  0.00817571  0.60232029  1
  Rh  Rh207  1  0.40342958  0.60233237  0.00294871  1
  Rh  Rh208  1  0.40037894  0.79853440  0.20262363  1
  Rh  Rh209  1  0.61327706  0.38486383  0.59352543  1
  Rh  Rh210  1  0.19652488  0.80223193  0.59569017  1
  Rh  Rh211  1  -0.01170681  0.79943892  -0.01038083  1
  Rh  Rh212  1  0.59847288  0.38990411  -0.00622498  1
  Rh  Rh213  1  -0.00279598  0.59897466  0.60271476  1
  Rh  Rh214  1  0.19618079  0.79681504  0.79713928  1
  Rh  Rh215  1  0.00974848  0.60804786  0.39182321  1
  Rh  Rh216  1  -0.00179477  0.19272911  0.80179853  1
  Rh  Rh217  1  0.40046830  0.59943907  0.19248020  1
  Rh  Rh218  1  0.60143009  0.20047124  0.40674688  1
  Rh  Rh219  1  0.19952395  0.39401778  0.79434290  1
  Rh  Rh220  1  0.80628222  0.80392959  0.79399985  1
  Rh  Rh221  1  0.79112037  0.20553041  0.00178517  1
  Rh  Rh222  1  0.80632847  0.19066191  0.40605630  1
  Rh  Rh223  1  0.20313408  0.20244012  0.19496314  1
  Rh  Rh224  1  0.01292938  0.00613722  0.39625989  1
  Rh  Rh225  1  0.79559832  0.39774552  0.40048737  1
  Rh  Rh226  1  0.39624205  0.20937760  0.00031794  1
  Rh  Rh227  1  0.59981268  0.60552169  0.00036209  1
  Rh  Rh228  1  0.00756041  0.60406880  0.80638489  1
  Rh  Rh229  1  0.60591562  -0.00014623  0.59715946  1
  Rh  Rh230  1  0.80734118  0.20821201  0.79445425  1
  Rh  Rh231  1  -0.00402664  0.19376522  0.60712910  1
  Rh  Rh232  1  0.40543270  0.39203435  0.39211957  1
  Rh  Rh233  1  0.19704602  0.39082820  -0.00477850  1
  Rh  Rh234  1  0.39457818  -0.01465703  0.00032583  1
  Rh  Rh235  1  0.00560850  0.19326255  -0.00957153  1
  Rh  Rh236  1  0.80532983  -0.00123332  0.20222033  1
  Rh  Rh237  1  0.20588796  0.20413056  0.60095545  1
  Rh  Rh238  1  0.60535150  0.79765044  0.01037036  1
  Rh  Rh239  1  0.40240851  0.19735013  0.60606887  1
  Rh  Rh240  1  0.80144555  -0.00324496  0.80325716  1
  Rh  Rh241  1  0.00106507  0.80063012  0.40479660  1
  Rh  Rh242  1  0.81101801  0.59234279  0.20228646  1
  Rh  Rh243  1  0.59528275  0.80656925  0.78803945  1
  Rh  Rh244  1  0.80329379  0.59970513  0.60069013  1
  Rh  Rh245  1  0.21170389  0.80843865  0.00087151  1
  Rh  Rh246  1  -0.00716536  0.79882460  0.60629798  1
  Rh  Rh247  1  0.00604364  0.80464010  0.20303538  1
  Rh  Rh248  1  0.38537744  0.40436036  0.60761832  1
  Rh  Rh249  1  0.39584159  0.39115483  0.20177024  1
