# generated using pymatgen
data_ZrScNbPdRh
_symmetry_space_group_name_H-M   'P 1'
_cell_length_a   16.55078349
_cell_length_b   16.55024136
_cell_length_c   16.54753684
_cell_angle_alpha   89.97697067
_cell_angle_beta   90.00449420
_cell_angle_gamma   89.98789985
_symmetry_Int_Tables_number   1
_chemical_formula_structural   ZrScNbPdRh
_chemical_formula_sum   'Zr50 Sc50 Nb50 Pd50 Rh50'
_cell_volume   4532.69189767
_cell_formula_units_Z   50
loop_
 _symmetry_equiv_pos_site_id
 _symmetry_equiv_pos_as_xyz
  1  'x, y, z'
loop_
 _atom_site_type_symbol
 _atom_site_label
 _atom_site_symmetry_multiplicity
 _atom_site_fract_x
 _atom_site_fract_y
 _atom_site_fract_z
 _atom_site_occupancy
  Zr  Zr0  1  0.48387590  0.29310021  0.50459319  1
  Zr  Zr1  1  0.29454141  0.49738393  0.89570472  1
  Zr  Zr2  1  0.11305953  0.90117463  0.69138249  1
  Zr  Zr3  1  0.69963492  0.90053986  0.10329314  1
  Zr  Zr4  1  0.69986117  0.49702937  0.30921409  1
  Zr  Zr5  1  0.69620252  0.10437785  0.90174102  1
  Zr  Zr6  1  0.89759051  0.10060038  0.69350210  1
  Zr  Zr7  1  0.30785983  0.50114329  0.70057167  1
  Zr  Zr8  1  0.70076765  0.70085310  0.50350062  1
  Zr  Zr9  1  0.89927998  0.69208117  0.10423856  1
  Zr  Zr10  1  0.09925165  0.08969800  0.70629597  1
  Zr  Zr11  1  0.29478973  0.10360406  0.09945851  1
  Zr  Zr12  1  0.09233234  0.31301363  0.50001168  1
  Zr  Zr13  1  0.49994410  0.29819421  0.29726771  1
  Zr  Zr14  1  0.11063618  0.90097057  0.10653311  1
  Zr  Zr15  1  0.09566092  0.49701513  0.69639350  1
  Zr  Zr16  1  0.50290983  0.90658671  0.29877232  1
  Zr  Zr17  1  0.90646069  0.89965039  0.30599130  1
  Zr  Zr18  1  0.70012058  0.89625570  0.69416634  1
  Zr  Zr19  1  0.49550506  0.49800595  0.51034132  1
  Zr  Zr20  1  0.69743522  0.10206418  0.70073410  1
  Zr  Zr21  1  0.09427238  0.90116997  0.30458550  1
  Zr  Zr22  1  0.49441604  0.69372160  0.69332381  1
  Zr  Zr23  1  0.69904370  0.90553959  0.30130874  1
  Zr  Zr24  1  0.29714187  0.09076241  0.69225433  1
  Zr  Zr25  1  0.50140825  0.89021175  0.10479319  1
  Zr  Zr26  1  0.09805103  0.89829422  0.49243297  1
  Zr  Zr27  1  0.89979313  0.09910387  0.29641068  1
  Zr  Zr28  1  0.49198835  0.70172246  0.29470570  1
  Zr  Zr29  1  0.30369490  0.70699840  0.09444470  1
  Zr  Zr30  1  0.90773669  0.30489112  0.68777482  1
  Zr  Zr31  1  0.30172427  0.69431532  0.89884474  1
  Zr  Zr32  1  0.70232849  0.29711716  0.09913864  1
  Zr  Zr33  1  0.49983817  0.29648598  0.09928173  1
  Zr  Zr34  1  0.29731144  0.90349546  0.51130120  1
  Zr  Zr35  1  0.09987543  0.69299187  0.89577621  1
  Zr  Zr36  1  0.49826343  0.70358503  0.91003478  1
  Zr  Zr37  1  0.91008912  0.09906534  0.89775560  1
  Zr  Zr38  1  0.09827136  0.49567526  0.90070477  1
  Zr  Zr39  1  0.70483122  0.69402706  0.69532321  1
  Zr  Zr40  1  0.70326106  0.30207047  0.90200451  1
  Zr  Zr41  1  0.29830214  0.30715930  0.91061614  1
  Zr  Zr42  1  0.48967438  0.10539223  0.11311392  1
  Zr  Zr43  1  0.90086560  0.50945738  0.29207665  1
  Zr  Zr44  1  0.90357367  0.30733775  0.90611831  1
  Zr  Zr45  1  0.70252903  0.30042112  0.30293530  1
  Zr  Zr46  1  0.50055343  0.90175751  0.48751284  1
  Zr  Zr47  1  0.10330094  0.10574317  0.09456115  1
  Zr  Zr48  1  0.90388169  0.69762780  0.90271398  1
  Zr  Zr49  1  0.70640077  0.49993915  0.50782277  1
  Sc  Sc50  1  0.10041724  0.69891009  0.09356030  1
  Sc  Sc51  1  0.90087108  0.49824542  0.09858379  1
  Sc  Sc52  1  0.09841882  0.30555574  0.90614501  1
  Sc  Sc53  1  0.90353325  0.30043023  0.09959863  1
  Sc  Sc54  1  0.89670040  0.49612706  0.90028585  1
  Sc  Sc55  1  0.50172859  0.29665294  0.90211384  1
  Sc  Sc56  1  0.70984775  0.30435743  0.49695043  1
  Sc  Sc57  1  0.29546785  0.89984521  0.29471979  1
  Sc  Sc58  1  0.10004119  0.48891985  0.30421072  1
  Sc  Sc59  1  0.90330533  0.29920104  0.30526582  1
  Sc  Sc60  1  0.69141009  0.69942532  0.09474348  1
  Sc  Sc61  1  0.09469801  0.29845923  0.10333238  1
  Sc  Sc62  1  0.29927543  0.31388552  0.69576819  1
  Sc  Sc63  1  0.89766950  0.50410459  0.70019781  1
  Sc  Sc64  1  0.70125699  0.51003165  0.10055164  1
  Sc  Sc65  1  0.70468050  0.10047533  0.29720311  1
  Sc  Sc66  1  0.70682306  0.10182967  0.10173488  1
  Sc  Sc67  1  0.10291739  0.69455698  0.30133324  1
  Sc  Sc68  1  0.30354011  0.68942679  0.30688779  1
  Sc  Sc69  1  0.70667374  0.10689128  0.50358021  1
  Sc  Sc70  1  0.71275338  0.69238403  0.30841996  1
  Sc  Sc71  1  0.89025619  0.69821947  0.49884580  1
  Sc  Sc72  1  0.90382406  0.89794956  0.90420107  1
  Sc  Sc73  1  0.69241647  0.90500587  0.90943239  1
  Sc  Sc74  1  0.90030106  0.90452139  0.09766399  1
  Sc  Sc75  1  0.30813226  0.90098620  0.69982356  1
  Sc  Sc76  1  0.29857496  0.10790258  0.30106244  1
  Sc  Sc77  1  0.50096111  0.90378206  0.90209472  1
  Sc  Sc78  1  0.10597646  0.90850879  0.88932177  1
  Sc  Sc79  1  0.90058591  0.90110725  0.69567133  1
  Sc  Sc80  1  0.69466677  0.30827146  0.70104949  1
  Sc  Sc81  1  0.69505633  0.68830463  0.90228810  1
  Sc  Sc82  1  0.29335646  0.09272406  0.90961066  1
  Sc  Sc83  1  0.29282321  0.49884763  0.49436869  1
  Sc  Sc84  1  0.09935572  0.30176161  0.30266044  1
  Sc  Sc85  1  0.49641271  0.10548251  0.69399213  1
  Sc  Sc86  1  0.29816561  0.49257331  0.08890787  1
  Sc  Sc87  1  0.50532747  0.51137985  0.10442518  1
  Sc  Sc88  1  0.89652874  0.11662161  0.50226716  1
  Sc  Sc89  1  0.70222951  0.88927818  0.49866764  1
  Sc  Sc90  1  0.49688405  0.30465937  0.69421840  1
  Sc  Sc91  1  0.90472219  0.10528503  0.10807628  1
  Sc  Sc92  1  0.49927440  0.50548698  0.89046936  1
  Sc  Sc93  1  0.30699855  0.89583042  0.90080552  1
  Sc  Sc94  1  0.49830966  0.49938044  0.29888111  1
  Sc  Sc95  1  0.89769944  0.49359994  0.50392297  1
  Sc  Sc96  1  0.09459086  0.09941259  0.29606922  1
  Sc  Sc97  1  0.30977980  0.10220248  0.49685782  1
  Sc  Sc98  1  0.50649796  0.09831388  0.89628404  1
  Sc  Sc99  1  0.10602508  0.10332199  0.48755132  1
  Nb  Nb100  1  0.90534776  0.89426518  0.49424657  1
  Nb  Nb101  1  0.30647791  0.29170273  0.10467987  1
  Nb  Nb102  1  0.29547718  0.30869345  0.30622441  1
  Nb  Nb103  1  0.90299251  0.70004161  0.30242903  1
  Nb  Nb104  1  0.30496911  0.69937780  0.50605977  1
  Nb  Nb105  1  0.69460939  0.49393267  0.89124564  1
  Nb  Nb106  1  0.49848017  0.09488325  0.49459054  1
  Nb  Nb107  1  0.09102393  0.49896490  0.11112013  1
  Nb  Nb108  1  0.90456009  0.69749580  0.70040710  1
  Nb  Nb109  1  0.29833333  0.90590245  0.09496646  1
  Nb  Nb110  1  0.49003763  0.69889783  0.49327119  1
  Nb  Nb111  1  0.49968897  0.09243998  0.31316095  1
  Nb  Nb112  1  0.29751536  0.70297413  0.69148811  1
  Nb  Nb113  1  0.50846838  0.49581994  0.69892371  1
  Nb  Nb114  1  0.89455392  0.30541578  0.50010712  1
  Nb  Nb115  1  0.68697974  0.50161147  0.70866880  1
  Nb  Nb116  1  0.09512687  0.69265711  0.69264241  1
  Nb  Nb117  1  0.29321508  0.29963755  0.49764087  1
  Nb  Nb118  1  0.10175148  0.30385797  0.69958102  1
  Nb  Nb119  1  0.10394264  0.10199988  0.89670759  1
  Nb  Nb120  1  0.29211134  0.49511709  0.29680850  1
  Nb  Nb121  1  0.09725066  0.50709455  0.49924632  1
  Nb  Nb122  1  0.50464873  0.90625242  0.70400130  1
  Nb  Nb123  1  0.10763514  0.69196181  0.50404383  1
  Nb  Nb124  1  0.50157739  0.70211616  0.09901374  1
  Nb  Nb125  1  0.79631522  0.40120539  0.20236349  1
  Nb  Nb126  1  0.00379106  0.79471117  0.59702734  1
  Nb  Nb127  1  0.59277715  0.19595917  0.40192482  1
  Nb  Nb128  1  0.60561906  0.40417468  -0.00348026  1
  Nb  Nb129  1  0.59989389  0.79813554  0.79518385  1
  Nb  Nb130  1  0.80021598  0.79895365  0.80006512  1
  Nb  Nb131  1  0.00319574  0.79458466  0.79083747  1
  Nb  Nb132  1  0.39138301  0.39482783  0.20057804  1
  Nb  Nb133  1  -0.00211290  0.79652657  0.20259213  1
  Nb  Nb134  1  0.19937012  0.78872234  0.78973644  1
  Nb  Nb135  1  0.80674651  -0.00291152  0.40365625  1
  Nb  Nb136  1  0.19902286  0.20379202  0.79771613  1
  Nb  Nb137  1  0.38745471  0.20095587  0.79874574  1
  Nb  Nb138  1  0.79756713  0.00063244  0.80074580  1
  Nb  Nb139  1  0.19807630  0.20722456  0.60180557  1
  Nb  Nb140  1  0.59708589  -0.00028835  0.59580127  1
  Nb  Nb141  1  0.80758904  0.20104778  0.79947826  1
  Nb  Nb142  1  0.59256677  0.60301069  0.40823815  1
  Nb  Nb143  1  0.20161786  0.59092407  0.19776503  1
  Nb  Nb144  1  0.01043263  0.00518479  -0.00069669  1
  Nb  Nb145  1  0.80603705  0.79701572  0.20265335  1
  Nb  Nb146  1  -0.00060349  -0.00432336  0.59093813  1
  Nb  Nb147  1  0.00293952  0.60040980  0.40506884  1
  Nb  Nb148  1  0.00444084  0.20371051  0.79652246  1
  Nb  Nb149  1  0.20154684  0.79147617  0.41013242  1
  Pd  Pd150  1  0.20713168  0.59136782  0.60266655  1
  Pd  Pd151  1  -0.00011731  0.20235062  0.40036863  1
  Pd  Pd152  1  0.60140395  0.19158455  0.20698374  1
  Pd  Pd153  1  0.20033836  0.78754716  0.20831694  1
  Pd  Pd154  1  0.60189610  0.39068852  0.59292891  1
  Pd  Pd155  1  0.40017562  0.58927481  0.40137613  1
  Pd  Pd156  1  0.19900197  0.59943608  0.79065516  1
  Pd  Pd157  1  0.80949593  0.00602557  -0.00242200  1
  Pd  Pd158  1  0.61104229  0.78895777  0.20987100  1
  Pd  Pd159  1  0.00970911  0.80978260  0.00028247  1
  Pd  Pd160  1  0.60097090  0.40454475  0.19033037  1
  Pd  Pd161  1  0.59391630  0.20764395  0.79604881  1
  Pd  Pd162  1  0.80831142  0.19472585  -0.00141040  1
  Pd  Pd163  1  0.38906096  0.59122524  0.19209712  1
  Pd  Pd164  1  0.40304788  0.59241623  0.00272947  1
  Pd  Pd165  1  0.80446334  0.39615032  0.79180988  1
  Pd  Pd166  1  0.19769130  0.80571939  -0.01324781  1
  Pd  Pd167  1  0.20803820  -0.00189579  0.39825167  1
  Pd  Pd168  1  0.79708791  0.59439145  -0.00425008  1
  Pd  Pd169  1  0.40862898  0.80754147  0.60096198  1
  Pd  Pd170  1  0.58759373  0.80257234  0.60026049  1
  Pd  Pd171  1  0.39951500  0.00890176  0.80324959  1
  Pd  Pd172  1  -0.00036615  0.59222118  0.00066236  1
  Pd  Pd173  1  0.40323514  0.60245385  0.79747641  1
  Pd  Pd174  1  0.19751485  0.20459922  0.20651329  1
  Pd  Pd175  1  0.39947341  0.40563052  0.39674123  1
  Pd  Pd176  1  0.40153987  0.19177567  -0.01034845  1
  Pd  Pd177  1  0.19168734  0.39530546  0.01209152  1
  Pd  Pd178  1  0.80009192  -0.00676986  0.59267989  1
  Pd  Pd179  1  0.40192980  0.79828981  0.79648497  1
  Pd  Pd180  1  0.59116826  0.00844888  0.01301501  1
  Pd  Pd181  1  0.41410855  0.40872695  0.00554114  1
  Pd  Pd182  1  0.39137690  0.80164838  0.20092952  1
  Pd  Pd183  1  0.40628228  0.00006313  0.00248618  1
  Pd  Pd184  1  0.80138217  0.60155588  0.80126122  1
  Pd  Pd185  1  0.60600492  0.60801267  0.21191672  1
  Pd  Pd186  1  0.40697425  0.39406383  0.80168982  1
  Pd  Pd187  1  0.79237383  0.79672759  -0.00018820  1
  Pd  Pd188  1  0.19634908  0.59444945  0.00858549  1
  Pd  Pd189  1  0.60227638  0.20144314  0.59183478  1
  Pd  Pd190  1  0.20213441  0.39803160  0.19151135  1
  Pd  Pd191  1  0.20154299  0.00783130  0.20611925  1
  Pd  Pd192  1  0.60123502  0.00949702  0.19503672  1
  Pd  Pd193  1  0.38845606  0.80734599  0.39629443  1
  Pd  Pd194  1  0.59381746  0.39740731  0.41105821  1
  Pd  Pd195  1  0.39210691  -0.00023726  0.20383885  1
  Pd  Pd196  1  0.60142290  0.78879275  0.39206899  1
  Pd  Pd197  1  0.01252908  0.19354412  0.59805690  1
  Pd  Pd198  1  0.39813836  0.20005166  0.39409035  1
  Pd  Pd199  1  0.59768067  0.60123016  0.59549158  1
  Rh  Rh200  1  0.19654271  0.40014822  0.80004924  1
  Rh  Rh201  1  0.80979624  0.40366680  0.39318668  1
  Rh  Rh202  1  -0.00027572  0.39982239  0.79899957  1
  Rh  Rh203  1  0.80177731  0.59478217  0.60542227  1
  Rh  Rh204  1  0.00275282  0.40546756  0.00558619  1
  Rh  Rh205  1  0.60765586  -0.00627514  0.79305744  1
  Rh  Rh206  1  0.19887884  0.79332163  0.59820378  1
  Rh  Rh207  1  0.19736454  -0.00748400  -0.00279475  1
  Rh  Rh208  1  0.00139693  0.20313616  0.20453762  1
  Rh  Rh209  1  -0.00541652  0.40748596  0.40136893  1
  Rh  Rh210  1  0.38654381  0.20182462  0.60690219  1
  Rh  Rh211  1  0.79115061  0.40766815  0.00955160  1
  Rh  Rh212  1  0.21515758  -0.00466914  0.80607988  1
  Rh  Rh213  1  0.39509572  0.20352368  0.21142328  1
  Rh  Rh214  1  0.59200191  0.39616356  0.80530555  1
  Rh  Rh215  1  0.79639759  0.19540846  0.39747819  1
  Rh  Rh216  1  0.80367800  0.59365780  0.40685571  1
  Rh  Rh217  1  0.79580034  0.60144205  0.19910059  1
  Rh  Rh218  1  0.01155832  0.60477674  0.20619832  1
  Rh  Rh219  1  -0.00926460  0.60125753  0.59100424  1
  Rh  Rh220  1  -0.00853699  -0.00469260  0.79922864  1
  Rh  Rh221  1  0.61614402  0.01052670  0.41083516  1
  Rh  Rh222  1  0.19874803  0.20871799  -0.00328673  1
  Rh  Rh223  1  0.19692222  0.60062571  0.39429341  1
  Rh  Rh224  1  0.59715347  0.19910663  0.00538163  1
  Rh  Rh225  1  0.19348761  0.01460428  0.58658441  1
  Rh  Rh226  1  0.59448505  0.60668173  0.79917046  1
  Rh  Rh227  1  0.00401644  -0.00513645  0.18832818  1
  Rh  Rh228  1  0.59584022  0.59232190  -0.00545602  1
  Rh  Rh229  1  0.19532616  0.40013906  0.40525203  1
  Rh  Rh230  1  0.40095105  0.80714914  0.00510990  1
  Rh  Rh231  1  0.19978002  0.40264504  0.59451392  1
  Rh  Rh232  1  0.39352871  0.40454603  0.59768323  1
  Rh  Rh233  1  0.80391025  0.21078025  0.20205971  1
  Rh  Rh234  1  0.79744536  0.80584904  0.39348919  1
  Rh  Rh235  1  0.79603654  0.40366256  0.60893053  1
  Rh  Rh236  1  0.60007691  0.80066206  -0.00479177  1
  Rh  Rh237  1  -0.00991896  0.39619250  0.20232607  1
  Rh  Rh238  1  -0.00139874  0.59593171  0.80231703  1
  Rh  Rh239  1  0.79385928  0.21676156  0.60638583  1
  Rh  Rh240  1  0.19952983  0.20801442  0.40299396  1
  Rh  Rh241  1  -0.00059885  0.40780979  0.59675949  1
  Rh  Rh242  1  0.00318893  0.19694494  -0.00504412  1
  Rh  Rh243  1  0.80261488  -0.00761749  0.20395691  1
  Rh  Rh244  1  0.39635394  0.59477604  0.59923440  1
  Rh  Rh245  1  0.81221099  0.79613407  0.60464045  1
  Rh  Rh246  1  0.00946581  0.78358158  0.40292685  1
  Rh  Rh247  1  0.41317192  -0.00476794  0.59791677  1
  Rh  Rh248  1  -0.01142727  0.01616822  0.41003178  1
  Rh  Rh249  1  0.39052268  -0.00497087  0.39518411  1
