# generated using pymatgen
data_ZrScNbPdRh
_symmetry_space_group_name_H-M   'P 1'
_cell_length_a   16.55745381
_cell_length_b   16.56398832
_cell_length_c   16.56540388
_cell_angle_alpha   89.99776940
_cell_angle_beta   90.02180039
_cell_angle_gamma   89.97351511
_symmetry_Int_Tables_number   1
_chemical_formula_structural   ZrScNbPdRh
_chemical_formula_sum   'Zr50 Sc50 Nb50 Pd50 Rh50'
_cell_volume   4543.18496574
_cell_formula_units_Z   50
loop_
 _symmetry_equiv_pos_site_id
 _symmetry_equiv_pos_as_xyz
  1  'x, y, z'
loop_
 _atom_site_type_symbol
 _atom_site_label
 _atom_site_symmetry_multiplicity
 _atom_site_fract_x
 _atom_site_fract_y
 _atom_site_fract_z
 _atom_site_occupancy
  Zr  Zr0  1  0.30606003  0.29422572  0.70614066  1
  Zr  Zr1  1  0.49954739  0.50251040  0.89730997  1
  Zr  Zr2  1  0.10480299  0.09758304  0.29904353  1
  Zr  Zr3  1  0.50026870  0.10935359  0.11043325  1
  Zr  Zr4  1  0.49411012  0.30274920  0.89460109  1
  Zr  Zr5  1  0.29614801  0.10033993  0.30150367  1
  Zr  Zr6  1  0.90702518  0.70620362  0.90439731  1
  Zr  Zr7  1  0.91209287  0.70610095  0.49756901  1
  Zr  Zr8  1  0.49645676  0.69717109  0.70385034  1
  Zr  Zr9  1  0.29887123  0.09958512  0.69780211  1
  Zr  Zr10  1  0.09814603  0.89582595  0.49713005  1
  Zr  Zr11  1  0.69692593  0.90755432  0.50204088  1
  Zr  Zr12  1  0.49830670  0.49725364  0.70583143  1
  Zr  Zr13  1  0.69690956  0.49331470  0.09774847  1
  Zr  Zr14  1  0.90479941  0.70253472  0.70332255  1
  Zr  Zr15  1  0.48596378  0.49205224  0.49489613  1
  Zr  Zr16  1  0.30022279  0.50040937  0.10566633  1
  Zr  Zr17  1  0.10014182  0.90042993  0.90473943  1
  Zr  Zr18  1  0.09862347  0.70464060  0.30306989  1
  Zr  Zr19  1  0.70001104  0.90701704  0.69720374  1
  Zr  Zr20  1  0.91028506  0.90277440  0.30697637  1
  Zr  Zr21  1  0.90415037  0.50075290  0.10666203  1
  Zr  Zr22  1  0.70369316  0.30691157  0.89899147  1
  Zr  Zr23  1  0.70023398  0.09517697  0.69609681  1
  Zr  Zr24  1  0.50224450  0.49750972  0.09753312  1
  Zr  Zr25  1  0.49227706  0.29351196  0.49883678  1
  Zr  Zr26  1  0.89863777  0.50995226  0.89444221  1
  Zr  Zr27  1  0.70236456  0.10355676  0.49680661  1
  Zr  Zr28  1  0.69433067  0.49524591  0.90124408  1
  Zr  Zr29  1  0.49351021  0.70775646  0.30960378  1
  Zr  Zr30  1  0.70341917  0.48715608  0.70319892  1
  Zr  Zr31  1  0.29329837  0.89737293  0.49486441  1
  Zr  Zr32  1  0.50125006  0.90904015  0.69791156  1
  Zr  Zr33  1  0.28853084  0.49822986  0.49533344  1
  Zr  Zr34  1  0.89782166  0.30016191  0.49760738  1
  Zr  Zr35  1  0.89730795  0.29233397  0.10193271  1
  Zr  Zr36  1  0.49505512  0.69638921  0.89577720  1
  Zr  Zr37  1  0.69707867  0.10866540  0.29523974  1
  Zr  Zr38  1  0.49699872  0.89749329  0.10446516  1
  Zr  Zr39  1  0.29287741  0.29206848  0.09591514  1
  Zr  Zr40  1  0.70571079  0.10100840  0.89752863  1
  Zr  Zr41  1  0.30186940  0.90653753  0.90375374  1
  Zr  Zr42  1  0.70372169  0.90210614  0.90164044  1
  Zr  Zr43  1  0.10939196  0.29191147  0.90160043  1
  Zr  Zr44  1  0.89601653  0.29378350  0.69324032  1
  Zr  Zr45  1  0.91042276  0.89819599  0.70006944  1
  Zr  Zr46  1  0.90418006  0.69549048  0.29401549  1
  Zr  Zr47  1  0.70565131  0.29352224  0.50493000  1
  Zr  Zr48  1  0.90475280  0.10344183  0.50382231  1
  Zr  Zr49  1  0.70353421  0.30085490  0.10099687  1
  Sc  Sc50  1  0.90610891  0.90718378  0.50248295  1
  Sc  Sc51  1  0.29742383  0.49319896  0.69569541  1
  Sc  Sc52  1  0.49167839  0.10341877  0.68853467  1
  Sc  Sc53  1  0.10490581  0.30136583  0.29635148  1
  Sc  Sc54  1  0.70040828  0.49763288  0.28580688  1
  Sc  Sc55  1  0.90671494  0.89844002  0.90316737  1
  Sc  Sc56  1  0.10026870  0.29629979  0.71072480  1
  Sc  Sc57  1  0.29707457  0.70099926  0.70752325  1
  Sc  Sc58  1  0.29631173  0.89628898  0.09960350  1
  Sc  Sc59  1  0.90740485  0.09942877  0.90024115  1
  Sc  Sc60  1  0.29480054  0.90445536  0.70016344  1
  Sc  Sc61  1  0.90277752  0.49811774  0.29516409  1
  Sc  Sc62  1  0.70374004  0.69439689  0.10173810  1
  Sc  Sc63  1  0.70414927  0.70871513  0.69892314  1
  Sc  Sc64  1  0.50264988  0.89393031  0.49253072  1
  Sc  Sc65  1  0.10129307  0.09497666  0.89826042  1
  Sc  Sc66  1  0.08721041  0.48703972  0.90051993  1
  Sc  Sc67  1  0.30409867  0.70256290  0.90058403  1
  Sc  Sc68  1  0.70353276  0.48557664  0.50533617  1
  Sc  Sc69  1  0.49218549  0.30132066  0.69459957  1
  Sc  Sc70  1  0.09591825  0.49712164  0.30060520  1
  Sc  Sc71  1  0.30050059  0.50177908  0.30209953  1
  Sc  Sc72  1  0.91023742  0.89289729  0.09285514  1
  Sc  Sc73  1  0.10204926  0.90061774  0.10171901  1
  Sc  Sc74  1  0.90369400  0.69788559  0.09636956  1
  Sc  Sc75  1  0.29616065  0.69902116  0.30470079  1
  Sc  Sc76  1  0.30284194  0.09580788  0.49382652  1
  Sc  Sc77  1  0.10599892  0.90145871  0.29744109  1
  Sc  Sc78  1  0.09939278  0.71023142  0.70079040  1
  Sc  Sc79  1  0.49662010  0.30156695  0.10583370  1
  Sc  Sc80  1  0.90299688  0.30741549  0.29934466  1
  Sc  Sc81  1  0.90326667  0.29492869  0.89977854  1
  Sc  Sc82  1  0.49535514  0.69559806  0.10767906  1
  Sc  Sc83  1  0.70645176  0.29729633  0.29676608  1
  Sc  Sc84  1  0.29493107  0.69805022  0.11013652  1
  Sc  Sc85  1  0.90312884  0.10216610  0.30355914  1
  Sc  Sc86  1  0.49034753  0.49501075  0.29219890  1
  Sc  Sc87  1  0.48767415  0.10003799  0.90019591  1
  Sc  Sc88  1  0.90297397  0.49179830  0.48983458  1
  Sc  Sc89  1  0.09578676  0.70499052  0.10745752  1
  Sc  Sc90  1  0.71271149  0.69813283  0.90300552  1
  Sc  Sc91  1  0.69295765  0.89366006  0.10564407  1
  Sc  Sc92  1  0.09653894  0.30188135  0.10038704  1
  Sc  Sc93  1  0.29535607  0.29956026  0.29843845  1
  Sc  Sc94  1  0.69036144  0.70121219  0.29510550  1
  Sc  Sc95  1  0.09906894  0.09950652  0.70693304  1
  Sc  Sc96  1  0.69303402  0.71223454  0.50323814  1
  Sc  Sc97  1  0.29969533  0.10390665  0.09966842  1
  Sc  Sc98  1  0.10330212  0.90326754  0.70462103  1
  Sc  Sc99  1  0.29536199  0.11022822  0.90331907  1
  Nb  Nb100  1  0.50601529  0.89673447  0.29632805  1
  Nb  Nb101  1  0.69954988  0.29789509  0.69832207  1
  Nb  Nb102  1  0.90598666  0.50240229  0.69444691  1
  Nb  Nb103  1  0.89766297  0.10073608  0.10102161  1
  Nb  Nb104  1  0.50260091  0.10476970  0.48865259  1
  Nb  Nb105  1  0.29527749  0.30841760  0.50063242  1
  Nb  Nb106  1  0.10438866  0.49831283  0.50321122  1
  Nb  Nb107  1  0.50275030  0.29123889  0.30140461  1
  Nb  Nb108  1  0.09725711  0.50168476  0.69881371  1
  Nb  Nb109  1  0.09855983  0.69443685  0.90449628  1
  Nb  Nb110  1  0.69475269  0.89819024  0.30012930  1
  Nb  Nb111  1  0.09619148  0.50172524  0.09802673  1
  Nb  Nb112  1  0.29910028  0.49912909  0.89996230  1
  Nb  Nb113  1  0.29997430  0.69574535  0.49263970  1
  Nb  Nb114  1  0.11049769  0.69504450  0.49621140  1
  Nb  Nb115  1  0.29877412  0.29878613  0.90109590  1
  Nb  Nb116  1  0.70367918  0.10661435  0.10061311  1
  Nb  Nb117  1  0.49800507  0.89965728  0.90486598  1
  Nb  Nb118  1  0.10621300  0.30749897  0.49326045  1
  Nb  Nb119  1  0.49884436  0.10957598  0.30301684  1
  Nb  Nb120  1  0.49662838  0.69660211  0.49816221  1
  Nb  Nb121  1  0.10496556  0.10429684  0.49495705  1
  Nb  Nb122  1  0.30361645  0.89993004  0.30311709  1
  Nb  Nb123  1  0.90838135  0.10083485  0.70298851  1
  Nb  Nb124  1  0.09271042  0.10164556  0.10240500  1
  Nb  Nb125  1  0.39065271  0.40058614  -0.00414690  1
  Nb  Nb126  1  0.80465904  0.59820106  0.59655643  1
  Nb  Nb127  1  0.40569848  -0.00113581  0.21247578  1
  Nb  Nb128  1  0.79781643  0.00423115  0.01033917  1
  Nb  Nb129  1  0.60277460  0.20156131  0.79831339  1
  Nb  Nb130  1  0.79379074  0.60492183  0.40369511  1
  Nb  Nb131  1  0.19890223  0.20443123  0.59137348  1
  Nb  Nb132  1  0.19393158  0.59413218  -0.00297406  1
  Nb  Nb133  1  0.00624846  0.59555266  0.59687935  1
  Nb  Nb134  1  0.79887488  -0.00107315  0.19707648  1
  Nb  Nb135  1  0.60032620  0.00353271  0.00310100  1
  Nb  Nb136  1  0.00927747  0.20352538  0.40726635  1
  Nb  Nb137  1  0.79929683  0.80126789  0.39531450  1
  Nb  Nb138  1  0.59420271  0.00475102  0.38959341  1
  Nb  Nb139  1  0.59625125  0.80719749  0.80628694  1
  Nb  Nb140  1  0.80227482  0.80701291  0.20718914  1
  Nb  Nb141  1  0.00802470  0.40346127  0.59965621  1
  Nb  Nb142  1  0.59514553  0.39545901  0.39713470  1
  Nb  Nb143  1  0.59903209  0.59325605  0.40732657  1
  Nb  Nb144  1  0.39743549  0.79300712  0.59326122  1
  Nb  Nb145  1  0.39796053  0.60373081  0.59368854  1
  Nb  Nb146  1  0.59802575  0.59635980  0.59606815  1
  Nb  Nb147  1  0.19329478  0.59351935  0.80710137  1
  Nb  Nb148  1  0.60348096  0.19882009  -0.00321205  1
  Nb  Nb149  1  0.59408752  0.80269113  -0.00603737  1
  Pd  Pd150  1  0.39101758  0.59938042  0.00384898  1
  Pd  Pd151  1  0.81162461  0.40448885  -0.00060355  1
  Pd  Pd152  1  0.61324249  0.60919841  0.79442381  1
  Pd  Pd153  1  0.01012679  0.00220953  0.60255902  1
  Pd  Pd154  1  0.00735607  0.60468068  0.79613241  1
  Pd  Pd155  1  0.59255084  0.60057538  0.20792703  1
  Pd  Pd156  1  0.20422171  0.79526506  0.60041838  1
  Pd  Pd157  1  0.59394502  0.39867462  0.59519624  1
  Pd  Pd158  1  0.00428036  0.19504681  -0.00262048  1
  Pd  Pd159  1  0.80968402  0.00324592  0.60260028  1
  Pd  Pd160  1  0.19555009  0.39018875  0.61112618  1
  Pd  Pd161  1  0.40761648  -0.00516897  0.39784221  1
  Pd  Pd162  1  0.80228776  0.59574206  0.00490394  1
  Pd  Pd163  1  -0.00739444  0.39598285  0.00123330  1
  Pd  Pd164  1  0.40028763  0.81026016  0.79263387  1
  Pd  Pd165  1  0.80628269  0.79987769  0.59205801  1
  Pd  Pd166  1  0.20055625  0.40367173  0.79870681  1
  Pd  Pd167  1  0.20838093  -0.00116862  0.19362028  1
  Pd  Pd168  1  0.19417101  0.00753655  0.59785385  1
  Pd  Pd169  1  0.39905523  0.79214763  0.00549475  1
  Pd  Pd170  1  0.00073998  0.59338080  0.40289901  1
  Pd  Pd171  1  0.81143965  0.39787038  0.79891908  1
  Pd  Pd172  1  0.38644307  0.20617039  0.40051527  1
  Pd  Pd173  1  -0.00623530  0.39280363  0.79582688  1
  Pd  Pd174  1  0.00002466  0.20266528  0.20989342  1
  Pd  Pd175  1  0.80064457  0.19850671  0.79571491  1
  Pd  Pd176  1  0.01307049  0.20772447  0.59774844  1
  Pd  Pd177  1  0.79082511  0.40616849  0.38987304  1
  Pd  Pd178  1  0.19892080  0.79768819  0.80824962  1
  Pd  Pd179  1  0.20035483  0.78992793  0.00228175  1
  Pd  Pd180  1  0.20043068  0.40481575  0.00189128  1
  Pd  Pd181  1  0.39157031  0.80143392  0.20320187  1
  Pd  Pd182  1  0.40371863  -0.00684309  0.58679870  1
  Pd  Pd183  1  0.19308319  0.59813829  0.19987969  1
  Pd  Pd184  1  0.79456778  0.60084712  0.79116462  1
  Pd  Pd185  1  0.79923450  0.80578765  0.80042779  1
  Pd  Pd186  1  0.79412442  -0.00134132  0.39232470  1
  Pd  Pd187  1  0.40158761  0.00561506  0.01154051  1
  Pd  Pd188  1  0.20086791  0.60726246  0.60936491  1
  Pd  Pd189  1  -0.00411283  -0.00222332  0.19537648  1
  Pd  Pd190  1  0.60006870  0.00373443  0.20041369  1
  Pd  Pd191  1  0.59011675  0.00631412  0.80654169  1
  Pd  Pd192  1  0.19759894  0.00727387  0.00654214  1
  Pd  Pd193  1  0.39558257  0.39210016  0.19838626  1
  Pd  Pd194  1  0.39569577  0.00474109  0.80150835  1
  Pd  Pd195  1  0.81431360  -0.00230911  0.80318015  1
  Pd  Pd196  1  0.19732569  0.40235498  0.20161598  1
  Pd  Pd197  1  0.60262057  0.60937023  -0.00116908  1
  Pd  Pd198  1  0.59704144  0.19851855  0.60539416  1
  Pd  Pd199  1  0.59160348  0.79697994  0.60767830  1
  Rh  Rh200  1  0.19498787  0.19673843  0.19418311  1
  Rh  Rh201  1  0.00422204  0.60000293  0.00415443  1
  Rh  Rh202  1  0.00024344  -0.00125868  0.80042809  1
  Rh  Rh203  1  0.80301493  0.40001504  0.19753195  1
  Rh  Rh204  1  0.40012653  0.59800807  0.39902870  1
  Rh  Rh205  1  0.59854780  0.38839941  0.79389308  1
  Rh  Rh206  1  0.80100799  0.19008812  0.60569997  1
  Rh  Rh207  1  0.59842402  0.39239575  0.20753750  1
  Rh  Rh208  1  0.39594986  0.80462030  0.40286545  1
  Rh  Rh209  1  0.38469122  0.59117381  0.79177811  1
  Rh  Rh210  1  0.39267826  0.19855835  0.20612961  1
  Rh  Rh211  1  -0.00339800  0.80326423  0.20052010  1
  Rh  Rh212  1  0.40499423  0.20945425  -0.00031872  1
  Rh  Rh213  1  0.38835233  0.19912598  0.58873779  1
  Rh  Rh214  1  0.00021337  0.19870924  0.80272138  1
  Rh  Rh215  1  0.39975178  0.39030118  0.39147614  1
  Rh  Rh216  1  0.00898829  0.79727383  0.59769450  1
  Rh  Rh217  1  0.81036294  0.40437731  0.60411247  1
  Rh  Rh218  1  0.20436080  -0.00031512  0.80530757  1
  Rh  Rh219  1  0.40247482  0.19470254  0.80042884  1
  Rh  Rh220  1  0.19051403  0.19333366  0.00528581  1
  Rh  Rh221  1  0.19467195  0.59690772  0.39352000  1
  Rh  Rh222  1  0.39444137  0.40371699  0.80419994  1
  Rh  Rh223  1  0.00355540  0.80171029  0.40032921  1
  Rh  Rh224  1  0.00305058  0.39819064  0.19612840  1
  Rh  Rh225  1  0.00887002  0.00813405  0.40281044  1
  Rh  Rh226  1  0.80151205  0.60535896  0.20333966  1
  Rh  Rh227  1  0.19673527  -0.00479965  0.39997960  1
  Rh  Rh228  1  0.40009016  0.60356044  0.20699347  1
  Rh  Rh229  1  0.58686554  0.39206036  0.00068648  1
  Rh  Rh230  1  0.80904935  0.19677198  0.20565833  1
  Rh  Rh231  1  0.59073459  0.00856916  0.58476097  1
  Rh  Rh232  1  0.19945578  0.40477236  0.39051507  1
  Rh  Rh233  1  0.19971776  0.20419942  0.40408109  1
  Rh  Rh234  1  0.60231480  0.79032041  0.19307064  1
  Rh  Rh235  1  0.81124841  0.20150849  0.39472667  1
  Rh  Rh236  1  0.20028606  0.79990185  0.39532198  1
  Rh  Rh237  1  0.79338694  0.80760145  0.01167662  1
  Rh  Rh238  1  0.00512875  0.39579168  0.40170980  1
  Rh  Rh239  1  0.20208924  0.80397075  0.20585343  1
  Rh  Rh240  1  0.60477255  0.20454519  0.40011606  1
  Rh  Rh241  1  0.60151069  0.20983077  0.19563927  1
  Rh  Rh242  1  -0.00159135  0.00315810  0.00384215  1
  Rh  Rh243  1  0.60507018  0.80134760  0.40035319  1
  Rh  Rh244  1  0.20329299  0.19578695  0.79531634  1
  Rh  Rh245  1  0.39403949  0.40251821  0.60027278  1
  Rh  Rh246  1  0.01017916  0.79822017  0.00083301  1
  Rh  Rh247  1  0.00565871  0.59869474  0.19764317  1
  Rh  Rh248  1  0.00637216  0.80318268  0.80592340  1
  Rh  Rh249  1  0.79951993  0.19689432  -0.00278348  1
