# generated using pymatgen
data_ZrScNbPdRh
_symmetry_space_group_name_H-M   'P 1'
_cell_length_a   16.56480831
_cell_length_b   16.56061032
_cell_length_c   16.56465571
_cell_angle_alpha   89.97550985
_cell_angle_beta   90.02805430
_cell_angle_gamma   90.02234866
_symmetry_Int_Tables_number   1
_chemical_formula_structural   ZrScNbPdRh
_chemical_formula_sum   'Zr50 Sc50 Nb50 Pd50 Rh50'
_cell_volume   4544.07029999
_cell_formula_units_Z   50
loop_
 _symmetry_equiv_pos_site_id
 _symmetry_equiv_pos_as_xyz
  1  'x, y, z'
loop_
 _atom_site_type_symbol
 _atom_site_label
 _atom_site_symmetry_multiplicity
 _atom_site_fract_x
 _atom_site_fract_y
 _atom_site_fract_z
 _atom_site_occupancy
  Zr  Zr0  1  0.49540612  0.49726534  0.49819799  1
  Zr  Zr1  1  0.90132511  0.70379237  0.49578496  1
  Zr  Zr2  1  0.08876775  0.49836156  0.29697079  1
  Zr  Zr3  1  0.09491749  0.30233777  0.89723862  1
  Zr  Zr4  1  0.29218720  0.30287794  0.90077111  1
  Zr  Zr5  1  0.29809081  0.10092219  0.89282869  1
  Zr  Zr6  1  0.10006747  0.90058083  0.49839676  1
  Zr  Zr7  1  0.70216491  0.29901431  0.50964495  1
  Zr  Zr8  1  0.29692905  0.90728023  0.70106122  1
  Zr  Zr9  1  0.29906397  0.68944861  0.89591544  1
  Zr  Zr10  1  0.90603947  0.89722932  0.50248491  1
  Zr  Zr11  1  0.89808542  0.10541367  0.10578920  1
  Zr  Zr12  1  0.50063786  0.10202565  0.89383407  1
  Zr  Zr13  1  0.10004127  0.10413524  0.30082800  1
  Zr  Zr14  1  0.90875529  0.48962842  0.90041847  1
  Zr  Zr15  1  0.29608588  0.90717652  0.49848485  1
  Zr  Zr16  1  0.09685084  0.89009087  0.69971820  1
  Zr  Zr17  1  0.09860235  0.30171487  0.50012867  1
  Zr  Zr18  1  0.70047524  0.70756028  0.69475384  1
  Zr  Zr19  1  0.29365342  0.50803879  0.09848159  1
  Zr  Zr20  1  0.29777442  0.70341612  0.10747392  1
  Zr  Zr21  1  0.88610444  0.69602575  0.10379610  1
  Zr  Zr22  1  0.70113356  0.89715577  0.10493858  1
  Zr  Zr23  1  0.69989712  0.89542161  0.70422180  1
  Zr  Zr24  1  0.69736015  0.69351988  0.09947934  1
  Zr  Zr25  1  0.69447351  0.30269160  0.69964523  1
  Zr  Zr26  1  0.50386413  0.90148669  0.69942885  1
  Zr  Zr27  1  0.90652566  0.30325843  0.29533576  1
  Zr  Zr28  1  0.68941607  0.49856171  0.69876306  1
  Zr  Zr29  1  0.10501509  0.50536878  0.50162935  1
  Zr  Zr30  1  0.69900582  0.11324404  0.69596486  1
  Zr  Zr31  1  0.10933858  0.88965149  0.10062628  1
  Zr  Zr32  1  0.50552081  0.90633517  0.88997518  1
  Zr  Zr33  1  0.91156934  0.10209023  0.90107633  1
  Zr  Zr34  1  0.70082187  0.90174412  0.90002610  1
  Zr  Zr35  1  0.90079125  0.89424679  0.89902185  1
  Zr  Zr36  1  0.10423797  0.70777698  0.90067023  1
  Zr  Zr37  1  0.51115132  0.50076292  0.09883716  1
  Zr  Zr38  1  0.10223314  0.10604421  0.90115764  1
  Zr  Zr39  1  0.70518835  0.49706908  0.10134304  1
  Zr  Zr40  1  0.90755728  0.49362465  0.49479427  1
  Zr  Zr41  1  0.90912395  0.30178935  0.69173500  1
  Zr  Zr42  1  0.29501065  0.68554569  0.49080676  1
  Zr  Zr43  1  0.50607069  0.89756437  0.30066405  1
  Zr  Zr44  1  0.90049531  0.88673338  0.69858405  1
  Zr  Zr45  1  0.28534619  0.89725703  0.89875277  1
  Zr  Zr46  1  0.50763863  0.69757543  0.70491555  1
  Zr  Zr47  1  0.69958449  0.30068258  0.91118279  1
  Zr  Zr48  1  0.90742917  0.10489585  0.69637521  1
  Zr  Zr49  1  0.50639876  0.70696682  0.50106782  1
  Sc  Sc50  1  0.10532472  0.49201204  0.89743406  1
  Sc  Sc51  1  0.09797602  0.68888379  0.70228902  1
  Sc  Sc52  1  0.90133795  0.50263350  0.30043038  1
  Sc  Sc53  1  0.70333063  0.48938221  0.49782804  1
  Sc  Sc54  1  0.30018935  0.30268205  0.69458504  1
  Sc  Sc55  1  0.70337353  0.49858045  0.30032355  1
  Sc  Sc56  1  0.89799012  0.90290765  0.30114547  1
  Sc  Sc57  1  0.11285611  0.69297240  0.10942661  1
  Sc  Sc58  1  0.70216716  0.70056732  0.90210325  1
  Sc  Sc59  1  0.29894175  0.29580080  0.09294182  1
  Sc  Sc60  1  0.69470659  0.88682617  0.49428388  1
  Sc  Sc61  1  0.09573768  0.89953674  0.90216865  1
  Sc  Sc62  1  0.29600528  0.10201791  0.50000533  1
  Sc  Sc63  1  0.09604783  0.29128408  0.29714842  1
  Sc  Sc64  1  0.50007362  0.69781431  0.11044566  1
  Sc  Sc65  1  0.90097770  0.70466726  0.90121308  1
  Sc  Sc66  1  0.49570785  0.10220824  0.10124760  1
  Sc  Sc67  1  0.49612597  0.09149068  0.29673173  1
  Sc  Sc68  1  0.49573455  0.50290346  0.89805986  1
  Sc  Sc69  1  0.69175373  0.50134010  0.90960648  1
  Sc  Sc70  1  0.10240842  0.30212538  0.69408556  1
  Sc  Sc71  1  0.49907967  0.30289962  0.70036463  1
  Sc  Sc72  1  0.10293897  0.90220257  0.30780922  1
  Sc  Sc73  1  0.90387601  0.10208593  0.28964556  1
  Sc  Sc74  1  0.49495260  0.90030536  0.11668911  1
  Sc  Sc75  1  0.70971369  0.70509907  0.29670412  1
  Sc  Sc76  1  0.30315996  0.10627908  0.10052568  1
  Sc  Sc77  1  0.09934286  0.10501918  0.69758848  1
  Sc  Sc78  1  0.49647441  0.30355190  0.89959498  1
  Sc  Sc79  1  0.68967137  0.09935456  0.90225243  1
  Sc  Sc80  1  0.30051557  0.89824689  0.10768777  1
  Sc  Sc81  1  0.50170092  0.30385125  0.09597087  1
  Sc  Sc82  1  0.49426687  0.30293146  0.30809404  1
  Sc  Sc83  1  0.30260532  0.49706905  0.89493365  1
  Sc  Sc84  1  0.70825097  0.09758650  0.10215810  1
  Sc  Sc85  1  0.10778242  0.69630843  0.30677575  1
  Sc  Sc86  1  0.49488040  0.70478753  0.30134865  1
  Sc  Sc87  1  0.30038632  0.49572162  0.49993151  1
  Sc  Sc88  1  0.49525218  0.10295142  0.70565352  1
  Sc  Sc89  1  0.09819103  0.49748701  0.69695968  1
  Sc  Sc90  1  0.70957507  0.30962050  0.30049493  1
  Sc  Sc91  1  0.30284396  0.29483666  0.50076475  1
  Sc  Sc92  1  0.30609036  0.89588427  0.29924333  1
  Sc  Sc93  1  0.49181207  0.09947944  0.49695433  1
  Sc  Sc94  1  0.50030844  0.90133064  0.48659658  1
  Sc  Sc95  1  0.49407369  0.30200556  0.50367022  1
  Sc  Sc96  1  0.89514903  0.90285116  0.09644042  1
  Sc  Sc97  1  0.09767167  0.30298889  0.09355459  1
  Sc  Sc98  1  0.49843948  0.50046568  0.30577486  1
  Sc  Sc99  1  0.09376469  0.10277553  0.09754080  1
  Nb  Nb100  1  0.29325075  0.11041950  0.29673538  1
  Nb  Nb101  1  0.30531805  0.09793381  0.69848071  1
  Nb  Nb102  1  0.29952502  0.50848266  0.70187724  1
  Nb  Nb103  1  0.89729373  0.69879199  0.69897823  1
  Nb  Nb104  1  0.70062887  0.69864407  0.50195663  1
  Nb  Nb105  1  0.89989656  0.29910674  0.49914760  1
  Nb  Nb106  1  0.90277523  0.69672548  0.30044838  1
  Nb  Nb107  1  0.09949766  0.09774530  0.49156894  1
  Nb  Nb108  1  0.30216334  0.50220155  0.30666053  1
  Nb  Nb109  1  0.70477416  0.30138564  0.10234143  1
  Nb  Nb110  1  0.89910229  0.10254767  0.50426669  1
  Nb  Nb111  1  0.70113428  0.10192246  0.50111223  1
  Nb  Nb112  1  0.69178855  0.91272409  0.30004397  1
  Nb  Nb113  1  0.89879467  0.30174259  0.89961179  1
  Nb  Nb114  1  0.09731112  0.49562514  0.10098281  1
  Nb  Nb115  1  0.90711149  0.49580961  0.10117928  1
  Nb  Nb116  1  0.88733598  0.30559588  0.09172889  1
  Nb  Nb117  1  0.90323416  0.50340065  0.70083882  1
  Nb  Nb118  1  0.10355294  0.69889345  0.50094580  1
  Nb  Nb119  1  0.70379149  0.10083042  0.30088496  1
  Nb  Nb120  1  0.49330622  0.49927442  0.70328591  1
  Nb  Nb121  1  0.29672919  0.69723579  0.70269583  1
  Nb  Nb122  1  0.29488902  0.29686856  0.29860999  1
  Nb  Nb123  1  0.29918092  0.68800394  0.29538404  1
  Nb  Nb124  1  0.49764787  0.70179217  0.90257888  1
  Nb  Nb125  1  0.00216394  0.59437408  0.00759691  1
  Nb  Nb126  1  0.38925092  0.40232359  0.20331816  1
  Nb  Nb127  1  0.20124170  0.00704831  0.20572838  1
  Nb  Nb128  1  0.59254012  0.80158001  0.00133910  1
  Nb  Nb129  1  0.80432674  0.59436934  0.79257264  1
  Nb  Nb130  1  0.79858339  0.00088433  0.59743874  1
  Nb  Nb131  1  0.40302944  0.80164560  -0.00610517  1
  Nb  Nb132  1  0.80285817  0.39980613  0.79926857  1
  Nb  Nb133  1  0.80420707  0.00659816  0.79465150  1
  Nb  Nb134  1  0.80274212  0.60055585  0.60148682  1
  Nb  Nb135  1  0.60932592  0.20426866  0.20522846  1
  Nb  Nb136  1  0.40077759  0.60250044  0.60678849  1
  Nb  Nb137  1  0.79480548  0.00651065  0.40489670  1
  Nb  Nb138  1  -0.00302766  0.79305000  0.20443140  1
  Nb  Nb139  1  0.20306252  0.79188212  0.59707047  1
  Nb  Nb140  1  0.60908173  0.19521986  0.39721829  1
  Nb  Nb141  1  0.20189105  0.39704041  0.39165549  1
  Nb  Nb142  1  0.80526310  0.20583353  0.80253407  1
  Nb  Nb143  1  0.20310979  0.40225463  0.20259263  1
  Nb  Nb144  1  0.39684423  0.79665927  0.79949966  1
  Nb  Nb145  1  0.39254055  0.79580140  0.60352457  1
  Nb  Nb146  1  0.80187403  0.19783337  0.40427540  1
  Nb  Nb147  1  0.60502958  0.60560672  0.40608658  1
  Nb  Nb148  1  0.60691026  0.00300425  0.59541905  1
  Nb  Nb149  1  0.39861879  -0.00568324  -0.00653227  1
  Pd  Pd150  1  0.00199227  0.00194260  0.59954711  1
  Pd  Pd151  1  0.39185624  0.79469727  0.40153939  1
  Pd  Pd152  1  0.59899936  0.39825526  0.80804141  1
  Pd  Pd153  1  0.00095026  0.78816278  0.01517349  1
  Pd  Pd154  1  0.79543427  0.59728051  0.40422345  1
  Pd  Pd155  1  0.80642867  0.40594248  0.20217229  1
  Pd  Pd156  1  0.60646434  0.60217894  0.80813942  1
  Pd  Pd157  1  0.79842139  0.19071564  -0.00562273  1
  Pd  Pd158  1  0.39469231  0.40509522  0.60438581  1
  Pd  Pd159  1  0.59908451  0.20015328  0.01095924  1
  Pd  Pd160  1  0.20164636  0.40246010  0.79025204  1
  Pd  Pd161  1  0.40265346  0.19724125  0.39716977  1
  Pd  Pd162  1  0.40918877  -0.00204748  0.59749391  1
  Pd  Pd163  1  0.40976071  0.20885545  0.20202167  1
  Pd  Pd164  1  0.39181062  0.00639952  0.39072460  1
  Pd  Pd165  1  -0.00272079  0.20788364  0.00496554  1
  Pd  Pd166  1  0.80845482  0.59208352  -0.00991598  1
  Pd  Pd167  1  0.20055988  0.19610903  0.59791856  1
  Pd  Pd168  1  0.80456636  0.40750575  0.60551026  1
  Pd  Pd169  1  0.19168025  0.00300539  0.60172598  1
  Pd  Pd170  1  0.39675132  0.20985401  0.79641495  1
  Pd  Pd171  1  0.59249181  0.39223349  0.20635238  1
  Pd  Pd172  1  -0.00028515  0.60322047  0.81043087  1
  Pd  Pd173  1  -0.00814422  0.00571535  0.39664934  1
  Pd  Pd174  1  0.00361680  0.79557852  0.39229229  1
  Pd  Pd175  1  0.60001384  0.01108127  0.19399889  1
  Pd  Pd176  1  0.39852251  0.40407539  0.00552080  1
  Pd  Pd177  1  0.40452698  0.59284827  0.20203891  1
  Pd  Pd178  1  0.40116424  0.19600899  -0.00399853  1
  Pd  Pd179  1  0.80299894  0.00633592  -0.00727581  1
  Pd  Pd180  1  0.20452142  0.00604658  0.01185103  1
  Pd  Pd181  1  0.79731847  0.80732981  0.39425651  1
  Pd  Pd182  1  -0.00625549  0.19682936  0.40301428  1
  Pd  Pd183  1  0.58373954  0.19620406  0.59274758  1
  Pd  Pd184  1  0.00808935  -0.01174533  0.19696831  1
  Pd  Pd185  1  0.60054431  0.59105478  0.59214709  1
  Pd  Pd186  1  0.60211842  0.39709507  0.39936576  1
  Pd  Pd187  1  0.19371682  0.20240524  0.18821361  1
  Pd  Pd188  1  -0.00035681  0.60736238  0.19586933  1
  Pd  Pd189  1  0.19251629  0.59596989  -0.00696599  1
  Pd  Pd190  1  0.80289085  0.80754521  0.20710530  1
  Pd  Pd191  1  0.60321763  0.60259265  0.21543803  1
  Pd  Pd192  1  0.20669079  0.79846475  0.39936496  1
  Pd  Pd193  1  0.40483623  0.60284465  0.00589571  1
  Pd  Pd194  1  0.18829813  0.00421821  0.79493229  1
  Pd  Pd195  1  -0.00436425  0.60309930  0.59609818  1
  Pd  Pd196  1  0.58995456  -0.00597480  0.01277902  1
  Pd  Pd197  1  0.00201301  -0.00414540  0.79834316  1
  Pd  Pd198  1  0.20147778  0.20238226  0.79009607  1
  Pd  Pd199  1  0.00154992  -0.00508638  0.00697335  1
  Rh  Rh200  1  0.39646000  0.40003952  0.79758902  1
  Rh  Rh201  1  0.19826312  0.59052021  0.20868083  1
  Rh  Rh202  1  0.80094359  0.79887761  0.59355446  1
  Rh  Rh203  1  0.00228111  0.60480057  0.40179765  1
  Rh  Rh204  1  0.20438986  0.59991578  0.60379222  1
  Rh  Rh205  1  0.00989394  0.19757264  0.59008880  1
  Rh  Rh206  1  0.79804330  0.20771096  0.20298667  1
  Rh  Rh207  1  0.00097423  0.79232395  0.79855494  1
  Rh  Rh208  1  -0.00391732  0.20942311  0.18854624  1
  Rh  Rh209  1  0.60435761  0.79821226  0.20008957  1
  Rh  Rh210  1  0.59910456  0.79170257  0.81062548  1
  Rh  Rh211  1  0.00081447  0.39934559  0.00463581  1
  Rh  Rh212  1  0.00032294  0.39206692  0.19125466  1
  Rh  Rh213  1  0.80646650  0.39404796  0.39996058  1
  Rh  Rh214  1  0.00235056  0.40206011  0.59714228  1
  Rh  Rh215  1  0.19367534  0.58979008  0.39383874  1
  Rh  Rh216  1  0.79838578  0.40651767  -0.00236788  1
  Rh  Rh217  1  0.19907109  0.79660112  0.79306918  1
  Rh  Rh218  1  0.00090330  0.39557899  0.79330234  1
  Rh  Rh219  1  0.40970115  0.60412046  0.40402136  1
  Rh  Rh220  1  0.38990050  0.39342655  0.39604613  1
  Rh  Rh221  1  0.39683366  0.79555714  0.20152326  1
  Rh  Rh222  1  0.60815225  0.79175908  0.38903078  1
  Rh  Rh223  1  0.80140751  0.79584017  0.80627567  1
  Rh  Rh224  1  0.20352484  0.40401103  0.59400565  1
  Rh  Rh225  1  0.20701387  0.79449096  0.00177458  1
  Rh  Rh226  1  0.59029391  0.40202322  0.59817156  1
  Rh  Rh227  1  0.60205577  0.20593696  0.80399149  1
  Rh  Rh228  1  0.60349374  0.00504982  0.40580631  1
  Rh  Rh229  1  0.39310948  -0.00283100  0.80436556  1
  Rh  Rh230  1  0.19654968  0.80605080  0.21354881  1
  Rh  Rh231  1  0.38731210  0.00512064  0.19913453  1
  Rh  Rh232  1  0.00046452  0.20784229  0.79964341  1
  Rh  Rh233  1  0.80036787  -0.00401914  0.20641055  1
  Rh  Rh234  1  0.19289688  0.59366924  0.80115416  1
  Rh  Rh235  1  0.20194648  0.40080117  0.00447918  1
  Rh  Rh236  1  0.19762733  0.20381734  0.40729232  1
  Rh  Rh237  1  0.80724601  0.20120887  0.60023196  1
  Rh  Rh238  1  0.59355527  0.81217386  0.59487297  1
  Rh  Rh239  1  0.59317746  0.60760646  -0.00015567  1
  Rh  Rh240  1  0.80103544  0.59155504  0.20391413  1
  Rh  Rh241  1  0.39694598  0.19553712  0.60502524  1
  Rh  Rh242  1  0.79043796  0.80141421  -0.00037245  1
  Rh  Rh243  1  0.61132900  0.01076592  0.78690256  1
  Rh  Rh244  1  0.00583253  0.39737813  0.40074829  1
  Rh  Rh245  1  0.01055174  0.78731960  0.60101643  1
  Rh  Rh246  1  0.40270427  0.60110247  0.79574184  1
  Rh  Rh247  1  0.20634493  0.00769323  0.39181106  1
  Rh  Rh248  1  0.19807360  0.19945491  -0.00060565  1
  Rh  Rh249  1  0.59838695  0.39896600  0.00013253  1
