# generated using pymatgen
data_ZrScNbPdRh
_symmetry_space_group_name_H-M   'P 1'
_cell_length_a   16.55475552
_cell_length_b   16.55722041
_cell_length_c   16.55483983
_cell_angle_alpha   90.03209021
_cell_angle_beta   90.00466581
_cell_angle_gamma   89.99685347
_symmetry_Int_Tables_number   1
_chemical_formula_structural   ZrScNbPdRh
_chemical_formula_sum   'Zr50 Sc50 Nb50 Pd50 Rh50'
_cell_volume   4537.69304910
_cell_formula_units_Z   50
loop_
 _symmetry_equiv_pos_site_id
 _symmetry_equiv_pos_as_xyz
  1  'x, y, z'
loop_
 _atom_site_type_symbol
 _atom_site_label
 _atom_site_symmetry_multiplicity
 _atom_site_fract_x
 _atom_site_fract_y
 _atom_site_fract_z
 _atom_site_occupancy
  Zr  Zr0  1  0.30506340  0.69691049  0.09158544  1
  Zr  Zr1  1  0.50037887  0.09675004  0.30170683  1
  Zr  Zr2  1  0.49931386  0.50352682  0.49321068  1
  Zr  Zr3  1  0.69908684  0.89009364  0.71012230  1
  Zr  Zr4  1  0.10244260  0.90236275  0.30165250  1
  Zr  Zr5  1  0.31415400  0.49983045  0.30237770  1
  Zr  Zr6  1  0.48918577  0.29902031  0.70095663  1
  Zr  Zr7  1  0.50204494  0.50378096  0.69941462  1
  Zr  Zr8  1  0.29898459  0.89426389  0.89691096  1
  Zr  Zr9  1  0.89886118  0.48344431  0.49667071  1
  Zr  Zr10  1  0.09890740  0.29193323  0.29936231  1
  Zr  Zr11  1  0.09924373  0.49779149  0.69798599  1
  Zr  Zr12  1  0.29206612  0.09955464  0.29985377  1
  Zr  Zr13  1  0.90568837  0.30386812  0.90180798  1
  Zr  Zr14  1  0.50871231  0.10337742  0.50078153  1
  Zr  Zr15  1  0.89890012  0.90404314  0.10040155  1
  Zr  Zr16  1  0.69484728  0.69824270  0.89535433  1
  Zr  Zr17  1  0.89927288  0.10082673  0.49803378  1
  Zr  Zr18  1  0.29911412  0.30319028  0.30599441  1
  Zr  Zr19  1  0.10224288  0.70243631  0.29826077  1
  Zr  Zr20  1  0.09704692  0.91000912  0.49557252  1
  Zr  Zr21  1  0.69966603  0.90997250  0.09899063  1
  Zr  Zr22  1  0.90275907  0.90852630  0.49719576  1
  Zr  Zr23  1  0.50534070  0.29876663  0.49666191  1
  Zr  Zr24  1  0.10048228  0.09312790  0.10413582  1
  Zr  Zr25  1  0.09647544  0.10466988  0.68848633  1
  Zr  Zr26  1  0.69545016  0.69950147  0.50108936  1
  Zr  Zr27  1  0.49947777  0.10453858  0.09540080  1
  Zr  Zr28  1  0.89840447  0.29388660  0.11396008  1
  Zr  Zr29  1  0.89611602  0.48661468  0.09871117  1
  Zr  Zr30  1  0.70643840  0.29199306  0.50097216  1
  Zr  Zr31  1  0.50291877  0.89945551  0.89233469  1
  Zr  Zr32  1  0.30226723  0.89471542  0.49746393  1
  Zr  Zr33  1  0.10487129  0.70032411  0.09843062  1
  Zr  Zr34  1  0.10823059  0.69808341  0.90406269  1
  Zr  Zr35  1  0.89677946  0.10277964  0.89843668  1
  Zr  Zr36  1  0.69817054  0.89975204  0.48904187  1
  Zr  Zr37  1  0.89481768  0.70656458  0.70304513  1
  Zr  Zr38  1  0.30443484  0.29765337  0.09590580  1
  Zr  Zr39  1  0.49766544  0.70646593  0.91130930  1
  Zr  Zr40  1  0.90469835  0.10318530  0.70714386  1
  Zr  Zr41  1  0.09806898  0.69572589  0.70369798  1
  Zr  Zr42  1  0.69884366  0.69697627  0.69935397  1
  Zr  Zr43  1  0.50047760  0.90189836  0.69672898  1
  Zr  Zr44  1  0.89368108  0.69469286  0.29653585  1
  Zr  Zr45  1  0.70363055  0.70137705  0.29453238  1
  Zr  Zr46  1  0.29559920  0.49533163  0.50053686  1
  Zr  Zr47  1  0.10071529  0.29644928  0.70848356  1
  Zr  Zr48  1  0.69374322  0.50016027  0.09771753  1
  Zr  Zr49  1  0.50154256  0.90784628  0.30097348  1
  Sc  Sc50  1  0.50380922  0.90266589  0.08965161  1
  Sc  Sc51  1  0.10523901  0.50132057  0.09233419  1
  Sc  Sc52  1  0.29949821  0.48898749  0.70443042  1
  Sc  Sc53  1  0.89950218  0.48818954  0.70907793  1
  Sc  Sc54  1  0.09645402  0.48703962  0.30120318  1
  Sc  Sc55  1  0.70371237  0.49987181  0.90479336  1
  Sc  Sc56  1  0.70139282  0.50374385  0.70236771  1
  Sc  Sc57  1  0.09610827  0.71089440  0.49885587  1
  Sc  Sc58  1  0.69998016  0.09677559  0.89671309  1
  Sc  Sc59  1  0.50227173  0.70258055  0.50080802  1
  Sc  Sc60  1  0.50320626  0.10557238  0.89678808  1
  Sc  Sc61  1  0.29795546  0.90234403  0.30441453  1
  Sc  Sc62  1  0.89928663  0.10020539  0.29530880  1
  Sc  Sc63  1  0.30976530  0.90500176  0.70083359  1
  Sc  Sc64  1  0.29800945  0.10226353  0.69849943  1
  Sc  Sc65  1  0.90320134  0.09448157  0.10438105  1
  Sc  Sc66  1  0.49885518  0.10275222  0.69824536  1
  Sc  Sc67  1  0.89710012  0.71293219  0.49806555  1
  Sc  Sc68  1  0.50620279  0.49872610  0.90354204  1
  Sc  Sc69  1  0.10208391  0.09743849  0.30166727  1
  Sc  Sc70  1  0.09896210  0.89729966  0.09651772  1
  Sc  Sc71  1  0.89399203  0.30087880  0.70691414  1
  Sc  Sc72  1  0.08864431  0.29882929  0.10023128  1
  Sc  Sc73  1  0.10442101  0.30352321  0.50576296  1
  Sc  Sc74  1  0.29507932  0.70341486  0.70879554  1
  Sc  Sc75  1  0.49617519  0.89879002  0.50166255  1
  Sc  Sc76  1  0.29031426  0.90314819  0.09487453  1
  Sc  Sc77  1  0.70241779  0.30050120  0.90081547  1
  Sc  Sc78  1  0.70162695  0.49369668  0.49613127  1
  Sc  Sc79  1  0.89760706  0.70556068  0.10275062  1
  Sc  Sc80  1  0.89602307  0.91037044  0.89957892  1
  Sc  Sc81  1  0.49791463  0.29228898  0.90139906  1
  Sc  Sc82  1  0.50310067  0.50272414  0.10444968  1
  Sc  Sc83  1  0.30392233  0.50533735  0.10326889  1
  Sc  Sc84  1  0.29513464  0.09580544  0.10074209  1
  Sc  Sc85  1  0.51299851  0.70292049  0.69775772  1
  Sc  Sc86  1  0.09810788  0.91111794  0.70084548  1
  Sc  Sc87  1  0.50769101  0.30783984  0.09861897  1
  Sc  Sc88  1  0.49883198  0.68441346  0.30094210  1
  Sc  Sc89  1  0.89737499  0.90202079  0.29879884  1
  Sc  Sc90  1  0.29298305  0.49849613  0.90298492  1
  Sc  Sc91  1  0.09476326  0.09424789  0.88922158  1
  Sc  Sc92  1  0.70370691  0.30728565  0.10232512  1
  Sc  Sc93  1  0.29028174  0.09884755  0.50431200  1
  Sc  Sc94  1  0.30063930  0.69764769  0.29774338  1
  Sc  Sc95  1  0.89938822  0.69011202  0.90344227  1
  Sc  Sc96  1  0.70855154  0.29710327  0.30191099  1
  Sc  Sc97  1  0.09169172  0.49865708  0.90213046  1
  Sc  Sc98  1  0.89900866  0.90233263  0.70179765  1
  Sc  Sc99  1  0.50266559  0.49256281  0.29694179  1
  Nb  Nb100  1  0.29895437  0.69955727  0.49902369  1
  Nb  Nb101  1  0.30091440  0.29829023  0.89258709  1
  Nb  Nb102  1  0.70244778  0.10233538  0.10596401  1
  Nb  Nb103  1  0.49687457  0.29890118  0.29937579  1
  Nb  Nb104  1  0.10271335  0.89639302  0.90233426  1
  Nb  Nb105  1  0.90767818  0.31341809  0.30003574  1
  Nb  Nb106  1  0.09709270  0.50427849  0.50547503  1
  Nb  Nb107  1  0.70842442  0.50742178  0.29531844  1
  Nb  Nb108  1  0.70556664  0.11338536  0.69394887  1
  Nb  Nb109  1  0.50326738  0.70105774  0.09941367  1
  Nb  Nb110  1  0.90103067  0.49222898  0.29878575  1
  Nb  Nb111  1  0.89674395  0.48993895  0.90417092  1
  Nb  Nb112  1  0.30138078  0.29873734  0.50145658  1
  Nb  Nb113  1  0.10252351  0.29914565  0.90253106  1
  Nb  Nb114  1  0.69488882  0.09244744  0.30389453  1
  Nb  Nb115  1  0.69415614  0.90426013  0.29604836  1
  Nb  Nb116  1  0.89398636  0.30405383  0.48704743  1
  Nb  Nb117  1  0.29897833  0.10067099  0.90688612  1
  Nb  Nb118  1  0.69899298  0.89615267  0.90218058  1
  Nb  Nb119  1  0.30071699  0.30017943  0.70383836  1
  Nb  Nb120  1  0.70157663  0.10427851  0.49623781  1
  Nb  Nb121  1  0.69249830  0.70275945  0.09843950  1
  Nb  Nb122  1  0.70151100  0.30127752  0.69874928  1
  Nb  Nb123  1  0.09507977  0.10384902  0.50092184  1
  Nb  Nb124  1  0.30585451  0.70480690  0.89957572  1
  Nb  Nb125  1  0.59947919  0.80042881  0.19790185  1
  Nb  Nb126  1  0.39696829  0.39456324  -0.00431404  1
  Nb  Nb127  1  0.00495998  0.80081155  0.80786729  1
  Nb  Nb128  1  0.80745669  0.59844021  0.59811508  1
  Nb  Nb129  1  0.80212646  0.19652954  0.00563365  1
  Nb  Nb130  1  0.40416760  0.20214997  0.20487334  1
  Nb  Nb131  1  -0.00051596  0.59458399  0.40125732  1
  Nb  Nb132  1  0.20140385  0.80231842  0.59758134  1
  Nb  Nb133  1  0.39673334  0.00190937  -0.00790607  1
  Nb  Nb134  1  0.19447326  0.59763796  0.40536918  1
  Nb  Nb135  1  0.40817783  0.79885306  0.19389190  1
  Nb  Nb136  1  -0.00492658  0.59735398  0.59565966  1
  Nb  Nb137  1  0.39790683  0.20360798  0.39954042  1
  Nb  Nb138  1  0.19764011  0.20280515  -0.00863847  1
  Nb  Nb139  1  -0.00312656  0.20573575  0.40328895  1
  Nb  Nb140  1  0.20523182  0.39591381  0.20071556  1
  Nb  Nb141  1  0.79213915  0.00695029  0.59961798  1
  Nb  Nb142  1  0.79069637  0.80309985  -0.00023633  1
  Nb  Nb143  1  0.60079863  0.19556657  0.20440176  1
  Nb  Nb144  1  -0.00321231  0.59503604  0.20486199  1
  Nb  Nb145  1  0.61228539  0.00603783  0.60053774  1
  Nb  Nb146  1  0.40135876  0.60290690  0.80183321  1
  Nb  Nb147  1  0.39434827  0.60108368  0.60231610  1
  Nb  Nb148  1  0.60084751  0.39360652  0.60405257  1
  Nb  Nb149  1  0.59900350  0.39548781  0.79346266  1
  Pd  Pd150  1  0.20277776  0.39525210  0.00457507  1
  Pd  Pd151  1  -0.00911702  0.21331934  0.59418891  1
  Pd  Pd152  1  0.61235093  0.20430298  0.00603897  1
  Pd  Pd153  1  0.60883400  0.39841903  0.39575515  1
  Pd  Pd154  1  0.80096724  0.00221607  0.20567930  1
  Pd  Pd155  1  0.39799973  0.00901506  0.80371301  1
  Pd  Pd156  1  0.39442449  0.00884182  0.40919417  1
  Pd  Pd157  1  0.21076305  0.80325043  0.19808310  1
  Pd  Pd158  1  0.20636220  0.59401673  0.80460706  1
  Pd  Pd159  1  0.20060518  0.00298426  0.79857000  1
  Pd  Pd160  1  -0.00748785  0.59895449  0.79822621  1
  Pd  Pd161  1  0.39634998  -0.00359535  0.18837220  1
  Pd  Pd162  1  -0.00326940  0.39444890  0.60346604  1
  Pd  Pd163  1  -0.00472777  0.79774061  0.39240127  1
  Pd  Pd164  1  0.19554290  0.40359837  0.80442066  1
  Pd  Pd165  1  0.80465484  0.59295801  0.79710067  1
  Pd  Pd166  1  0.80157786  0.80533190  0.39407670  1
  Pd  Pd167  1  0.19493738  0.80712908  0.79168985  1
  Pd  Pd168  1  0.00093645  0.19421047  -0.00019393  1
  Pd  Pd169  1  0.59107031  0.79541542  0.39075780  1
  Pd  Pd170  1  0.20243791  0.20390786  0.18942461  1
  Pd  Pd171  1  0.59694945  0.00630350  -0.00539391  1
  Pd  Pd172  1  0.00440382  0.00016289  -0.00441078  1
  Pd  Pd173  1  0.60370653  0.59748414  0.39599093  1
  Pd  Pd174  1  -0.01035380  0.80168213  -0.00754510  1
  Pd  Pd175  1  0.81111963  0.20183296  0.60139146  1
  Pd  Pd176  1  0.40374983  0.79284380  0.38888442  1
  Pd  Pd177  1  0.20007355  0.19237618  0.80168267  1
  Pd  Pd178  1  0.19363414  0.58743955  0.20938464  1
  Pd  Pd179  1  0.80616086  0.59580152  0.40881499  1
  Pd  Pd180  1  0.60331847  0.20431948  0.79628754  1
  Pd  Pd181  1  0.00713745  0.80303466  0.60903568  1
  Pd  Pd182  1  0.60718322  0.39581200  0.20920907  1
  Pd  Pd183  1  0.40313217  0.40457427  0.59535547  1
  Pd  Pd184  1  0.80686749  0.19816407  0.38687091  1
  Pd  Pd185  1  0.19494332  0.40277709  0.39922928  1
  Pd  Pd186  1  0.40181906  0.58934321  -0.00500264  1
  Pd  Pd187  1  0.20123352  0.39201589  0.60417502  1
  Pd  Pd188  1  -0.00138418  0.79823416  0.20138755  1
  Pd  Pd189  1  0.39244060  0.19537427  0.59377446  1
  Pd  Pd190  1  0.19993056  0.60877775  0.59763394  1
  Pd  Pd191  1  0.20338103  -0.00576829  0.59984433  1
  Pd  Pd192  1  -0.00550690  0.59624964  0.00919222  1
  Pd  Pd193  1  0.39617205  0.19343137  0.80052156  1
  Pd  Pd194  1  0.39498354  0.79023345  0.60706117  1
  Pd  Pd195  1  0.80326173  0.59569123  0.18823169  1
  Pd  Pd196  1  0.79547333  0.80534815  0.59717438  1
  Pd  Pd197  1  0.79362956  0.00156986  0.79437792  1
  Pd  Pd198  1  0.60603642  0.00741638  0.79156805  1
  Pd  Pd199  1  0.79953330  0.60558500  0.00692536  1
  Rh  Rh200  1  0.20387261  0.20657724  0.60129574  1
  Rh  Rh201  1  0.79113484  0.40074038  0.80492674  1
  Rh  Rh202  1  0.59912116  0.20151374  0.39021851  1
  Rh  Rh203  1  0.79549629  0.00409402  -0.00053964  1
  Rh  Rh204  1  0.59987649  0.00198264  0.19765596  1
  Rh  Rh205  1  0.20490398  0.60220688  -0.00480332  1
  Rh  Rh206  1  0.39772982  0.39672791  0.18919267  1
  Rh  Rh207  1  0.19805539  0.00510308  -0.00561670  1
  Rh  Rh208  1  0.60045952  0.20229389  0.60564939  1
  Rh  Rh209  1  0.00252087  0.20347898  0.80251029  1
  Rh  Rh210  1  0.20277232  0.79511872  0.40579558  1
  Rh  Rh211  1  0.79335159  0.40305885  0.20476465  1
  Rh  Rh212  1  0.00099816  0.01052733  0.39478680  1
  Rh  Rh213  1  0.39309434  0.60300781  0.40882946  1
  Rh  Rh214  1  0.79766968  0.20430280  0.80826550  1
  Rh  Rh215  1  0.60081181  0.00043675  0.40736629  1
  Rh  Rh216  1  0.20336057  0.79725450  0.00091903  1
  Rh  Rh217  1  -0.00225209  0.19536550  0.21050604  1
  Rh  Rh218  1  0.81119224  0.79976968  0.81580962  1
  Rh  Rh219  1  0.79355574  0.40082807  0.60369478  1
  Rh  Rh220  1  0.79505851  0.19586817  0.20087002  1
  Rh  Rh221  1  0.40636270  0.60431029  0.19687726  1
  Rh  Rh222  1  0.59550887  0.79591126  0.80235029  1
  Rh  Rh223  1  0.60122286  0.60251938  0.20045015  1
  Rh  Rh224  1  0.00350620  -0.00483031  0.20322609  1
  Rh  Rh225  1  0.40321803  0.39415714  0.40694786  1
  Rh  Rh226  1  0.40785133  0.79086379  0.79354384  1
  Rh  Rh227  1  0.39297674  0.19756000  0.00241952  1
  Rh  Rh228  1  0.19729620  -0.00759140  0.20174945  1
  Rh  Rh229  1  0.40818407  0.00485517  0.59749679  1
  Rh  Rh230  1  0.59462656  0.39699679  -0.00918833  1
  Rh  Rh231  1  -0.00835585  0.00175134  0.60240284  1
  Rh  Rh232  1  0.39541418  0.81112368  0.00708593  1
  Rh  Rh233  1  0.00997905  0.40723504  0.19185539  1
  Rh  Rh234  1  0.40391677  0.40370977  0.81166348  1
  Rh  Rh235  1  0.79118854  0.40302367  0.38915732  1
  Rh  Rh236  1  0.00025465  0.39860544  0.00170815  1
  Rh  Rh237  1  0.00481618  0.39907082  0.80400299  1
  Rh  Rh238  1  0.60563969  0.80325698  0.00282946  1
  Rh  Rh239  1  0.60137134  0.59842848  0.00099027  1
  Rh  Rh240  1  0.19829752  0.00393376  0.40396124  1
  Rh  Rh241  1  0.60350097  0.81067361  0.59601070  1
  Rh  Rh242  1  0.79731268  0.00128943  0.39781811  1
  Rh  Rh243  1  0.80143089  0.38985271  -0.00050044  1
  Rh  Rh244  1  0.60513605  0.59070287  0.59070261  1
  Rh  Rh245  1  0.59435396  0.59667971  0.80776215  1
  Rh  Rh246  1  0.19598402  0.19851209  0.41232739  1
  Rh  Rh247  1  0.00806228  0.39555205  0.40503404  1
  Rh  Rh248  1  0.79008527  0.80744204  0.19321841  1
  Rh  Rh249  1  0.00180162  -0.00677684  0.80126983  1
