# generated using pymatgen
data_ZrScNbPdRh
_symmetry_space_group_name_H-M   'P 1'
_cell_length_a   16.55791551
_cell_length_b   16.55945846
_cell_length_c   16.56288271
_cell_angle_alpha   90.00357439
_cell_angle_beta   89.98073625
_cell_angle_gamma   90.02604522
_symmetry_Int_Tables_number   1
_chemical_formula_structural   ZrScNbPdRh
_chemical_formula_sum   'Zr50 Sc50 Nb50 Pd50 Rh50'
_cell_volume   4541.37796404
_cell_formula_units_Z   50
loop_
 _symmetry_equiv_pos_site_id
 _symmetry_equiv_pos_as_xyz
  1  'x, y, z'
loop_
 _atom_site_type_symbol
 _atom_site_label
 _atom_site_symmetry_multiplicity
 _atom_site_fract_x
 _atom_site_fract_y
 _atom_site_fract_z
 _atom_site_occupancy
  Zr  Zr0  1  0.69752565  0.30744697  0.10808297  1
  Zr  Zr1  1  0.30258766  0.69803639  0.29151234  1
  Zr  Zr2  1  0.49417208  0.10006632  0.11106179  1
  Zr  Zr3  1  0.70471594  0.29735822  0.69743117  1
  Zr  Zr4  1  0.48343390  0.70039165  0.10267048  1
  Zr  Zr5  1  0.50348319  0.49465634  0.09341070  1
  Zr  Zr6  1  0.69575158  0.89890420  0.69280912  1
  Zr  Zr7  1  0.09946646  0.49974719  0.10009846  1
  Zr  Zr8  1  0.30200084  0.89952369  0.70179135  1
  Zr  Zr9  1  0.70731482  0.69937158  0.11292616  1
  Zr  Zr10  1  0.30337708  0.10228320  0.30463431  1
  Zr  Zr11  1  0.10511741  0.10070886  0.30284935  1
  Zr  Zr12  1  0.89867536  0.90066400  0.09610818  1
  Zr  Zr13  1  0.70442794  0.50213789  0.28837623  1
  Zr  Zr14  1  0.29178537  0.50082012  0.30733766  1
  Zr  Zr15  1  0.70201288  0.69860235  0.69870420  1
  Zr  Zr16  1  0.09928349  0.69619271  0.51137710  1
  Zr  Zr17  1  0.91012744  0.68841640  0.69725194  1
  Zr  Zr18  1  0.69140725  0.69378261  0.89728031  1
  Zr  Zr19  1  0.69398531  0.69617584  0.30460675  1
  Zr  Zr20  1  0.29289246  0.89797662  0.30698029  1
  Zr  Zr21  1  0.30417850  0.29907584  0.69539645  1
  Zr  Zr22  1  0.29768733  0.50023374  0.09664346  1
  Zr  Zr23  1  0.69563948  0.89988284  0.29781541  1
  Zr  Zr24  1  0.49549898  0.90413058  0.10260305  1
  Zr  Zr25  1  0.49905920  0.69664868  0.89986995  1
  Zr  Zr26  1  0.50318986  0.30461814  0.69820361  1
  Zr  Zr27  1  0.29846373  0.69800223  0.90531538  1
  Zr  Zr28  1  0.09488109  0.09675060  0.70516688  1
  Zr  Zr29  1  0.70045541  0.89917282  0.10417116  1
  Zr  Zr30  1  0.90814441  0.10442959  0.29512935  1
  Zr  Zr31  1  0.49705540  0.10199758  0.48601208  1
  Zr  Zr32  1  0.50088059  0.29839195  0.10506102  1
  Zr  Zr33  1  0.10981497  0.89890138  0.49861374  1
  Zr  Zr34  1  0.30537815  0.50138297  0.90082546  1
  Zr  Zr35  1  0.69393679  0.30216690  0.50084236  1
  Zr  Zr36  1  0.08666591  0.69459369  0.90198031  1
  Zr  Zr37  1  0.89908737  0.69661061  0.50403762  1
  Zr  Zr38  1  0.10125798  0.50947468  0.69590361  1
  Zr  Zr39  1  0.50557287  0.29722335  0.29387310  1
  Zr  Zr40  1  0.09415366  0.90458069  0.89177053  1
  Zr  Zr41  1  0.49624355  0.69612274  0.49594555  1
  Zr  Zr42  1  0.10192216  0.49735307  0.29922770  1
  Zr  Zr43  1  0.70786121  0.70591719  0.50538780  1
  Zr  Zr44  1  0.91101601  0.70651520  0.09227543  1
  Zr  Zr45  1  0.49767666  0.89908536  0.70025819  1
  Zr  Zr46  1  0.09518715  0.29029414  0.69928866  1
  Zr  Zr47  1  0.90457555  0.10403085  0.50001444  1
  Zr  Zr48  1  0.10993969  0.69338417  0.29733931  1
  Zr  Zr49  1  0.10538614  0.90279633  0.69521869  1
  Sc  Sc50  1  0.90183498  0.29637737  0.11019628  1
  Sc  Sc51  1  0.91535160  0.90004975  0.30019346  1
  Sc  Sc52  1  0.29557672  0.30193702  0.30209561  1
  Sc  Sc53  1  0.10514875  0.50785659  0.90446389  1
  Sc  Sc54  1  0.70231334  0.49444949  0.69693142  1
  Sc  Sc55  1  0.69836379  0.30244663  0.88593791  1
  Sc  Sc56  1  0.49315003  0.69652959  0.29894511  1
  Sc  Sc57  1  0.49255697  0.50822001  0.30042086  1
  Sc  Sc58  1  0.70089737  0.10192141  0.11016991  1
  Sc  Sc59  1  0.09991953  0.10552748  0.10141489  1
  Sc  Sc60  1  0.90385763  0.49444165  0.50238526  1
  Sc  Sc61  1  0.90064501  0.49251144  0.69227601  1
  Sc  Sc62  1  0.90126374  0.50047375  0.11158951  1
  Sc  Sc63  1  0.49257163  0.91163258  0.29866694  1
  Sc  Sc64  1  0.29367282  0.30301761  0.90853865  1
  Sc  Sc65  1  0.91030419  0.91530146  0.71073842  1
  Sc  Sc66  1  0.70268106  0.30243649  0.29369326  1
  Sc  Sc67  1  0.29076841  0.10255858  0.69745114  1
  Sc  Sc68  1  0.09741479  0.29462268  0.49723399  1
  Sc  Sc69  1  0.10242396  0.49874511  0.49309639  1
  Sc  Sc70  1  0.69892310  0.09955898  0.70857357  1
  Sc  Sc71  1  0.90715953  0.89026978  0.49723309  1
  Sc  Sc72  1  0.90400545  0.30001087  0.50805019  1
  Sc  Sc73  1  0.29385280  0.09213737  0.90152047  1
  Sc  Sc74  1  0.48716295  0.50305855  0.49847910  1
  Sc  Sc75  1  0.10481371  0.90234389  0.29991030  1
  Sc  Sc76  1  0.49347301  0.29939922  0.50347492  1
  Sc  Sc77  1  0.10207221  0.28852071  0.90454272  1
  Sc  Sc78  1  0.29957098  0.90556023  0.89960252  1
  Sc  Sc79  1  0.30256130  0.50957704  0.69666834  1
  Sc  Sc80  1  0.10195348  0.29942965  0.30255860  1
  Sc  Sc81  1  0.48737270  0.89836896  0.89244618  1
  Sc  Sc82  1  0.50259182  0.31556344  0.89661939  1
  Sc  Sc83  1  0.90245916  0.30240287  0.29967710  1
  Sc  Sc84  1  0.09866279  0.89762410  0.10205589  1
  Sc  Sc85  1  0.10378517  0.10468212  0.49992208  1
  Sc  Sc86  1  0.49622144  0.70378740  0.70559582  1
  Sc  Sc87  1  0.29850356  0.29881618  0.10268911  1
  Sc  Sc88  1  0.50614717  0.09189390  0.70057745  1
  Sc  Sc89  1  0.49324327  0.50174382  0.70117427  1
  Sc  Sc90  1  0.71678724  0.90960052  0.90361237  1
  Sc  Sc91  1  0.49521846  0.08637838  0.89342189  1
  Sc  Sc92  1  0.90629141  0.49457938  0.29890969  1
  Sc  Sc93  1  0.29773430  0.89557081  0.09809577  1
  Sc  Sc94  1  0.90294725  0.69902103  0.29709161  1
  Sc  Sc95  1  0.10675533  0.29646969  0.09490236  1
  Sc  Sc96  1  0.30209571  0.69709036  0.49936929  1
  Sc  Sc97  1  0.29660917  0.10027353  0.10087368  1
  Sc  Sc98  1  0.68523955  0.09967358  0.50302483  1
  Sc  Sc99  1  0.89636008  0.28953110  0.88771763  1
  Nb  Nb100  1  0.30087123  0.10780355  0.49635167  1
  Nb  Nb101  1  0.89907978  0.10102565  0.10078737  1
  Nb  Nb102  1  0.29743821  0.29694574  0.50495812  1
  Nb  Nb103  1  0.30689983  0.90719117  0.49503165  1
  Nb  Nb104  1  0.69892207  0.50387020  0.49508090  1
  Nb  Nb105  1  0.89720967  0.11018885  0.70362700  1
  Nb  Nb106  1  0.70296647  0.10093958  0.90480101  1
  Nb  Nb107  1  0.10804958  0.69436608  0.69972687  1
  Nb  Nb108  1  0.51019695  0.51176719  0.90102439  1
  Nb  Nb109  1  0.69723918  0.10200444  0.30517779  1
  Nb  Nb110  1  0.90474059  0.50389443  0.90017965  1
  Nb  Nb111  1  0.70499135  0.49945974  0.09876187  1
  Nb  Nb112  1  0.88616420  0.08844942  0.89472745  1
  Nb  Nb113  1  0.90274225  0.29210671  0.69817345  1
  Nb  Nb114  1  0.90244959  0.69927872  0.90041321  1
  Nb  Nb115  1  0.90163526  0.89800029  0.90323475  1
  Nb  Nb116  1  0.29228800  0.69568806  0.70022979  1
  Nb  Nb117  1  0.70108397  0.89949770  0.50238016  1
  Nb  Nb118  1  0.29328413  0.70084787  0.10153824  1
  Nb  Nb119  1  0.50608659  0.10539428  0.29760592  1
  Nb  Nb120  1  0.29938475  0.49313221  0.50031148  1
  Nb  Nb121  1  0.09589984  0.10232163  0.90189728  1
  Nb  Nb122  1  0.69868548  0.50405925  0.90369211  1
  Nb  Nb123  1  0.10970974  0.69787843  0.09593223  1
  Nb  Nb124  1  0.50117470  0.90294206  0.50261571  1
  Nb  Nb125  1  0.79681877  0.59738042  0.40140753  1
  Nb  Nb126  1  0.80347039  0.59809601  0.80709520  1
  Nb  Nb127  1  0.79604697  0.19890784  -0.00052478  1
  Nb  Nb128  1  0.60181166  0.60078227  0.59486000  1
  Nb  Nb129  1  0.00270770  0.39873738  0.80157039  1
  Nb  Nb130  1  0.59861665  0.80564240  0.40639394  1
  Nb  Nb131  1  0.81007310  0.79541480  0.80364034  1
  Nb  Nb132  1  0.80035922  0.00089921  0.59492434  1
  Nb  Nb133  1  0.80066381  0.59579386  -0.00142651  1
  Nb  Nb134  1  0.79617256  0.19459678  0.39898896  1
  Nb  Nb135  1  -0.00851148  0.00697811  -0.00555706  1
  Nb  Nb136  1  0.20306362  0.39617378  0.60061517  1
  Nb  Nb137  1  0.40831398  0.19895165  -0.00371256  1
  Nb  Nb138  1  0.19590680  0.40136805  0.79471912  1
  Nb  Nb139  1  0.40087745  0.20245534  0.80344475  1
  Nb  Nb140  1  0.79722607  0.00135444  0.40158963  1
  Nb  Nb141  1  0.59989620  0.19491371  -0.00304292  1
  Nb  Nb142  1  0.60138065  0.00047028  0.00315152  1
  Nb  Nb143  1  -0.00819426  0.39962485  -0.00664394  1
  Nb  Nb144  1  0.39838971  -0.00074682  0.58856667  1
  Nb  Nb145  1  0.60209391  0.40812868  0.39952076  1
  Nb  Nb146  1  0.59909541  0.80342029  0.00350646  1
  Nb  Nb147  1  0.80410766  0.00464502  0.20843528  1
  Nb  Nb148  1  0.19580995  0.79141239  0.79573036  1
  Nb  Nb149  1  0.80119082  0.40337741  -0.00387932  1
  Pd  Pd150  1  0.20765734  0.20235390  0.80550157  1
  Pd  Pd151  1  0.01127697  0.79185700  0.39686709  1
  Pd  Pd152  1  0.00976439  0.20566681  0.19956749  1
  Pd  Pd153  1  0.59132953  0.79294208  0.59552571  1
  Pd  Pd154  1  -0.00405710  0.00122697  0.59412470  1
  Pd  Pd155  1  0.19743371  0.39435484  0.19924324  1
  Pd  Pd156  1  0.60266545  0.60902869  0.01457461  1
  Pd  Pd157  1  0.79413352  0.19253414  0.59390610  1
  Pd  Pd158  1  0.80807904  0.40467193  0.80152460  1
  Pd  Pd159  1  0.40601175  0.80129529  0.39474462  1
  Pd  Pd160  1  -0.01235486  0.19974338  -0.00576761  1
  Pd  Pd161  1  0.40668647  0.18825033  0.60808663  1
  Pd  Pd162  1  0.20104284  -0.00119364  0.19640996  1
  Pd  Pd163  1  0.80184464  0.39884154  0.59673551  1
  Pd  Pd164  1  0.19309881  0.80344708  -0.00854942  1
  Pd  Pd165  1  0.40424026  0.39404661  0.39810928  1
  Pd  Pd166  1  0.60076066  -0.00551632  0.39938171  1
  Pd  Pd167  1  0.60120301  0.41027272  0.79689736  1
  Pd  Pd168  1  -0.00245686  0.80432306  0.60935456  1
  Pd  Pd169  1  0.20723357  0.00723629  0.59301266  1
  Pd  Pd170  1  0.59155083  0.59882666  0.19397919  1
  Pd  Pd171  1  0.00998067  0.79863379  0.20123135  1
  Pd  Pd172  1  0.39918522  0.21072647  0.39346657  1
  Pd  Pd173  1  0.60836591  0.39331266  -0.00509270  1
  Pd  Pd174  1  0.59229427  0.41131999  0.59218840  1
  Pd  Pd175  1  0.18896599  0.00083139  0.00377880  1
  Pd  Pd176  1  0.40154442  0.39595972  -0.00195302  1
  Pd  Pd177  1  0.00266611  -0.00054594  0.40535374  1
  Pd  Pd178  1  0.81733958  0.81336058  0.61388125  1
  Pd  Pd179  1  -0.00513810  0.59988395  0.40130639  1
  Pd  Pd180  1  0.20001262  0.79126819  0.40348144  1
  Pd  Pd181  1  0.40016518  0.80410994  -0.00235574  1
  Pd  Pd182  1  0.20988836  0.79882499  0.59926593  1
  Pd  Pd183  1  0.80992366  0.80597263  0.21068941  1
  Pd  Pd184  1  0.79673792  0.39854079  0.39954871  1
  Pd  Pd185  1  0.59112866  0.19855547  0.80656319  1
  Pd  Pd186  1  0.79954102  0.80123032  0.39286693  1
  Pd  Pd187  1  0.40083199  0.60339533  0.79818967  1
  Pd  Pd188  1  0.00104331  0.60390365  0.19779722  1
  Pd  Pd189  1  0.00260382  0.39429199  0.40137861  1
  Pd  Pd190  1  0.60696475  -0.00850288  0.81090633  1
  Pd  Pd191  1  0.38631006  -0.00182388  0.20235695  1
  Pd  Pd192  1  0.39586831  0.79999185  0.60044016  1
  Pd  Pd193  1  0.79223449  0.79050364  -0.00729573  1
  Pd  Pd194  1  0.60894765  0.81299871  0.81235086  1
  Pd  Pd195  1  0.39401546  0.39864593  0.80121835  1
  Pd  Pd196  1  0.58697833  0.79781851  0.20456176  1
  Pd  Pd197  1  0.00111438  0.79753338  0.79145720  1
  Pd  Pd198  1  0.39776702  0.40357483  0.20364225  1
  Pd  Pd199  1  0.59463244  0.19426131  0.60350663  1
  Rh  Rh200  1  0.19984237  0.20020343  0.20321734  1
  Rh  Rh201  1  0.00665138  0.39460286  0.19287905  1
  Rh  Rh202  1  0.20201593  0.60277170  0.40547382  1
  Rh  Rh203  1  0.20011047  0.00546070  0.40502883  1
  Rh  Rh204  1  0.39353999  0.59273613  0.19449599  1
  Rh  Rh205  1  0.39957073  0.00364376  0.39946348  1
  Rh  Rh206  1  0.39326269  0.20075170  0.20071603  1
  Rh  Rh207  1  0.00175980  0.59282901  0.59357615  1
  Rh  Rh208  1  0.60422240  0.60156466  0.40684166  1
  Rh  Rh209  1  0.21001444  0.19405798  0.00064794  1
  Rh  Rh210  1  0.39402182  0.40299902  0.59924307  1
  Rh  Rh211  1  0.39908905  0.59706365  0.00262727  1
  Rh  Rh212  1  0.79673707  0.59005947  0.59843926  1
  Rh  Rh213  1  0.20608098  0.59232640  0.59012142  1
  Rh  Rh214  1  0.39080167  0.00991771  0.78560869  1
  Rh  Rh215  1  0.80705204  0.39930089  0.19640597  1
  Rh  Rh216  1  0.40107292  0.60324364  0.60107048  1
  Rh  Rh217  1  -0.00224393  0.00053589  0.19015369  1
  Rh  Rh218  1  0.59770594  0.00182585  0.59775754  1
  Rh  Rh219  1  -0.00226304  0.59249209  0.79575100  1
  Rh  Rh220  1  0.19532948  0.20197667  0.59645180  1
  Rh  Rh221  1  -0.00195236  0.01185806  0.80728554  1
  Rh  Rh222  1  0.20045270  0.39455494  0.40984754  1
  Rh  Rh223  1  0.20202287  0.60088111  0.00124656  1
  Rh  Rh224  1  0.00911563  0.39743099  0.60710348  1
  Rh  Rh225  1  0.59310243  0.41296361  0.20828933  1
  Rh  Rh226  1  0.00852830  0.80724998  0.00037536  1
  Rh  Rh227  1  0.20231499  0.20223653  0.40079284  1
  Rh  Rh228  1  0.18881354  0.39974978  -0.00645800  1
  Rh  Rh229  1  0.20265346  0.59680791  0.19545826  1
  Rh  Rh230  1  0.19917640  -0.00293590  0.80168411  1
  Rh  Rh231  1  0.79678612  0.19766291  0.80038670  1
  Rh  Rh232  1  0.79859348  0.19718787  0.20376500  1
  Rh  Rh233  1  0.79589093  -0.00543027  0.78768930  1
  Rh  Rh234  1  -0.00590239  0.20532853  0.39986660  1
  Rh  Rh235  1  0.38621130  0.79192741  0.79996437  1
  Rh  Rh236  1  0.19901411  0.79948266  0.19772388  1
  Rh  Rh237  1  0.60491812  0.00696888  0.19953913  1
  Rh  Rh238  1  0.60614361  0.19619422  0.19917155  1
  Rh  Rh239  1  0.80895406  0.60151488  0.20116642  1
  Rh  Rh240  1  -0.00548717  0.19534700  0.80517236  1
  Rh  Rh241  1  0.80043335  0.00896281  0.01286106  1
  Rh  Rh242  1  0.38826566  0.59776915  0.39978948  1
  Rh  Rh243  1  0.40500149  0.00556665  0.00482355  1
  Rh  Rh244  1  0.00262390  0.19487898  0.59976546  1
  Rh  Rh245  1  0.39355252  0.80631645  0.20366914  1
  Rh  Rh246  1  0.20175778  0.60083593  0.80625096  1
  Rh  Rh247  1  0.60434260  0.21293884  0.39432665  1
  Rh  Rh248  1  -0.00462108  0.59357054  0.01036880  1
  Rh  Rh249  1  0.60363699  0.59017318  0.78618989  1
