# generated using pymatgen
data_ZrScNbPdRh
_symmetry_space_group_name_H-M   'P 1'
_cell_length_a   16.55682121
_cell_length_b   16.55467658
_cell_length_c   16.55797513
_cell_angle_alpha   90.01184377
_cell_angle_beta   90.01646449
_cell_angle_gamma   90.03495012
_symmetry_Int_Tables_number   1
_chemical_formula_structural   ZrScNbPdRh
_chemical_formula_sum   'Zr50 Sc50 Nb50 Pd50 Rh50'
_cell_volume   4538.42097350
_cell_formula_units_Z   50
loop_
 _symmetry_equiv_pos_site_id
 _symmetry_equiv_pos_as_xyz
  1  'x, y, z'
loop_
 _atom_site_type_symbol
 _atom_site_label
 _atom_site_symmetry_multiplicity
 _atom_site_fract_x
 _atom_site_fract_y
 _atom_site_fract_z
 _atom_site_occupancy
  Zr  Zr0  1  0.89835983  0.50605936  0.70657094  1
  Zr  Zr1  1  0.69540757  0.69985327  0.49717352  1
  Zr  Zr2  1  0.69431427  0.70260412  0.30077077  1
  Zr  Zr3  1  0.90824279  0.10874282  0.69611124  1
  Zr  Zr4  1  0.10218613  0.50446826  0.69763655  1
  Zr  Zr5  1  0.70929573  0.49257188  0.90107641  1
  Zr  Zr6  1  0.50513075  0.50079839  0.90598379  1
  Zr  Zr7  1  0.49986742  0.10041171  0.30248079  1
  Zr  Zr8  1  0.29961418  0.69679160  0.30008616  1
  Zr  Zr9  1  0.30470104  0.10147290  0.50989904  1
  Zr  Zr10  1  0.29565977  0.10440811  0.89856162  1
  Zr  Zr11  1  0.70049501  0.89863025  0.09873122  1
  Zr  Zr12  1  0.49952673  0.50630310  0.10052164  1
  Zr  Zr13  1  0.70366383  0.09980649  0.49758123  1
  Zr  Zr14  1  0.30407691  0.89796235  0.70119909  1
  Zr  Zr15  1  0.29974626  0.49820127  0.69500085  1
  Zr  Zr16  1  0.89325690  0.30260614  0.89541962  1
  Zr  Zr17  1  0.29685029  0.30020655  0.90004533  1
  Zr  Zr18  1  0.90132897  0.09192390  0.30195493  1
  Zr  Zr19  1  0.70531965  0.09678706  0.09830051  1
  Zr  Zr20  1  0.10380511  0.49979734  0.09162264  1
  Zr  Zr21  1  0.69510239  0.89729486  0.70203088  1
  Zr  Zr22  1  0.49586664  0.50315430  0.49913899  1
  Zr  Zr23  1  0.89709209  0.70586575  0.49749791  1
  Zr  Zr24  1  0.90372460  0.49695161  0.09477855  1
  Zr  Zr25  1  0.49676917  0.29704709  0.49539985  1
  Zr  Zr26  1  0.90522544  0.29855209  0.70186196  1
  Zr  Zr27  1  0.69929323  0.09555069  0.90084439  1
  Zr  Zr28  1  0.29942112  0.30109037  0.29691534  1
  Zr  Zr29  1  0.90302069  0.29889898  0.50485467  1
  Zr  Zr30  1  0.91262458  0.10138219  0.89437363  1
  Zr  Zr31  1  0.90439600  0.70442808  0.30141887  1
  Zr  Zr32  1  0.69503761  0.30020924  0.30981012  1
  Zr  Zr33  1  0.29743492  0.49903839  0.10588791  1
  Zr  Zr34  1  0.49942260  0.70513553  0.70158833  1
  Zr  Zr35  1  0.49706531  0.29976425  0.10088753  1
  Zr  Zr36  1  0.29197647  0.29911730  0.49641008  1
  Zr  Zr37  1  0.89763630  0.90300648  0.48978708  1
  Zr  Zr38  1  0.69062146  0.70311459  0.10383603  1
  Zr  Zr39  1  0.30386186  0.89100987  0.50118019  1
  Zr  Zr40  1  0.70060960  0.10521315  0.30091043  1
  Zr  Zr41  1  0.10779409  0.89390689  0.50303180  1
  Zr  Zr42  1  0.69660586  0.30025374  0.08844638  1
  Zr  Zr43  1  0.49647084  0.29846205  0.29997265  1
  Zr  Zr44  1  0.90059696  0.49898972  0.29843332  1
  Zr  Zr45  1  0.30656579  0.70705396  0.70431457  1
  Zr  Zr46  1  0.49445400  0.09589430  0.89910456  1
  Zr  Zr47  1  0.50243569  0.90210351  0.30432844  1
  Zr  Zr48  1  0.10575254  0.29586457  0.30312841  1
  Zr  Zr49  1  0.49869290  0.90165139  0.70031396  1
  Sc  Sc50  1  0.30014664  0.90333265  0.29936695  1
  Sc  Sc51  1  0.90295789  0.09823445  0.10993106  1
  Sc  Sc52  1  0.69434913  0.89451417  0.31056007  1
  Sc  Sc53  1  0.89812649  0.89880823  0.69745691  1
  Sc  Sc54  1  0.49933203  0.29459011  0.90511620  1
  Sc  Sc55  1  0.29321088  0.90751688  0.09907062  1
  Sc  Sc56  1  0.69979951  0.69906077  0.69930197  1
  Sc  Sc57  1  0.49483200  0.09021714  0.69670883  1
  Sc  Sc58  1  0.50124824  0.90385193  0.49967417  1
  Sc  Sc59  1  0.71826932  0.29480278  0.70961752  1
  Sc  Sc60  1  0.30249743  0.09746263  0.29547152  1
  Sc  Sc61  1  0.09890122  0.09368960  0.28982775  1
  Sc  Sc62  1  0.89098255  0.69862128  0.70678582  1
  Sc  Sc63  1  0.90080816  0.90281415  0.09333774  1
  Sc  Sc64  1  0.10001322  0.29052953  0.91363907  1
  Sc  Sc65  1  0.49090702  0.50360027  0.29810040  1
  Sc  Sc66  1  0.29715191  0.50894057  0.91060104  1
  Sc  Sc67  1  0.09649335  0.10192883  0.09738628  1
  Sc  Sc68  1  0.89689631  0.49765521  0.49388832  1
  Sc  Sc69  1  0.50469117  0.69581873  0.29927863  1
  Sc  Sc70  1  0.70390973  0.09302692  0.69610591  1
  Sc  Sc71  1  0.69364628  0.50451900  0.08750905  1
  Sc  Sc72  1  0.10443545  0.49159119  0.29337510  1
  Sc  Sc73  1  0.29985299  0.29226184  0.69577731  1
  Sc  Sc74  1  0.50014760  0.09313912  0.50135306  1
  Sc  Sc75  1  0.30052026  0.90532188  0.90022731  1
  Sc  Sc76  1  0.09856180  0.89616643  0.29589844  1
  Sc  Sc77  1  0.10159478  0.09683510  0.51577740  1
  Sc  Sc78  1  0.29899907  0.09597178  0.09906041  1
  Sc  Sc79  1  0.50283443  0.89911805  0.09367622  1
  Sc  Sc80  1  0.10232155  0.70138465  0.10205977  1
  Sc  Sc81  1  0.70151131  0.89799607  0.90657157  1
  Sc  Sc82  1  0.09939605  0.90339055  0.09953166  1
  Sc  Sc83  1  0.29163806  0.68814651  0.09948167  1
  Sc  Sc84  1  0.70810465  0.70233521  0.89767592  1
  Sc  Sc85  1  0.69880543  0.49791657  0.31526919  1
  Sc  Sc86  1  0.29108462  0.29817261  0.10213687  1
  Sc  Sc87  1  0.49453443  0.10455410  0.09708430  1
  Sc  Sc88  1  0.30065107  0.49924775  0.29509503  1
  Sc  Sc89  1  0.49662468  0.69238437  0.89713311  1
  Sc  Sc90  1  0.09758953  0.29400068  0.68700943  1
  Sc  Sc91  1  0.48648381  0.30467775  0.70134593  1
  Sc  Sc92  1  0.91168092  0.69926329  0.09140303  1
  Sc  Sc93  1  0.11248464  0.69866983  0.70956363  1
  Sc  Sc94  1  0.09644043  0.29782238  0.10148037  1
  Sc  Sc95  1  0.50690480  0.69177168  0.10178376  1
  Sc  Sc96  1  0.49603613  0.50882209  0.70234514  1
  Sc  Sc97  1  0.90154342  0.51404985  0.90262164  1
  Sc  Sc98  1  0.90212030  0.29742409  0.29758196  1
  Sc  Sc99  1  0.49702017  0.90660213  0.89200573  1
  Nb  Nb100  1  0.90180408  0.10002519  0.49670010  1
  Nb  Nb101  1  0.29866258  0.70478997  0.49936622  1
  Nb  Nb102  1  0.90113733  0.89727672  0.89935386  1
  Nb  Nb103  1  0.10063569  0.69771575  0.90320365  1
  Nb  Nb104  1  0.29682639  0.70593271  0.90330876  1
  Nb  Nb105  1  0.69729034  0.49361237  0.50229765  1
  Nb  Nb106  1  0.09857579  0.90232998  0.69930207  1
  Nb  Nb107  1  0.09615511  0.09940420  0.89390530  1
  Nb  Nb108  1  0.09966045  0.30532857  0.49371566  1
  Nb  Nb109  1  0.10033659  0.50381349  0.89640205  1
  Nb  Nb110  1  0.09634778  0.09808797  0.70521953  1
  Nb  Nb111  1  0.29239157  0.10212417  0.69831859  1
  Nb  Nb112  1  0.29406186  0.50398730  0.49877017  1
  Nb  Nb113  1  0.49004548  0.69934334  0.49804348  1
  Nb  Nb114  1  0.69530225  0.30704155  0.49577150  1
  Nb  Nb115  1  0.69531561  0.90138168  0.50394380  1
  Nb  Nb116  1  0.70086409  0.29866529  0.89892141  1
  Nb  Nb117  1  0.10536371  0.49728859  0.50073982  1
  Nb  Nb118  1  0.90176277  0.89719605  0.29839071  1
  Nb  Nb119  1  0.10443206  0.69877246  0.30216723  1
  Nb  Nb120  1  0.90194950  0.29640643  0.09616389  1
  Nb  Nb121  1  0.10649618  0.70403613  0.49918017  1
  Nb  Nb122  1  0.70311416  0.50049808  0.69985689  1
  Nb  Nb123  1  0.91008963  0.70746971  0.89602194  1
  Nb  Nb124  1  0.09168149  0.90449517  0.89919129  1
  Nb  Nb125  1  0.60254964  0.00235123  0.20147924  1
  Nb  Nb126  1  0.60640611  0.39621509  0.79595360  1
  Nb  Nb127  1  0.79567872  0.40098914  0.19495243  1
  Nb  Nb128  1  0.00234751  0.19569918  0.40670722  1
  Nb  Nb129  1  0.19816016  0.60169408  0.40677039  1
  Nb  Nb130  1  0.80228310  0.20010023  -0.00251607  1
  Nb  Nb131  1  0.60301640  0.39853396  0.20058850  1
  Nb  Nb132  1  0.39431473  0.79427373  0.00160941  1
  Nb  Nb133  1  0.80005089  0.60003943  0.19955444  1
  Nb  Nb134  1  0.60609556  0.39904844  0.60484616  1
  Nb  Nb135  1  0.80810613  -0.00347264  0.80359383  1
  Nb  Nb136  1  0.00604758  0.79577524  0.60286610  1
  Nb  Nb137  1  0.20124434  -0.00244415  0.40641445  1
  Nb  Nb138  1  0.80346650  0.79737883  0.20378404  1
  Nb  Nb139  1  0.01214761  0.60243519  0.40342338  1
  Nb  Nb140  1  0.00627176  0.60592488  0.59229890  1
  Nb  Nb141  1  0.40070737  0.79827962  0.19387736  1
  Nb  Nb142  1  0.79330527  0.40242134  0.59886667  1
  Nb  Nb143  1  0.60148326  0.20193623  0.79664741  1
  Nb  Nb144  1  0.19444513  0.40190292  0.80243323  1
  Nb  Nb145  1  0.19000067  0.00396231  0.79634489  1
  Nb  Nb146  1  0.39796336  0.40242378  0.00345227  1
  Nb  Nb147  1  0.60349862  0.20939622  0.60295220  1
  Nb  Nb148  1  0.00836606  0.40422956  0.80287234  1
  Nb  Nb149  1  0.00491762  0.80268755  0.80205085  1
  Pd  Pd150  1  0.80843499  0.20593772  0.40144333  1
  Pd  Pd151  1  0.00671076  0.80026730  0.40288588  1
  Pd  Pd152  1  0.80490243  -0.00167146  0.60353081  1
  Pd  Pd153  1  0.59816349  0.59767591  0.60039791  1
  Pd  Pd154  1  0.40497884  0.79781155  0.39174577  1
  Pd  Pd155  1  -0.00278206  0.80450332  0.19298105  1
  Pd  Pd156  1  -0.00143688  0.39303787  0.19851131  1
  Pd  Pd157  1  -0.00227387  0.00356141  0.00604140  1
  Pd  Pd158  1  0.80102676  0.61089350  0.00385795  1
  Pd  Pd159  1  0.59914559  0.80024933  0.80869409  1
  Pd  Pd160  1  0.20004685  0.19335934  0.19459255  1
  Pd  Pd161  1  0.60805235  0.59562220  0.80273725  1
  Pd  Pd162  1  0.20628810  0.80195056  0.19841428  1
  Pd  Pd163  1  -0.00608596  0.41097769  0.60320292  1
  Pd  Pd164  1  0.59249006  0.00235609  0.00508853  1
  Pd  Pd165  1  0.39387594  0.40471686  0.39981509  1
  Pd  Pd166  1  0.40709290  -0.00611389  0.19341335  1
  Pd  Pd167  1  0.39320928  0.59660903  0.80513828  1
  Pd  Pd168  1  0.00139091  0.39930008  0.39728211  1
  Pd  Pd169  1  0.20438369  -0.00277190  0.60360283  1
  Pd  Pd170  1  0.80303165  0.60037180  0.39774975  1
  Pd  Pd171  1  0.20976144  0.59695404  0.80431411  1
  Pd  Pd172  1  0.80186263  0.80182047  0.60004717  1
  Pd  Pd173  1  0.59447319  0.79859902  0.59471907  1
  Pd  Pd174  1  0.58798741  0.79562762  -0.01011757  1
  Pd  Pd175  1  0.20082308  0.80356553  0.00101424  1
  Pd  Pd176  1  0.20220185  0.39285617  0.60402398  1
  Pd  Pd177  1  0.59903145  0.19890059  0.19662143  1
  Pd  Pd178  1  0.39625310  0.40612373  0.81061215  1
  Pd  Pd179  1  0.79313764  -0.00525510  0.39583571  1
  Pd  Pd180  1  0.19577853  0.81044862  0.80587661  1
  Pd  Pd181  1  0.19132519  0.18481934  0.40387777  1
  Pd  Pd182  1  0.01260724  0.00464596  0.40156530  1
  Pd  Pd183  1  0.19142457  0.20481284  0.79662715  1
  Pd  Pd184  1  0.79509387  -0.01249295  0.20837661  1
  Pd  Pd185  1  -0.00624523  -0.00610226  0.59930883  1
  Pd  Pd186  1  0.39653771  0.19306566  0.39954964  1
  Pd  Pd187  1  0.79459090  0.20444838  0.59499266  1
  Pd  Pd188  1  0.40024689  0.39966898  0.59555678  1
  Pd  Pd189  1  0.80459297  0.79451896  0.00691866  1
  Pd  Pd190  1  0.20212255  0.60938100  0.59795800  1
  Pd  Pd191  1  0.39628577  0.60543069  0.59908689  1
  Pd  Pd192  1  0.80210198  0.20854561  0.19491267  1
  Pd  Pd193  1  0.40584140  0.19381220  0.79322458  1
  Pd  Pd194  1  -0.00094539  0.39913727  -0.00959449  1
  Pd  Pd195  1  0.00258693  0.59903124  0.20318443  1
  Pd  Pd196  1  0.39077648  0.20429765  0.00541697  1
  Pd  Pd197  1  0.59518342  0.59745076  0.39975555  1
  Pd  Pd198  1  0.80379172  0.59696769  0.59574839  1
  Pd  Pd199  1  0.19538453  0.00408068  -0.00712523  1
  Rh  Rh200  1  0.39009206  0.00161932  0.40544354  1
  Rh  Rh201  1  0.40566266  0.19763326  0.60392889  1
  Rh  Rh202  1  0.20244203  0.80112960  0.39184969  1
  Rh  Rh203  1  0.60710760  0.60751700  -0.01081289  1
  Rh  Rh204  1  0.60356608  0.00467599  0.59803213  1
  Rh  Rh205  1  0.59656137  0.19314973  0.41059579  1
  Rh  Rh206  1  0.39132051  0.60140138  0.40322094  1
  Rh  Rh207  1  0.59638780  0.81254507  0.19935282  1
  Rh  Rh208  1  0.39980347  -0.00661817  -0.00104317  1
  Rh  Rh209  1  0.19471658  0.20304101  0.59713511  1
  Rh  Rh210  1  0.00807785  0.80018465  -0.00576157  1
  Rh  Rh211  1  0.79631606  0.18451186  0.80672769  1
  Rh  Rh212  1  0.19265541  0.59639751  0.20630421  1
  Rh  Rh213  1  0.80399643  0.40664762  0.79667537  1
  Rh  Rh214  1  0.40055309  0.60911828  0.19955006  1
  Rh  Rh215  1  0.40425325  0.39854418  0.19364934  1
  Rh  Rh216  1  0.79368748  0.80486818  0.39894957  1
  Rh  Rh217  1  0.01065012  0.21390945  0.80065352  1
  Rh  Rh218  1  0.38569303  0.00648363  0.79705210  1
  Rh  Rh219  1  -0.00102154  -0.00624297  0.19735856  1
  Rh  Rh220  1  0.40708604  0.79836700  0.59720381  1
  Rh  Rh221  1  0.39251176  0.20028057  0.19980406  1
  Rh  Rh222  1  0.19958047  0.79504614  0.61013651  1
  Rh  Rh223  1  0.00200063  0.60633995  0.79751537  1
  Rh  Rh224  1  0.39724473  -0.00263916  0.60231174  1
  Rh  Rh225  1  0.19718388  0.19312264  0.00366650  1
  Rh  Rh226  1  0.20380481  0.40084440  -0.00459256  1
  Rh  Rh227  1  0.60452832  0.00359545  0.39803982  1
  Rh  Rh228  1  0.60946941  0.58471469  0.20869311  1
  Rh  Rh229  1  0.59322371  0.79680275  0.41167545  1
  Rh  Rh230  1  0.80497125  0.39459677  0.40100880  1
  Rh  Rh231  1  -0.00649647  0.19694978  0.00191781  1
  Rh  Rh232  1  0.58750225  0.40627130  0.39837340  1
  Rh  Rh233  1  0.80765194  0.39466288  0.00494844  1
  Rh  Rh234  1  0.60371125  0.19447575  -0.00859520  1
  Rh  Rh235  1  0.19641581  0.39624733  0.19878639  1
  Rh  Rh236  1  0.61034919  0.00281321  0.79611160  1
  Rh  Rh237  1  0.40314634  0.79885204  0.81179916  1
  Rh  Rh238  1  -0.00014040  0.20143569  0.20727660  1
  Rh  Rh239  1  0.58959823  0.39603876  -0.00234785  1
  Rh  Rh240  1  -0.00160662  -0.00805851  0.79479129  1
  Rh  Rh241  1  0.80502851  0.80557908  0.80017244  1
  Rh  Rh242  1  0.39756775  0.60311827  0.00212188  1
  Rh  Rh243  1  0.19791982  -0.00057426  0.20513953  1
  Rh  Rh244  1  0.19394537  0.60298272  -0.00125672  1
  Rh  Rh245  1  0.81248033  0.00880919  -0.01057669  1
  Rh  Rh246  1  0.20543821  0.40780906  0.39845522  1
  Rh  Rh247  1  0.00545997  0.19775208  0.59159474  1
  Rh  Rh248  1  0.00674229  0.60287480  -0.00246622  1
  Rh  Rh249  1  0.79721092  0.60477885  0.80566089  1
