# generated using pymatgen
data_ZrScNbPdRh
_symmetry_space_group_name_H-M   'P 1'
_cell_length_a   16.55514197
_cell_length_b   16.55623206
_cell_length_c   16.55330521
_cell_angle_alpha   89.98403402
_cell_angle_beta   90.00470489
_cell_angle_gamma   90.00944808
_symmetry_Int_Tables_number   1
_chemical_formula_structural   ZrScNbPdRh
_chemical_formula_sum   'Zr50 Sc50 Nb50 Pd50 Rh50'
_cell_volume   4537.10795670
_cell_formula_units_Z   50
loop_
 _symmetry_equiv_pos_site_id
 _symmetry_equiv_pos_as_xyz
  1  'x, y, z'
loop_
 _atom_site_type_symbol
 _atom_site_label
 _atom_site_symmetry_multiplicity
 _atom_site_fract_x
 _atom_site_fract_y
 _atom_site_fract_z
 _atom_site_occupancy
  Zr  Zr0  1  0.30270691  0.10892953  0.29382697  1
  Zr  Zr1  1  0.50577525  0.10698787  0.50159907  1
  Zr  Zr2  1  0.50535849  0.69918062  0.70652096  1
  Zr  Zr3  1  0.30129211  0.90207538  0.89220032  1
  Zr  Zr4  1  0.70193892  0.89922966  0.10056430  1
  Zr  Zr5  1  0.10290983  0.09806918  0.50135456  1
  Zr  Zr6  1  0.50678684  0.50304966  0.49560202  1
  Zr  Zr7  1  0.10587879  0.29645738  0.30051689  1
  Zr  Zr8  1  0.09943120  0.69924605  0.69972806  1
  Zr  Zr9  1  0.89288372  0.29436121  0.89367061  1
  Zr  Zr10  1  0.89255924  0.49879033  0.71112586  1
  Zr  Zr11  1  0.30700340  0.89603864  0.70469721  1
  Zr  Zr12  1  0.90026464  0.50646911  0.30113184  1
  Zr  Zr13  1  0.30102879  0.29643802  0.90372698  1
  Zr  Zr14  1  0.08334751  0.89468578  0.10041353  1
  Zr  Zr15  1  0.50169800  0.50337162  0.69685931  1
  Zr  Zr16  1  0.11139354  0.49481390  0.29641538  1
  Zr  Zr17  1  0.70325882  0.30375775  0.71277584  1
  Zr  Zr18  1  0.31430172  0.70163021  0.90093609  1
  Zr  Zr19  1  0.89124011  0.09912873  0.09939528  1
  Zr  Zr20  1  0.89572572  0.10370525  0.90185104  1
  Zr  Zr21  1  0.90414868  0.29398984  0.49620865  1
  Zr  Zr22  1  0.70357908  0.09586957  0.49240728  1
  Zr  Zr23  1  0.09299449  0.09591705  0.89386797  1
  Zr  Zr24  1  0.10288914  0.29910013  0.09746303  1
  Zr  Zr25  1  0.30065981  0.70321729  0.49667542  1
  Zr  Zr26  1  0.69670644  0.09626538  0.90229090  1
  Zr  Zr27  1  0.69959901  0.70084503  0.71132123  1
  Zr  Zr28  1  0.90243709  0.90238510  0.69090632  1
  Zr  Zr29  1  0.88681312  0.69504553  0.90084563  1
  Zr  Zr30  1  0.90275731  0.89639280  0.28872238  1
  Zr  Zr31  1  0.30283860  0.69922569  0.09857485  1
  Zr  Zr32  1  0.70147918  0.89913488  0.30206594  1
  Zr  Zr33  1  0.30373469  0.90242755  0.09661585  1
  Zr  Zr34  1  0.30548722  0.09745773  0.90231494  1
  Zr  Zr35  1  0.11134325  0.09367168  0.29661894  1
  Zr  Zr36  1  0.70029945  0.90038023  0.49878555  1
  Zr  Zr37  1  0.89917228  0.29405890  0.09561587  1
  Zr  Zr38  1  0.10831159  0.49160121  0.49657681  1
  Zr  Zr39  1  0.90236866  0.50057593  0.49576895  1
  Zr  Zr40  1  0.89653748  0.29229461  0.29803538  1
  Zr  Zr41  1  0.11284332  0.49648664  0.70829166  1
  Zr  Zr42  1  0.69687379  0.50084570  0.10125227  1
  Zr  Zr43  1  0.89878758  0.89932055  0.49570270  1
  Zr  Zr44  1  0.69327647  0.29468056  0.49382303  1
  Zr  Zr45  1  0.90552977  0.10728677  0.70924137  1
  Zr  Zr46  1  0.89654198  0.70259245  0.70195561  1
  Zr  Zr47  1  0.09697975  0.90366100  0.29458679  1
  Zr  Zr48  1  0.50828603  0.29402135  0.69947677  1
  Zr  Zr49  1  0.29738369  0.49644988  0.68779735  1
  Sc  Sc50  1  0.29821366  0.90435843  0.29851941  1
  Sc  Sc51  1  0.90205946  0.91222791  0.91084407  1
  Sc  Sc52  1  0.50112701  0.09751024  0.90100056  1
  Sc  Sc53  1  0.30911243  0.10063387  0.69941879  1
  Sc  Sc54  1  0.09132990  0.89973230  0.49586935  1
  Sc  Sc55  1  0.29619824  0.48962545  0.10651465  1
  Sc  Sc56  1  0.89709935  0.70647410  0.09533148  1
  Sc  Sc57  1  0.09168920  0.10112920  0.69674591  1
  Sc  Sc58  1  0.50541765  0.70582148  0.30023489  1
  Sc  Sc59  1  0.49918771  0.90448519  0.90013495  1
  Sc  Sc60  1  0.10307230  0.29840370  0.90929901  1
  Sc  Sc61  1  0.69433010  0.50252656  0.71099480  1
  Sc  Sc62  1  0.70030585  0.10390907  0.29726964  1
  Sc  Sc63  1  0.89647268  0.50302880  0.91177422  1
  Sc  Sc64  1  0.10326649  0.10533686  0.10242719  1
  Sc  Sc65  1  0.10382343  0.28966976  0.50337658  1
  Sc  Sc66  1  0.69379347  0.90264983  0.90545036  1
  Sc  Sc67  1  0.50222846  0.09900531  0.70250681  1
  Sc  Sc68  1  0.50042786  0.49935379  0.90074478  1
  Sc  Sc69  1  0.10073162  0.70231580  0.30345318  1
  Sc  Sc70  1  0.31025285  0.89330900  0.50268791  1
  Sc  Sc71  1  0.30679020  0.11100910  0.50235647  1
  Sc  Sc72  1  0.10231570  0.90131481  0.70341667  1
  Sc  Sc73  1  0.49830385  0.29361919  0.49336831  1
  Sc  Sc74  1  0.50074910  0.89985490  0.69804051  1
  Sc  Sc75  1  0.30361084  0.10009550  0.10273257  1
  Sc  Sc76  1  0.29397367  0.30053588  0.69071175  1
  Sc  Sc77  1  0.69966460  0.89917885  0.70029243  1
  Sc  Sc78  1  0.90312264  0.09295529  0.50302951  1
  Sc  Sc79  1  0.50337231  0.29804839  0.90439805  1
  Sc  Sc80  1  0.50235947  0.30408885  0.09969676  1
  Sc  Sc81  1  0.29590063  0.49810886  0.89450990  1
  Sc  Sc82  1  0.50814112  0.90131726  0.30126396  1
  Sc  Sc83  1  0.89358035  0.09966416  0.29898814  1
  Sc  Sc84  1  0.69301035  0.09978209  0.70428426  1
  Sc  Sc85  1  0.30289753  0.70213653  0.69821007  1
  Sc  Sc86  1  0.50728629  0.89715622  0.50119972  1
  Sc  Sc87  1  0.68897409  0.29691678  0.10109605  1
  Sc  Sc88  1  0.90707020  0.70325246  0.49605000  1
  Sc  Sc89  1  0.50629731  0.29855811  0.29371984  1
  Sc  Sc90  1  0.68720158  0.50946417  0.29800517  1
  Sc  Sc91  1  0.49386469  0.70976027  0.09646946  1
  Sc  Sc92  1  0.69084631  0.30168333  0.90230619  1
  Sc  Sc93  1  0.50302391  0.90844971  0.09946649  1
  Sc  Sc94  1  0.50452723  0.70432101  0.50837456  1
  Sc  Sc95  1  0.09859604  0.70975008  0.49989453  1
  Sc  Sc96  1  0.08667708  0.69413809  0.90166751  1
  Sc  Sc97  1  0.70047413  0.49656432  0.90150505  1
  Sc  Sc98  1  0.30089554  0.29396494  0.09790142  1
  Sc  Sc99  1  0.30113062  0.29799429  0.50281560  1
  Nb  Nb100  1  0.90155010  0.90077865  0.10523266  1
  Nb  Nb101  1  0.69705044  0.50145365  0.49892384  1
  Nb  Nb102  1  0.50618922  0.10456450  0.10909960  1
  Nb  Nb103  1  0.29782441  0.69542052  0.29806008  1
  Nb  Nb104  1  0.09744971  0.89932295  0.90022935  1
  Nb  Nb105  1  0.09690631  0.69974474  0.09690757  1
  Nb  Nb106  1  0.49394128  0.10418198  0.29720097  1
  Nb  Nb107  1  0.70559930  0.30250720  0.29886288  1
  Nb  Nb108  1  0.49929328  0.49973423  0.29634777  1
  Nb  Nb109  1  0.69806406  0.69405569  0.50294296  1
  Nb  Nb110  1  0.90146913  0.29956575  0.70222338  1
  Nb  Nb111  1  0.69016010  0.09967347  0.09655180  1
  Nb  Nb112  1  0.70021786  0.70459870  0.09395796  1
  Nb  Nb113  1  0.70850670  0.70251114  0.29167669  1
  Nb  Nb114  1  0.69303119  0.70195343  0.90768115  1
  Nb  Nb115  1  0.09238896  0.50115900  0.09380692  1
  Nb  Nb116  1  0.09845410  0.29686653  0.70182607  1
  Nb  Nb117  1  0.30300437  0.49689311  0.49664453  1
  Nb  Nb118  1  0.89833798  0.69858997  0.29769261  1
  Nb  Nb119  1  0.09938925  0.49875549  0.90263646  1
  Nb  Nb120  1  0.89995281  0.49892250  0.09969106  1
  Nb  Nb121  1  0.29933956  0.30674321  0.29520169  1
  Nb  Nb122  1  0.29511672  0.49866422  0.30309427  1
  Nb  Nb123  1  0.50550139  0.49820961  0.10883584  1
  Nb  Nb124  1  0.50560845  0.69759729  0.90075468  1
  Nb  Nb125  1  0.79290579  0.40266227  0.39815014  1
  Nb  Nb126  1  0.79832057  0.39985833  0.59598687  1
  Nb  Nb127  1  -0.00169270  0.39869038  0.60885030  1
  Nb  Nb128  1  0.00160278  0.59805703  0.19444055  1
  Nb  Nb129  1  0.00550853  0.39940425  0.80150685  1
  Nb  Nb130  1  0.39688529  0.40705306  0.39262626  1
  Nb  Nb131  1  0.59813150  0.60545988  0.00373641  1
  Nb  Nb132  1  0.19382226  0.60010435  0.00217943  1
  Nb  Nb133  1  0.19397614  0.79868047  -0.00146298  1
  Nb  Nb134  1  0.79766352  0.79179346  0.39391134  1
  Nb  Nb135  1  0.20384613  -0.00032627  0.59944851  1
  Nb  Nb136  1  0.79860275  0.59617165  0.59705986  1
  Nb  Nb137  1  0.19820154  0.20066103  0.79991141  1
  Nb  Nb138  1  0.39552855  0.59638125  0.39439387  1
  Nb  Nb139  1  0.39854392  0.59368420  0.20783740  1
  Nb  Nb140  1  -0.00128322  0.59156967  0.60357162  1
  Nb  Nb141  1  0.19583542  -0.00847654  -0.00400118  1
  Nb  Nb142  1  -0.00442420  0.80330490  0.80435427  1
  Nb  Nb143  1  0.80037241  0.20572104  0.60358800  1
  Nb  Nb144  1  -0.00301889  0.40422158  0.19552518  1
  Nb  Nb145  1  0.80209710  0.40157153  0.20218193  1
  Nb  Nb146  1  0.39836784  0.39796609  0.79343252  1
  Nb  Nb147  1  0.40668800  0.00948384  0.39763233  1
  Nb  Nb148  1  0.19962962  0.79592179  0.19264620  1
  Nb  Nb149  1  0.60669789  0.40137527  0.59581684  1
  Pd  Pd150  1  0.19255057  0.78983720  0.80913035  1
  Pd  Pd151  1  0.19753416  0.81012413  0.59818447  1
  Pd  Pd152  1  0.59750665  0.80918994  0.80396201  1
  Pd  Pd153  1  0.60125125  -0.00098574  0.60185731  1
  Pd  Pd154  1  0.79811652  0.01108017  0.60632966  1
  Pd  Pd155  1  0.39977172  0.00198312  0.59249748  1
  Pd  Pd156  1  0.40179261  0.40552847  -0.00408744  1
  Pd  Pd157  1  0.40927606  0.19520966  0.00793675  1
  Pd  Pd158  1  0.79368540  0.60263403  0.40309985  1
  Pd  Pd159  1  0.39736421  0.59185332  0.79789823  1
  Pd  Pd160  1  0.19848464  0.60301520  0.19309330  1
  Pd  Pd161  1  0.60332226  0.00230324  0.20509308  1
  Pd  Pd162  1  0.59586088  0.61004354  0.39547327  1
  Pd  Pd163  1  0.00241359  0.00904315  0.00726980  1
  Pd  Pd164  1  0.19871701  0.60438448  0.40621426  1
  Pd  Pd165  1  0.40269091  0.58673754  0.01051307  1
  Pd  Pd166  1  0.40502277  0.80890979  -0.00494728  1
  Pd  Pd167  1  0.00061323  0.39516691  0.39610442  1
  Pd  Pd168  1  -0.00216714  0.59733994  0.79981952  1
  Pd  Pd169  1  0.78634712  0.20309621  0.00229765  1
  Pd  Pd170  1  0.80330666  0.81000612  -0.00326481  1
  Pd  Pd171  1  0.01227688  0.60433148  0.39977605  1
  Pd  Pd172  1  0.80381609  0.81382642  0.81163541  1
  Pd  Pd173  1  0.59903546  0.79867768  0.19461040  1
  Pd  Pd174  1  0.20710928  0.20250085  0.40105319  1
  Pd  Pd175  1  0.60698403  0.79218310  0.40207656  1
  Pd  Pd176  1  0.40328825  0.80233418  0.39388480  1
  Pd  Pd177  1  0.40002735  0.60636327  0.59341523  1
  Pd  Pd178  1  -0.00561697  0.00561486  0.39365450  1
  Pd  Pd179  1  0.21588752  -0.00368213  0.41183119  1
  Pd  Pd180  1  0.79393942  0.00385711  0.19934921  1
  Pd  Pd181  1  0.00251175  0.18789291  0.39592200  1
  Pd  Pd182  1  0.20550526  0.60936095  0.81011906  1
  Pd  Pd183  1  0.79612678  0.79191536  0.59164150  1
  Pd  Pd184  1  -0.00314595  0.39566524  -0.00429918  1
  Pd  Pd185  1  0.19509771  0.60401041  0.59073857  1
  Pd  Pd186  1  0.39704098  0.80013319  0.20918037  1
  Pd  Pd187  1  0.40051114  0.39853314  0.20214143  1
  Pd  Pd188  1  0.79378426  0.39372425  0.00415723  1
  Pd  Pd189  1  0.20024666  0.80812524  0.39350601  1
  Pd  Pd190  1  0.41035888  0.39230993  0.59559988  1
  Pd  Pd191  1  0.39621603  0.20703516  0.79496065  1
  Pd  Pd192  1  0.79954266  -0.00376007  0.79921824  1
  Pd  Pd193  1  0.59178927  0.61422379  0.19274402  1
  Pd  Pd194  1  0.59948928  0.19643278  0.38743651  1
  Pd  Pd195  1  0.80466682  0.60093612  0.19097598  1
  Pd  Pd196  1  0.20001303  0.00893599  0.79408605  1
  Pd  Pd197  1  0.40327977  -0.00270647  0.20503817  1
  Pd  Pd198  1  0.00219631  0.19698561  0.20155268  1
  Pd  Pd199  1  0.20391648  0.40629803  0.00083181  1
  Rh  Rh200  1  0.19907242  0.18516998  -0.00721371  1
  Rh  Rh201  1  0.59526027  0.79835794  0.00224503  1
  Rh  Rh202  1  0.59526839  0.19447788  0.00104901  1
  Rh  Rh203  1  0.59714744  0.00226831  0.00362558  1
  Rh  Rh204  1  0.00344902  0.79697352  0.60870432  1
  Rh  Rh205  1  0.20197897  0.38787153  0.80500689  1
  Rh  Rh206  1  0.80367783  -0.00792471  0.39432747  1
  Rh  Rh207  1  0.60195659  0.20024389  0.20130579  1
  Rh  Rh208  1  -0.00695273  0.79607478  -0.00861810  1
  Rh  Rh209  1  -0.00633184  0.79882584  0.39162448  1
  Rh  Rh210  1  0.19503682  0.39333132  0.59345575  1
  Rh  Rh211  1  0.20004757  0.18966815  0.60934596  1
  Rh  Rh212  1  0.80349908  0.40156805  0.80806525  1
  Rh  Rh213  1  0.60520946  0.79900267  0.60449274  1
  Rh  Rh214  1  0.40108791  0.00642680  0.00372463  1
  Rh  Rh215  1  0.40460887  0.20401467  0.60423291  1
  Rh  Rh216  1  0.60984262  0.59986106  0.60709030  1
  Rh  Rh217  1  0.60753300  0.39655381  0.20506944  1
  Rh  Rh218  1  0.58851310  0.40249851  0.79775958  1
  Rh  Rh219  1  0.80053460  0.19988226  0.40655790  1
  Rh  Rh220  1  -0.00208439  0.01157514  0.19760147  1
  Rh  Rh221  1  0.00770301  -0.00285566  0.60066639  1
  Rh  Rh222  1  0.40654140  -0.00059364  0.79748023  1
  Rh  Rh223  1  0.19457199  0.39578548  0.19268151  1
  Rh  Rh224  1  0.78997249  0.59805430  0.80504742  1
  Rh  Rh225  1  -0.00213608  0.60204845  0.00313860  1
  Rh  Rh226  1  0.59820430  0.39904385  0.39873117  1
  Rh  Rh227  1  0.41036225  0.79818632  0.80010215  1
  Rh  Rh228  1  -0.00474889  0.20207061  0.59886076  1
  Rh  Rh229  1  0.78963634  0.60107995  0.00486879  1
  Rh  Rh230  1  0.20523514  0.20580666  0.19805644  1
  Rh  Rh231  1  -0.00037597  0.19567424  -0.00224517  1
  Rh  Rh232  1  0.19462865  -0.01051005  0.18593558  1
  Rh  Rh233  1  0.80157277  0.79802809  0.19805756  1
  Rh  Rh234  1  0.60088908  0.19600596  0.80784754  1
  Rh  Rh235  1  0.00864412  0.21006104  0.80845705  1
  Rh  Rh236  1  0.79123191  0.20222976  0.19264036  1
  Rh  Rh237  1  0.59764714  -0.00219500  0.80012318  1
  Rh  Rh238  1  0.60217995  0.59795953  0.81339231  1
  Rh  Rh239  1  0.40589681  0.79477883  0.60461548  1
  Rh  Rh240  1  0.59532874  0.40958866  0.00309569  1
  Rh  Rh241  1  0.20815549  0.38885359  0.40593678  1
  Rh  Rh242  1  0.00180293  0.78723151  0.20412558  1
  Rh  Rh243  1  0.79568173  -0.00179014  0.00750961  1
  Rh  Rh244  1  -0.00630208  -0.00978113  0.79582890  1
  Rh  Rh245  1  0.39741972  0.20623917  0.39106124  1
  Rh  Rh246  1  0.79135522  0.19499061  0.79877120  1
  Rh  Rh247  1  0.60725186  0.20239068  0.60294775  1
  Rh  Rh248  1  0.40221600  0.20798132  0.19676408  1
  Rh  Rh249  1  0.59232864  0.00808775  0.39623886  1
