# generated using pymatgen
data_ZrScNbPdRh
_symmetry_space_group_name_H-M   'P 1'
_cell_length_a   16.55775400
_cell_length_b   16.56175685
_cell_length_c   16.55900582
_cell_angle_alpha   90.01144006
_cell_angle_beta   89.98398902
_cell_angle_gamma   89.98898101
_symmetry_Int_Tables_number   1
_chemical_formula_structural   ZrScNbPdRh
_chemical_formula_sum   'Zr50 Sc50 Nb50 Pd50 Rh50'
_cell_volume   4540.90122633
_cell_formula_units_Z   50
loop_
 _symmetry_equiv_pos_site_id
 _symmetry_equiv_pos_as_xyz
  1  'x, y, z'
loop_
 _atom_site_type_symbol
 _atom_site_label
 _atom_site_symmetry_multiplicity
 _atom_site_fract_x
 _atom_site_fract_y
 _atom_site_fract_z
 _atom_site_occupancy
  Zr  Zr0  1  0.89923818  0.11346891  0.49213477  1
  Zr  Zr1  1  0.50359241  0.09080290  0.90935666  1
  Zr  Zr2  1  0.49548434  0.09370145  0.09883560  1
  Zr  Zr3  1  0.30164711  0.49481638  0.69466313  1
  Zr  Zr4  1  0.10593507  0.29970960  0.89343490  1
  Zr  Zr5  1  0.10908684  0.50592421  0.29906263  1
  Zr  Zr6  1  0.90325903  0.49868929  0.09802642  1
  Zr  Zr7  1  0.89972485  0.09874849  0.89478052  1
  Zr  Zr8  1  0.89873951  0.89749298  0.49788832  1
  Zr  Zr9  1  0.89257126  0.69743967  0.49912572  1
  Zr  Zr10  1  0.89816282  0.09533489  0.29899848  1
  Zr  Zr11  1  0.70137932  0.70694564  0.90406240  1
  Zr  Zr12  1  0.50008811  0.89792642  0.50795743  1
  Zr  Zr13  1  0.49588509  0.30170005  0.69669827  1
  Zr  Zr14  1  0.69798392  0.10065757  0.30090567  1
  Zr  Zr15  1  0.09847351  0.70437118  0.69251433  1
  Zr  Zr16  1  0.30040182  0.70870311  0.89454351  1
  Zr  Zr17  1  0.89411529  0.90241408  0.29868921  1
  Zr  Zr18  1  0.89266955  0.70346908  0.89405855  1
  Zr  Zr19  1  0.10038504  0.09095908  0.10070082  1
  Zr  Zr20  1  0.49275308  0.69671589  0.49655356  1
  Zr  Zr21  1  0.50820427  0.71091386  0.10875718  1
  Zr  Zr22  1  0.69641172  0.30143783  0.10509516  1
  Zr  Zr23  1  0.49435284  0.51684871  0.09849339  1
  Zr  Zr24  1  0.09966004  0.90203449  0.29584211  1
  Zr  Zr25  1  0.70268729  0.88813228  0.50053550  1
  Zr  Zr26  1  0.30499473  0.09991064  0.09171878  1
  Zr  Zr27  1  0.68921444  0.09750112  0.09647995  1
  Zr  Zr28  1  0.49362611  0.10011960  0.30777045  1
  Zr  Zr29  1  0.29561593  0.90055571  0.09217744  1
  Zr  Zr30  1  0.30183380  0.29660419  0.70278782  1
  Zr  Zr31  1  0.49603750  0.89762223  0.28764413  1
  Zr  Zr32  1  0.29593972  0.70031962  0.69564255  1
  Zr  Zr33  1  0.10570508  0.69344949  0.30445243  1
  Zr  Zr34  1  0.69657699  0.50028373  0.10235837  1
  Zr  Zr35  1  0.29768215  0.89091653  0.50189177  1
  Zr  Zr36  1  0.90071949  0.69509330  0.70782642  1
  Zr  Zr37  1  0.89208366  0.49423489  0.50031921  1
  Zr  Zr38  1  0.49798679  0.10553203  0.50282201  1
  Zr  Zr39  1  0.69204032  0.70154877  0.29986280  1
  Zr  Zr40  1  0.30562775  0.09826212  0.49815789  1
  Zr  Zr41  1  0.29649732  0.50937007  0.90050686  1
  Zr  Zr42  1  0.50445921  0.70355883  0.90268126  1
  Zr  Zr43  1  0.89766189  0.29997643  0.10321595  1
  Zr  Zr44  1  0.09962422  0.90315864  0.70680111  1
  Zr  Zr45  1  0.29722061  0.50683589  0.10282782  1
  Zr  Zr46  1  0.90618754  0.51101389  0.89434279  1
  Zr  Zr47  1  0.49910115  0.90663772  0.09548879  1
  Zr  Zr48  1  0.50265711  0.10320627  0.69959602  1
  Zr  Zr49  1  0.69409742  0.49465123  0.49440457  1
  Sc  Sc50  1  0.69574808  0.89985620  0.09945945  1
  Sc  Sc51  1  0.69660932  0.11461448  0.50469535  1
  Sc  Sc52  1  0.10219884  0.70155913  0.90111790  1
  Sc  Sc53  1  0.10531830  0.49055927  0.70225560  1
  Sc  Sc54  1  0.90064607  0.90488451  0.09518596  1
  Sc  Sc55  1  0.69122125  0.48979191  0.30375106  1
  Sc  Sc56  1  0.90794730  0.30380534  0.69012238  1
  Sc  Sc57  1  0.70637173  0.90588094  0.29368313  1
  Sc  Sc58  1  0.30450408  0.30661214  0.10056739  1
  Sc  Sc59  1  0.90492374  0.89659570  0.90005240  1
  Sc  Sc60  1  0.70091111  0.09523341  0.70450262  1
  Sc  Sc61  1  0.90771985  0.89380002  0.70260697  1
  Sc  Sc62  1  0.90716035  0.28901279  0.89772184  1
  Sc  Sc63  1  0.29234609  0.09391659  0.31260878  1
  Sc  Sc64  1  0.09785518  0.88876307  0.51096688  1
  Sc  Sc65  1  0.30230050  0.49755559  0.30070855  1
  Sc  Sc66  1  0.89933824  0.29042925  0.30526488  1
  Sc  Sc67  1  0.49626952  0.50197898  0.30612210  1
  Sc  Sc68  1  0.69336029  0.51360342  0.89395768  1
  Sc  Sc69  1  0.49687505  0.30202592  0.89664043  1
  Sc  Sc70  1  0.10002576  0.90388901  0.08945650  1
  Sc  Sc71  1  0.69679803  0.89775815  0.88925970  1
  Sc  Sc72  1  0.30146797  0.29901672  0.89791435  1
  Sc  Sc73  1  0.09587438  0.30698508  0.09501419  1
  Sc  Sc74  1  0.09939476  0.30209256  0.50312971  1
  Sc  Sc75  1  0.30253155  0.49920388  0.49867982  1
  Sc  Sc76  1  0.31074716  0.69549825  0.09666259  1
  Sc  Sc77  1  0.11180355  0.49647303  0.50563109  1
  Sc  Sc78  1  0.90141096  0.69831496  0.08055365  1
  Sc  Sc79  1  0.09455767  0.09790957  0.89469769  1
  Sc  Sc80  1  0.50376415  0.50852278  0.88712049  1
  Sc  Sc81  1  0.50177025  0.69792428  0.69627341  1
  Sc  Sc82  1  0.30443370  0.09592032  0.89424494  1
  Sc  Sc83  1  0.10261397  0.30321104  0.70240677  1
  Sc  Sc84  1  0.29982036  0.89796429  0.30580721  1
  Sc  Sc85  1  0.69849772  0.69417078  0.50272576  1
  Sc  Sc86  1  0.09375145  0.10067588  0.49779886  1
  Sc  Sc87  1  0.49482526  0.49999994  0.49470607  1
  Sc  Sc88  1  0.69617265  0.50870136  0.70249400  1
  Sc  Sc89  1  0.69996339  0.70577033  0.70460375  1
  Sc  Sc90  1  0.49827923  0.29460680  0.10098892  1
  Sc  Sc91  1  0.90109295  0.68885597  0.30629619  1
  Sc  Sc92  1  0.30277449  0.30514286  0.49778685  1
  Sc  Sc93  1  0.70279104  0.29676793  0.69531507  1
  Sc  Sc94  1  0.90647176  0.09874554  0.10159186  1
  Sc  Sc95  1  0.11190580  0.69658483  0.50165780  1
  Sc  Sc96  1  0.49583727  0.29466180  0.49795239  1
  Sc  Sc97  1  0.51408332  0.89869223  0.70495162  1
  Sc  Sc98  1  0.91077200  0.09862350  0.70422961  1
  Sc  Sc99  1  0.09142542  0.10173284  0.30277767  1
  Nb  Nb100  1  0.10452817  0.30625422  0.30342464  1
  Nb  Nb101  1  0.70295339  0.10431093  0.89843672  1
  Nb  Nb102  1  0.50239498  0.49319961  0.69512211  1
  Nb  Nb103  1  0.90324238  0.49894789  0.70095982  1
  Nb  Nb104  1  0.70410404  0.30208098  0.49616344  1
  Nb  Nb105  1  0.29409990  0.90307451  0.71104458  1
  Nb  Nb106  1  0.69938806  0.90119317  0.69540009  1
  Nb  Nb107  1  0.49351593  0.70225702  0.29696000  1
  Nb  Nb108  1  0.30134445  0.70001055  0.30651289  1
  Nb  Nb109  1  0.11572576  0.90255129  0.90395882  1
  Nb  Nb110  1  0.68541575  0.29853081  0.30435741  1
  Nb  Nb111  1  0.70508101  0.29761888  0.90158858  1
  Nb  Nb112  1  0.10536634  0.10077689  0.70486753  1
  Nb  Nb113  1  0.49524695  0.30010350  0.30653318  1
  Nb  Nb114  1  0.89496123  0.30187778  0.49968460  1
  Nb  Nb115  1  0.29626750  0.30403901  0.30052034  1
  Nb  Nb116  1  0.10514115  0.49253071  0.90901681  1
  Nb  Nb117  1  0.10211844  0.50817156  0.09868687  1
  Nb  Nb118  1  0.29276474  0.89548026  0.89396762  1
  Nb  Nb119  1  0.29669651  0.70081349  0.49676410  1
  Nb  Nb120  1  0.10477086  0.69773511  0.10723802  1
  Nb  Nb121  1  0.69996467  0.70085631  0.09840301  1
  Nb  Nb122  1  0.90535330  0.50005576  0.30052850  1
  Nb  Nb123  1  0.30173025  0.09883623  0.70366749  1
  Nb  Nb124  1  0.50125080  0.89693485  0.90172023  1
  Nb  Nb125  1  0.19811569  0.79408584  0.19846922  1
  Nb  Nb126  1  0.79114410  0.20072186  0.20196443  1
  Nb  Nb127  1  0.39301192  0.20131519  0.20971543  1
  Nb  Nb128  1  0.39251336  -0.00232027  0.60973277  1
  Nb  Nb129  1  -0.00155944  0.40158826  0.39695960  1
  Nb  Nb130  1  0.20427690  0.19082723  0.60627503  1
  Nb  Nb131  1  -0.00040405  0.79666417  0.39628639  1
  Nb  Nb132  1  0.80235196  -0.00228950  0.59975821  1
  Nb  Nb133  1  0.79612233  0.39926349  -0.00928576  1
  Nb  Nb134  1  0.79908303  0.59892131  0.19795277  1
  Nb  Nb135  1  0.40482647  0.41051039  -0.00033172  1
  Nb  Nb136  1  0.00353113  0.40666655  0.20637610  1
  Nb  Nb137  1  0.20331911  0.00313651  0.60897750  1
  Nb  Nb138  1  0.59741374  -0.00383477  0.40246581  1
  Nb  Nb139  1  -0.00512240  0.59353840  0.60388121  1
  Nb  Nb140  1  0.59945559  0.39909496  0.59822820  1
  Nb  Nb141  1  0.59466689  0.80185859  0.39602883  1
  Nb  Nb142  1  0.19995581  0.19752280  0.00397270  1
  Nb  Nb143  1  0.20145296  0.20451378  0.20190660  1
  Nb  Nb144  1  0.60442232  0.19934012  0.80643479  1
  Nb  Nb145  1  0.60124056  0.40195629  -0.00245159  1
  Nb  Nb146  1  0.80347295  0.78828122  0.19396462  1
  Nb  Nb147  1  0.79527341  0.00668708  -0.00804329  1
  Nb  Nb148  1  0.80247536  0.40210576  0.80381577  1
  Nb  Nb149  1  0.00055852  0.79378950  0.19988472  1
  Pd  Pd150  1  -0.00125343  0.00406574  0.59923910  1
  Pd  Pd151  1  0.40727519  0.39800787  0.19766991  1
  Pd  Pd152  1  0.80469990  0.39838383  0.20839236  1
  Pd  Pd153  1  0.58441557  0.40394382  0.19673166  1
  Pd  Pd154  1  0.80183209  -0.00779205  0.79701563  1
  Pd  Pd155  1  0.80342447  0.19230410  0.60939657  1
  Pd  Pd156  1  0.40802569  0.19592723  0.80724736  1
  Pd  Pd157  1  0.78993730  0.59474322  0.39063165  1
  Pd  Pd158  1  0.00807743  0.80268474  0.80946285  1
  Pd  Pd159  1  0.00909337  0.60410966  -0.00389792  1
  Pd  Pd160  1  0.79974489  0.59579051  0.60636004  1
  Pd  Pd161  1  -0.00417465  0.39902884  -0.00231095  1
  Pd  Pd162  1  -0.00685189  0.60298746  0.19513305  1
  Pd  Pd163  1  0.00657805  0.59562746  0.41647818  1
  Pd  Pd164  1  0.38710949  0.00500021  0.20629713  1
  Pd  Pd165  1  0.39576323  0.40649170  0.80717052  1
  Pd  Pd166  1  0.18900318  -0.00735669  0.41261255  1
  Pd  Pd167  1  0.60576836  0.00320665  0.59503634  1
  Pd  Pd168  1  0.20731129  0.39579802  0.00210383  1
  Pd  Pd169  1  0.79157952  0.40396506  0.60988252  1
  Pd  Pd170  1  0.00781862  0.20248420  0.60104572  1
  Pd  Pd171  1  0.20442052  0.00108913  0.20283107  1
  Pd  Pd172  1  0.19724774  0.20326168  0.40386046  1
  Pd  Pd173  1  0.40296044  0.60247704  0.79418980  1
  Pd  Pd174  1  0.39952145  0.80469819  0.61200058  1
  Pd  Pd175  1  0.59370392  0.20813692  -0.00622015  1
  Pd  Pd176  1  0.59185961  0.19695786  0.20424698  1
  Pd  Pd177  1  -0.00415019  0.39762252  0.80366451  1
  Pd  Pd178  1  0.80140528  0.20648096  0.78994231  1
  Pd  Pd179  1  0.60132900  0.59575654  0.20764819  1
  Pd  Pd180  1  0.40039562  0.80184157  0.00054177  1
  Pd  Pd181  1  0.00874014  0.19609960  0.00004404  1
  Pd  Pd182  1  0.61002942  0.39376181  0.79774719  1
  Pd  Pd183  1  0.40317939  0.80262655  0.39769825  1
  Pd  Pd184  1  0.80425392  0.80141116  0.61064670  1
  Pd  Pd185  1  0.39752064  0.59623557  0.59875288  1
  Pd  Pd186  1  0.80267966  0.19717647  0.00878015  1
  Pd  Pd187  1  0.40886545  -0.00777940  0.79941687  1
  Pd  Pd188  1  0.19346348  0.59756075  0.79575246  1
  Pd  Pd189  1  0.19824821  0.60944052  -0.00026877  1
  Pd  Pd190  1  0.01664770  0.59604149  0.79693981  1
  Pd  Pd191  1  0.19385944  0.39830398  0.19287920  1
  Pd  Pd192  1  0.79474667  0.59321595  0.00099299  1
  Pd  Pd193  1  0.78907079  0.00728253  0.41373228  1
  Pd  Pd194  1  0.40732189  0.80359766  0.79218586  1
  Pd  Pd195  1  0.80253960  0.39390387  0.38910531  1
  Pd  Pd196  1  0.00682541  0.80069759  0.00079611  1
  Pd  Pd197  1  0.00446281  -0.00780272  0.40551809  1
  Pd  Pd198  1  0.00485741  0.20703335  0.20409248  1
  Pd  Pd199  1  0.59728883  0.59557406  0.59852709  1
  Rh  Rh200  1  0.20066398  0.79399401  0.00548425  1
  Rh  Rh201  1  0.39686371  0.60565303  0.20907562  1
  Rh  Rh202  1  0.59836955  0.60241983  -0.00118085  1
  Rh  Rh203  1  0.40354773  0.60173028  -0.00990265  1
  Rh  Rh204  1  0.79950928  0.80551331  0.79681320  1
  Rh  Rh205  1  0.20623716  0.38822014  0.60172032  1
  Rh  Rh206  1  0.21067991  0.59611164  0.40436855  1
  Rh  Rh207  1  0.20003019  0.19642567  0.80226925  1
  Rh  Rh208  1  0.38638822  0.79718108  0.19750961  1
  Rh  Rh209  1  0.20552754  0.80535638  0.60690242  1
  Rh  Rh210  1  0.60172880  0.21030110  0.60583372  1
  Rh  Rh211  1  0.60161689  0.80495488  0.00017286  1
  Rh  Rh212  1  0.60036872  0.79846121  0.79746902  1
  Rh  Rh213  1  -0.00095516  -0.00748381  0.19751522  1
  Rh  Rh214  1  0.39408630  0.20970139  0.00351244  1
  Rh  Rh215  1  0.40728347  -0.00862509  0.40934693  1
  Rh  Rh216  1  0.39517844  0.60124019  0.39754827  1
  Rh  Rh217  1  0.40611724  0.40206597  0.59520655  1
  Rh  Rh218  1  0.59545930  0.60924630  0.79351892  1
  Rh  Rh219  1  0.00288677  0.20445080  0.79228783  1
  Rh  Rh220  1  0.79459758  0.81167129  0.00229372  1
  Rh  Rh221  1  0.79216885  0.20736181  0.39309847  1
  Rh  Rh222  1  -0.00552165  -0.00070318  -0.00852281  1
  Rh  Rh223  1  0.39210694  0.19657044  0.59872029  1
  Rh  Rh224  1  0.39305215  -0.01322704  -0.01341151  1
  Rh  Rh225  1  0.19440070  0.80071626  0.39388914  1
  Rh  Rh226  1  0.60754643  0.80644672  0.20360048  1
  Rh  Rh227  1  0.59217707  0.39056054  0.40840579  1
  Rh  Rh228  1  0.60911260  -0.00980428  -0.01023350  1
  Rh  Rh229  1  0.39915282  0.39868644  0.39918129  1
  Rh  Rh230  1  0.19357940  0.79594720  0.79659422  1
  Rh  Rh231  1  0.59975362  0.20046761  0.40281815  1
  Rh  Rh232  1  0.79996027  0.00672019  0.18316187  1
  Rh  Rh233  1  0.79926572  0.79347482  0.38748624  1
  Rh  Rh234  1  0.19729058  0.00501695  0.80365265  1
  Rh  Rh235  1  0.20435516  0.00895155  -0.01053728  1
  Rh  Rh236  1  0.60065140  0.00418464  0.80405756  1
  Rh  Rh237  1  -0.00547476  0.78536621  0.58993534  1
  Rh  Rh238  1  0.21123087  0.60680069  0.20088533  1
  Rh  Rh239  1  0.59944674  -0.00138501  0.20681555  1
  Rh  Rh240  1  0.00535718  -0.00556402  0.80527592  1
  Rh  Rh241  1  0.60192467  0.79122404  0.59589180  1
  Rh  Rh242  1  0.20512859  0.40427636  0.80308557  1
  Rh  Rh243  1  0.79583234  0.59673314  0.79771698  1
  Rh  Rh244  1  -0.00069174  0.40615303  0.58919440  1
  Rh  Rh245  1  0.00339644  0.21118054  0.40196562  1
  Rh  Rh246  1  0.20011846  0.59891965  0.60146373  1
  Rh  Rh247  1  0.39148114  0.20762045  0.39413477  1
  Rh  Rh248  1  0.19816966  0.40184743  0.40262849  1
  Rh  Rh249  1  0.59397996  0.60796021  0.39686064  1
