# generated using pymatgen
data_ZrScNbPdRh
_symmetry_space_group_name_H-M   'P 1'
_cell_length_a   16.55468549
_cell_length_b   16.55830283
_cell_length_c   16.55465959
_cell_angle_alpha   89.96774903
_cell_angle_beta   89.99820066
_cell_angle_gamma   90.01273491
_symmetry_Int_Tables_number   1
_chemical_formula_structural   ZrScNbPdRh
_chemical_formula_sum   'Zr50 Sc50 Nb50 Pd50 Rh50'
_cell_volume   4537.92099299
_cell_formula_units_Z   50
loop_
 _symmetry_equiv_pos_site_id
 _symmetry_equiv_pos_as_xyz
  1  'x, y, z'
loop_
 _atom_site_type_symbol
 _atom_site_label
 _atom_site_symmetry_multiplicity
 _atom_site_fract_x
 _atom_site_fract_y
 _atom_site_fract_z
 _atom_site_occupancy
  Zr  Zr0  1  0.70387917  0.90295161  0.90428325  1
  Zr  Zr1  1  0.89637460  0.29674395  0.70028814  1
  Zr  Zr2  1  0.10804868  0.50170262  0.90322142  1
  Zr  Zr3  1  0.09493223  0.70594114  0.49842113  1
  Zr  Zr4  1  0.50482733  0.09955793  0.90015461  1
  Zr  Zr5  1  0.88984169  0.29205732  0.90870356  1
  Zr  Zr6  1  0.49743265  0.48716614  0.50476585  1
  Zr  Zr7  1  0.50276359  0.69943826  0.29535074  1
  Zr  Zr8  1  0.70041793  0.90228148  0.29679314  1
  Zr  Zr9  1  0.10126854  0.09624700  0.10766647  1
  Zr  Zr10  1  0.09570988  0.69691539  0.90243011  1
  Zr  Zr11  1  0.69208441  0.29738143  0.49576696  1
  Zr  Zr12  1  0.70186098  0.29576766  0.09181204  1
  Zr  Zr13  1  0.90412300  0.10267495  0.29321268  1
  Zr  Zr14  1  0.91223045  0.51024197  0.89510591  1
  Zr  Zr15  1  0.50620672  0.69856165  0.49981549  1
  Zr  Zr16  1  0.50064718  0.90746877  0.90314649  1
  Zr  Zr17  1  0.89557131  0.10331734  0.10394196  1
  Zr  Zr18  1  0.69567896  0.49889548  0.30161940  1
  Zr  Zr19  1  0.10406216  0.29860159  0.29855833  1
  Zr  Zr20  1  0.29621769  0.90273065  0.29074532  1
  Zr  Zr21  1  0.89575958  0.89422114  0.09749853  1
  Zr  Zr22  1  0.50005494  0.29395905  0.09854251  1
  Zr  Zr23  1  0.49927753  0.30381004  0.70415551  1
  Zr  Zr24  1  0.89647945  0.49580442  0.30870813  1
  Zr  Zr25  1  0.31264911  0.50539819  0.69958135  1
  Zr  Zr26  1  0.29554522  0.29213803  0.70668853  1
  Zr  Zr27  1  0.89884794  0.29197543  0.30011313  1
  Zr  Zr28  1  0.69469024  0.49367565  0.10329608  1
  Zr  Zr29  1  0.70419613  0.70576484  0.31344255  1
  Zr  Zr30  1  0.09674717  0.90122723  0.89903764  1
  Zr  Zr31  1  0.10369755  0.70172121  0.29440009  1
  Zr  Zr32  1  0.09448882  0.90098342  0.29200580  1
  Zr  Zr33  1  0.09655107  0.49595644  0.49445850  1
  Zr  Zr34  1  0.30040090  0.10766515  0.10613779  1
  Zr  Zr35  1  0.89664436  0.29426204  0.10385117  1
  Zr  Zr36  1  0.08932503  0.49203345  0.70167318  1
  Zr  Zr37  1  0.89389982  0.30620521  0.50371667  1
  Zr  Zr38  1  0.70584332  0.50099425  0.50373368  1
  Zr  Zr39  1  0.50411163  0.90418285  0.09603473  1
  Zr  Zr40  1  0.89971760  0.09890831  0.50296358  1
  Zr  Zr41  1  0.29917045  0.10359013  0.50515409  1
  Zr  Zr42  1  0.89683047  0.89840079  0.89902361  1
  Zr  Zr43  1  0.89155935  0.69265546  0.70221778  1
  Zr  Zr44  1  0.29709814  0.69623291  0.29625096  1
  Zr  Zr45  1  0.49216804  0.50532287  0.90280759  1
  Zr  Zr46  1  0.49567195  0.70254430  0.10148472  1
  Zr  Zr47  1  0.50214807  0.49853952  0.28854140  1
  Zr  Zr48  1  0.30246950  0.50030768  0.49570974  1
  Zr  Zr49  1  0.50183184  0.90579673  0.30324797  1
  Sc  Sc50  1  0.70568237  0.09835265  0.69468393  1
  Sc  Sc51  1  0.68818293  0.50394106  0.90535118  1
  Sc  Sc52  1  0.69448884  0.29743657  0.29947664  1
  Sc  Sc53  1  0.90150348  0.09910142  0.89979552  1
  Sc  Sc54  1  0.69595893  0.71311616  0.09828947  1
  Sc  Sc55  1  0.10443400  0.90383964  0.10180870  1
  Sc  Sc56  1  0.50186855  0.69830815  0.91143011  1
  Sc  Sc57  1  0.30902849  0.10028141  0.29843636  1
  Sc  Sc58  1  0.69978782  0.69997822  0.49852254  1
  Sc  Sc59  1  0.50463156  0.90432624  0.50830043  1
  Sc  Sc60  1  0.30440654  0.90508913  0.90502877  1
  Sc  Sc61  1  0.69848670  0.29352476  0.70658656  1
  Sc  Sc62  1  0.70421871  0.70292406  0.89746644  1
  Sc  Sc63  1  0.31006610  0.90566714  0.50714438  1
  Sc  Sc64  1  0.30087712  0.90865239  0.09906259  1
  Sc  Sc65  1  0.50321156  0.10236190  0.29766758  1
  Sc  Sc66  1  0.49891040  0.69266862  0.69354271  1
  Sc  Sc67  1  0.49988440  0.09158272  0.49155124  1
  Sc  Sc68  1  0.11501023  0.29610433  0.09966568  1
  Sc  Sc69  1  0.50770412  0.28990941  0.90168461  1
  Sc  Sc70  1  0.28682170  0.50040283  0.29150039  1
  Sc  Sc71  1  0.09611530  0.29778519  0.69928753  1
  Sc  Sc72  1  0.09448303  0.09558706  0.90620016  1
  Sc  Sc73  1  0.90207824  0.88862049  0.29640256  1
  Sc  Sc74  1  0.10541981  0.29018257  0.50031276  1
  Sc  Sc75  1  0.30233567  0.70358032  0.10657485  1
  Sc  Sc76  1  0.30496204  0.30048779  0.49288357  1
  Sc  Sc77  1  0.09738943  0.70262480  0.09677995  1
  Sc  Sc78  1  0.69931641  0.10742385  0.90067909  1
  Sc  Sc79  1  0.50611649  0.50270211  0.69735976  1
  Sc  Sc80  1  0.10876538  0.30113435  0.89550078  1
  Sc  Sc81  1  0.69818941  0.09412642  0.50234194  1
  Sc  Sc82  1  0.30125552  0.10016735  0.70101177  1
  Sc  Sc83  1  0.30218843  0.69858719  0.69979909  1
  Sc  Sc84  1  0.11076993  0.50261102  0.09990923  1
  Sc  Sc85  1  0.50311300  0.29516239  0.30993185  1
  Sc  Sc86  1  0.30170101  0.29059869  0.29566485  1
  Sc  Sc87  1  0.69769833  0.68995514  0.69517283  1
  Sc  Sc88  1  0.30203915  0.10331994  0.89906437  1
  Sc  Sc89  1  0.29789129  0.69810277  0.50342250  1
  Sc  Sc90  1  0.30361258  0.89592679  0.69468042  1
  Sc  Sc91  1  0.50044110  0.09391932  0.70846446  1
  Sc  Sc92  1  0.89864908  0.49714909  0.68907037  1
  Sc  Sc93  1  0.89489288  0.10124055  0.70026701  1
  Sc  Sc94  1  0.69389840  0.90163539  0.49841977  1
  Sc  Sc95  1  0.09174057  0.10924160  0.69983619  1
  Sc  Sc96  1  0.29946236  0.49540544  0.09106182  1
  Sc  Sc97  1  0.50256394  0.50615494  0.09585056  1
  Sc  Sc98  1  0.10549668  0.70835524  0.69927754  1
  Sc  Sc99  1  0.89480626  0.49313858  0.10151244  1
  Nb  Nb100  1  0.49873618  0.29990167  0.50043669  1
  Nb  Nb101  1  0.69835586  0.09170019  0.11252313  1
  Nb  Nb102  1  0.70126139  0.91224486  0.09978596  1
  Nb  Nb103  1  0.90412796  0.70514003  0.90915619  1
  Nb  Nb104  1  0.50689263  0.10092068  0.09933515  1
  Nb  Nb105  1  0.09928129  0.09555571  0.49767259  1
  Nb  Nb106  1  0.09009155  0.90074900  0.50156583  1
  Nb  Nb107  1  0.90467649  0.70055081  0.09636945  1
  Nb  Nb108  1  0.10026881  0.50276709  0.29814987  1
  Nb  Nb109  1  0.30175508  0.69668431  0.89295728  1
  Nb  Nb110  1  0.30100954  0.50068582  0.89848307  1
  Nb  Nb111  1  0.90061324  0.50340227  0.50270828  1
  Nb  Nb112  1  0.90610547  0.89649864  0.50104770  1
  Nb  Nb113  1  0.09335952  0.89918554  0.69923103  1
  Nb  Nb114  1  0.09562276  0.09958908  0.29989771  1
  Nb  Nb115  1  0.90006413  0.70102232  0.30013157  1
  Nb  Nb116  1  0.89579950  0.90483474  0.70010751  1
  Nb  Nb117  1  0.50411598  0.90115021  0.70027754  1
  Nb  Nb118  1  0.70253661  0.09458482  0.29936046  1
  Nb  Nb119  1  0.30410661  0.30859184  0.90919666  1
  Nb  Nb120  1  0.30278675  0.30085231  0.09793270  1
  Nb  Nb121  1  0.89443597  0.70315547  0.49188586  1
  Nb  Nb122  1  0.70324167  0.90365170  0.69539762  1
  Nb  Nb123  1  0.70124775  0.29715199  0.89918513  1
  Nb  Nb124  1  0.70313309  0.50331886  0.70365292  1
  Nb  Nb125  1  0.79461505  0.40280368  0.80440717  1
  Nb  Nb126  1  -0.00559749  0.59674822  0.20426795  1
  Nb  Nb127  1  0.20343699  0.79824192  -0.00758226  1
  Nb  Nb128  1  0.80406832  0.60685769  0.20088689  1
  Nb  Nb129  1  0.80593769  -0.00291316  0.39808528  1
  Nb  Nb130  1  0.19239379  -0.00503252  0.79233354  1
  Nb  Nb131  1  0.39888111  0.39266202  0.19190154  1
  Nb  Nb132  1  0.59762959  0.80817293  0.79369658  1
  Nb  Nb133  1  0.19983699  0.81049627  0.40325168  1
  Nb  Nb134  1  0.40151796  0.60060779  0.39471999  1
  Nb  Nb135  1  0.39630385  0.40105006  0.80952389  1
  Nb  Nb136  1  0.80587956  0.80616006  0.60010372  1
  Nb  Nb137  1  0.00476046  0.40184682  0.20163289  1
  Nb  Nb138  1  0.00169034  0.39899479  0.00355704  1
  Nb  Nb139  1  0.19557228  0.59125623  0.59893742  1
  Nb  Nb140  1  -0.00546902  0.60121231  0.39878837  1
  Nb  Nb141  1  0.19029091  -0.00047234  0.40449114  1
  Nb  Nb142  1  0.80618089  0.60554227  0.00536693  1
  Nb  Nb143  1  -0.00907728  0.80351290  0.79837667  1
  Nb  Nb144  1  0.59106279  0.20130023  0.59752377  1
  Nb  Nb145  1  0.39859593  0.79768809  0.39710605  1
  Nb  Nb146  1  0.20285088  0.40352022  0.60138318  1
  Nb  Nb147  1  0.18673971  -0.00247462  0.59832930  1
  Nb  Nb148  1  0.40735108  0.20269312  0.59902362  1
  Nb  Nb149  1  0.40838431  0.80104325  0.80265121  1
  Pd  Pd150  1  0.79548372  0.79820610  0.79289027  1
  Pd  Pd151  1  0.59969749  0.40176831  0.80590877  1
  Pd  Pd152  1  0.79385762  0.39596373  0.39949579  1
  Pd  Pd153  1  -0.00316521  -0.00270376  0.00802396  1
  Pd  Pd154  1  0.79094853  0.39617197  0.60907611  1
  Pd  Pd155  1  0.20957065  0.60940435  0.00407469  1
  Pd  Pd156  1  0.39620201  0.40408497  0.38281902  1
  Pd  Pd157  1  0.00136028  0.39628210  0.39980675  1
  Pd  Pd158  1  0.20680335  0.80720084  0.80455904  1
  Pd  Pd159  1  0.61250725  0.60988538  0.19508085  1
  Pd  Pd160  1  0.20627943  0.40465168  0.79471695  1
  Pd  Pd161  1  0.60918382  0.79904703  0.60460840  1
  Pd  Pd162  1  -0.01005095  0.79372628  0.60953923  1
  Pd  Pd163  1  0.60944430  0.39612285  0.60574093  1
  Pd  Pd164  1  0.61141121  0.00059408  0.79764394  1
  Pd  Pd165  1  -0.00024262  0.20347578  0.40608249  1
  Pd  Pd166  1  0.59501927  0.60945472  0.80183644  1
  Pd  Pd167  1  0.00499255  0.60987167  0.79089102  1
  Pd  Pd168  1  0.00144251  0.60565289  0.59622445  1
  Pd  Pd169  1  0.20340010  0.19167681  0.39334499  1
  Pd  Pd170  1  0.59274055  0.39745777  -0.00430195  1
  Pd  Pd171  1  0.20402851  0.39558852  0.40003912  1
  Pd  Pd172  1  0.79418123  0.19110197  0.40155538  1
  Pd  Pd173  1  0.19522692  0.18891925  0.80660905  1
  Pd  Pd174  1  0.79945881  0.00897075  -0.00125108  1
  Pd  Pd175  1  -0.00133740  0.00573847  0.60809111  1
  Pd  Pd176  1  0.39418057  -0.00323421  0.39940725  1
  Pd  Pd177  1  0.59319729  0.59085347  0.40502598  1
  Pd  Pd178  1  0.39787827  0.01149940  0.00664594  1
  Pd  Pd179  1  -0.01004824  0.38886418  0.80920771  1
  Pd  Pd180  1  -0.00458973  -0.00311948  0.39422752  1
  Pd  Pd181  1  0.79701736  0.00849766  0.80255667  1
  Pd  Pd182  1  0.60332800  0.80133564  -0.00608635  1
  Pd  Pd183  1  0.80457369  0.41317404  -0.01120733  1
  Pd  Pd184  1  0.80044264  0.39858901  0.20558306  1
  Pd  Pd185  1  0.20293551  0.80387077  0.59393242  1
  Pd  Pd186  1  0.60284291  0.20108424  0.20280330  1
  Pd  Pd187  1  0.79727438  0.79639506  0.19561862  1
  Pd  Pd188  1  0.39048436  -0.00647386  0.79422969  1
  Pd  Pd189  1  0.19651466  0.59810800  0.79041342  1
  Pd  Pd190  1  0.60182693  0.80458524  0.19992366  1
  Pd  Pd191  1  0.79660936  0.59319996  0.81050472  1
  Pd  Pd192  1  0.00842464  0.20661718  0.00375033  1
  Pd  Pd193  1  0.40177918  0.80788083  0.20092725  1
  Pd  Pd194  1  -0.00206089  0.20231041  0.59587909  1
  Pd  Pd195  1  0.40022574  0.19601543  -0.00394046  1
  Pd  Pd196  1  0.40336830  0.79559325  0.60020852  1
  Pd  Pd197  1  0.39113493  0.60533686  0.00584550  1
  Pd  Pd198  1  -0.00163680  0.20165896  0.80633857  1
  Pd  Pd199  1  0.19955107  0.19610243  -0.00632693  1
  Rh  Rh200  1  0.20501187  0.20060927  0.60009161  1
  Rh  Rh201  1  0.80337146  -0.00739737  0.59037020  1
  Rh  Rh202  1  0.40794185  0.00590393  0.19276480  1
  Rh  Rh203  1  0.20110171  0.19522936  0.20504453  1
  Rh  Rh204  1  0.79933829  0.20139420  0.80082597  1
  Rh  Rh205  1  0.40646508  0.60368135  0.80284226  1
  Rh  Rh206  1  0.40199808  0.00963173  0.60684803  1
  Rh  Rh207  1  0.59690408  0.00703205  0.60331486  1
  Rh  Rh208  1  0.00519825  0.39069702  0.59219513  1
  Rh  Rh209  1  -0.00556340  0.58881258  0.01319969  1
  Rh  Rh210  1  0.59381491  0.00047712  0.20057070  1
  Rh  Rh211  1  0.00103720  -0.00303538  0.79460499  1
  Rh  Rh212  1  0.80674036  -0.00388085  0.20661776  1
  Rh  Rh213  1  0.40553724  0.39841747  -0.00052815  1
  Rh  Rh214  1  0.38942293  0.79376932  -0.00719486  1
  Rh  Rh215  1  0.39346343  0.58572261  0.19923160  1
  Rh  Rh216  1  0.60658786  0.00776101  0.00274180  1
  Rh  Rh217  1  0.59210264  0.80619749  0.40157901  1
  Rh  Rh218  1  0.19821889  0.80149388  0.19135774  1
  Rh  Rh219  1  0.40385657  0.19763343  0.40579163  1
  Rh  Rh220  1  0.80352322  0.59860687  0.40131687  1
  Rh  Rh221  1  0.59888502  0.40348024  0.39952142  1
  Rh  Rh222  1  0.79250779  0.18859719  0.00441379  1
  Rh  Rh223  1  0.19712891  0.60118780  0.19094822  1
  Rh  Rh224  1  0.60747733  0.19266803  0.00474586  1
  Rh  Rh225  1  0.59222621  0.39023104  0.19733086  1
  Rh  Rh226  1  0.00362326  0.79647810  0.39462688  1
  Rh  Rh227  1  0.20172551  0.00997464  0.20836177  1
  Rh  Rh228  1  0.60907984  0.60572039  0.00699184  1
  Rh  Rh229  1  0.00129135  0.79639689  0.19358473  1
  Rh  Rh230  1  0.59983582  0.19205620  0.40521551  1
  Rh  Rh231  1  0.40247275  0.20814009  0.80209250  1
  Rh  Rh232  1  0.39882453  0.60389935  0.58944560  1
  Rh  Rh233  1  0.78894531  0.20085205  0.20157403  1
  Rh  Rh234  1  0.19729055  0.39852550  -0.00127929  1
  Rh  Rh235  1  0.00707978  0.80688365  -0.00120386  1
  Rh  Rh236  1  0.60303335  0.19365836  0.79428814  1
  Rh  Rh237  1  0.20288205  0.39667218  0.19730090  1
  Rh  Rh238  1  0.40577641  0.20321918  0.19902401  1
  Rh  Rh239  1  0.80054478  0.81074363  0.40878501  1
  Rh  Rh240  1  0.79911289  0.60506925  0.59281096  1
  Rh  Rh241  1  0.79096274  0.20216282  0.59663907  1
  Rh  Rh242  1  0.19670659  0.60994036  0.40635413  1
  Rh  Rh243  1  -0.00686377  -0.00292565  0.19623422  1
  Rh  Rh244  1  0.01010130  0.20701110  0.19456756  1
  Rh  Rh245  1  0.79545797  0.79719428  0.00419022  1
  Rh  Rh246  1  0.20092116  -0.00327032  -0.00748046  1
  Rh  Rh247  1  0.60858737  0.00161081  0.39686010  1
  Rh  Rh248  1  0.38972453  0.38728266  0.61180897  1
  Rh  Rh249  1  0.60281493  0.59189960  0.59685996  1
