# generated using pymatgen
data_ZrScNbPdRh
_symmetry_space_group_name_H-M   'P 1'
_cell_length_a   16.55600860
_cell_length_b   16.55872306
_cell_length_c   16.55655850
_cell_angle_alpha   90.04299375
_cell_angle_beta   89.97203856
_cell_angle_gamma   90.01949504
_symmetry_Int_Tables_number   1
_chemical_formula_structural   ZrScNbPdRh
_chemical_formula_sum   'Zr50 Sc50 Nb50 Pd50 Rh50'
_cell_volume   4538.91818963
_cell_formula_units_Z   50
loop_
 _symmetry_equiv_pos_site_id
 _symmetry_equiv_pos_as_xyz
  1  'x, y, z'
loop_
 _atom_site_type_symbol
 _atom_site_label
 _atom_site_symmetry_multiplicity
 _atom_site_fract_x
 _atom_site_fract_y
 _atom_site_fract_z
 _atom_site_occupancy
  Zr  Zr0  1  0.29546236  0.70129126  0.09765904  1
  Zr  Zr1  1  0.29531956  0.50320167  0.50079713  1
  Zr  Zr2  1  0.70018635  0.30812876  0.09563469  1
  Zr  Zr3  1  0.09803572  0.10020690  0.29518963  1
  Zr  Zr4  1  0.09962471  0.70517931  0.90734365  1
  Zr  Zr5  1  0.90353874  0.30921182  0.30485684  1
  Zr  Zr6  1  0.10651885  0.50476430  0.09660519  1
  Zr  Zr7  1  0.89437883  0.89915146  0.70173316  1
  Zr  Zr8  1  0.10194813  0.50243976  0.69349182  1
  Zr  Zr9  1  0.68942817  0.51115461  0.70365730  1
  Zr  Zr10  1  0.69912334  0.10399000  0.89878112  1
  Zr  Zr11  1  0.50001281  0.89715455  0.29961746  1
  Zr  Zr12  1  0.10030984  0.69416803  0.50653724  1
  Zr  Zr13  1  0.29573756  0.69898673  0.49760191  1
  Zr  Zr14  1  0.70558602  0.29733502  0.89769874  1
  Zr  Zr15  1  0.89735225  0.09431541  0.90114175  1
  Zr  Zr16  1  0.50607430  0.69715081  0.69863503  1
  Zr  Zr17  1  0.09885651  0.90311732  0.29835832  1
  Zr  Zr18  1  0.90209725  0.50540793  0.09980675  1
  Zr  Zr19  1  0.70033121  0.90652234  0.90183245  1
  Zr  Zr20  1  0.90159279  0.90378004  0.50783192  1
  Zr  Zr21  1  0.10474658  0.29604403  0.90501809  1
  Zr  Zr22  1  0.49048101  0.50081123  0.90563308  1
  Zr  Zr23  1  0.89950656  0.29896485  0.70108689  1
  Zr  Zr24  1  0.09324032  0.09876037  0.50016856  1
  Zr  Zr25  1  0.09582511  0.30410008  0.69493707  1
  Zr  Zr26  1  0.90265225  0.69681112  0.49843126  1
  Zr  Zr27  1  0.69409982  0.10208094  0.50019000  1
  Zr  Zr28  1  0.09865313  0.90785854  0.90776610  1
  Zr  Zr29  1  0.49845897  0.89470396  0.09385585  1
  Zr  Zr30  1  0.09469552  0.69447604  0.70373734  1
  Zr  Zr31  1  0.70757602  0.90020240  0.69386871  1
  Zr  Zr32  1  0.70519970  0.11194152  0.69561666  1
  Zr  Zr33  1  0.49907333  0.29778986  0.90214761  1
  Zr  Zr34  1  0.09987926  0.31130467  0.50052429  1
  Zr  Zr35  1  0.10553094  0.89861975  0.49750475  1
  Zr  Zr36  1  0.69655982  0.89773477  0.29957851  1
  Zr  Zr37  1  0.90085382  0.30519169  0.90476040  1
  Zr  Zr38  1  0.89966683  0.70230921  0.09732217  1
  Zr  Zr39  1  0.10267970  0.89146300  0.70339032  1
  Zr  Zr40  1  0.70173222  0.70197362  0.29835319  1
  Zr  Zr41  1  0.49826428  0.29575691  0.29699481  1
  Zr  Zr42  1  0.70022434  0.70126268  0.70223119  1
  Zr  Zr43  1  0.29819899  0.30758108  0.49881557  1
  Zr  Zr44  1  0.90538996  0.09605460  0.29606101  1
  Zr  Zr45  1  0.29538364  0.29458149  0.10316852  1
  Zr  Zr46  1  0.29757028  0.89478784  0.29646496  1
  Zr  Zr47  1  0.49719748  0.10758108  0.09936404  1
  Zr  Zr48  1  0.09302263  0.49857836  0.30301696  1
  Zr  Zr49  1  0.69604764  0.09998555  0.30438562  1
  Sc  Sc50  1  0.30623193  0.89943670  0.89392543  1
  Sc  Sc51  1  0.89936723  0.69714107  0.90382909  1
  Sc  Sc52  1  0.69716847  0.69460453  0.90224348  1
  Sc  Sc53  1  0.30590657  0.10671303  0.28480215  1
  Sc  Sc54  1  0.10315428  0.69842472  0.30672457  1
  Sc  Sc55  1  0.30662983  0.49983130  0.69636665  1
  Sc  Sc56  1  0.91137027  0.50116546  0.70872149  1
  Sc  Sc57  1  0.10230100  0.30294588  0.09959875  1
  Sc  Sc58  1  0.90367565  0.10127537  0.10430342  1
  Sc  Sc59  1  0.89995499  0.30109141  0.09613123  1
  Sc  Sc60  1  0.70381471  0.50583358  0.90682156  1
  Sc  Sc61  1  0.90066332  0.68838782  0.30161778  1
  Sc  Sc62  1  0.90937359  0.29951713  0.50707343  1
  Sc  Sc63  1  0.89482672  0.90093773  0.10165980  1
  Sc  Sc64  1  0.10537906  0.09264000  0.70326572  1
  Sc  Sc65  1  0.29100737  0.10100367  0.89977765  1
  Sc  Sc66  1  0.49052560  0.70569180  0.30256661  1
  Sc  Sc67  1  0.71503394  0.49599722  0.29895691  1
  Sc  Sc68  1  0.29771240  0.70199611  0.30156851  1
  Sc  Sc69  1  0.29378724  0.89701408  0.10436840  1
  Sc  Sc70  1  0.70620832  0.50184017  0.49445230  1
  Sc  Sc71  1  0.70867792  0.30778951  0.29854791  1
  Sc  Sc72  1  0.50623398  0.29089003  0.49971690  1
  Sc  Sc73  1  0.49946977  0.50504943  0.69375279  1
  Sc  Sc74  1  0.69296842  0.70501488  0.50400288  1
  Sc  Sc75  1  0.10258591  0.30384271  0.29513472  1
  Sc  Sc76  1  0.30289070  0.69274904  0.90238588  1
  Sc  Sc77  1  0.30585568  0.89900410  0.69549867  1
  Sc  Sc78  1  0.49790437  0.10688283  0.89957146  1
  Sc  Sc79  1  0.69693776  0.29645409  0.50631193  1
  Sc  Sc80  1  0.29561020  0.08641144  0.50576097  1
  Sc  Sc81  1  0.30271801  0.08685284  0.70460083  1
  Sc  Sc82  1  0.29608200  0.89500264  0.50752168  1
  Sc  Sc83  1  0.49546998  0.70301167  0.90243133  1
  Sc  Sc84  1  0.89870437  0.90111355  0.89904530  1
  Sc  Sc85  1  0.90205360  0.49890129  0.90861984  1
  Sc  Sc86  1  0.30630918  0.29466208  0.90180965  1
  Sc  Sc87  1  0.70862637  0.10530822  0.09289198  1
  Sc  Sc88  1  0.90229226  0.49897995  0.48907205  1
  Sc  Sc89  1  0.50040745  0.10563771  0.30640337  1
  Sc  Sc90  1  0.10056595  0.50268063  0.90398446  1
  Sc  Sc91  1  0.10417278  0.09131550  0.09543974  1
  Sc  Sc92  1  0.49891207  0.89152116  0.50153922  1
  Sc  Sc93  1  0.28893215  0.50717134  0.30574356  1
  Sc  Sc94  1  0.50117311  0.30406398  0.09162515  1
  Sc  Sc95  1  0.49986047  0.30002137  0.69804917  1
  Sc  Sc96  1  0.49708471  0.70446960  0.09058799  1
  Sc  Sc97  1  0.29507216  0.70298900  0.70006729  1
  Sc  Sc98  1  0.49539641  0.69955620  0.50183824  1
  Sc  Sc99  1  0.69872388  0.88513255  0.09954806  1
  Nb  Nb100  1  0.09951156  0.70836312  0.09660171  1
  Nb  Nb101  1  0.30383798  0.09830564  0.09753001  1
  Nb  Nb102  1  0.70080020  0.69410167  0.09968220  1
  Nb  Nb103  1  0.89767190  0.10296207  0.50773187  1
  Nb  Nb104  1  0.50151346  0.90159729  0.90107855  1
  Nb  Nb105  1  0.50350105  0.09805905  0.49757043  1
  Nb  Nb106  1  0.30215130  0.50017591  0.08851089  1
  Nb  Nb107  1  0.89840110  0.10126250  0.68925833  1
  Nb  Nb108  1  0.70032072  0.90218516  0.49719682  1
  Nb  Nb109  1  0.89795187  0.70132351  0.69575911  1
  Nb  Nb110  1  0.49520095  0.50487586  0.49329940  1
  Nb  Nb111  1  0.49221864  0.90619723  0.70420634  1
  Nb  Nb112  1  0.49617845  0.09185614  0.69291274  1
  Nb  Nb113  1  0.10359318  0.49872103  0.50275064  1
  Nb  Nb114  1  0.09679591  0.09705290  0.89903024  1
  Nb  Nb115  1  0.30021888  0.29817522  0.30017817  1
  Nb  Nb116  1  0.10062500  0.88935945  0.10044037  1
  Nb  Nb117  1  0.89889936  0.49991072  0.30601760  1
  Nb  Nb118  1  0.89760719  0.89802136  0.29580527  1
  Nb  Nb119  1  0.49959011  0.49414080  0.10101558  1
  Nb  Nb120  1  0.49951359  0.49843625  0.29525200  1
  Nb  Nb121  1  0.29984502  0.49516018  0.90760766  1
  Nb  Nb122  1  0.29951193  0.29890529  0.69664198  1
  Nb  Nb123  1  0.69272494  0.50111248  0.10131886  1
  Nb  Nb124  1  0.69960505  0.30607655  0.70058487  1
  Nb  Nb125  1  0.60365546  0.20127332  0.19800373  1
  Nb  Nb126  1  0.59373102  0.40653693  0.39632622  1
  Nb  Nb127  1  0.00152942  0.19236128  0.80361188  1
  Nb  Nb128  1  0.39914402  0.00131782  0.00313388  1
  Nb  Nb129  1  0.80365068  0.60032803  0.60501266  1
  Nb  Nb130  1  0.00179019  0.80038800  0.19864317  1
  Nb  Nb131  1  0.20685504  0.39872334  0.80002614  1
  Nb  Nb132  1  0.59870494  0.00334678  0.19735850  1
  Nb  Nb133  1  0.80777128  0.19336469  0.40318123  1
  Nb  Nb134  1  0.79746089  0.40364435  0.60890171  1
  Nb  Nb135  1  0.40185839  -0.00047087  0.39940284  1
  Nb  Nb136  1  0.59592946  0.81104323  0.79994395  1
  Nb  Nb137  1  0.59572631  -0.00024378  0.79328962  1
  Nb  Nb138  1  0.59559912  0.59454631  0.39183891  1
  Nb  Nb139  1  0.80126129  0.80802588  0.40071273  1
  Nb  Nb140  1  0.40201258  0.40269616  0.39538692  1
  Nb  Nb141  1  0.80354580  -0.00032977  0.40247098  1
  Nb  Nb142  1  0.20327807  0.20253580  0.59914299  1
  Nb  Nb143  1  0.39686070  0.19389430  0.59989096  1
  Nb  Nb144  1  0.40164564  0.59128500  0.19389064  1
  Nb  Nb145  1  0.20159213  0.20136577  0.40133443  1
  Nb  Nb146  1  0.39563017  0.40389969  0.20085774  1
  Nb  Nb147  1  0.59744139  -0.00093308  0.60037986  1
  Nb  Nb148  1  0.60231844  0.39992315  0.80012539  1
  Nb  Nb149  1  0.59752283  0.59395640  0.19725815  1
  Pd  Pd150  1  0.00622507  -0.00198674  0.60826360  1
  Pd  Pd151  1  0.19643027  0.20339462  0.79276392  1
  Pd  Pd152  1  0.19997386  0.19372683  0.00442292  1
  Pd  Pd153  1  0.00089818  0.19621264  0.00056761  1
  Pd  Pd154  1  0.19981709  0.00234326  0.19528996  1
  Pd  Pd155  1  0.39766454  0.60049730  0.79865349  1
  Pd  Pd156  1  0.60100519  0.40752417  0.59675749  1
  Pd  Pd157  1  0.00453989  0.20577186  0.19334116  1
  Pd  Pd158  1  -0.00479752  0.79905391  0.39302011  1
  Pd  Pd159  1  0.40651220  -0.00177626  0.20010422  1
  Pd  Pd160  1  0.79700158  0.79749405  -0.00519485  1
  Pd  Pd161  1  0.59441775  0.80741327  0.60536283  1
  Pd  Pd162  1  0.60292474  0.40200190  -0.01181427  1
  Pd  Pd163  1  0.20368862  -0.00793437  0.80208799  1
  Pd  Pd164  1  0.79562612  0.79565845  0.80964015  1
  Pd  Pd165  1  -0.00352419  -0.00352316  0.00841098  1
  Pd  Pd166  1  0.79428344  0.41182441  0.79725771  1
  Pd  Pd167  1  0.38885106  0.19341133  0.41105931  1
  Pd  Pd168  1  0.00226285  0.20442827  0.39925984  1
  Pd  Pd169  1  -0.00582855  0.79804013  0.80665952  1
  Pd  Pd170  1  0.80849395  0.59805537  0.79977607  1
  Pd  Pd171  1  0.39618001  0.60762700  0.60166990  1
  Pd  Pd172  1  0.79915354  0.20418618  0.20494995  1
  Pd  Pd173  1  0.40104938  0.40122346  0.79803457  1
  Pd  Pd174  1  -0.00571022  -0.00189175  0.40101086  1
  Pd  Pd175  1  -0.00180861  0.40098983  0.19441511  1
  Pd  Pd176  1  0.20537936  0.59182259  0.80357290  1
  Pd  Pd177  1  0.01012421  0.39727020  0.80846625  1
  Pd  Pd178  1  0.00496715  0.60718442  0.20042942  1
  Pd  Pd179  1  0.20295854  0.60332961  0.19846298  1
  Pd  Pd180  1  0.39895169  0.19318464  0.79267521  1
  Pd  Pd181  1  0.59252199  0.79329541  0.19582838  1
  Pd  Pd182  1  0.80815145  0.40415257  0.19320388  1
  Pd  Pd183  1  0.79715634  0.59801018  0.19696938  1
  Pd  Pd184  1  0.40907037  0.39453170  0.59278913  1
  Pd  Pd185  1  0.80977264  0.19715113  0.80094532  1
  Pd  Pd186  1  0.59428941  0.60225548  0.00278820  1
  Pd  Pd187  1  0.80062537  -0.00174314  0.00776940  1
  Pd  Pd188  1  0.39428582  0.80557494  0.40584715  1
  Pd  Pd189  1  0.20971647  0.00787578  0.39155285  1
  Pd  Pd190  1  0.59344845  0.20097403  0.79267428  1
  Pd  Pd191  1  -0.00218672  0.60330034  0.80877673  1
  Pd  Pd192  1  0.59555418  0.00475713  0.00228077  1
  Pd  Pd193  1  -0.00447892  0.00301455  0.79236839  1
  Pd  Pd194  1  0.20539187  0.40523962  0.20223912  1
  Pd  Pd195  1  0.40324388  0.79407542  0.79782437  1
  Pd  Pd196  1  0.20356108  0.80135015  0.80523802  1
  Pd  Pd197  1  0.00173635  0.79989636  0.60185411  1
  Pd  Pd198  1  0.79129051  -0.00153574  0.19690083  1
  Pd  Pd199  1  0.20921930  0.80585273  -0.00925097  1
  Rh  Rh200  1  0.39724496  0.78970482  0.19443083  1
  Rh  Rh201  1  0.19982436  0.79911259  0.40103855  1
  Rh  Rh202  1  0.00616665  0.59434689  0.40260474  1
  Rh  Rh203  1  0.61241524  0.21580249  0.39072904  1
  Rh  Rh204  1  0.40449186  0.00602685  0.81406386  1
  Rh  Rh205  1  0.39996449  0.60081971  0.00477922  1
  Rh  Rh206  1  0.39304245  0.80872632  -0.00056688  1
  Rh  Rh207  1  0.20297268  0.39778345  -0.00683673  1
  Rh  Rh208  1  0.60629322  0.79511049  -0.00796549  1
  Rh  Rh209  1  0.80317052  0.79087021  0.59109583  1
  Rh  Rh210  1  0.40155772  0.59744467  0.39270322  1
  Rh  Rh211  1  0.80953751  0.79118600  0.20543299  1
  Rh  Rh212  1  0.60276817  0.79241982  0.40069428  1
  Rh  Rh213  1  0.58853731  0.59859898  0.81180524  1
  Rh  Rh214  1  0.40473977  0.20911020  0.19111210  1
  Rh  Rh215  1  0.20268876  0.40187534  0.60959558  1
  Rh  Rh216  1  0.20112873  0.39767100  0.39210874  1
  Rh  Rh217  1  0.40691597  -0.00076779  0.58689576  1
  Rh  Rh218  1  0.00941399  0.19165890  0.60932201  1
  Rh  Rh219  1  0.19461665  -0.00281041  0.60590141  1
  Rh  Rh220  1  0.79956139  0.40654038  0.00417650  1
  Rh  Rh221  1  0.19542941  0.19532003  0.20183006  1
  Rh  Rh222  1  0.59041870  0.19499056  0.60783329  1
  Rh  Rh223  1  0.19732245  0.79714693  0.60256917  1
  Rh  Rh224  1  0.19186661  0.79428155  0.20525795  1
  Rh  Rh225  1  0.20662349  -0.00273830  -0.00026007  1
  Rh  Rh226  1  0.79360516  0.00461997  0.59662476  1
  Rh  Rh227  1  0.00175309  0.40300413  0.40133129  1
  Rh  Rh228  1  0.60491687  0.59425283  0.58449391  1
  Rh  Rh229  1  0.39375421  0.39181953  0.00559192  1
  Rh  Rh230  1  0.40008077  0.79599441  0.60381423  1
  Rh  Rh231  1  -0.00692894  0.59463603  0.59674844  1
  Rh  Rh232  1  0.00512305  0.40290801  0.00490083  1
  Rh  Rh233  1  0.59299981  -0.01038743  0.40193399  1
  Rh  Rh234  1  0.00352203  -0.01095203  0.19220169  1
  Rh  Rh235  1  0.80264011  0.21212525  0.59494075  1
  Rh  Rh236  1  0.80621447  0.20142787  -0.00074842  1
  Rh  Rh237  1  0.59966018  0.39711699  0.20394004  1
  Rh  Rh238  1  0.19784814  0.60292319  -0.00295255  1
  Rh  Rh239  1  -0.01002636  0.41306213  0.59611433  1
  Rh  Rh240  1  0.60526193  0.20230665  0.00488152  1
  Rh  Rh241  1  0.79749544  0.00630105  0.79445222  1
  Rh  Rh242  1  0.79841000  0.38696000  0.41265456  1
  Rh  Rh243  1  0.79163299  0.61139144  0.40770599  1
  Rh  Rh244  1  0.19346352  0.60080066  0.40308671  1
  Rh  Rh245  1  0.20320333  0.60095463  0.60412325  1
  Rh  Rh246  1  0.79871074  0.59952031  0.00586790  1
  Rh  Rh247  1  0.00481127  0.60164012  -0.00077716  1
  Rh  Rh248  1  0.39422329  0.19567086  -0.00036177  1
  Rh  Rh249  1  -0.00518325  0.80633224  0.00351457  1
