# generated using pymatgen
data_ZrScNbPdRh
_symmetry_space_group_name_H-M   'P 1'
_cell_length_a   16.55467803
_cell_length_b   16.55794642
_cell_length_c   16.55799376
_cell_angle_alpha   89.99175399
_cell_angle_beta   90.04904074
_cell_angle_gamma   90.01055886
_symmetry_Int_Tables_number   1
_chemical_formula_structural   ZrScNbPdRh
_chemical_formula_sum   'Zr50 Sc50 Nb50 Pd50 Rh50'
_cell_volume   4538.73425340
_cell_formula_units_Z   50
loop_
 _symmetry_equiv_pos_site_id
 _symmetry_equiv_pos_as_xyz
  1  'x, y, z'
loop_
 _atom_site_type_symbol
 _atom_site_label
 _atom_site_symmetry_multiplicity
 _atom_site_fract_x
 _atom_site_fract_y
 _atom_site_fract_z
 _atom_site_occupancy
  Zr  Zr0  1  0.30013528  0.68672721  0.30307758  1
  Zr  Zr1  1  0.50033222  0.09749893  0.10372160  1
  Zr  Zr2  1  0.28984905  0.49844374  0.70103177  1
  Zr  Zr3  1  0.69888975  0.10614187  0.49417147  1
  Zr  Zr4  1  0.29434638  0.69816069  0.09961076  1
  Zr  Zr5  1  0.10234758  0.69301023  0.90051575  1
  Zr  Zr6  1  0.90195793  0.09992535  0.29723286  1
  Zr  Zr7  1  0.09849885  0.90211419  0.30027580  1
  Zr  Zr8  1  0.10136003  0.50494576  0.30311330  1
  Zr  Zr9  1  0.50345007  0.49717540  0.90189885  1
  Zr  Zr10  1  0.30097533  0.89735792  0.68231077  1
  Zr  Zr11  1  0.50757081  0.70283658  0.10219873  1
  Zr  Zr12  1  0.69804346  0.90373031  0.50316222  1
  Zr  Zr13  1  0.30380212  0.10590088  0.30096735  1
  Zr  Zr14  1  0.10181509  0.89809426  0.10314037  1
  Zr  Zr15  1  0.50659981  0.90196342  0.89836786  1
  Zr  Zr16  1  0.89859002  0.69823872  0.89662720  1
  Zr  Zr17  1  0.30082552  0.90433348  0.10101137  1
  Zr  Zr18  1  0.89837727  0.30377391  0.10123881  1
  Zr  Zr19  1  0.90493816  0.69634398  0.50686889  1
  Zr  Zr20  1  0.30534455  0.10164056  0.09121337  1
  Zr  Zr21  1  0.10490003  0.69465458  0.10251311  1
  Zr  Zr22  1  0.30419616  0.89906586  0.89778528  1
  Zr  Zr23  1  0.70800437  0.70116581  0.89847614  1
  Zr  Zr24  1  0.29762545  0.70836603  0.50562655  1
  Zr  Zr25  1  0.30152961  0.70852451  0.70335751  1
  Zr  Zr26  1  0.50388745  0.48402424  0.10405631  1
  Zr  Zr27  1  0.30117303  0.30186868  0.50703641  1
  Zr  Zr28  1  0.90063822  0.50592798  0.89858743  1
  Zr  Zr29  1  0.49574568  0.49679237  0.49859127  1
  Zr  Zr30  1  0.90139256  0.69246703  0.09776760  1
  Zr  Zr31  1  0.09102649  0.10224222  0.69756510  1
  Zr  Zr32  1  0.69705873  0.09589389  0.69589113  1
  Zr  Zr33  1  0.09468530  0.10204131  0.30175653  1
  Zr  Zr34  1  0.50495345  0.29844580  0.50347768  1
  Zr  Zr35  1  0.70054162  0.89933400  0.29486489  1
  Zr  Zr36  1  0.90762005  0.09935910  0.10128379  1
  Zr  Zr37  1  0.89821796  0.29977038  0.70071615  1
  Zr  Zr38  1  0.49370393  0.49912266  0.30120244  1
  Zr  Zr39  1  0.10397016  0.10266177  0.89903053  1
  Zr  Zr40  1  0.89300038  0.49611861  0.09835991  1
  Zr  Zr41  1  0.89298434  0.89450735  0.88489377  1
  Zr  Zr42  1  0.10406668  0.29442355  0.30051453  1
  Zr  Zr43  1  0.69581751  0.09576687  0.30056201  1
  Zr  Zr44  1  0.89647093  0.08940355  0.70138336  1
  Zr  Zr45  1  0.50158088  0.30035286  0.90605298  1
  Zr  Zr46  1  0.50363260  0.70072718  0.89620756  1
  Zr  Zr47  1  0.29982295  0.50406862  0.49634974  1
  Zr  Zr48  1  0.09478906  0.89662590  0.50505344  1
  Zr  Zr49  1  0.90126596  0.50679355  0.29456130  1
  Sc  Sc50  1  0.70521498  0.50473084  0.50267899  1
  Sc  Sc51  1  0.90105718  0.90234979  0.09415225  1
  Sc  Sc52  1  0.09478025  0.69437459  0.69566317  1
  Sc  Sc53  1  0.49047272  0.90369151  0.49800187  1
  Sc  Sc54  1  0.51155506  0.50399520  0.69938144  1
  Sc  Sc55  1  0.09522512  0.10123416  0.49954515  1
  Sc  Sc56  1  0.09517670  0.69508875  0.49880395  1
  Sc  Sc57  1  0.50599808  0.70440982  0.49334248  1
  Sc  Sc58  1  0.49970189  0.89997810  0.69230456  1
  Sc  Sc59  1  0.50114912  0.29485503  0.09833860  1
  Sc  Sc60  1  0.29623030  0.29824579  0.90174212  1
  Sc  Sc61  1  0.70322049  0.90599548  0.69453201  1
  Sc  Sc62  1  0.09219260  0.29104984  0.49831519  1
  Sc  Sc63  1  0.09831524  0.50682273  0.50673078  1
  Sc  Sc64  1  0.69678398  0.30742871  0.09696147  1
  Sc  Sc65  1  0.08652108  0.90118294  0.90359124  1
  Sc  Sc66  1  0.89477319  0.08806256  0.90199969  1
  Sc  Sc67  1  0.70047471  0.09869886  0.09431300  1
  Sc  Sc68  1  0.10676951  0.30966643  0.09958594  1
  Sc  Sc69  1  0.68907569  0.89990551  0.10079207  1
  Sc  Sc70  1  0.08865890  0.90288158  0.69553917  1
  Sc  Sc71  1  0.50131464  0.10193270  0.49715937  1
  Sc  Sc72  1  0.70308915  0.50782502  0.69472960  1
  Sc  Sc73  1  0.30025145  0.29442193  0.29568832  1
  Sc  Sc74  1  0.69983258  0.28813034  0.90721431  1
  Sc  Sc75  1  0.90417017  0.09622312  0.49695703  1
  Sc  Sc76  1  0.30404747  0.49736539  0.29886795  1
  Sc  Sc77  1  0.70486327  0.71287740  0.10438333  1
  Sc  Sc78  1  0.50953650  0.10492015  0.69838101  1
  Sc  Sc79  1  0.89861979  0.50875392  0.69761601  1
  Sc  Sc80  1  0.70667664  0.50809681  0.90407660  1
  Sc  Sc81  1  0.29982205  0.30290166  0.71017417  1
  Sc  Sc82  1  0.69965490  0.69534749  0.69332599  1
  Sc  Sc83  1  0.70172725  0.29078202  0.30599142  1
  Sc  Sc84  1  0.30160974  0.30077874  0.10171259  1
  Sc  Sc85  1  0.50184579  0.29795856  0.69865950  1
  Sc  Sc86  1  0.09730700  0.49832743  0.71034033  1
  Sc  Sc87  1  0.30652042  0.90269878  0.29966755  1
  Sc  Sc88  1  0.89433268  0.49799600  0.50085993  1
  Sc  Sc89  1  0.69644906  0.09370000  0.89067271  1
  Sc  Sc90  1  0.90531924  0.30440729  0.30668713  1
  Sc  Sc91  1  0.10012399  0.09509137  0.10343896  1
  Sc  Sc92  1  0.90269430  0.90764755  0.30309501  1
  Sc  Sc93  1  0.89605717  0.31030472  0.90630561  1
  Sc  Sc94  1  0.10372137  0.49428999  0.89763578  1
  Sc  Sc95  1  0.69455208  0.29340793  0.69685992  1
  Sc  Sc96  1  0.50512493  0.10519212  0.90186018  1
  Sc  Sc97  1  0.50379572  0.90848927  0.29984616  1
  Sc  Sc98  1  0.29277326  0.49216171  0.10569135  1
  Sc  Sc99  1  0.30578439  0.10004003  0.50242839  1
  Nb  Nb100  1  0.50140373  0.89537833  0.09948718  1
  Nb  Nb101  1  0.69741301  0.50193152  0.29707326  1
  Nb  Nb102  1  0.09800560  0.30327550  0.89309300  1
  Nb  Nb103  1  0.09559907  0.69504303  0.30291670  1
  Nb  Nb104  1  0.29365105  0.10234222  0.70652972  1
  Nb  Nb105  1  0.30118196  0.69921220  0.89886889  1
  Nb  Nb106  1  0.49758966  0.70138318  0.70287795  1
  Nb  Nb107  1  0.69723756  0.89588334  0.89291720  1
  Nb  Nb108  1  0.10195691  0.49789057  0.10593666  1
  Nb  Nb109  1  0.29997701  0.50259304  0.89482872  1
  Nb  Nb110  1  0.89760205  0.89600229  0.69076895  1
  Nb  Nb111  1  0.69999230  0.70051679  0.30458595  1
  Nb  Nb112  1  0.89988159  0.89479140  0.50660217  1
  Nb  Nb113  1  0.70749394  0.30256602  0.49745291  1
  Nb  Nb114  1  0.50184941  0.69815484  0.29875407  1
  Nb  Nb115  1  0.89769816  0.70282500  0.70398759  1
  Nb  Nb116  1  0.50184615  0.11125009  0.29989000  1
  Nb  Nb117  1  0.89084958  0.30312433  0.50348556  1
  Nb  Nb118  1  0.70260470  0.70326951  0.49058526  1
  Nb  Nb119  1  0.29679837  0.90061693  0.49707688  1
  Nb  Nb120  1  0.90274192  0.69626491  0.29933414  1
  Nb  Nb121  1  0.50385276  0.29862876  0.29376253  1
  Nb  Nb122  1  0.69784762  0.49757625  0.10511440  1
  Nb  Nb123  1  0.29886536  0.10193953  0.89545423  1
  Nb  Nb124  1  0.09649098  0.30151658  0.70679727  1
  Nb  Nb125  1  0.60095568  0.59855156  0.00920143  1
  Nb  Nb126  1  0.39917526  0.59954334  -0.00266882  1
  Nb  Nb127  1  0.40531051  0.79710233  0.19756697  1
  Nb  Nb128  1  0.60410057  0.60049461  0.20520923  1
  Nb  Nb129  1  0.60215921  0.39842120  0.39839052  1
  Nb  Nb130  1  0.20419344  -0.00100210  0.79693149  1
  Nb  Nb131  1  0.40176162  0.79804866  0.00310461  1
  Nb  Nb132  1  0.00050640  0.79044115  0.20460724  1
  Nb  Nb133  1  0.19842687  0.80165791  0.39957386  1
  Nb  Nb134  1  0.60746797  0.40071066  0.80404985  1
  Nb  Nb135  1  0.80073743  0.79437877  0.40082200  1
  Nb  Nb136  1  0.40125656  0.60565990  0.60628993  1
  Nb  Nb137  1  0.79481595  0.40088819  0.79863211  1
  Nb  Nb138  1  0.80421023  0.19788163  0.20088989  1
  Nb  Nb139  1  0.39778450  0.60106620  0.80022113  1
  Nb  Nb140  1  -0.00134716  0.20348648  0.80582029  1
  Nb  Nb141  1  0.60208105  0.79934632  0.79731007  1
  Nb  Nb142  1  0.20255173  -0.00349190  0.40372721  1
  Nb  Nb143  1  0.20130329  0.80347876  0.79933093  1
  Nb  Nb144  1  0.19763430  0.20131428  0.60876913  1
  Nb  Nb145  1  -0.00356098  0.39309336  0.60269375  1
  Nb  Nb146  1  0.19924195  0.39713979  0.40311082  1
  Nb  Nb147  1  0.80160278  0.20170270  0.59417311  1
  Nb  Nb148  1  0.39379840  0.00560478  0.79683542  1
  Nb  Nb149  1  0.00352412  0.20466801  -0.00483886  1
  Pd  Pd150  1  0.38963173  0.40176143  0.00185212  1
  Pd  Pd151  1  0.40639888  0.00009940  -0.00752532  1
  Pd  Pd152  1  0.00696603  0.79636317  0.79407895  1
  Pd  Pd153  1  -0.00855648  0.20112365  0.40238587  1
  Pd  Pd154  1  0.80265828  0.20251014  0.79895830  1
  Pd  Pd155  1  0.79470070  0.40497111  0.39205084  1
  Pd  Pd156  1  -0.00286502  0.79853656  0.39664891  1
  Pd  Pd157  1  0.40310080  0.40826307  0.61187663  1
  Pd  Pd158  1  0.60925138  0.40028841  0.59978552  1
  Pd  Pd159  1  0.00450561  0.39864359  0.20176495  1
  Pd  Pd160  1  0.19554252  0.20620470  0.00390536  1
  Pd  Pd161  1  0.40255953  0.20532411  0.40148084  1
  Pd  Pd162  1  0.59689972  0.60588212  0.59166791  1
  Pd  Pd163  1  0.40539256  0.59931783  0.19037702  1
  Pd  Pd164  1  0.20029556  0.60393949  0.60368969  1
  Pd  Pd165  1  0.40546415  -0.00092589  0.20495484  1
  Pd  Pd166  1  0.79908739  0.00202897  0.19242618  1
  Pd  Pd167  1  0.79155978  0.60392380  0.19724079  1
  Pd  Pd168  1  0.39501125  0.19670655  0.60837625  1
  Pd  Pd169  1  0.00596419  0.40111168  -0.00036547  1
  Pd  Pd170  1  0.19582349  -0.00370134  -0.00688470  1
  Pd  Pd171  1  0.59352958  -0.00078467  0.40237054  1
  Pd  Pd172  1  0.18616791  0.39172323  0.59544558  1
  Pd  Pd173  1  0.39723500  0.79825136  0.39292668  1
  Pd  Pd174  1  0.80109901  0.80749887  0.00247040  1
  Pd  Pd175  1  0.20304261  0.00821346  0.20677112  1
  Pd  Pd176  1  0.60114796  0.80805018  0.39698156  1
  Pd  Pd177  1  0.40810173  0.40541388  0.79365837  1
  Pd  Pd178  1  0.00560430  0.40609457  0.41080738  1
  Pd  Pd179  1  0.80425888  -0.00651804  0.40593903  1
  Pd  Pd180  1  0.20248002  0.79600128  0.21224830  1
  Pd  Pd181  1  0.79563597  0.79492237  0.59832958  1
  Pd  Pd182  1  0.59912034  0.59247662  0.39896495  1
  Pd  Pd183  1  0.79290082  -0.00732178  -0.00323353  1
  Pd  Pd184  1  0.59792422  0.79842914  0.60292843  1
  Pd  Pd185  1  0.80404324  0.60119438  0.40114148  1
  Pd  Pd186  1  0.61087721  0.20046897  0.19337079  1
  Pd  Pd187  1  0.81095561  0.80356121  0.20659240  1
  Pd  Pd188  1  0.60353725  0.00251880  -0.00066600  1
  Pd  Pd189  1  0.00695233  0.58911857  0.00176631  1
  Pd  Pd190  1  0.19652616  0.00863390  0.59773661  1
  Pd  Pd191  1  0.79397830  0.39019118  0.20973432  1
  Pd  Pd192  1  0.19925132  0.19585673  0.18994706  1
  Pd  Pd193  1  0.20089923  0.80479924  -0.00847329  1
  Pd  Pd194  1  -0.00293107  0.79875392  0.00492198  1
  Pd  Pd195  1  0.39812373  0.38799987  0.39334261  1
  Pd  Pd196  1  0.40510128  0.01009896  0.60464043  1
  Pd  Pd197  1  0.20368374  0.58705634  -0.00049501  1
  Pd  Pd198  1  0.80519113  0.19739109  0.00477339  1
  Pd  Pd199  1  0.40647880  0.19616282  0.80130494  1
  Rh  Rh200  1  0.19761695  0.59382188  0.20253761  1
  Rh  Rh201  1  0.59548707  0.00062819  0.59406936  1
  Rh  Rh202  1  0.80097542  0.39554279  0.60890684  1
  Rh  Rh203  1  0.80181524  0.59906859  0.79370146  1
  Rh  Rh204  1  0.20352425  0.39746148  0.80560050  1
  Rh  Rh205  1  0.59450233  -0.00744649  0.79335481  1
  Rh  Rh206  1  0.59538632  0.79852188  0.21165571  1
  Rh  Rh207  1  0.80296550  0.00675456  0.59320292  1
  Rh  Rh208  1  -0.00029289  0.60244773  0.80013197  1
  Rh  Rh209  1  -0.01064591  0.39916063  0.79605256  1
  Rh  Rh210  1  0.59547640  0.20789248  0.40032398  1
  Rh  Rh211  1  0.60676333  0.20100786  0.59401414  1
  Rh  Rh212  1  0.79387552  0.40548748  -0.00525643  1
  Rh  Rh213  1  0.40351547  0.20090344  0.19682319  1
  Rh  Rh214  1  -0.00560323  0.59433380  0.40371232  1
  Rh  Rh215  1  0.40195066  0.60760882  0.41147586  1
  Rh  Rh216  1  0.00316058  0.60013259  0.19586289  1
  Rh  Rh217  1  0.79535184  -0.00762069  0.79663248  1
  Rh  Rh218  1  0.60026076  0.19427379  0.00348346  1
  Rh  Rh219  1  0.00109101  0.00327412  0.80262175  1
  Rh  Rh220  1  0.60236578  0.79822320  -0.00963367  1
  Rh  Rh221  1  0.40979959  0.79518822  0.58961411  1
  Rh  Rh222  1  0.00181028  0.00512583  0.00027802  1
  Rh  Rh223  1  0.40395154  0.80499610  0.80429193  1
  Rh  Rh224  1  0.59616307  0.00337137  0.19959684  1
  Rh  Rh225  1  -0.00073780  -0.01150494  0.19616027  1
  Rh  Rh226  1  0.19288876  0.19962683  0.79644269  1
  Rh  Rh227  1  -0.00410613  0.20631995  0.60542557  1
  Rh  Rh228  1  0.60025227  0.60093833  0.80489953  1
  Rh  Rh229  1  0.20661369  0.19936967  0.41383180  1
  Rh  Rh230  1  0.80689827  0.19740142  0.39843437  1
  Rh  Rh231  1  -0.00825779  -0.00318999  0.59452520  1
  Rh  Rh232  1  0.60995012  0.40405452  -0.00861324  1
  Rh  Rh233  1  -0.00364266  0.59340443  0.60351844  1
  Rh  Rh234  1  0.19955062  0.40071436  0.21118858  1
  Rh  Rh235  1  0.60296837  0.39931819  0.21155544  1
  Rh  Rh236  1  0.18843809  0.79855693  0.59932547  1
  Rh  Rh237  1  -0.00236212  0.20994322  0.19139675  1
  Rh  Rh238  1  0.00392830  -0.00126872  0.40614250  1
  Rh  Rh239  1  -0.00067424  0.79467734  0.60630221  1
  Rh  Rh240  1  0.39944256  0.19988788  -0.00166819  1
  Rh  Rh241  1  0.20092727  0.40178166  -0.00454707  1
  Rh  Rh242  1  0.19947244  0.59843779  0.40150864  1
  Rh  Rh243  1  0.39937572  0.39119413  0.20054460  1
  Rh  Rh244  1  0.39724862  0.00730280  0.39686027  1
  Rh  Rh245  1  0.79135177  0.80035306  0.78712384  1
  Rh  Rh246  1  0.80074436  0.60834512  0.59777182  1
  Rh  Rh247  1  0.79163558  0.60010660  0.01156345  1
  Rh  Rh248  1  0.59721288  0.20841005  0.80397803  1
  Rh  Rh249  1  0.20186879  0.60727658  0.79842557  1
