# generated using pymatgen
data_ZrScNbPdRh
_symmetry_space_group_name_H-M   'P 1'
_cell_length_a   16.55521455
_cell_length_b   16.55533275
_cell_length_c   16.55581020
_cell_angle_alpha   90.00326691
_cell_angle_beta   90.00362694
_cell_angle_gamma   89.97557385
_symmetry_Int_Tables_number   1
_chemical_formula_structural   ZrScNbPdRh
_chemical_formula_sum   'Zr50 Sc50 Nb50 Pd50 Rh50'
_cell_volume   4537.56778185
_cell_formula_units_Z   50
loop_
 _symmetry_equiv_pos_site_id
 _symmetry_equiv_pos_as_xyz
  1  'x, y, z'
loop_
 _atom_site_type_symbol
 _atom_site_label
 _atom_site_symmetry_multiplicity
 _atom_site_fract_x
 _atom_site_fract_y
 _atom_site_fract_z
 _atom_site_occupancy
  Zr  Zr0  1  0.69902014  0.09873876  0.90015030  1
  Zr  Zr1  1  0.69833757  0.30441714  0.29557949  1
  Zr  Zr2  1  0.89747218  0.10645277  0.69902561  1
  Zr  Zr3  1  0.29460021  0.70554290  0.29661182  1
  Zr  Zr4  1  0.69642206  0.10293481  0.70267467  1
  Zr  Zr5  1  0.89537599  0.50704911  0.70677193  1
  Zr  Zr6  1  0.70717903  0.70371643  0.30128770  1
  Zr  Zr7  1  0.10227648  0.09516350  0.10733712  1
  Zr  Zr8  1  0.89988826  0.89570448  0.90144288  1
  Zr  Zr9  1  0.50384906  0.89006587  0.89391367  1
  Zr  Zr10  1  0.50766365  0.29768721  0.10525034  1
  Zr  Zr11  1  0.70087435  0.90530109  0.89448753  1
  Zr  Zr12  1  0.10124669  0.90141546  0.49752584  1
  Zr  Zr13  1  0.29613494  0.89695558  0.89792305  1
  Zr  Zr14  1  0.69784209  0.10037082  0.10282359  1
  Zr  Zr15  1  0.69968130  0.89844786  0.48674209  1
  Zr  Zr16  1  0.30562683  0.09991744  0.50329528  1
  Zr  Zr17  1  0.30312071  0.29934093  0.89679729  1
  Zr  Zr18  1  0.70185183  0.48501145  0.10176634  1
  Zr  Zr19  1  0.09765806  0.50245285  0.70323947  1
  Zr  Zr20  1  0.49849607  0.49595414  0.10546771  1
  Zr  Zr21  1  0.09761193  0.89412360  0.70744163  1
  Zr  Zr22  1  0.89441123  0.89489946  0.30435380  1
  Zr  Zr23  1  0.09947821  0.90105884  0.29493875  1
  Zr  Zr24  1  0.10807534  0.29659815  0.29649095  1
  Zr  Zr25  1  0.50800248  0.90783418  0.30354972  1
  Zr  Zr26  1  0.10120955  0.90203561  0.90671841  1
  Zr  Zr27  1  0.10551315  0.49998351  0.50242839  1
  Zr  Zr28  1  0.90646960  0.09329237  0.30219179  1
  Zr  Zr29  1  0.91267797  0.70096060  0.69635136  1
  Zr  Zr30  1  0.89820686  0.10497877  0.49586973  1
  Zr  Zr31  1  0.09579734  0.30189741  0.09855969  1
  Zr  Zr32  1  0.50200557  0.49919677  0.49110232  1
  Zr  Zr33  1  0.90219090  0.11017797  0.10471236  1
  Zr  Zr34  1  0.49642292  0.90176521  0.49935034  1
  Zr  Zr35  1  0.90278854  0.50456046  0.10026509  1
  Zr  Zr36  1  0.49096218  0.10018093  0.10364902  1
  Zr  Zr37  1  0.29879243  0.50197416  0.89727885  1
  Zr  Zr38  1  0.49830466  0.09338451  0.29842622  1
  Zr  Zr39  1  0.30196257  0.90512637  0.49816132  1
  Zr  Zr40  1  0.09503167  0.29921898  0.70157793  1
  Zr  Zr41  1  0.69617435  0.90319123  0.70357017  1
  Zr  Zr42  1  0.09934485  0.09922033  0.89388601  1
  Zr  Zr43  1  0.49656077  0.70355871  0.09443887  1
  Zr  Zr44  1  0.89741075  0.69694815  0.49721962  1
  Zr  Zr45  1  0.49218834  0.49937450  0.89974345  1
  Zr  Zr46  1  0.10383228  0.49741804  0.29777112  1
  Zr  Zr47  1  0.09669911  0.10079082  0.69766086  1
  Zr  Zr48  1  0.10235077  0.09812428  0.49310832  1
  Zr  Zr49  1  0.10495928  0.29640051  0.49562353  1
  Sc  Sc50  1  0.29669405  0.50587197  0.70653323  1
  Sc  Sc51  1  0.90658724  0.29622309  0.91125258  1
  Sc  Sc52  1  0.49974316  0.09941668  0.89980005  1
  Sc  Sc53  1  0.49425593  0.90083129  0.10232191  1
  Sc  Sc54  1  0.29604360  0.69635748  0.71110344  1
  Sc  Sc55  1  0.29958529  0.10052809  0.29649001  1
  Sc  Sc56  1  0.10100393  0.69426561  0.70447717  1
  Sc  Sc57  1  0.09318834  0.48859161  0.90040251  1
  Sc  Sc58  1  0.30695552  0.49129509  0.09911879  1
  Sc  Sc59  1  0.30573563  0.09105775  0.90104368  1
  Sc  Sc60  1  0.90227927  0.10294959  0.89942428  1
  Sc  Sc61  1  0.30710907  0.70809675  0.49359146  1
  Sc  Sc62  1  0.69503147  0.09462006  0.30383426  1
  Sc  Sc63  1  0.89496296  0.50143738  0.50415373  1
  Sc  Sc64  1  0.70037450  0.50436725  0.49859757  1
  Sc  Sc65  1  0.49941121  0.49693492  0.70435361  1
  Sc  Sc66  1  0.70413856  0.70006173  0.10444660  1
  Sc  Sc67  1  0.70206442  0.50289559  0.30644459  1
  Sc  Sc68  1  0.50457086  0.70802871  0.69934676  1
  Sc  Sc69  1  0.09226098  0.69624903  0.51464482  1
  Sc  Sc70  1  0.50508590  0.70813573  0.49746386  1
  Sc  Sc71  1  0.30929116  0.49385628  0.30163687  1
  Sc  Sc72  1  0.49713749  0.10466659  0.70116284  1
  Sc  Sc73  1  0.70904018  0.10377381  0.50121848  1
  Sc  Sc74  1  0.49545740  0.29181646  0.70441074  1
  Sc  Sc75  1  0.89694270  0.90197287  0.70518849  1
  Sc  Sc76  1  0.71364879  0.30199349  0.49579918  1
  Sc  Sc77  1  0.69000347  0.89138189  0.10008948  1
  Sc  Sc78  1  0.70455424  0.71118887  0.89732833  1
  Sc  Sc79  1  0.69842091  0.69963335  0.69474511  1
  Sc  Sc80  1  0.29763128  0.89829094  0.30033404  1
  Sc  Sc81  1  0.30563458  0.49270477  0.49563324  1
  Sc  Sc82  1  0.09194600  0.71203371  0.09965029  1
  Sc  Sc83  1  0.49991416  0.89731766  0.69851068  1
  Sc  Sc84  1  0.10360362  0.10182758  0.29928735  1
  Sc  Sc85  1  0.49274507  0.70137607  0.30448884  1
  Sc  Sc86  1  0.30543017  0.90546546  0.70294313  1
  Sc  Sc87  1  0.09236868  0.70400879  0.29207733  1
  Sc  Sc88  1  0.30630429  0.69965365  0.89749807  1
  Sc  Sc89  1  0.69153083  0.69795602  0.49657437  1
  Sc  Sc90  1  0.90333169  0.69945351  0.10534747  1
  Sc  Sc91  1  0.90428923  0.30489962  0.69003150  1
  Sc  Sc92  1  0.90298618  0.69989792  0.89457656  1
  Sc  Sc93  1  0.29376588  0.30033909  0.30901305  1
  Sc  Sc94  1  0.49874230  0.30501026  0.30213402  1
  Sc  Sc95  1  0.30575815  0.29334921  0.10253629  1
  Sc  Sc96  1  0.10163784  0.70577104  0.89533566  1
  Sc  Sc97  1  0.30486473  0.71447820  0.09913160  1
  Sc  Sc98  1  0.49941418  0.29693739  0.89352578  1
  Sc  Sc99  1  0.89306305  0.29099509  0.29971075  1
  Nb  Nb100  1  0.69681445  0.49538172  0.89949540  1
  Nb  Nb101  1  0.49019449  0.29684621  0.50654198  1
  Nb  Nb102  1  0.49934475  0.09721293  0.49675297  1
  Nb  Nb103  1  0.91419208  0.90215557  0.10005427  1
  Nb  Nb104  1  0.68883022  0.30226074  0.70869324  1
  Nb  Nb105  1  0.71142788  0.29737026  0.09726114  1
  Nb  Nb106  1  0.69798815  0.30321567  0.90345836  1
  Nb  Nb107  1  0.69801920  0.49814057  0.70417835  1
  Nb  Nb108  1  0.89009296  0.29964754  0.10643210  1
  Nb  Nb109  1  0.29095234  0.90884385  0.09450084  1
  Nb  Nb110  1  0.69989931  0.90131543  0.29837704  1
  Nb  Nb111  1  0.29839757  0.10116534  0.70096967  1
  Nb  Nb112  1  0.89421805  0.50701088  0.89607374  1
  Nb  Nb113  1  0.30364378  0.28900876  0.69331350  1
  Nb  Nb114  1  0.89901135  0.90369140  0.49707821  1
  Nb  Nb115  1  0.89718044  0.69290989  0.29812832  1
  Nb  Nb116  1  0.30752919  0.29998614  0.50364107  1
  Nb  Nb117  1  0.10561032  0.29439406  0.89873142  1
  Nb  Nb118  1  0.49722145  0.69618951  0.89764775  1
  Nb  Nb119  1  0.50589534  0.50037736  0.30055741  1
  Nb  Nb120  1  0.90415489  0.30032494  0.49412262  1
  Nb  Nb121  1  0.09855199  0.90002508  0.10011143  1
  Nb  Nb122  1  0.90507922  0.51906102  0.29789257  1
  Nb  Nb123  1  0.09794146  0.50331627  0.10017805  1
  Nb  Nb124  1  0.30215197  0.09764509  0.09499643  1
  Nb  Nb125  1  0.59537745  0.59611268  0.19831693  1
  Nb  Nb126  1  0.60076989  0.39421924  0.60211245  1
  Nb  Nb127  1  0.19975636  0.19740945  -0.00346803  1
  Nb  Nb128  1  0.40401701  0.60023693  0.59847834  1
  Nb  Nb129  1  0.19611677  0.59624582  0.00720699  1
  Nb  Nb130  1  -0.00354555  -0.00029919  0.59558353  1
  Nb  Nb131  1  0.20264760  0.20082139  0.79974254  1
  Nb  Nb132  1  0.59855582  0.00374975  0.59353910  1
  Nb  Nb133  1  0.80053688  -0.00734154  0.19602077  1
  Nb  Nb134  1  0.80408368  -0.00431651  0.00861312  1
  Nb  Nb135  1  0.19980966  0.60083690  0.39463064  1
  Nb  Nb136  1  0.20049479  0.80227570  0.60176487  1
  Nb  Nb137  1  0.60166114  0.59699520  -0.00198579  1
  Nb  Nb138  1  0.60274816  0.59654389  0.80799576  1
  Nb  Nb139  1  -0.00760294  0.79894756  0.40127739  1
  Nb  Nb140  1  -0.00598361  0.40218640  0.20139884  1
  Nb  Nb141  1  0.79334488  0.39983332  0.80415621  1
  Nb  Nb142  1  0.59234269  0.20105689  0.40864894  1
  Nb  Nb143  1  0.80380263  0.80430473  0.59297692  1
  Nb  Nb144  1  0.79394613  0.21163932  0.80124510  1
  Nb  Nb145  1  0.20028877  0.59965332  0.19519902  1
  Nb  Nb146  1  0.60675088  0.20523022  0.00402625  1
  Nb  Nb147  1  0.20695711  0.39087040  0.60282904  1
  Nb  Nb148  1  0.79572497  0.59323326  -0.00578530  1
  Nb  Nb149  1  -0.00346308  0.40154677  0.39430213  1
  Pd  Pd150  1  0.39715419  0.60120385  0.19838155  1
  Pd  Pd151  1  -0.00642366  0.39970295  0.00235795  1
  Pd  Pd152  1  0.19603152  -0.00691268  0.60721472  1
  Pd  Pd153  1  0.40111097  0.40662770  0.60725227  1
  Pd  Pd154  1  0.00802026  0.60198291  0.40401941  1
  Pd  Pd155  1  0.39347048  0.60173704  0.00573128  1
  Pd  Pd156  1  0.39668195  0.39744882  0.78987068  1
  Pd  Pd157  1  0.20485794  -0.00118292  0.20348716  1
  Pd  Pd158  1  0.00178137  0.60664821  -0.00692526  1
  Pd  Pd159  1  -0.00255167  0.00625481  0.00025446  1
  Pd  Pd160  1  0.39520479  0.20367899  0.20801284  1
  Pd  Pd161  1  0.80595293  0.79801456  0.00780430  1
  Pd  Pd162  1  0.40540907  -0.00006934  0.79814605  1
  Pd  Pd163  1  0.19962931  0.20073287  0.60039244  1
  Pd  Pd164  1  0.21597165  0.60354261  0.59046530  1
  Pd  Pd165  1  0.39966145  0.81085316  0.20284260  1
  Pd  Pd166  1  0.59379793  0.79226386  0.20582125  1
  Pd  Pd167  1  0.60235852  0.20010767  0.20461136  1
  Pd  Pd168  1  0.79532215  0.18976557  0.21102594  1
  Pd  Pd169  1  0.20418519  0.39488341  0.79198769  1
  Pd  Pd170  1  0.18587027  0.78806454  0.40806558  1
  Pd  Pd171  1  0.40549511  -0.00734549  -0.00349723  1
  Pd  Pd172  1  0.39088550  0.79264557  0.60767584  1
  Pd  Pd173  1  0.80112607  0.79286836  0.78821214  1
  Pd  Pd174  1  0.59908556  0.39022645  0.40934564  1
  Pd  Pd175  1  -0.00636540  -0.00125819  0.79592715  1
  Pd  Pd176  1  0.39664176  0.60110500  0.40313796  1
  Pd  Pd177  1  0.81074611  0.40817298  0.39352762  1
  Pd  Pd178  1  0.79858522  0.21256987  0.60570034  1
  Pd  Pd179  1  0.00186685  0.20604686  0.39386533  1
  Pd  Pd180  1  0.80556731  0.80549425  0.19129798  1
  Pd  Pd181  1  0.60041105  0.79413601  -0.00388462  1
  Pd  Pd182  1  0.81064910  0.40220776  -0.00695613  1
  Pd  Pd183  1  0.59238425  0.59240137  0.60722262  1
  Pd  Pd184  1  0.59880977  0.20187341  0.59237428  1
  Pd  Pd185  1  0.79805488  -0.00532466  0.59958861  1
  Pd  Pd186  1  0.39878841  0.39179542  0.20726401  1
  Pd  Pd187  1  0.20297242  0.39849978  0.00411918  1
  Pd  Pd188  1  0.40165687  0.20162703  0.39464570  1
  Pd  Pd189  1  0.00318916  0.40397104  0.59113750  1
  Pd  Pd190  1  -0.01162785  0.39457828  0.80606923  1
  Pd  Pd191  1  0.00531087  0.19815381  0.00427285  1
  Pd  Pd192  1  0.40349917  0.39047142  -0.00041972  1
  Pd  Pd193  1  0.19965319  0.79189155  0.00159412  1
  Pd  Pd194  1  0.59838721  0.00293033  0.00527916  1
  Pd  Pd195  1  0.79286463  0.39633421  0.60657431  1
  Pd  Pd196  1  0.59258369  0.39573530  -0.00179896  1
  Pd  Pd197  1  0.80874246  0.40833237  0.21302731  1
  Pd  Pd198  1  0.20148600  0.40285913  0.19233588  1
  Pd  Pd199  1  0.79558502  0.60700144  0.60011354  1
  Rh  Rh200  1  0.40425691  0.39602509  0.39692156  1
  Rh  Rh201  1  -0.00159882  -0.00321728  0.20261310  1
  Rh  Rh202  1  0.19891665  0.80166581  0.18949909  1
  Rh  Rh203  1  0.39439506  -0.00054691  0.39595873  1
  Rh  Rh204  1  0.39179431  0.19385992  0.80180774  1
  Rh  Rh205  1  0.00337331  -0.00553675  0.40084737  1
  Rh  Rh206  1  0.40299163  0.19152929  0.60077782  1
  Rh  Rh207  1  0.79573389  0.19633675  -0.00570072  1
  Rh  Rh208  1  0.59767340  0.79822177  0.39306281  1
  Rh  Rh209  1  -0.00095880  0.81182099  0.59436911  1
  Rh  Rh210  1  -0.00541386  0.80358802  0.20647497  1
  Rh  Rh211  1  0.79049599  0.59652479  0.19328115  1
  Rh  Rh212  1  0.60952506  0.81239267  0.59727526  1
  Rh  Rh213  1  0.40485874  0.80857291  0.39425894  1
  Rh  Rh214  1  0.60269212  0.40301715  0.20440375  1
  Rh  Rh215  1  0.60439035  -0.00460435  0.19490171  1
  Rh  Rh216  1  0.59129899  0.00225697  0.78993610  1
  Rh  Rh217  1  0.60192842  0.19709934  0.81115449  1
  Rh  Rh218  1  0.20566489  0.19670128  0.19008022  1
  Rh  Rh219  1  0.39959210  0.79777160  0.79914148  1
  Rh  Rh220  1  0.79691747  0.00454907  0.39195655  1
  Rh  Rh221  1  0.21003992  0.19443007  0.40458984  1
  Rh  Rh222  1  0.60043662  0.60577705  0.38933721  1
  Rh  Rh223  1  0.60119059  0.79245526  0.80038421  1
  Rh  Rh224  1  0.79602912  0.59921606  0.40209711  1
  Rh  Rh225  1  0.00838084  0.60060350  0.19671325  1
  Rh  Rh226  1  -0.00442046  0.58994316  0.60348316  1
  Rh  Rh227  1  0.39892001  0.80849840  -0.00529302  1
  Rh  Rh228  1  0.79409118  0.19755738  0.39571548  1
  Rh  Rh229  1  0.20050318  0.40260802  0.40985597  1
  Rh  Rh230  1  0.19128843  0.59520261  0.81678545  1
  Rh  Rh231  1  0.00671951  0.59938702  0.80514498  1
  Rh  Rh232  1  0.20313844  0.80221786  0.79539030  1
  Rh  Rh233  1  0.19764788  0.00555054  0.00072921  1
  Rh  Rh234  1  0.39179914  -0.00380421  0.19731682  1
  Rh  Rh235  1  0.40715703  0.00616802  0.60538131  1
  Rh  Rh236  1  0.59757270  0.40386631  0.79713000  1
  Rh  Rh237  1  0.80573633  0.01008319  0.80910076  1
  Rh  Rh238  1  0.60535432  0.00802824  0.40692511  1
  Rh  Rh239  1  -0.00024291  0.79945265  0.80478047  1
  Rh  Rh240  1  0.79089333  0.59972144  0.80428820  1
  Rh  Rh241  1  0.20354425  0.00485279  0.79825525  1
  Rh  Rh242  1  0.41091139  0.60612399  0.78871264  1
  Rh  Rh243  1  -0.00172744  0.19412422  0.59268681  1
  Rh  Rh244  1  0.00147824  0.20859212  0.20290061  1
  Rh  Rh245  1  0.20504751  0.00493527  0.39343850  1
  Rh  Rh246  1  0.80287011  0.79367438  0.40388046  1
  Rh  Rh247  1  -0.00455712  0.20919223  0.79892981  1
  Rh  Rh248  1  -0.00143899  0.79858771  -0.00251539  1
  Rh  Rh249  1  0.40250377  0.19890918  -0.00106842  1
