# generated using pymatgen
data_ZrScNbPdRh
_symmetry_space_group_name_H-M   'P 1'
_cell_length_a   16.55998843
_cell_length_b   16.56227217
_cell_length_c   16.56295835
_cell_angle_alpha   89.99698329
_cell_angle_beta   89.99664721
_cell_angle_gamma   90.01481261
_symmetry_Int_Tables_number   1
_chemical_formula_structural   ZrScNbPdRh
_chemical_formula_sum   'Zr50 Sc50 Nb50 Pd50 Rh50'
_cell_volume   4542.73957193
_cell_formula_units_Z   50
loop_
 _symmetry_equiv_pos_site_id
 _symmetry_equiv_pos_as_xyz
  1  'x, y, z'
loop_
 _atom_site_type_symbol
 _atom_site_label
 _atom_site_symmetry_multiplicity
 _atom_site_fract_x
 _atom_site_fract_y
 _atom_site_fract_z
 _atom_site_occupancy
  Zr  Zr0  1  0.50242118  0.09813674  0.29198931  1
  Zr  Zr1  1  0.89695557  0.49440380  0.10146784  1
  Zr  Zr2  1  0.50474366  0.50870225  0.29904262  1
  Zr  Zr3  1  0.89785921  0.89985646  0.49876495  1
  Zr  Zr4  1  0.30188511  0.30012462  0.69798811  1
  Zr  Zr5  1  0.49850713  0.70411605  0.89548628  1
  Zr  Zr6  1  0.10467062  0.48873587  0.30706095  1
  Zr  Zr7  1  0.69848492  0.89878937  0.49903143  1
  Zr  Zr8  1  0.30541415  0.70339798  0.31239137  1
  Zr  Zr9  1  0.69769974  0.68841477  0.90330984  1
  Zr  Zr10  1  0.90322464  0.30565139  0.29560573  1
  Zr  Zr11  1  0.29351817  0.69685792  0.69339242  1
  Zr  Zr12  1  0.89507212  0.69128672  0.10465824  1
  Zr  Zr13  1  0.09741020  0.09748773  0.91211649  1
  Zr  Zr14  1  0.30331978  0.29076156  0.50106909  1
  Zr  Zr15  1  0.10487863  0.91188483  0.29233937  1
  Zr  Zr16  1  0.48664138  0.09707388  0.70518005  1
  Zr  Zr17  1  0.10135173  0.50918345  0.69894866  1
  Zr  Zr18  1  0.10602112  0.70512164  0.10444627  1
  Zr  Zr19  1  0.69891087  0.89569666  0.68974554  1
  Zr  Zr20  1  0.49780837  0.70275871  0.29797333  1
  Zr  Zr21  1  0.10276546  0.89882515  0.70204467  1
  Zr  Zr22  1  0.48087694  0.10351841  0.48991231  1
  Zr  Zr23  1  0.29069692  0.89755690  0.10022953  1
  Zr  Zr24  1  0.10217906  0.09612874  0.10814839  1
  Zr  Zr25  1  0.90611747  0.89683931  0.69444597  1
  Zr  Zr26  1  0.69719868  0.70763001  0.50300211  1
  Zr  Zr27  1  0.69711511  0.90166073  0.30673155  1
  Zr  Zr28  1  0.29663943  0.49352527  0.89719857  1
  Zr  Zr29  1  0.30030836  0.70390207  0.89971189  1
  Zr  Zr30  1  0.10725749  0.89852369  0.90597991  1
  Zr  Zr31  1  0.48584554  0.69875478  0.49625290  1
  Zr  Zr32  1  0.70037234  0.10014306  0.49997341  1
  Zr  Zr33  1  0.70087523  0.69837413  0.69635640  1
  Zr  Zr34  1  0.50323338  0.10078032  0.89490320  1
  Zr  Zr35  1  0.10708398  0.69718379  0.50274591  1
  Zr  Zr36  1  0.90095558  0.49928338  0.49313851  1
  Zr  Zr37  1  0.50124474  0.29267836  0.09781832  1
  Zr  Zr38  1  0.49894359  0.69806173  0.10575609  1
  Zr  Zr39  1  0.69634010  0.09955498  0.70139899  1
  Zr  Zr40  1  0.10341959  0.49550426  0.11190618  1
  Zr  Zr41  1  0.90713701  0.09577313  0.69304657  1
  Zr  Zr42  1  0.89659748  0.70049455  0.30180373  1
  Zr  Zr43  1  0.29936847  0.29791081  0.90548718  1
  Zr  Zr44  1  0.89908207  0.30125301  0.91257803  1
  Zr  Zr45  1  0.70186471  0.10533142  0.90240802  1
  Zr  Zr46  1  0.69698575  0.90270841  0.89409132  1
  Zr  Zr47  1  0.30441847  0.90814139  0.69972331  1
  Zr  Zr48  1  0.69320059  0.69807487  0.30088326  1
  Zr  Zr49  1  0.09907731  0.30808417  0.49515355  1
  Sc  Sc50  1  0.10554869  0.90505266  0.10404398  1
  Sc  Sc51  1  0.70429960  0.29838367  0.29006378  1
  Sc  Sc52  1  0.29299376  0.49847051  0.29599105  1
  Sc  Sc53  1  0.70200481  0.50240401  0.50743362  1
  Sc  Sc54  1  0.91353087  0.70673902  0.49469554  1
  Sc  Sc55  1  0.30199535  0.30356403  0.09622617  1
  Sc  Sc56  1  0.90322021  0.10871945  0.50591971  1
  Sc  Sc57  1  0.70425410  0.90887076  0.10723837  1
  Sc  Sc58  1  0.90790840  0.90716750  0.90252630  1
  Sc  Sc59  1  0.90298832  0.30689128  0.69334703  1
  Sc  Sc60  1  0.09986119  0.69761431  0.88357659  1
  Sc  Sc61  1  0.70064365  0.49936430  0.09872310  1
  Sc  Sc62  1  0.49837420  0.90656891  0.30851898  1
  Sc  Sc63  1  0.49581711  0.89655783  0.11619137  1
  Sc  Sc64  1  0.70498452  0.50029773  0.69205007  1
  Sc  Sc65  1  0.49521053  0.29535964  0.28952554  1
  Sc  Sc66  1  0.90227598  0.49754436  0.29271912  1
  Sc  Sc67  1  0.90379150  0.30302120  0.49921442  1
  Sc  Sc68  1  0.49918155  0.48951304  0.10300021  1
  Sc  Sc69  1  0.49642726  0.29411237  0.90212568  1
  Sc  Sc70  1  0.30521100  0.09432035  0.30624821  1
  Sc  Sc71  1  0.09562902  0.69787136  0.30652688  1
  Sc  Sc72  1  0.09941295  0.49627510  0.89372455  1
  Sc  Sc73  1  0.09475046  0.29976897  0.91234915  1
  Sc  Sc74  1  0.29875474  0.89383716  0.49993013  1
  Sc  Sc75  1  0.50082736  0.70391423  0.69406045  1
  Sc  Sc76  1  0.29653543  0.30177738  0.29800438  1
  Sc  Sc77  1  0.50688243  0.49851157  0.90555056  1
  Sc  Sc78  1  0.90117733  0.90443496  0.10989941  1
  Sc  Sc79  1  0.30096119  0.10137872  0.90114989  1
  Sc  Sc80  1  0.90689908  0.69103015  0.89911028  1
  Sc  Sc81  1  0.09651330  0.30846529  0.68738708  1
  Sc  Sc82  1  0.69897742  0.10385775  0.10453084  1
  Sc  Sc83  1  0.29231516  0.49337274  0.70119018  1
  Sc  Sc84  1  0.71138440  0.30286684  0.50082785  1
  Sc  Sc85  1  0.30187284  0.89473603  0.89691327  1
  Sc  Sc86  1  0.10231669  0.89265525  0.49946299  1
  Sc  Sc87  1  0.90327085  0.49795811  0.69675849  1
  Sc  Sc88  1  0.10200873  0.29344213  0.10372981  1
  Sc  Sc89  1  0.89873709  0.10474936  0.09212703  1
  Sc  Sc90  1  0.28899177  0.50598938  0.49944352  1
  Sc  Sc91  1  0.70652142  0.30492408  0.69851386  1
  Sc  Sc92  1  0.70159624  0.68946516  0.10352498  1
  Sc  Sc93  1  0.90335176  0.89323339  0.30072867  1
  Sc  Sc94  1  0.69336626  0.09974063  0.29631123  1
  Sc  Sc95  1  0.29794388  0.10459983  0.09518250  1
  Sc  Sc96  1  0.90522592  0.10990864  0.29467921  1
  Sc  Sc97  1  0.09961176  0.50087772  0.49637402  1
  Sc  Sc98  1  0.90020782  0.48988790  0.90243858  1
  Sc  Sc99  1  0.30281197  0.71010672  0.11038325  1
  Nb  Nb100  1  0.69753633  0.50248901  0.30228460  1
  Nb  Nb101  1  0.29330780  0.10069640  0.51317426  1
  Nb  Nb102  1  0.29718665  0.70167970  0.50146322  1
  Nb  Nb103  1  0.89520314  0.30779596  0.09865574  1
  Nb  Nb104  1  0.70846096  0.30004900  0.09295513  1
  Nb  Nb105  1  0.10508826  0.09920376  0.69321036  1
  Nb  Nb106  1  0.10661903  0.10411982  0.50759520  1
  Nb  Nb107  1  0.50005864  0.90474753  0.50717933  1
  Nb  Nb108  1  0.50195305  0.09868842  0.09861093  1
  Nb  Nb109  1  0.70444822  0.49683925  0.89402631  1
  Nb  Nb110  1  0.49627089  0.90102959  0.88818096  1
  Nb  Nb111  1  0.49928345  0.49118882  0.69541876  1
  Nb  Nb112  1  0.91670015  0.70043640  0.71089331  1
  Nb  Nb113  1  0.29748940  0.89771245  0.29564830  1
  Nb  Nb114  1  0.29857832  0.49940112  0.09471330  1
  Nb  Nb115  1  0.10156100  0.29668992  0.30097731  1
  Nb  Nb116  1  0.09173419  0.70095425  0.69964469  1
  Nb  Nb117  1  0.28874418  0.10055262  0.68774368  1
  Nb  Nb118  1  0.50085191  0.49394354  0.50383368  1
  Nb  Nb119  1  0.90164497  0.10324720  0.89839015  1
  Nb  Nb120  1  0.49940933  0.90551883  0.70749245  1
  Nb  Nb121  1  0.10108170  0.10450420  0.30176003  1
  Nb  Nb122  1  0.49587853  0.30465714  0.69423504  1
  Nb  Nb123  1  0.49528850  0.30142363  0.50268260  1
  Nb  Nb124  1  0.70556263  0.30630676  0.89795840  1
  Nb  Nb125  1  0.19152517  0.19577121  0.79371670  1
  Nb  Nb126  1  0.20225243  0.59951804  0.00249487  1
  Nb  Nb127  1  0.59479285  0.39796023  0.40277124  1
  Nb  Nb128  1  0.59336009  0.20777820  0.40536746  1
  Nb  Nb129  1  0.00139078  0.19507625  0.79925370  1
  Nb  Nb130  1  0.80496509  0.79691999  0.80139354  1
  Nb  Nb131  1  0.40252995  0.59514382  0.79939345  1
  Nb  Nb132  1  0.80358441  0.00191379  0.79712686  1
  Nb  Nb133  1  0.60016077  0.39957080  0.79730641  1
  Nb  Nb134  1  0.58887046  0.00322870  0.59906553  1
  Nb  Nb135  1  0.40744822  0.40108692  0.40433231  1
  Nb  Nb136  1  0.00803053  0.59936545  0.00593031  1
  Nb  Nb137  1  0.80031810  0.79778927  -0.00402776  1
  Nb  Nb138  1  0.79651142  0.60283440  0.39832787  1
  Nb  Nb139  1  0.80797089  0.19906362  0.80422881  1
  Nb  Nb140  1  0.00635540  0.00965966  0.39995237  1
  Nb  Nb141  1  0.59111848  -0.00417594  -0.00160444  1
  Nb  Nb142  1  0.40989223  -0.00288462  -0.00097233  1
  Nb  Nb143  1  0.80613078  0.00189130  0.40181596  1
  Nb  Nb144  1  0.80109619  0.60160099  0.79786113  1
  Nb  Nb145  1  0.58892273  0.20233154  0.59705649  1
  Nb  Nb146  1  0.19468671  0.19445216  0.40235209  1
  Nb  Nb147  1  0.39353126  0.59775326  -0.00056579  1
  Nb  Nb148  1  0.59994051  0.80549953  -0.00150985  1
  Nb  Nb149  1  -0.00202607  0.79428318  0.00321438  1
  Pd  Pd150  1  0.81448364  0.60795940  0.59796312  1
  Pd  Pd151  1  0.79644973  -0.00417661  -0.00372964  1
  Pd  Pd152  1  0.80589110  0.00697612  0.21143765  1
  Pd  Pd153  1  0.19575589  0.80125963  0.39511092  1
  Pd  Pd154  1  0.00133009  0.00228188  0.80061559  1
  Pd  Pd155  1  0.39697306  0.59066425  0.60586166  1
  Pd  Pd156  1  0.60757659  0.80377064  0.19529210  1
  Pd  Pd157  1  0.79382463  0.40584124  0.39582774  1
  Pd  Pd158  1  0.39227535  0.19611524  0.19782576  1
  Pd  Pd159  1  0.59852135  0.58814449  0.78949382  1
  Pd  Pd160  1  0.39344662  0.59582867  0.19488918  1
  Pd  Pd161  1  0.20366406  0.00706612  0.80538567  1
  Pd  Pd162  1  0.80180101  0.19860207  0.19695696  1
  Pd  Pd163  1  0.40014605  0.80497316  0.60349404  1
  Pd  Pd164  1  0.79245276  0.79958599  0.19472621  1
  Pd  Pd165  1  -0.00411358  0.20413804  0.19000267  1
  Pd  Pd166  1  0.38707240  0.40817775  0.59242418  1
  Pd  Pd167  1  -0.00235886  0.59968466  0.59516373  1
  Pd  Pd168  1  0.80085349  0.20501425  0.60585389  1
  Pd  Pd169  1  0.20085780  0.00415522  0.40638384  1
  Pd  Pd170  1  0.60652346  0.39291526  0.59938982  1
  Pd  Pd171  1  0.79453522  0.19610353  0.39303583  1
  Pd  Pd172  1  0.00297194  0.59754760  0.20298759  1
  Pd  Pd173  1  0.20868359  0.19800421  0.20601686  1
  Pd  Pd174  1  0.59313396  0.60147929  0.59822192  1
  Pd  Pd175  1  0.00352987  0.80222379  0.19824587  1
  Pd  Pd176  1  0.81447936  0.78673850  0.60375974  1
  Pd  Pd177  1  0.58817193  0.80021726  0.40424245  1
  Pd  Pd178  1  0.60405940  0.79755985  0.79915864  1
  Pd  Pd179  1  0.40784823  0.80423254  0.00423311  1
  Pd  Pd180  1  0.40939212  0.40314560  0.80638927  1
  Pd  Pd181  1  0.00181468  0.39304089  0.79894240  1
  Pd  Pd182  1  0.00337390  0.19873188  0.40541942  1
  Pd  Pd183  1  0.38782593  -0.00779032  0.40429854  1
  Pd  Pd184  1  0.39288492  0.58860796  0.40255633  1
  Pd  Pd185  1  0.60441090  0.19850393  0.00317397  1
  Pd  Pd186  1  0.60465002  0.21477139  0.79145921  1
  Pd  Pd187  1  0.20248893  0.79841959  0.79404136  1
  Pd  Pd188  1  0.00976521  -0.00394295  0.58870666  1
  Pd  Pd189  1  0.19332910  0.40180345  0.00285059  1
  Pd  Pd190  1  -0.00213008  -0.00577309  0.01061419  1
  Pd  Pd191  1  0.60362086  0.39572556  -0.00522848  1
  Pd  Pd192  1  0.38902484  0.19859491  0.79679617  1
  Pd  Pd193  1  0.39247698  -0.00010281  0.19359624  1
  Pd  Pd194  1  0.39599111  0.40246293  0.20475544  1
  Pd  Pd195  1  0.60396109  0.59565591  0.41156395  1
  Pd  Pd196  1  0.18859767  0.38526825  0.79994202  1
  Pd  Pd197  1  0.60575800  0.39681017  0.20384048  1
  Pd  Pd198  1  0.59142108  0.59926934  0.00787344  1
  Pd  Pd199  1  0.20599066  0.60571060  0.20358029  1
  Rh  Rh200  1  0.00731253  0.80964663  0.39640252  1
  Rh  Rh201  1  0.19983498  0.79634582  0.21225634  1
  Rh  Rh202  1  0.79325497  0.00189885  0.59758356  1
  Rh  Rh203  1  0.00598083  0.39116874  0.20010757  1
  Rh  Rh204  1  -0.00122088  0.80947116  0.80854828  1
  Rh  Rh205  1  0.80958246  0.59576319  -0.00923139  1
  Rh  Rh206  1  0.39577093  0.20766031  0.39088376  1
  Rh  Rh207  1  0.60312459  0.00853438  0.40632808  1
  Rh  Rh208  1  0.79425085  0.59282405  0.21129649  1
  Rh  Rh209  1  0.19917050  0.19996795  -0.00456627  1
  Rh  Rh210  1  0.19230932  0.79292921  -0.00381477  1
  Rh  Rh211  1  0.39831039  0.80484362  0.21015459  1
  Rh  Rh212  1  0.19317313  0.21043742  0.60012256  1
  Rh  Rh213  1  0.00545077  0.40524907  0.01134059  1
  Rh  Rh214  1  0.79912214  0.79863780  0.39904996  1
  Rh  Rh215  1  0.80534145  0.40008272  0.59740481  1
  Rh  Rh216  1  0.20126414  0.40187242  0.59586895  1
  Rh  Rh217  1  0.00544450  0.79872760  0.59890932  1
  Rh  Rh218  1  0.19635615  0.60085589  0.60061930  1
  Rh  Rh219  1  0.40359144  0.40090459  -0.00061798  1
  Rh  Rh220  1  0.79252245  0.40580420  0.00299670  1
  Rh  Rh221  1  -0.00009655  0.40959983  0.59408023  1
  Rh  Rh222  1  0.00480583  0.20372075  0.60324951  1
  Rh  Rh223  1  0.60069204  0.59535317  0.19296464  1
  Rh  Rh224  1  -0.00189755  0.20090500  0.00490749  1
  Rh  Rh225  1  -0.00239298  0.40001378  0.39486785  1
  Rh  Rh226  1  0.20538231  0.60300281  0.80046526  1
  Rh  Rh227  1  0.39921348  -0.00183049  0.59784320  1
  Rh  Rh228  1  0.20945351  0.39042614  0.40199014  1
  Rh  Rh229  1  0.58754196  0.80447280  0.59732530  1
  Rh  Rh230  1  -0.00459049  0.59468287  0.39491897  1
  Rh  Rh231  1  0.40147042  0.19423898  0.00286321  1
  Rh  Rh232  1  0.19820996  -0.01097904  0.59503303  1
  Rh  Rh233  1  0.20234581  0.39244163  0.19776431  1
  Rh  Rh234  1  0.79324078  0.40154607  0.19875189  1
  Rh  Rh235  1  0.59912143  -0.00073866  0.19470927  1
  Rh  Rh236  1  0.39784833  0.79389314  0.78857635  1
  Rh  Rh237  1  0.40249905  0.19753607  0.60761314  1
  Rh  Rh238  1  0.20937440  0.00938704  0.20120962  1
  Rh  Rh239  1  0.79897723  0.20198888  -0.00055761  1
  Rh  Rh240  1  -0.00615913  0.58555582  0.80580669  1
  Rh  Rh241  1  0.19904419  0.80012150  0.60411666  1
  Rh  Rh242  1  0.79638428  0.40088672  0.79589252  1
  Rh  Rh243  1  0.60504501  -0.00161686  0.79505062  1
  Rh  Rh244  1  0.60237462  0.20406031  0.19706563  1
  Rh  Rh245  1  0.20168103  0.60412687  0.39849497  1
  Rh  Rh246  1  0.21155644  0.00023141  -0.00066348  1
  Rh  Rh247  1  -0.00381087  0.00634476  0.20411804  1
  Rh  Rh248  1  0.38822767  0.00420442  0.80532397  1
  Rh  Rh249  1  0.40234443  0.80867766  0.40109465  1
