# generated using pymatgen
data_ZrScNbPdRh
_symmetry_space_group_name_H-M   'P 1'
_cell_length_a   16.56052538
_cell_length_b   16.55994283
_cell_length_c   16.55960641
_cell_angle_alpha   90.00765016
_cell_angle_beta   89.97611403
_cell_angle_gamma   89.99935524
_symmetry_Int_Tables_number   1
_chemical_formula_structural   ZrScNbPdRh
_chemical_formula_sum   'Zr50 Sc50 Nb50 Pd50 Rh50'
_cell_volume   4541.32843968
_cell_formula_units_Z   50
loop_
 _symmetry_equiv_pos_site_id
 _symmetry_equiv_pos_as_xyz
  1  'x, y, z'
loop_
 _atom_site_type_symbol
 _atom_site_label
 _atom_site_symmetry_multiplicity
 _atom_site_fract_x
 _atom_site_fract_y
 _atom_site_fract_z
 _atom_site_occupancy
  Zr  Zr0  1  0.69516807  0.29890721  0.11030380  1
  Zr  Zr1  1  0.10323186  0.10086542  0.89936736  1
  Zr  Zr2  1  0.29165458  0.29857359  0.30084165  1
  Zr  Zr3  1  0.89961285  0.49958629  0.50487263  1
  Zr  Zr4  1  0.70050025  0.90733469  0.90213388  1
  Zr  Zr5  1  0.69905849  0.09999987  0.70996584  1
  Zr  Zr6  1  0.69247650  0.69744026  0.49901131  1
  Zr  Zr7  1  0.29508553  0.29920436  0.49420823  1
  Zr  Zr8  1  0.91478304  0.09466440  0.50724224  1
  Zr  Zr9  1  0.70244542  0.89182725  0.29408109  1
  Zr  Zr10  1  0.09789648  0.70111771  0.70390655  1
  Zr  Zr11  1  0.30770832  0.50508346  0.89589920  1
  Zr  Zr12  1  0.29951016  0.50807071  0.09283977  1
  Zr  Zr13  1  0.49523724  0.09881295  0.49747035  1
  Zr  Zr14  1  0.69890965  0.51332882  0.09271056  1
  Zr  Zr15  1  0.10242023  0.29921981  0.29668052  1
  Zr  Zr16  1  0.09976687  0.49905823  0.49509406  1
  Zr  Zr17  1  0.30039420  0.69863848  0.49138225  1
  Zr  Zr18  1  0.89610457  0.69388769  0.10745457  1
  Zr  Zr19  1  0.88990228  0.29410473  0.29606734  1
  Zr  Zr20  1  0.09673784  0.30079292  0.70419894  1
  Zr  Zr21  1  0.89715555  0.30492025  0.50122898  1
  Zr  Zr22  1  0.29700717  0.30833884  0.09766785  1
  Zr  Zr23  1  0.69434452  0.89281073  0.69962349  1
  Zr  Zr24  1  0.49669432  0.89624502  0.29851116  1
  Zr  Zr25  1  0.90625779  0.49629000  0.69675592  1
  Zr  Zr26  1  0.49852143  0.09445142  0.30180602  1
  Zr  Zr27  1  0.49327149  0.69503657  0.31045457  1
  Zr  Zr28  1  0.29286488  0.70224998  0.69683836  1
  Zr  Zr29  1  0.50418845  0.09362942  0.89880279  1
  Zr  Zr30  1  0.10632088  0.89708058  0.90216847  1
  Zr  Zr31  1  0.90085824  0.49791782  0.30291374  1
  Zr  Zr32  1  0.49392211  0.89570069  0.90176624  1
  Zr  Zr33  1  0.09665930  0.09777430  0.69203478  1
  Zr  Zr34  1  0.10620265  0.90613295  0.30662393  1
  Zr  Zr35  1  0.69693446  0.08735083  0.09783794  1
  Zr  Zr36  1  0.90038259  0.49304846  0.90324845  1
  Zr  Zr37  1  0.29734058  0.50200938  0.50404409  1
  Zr  Zr38  1  0.10310797  0.49963835  0.89326986  1
  Zr  Zr39  1  0.69579180  0.30038038  0.31245692  1
  Zr  Zr40  1  0.49766341  0.08960400  0.10369497  1
  Zr  Zr41  1  0.10568394  0.70357564  0.89243905  1
  Zr  Zr42  1  0.90279766  0.90356673  0.30137402  1
  Zr  Zr43  1  0.50212614  0.90623296  0.10226934  1
  Zr  Zr44  1  0.09675874  0.30240613  0.90423202  1
  Zr  Zr45  1  0.49429994  0.90019694  0.70215590  1
  Zr  Zr46  1  0.10319640  0.50447485  0.69834696  1
  Zr  Zr47  1  0.09512483  0.49903831  0.29977858  1
  Zr  Zr48  1  0.69521678  0.49424941  0.90839256  1
  Zr  Zr49  1  0.69507184  0.69442422  0.90345083  1
  Sc  Sc50  1  0.30045320  0.50119161  0.69668501  1
  Sc  Sc51  1  0.90814113  0.89076713  0.69433311  1
  Sc  Sc52  1  0.69299864  0.49690605  0.30533763  1
  Sc  Sc53  1  0.50024506  0.70843779  0.69409397  1
  Sc  Sc54  1  0.69003580  0.70515620  0.69109176  1
  Sc  Sc55  1  0.90578171  0.29801296  0.10367560  1
  Sc  Sc56  1  0.29944947  0.70492737  0.90589161  1
  Sc  Sc57  1  0.30102371  0.09058762  0.69213659  1
  Sc  Sc58  1  0.89887114  0.69921913  0.29918086  1
  Sc  Sc59  1  0.50525279  0.31540568  0.90119256  1
  Sc  Sc60  1  0.70480147  0.11288388  0.29719464  1
  Sc  Sc61  1  0.89978889  0.49445045  0.10854397  1
  Sc  Sc62  1  0.69459967  0.70182621  0.29742382  1
  Sc  Sc63  1  0.89414345  0.91062343  0.10689491  1
  Sc  Sc64  1  0.30432439  0.10003875  0.49015200  1
  Sc  Sc65  1  0.30025573  0.30447861  0.69534831  1
  Sc  Sc66  1  0.70561171  0.87833731  0.49934553  1
  Sc  Sc67  1  0.10702332  0.09656565  0.29689240  1
  Sc  Sc68  1  0.90361391  0.30232580  0.70066921  1
  Sc  Sc69  1  0.90140033  0.90442981  0.90202191  1
  Sc  Sc70  1  0.70711857  0.49789128  0.69033991  1
  Sc  Sc71  1  0.11330604  0.69794670  0.30402844  1
  Sc  Sc72  1  0.30136464  0.89384944  0.90085036  1
  Sc  Sc73  1  0.49675102  0.49105364  0.09207658  1
  Sc  Sc74  1  0.10853779  0.89493315  0.69380987  1
  Sc  Sc75  1  0.70251607  0.29695645  0.90139869  1
  Sc  Sc76  1  0.49797032  0.29923123  0.70614148  1
  Sc  Sc77  1  0.70381369  0.10234750  0.89787163  1
  Sc  Sc78  1  0.11650510  0.70042362  0.10159853  1
  Sc  Sc79  1  0.29347771  0.09414215  0.90356823  1
  Sc  Sc80  1  0.09863764  0.10405261  0.10192688  1
  Sc  Sc81  1  0.70358783  0.29584704  0.71085986  1
  Sc  Sc82  1  0.28830584  0.29986185  0.89684364  1
  Sc  Sc83  1  0.90398522  0.10399057  0.70333559  1
  Sc  Sc84  1  0.49069435  0.70567752  0.89279740  1
  Sc  Sc85  1  0.69799775  0.11223859  0.48621278  1
  Sc  Sc86  1  0.49864759  0.51338811  0.49868162  1
  Sc  Sc87  1  0.91115316  0.70114391  0.69575429  1
  Sc  Sc88  1  0.49720171  0.29349638  0.49355900  1
  Sc  Sc89  1  0.10336782  0.90860117  0.10046944  1
  Sc  Sc90  1  0.70210818  0.49736506  0.50121253  1
  Sc  Sc91  1  0.29967955  0.89939990  0.30478670  1
  Sc  Sc92  1  0.89832257  0.29826257  0.90072632  1
  Sc  Sc93  1  0.91224342  0.69852477  0.89138003  1
  Sc  Sc94  1  0.48662657  0.89429617  0.49382447  1
  Sc  Sc95  1  0.29579291  0.51102810  0.30109774  1
  Sc  Sc96  1  0.49309919  0.69751076  0.10871943  1
  Sc  Sc97  1  0.30922969  0.89758821  0.09753547  1
  Sc  Sc98  1  0.90193598  0.10294374  0.10868412  1
  Sc  Sc99  1  0.89314328  0.09992780  0.90806024  1
  Nb  Nb100  1  0.09670433  0.91062116  0.49731931  1
  Nb  Nb101  1  0.30940038  0.10151425  0.10366152  1
  Nb  Nb102  1  0.10227706  0.29706798  0.49380895  1
  Nb  Nb103  1  0.30327202  0.70347915  0.10691067  1
  Nb  Nb104  1  0.49788264  0.49370847  0.70575180  1
  Nb  Nb105  1  0.09890625  0.70225510  0.49786253  1
  Nb  Nb106  1  0.09692058  0.31036264  0.10172175  1
  Nb  Nb107  1  0.69838533  0.89498525  0.10231102  1
  Nb  Nb108  1  0.49489190  0.30084161  0.10157937  1
  Nb  Nb109  1  0.89479187  0.71404554  0.50197102  1
  Nb  Nb110  1  0.30152843  0.70351828  0.29227290  1
  Nb  Nb111  1  0.90136569  0.89747026  0.50011500  1
  Nb  Nb112  1  0.70085860  0.29907462  0.49978776  1
  Nb  Nb113  1  0.50296387  0.70084440  0.49317882  1
  Nb  Nb114  1  0.10015182  0.09451555  0.50127992  1
  Nb  Nb115  1  0.30070967  0.89580676  0.68995431  1
  Nb  Nb116  1  0.50182388  0.10122629  0.70011630  1
  Nb  Nb117  1  0.90563075  0.10284084  0.30326188  1
  Nb  Nb118  1  0.70107861  0.70253824  0.10008888  1
  Nb  Nb119  1  0.30129889  0.10198802  0.29657624  1
  Nb  Nb120  1  0.28871191  0.90096756  0.49949022  1
  Nb  Nb121  1  0.50030521  0.49988444  0.89445320  1
  Nb  Nb122  1  0.09506420  0.49104325  0.09667634  1
  Nb  Nb123  1  0.50293154  0.30886620  0.29048325  1
  Nb  Nb124  1  0.49864197  0.49711542  0.30404788  1
  Nb  Nb125  1  0.60085190  0.19791589  0.60229871  1
  Nb  Nb126  1  0.79548464  0.00027139  0.59405599  1
  Nb  Nb127  1  0.40254883  0.40248361  0.39271418  1
  Nb  Nb128  1  0.00841476  0.00012950  0.80196374  1
  Nb  Nb129  1  0.80266186  0.60473491  0.40694848  1
  Nb  Nb130  1  0.19320991  0.19831593  0.59167783  1
  Nb  Nb131  1  0.80274247  -0.00132829  0.40504851  1
  Nb  Nb132  1  0.60721990  -0.00542749  0.40262673  1
  Nb  Nb133  1  0.60457112  0.79964548  0.00677278  1
  Nb  Nb134  1  0.40059446  0.20431634  0.19774262  1
  Nb  Nb135  1  0.00407212  0.80205622  0.20180897  1
  Nb  Nb136  1  0.79554693  0.19634476  0.59733846  1
  Nb  Nb137  1  -0.00129847  0.79577020  0.00883788  1
  Nb  Nb138  1  0.00703985  0.59848650  0.00396602  1
  Nb  Nb139  1  0.59663472  0.59137222  0.79855808  1
  Nb  Nb140  1  0.40288000  0.19437127  0.80434278  1
  Nb  Nb141  1  0.79652283  0.60166319  0.79947695  1
  Nb  Nb142  1  0.00268186  0.80372520  0.40361524  1
  Nb  Nb143  1  0.40267078  0.20148415  0.00165373  1
  Nb  Nb144  1  0.00458160  0.19751431  0.40183367  1
  Nb  Nb145  1  0.79868081  0.79746029  0.00342163  1
  Nb  Nb146  1  0.60245446  0.00309547  0.59407040  1
  Nb  Nb147  1  0.79713065  0.79474794  0.80455502  1
  Nb  Nb148  1  0.59116283  0.20100320  0.00701973  1
  Nb  Nb149  1  0.59812024  0.39293688  0.59991800  1
  Pd  Pd150  1  0.79108848  0.59540345  0.21240289  1
  Pd  Pd151  1  0.59417219  0.59603987  0.20255245  1
  Pd  Pd152  1  0.20096564  0.80935951  0.19731774  1
  Pd  Pd153  1  -0.00246708  -0.00120200  -0.00078180  1
  Pd  Pd154  1  0.80043276  0.39163015  0.01034696  1
  Pd  Pd155  1  0.39985847  0.79629089  0.59366960  1
  Pd  Pd156  1  0.19412784  0.39424865  0.60032418  1
  Pd  Pd157  1  0.40295468  0.60738841  0.79024818  1
  Pd  Pd158  1  0.20137071  0.19871834  0.19040658  1
  Pd  Pd159  1  0.58253358  0.60836219  -0.00370808  1
  Pd  Pd160  1  -0.00247157  0.39071749  0.39575329  1
  Pd  Pd161  1  0.81355511  0.60526238  -0.00733776  1
  Pd  Pd162  1  0.59731795  -0.00497749  0.79720306  1
  Pd  Pd163  1  0.79727365  0.00682010  0.20904899  1
  Pd  Pd164  1  0.39729968  0.20165019  0.60816217  1
  Pd  Pd165  1  0.59260903  0.59122806  0.60681292  1
  Pd  Pd166  1  0.79811517  0.40387004  0.79724725  1
  Pd  Pd167  1  -0.00697781  0.61149255  0.40367082  1
  Pd  Pd168  1  0.20077287  -0.00712125  0.79379023  1
  Pd  Pd169  1  0.39219863  0.40467491  0.20500218  1
  Pd  Pd170  1  0.40584708  0.60639228  -0.00024868  1
  Pd  Pd171  1  0.59459044  0.19549018  0.19985373  1
  Pd  Pd172  1  0.21021683  0.19592272  0.78671459  1
  Pd  Pd173  1  0.59141132  0.79258319  0.19776776  1
  Pd  Pd174  1  0.79282181  0.20094821  0.00817788  1
  Pd  Pd175  1  0.79156310  0.40486762  0.20068257  1
  Pd  Pd176  1  0.39037860  0.00186770  0.80191960  1
  Pd  Pd177  1  0.59107743  0.40204844  0.41249739  1
  Pd  Pd178  1  0.20253429  0.40538079  -0.00555456  1
  Pd  Pd179  1  0.40129195  -0.00265042  0.59482607  1
  Pd  Pd180  1  0.20196458  0.19936919  0.00905302  1
  Pd  Pd181  1  0.60271319  0.41218023  0.19408380  1
  Pd  Pd182  1  0.60901061  0.40310007  0.79262966  1
  Pd  Pd183  1  0.20823526  -0.00214698  0.19447216  1
  Pd  Pd184  1  0.19577593  0.59465025  0.19821076  1
  Pd  Pd185  1  0.80240524  0.61160826  0.60188834  1
  Pd  Pd186  1  0.39245057  0.39086271  0.80416413  1
  Pd  Pd187  1  0.00085881  0.20086433  0.00298230  1
  Pd  Pd188  1  0.40395816  0.59190079  0.20099379  1
  Pd  Pd189  1  0.01212093  0.60693999  0.19518336  1
  Pd  Pd190  1  0.20279425  0.41139537  0.20094828  1
  Pd  Pd191  1  0.40464144  0.20830526  0.38703124  1
  Pd  Pd192  1  0.81407660  -0.00904804  0.78973962  1
  Pd  Pd193  1  0.41069927  0.39971237  0.58894097  1
  Pd  Pd194  1  0.19492335  0.79755155  0.59157607  1
  Pd  Pd195  1  -0.00524862  0.19440563  0.80893869  1
  Pd  Pd196  1  0.19788308  0.60240545  -0.00280861  1
  Pd  Pd197  1  0.40501778  0.60473167  0.60389440  1
  Pd  Pd198  1  0.20783812  -0.00044962  0.00884264  1
  Pd  Pd199  1  0.00250490  0.60510655  0.59389031  1
  Rh  Rh200  1  0.80105351  0.79950696  0.61198176  1
  Rh  Rh201  1  0.19795871  0.80075006  0.40482893  1
  Rh  Rh202  1  0.80093561  -0.00166039  0.00517085  1
  Rh  Rh203  1  0.20822815  0.00608421  0.40251184  1
  Rh  Rh204  1  0.20189229  0.60080897  0.39956418  1
  Rh  Rh205  1  0.79167382  0.38638633  0.60470611  1
  Rh  Rh206  1  0.19375920  0.60484638  0.59621491  1
  Rh  Rh207  1  0.58646491  0.80958141  0.58861130  1
  Rh  Rh208  1  0.79851003  0.40854664  0.39966618  1
  Rh  Rh209  1  0.60178512  -0.00290532  -0.00382555  1
  Rh  Rh210  1  0.19199666  0.18819161  0.40400253  1
  Rh  Rh211  1  0.79991606  0.19637529  0.19560128  1
  Rh  Rh212  1  0.80803551  0.20171770  0.79724072  1
  Rh  Rh213  1  0.81596095  0.19272679  0.40932592  1
  Rh  Rh214  1  -0.00196877  0.00170983  0.39494843  1
  Rh  Rh215  1  0.80709053  0.79936437  0.19645599  1
  Rh  Rh216  1  0.39909355  0.80107060  0.20213658  1
  Rh  Rh217  1  -0.00633505  0.58869935  0.80325113  1
  Rh  Rh218  1  0.20458086  0.00384013  0.59258926  1
  Rh  Rh219  1  0.39504730  0.00135482  -0.00577311  1
  Rh  Rh220  1  0.20912585  0.60116925  0.79915990  1
  Rh  Rh221  1  0.39562119  0.39722981  -0.00833013  1
  Rh  Rh222  1  0.60555708  0.60008513  0.39712081  1
  Rh  Rh223  1  0.39115184  -0.00077059  0.20780111  1
  Rh  Rh224  1  0.20085183  0.80046476  0.00658878  1
  Rh  Rh225  1  0.39674016  -0.00572980  0.39732866  1
  Rh  Rh226  1  0.60266075  0.39470550  0.00674525  1
  Rh  Rh227  1  0.59511203  0.80275644  0.40054931  1
  Rh  Rh228  1  0.40566474  0.79603778  0.00768766  1
  Rh  Rh229  1  0.39078984  0.79847915  0.39941898  1
  Rh  Rh230  1  0.00200449  0.21187833  0.59232725  1
  Rh  Rh231  1  -0.00257722  0.40097636  0.00097705  1
  Rh  Rh232  1  0.39493349  0.59721494  0.39851223  1
  Rh  Rh233  1  0.20340987  0.40450838  0.79620288  1
  Rh  Rh234  1  0.00104744  0.39969864  0.80107152  1
  Rh  Rh235  1  0.60275246  0.79435658  0.81036476  1
  Rh  Rh236  1  -0.00158366  0.39557028  0.20421288  1
  Rh  Rh237  1  -0.00261091  0.81338749  0.80948587  1
  Rh  Rh238  1  0.01077041  0.80207511  0.59064847  1
  Rh  Rh239  1  -0.00080335  -0.01028370  0.61038684  1
  Rh  Rh240  1  0.80668088  0.79630729  0.39216005  1
  Rh  Rh241  1  0.00501524  0.00004474  0.20241589  1
  Rh  Rh242  1  0.39059963  0.80062093  0.79216603  1
  Rh  Rh243  1  0.60958432  -0.00040831  0.21453981  1
  Rh  Rh244  1  0.00887840  0.39859129  0.59908136  1
  Rh  Rh245  1  0.59067886  0.20422629  0.80735626  1
  Rh  Rh246  1  0.00517095  0.20100181  0.20568440  1
  Rh  Rh247  1  0.20450104  0.40876712  0.39844211  1
  Rh  Rh248  1  0.20810786  0.80390494  0.79673780  1
  Rh  Rh249  1  0.59041387  0.20053034  0.39740038  1
