# generated using pymatgen
data_ZrScNbPdRh
_symmetry_space_group_name_H-M   'P 1'
_cell_length_a   16.55650063
_cell_length_b   16.55480793
_cell_length_c   16.55373235
_cell_angle_alpha   90.00283022
_cell_angle_beta   90.01899603
_cell_angle_gamma   90.00984648
_symmetry_Int_Tables_number   1
_chemical_formula_structural   ZrScNbPdRh
_chemical_formula_sum   'Zr50 Sc50 Nb50 Pd50 Rh50'
_cell_volume   4537.20701321
_cell_formula_units_Z   50
loop_
 _symmetry_equiv_pos_site_id
 _symmetry_equiv_pos_as_xyz
  1  'x, y, z'
loop_
 _atom_site_type_symbol
 _atom_site_label
 _atom_site_symmetry_multiplicity
 _atom_site_fract_x
 _atom_site_fract_y
 _atom_site_fract_z
 _atom_site_occupancy
  Zr  Zr0  1  0.30269846  0.70147280  0.89977261  1
  Zr  Zr1  1  0.50054558  0.30018420  0.50211459  1
  Zr  Zr2  1  0.69801027  0.70632737  0.50705336  1
  Zr  Zr3  1  0.89540180  0.91533874  0.90049810  1
  Zr  Zr4  1  0.90069188  0.50240826  0.49784067  1
  Zr  Zr5  1  0.09928110  0.10298274  0.49446955  1
  Zr  Zr6  1  0.29969265  0.70266661  0.69958133  1
  Zr  Zr7  1  0.09703244  0.70037465  0.90058865  1
  Zr  Zr8  1  0.69891262  0.29349474  0.90536792  1
  Zr  Zr9  1  0.70045851  0.70543062  0.69592399  1
  Zr  Zr10  1  0.49796848  0.09623760  0.50533062  1
  Zr  Zr11  1  0.10018117  0.69854083  0.30615606  1
  Zr  Zr12  1  0.89752921  0.70361063  0.90639211  1
  Zr  Zr13  1  0.89218462  0.09229302  0.70624361  1
  Zr  Zr14  1  0.29303425  0.30655848  0.30261900  1
  Zr  Zr15  1  0.89212798  0.90147314  0.29797157  1
  Zr  Zr16  1  0.69519933  0.09468990  0.50036642  1
  Zr  Zr17  1  0.69042027  0.90313885  0.90056919  1
  Zr  Zr18  1  0.49824224  0.49540183  0.69884094  1
  Zr  Zr19  1  0.50072622  0.70576299  0.90653922  1
  Zr  Zr20  1  0.31366087  0.89804824  0.89881621  1
  Zr  Zr21  1  0.50933603  0.89646016  0.49325068  1
  Zr  Zr22  1  0.09397258  0.50342892  0.49747256  1
  Zr  Zr23  1  0.91066777  0.49785407  0.69250089  1
  Zr  Zr24  1  0.90023808  0.89945674  0.70196525  1
  Zr  Zr25  1  0.30104490  0.89529607  0.69991884  1
  Zr  Zr26  1  0.89569559  0.29810842  0.90488476  1
  Zr  Zr27  1  0.09477380  0.89524693  0.70155200  1
  Zr  Zr28  1  0.50090907  0.09102897  0.89372358  1
  Zr  Zr29  1  0.70019242  0.70372678  0.90422447  1
  Zr  Zr30  1  0.11031828  0.31062751  0.69760070  1
  Zr  Zr31  1  0.88953952  0.09463103  0.09648375  1
  Zr  Zr32  1  0.70276192  0.70301827  0.09443378  1
  Zr  Zr33  1  0.89999488  0.70699720  0.10300854  1
  Zr  Zr34  1  0.89143207  0.29601299  0.10220332  1
  Zr  Zr35  1  0.70002312  0.50766992  0.10842387  1
  Zr  Zr36  1  0.10292611  0.10004571  0.10595072  1
  Zr  Zr37  1  0.70323153  0.50342772  0.69864423  1
  Zr  Zr38  1  0.30397851  0.50341217  0.48580647  1
  Zr  Zr39  1  0.09651786  0.70549674  0.70222223  1
  Zr  Zr40  1  0.30654171  0.89670250  0.10874278  1
  Zr  Zr41  1  0.89317419  0.29203463  0.30225629  1
  Zr  Zr42  1  0.50171182  0.29764641  0.89317941  1
  Zr  Zr43  1  0.09612266  0.10523249  0.30435405  1
  Zr  Zr44  1  0.08966119  0.70114256  0.49514908  1
  Zr  Zr45  1  0.50733163  0.70321961  0.10717099  1
  Zr  Zr46  1  0.30171938  0.70204252  0.09438972  1
  Zr  Zr47  1  0.90322452  0.30728183  0.49584293  1
  Zr  Zr48  1  0.09389356  0.90255561  0.49981111  1
  Zr  Zr49  1  0.70145026  0.50358014  0.90304568  1
  Sc  Sc50  1  0.70803760  0.29439725  0.49850126  1
  Sc  Sc51  1  0.49945394  0.28868748  0.10333592  1
  Sc  Sc52  1  0.09893865  0.49765697  0.89972370  1
  Sc  Sc53  1  0.69498075  0.28648928  0.70414536  1
  Sc  Sc54  1  0.48986275  0.49473580  0.90001579  1
  Sc  Sc55  1  0.10945014  0.30343423  0.88817585  1
  Sc  Sc56  1  0.90039593  0.10456380  0.49148275  1
  Sc  Sc57  1  0.50037586  0.50190199  0.31589788  1
  Sc  Sc58  1  0.50288069  0.09436004  0.11086643  1
  Sc  Sc59  1  0.09909243  0.30244754  0.10876104  1
  Sc  Sc60  1  0.49546462  0.50081046  0.08900227  1
  Sc  Sc61  1  0.49138942  0.50109965  0.50071205  1
  Sc  Sc62  1  0.10640811  0.30046636  0.49426888  1
  Sc  Sc63  1  0.08912423  0.89593389  0.89427971  1
  Sc  Sc64  1  0.49625198  0.69857875  0.49548126  1
  Sc  Sc65  1  0.30618611  0.49310390  0.69377161  1
  Sc  Sc66  1  0.70193950  0.09900374  0.89892043  1
  Sc  Sc67  1  0.90454967  0.90134502  0.50488436  1
  Sc  Sc68  1  0.89561696  0.30359413  0.69643347  1
  Sc  Sc69  1  0.50080939  0.90949154  0.70213174  1
  Sc  Sc70  1  0.89172188  0.49561428  0.30781956  1
  Sc  Sc71  1  0.70546780  0.09531485  0.29677770  1
  Sc  Sc72  1  0.50307692  0.90327209  0.90299180  1
  Sc  Sc73  1  0.09732112  0.89321496  0.10119796  1
  Sc  Sc74  1  0.50261160  0.10780466  0.69719896  1
  Sc  Sc75  1  0.90089336  0.69909392  0.69329839  1
  Sc  Sc76  1  0.10153072  0.30008617  0.29866785  1
  Sc  Sc77  1  0.30302966  0.09407838  0.11226227  1
  Sc  Sc78  1  0.29493213  0.10496244  0.50219683  1
  Sc  Sc79  1  0.29959545  0.30750601  0.89260468  1
  Sc  Sc80  1  0.09651595  0.90283497  0.30693854  1
  Sc  Sc81  1  0.90848190  0.50432555  0.90353892  1
  Sc  Sc82  1  0.30927305  0.10326679  0.69730411  1
  Sc  Sc83  1  0.29929698  0.69828913  0.29934588  1
  Sc  Sc84  1  0.11364297  0.10844316  0.69886038  1
  Sc  Sc85  1  0.69654797  0.68328415  0.29162535  1
  Sc  Sc86  1  0.29613637  0.30479968  0.09794941  1
  Sc  Sc87  1  0.70397167  0.50140246  0.49202878  1
  Sc  Sc88  1  0.10637159  0.49637510  0.09898984  1
  Sc  Sc89  1  0.70157199  0.90600449  0.10445785  1
  Sc  Sc90  1  0.50376323  0.90064832  0.10498649  1
  Sc  Sc91  1  0.49865815  0.69471726  0.69042468  1
  Sc  Sc92  1  0.50347693  0.89424864  0.29424953  1
  Sc  Sc93  1  0.29779979  0.30586913  0.50159558  1
  Sc  Sc94  1  0.69436072  0.10164968  0.10155408  1
  Sc  Sc95  1  0.90855386  0.49250581  0.09925837  1
  Sc  Sc96  1  0.10078736  0.70277618  0.09685570  1
  Sc  Sc97  1  0.28949805  0.09874406  0.29454324  1
  Sc  Sc98  1  0.89946340  0.70045854  0.30497202  1
  Sc  Sc99  1  0.50047471  0.30045050  0.29884116  1
  Nb  Nb100  1  0.69637818  0.89623518  0.49881096  1
  Nb  Nb101  1  0.69656697  0.90807295  0.31405310  1
  Nb  Nb102  1  0.30905700  0.89870007  0.50199740  1
  Nb  Nb103  1  0.09957475  0.09700878  0.89768500  1
  Nb  Nb104  1  0.49941403  0.09995434  0.29853550  1
  Nb  Nb105  1  0.49841645  0.30063821  0.69848298  1
  Nb  Nb106  1  0.70506120  0.90102412  0.69204813  1
  Nb  Nb107  1  0.30540408  0.49859890  0.09323193  1
  Nb  Nb108  1  0.29541288  0.29794962  0.70052428  1
  Nb  Nb109  1  0.30208837  0.70275730  0.50400812  1
  Nb  Nb110  1  0.69637880  0.49472097  0.30100805  1
  Nb  Nb111  1  0.30278419  0.50203373  0.91347702  1
  Nb  Nb112  1  0.90017558  0.10129685  0.29823809  1
  Nb  Nb113  1  0.69978759  0.29939325  0.29567491  1
  Nb  Nb114  1  0.89807499  0.69904660  0.49326208  1
  Nb  Nb115  1  0.89198578  0.90029433  0.10116033  1
  Nb  Nb116  1  0.69943776  0.29775487  0.10324968  1
  Nb  Nb117  1  0.10324030  0.50448954  0.69900065  1
  Nb  Nb118  1  0.29921306  0.09785998  0.89741838  1
  Nb  Nb119  1  0.30394545  0.90124044  0.30239746  1
  Nb  Nb120  1  0.90472526  0.09761759  0.90023972  1
  Nb  Nb121  1  0.29542801  0.50174314  0.29684735  1
  Nb  Nb122  1  0.11347059  0.50716312  0.30279151  1
  Nb  Nb123  1  0.69808323  0.09434347  0.69849226  1
  Nb  Nb124  1  0.49800108  0.69463206  0.29257829  1
  Nb  Nb125  1  0.40327466  0.19484389  0.39594024  1
  Nb  Nb126  1  0.20350567  -0.00767911  0.60038538  1
  Nb  Nb127  1  0.39887008  0.40861098  0.20080704  1
  Nb  Nb128  1  0.79584636  0.80510738  0.79863072  1
  Nb  Nb129  1  0.20074761  0.19168467  -0.00535736  1
  Nb  Nb130  1  0.60543203  0.39357073  0.00589026  1
  Nb  Nb131  1  0.00309301  0.19350579  -0.00629505  1
  Nb  Nb132  1  0.60183902  0.40073044  0.19928844  1
  Nb  Nb133  1  0.79883349  0.40265907  0.80227265  1
  Nb  Nb134  1  0.00124673  0.20362587  0.60396218  1
  Nb  Nb135  1  0.20243724  0.00169438  -0.00541452  1
  Nb  Nb136  1  0.19930512  0.60305677  0.60008168  1
  Nb  Nb137  1  -0.00996977  0.00038637  0.19936048  1
  Nb  Nb138  1  0.20370844  0.59674213  0.79791998  1
  Nb  Nb139  1  0.59784787  0.39570346  0.60324795  1
  Nb  Nb140  1  0.79170010  0.80186052  0.40431913  1
  Nb  Nb141  1  0.60034218  0.60077636  0.80116913  1
  Nb  Nb142  1  0.39959984  -0.00021432  0.39761743  1
  Nb  Nb143  1  0.39342573  0.19288089  -0.00539483  1
  Nb  Nb144  1  0.39698798  0.59417525  0.20006595  1
  Nb  Nb145  1  -0.00052402  0.19681894  0.80027441  1
  Nb  Nb146  1  0.00634364  0.59783272  0.20607086  1
  Nb  Nb147  1  0.59793276  0.19530567  0.39643158  1
  Nb  Nb148  1  0.20333834  -0.00064147  0.80256835  1
  Nb  Nb149  1  0.21053719  0.80491225  0.40713182  1
  Pd  Pd150  1  0.19068654  -0.01085924  0.19921397  1
  Pd  Pd151  1  0.60515665  0.39201202  0.40343686  1
  Pd  Pd152  1  0.39756018  0.20036921  0.80168293  1
  Pd  Pd153  1  0.41434143  0.79831145  0.79357103  1
  Pd  Pd154  1  0.39873361  0.79937783  0.39363953  1
  Pd  Pd155  1  0.00952076  0.38853721  -0.00256124  1
  Pd  Pd156  1  0.39156273  0.20668690  0.20113361  1
  Pd  Pd157  1  0.20035733  0.60032636  0.19052889  1
  Pd  Pd158  1  0.20259122  0.40977780  0.59222058  1
  Pd  Pd159  1  0.80129606  0.60185069  0.79886320  1
  Pd  Pd160  1  0.80403757  0.60060174  0.59533728  1
  Pd  Pd161  1  0.19498550  0.59819057  -0.00447126  1
  Pd  Pd162  1  0.80166891  -0.00000450  0.59115109  1
  Pd  Pd163  1  0.81093194  0.59350516  0.00903346  1
  Pd  Pd164  1  0.40037821  0.00500726  0.00911466  1
  Pd  Pd165  1  0.39303850  0.20648097  0.59541116  1
  Pd  Pd166  1  -0.00490101  0.19617158  0.19442963  1
  Pd  Pd167  1  0.60552886  0.78664403  0.38766497  1
  Pd  Pd168  1  -0.00564507  0.39410551  0.80030582  1
  Pd  Pd169  1  0.00143287  0.80078451  0.20486393  1
  Pd  Pd170  1  0.80507799  0.19660801  0.59790786  1
  Pd  Pd171  1  0.20879949  -0.00368690  0.40654105  1
  Pd  Pd172  1  0.00653042  0.40089194  0.39025551  1
  Pd  Pd173  1  0.80243776  0.20130387  0.80004552  1
  Pd  Pd174  1  0.79767871  0.40230264  0.20247975  1
  Pd  Pd175  1  0.78842570  0.79945922  0.21104754  1
  Pd  Pd176  1  0.60076993  0.60398014  0.40491025  1
  Pd  Pd177  1  0.79660334  0.40562494  -0.00072441  1
  Pd  Pd178  1  0.40067513  0.59752199  0.80086021  1
  Pd  Pd179  1  0.59240350  0.59357600  -0.00521495  1
  Pd  Pd180  1  0.59056354  0.19609261  0.00080333  1
  Pd  Pd181  1  0.59839054  -0.00368185  0.60493310  1
  Pd  Pd182  1  0.80600314  -0.00188366  0.40779768  1
  Pd  Pd183  1  0.41202200  0.80320988  0.60247330  1
  Pd  Pd184  1  0.19970000  0.81182180  -0.00673848  1
  Pd  Pd185  1  0.00781034  0.01361837  0.60664084  1
  Pd  Pd186  1  0.81403661  0.59664643  0.20237672  1
  Pd  Pd187  1  0.79084061  0.39654108  0.60365735  1
  Pd  Pd188  1  0.59786218  0.79797171  0.79165569  1
  Pd  Pd189  1  0.59669944  0.59205223  0.59736953  1
  Pd  Pd190  1  -0.00495975  0.80717249  -0.00062588  1
  Pd  Pd191  1  0.39256877  0.39993268  0.79866708  1
  Pd  Pd192  1  0.19584585  0.79975659  0.59177902  1
  Pd  Pd193  1  0.19622059  0.39236354  -0.00138768  1
  Pd  Pd194  1  0.00646995  -0.00079295  0.00984902  1
  Pd  Pd195  1  0.00225129  0.60184068  0.79989507  1
  Pd  Pd196  1  0.61207362  0.80452488  0.20615988  1
  Pd  Pd197  1  0.60691029  0.40373725  0.80008060  1
  Pd  Pd198  1  0.00403255  0.40968761  0.21161791  1
  Pd  Pd199  1  0.19897003  0.80262635  0.21040263  1
  Rh  Rh200  1  0.40203708  0.39301840  0.60114974  1
  Rh  Rh201  1  -0.00804485  0.79402269  0.59566312  1
  Rh  Rh202  1  0.20448835  0.40389131  0.19823638  1
  Rh  Rh203  1  0.40487067  0.60859310  0.00471318  1
  Rh  Rh204  1  0.21144851  0.41620281  0.80228151  1
  Rh  Rh205  1  0.60385411  0.00301917  0.79349337  1
  Rh  Rh206  1  0.60088764  0.80668847  0.01022672  1
  Rh  Rh207  1  0.00203369  0.60071133  0.01405014  1
  Rh  Rh208  1  0.59338663  0.80552754  0.60345182  1
  Rh  Rh209  1  -0.00831342  0.00029005  0.39051998  1
  Rh  Rh210  1  0.39943599  0.79230590  0.20312571  1
  Rh  Rh211  1  0.40730878  0.38345274  0.00598195  1
  Rh  Rh212  1  0.40831963  0.80260369  0.00683632  1
  Rh  Rh213  1  -0.00808690  0.80580941  0.40101291  1
  Rh  Rh214  1  0.39248147  0.59922684  0.59592895  1
  Rh  Rh215  1  0.59982726  0.19155745  0.79637662  1
  Rh  Rh216  1  0.60586054  0.20103816  0.20800683  1
  Rh  Rh217  1  0.78797853  -0.00363547  0.80086929  1
  Rh  Rh218  1  0.80540508  0.80346163  0.59679742  1
  Rh  Rh219  1  0.60363813  -0.00268320  0.20648892  1
  Rh  Rh220  1  0.00200757  0.60462723  0.59886279  1
  Rh  Rh221  1  0.19978912  0.80006770  0.81115604  1
  Rh  Rh222  1  0.79097844  0.00157286  -0.00080211  1
  Rh  Rh223  1  0.79855118  0.00022112  0.20086461  1
  Rh  Rh224  1  0.58460828  0.58471379  0.20346861  1
  Rh  Rh225  1  0.59194913  0.00642081  0.39512970  1
  Rh  Rh226  1  0.80069787  0.19292583  0.00128516  1
  Rh  Rh227  1  -0.00089637  0.20541402  0.40415521  1
  Rh  Rh228  1  0.01030395  0.00917707  0.78865065  1
  Rh  Rh229  1  0.19914154  0.19924764  0.59842136  1
  Rh  Rh230  1  -0.01555801  0.79676801  0.80512794  1
  Rh  Rh231  1  0.79509721  0.19545506  0.20063712  1
  Rh  Rh232  1  0.59823786  0.00246513  0.00387285  1
  Rh  Rh233  1  0.39696368  -0.00170032  0.59656105  1
  Rh  Rh234  1  0.20686308  0.20204217  0.39791517  1
  Rh  Rh235  1  0.40430370  -0.00480107  0.20929611  1
  Rh  Rh236  1  0.19613932  0.40216330  0.40085268  1
  Rh  Rh237  1  0.79430953  0.39619698  0.39893983  1
  Rh  Rh238  1  0.00771788  0.39481870  0.59807383  1
  Rh  Rh239  1  -0.00675402  0.59248391  0.39028590  1
  Rh  Rh240  1  0.20375160  0.20704039  0.19475517  1
  Rh  Rh241  1  0.79432317  0.60662950  0.40008228  1
  Rh  Rh242  1  0.79822381  0.81168886  -0.00492292  1
  Rh  Rh243  1  0.39783997  0.60867969  0.39254475  1
  Rh  Rh244  1  0.20611983  0.61080485  0.40903449  1
  Rh  Rh245  1  0.60382609  0.20370151  0.59696094  1
  Rh  Rh246  1  0.39821923  0.00230779  0.79341446  1
  Rh  Rh247  1  0.79300409  0.19774886  0.39570607  1
  Rh  Rh248  1  0.39831678  0.39365096  0.39179650  1
  Rh  Rh249  1  0.20190352  0.19718589  0.80099457  1
