# generated using pymatgen
data_ZrScNbPdRh
_symmetry_space_group_name_H-M   'P 1'
_cell_length_a   16.55083542
_cell_length_b   16.55956636
_cell_length_c   16.55829590
_cell_angle_alpha   89.97716233
_cell_angle_beta   89.98868029
_cell_angle_gamma   89.98615677
_symmetry_Int_Tables_number   1
_chemical_formula_structural   ZrScNbPdRh
_chemical_formula_sum   'Zr50 Sc50 Nb50 Pd50 Rh50'
_cell_volume   4538.20869562
_cell_formula_units_Z   50
loop_
 _symmetry_equiv_pos_site_id
 _symmetry_equiv_pos_as_xyz
  1  'x, y, z'
loop_
 _atom_site_type_symbol
 _atom_site_label
 _atom_site_symmetry_multiplicity
 _atom_site_fract_x
 _atom_site_fract_y
 _atom_site_fract_z
 _atom_site_occupancy
  Zr  Zr0  1  0.50259231  0.10265412  0.69093131  1
  Zr  Zr1  1  0.30256674  0.30278118  0.88879412  1
  Zr  Zr2  1  0.29986238  0.70165773  0.49759669  1
  Zr  Zr3  1  0.09794749  0.68800914  0.10232988  1
  Zr  Zr4  1  0.90242337  0.70250231  0.49989948  1
  Zr  Zr5  1  0.31177611  0.09569511  0.49906233  1
  Zr  Zr6  1  0.29834612  0.89564410  0.49609028  1
  Zr  Zr7  1  0.50074525  0.30156398  0.30131987  1
  Zr  Zr8  1  0.90596356  0.50831360  0.10292733  1
  Zr  Zr9  1  0.29871031  0.10289000  0.90057684  1
  Zr  Zr10  1  0.49835486  0.30770851  0.10186969  1
  Zr  Zr11  1  0.89512582  0.90375728  0.10618409  1
  Zr  Zr12  1  0.10482067  0.49690147  0.10152232  1
  Zr  Zr13  1  0.50731655  0.30750548  0.89697549  1
  Zr  Zr14  1  0.89720018  0.89872716  0.69923056  1
  Zr  Zr15  1  0.30072661  0.90298121  0.10086949  1
  Zr  Zr16  1  0.70837804  0.49608890  0.69927332  1
  Zr  Zr17  1  0.69393265  0.29747961  0.90071444  1
  Zr  Zr18  1  0.69190995  0.09821939  0.31058352  1
  Zr  Zr19  1  0.09705994  0.09536043  0.30054995  1
  Zr  Zr20  1  0.69814901  0.30197810  0.09548863  1
  Zr  Zr21  1  0.10173894  0.90100749  0.89559694  1
  Zr  Zr22  1  0.89198861  0.69931110  0.30171425  1
  Zr  Zr23  1  0.09506831  0.50051811  0.70107037  1
  Zr  Zr24  1  0.30431393  0.49727129  0.49467558  1
  Zr  Zr25  1  0.70262539  0.30445749  0.30324219  1
  Zr  Zr26  1  0.30296437  0.50498998  0.09644944  1
  Zr  Zr27  1  0.30124997  0.69725693  0.10655950  1
  Zr  Zr28  1  0.90220065  0.49834615  0.88532695  1
  Zr  Zr29  1  0.89878855  0.31234531  0.70388458  1
  Zr  Zr30  1  0.90395634  0.69022211  0.69434211  1
  Zr  Zr31  1  0.10439843  0.10185733  0.90132077  1
  Zr  Zr32  1  0.30761272  0.50028284  0.90417074  1
  Zr  Zr33  1  0.89727049  0.69791811  0.10173424  1
  Zr  Zr34  1  0.69478316  0.10533643  0.68779023  1
  Zr  Zr35  1  0.29884676  0.70266701  0.29990593  1
  Zr  Zr36  1  0.70099798  0.50047428  0.49704330  1
  Zr  Zr37  1  0.90146507  0.29956541  0.49360820  1
  Zr  Zr38  1  0.10405960  0.69962907  0.90029731  1
  Zr  Zr39  1  0.69727130  0.89660143  0.30618055  1
  Zr  Zr40  1  0.69995041  0.28926329  0.49692232  1
  Zr  Zr41  1  0.89839446  0.89454848  0.49860672  1
  Zr  Zr42  1  0.88834695  0.89906582  0.89533322  1
  Zr  Zr43  1  0.49669914  0.69330316  0.10556876  1
  Zr  Zr44  1  0.10144273  0.10771568  0.69478681  1
  Zr  Zr45  1  0.30500572  0.29754177  0.29663807  1
  Zr  Zr46  1  0.69817864  0.69734900  0.10739980  1
  Zr  Zr47  1  0.10215410  0.70058959  0.30018004  1
  Zr  Zr48  1  0.30534262  0.11520356  0.69659745  1
  Zr  Zr49  1  0.49824760  0.10013291  0.10632094  1
  Sc  Sc50  1  0.90322244  0.30904376  0.29834817  1
  Sc  Sc51  1  0.51103241  0.09421591  0.90007216  1
  Sc  Sc52  1  0.09533145  0.10389758  0.09428473  1
  Sc  Sc53  1  0.30839966  0.70647608  0.69955858  1
  Sc  Sc54  1  0.09770397  0.49382324  0.29866990  1
  Sc  Sc55  1  0.70166461  0.69804436  0.89634500  1
  Sc  Sc56  1  0.10691446  0.49768809  0.49311072  1
  Sc  Sc57  1  0.89646935  0.50374941  0.50388072  1
  Sc  Sc58  1  0.89829901  0.09855528  0.09871753  1
  Sc  Sc59  1  0.30213232  0.47947596  0.70202905  1
  Sc  Sc60  1  0.69104040  0.50233303  0.89560740  1
  Sc  Sc61  1  0.30482049  0.09925492  0.31226868  1
  Sc  Sc62  1  0.30107917  0.89734763  0.30537426  1
  Sc  Sc63  1  0.69446011  0.89627412  0.50197780  1
  Sc  Sc64  1  0.49487908  0.09821191  0.30957195  1
  Sc  Sc65  1  0.29932566  0.30332529  0.50615914  1
  Sc  Sc66  1  0.89708319  0.49855300  0.30206782  1
  Sc  Sc67  1  0.70828031  0.50080081  0.29759439  1
  Sc  Sc68  1  0.09844775  0.70400794  0.69447706  1
  Sc  Sc69  1  0.50254115  0.90233690  0.30642277  1
  Sc  Sc70  1  0.69562671  0.69806036  0.69766268  1
  Sc  Sc71  1  0.09414565  0.30434896  0.30585526  1
  Sc  Sc72  1  0.30017156  0.90534063  0.90286001  1
  Sc  Sc73  1  0.09845315  0.49895002  0.90756067  1
  Sc  Sc74  1  0.70260606  0.90817964  0.10113678  1
  Sc  Sc75  1  0.89328757  0.69344660  0.89966386  1
  Sc  Sc76  1  0.89139054  0.09341284  0.69654916  1
  Sc  Sc77  1  0.09743065  0.89091772  0.70061834  1
  Sc  Sc78  1  0.69671600  0.09747721  0.90730717  1
  Sc  Sc79  1  0.90496605  0.89864146  0.29839041  1
  Sc  Sc80  1  0.10029601  0.70618200  0.50354345  1
  Sc  Sc81  1  0.30488097  0.89144348  0.68919562  1
  Sc  Sc82  1  0.89667678  0.10250774  0.90000415  1
  Sc  Sc83  1  0.30136017  0.09872887  0.09480151  1
  Sc  Sc84  1  0.10177084  0.30180679  0.90446576  1
  Sc  Sc85  1  0.09929080  0.89792721  0.30685569  1
  Sc  Sc86  1  0.09662842  0.11001599  0.48953342  1
  Sc  Sc87  1  0.49830648  0.90526765  0.10642342  1
  Sc  Sc88  1  0.50355165  0.70680697  0.69930039  1
  Sc  Sc89  1  0.49762218  0.70642738  0.29448358  1
  Sc  Sc90  1  0.30058821  0.31068843  0.10121942  1
  Sc  Sc91  1  0.90429038  0.29947815  0.90393651  1
  Sc  Sc92  1  0.09784316  0.30501086  0.10149683  1
  Sc  Sc93  1  0.10022122  0.89701158  0.11007408  1
  Sc  Sc94  1  0.29691262  0.50082717  0.30441860  1
  Sc  Sc95  1  0.70129111  0.70659343  0.49817557  1
  Sc  Sc96  1  0.69378200  0.50460425  0.10263180  1
  Sc  Sc97  1  0.49823379  0.69128646  0.88876059  1
  Sc  Sc98  1  0.69630776  0.90069668  0.70622895  1
  Sc  Sc99  1  0.90449372  0.29272849  0.09716664  1
  Nb  Nb100  1  0.90485505  0.50068642  0.69758009  1
  Nb  Nb101  1  0.51017400  0.89918036  0.89361385  1
  Nb  Nb102  1  0.50268327  0.89767501  0.70579538  1
  Nb  Nb103  1  0.49954053  0.89457147  0.50826894  1
  Nb  Nb104  1  0.29969825  0.29459738  0.70121269  1
  Nb  Nb105  1  0.51043096  0.09816139  0.50036191  1
  Nb  Nb106  1  0.30195361  0.69560952  0.90529578  1
  Nb  Nb107  1  0.49773077  0.49678428  0.49713664  1
  Nb  Nb108  1  0.70196690  0.10327572  0.10397250  1
  Nb  Nb109  1  0.49435168  0.50109598  0.09494765  1
  Nb  Nb110  1  0.50108780  0.30545257  0.49829916  1
  Nb  Nb111  1  0.70218670  0.10084618  0.50086565  1
  Nb  Nb112  1  0.50401450  0.49768020  0.70025313  1
  Nb  Nb113  1  0.68898436  0.29976743  0.70122530  1
  Nb  Nb114  1  0.68831469  0.90113009  0.90053244  1
  Nb  Nb115  1  0.89231310  0.09833746  0.50101508  1
  Nb  Nb116  1  0.69545140  0.69933219  0.30732057  1
  Nb  Nb117  1  0.49934735  0.29767583  0.70065534  1
  Nb  Nb118  1  0.90040611  0.09122597  0.29517329  1
  Nb  Nb119  1  0.50372123  0.70011892  0.50320465  1
  Nb  Nb120  1  0.09293974  0.30311685  0.50493390  1
  Nb  Nb121  1  0.11175785  0.30009057  0.69326997  1
  Nb  Nb122  1  0.49590875  0.49542044  0.90001880  1
  Nb  Nb123  1  0.49619011  0.49842170  0.30457344  1
  Nb  Nb124  1  0.10074678  0.90072336  0.50075866  1
  Nb  Nb125  1  0.40430361  -0.00312692  0.79388821  1
  Nb  Nb126  1  0.20715238  0.60106570  0.79841772  1
  Nb  Nb127  1  0.40577231  0.59341987  0.59630311  1
  Nb  Nb128  1  0.00018284  0.20421876  0.79236196  1
  Nb  Nb129  1  0.00386707  0.39758691  0.60119816  1
  Nb  Nb130  1  0.79425863  0.19444226  0.20288786  1
  Nb  Nb131  1  0.40280123  0.79760056  -0.00376767  1
  Nb  Nb132  1  0.20689156  0.00449711  0.78806736  1
  Nb  Nb133  1  -0.00289409  -0.00973466  -0.00369468  1
  Nb  Nb134  1  0.59586232  0.80200479  -0.00339423  1
  Nb  Nb135  1  0.79858048  0.40327328  -0.00111252  1
  Nb  Nb136  1  0.19625718  0.00071186  0.59687156  1
  Nb  Nb137  1  0.20054061  0.19702101  0.20419424  1
  Nb  Nb138  1  0.59521389  0.39821803  0.60049349  1
  Nb  Nb139  1  0.00175222  0.00074339  0.59354687  1
  Nb  Nb140  1  0.20208551  0.79502491  0.00260623  1
  Nb  Nb141  1  0.20915018  0.59585269  0.60333168  1
  Nb  Nb142  1  0.79929870  0.00554345  0.40504501  1
  Nb  Nb143  1  -0.00160680  0.80115580  0.00063908  1
  Nb  Nb144  1  0.19908354  0.00648026  0.20389392  1
  Nb  Nb145  1  0.59403605  0.59991815  0.40030143  1
  Nb  Nb146  1  -0.00147894  0.60441463  0.40091776  1
  Nb  Nb147  1  0.79538716  0.20614389  0.79583158  1
  Nb  Nb148  1  0.60315063  0.20092719  0.20253918  1
  Nb  Nb149  1  0.40413942  0.20440124  -0.00238306  1
  Pd  Pd150  1  0.79858340  0.39480410  0.59376010  1
  Pd  Pd151  1  -0.00617952  -0.00092647  0.40579807  1
  Pd  Pd152  1  0.41065824  -0.00097910  -0.00926328  1
  Pd  Pd153  1  0.81070312  0.19532790  0.38905483  1
  Pd  Pd154  1  0.79300744  0.79989526  0.60580288  1
  Pd  Pd155  1  0.20020791  0.20663860  0.39944845  1
  Pd  Pd156  1  0.59488507  0.60500814  -0.00428020  1
  Pd  Pd157  1  0.00703165  0.60598692  0.80264758  1
  Pd  Pd158  1  -0.00042642  0.79760457  0.19836281  1
  Pd  Pd159  1  0.21185121  0.80010248  0.80253149  1
  Pd  Pd160  1  0.39772667  0.80670401  0.80774656  1
  Pd  Pd161  1  0.79645149  0.60397468  0.59869812  1
  Pd  Pd162  1  0.79685799  0.59069876  -0.00347954  1
  Pd  Pd163  1  0.80582774  0.20727510  0.60689919  1
  Pd  Pd164  1  0.60260483  -0.00867249  0.59939601  1
  Pd  Pd165  1  0.20131524  0.39094195  0.39954228  1
  Pd  Pd166  1  0.20406835  0.19676101  0.58453385  1
  Pd  Pd167  1  0.20177765  0.59160001  0.20823272  1
  Pd  Pd168  1  0.79470049  0.79305427  0.79514365  1
  Pd  Pd169  1  0.19444095  0.40477801  0.80555367  1
  Pd  Pd170  1  0.41434371  0.19453396  0.80681928  1
  Pd  Pd171  1  0.59607161  0.59206185  0.21200143  1
  Pd  Pd172  1  0.79409777  0.80062645  0.20478072  1
  Pd  Pd173  1  0.59985992  0.59852833  0.79611160  1
  Pd  Pd174  1  -0.00866522  0.79122222  0.80433790  1
  Pd  Pd175  1  0.79366667  0.39619437  0.80818837  1
  Pd  Pd176  1  0.20758127  0.21090122  0.00994013  1
  Pd  Pd177  1  0.00474978  0.00853494  0.79595831  1
  Pd  Pd178  1  0.79372370  0.80002084  0.00041339  1
  Pd  Pd179  1  0.59326240  0.19583975  0.00659196  1
  Pd  Pd180  1  0.59835197  0.40472212  0.20099715  1
  Pd  Pd181  1  -0.01027184  0.20018128  0.60441094  1
  Pd  Pd182  1  0.40541754  0.20510848  0.40934663  1
  Pd  Pd183  1  0.78670821  0.01015791  0.80013997  1
  Pd  Pd184  1  0.40511450  0.39737588  0.60349877  1
  Pd  Pd185  1  0.59689891  0.59612969  0.59535426  1
  Pd  Pd186  1  0.39805193  0.41065792  0.20415501  1
  Pd  Pd187  1  0.39884969  -0.00474139  0.60243274  1
  Pd  Pd188  1  0.40719778  0.60609562  0.39873698  1
  Pd  Pd189  1  -0.00107168  0.20027086  0.20419456  1
  Pd  Pd190  1  -0.00778798  0.19963420  0.39265160  1
  Pd  Pd191  1  0.60147794  0.00406635  0.20222689  1
  Pd  Pd192  1  0.80032288  0.00228334  -0.00282565  1
  Pd  Pd193  1  0.39168234  0.00262862  0.21050034  1
  Pd  Pd194  1  0.40798296  0.80110960  0.39926051  1
  Pd  Pd195  1  0.60390824  0.40627888  0.40084515  1
  Pd  Pd196  1  0.80754301  0.39522080  0.18946713  1
  Pd  Pd197  1  -0.00675340  0.40231947  0.00264519  1
  Pd  Pd198  1  0.39551695  0.59372524  0.78765403  1
  Pd  Pd199  1  0.59993967  0.80595485  0.19439685  1
  Rh  Rh200  1  0.00376253  0.79392704  0.40024694  1
  Rh  Rh201  1  0.60198164  0.41453307  0.00209151  1
  Rh  Rh202  1  0.40051151  0.39555166  -0.00269926  1
  Rh  Rh203  1  0.40920586  0.60438306  -0.00193960  1
  Rh  Rh204  1  0.60004471  -0.00375167  0.41128990  1
  Rh  Rh205  1  0.59152037  0.19998235  0.40107654  1
  Rh  Rh206  1  0.01096355  0.58848999  0.58870115  1
  Rh  Rh207  1  0.60365665  0.19355124  0.79824512  1
  Rh  Rh208  1  0.80072468  -0.00693232  0.59296472  1
  Rh  Rh209  1  0.40868505  0.79429520  0.59773526  1
  Rh  Rh210  1  -0.00445385  0.41092940  0.41024604  1
  Rh  Rh211  1  0.80128197  0.40108108  0.40453090  1
  Rh  Rh212  1  0.40712507  0.39858786  0.79497602  1
  Rh  Rh213  1  0.20039373  0.59961204  -0.00540757  1
  Rh  Rh214  1  0.40051462  0.59312815  0.20756159  1
  Rh  Rh215  1  -0.00053876  0.80906891  0.60093362  1
  Rh  Rh216  1  -0.00159860  0.40215223  0.19595700  1
  Rh  Rh217  1  0.79995820  0.20596297  0.00050395  1
  Rh  Rh218  1  0.40933266  -0.00774987  0.40758646  1
  Rh  Rh219  1  0.79917027  0.59949261  0.79310800  1
  Rh  Rh220  1  0.79924331  0.80663435  0.39685764  1
  Rh  Rh221  1  0.01156013  0.39112548  0.79385966  1
  Rh  Rh222  1  0.40746261  0.20901059  0.59235160  1
  Rh  Rh223  1  0.20107082  -0.00190679  0.40168069  1
  Rh  Rh224  1  0.59431906  0.79339831  0.40371882  1
  Rh  Rh225  1  0.19648478  0.40237756  0.59812736  1
  Rh  Rh226  1  0.20410391  0.40006808  -0.00241375  1
  Rh  Rh227  1  0.59915200  0.80345416  0.60350016  1
  Rh  Rh228  1  0.19266275  0.20177901  0.80053022  1
  Rh  Rh229  1  0.39645480  0.39480215  0.39607276  1
  Rh  Rh230  1  0.79503588  0.00489952  0.21110439  1
  Rh  Rh231  1  0.18648491  -0.01059022  0.00733103  1
  Rh  Rh232  1  0.40065962  0.80493751  0.19724147  1
  Rh  Rh233  1  0.20554493  0.80885190  0.19968364  1
  Rh  Rh234  1  0.79733013  0.60345114  0.40083888  1
  Rh  Rh235  1  0.60443869  0.79452517  0.80393812  1
  Rh  Rh236  1  -0.00137621  0.59594207  0.21293841  1
  Rh  Rh237  1  0.59181936  0.20781495  0.59119623  1
  Rh  Rh238  1  0.39747592  0.19592358  0.19128142  1
  Rh  Rh239  1  0.19151793  0.60550004  0.40368173  1
  Rh  Rh240  1  0.59942138  0.00622813  0.79184497  1
  Rh  Rh241  1  -0.00323152  0.60347297  -0.00567305  1
  Rh  Rh242  1  -0.00180476  0.19094957  -0.00968832  1
  Rh  Rh243  1  0.19587519  0.79995575  0.39951587  1
  Rh  Rh244  1  0.59760587  0.40528615  0.79327717  1
  Rh  Rh245  1  0.79684792  0.60159363  0.20316586  1
  Rh  Rh246  1  0.00754907  0.00197027  0.19183159  1
  Rh  Rh247  1  0.19879101  0.79875343  0.59899951  1
  Rh  Rh248  1  0.59966246  -0.00649246  0.00892449  1
  Rh  Rh249  1  0.19964822  0.39356606  0.20302752  1
