# generated using pymatgen
data_ZrScNbPdRh
_symmetry_space_group_name_H-M   'P 1'
_cell_length_a   16.55745428
_cell_length_b   16.56293798
_cell_length_c   16.55892616
_cell_angle_alpha   89.97938993
_cell_angle_beta   90.02705240
_cell_angle_gamma   90.02008048
_symmetry_Int_Tables_number   1
_chemical_formula_structural   ZrScNbPdRh
_chemical_formula_sum   'Zr50 Sc50 Nb50 Pd50 Rh50'
_cell_volume   4541.12029224
_cell_formula_units_Z   50
loop_
 _symmetry_equiv_pos_site_id
 _symmetry_equiv_pos_as_xyz
  1  'x, y, z'
loop_
 _atom_site_type_symbol
 _atom_site_label
 _atom_site_symmetry_multiplicity
 _atom_site_fract_x
 _atom_site_fract_y
 _atom_site_fract_z
 _atom_site_occupancy
  Zr  Zr0  1  0.89739083  0.90440843  0.50566043  1
  Zr  Zr1  1  0.89303555  0.70911027  0.89522613  1
  Zr  Zr2  1  0.69379362  0.48938405  0.30919080  1
  Zr  Zr3  1  0.89655610  0.09956955  0.50278012  1
  Zr  Zr4  1  0.89642278  0.30994390  0.09662744  1
  Zr  Zr5  1  0.51090779  0.30865121  0.29509590  1
  Zr  Zr6  1  0.49407247  0.30096060  0.70219449  1
  Zr  Zr7  1  0.70192821  0.90783035  0.69607807  1
  Zr  Zr8  1  0.50862462  0.69285484  0.90355673  1
  Zr  Zr9  1  0.90820019  0.09463666  0.90562550  1
  Zr  Zr10  1  0.50163973  0.90694321  0.10656326  1
  Zr  Zr11  1  0.11031490  0.10175534  0.29390125  1
  Zr  Zr12  1  0.09820840  0.09110706  0.50475827  1
  Zr  Zr13  1  0.49781105  0.10073235  0.09782470  1
  Zr  Zr14  1  0.10592016  0.90224393  0.09648083  1
  Zr  Zr15  1  0.10249534  0.29476263  0.89602518  1
  Zr  Zr16  1  0.29422784  0.89471638  0.49512954  1
  Zr  Zr17  1  0.30317559  0.49813486  0.50201095  1
  Zr  Zr18  1  0.50671398  0.50335957  0.90379834  1
  Zr  Zr19  1  0.30120782  0.70539841  0.31096019  1
  Zr  Zr20  1  0.89593630  0.89387485  0.29119203  1
  Zr  Zr21  1  0.69930129  0.10085081  0.89678471  1
  Zr  Zr22  1  0.50055935  0.10776442  0.90246466  1
  Zr  Zr23  1  0.69934656  0.10652206  0.70343988  1
  Zr  Zr24  1  0.09108635  0.69538479  0.89789643  1
  Zr  Zr25  1  0.49572582  0.69266786  0.30061387  1
  Zr  Zr26  1  0.48749703  0.49237237  0.11097220  1
  Zr  Zr27  1  0.10371335  0.49921122  0.09690766  1
  Zr  Zr28  1  0.10840869  0.69889292  0.49765091  1
  Zr  Zr29  1  0.90918164  0.50027696  0.09984222  1
  Zr  Zr30  1  0.70368261  0.69710013  0.09569719  1
  Zr  Zr31  1  0.70158283  0.69617790  0.90193172  1
  Zr  Zr32  1  0.90208605  0.50635213  0.30674045  1
  Zr  Zr33  1  0.69966635  0.69488517  0.50364835  1
  Zr  Zr34  1  0.09500520  0.49796765  0.90161049  1
  Zr  Zr35  1  0.69348308  0.09472476  0.50442199  1
  Zr  Zr36  1  0.70383934  0.69758952  0.70725315  1
  Zr  Zr37  1  0.09347944  0.90911608  0.30262565  1
  Zr  Zr38  1  0.29099566  0.89952452  0.90573346  1
  Zr  Zr39  1  0.50363833  0.49278817  0.69424314  1
  Zr  Zr40  1  0.09531096  0.91111545  0.89497950  1
  Zr  Zr41  1  0.50005278  0.29889985  0.09942214  1
  Zr  Zr42  1  0.50661897  0.10447329  0.70925241  1
  Zr  Zr43  1  0.10817733  0.29690960  0.30726509  1
  Zr  Zr44  1  0.89817658  0.69605310  0.49460003  1
  Zr  Zr45  1  0.29735176  0.89410862  0.09446128  1
  Zr  Zr46  1  0.49460165  0.90488583  0.49499685  1
  Zr  Zr47  1  0.29491513  0.69538325  0.50504159  1
  Zr  Zr48  1  0.90646507  0.08767340  0.29695826  1
  Zr  Zr49  1  0.29866396  0.29543650  0.50189142  1
  Sc  Sc50  1  0.10080091  0.49743774  0.29982290  1
  Sc  Sc51  1  0.90608527  0.49872844  0.90066826  1
  Sc  Sc52  1  0.09956974  0.70006725  0.29920612  1
  Sc  Sc53  1  0.29976080  0.90189130  0.29956177  1
  Sc  Sc54  1  0.49500983  0.30589911  0.50213648  1
  Sc  Sc55  1  0.29441169  0.29990361  0.30827223  1
  Sc  Sc56  1  0.90215901  0.30193152  0.89530899  1
  Sc  Sc57  1  0.28638051  0.10757387  0.09893189  1
  Sc  Sc58  1  0.50169989  0.10301150  0.49164858  1
  Sc  Sc59  1  0.30688909  0.48884099  0.90965907  1
  Sc  Sc60  1  0.31504871  0.70980444  0.90492135  1
  Sc  Sc61  1  0.89892364  0.30080146  0.69830600  1
  Sc  Sc62  1  0.89869039  0.31259301  0.30230755  1
  Sc  Sc63  1  0.30107728  0.70050904  0.10816978  1
  Sc  Sc64  1  0.69315123  0.29961331  0.49783795  1
  Sc  Sc65  1  0.90699665  0.89953944  0.70194155  1
  Sc  Sc66  1  0.10062775  0.70455799  0.10349364  1
  Sc  Sc67  1  0.09539555  0.49653881  0.69859020  1
  Sc  Sc68  1  0.29092852  0.11279535  0.90040872  1
  Sc  Sc69  1  0.71101337  0.89136216  0.91079384  1
  Sc  Sc70  1  0.70525413  0.90091582  0.10105786  1
  Sc  Sc71  1  0.48922469  0.88432209  0.90106387  1
  Sc  Sc72  1  0.30781423  0.50385625  0.69305313  1
  Sc  Sc73  1  0.10036150  0.49735637  0.49417506  1
  Sc  Sc74  1  0.09872056  0.69800287  0.69224936  1
  Sc  Sc75  1  0.49792519  0.69515628  0.09498241  1
  Sc  Sc76  1  0.89781812  0.70312064  0.70169515  1
  Sc  Sc77  1  0.71447917  0.50019918  0.09792465  1
  Sc  Sc78  1  0.70132504  0.30251378  0.70048056  1
  Sc  Sc79  1  0.49735142  0.69079009  0.49110288  1
  Sc  Sc80  1  0.71590127  0.69726361  0.29793642  1
  Sc  Sc81  1  0.49150390  0.29556246  0.89784752  1
  Sc  Sc82  1  0.29920530  0.90582841  0.69825483  1
  Sc  Sc83  1  0.49335087  0.91004156  0.29944509  1
  Sc  Sc84  1  0.30262937  0.10013904  0.49785632  1
  Sc  Sc85  1  0.89832648  0.10385901  0.69641560  1
  Sc  Sc86  1  0.49691137  0.90291402  0.70456748  1
  Sc  Sc87  1  0.70874836  0.30244517  0.89423208  1
  Sc  Sc88  1  0.10012147  0.10201837  0.90106188  1
  Sc  Sc89  1  0.30513747  0.49837835  0.29180878  1
  Sc  Sc90  1  0.68904880  0.09039729  0.09760488  1
  Sc  Sc91  1  0.29428625  0.10717783  0.69472160  1
  Sc  Sc92  1  0.90136450  0.30965095  0.50880538  1
  Sc  Sc93  1  0.90054781  0.70244517  0.10806057  1
  Sc  Sc94  1  0.10733534  0.30385199  0.09689266  1
  Sc  Sc95  1  0.90363953  0.69991216  0.29651153  1
  Sc  Sc96  1  0.48945501  0.69412773  0.71277891  1
  Sc  Sc97  1  0.70347830  0.50668705  0.89847079  1
  Sc  Sc98  1  0.89726395  0.91023372  0.10003178  1
  Sc  Sc99  1  0.69912997  0.49796668  0.69754833  1
  Nb  Nb100  1  0.09404313  0.10363233  0.09970109  1
  Nb  Nb101  1  0.70149055  0.30377974  0.10280451  1
  Nb  Nb102  1  0.10122168  0.09786909  0.70023471  1
  Nb  Nb103  1  0.89952592  0.10260284  0.10086706  1
  Nb  Nb104  1  0.30488147  0.30953523  0.08918475  1
  Nb  Nb105  1  0.09736973  0.90094362  0.50430387  1
  Nb  Nb106  1  0.89554797  0.49846355  0.50200643  1
  Nb  Nb107  1  0.90225712  0.48677385  0.68166381  1
  Nb  Nb108  1  0.69890225  0.29376925  0.29566191  1
  Nb  Nb109  1  0.30071854  0.30046754  0.70044041  1
  Nb  Nb110  1  0.69559475  0.89997371  0.49915441  1
  Nb  Nb111  1  0.69188035  0.49999069  0.50535325  1
  Nb  Nb112  1  0.69772817  0.89964639  0.30061166  1
  Nb  Nb113  1  0.90193907  0.90341636  0.90049269  1
  Nb  Nb114  1  0.10425166  0.29578643  0.49952801  1
  Nb  Nb115  1  0.10150102  0.91084614  0.69336406  1
  Nb  Nb116  1  0.51535211  0.49944140  0.49168072  1
  Nb  Nb117  1  0.50492648  0.49903074  0.30036904  1
  Nb  Nb118  1  0.68747799  0.10200413  0.30712105  1
  Nb  Nb119  1  0.29988554  0.11226065  0.29635898  1
  Nb  Nb120  1  0.10478379  0.29115845  0.69307806  1
  Nb  Nb121  1  0.29562903  0.69751749  0.70060870  1
  Nb  Nb122  1  0.50170238  0.10325889  0.29490708  1
  Nb  Nb123  1  0.29830605  0.29671717  0.90032266  1
  Nb  Nb124  1  0.29891672  0.49015378  0.09806905  1
  Nb  Nb125  1  0.39887553  0.79567785  0.59903686  1
  Nb  Nb126  1  0.60224676  0.39791121  0.00549865  1
  Nb  Nb127  1  0.78932998  -0.00064209  0.39805126  1
  Nb  Nb128  1  -0.00387723  0.19995886  0.20005028  1
  Nb  Nb129  1  0.79717601  0.19838860  0.20107323  1
  Nb  Nb130  1  0.79824019  0.19573307  0.39236898  1
  Nb  Nb131  1  0.39773244  0.20171674  0.20242079  1
  Nb  Nb132  1  0.60495781  0.80284206  0.39916843  1
  Nb  Nb133  1  0.80079313  0.19843342  0.00910187  1
  Nb  Nb134  1  0.60003002  0.59655834  0.20358656  1
  Nb  Nb135  1  0.19988490  0.39082349  0.60331094  1
  Nb  Nb136  1  0.39564773  0.00342303  -0.00253006  1
  Nb  Nb137  1  0.80348705  -0.00052055  0.80462797  1
  Nb  Nb138  1  0.20423847  0.39508899  0.79566543  1
  Nb  Nb139  1  0.20503959  0.59955768  0.80362679  1
  Nb  Nb140  1  0.60224945  0.79659599  0.20668962  1
  Nb  Nb141  1  -0.00145873  0.19810301  0.39914118  1
  Nb  Nb142  1  0.20203911  0.59752777  -0.00196691  1
  Nb  Nb143  1  0.60540441  0.79674840  0.79777774  1
  Nb  Nb144  1  0.59535610  0.79957883  0.59891246  1
  Nb  Nb145  1  -0.00748317  0.59335018  0.59262263  1
  Nb  Nb146  1  0.00226285  0.80631930  0.40689604  1
  Nb  Nb147  1  0.19829047  0.79684273  0.79632721  1
  Nb  Nb148  1  0.39798723  0.00590394  0.80823879  1
  Nb  Nb149  1  -0.00193398  0.80650492  -0.00509961  1
  Pd  Pd150  1  0.80439511  0.40710901  0.79772866  1
  Pd  Pd151  1  0.00198801  0.39571487  0.40480233  1
  Pd  Pd152  1  0.40825495  0.20320827  0.39241617  1
  Pd  Pd153  1  0.20339107  0.39473824  0.20211234  1
  Pd  Pd154  1  0.40602025  0.79866811  0.20024354  1
  Pd  Pd155  1  0.58911336  -0.00197671  0.60117420  1
  Pd  Pd156  1  0.00076708  0.79350001  0.59646493  1
  Pd  Pd157  1  0.19803013  0.80159348  0.20972760  1
  Pd  Pd158  1  0.39310694  0.00734653  0.39326716  1
  Pd  Pd159  1  0.81242707  0.58691036  0.79303750  1
  Pd  Pd160  1  -0.00000179  0.20047733  0.59630865  1
  Pd  Pd161  1  0.59464498  0.20667314  0.59832581  1
  Pd  Pd162  1  0.78725581  0.00773832  0.20362723  1
  Pd  Pd163  1  0.79455425  0.39374649  0.40788159  1
  Pd  Pd164  1  0.80347312  0.59529002  0.60567674  1
  Pd  Pd165  1  0.79627787  0.20874677  0.59363834  1
  Pd  Pd166  1  0.40164276  0.40261512  0.39763530  1
  Pd  Pd167  1  0.20585169  -0.00005072  0.19690319  1
  Pd  Pd168  1  0.80192471  0.80494169  0.40137348  1
  Pd  Pd169  1  0.59994857  -0.01444605  0.81301213  1
  Pd  Pd170  1  0.20512362  0.00250286  0.79681635  1
  Pd  Pd171  1  0.00358227  0.39432466  0.79324773  1
  Pd  Pd172  1  0.40181227  0.00257012  0.60718289  1
  Pd  Pd173  1  0.20328784  0.80626655  0.60784130  1
  Pd  Pd174  1  0.59152413  0.60758073  0.60726080  1
  Pd  Pd175  1  0.79716074  0.80179757  0.60412698  1
  Pd  Pd176  1  0.38667870  0.01056310  0.19395242  1
  Pd  Pd177  1  0.79912025  0.40377381  0.20503688  1
  Pd  Pd178  1  0.20440632  0.60033319  0.19754197  1
  Pd  Pd179  1  0.61156800  0.21103161  -0.00532201  1
  Pd  Pd180  1  0.39317989  0.59155577  0.80711701  1
  Pd  Pd181  1  0.00759101  0.80403473  0.79775746  1
  Pd  Pd182  1  0.39658592  0.40327493  0.80251580  1
  Pd  Pd183  1  0.41068280  0.60217263  0.59662124  1
  Pd  Pd184  1  0.39139330  0.59929707  0.00526585  1
  Pd  Pd185  1  0.60120876  0.19543553  0.19534764  1
  Pd  Pd186  1  -0.00234396  0.20770431  0.00567954  1
  Pd  Pd187  1  -0.00430587  0.59577412  0.78571648  1
  Pd  Pd188  1  0.00426549  0.60173237  0.20069121  1
  Pd  Pd189  1  0.40448388  0.19400209  0.60177978  1
  Pd  Pd190  1  -0.00185406  0.19650991  0.79371657  1
  Pd  Pd191  1  0.60241537  0.39784582  0.80824413  1
  Pd  Pd192  1  0.59855152  0.80505172  0.00373764  1
  Pd  Pd193  1  0.20678966  0.00375711  0.40047918  1
  Pd  Pd194  1  0.39732518  0.58869471  0.39911518  1
  Pd  Pd195  1  0.20126628  0.59188099  0.39136376  1
  Pd  Pd196  1  0.81423521  0.59978248  -0.00161783  1
  Pd  Pd197  1  0.79440579  0.59399431  0.40085858  1
  Pd  Pd198  1  0.00762669  0.39460981  0.20315629  1
  Pd  Pd199  1  0.59324868  -0.01236740  -0.01121398  1
  Rh  Rh200  1  0.01078863  0.40150896  0.59503280  1
  Rh  Rh201  1  0.00263902  0.80745244  0.19799434  1
  Rh  Rh202  1  0.40489377  0.80018895  0.40482731  1
  Rh  Rh203  1  0.60051683  0.60127011  0.79371213  1
  Rh  Rh204  1  -0.00702476  -0.00368827  0.40622436  1
  Rh  Rh205  1  0.80104576  0.00060480  0.60362726  1
  Rh  Rh206  1  0.19943399  0.19821228  0.59652830  1
  Rh  Rh207  1  0.19770233  0.40121791  -0.00946560  1
  Rh  Rh208  1  0.39341924  0.80851496  0.78742501  1
  Rh  Rh209  1  0.60067599  0.39228629  0.40501927  1
  Rh  Rh210  1  0.19653467  0.20467886  0.00331046  1
  Rh  Rh211  1  0.00395726  -0.00352394  0.00777180  1
  Rh  Rh212  1  0.39840938  0.59920473  0.20070570  1
  Rh  Rh213  1  0.80739994  0.19176909  0.80920269  1
  Rh  Rh214  1  0.81275444  0.79909597  0.00950514  1
  Rh  Rh215  1  0.00253457  0.60535677  0.40410803  1
  Rh  Rh216  1  0.59652069  0.20494407  0.40192256  1
  Rh  Rh217  1  0.38971109  0.38831992  0.20731892  1
  Rh  Rh218  1  0.79461244  0.81221483  0.79525302  1
  Rh  Rh219  1  0.19001430  0.78518574  -0.01230411  1
  Rh  Rh220  1  0.79449176  0.79971316  0.19342706  1
  Rh  Rh221  1  0.20291753  0.00113272  0.59766179  1
  Rh  Rh222  1  0.39985358  0.40263501  0.59541166  1
  Rh  Rh223  1  0.60878897  0.40977165  0.19181946  1
  Rh  Rh224  1  0.40696523  0.80360786  0.01310006  1
  Rh  Rh225  1  0.60259581  -0.00474823  0.20664189  1
  Rh  Rh226  1  0.00568890  0.00117879  0.18975393  1
  Rh  Rh227  1  0.00269690  0.39492661  -0.00192774  1
  Rh  Rh228  1  0.39354297  0.19414769  0.79686273  1
  Rh  Rh229  1  0.18925821  0.80545322  0.39414012  1
  Rh  Rh230  1  0.60125992  0.21399372  0.80106044  1
  Rh  Rh231  1  0.60849351  0.60618474  0.39193707  1
  Rh  Rh232  1  0.79997020  0.59119504  0.20559305  1
  Rh  Rh233  1  0.59774392  -0.00430151  0.39421454  1
  Rh  Rh234  1  0.19948317  0.20406988  0.79549894  1
  Rh  Rh235  1  0.19411671  0.18914122  0.40963248  1
  Rh  Rh236  1  -0.00427537  0.00675539  0.79140784  1
  Rh  Rh237  1  0.60050833  0.39706844  0.59813533  1
  Rh  Rh238  1  0.20471813  0.40471312  0.40695848  1
  Rh  Rh239  1  0.19040503  0.58711683  0.60871917  1
  Rh  Rh240  1  -0.00219476  0.00309482  0.60809288  1
  Rh  Rh241  1  0.00177883  0.61067819  0.00958051  1
  Rh  Rh242  1  0.20096910  0.21040245  0.19132427  1
  Rh  Rh243  1  0.79940782  0.00851839  -0.00529661  1
  Rh  Rh244  1  0.39113977  0.19717316  0.00665219  1
  Rh  Rh245  1  0.79698260  0.39729783  -0.00848800  1
  Rh  Rh246  1  0.40989250  0.39577664  -0.00606607  1
  Rh  Rh247  1  0.19797114  0.01147771  0.00114502  1
  Rh  Rh248  1  0.59897408  0.58281260  0.01653755  1
  Rh  Rh249  1  0.78940898  0.39868057  0.59624062  1
