# generated using pymatgen
data_ZrScNbPdRh
_symmetry_space_group_name_H-M   'P 1'
_cell_length_a   16.55504484
_cell_length_b   16.55493960
_cell_length_c   16.55648822
_cell_angle_alpha   89.97761093
_cell_angle_beta   89.95609580
_cell_angle_gamma   89.98773527
_symmetry_Int_Tables_number   1
_chemical_formula_structural   ZrScNbPdRh
_chemical_formula_sum   'Zr50 Sc50 Nb50 Pd50 Rh50'
_cell_volume   4537.59798099
_cell_formula_units_Z   50
loop_
 _symmetry_equiv_pos_site_id
 _symmetry_equiv_pos_as_xyz
  1  'x, y, z'
loop_
 _atom_site_type_symbol
 _atom_site_label
 _atom_site_symmetry_multiplicity
 _atom_site_fract_x
 _atom_site_fract_y
 _atom_site_fract_z
 _atom_site_occupancy
  Zr  Zr0  1  0.09548036  0.89032267  0.49862343  1
  Zr  Zr1  1  0.09230072  0.10488244  0.29533698  1
  Zr  Zr2  1  0.09521861  0.30287569  0.89111089  1
  Zr  Zr3  1  0.30422249  0.69808149  0.69216828  1
  Zr  Zr4  1  0.50107812  0.90471207  0.29045057  1
  Zr  Zr5  1  0.49915516  0.10138892  0.90455453  1
  Zr  Zr6  1  0.30520590  0.51131238  0.90080353  1
  Zr  Zr7  1  0.69821026  0.89815950  0.09949140  1
  Zr  Zr8  1  0.29194438  0.50303868  0.10102870  1
  Zr  Zr9  1  0.90034016  0.70019203  0.09552887  1
  Zr  Zr10  1  0.10897268  0.70148335  0.09962865  1
  Zr  Zr11  1  0.50177536  0.71055844  0.09672258  1
  Zr  Zr12  1  0.29191711  0.70353015  0.30052894  1
  Zr  Zr13  1  0.89205972  0.70088504  0.89742561  1
  Zr  Zr14  1  0.10536605  0.09303389  0.70551421  1
  Zr  Zr15  1  0.50834698  0.28947897  0.09830799  1
  Zr  Zr16  1  0.69332601  0.10596057  0.89922016  1
  Zr  Zr17  1  0.49502732  0.70268713  0.50213881  1
  Zr  Zr18  1  0.89987667  0.29735606  0.29889854  1
  Zr  Zr19  1  0.69960364  0.89007141  0.89772702  1
  Zr  Zr20  1  0.70253876  0.91568873  0.49874031  1
  Zr  Zr21  1  0.10207999  0.10013017  0.50373759  1
  Zr  Zr22  1  0.30183595  0.29882929  0.89532776  1
  Zr  Zr23  1  0.90407519  0.70345733  0.29917736  1
  Zr  Zr24  1  0.30356306  0.89538615  0.69821241  1
  Zr  Zr25  1  0.70628958  0.70069627  0.70682935  1
  Zr  Zr26  1  0.49746584  0.09979691  0.29693714  1
  Zr  Zr27  1  0.29655445  0.10006590  0.89340588  1
  Zr  Zr28  1  0.70670484  0.70746006  0.08940709  1
  Zr  Zr29  1  0.09749462  0.90223234  0.29942688  1
  Zr  Zr30  1  0.09802084  0.09516137  0.89812418  1
  Zr  Zr31  1  0.49736669  0.29138112  0.29692202  1
  Zr  Zr32  1  0.30130137  0.10006202  0.30499136  1
  Zr  Zr33  1  0.09171163  0.49888649  0.70066658  1
  Zr  Zr34  1  0.50336844  0.09677400  0.10443235  1
  Zr  Zr35  1  0.08953951  0.30299126  0.49311847  1
  Zr  Zr36  1  0.50295421  0.08905402  0.70336098  1
  Zr  Zr37  1  0.90037180  0.09873954  0.69823549  1
  Zr  Zr38  1  0.10588710  0.90918189  0.10153443  1
  Zr  Zr39  1  0.89614346  0.89557325  0.10430058  1
  Zr  Zr40  1  0.90664170  0.69445237  0.50613033  1
  Zr  Zr41  1  0.30040174  0.29584837  0.70103292  1
  Zr  Zr42  1  0.10116784  0.89802533  0.89234315  1
  Zr  Zr43  1  0.29704837  0.09664166  0.69644038  1
  Zr  Zr44  1  0.10907314  0.48922555  0.30393513  1
  Zr  Zr45  1  0.49930138  0.90274350  0.48955453  1
  Zr  Zr46  1  0.90371988  0.90560653  0.30232008  1
  Zr  Zr47  1  0.50289268  0.50047129  0.70818573  1
  Zr  Zr48  1  0.10664735  0.89619744  0.69842166  1
  Zr  Zr49  1  0.70535331  0.29520068  0.50630965  1
  Sc  Sc50  1  0.49796074  0.89280982  0.89080380  1
  Sc  Sc51  1  0.10275688  0.70006975  0.50147626  1
  Sc  Sc52  1  0.09900352  0.50383753  0.88720481  1
  Sc  Sc53  1  0.29706936  0.89368798  0.50164901  1
  Sc  Sc54  1  0.09701792  0.30663501  0.69419049  1
  Sc  Sc55  1  0.49629186  0.29921956  0.50705116  1
  Sc  Sc56  1  0.50458179  0.28887836  0.89442486  1
  Sc  Sc57  1  0.49210986  0.69955316  0.70125774  1
  Sc  Sc58  1  0.69021804  0.90759540  0.70527794  1
  Sc  Sc59  1  0.50399091  0.70959352  0.29935267  1
  Sc  Sc60  1  0.50437261  0.50219534  0.51282672  1
  Sc  Sc61  1  0.30289860  0.09947439  0.50403054  1
  Sc  Sc62  1  0.49912401  0.30149277  0.69675867  1
  Sc  Sc63  1  0.29884169  0.89677858  0.90271348  1
  Sc  Sc64  1  0.89776405  0.10392174  0.90943129  1
  Sc  Sc65  1  0.88569568  0.10663847  0.49875676  1
  Sc  Sc66  1  0.50799572  0.51205370  0.09598572  1
  Sc  Sc67  1  0.50959078  0.51095502  0.29611574  1
  Sc  Sc68  1  0.69254847  0.09949101  0.68923135  1
  Sc  Sc69  1  0.29537172  0.08793574  0.09538474  1
  Sc  Sc70  1  0.30625478  0.89238209  0.09946608  1
  Sc  Sc71  1  0.09805237  0.10030599  0.10622144  1
  Sc  Sc72  1  0.70326612  0.90551242  0.29685158  1
  Sc  Sc73  1  0.89970697  0.49809484  0.69679441  1
  Sc  Sc74  1  0.71131428  0.10109585  0.29801628  1
  Sc  Sc75  1  0.70559863  0.50624727  0.30021581  1
  Sc  Sc76  1  0.90309943  0.89756701  0.89765831  1
  Sc  Sc77  1  0.29228334  0.50315734  0.50546254  1
  Sc  Sc78  1  0.89288633  0.30313266  0.90610708  1
  Sc  Sc79  1  0.30459554  0.29274559  0.50347651  1
  Sc  Sc80  1  0.90377972  0.69278372  0.69997481  1
  Sc  Sc81  1  0.70273493  0.10773111  0.10134327  1
  Sc  Sc82  1  0.29728442  0.30094669  0.10500957  1
  Sc  Sc83  1  0.30266729  0.50067873  0.70119030  1
  Sc  Sc84  1  0.69052013  0.30623858  0.70045600  1
  Sc  Sc85  1  0.49477395  0.09909855  0.49722817  1
  Sc  Sc86  1  0.90525199  0.89326751  0.70726719  1
  Sc  Sc87  1  0.29212008  0.29801102  0.30225121  1
  Sc  Sc88  1  0.09791501  0.69838290  0.69947178  1
  Sc  Sc89  1  0.09432494  0.29675645  0.11205994  1
  Sc  Sc90  1  0.70148918  0.50510115  0.51108255  1
  Sc  Sc91  1  0.70032471  0.69855584  0.30296652  1
  Sc  Sc92  1  0.89815787  0.11397592  0.10156037  1
  Sc  Sc93  1  0.09988886  0.49927818  0.11327997  1
  Sc  Sc94  1  0.89348158  0.49850777  0.89380744  1
  Sc  Sc95  1  0.91213840  0.49683824  0.29701940  1
  Sc  Sc96  1  0.71242958  0.49932541  0.09246978  1
  Sc  Sc97  1  0.70227544  0.69080046  0.49941319  1
  Sc  Sc98  1  0.09422406  0.49734293  0.50093667  1
  Sc  Sc99  1  0.30185511  0.89829624  0.29941911  1
  Nb  Nb100  1  0.50265472  0.50144191  0.90107787  1
  Nb  Nb101  1  0.69407007  0.49620769  0.88942488  1
  Nb  Nb102  1  0.49253420  0.68971285  0.90899858  1
  Nb  Nb103  1  0.09963289  0.70485606  0.30418742  1
  Nb  Nb104  1  0.89622102  0.30563522  0.50731055  1
  Nb  Nb105  1  0.69850443  0.30210813  0.90193478  1
  Nb  Nb106  1  0.30448365  0.69626009  0.09137035  1
  Nb  Nb107  1  0.90053031  0.10008417  0.29769443  1
  Nb  Nb108  1  0.88880114  0.31481845  0.10291817  1
  Nb  Nb109  1  0.89856777  0.49815056  0.50174146  1
  Nb  Nb110  1  0.89863605  0.29726849  0.69284560  1
  Nb  Nb111  1  0.09467808  0.30156946  0.30289841  1
  Nb  Nb112  1  0.90084542  0.49759122  0.09800033  1
  Nb  Nb113  1  0.70067579  0.69813649  0.90234345  1
  Nb  Nb114  1  0.50191011  0.89714649  0.69502243  1
  Nb  Nb115  1  0.50620344  0.89847951  0.10073436  1
  Nb  Nb116  1  0.90229394  0.89833133  0.50172500  1
  Nb  Nb117  1  0.30125471  0.69546713  0.91540987  1
  Nb  Nb118  1  0.71081365  0.30344058  0.10218168  1
  Nb  Nb119  1  0.69091138  0.50049038  0.70781550  1
  Nb  Nb120  1  0.70341319  0.30256269  0.29774897  1
  Nb  Nb121  1  0.10162150  0.69599048  0.90402045  1
  Nb  Nb122  1  0.30189442  0.49807096  0.29872502  1
  Nb  Nb123  1  0.70079849  0.10226209  0.49657077  1
  Nb  Nb124  1  0.30295905  0.70040677  0.50010584  1
  Nb  Nb125  1  0.80893465  0.60187777  0.19376866  1
  Nb  Nb126  1  0.40416739  0.40780141  0.39337523  1
  Nb  Nb127  1  -0.00005433  0.40427797  0.00421792  1
  Nb  Nb128  1  0.40628585  0.40706585  0.19977415  1
  Nb  Nb129  1  0.59769729  -0.00537013  0.00242007  1
  Nb  Nb130  1  0.19337811  0.00000794  0.39930154  1
  Nb  Nb131  1  0.39381059  0.60301284  0.20068797  1
  Nb  Nb132  1  -0.00114166  -0.00363900  0.59847701  1
  Nb  Nb133  1  0.60724580  0.20278160  0.39854322  1
  Nb  Nb134  1  0.80203178  0.39787698  0.40510471  1
  Nb  Nb135  1  -0.00782807  0.20295098  0.79578054  1
  Nb  Nb136  1  0.79753753  0.00606517  0.80225381  1
  Nb  Nb137  1  0.79754459  0.80315383  0.59751729  1
  Nb  Nb138  1  0.39493099  0.59830456  0.39660550  1
  Nb  Nb139  1  0.19700119  0.39893950  -0.00269318  1
  Nb  Nb140  1  0.00018701  -0.00244059  0.00277719  1
  Nb  Nb141  1  0.40468643  0.40229486  0.00136658  1
  Nb  Nb142  1  0.60105752  0.80492300  0.59900646  1
  Nb  Nb143  1  0.60309530  0.39508024  0.39655144  1
  Nb  Nb144  1  0.19612099  0.20443150  -0.00549488  1
  Nb  Nb145  1  0.80662781  0.80488497  0.40803643  1
  Nb  Nb146  1  0.79859956  0.20225449  0.79595178  1
  Nb  Nb147  1  0.60312472  0.39853543  -0.00408967  1
  Nb  Nb148  1  0.00013184  0.59746565  0.00055796  1
  Nb  Nb149  1  0.60440756  0.39655617  0.19701521  1
  Pd  Pd150  1  0.00576708  0.80095785  0.19779310  1
  Pd  Pd151  1  0.60302952  0.01190882  0.39222735  1
  Pd  Pd152  1  0.39590450  0.78932567  0.80735882  1
  Pd  Pd153  1  0.19982870  0.59968755  0.40348292  1
  Pd  Pd154  1  0.20175898  0.80395085  -0.00058404  1
  Pd  Pd155  1  0.80111945  0.59343230  0.79692893  1
  Pd  Pd156  1  0.59306993  0.78892311  0.79859611  1
  Pd  Pd157  1  -0.00273533  0.00986191  0.40885784  1
  Pd  Pd158  1  0.19996452  0.60400515  0.20463437  1
  Pd  Pd159  1  0.20339573  0.80297836  0.19718598  1
  Pd  Pd160  1  0.80260910  0.00579985  0.19524480  1
  Pd  Pd161  1  0.00704495  0.59765626  0.39934391  1
  Pd  Pd162  1  0.40093832  -0.00459461  0.59412407  1
  Pd  Pd163  1  0.19565640  0.20740522  0.60066245  1
  Pd  Pd164  1  0.00169083  0.19486266  0.60210291  1
  Pd  Pd165  1  0.60908279  0.79799315  0.20487471  1
  Pd  Pd166  1  0.59412644  0.61168368  0.80352364  1
  Pd  Pd167  1  0.40695850  -0.00889903  -0.00155933  1
  Pd  Pd168  1  0.40650446  0.19611471  0.79206743  1
  Pd  Pd169  1  0.19442566  0.60098016  0.60147456  1
  Pd  Pd170  1  0.40544851  0.40025954  0.80575878  1
  Pd  Pd171  1  0.39679606  0.79800095  0.39529893  1
  Pd  Pd172  1  0.61087066  0.59643376  -0.00141635  1
  Pd  Pd173  1  0.80174024  0.39353529  0.79359207  1
  Pd  Pd174  1  0.19985680  0.39635078  0.59614660  1
  Pd  Pd175  1  0.00281198  0.20554776  -0.00011645  1
  Pd  Pd176  1  0.00328738  0.80052348  -0.00177960  1
  Pd  Pd177  1  0.79947206  -0.00185586  -0.00326133  1
  Pd  Pd178  1  0.20178303  0.19908859  0.19537047  1
  Pd  Pd179  1  0.79369989  0.40723309  0.60440586  1
  Pd  Pd180  1  0.59358715  0.19624771  0.59493802  1
  Pd  Pd181  1  0.00160253  0.79005302  0.79850735  1
  Pd  Pd182  1  0.80576746  -0.00625522  0.60899072  1
  Pd  Pd183  1  0.00167880  0.60120760  0.19841558  1
  Pd  Pd184  1  0.38919987  0.20223074  0.00721242  1
  Pd  Pd185  1  0.39840102  -0.00467490  0.80266737  1
  Pd  Pd186  1  0.80774618  0.59687099  0.39493837  1
  Pd  Pd187  1  -0.01014764  0.19663295  0.40375193  1
  Pd  Pd188  1  0.20060475  0.19713182  0.40303337  1
  Pd  Pd189  1  0.20706773  0.78735398  0.80318807  1
  Pd  Pd190  1  0.59425095  0.59480646  0.40528770  1
  Pd  Pd191  1  0.20407050  0.40593676  0.80009422  1
  Pd  Pd192  1  0.20888707  0.39410974  0.40815086  1
  Pd  Pd193  1  0.38793440  0.19895106  0.19360147  1
  Pd  Pd194  1  0.60075400  0.60918025  0.60837370  1
  Pd  Pd195  1  0.61145986  0.60082546  0.19284424  1
  Pd  Pd196  1  0.39703599  0.40553945  0.59550717  1
  Pd  Pd197  1  0.39348843  -0.00361840  0.19624966  1
  Pd  Pd198  1  0.61328918  0.80134948  0.40578131  1
  Pd  Pd199  1  0.20299260  0.60599264  0.79572814  1
  Rh  Rh200  1  -0.00960706  0.00517020  0.19012523  1
  Rh  Rh201  1  0.19059612  0.20288274  0.79858969  1
  Rh  Rh202  1  -0.00784687  0.20665963  0.19954994  1
  Rh  Rh203  1  0.19437918  -0.00806566  0.59170675  1
  Rh  Rh204  1  0.79533540  0.79272479  0.21238837  1
  Rh  Rh205  1  0.21137695  -0.00893906  0.80027916  1
  Rh  Rh206  1  0.19346890  0.00370389  -0.00441315  1
  Rh  Rh207  1  0.80352049  0.80509961  -0.00693414  1
  Rh  Rh208  1  0.39774271  0.59554555  0.59450270  1
  Rh  Rh209  1  0.40414974  0.59437869  0.00896351  1
  Rh  Rh210  1  0.80638172  0.00095980  0.39744532  1
  Rh  Rh211  1  0.40581988  0.80459703  0.59679348  1
  Rh  Rh212  1  0.61323779  0.20100320  0.20457528  1
  Rh  Rh213  1  0.40084813  0.60469475  0.80159320  1
  Rh  Rh214  1  0.59179230  -0.00237288  0.59224503  1
  Rh  Rh215  1  0.80400786  0.20103450  0.20061529  1
  Rh  Rh216  1  0.60206664  0.40325349  0.59871551  1
  Rh  Rh217  1  -0.00247879  0.79348900  0.40042093  1
  Rh  Rh218  1  0.59332299  0.39546315  0.80499912  1
  Rh  Rh219  1  0.19773713  0.80239648  0.40080610  1
  Rh  Rh220  1  0.79449058  0.20066475  0.60799034  1
  Rh  Rh221  1  0.20064547  0.39110954  0.20118015  1
  Rh  Rh222  1  -0.00253327  0.40235951  0.59862324  1
  Rh  Rh223  1  0.60316482  0.20032221  0.79296724  1
  Rh  Rh224  1  0.79899683  0.59874031  0.60839049  1
  Rh  Rh225  1  0.40270362  0.19406499  0.60721504  1
  Rh  Rh226  1  0.00210812  0.59407646  0.59874153  1
  Rh  Rh227  1  0.79973111  0.20483796  0.39785041  1
  Rh  Rh228  1  0.61020567  0.20123103  0.00496039  1
  Rh  Rh229  1  0.40454630  0.80323554  -0.00231918  1
  Rh  Rh230  1  0.40496281  0.20593054  0.40512088  1
  Rh  Rh231  1  0.79711088  0.41143023  0.21044528  1
  Rh  Rh232  1  -0.01141341  0.39412155  0.80126821  1
  Rh  Rh233  1  0.60585960  0.00365508  0.19575636  1
  Rh  Rh234  1  0.60106366  0.00179126  0.80881904  1
  Rh  Rh235  1  0.39948823  0.79388989  0.19731402  1
  Rh  Rh236  1  0.18738468  0.59235958  -0.00288290  1
  Rh  Rh237  1  -0.00862453  0.40086891  0.40205678  1
  Rh  Rh238  1  0.20526226  0.00084319  0.21105501  1
  Rh  Rh239  1  0.80174394  0.59385011  -0.00471414  1
  Rh  Rh240  1  0.20259639  0.79346471  0.59918399  1
  Rh  Rh241  1  0.00188934  0.39539106  0.19797722  1
  Rh  Rh242  1  0.79632614  0.20847473  -0.00214848  1
  Rh  Rh243  1  0.79792449  0.40439276  -0.00784481  1
  Rh  Rh244  1  0.38852798  -0.00270382  0.40081136  1
  Rh  Rh245  1  -0.01184902  0.00853589  0.80453278  1
  Rh  Rh246  1  0.59163063  0.80264362  -0.01064845  1
  Rh  Rh247  1  -0.00443653  0.80261166  0.60494622  1
  Rh  Rh248  1  0.79902041  0.80504961  0.79480055  1
  Rh  Rh249  1  -0.00128795  0.60352645  0.80719134  1
