# generated using pymatgen
data_ZrScNbPdRh
_symmetry_space_group_name_H-M   'P 1'
_cell_length_a   16.56809376
_cell_length_b   16.56093494
_cell_length_c   16.56023775
_cell_angle_alpha   90.02030760
_cell_angle_beta   89.99420817
_cell_angle_gamma   90.05291021
_symmetry_Int_Tables_number   1
_chemical_formula_structural   ZrScNbPdRh
_chemical_formula_sum   'Zr50 Sc50 Nb50 Pd50 Rh50'
_cell_volume   4543.84750331
_cell_formula_units_Z   50
loop_
 _symmetry_equiv_pos_site_id
 _symmetry_equiv_pos_as_xyz
  1  'x, y, z'
loop_
 _atom_site_type_symbol
 _atom_site_label
 _atom_site_symmetry_multiplicity
 _atom_site_fract_x
 _atom_site_fract_y
 _atom_site_fract_z
 _atom_site_occupancy
  Zr  Zr0  1  0.49034145  0.88733963  0.29796617  1
  Zr  Zr1  1  0.70592176  0.10029767  0.29689846  1
  Zr  Zr2  1  0.30373301  0.29996772  0.90109947  1
  Zr  Zr3  1  0.90281330  0.10149451  0.70125285  1
  Zr  Zr4  1  0.09272317  0.90126546  0.09382359  1
  Zr  Zr5  1  0.29515582  0.49936957  0.49922624  1
  Zr  Zr6  1  0.71083299  0.70946187  0.50322007  1
  Zr  Zr7  1  0.69755949  0.89098135  0.89599794  1
  Zr  Zr8  1  0.49800241  0.51054529  0.10371388  1
  Zr  Zr9  1  0.30126296  0.10118240  0.49801734  1
  Zr  Zr10  1  0.69559569  0.30195375  0.89553538  1
  Zr  Zr11  1  0.10814765  0.89104561  0.69762876  1
  Zr  Zr12  1  0.89555953  0.89406660  0.49211452  1
  Zr  Zr13  1  0.30445292  0.30293686  0.30062970  1
  Zr  Zr14  1  0.70329712  0.70541713  0.70264134  1
  Zr  Zr15  1  0.30284312  0.29641316  0.49721277  1
  Zr  Zr16  1  0.49477794  0.69288779  0.69587563  1
  Zr  Zr17  1  0.50294292  0.10605646  0.09448262  1
  Zr  Zr18  1  0.69817745  0.90014492  0.09284033  1
  Zr  Zr19  1  0.11095440  0.49857032  0.09890419  1
  Zr  Zr20  1  0.70101661  0.29372403  0.30966978  1
  Zr  Zr21  1  0.09386563  0.69964470  0.30585480  1
  Zr  Zr22  1  0.29408170  0.69714139  0.50176494  1
  Zr  Zr23  1  0.29686511  0.90383533  0.29498097  1
  Zr  Zr24  1  0.90435685  0.29793735  0.69370780  1
  Zr  Zr25  1  0.90514162  0.49738411  0.30982707  1
  Zr  Zr26  1  0.91414649  0.10068622  0.09528539  1
  Zr  Zr27  1  0.09929289  0.89862460  0.88942695  1
  Zr  Zr28  1  0.70311702  0.49336296  0.89667323  1
  Zr  Zr29  1  0.29632372  0.30273997  0.69922444  1
  Zr  Zr30  1  0.69929271  0.70061004  0.10026105  1
  Zr  Zr31  1  0.90180182  0.70690478  0.10294681  1
  Zr  Zr32  1  0.10459460  0.09903857  0.49886502  1
  Zr  Zr33  1  0.09679671  0.09676141  0.30588869  1
  Zr  Zr34  1  0.89893167  0.70391148  0.49407240  1
  Zr  Zr35  1  0.29976653  0.29912879  0.09979015  1
  Zr  Zr36  1  0.49352300  0.69956823  0.50151892  1
  Zr  Zr37  1  0.90251335  0.09857288  0.89356422  1
  Zr  Zr38  1  0.50125950  0.90479667  0.70111889  1
  Zr  Zr39  1  0.70312691  0.50091651  0.09594988  1
  Zr  Zr40  1  0.89727324  0.49767582  0.69526211  1
  Zr  Zr41  1  0.90230914  0.90256686  0.90320301  1
  Zr  Zr42  1  0.29271880  0.70187966  0.70185997  1
  Zr  Zr43  1  0.09942873  0.29707240  0.09786233  1
  Zr  Zr44  1  0.49499910  0.50535800  0.29759850  1
  Zr  Zr45  1  0.51075611  0.90410460  0.50664165  1
  Zr  Zr46  1  0.29423256  0.50080116  0.30114923  1
  Zr  Zr47  1  0.89899161  0.50248780  0.09735331  1
  Zr  Zr48  1  0.09622970  0.90165728  0.49992173  1
  Zr  Zr49  1  0.30036741  0.49856221  0.10026828  1
  Sc  Sc50  1  0.89191884  0.50193042  0.89175798  1
  Sc  Sc51  1  0.68958776  0.89772882  0.69718265  1
  Sc  Sc52  1  0.10165408  0.90369951  0.30380151  1
  Sc  Sc53  1  0.09657287  0.71058621  0.50159660  1
  Sc  Sc54  1  0.28764442  0.10145542  0.30042334  1
  Sc  Sc55  1  0.51214058  0.10839827  0.29356806  1
  Sc  Sc56  1  0.50030825  0.10516988  0.50324962  1
  Sc  Sc57  1  0.30660501  0.49955407  0.70735278  1
  Sc  Sc58  1  0.30694336  0.70846130  0.31560251  1
  Sc  Sc59  1  0.50178098  0.10060918  0.90260928  1
  Sc  Sc60  1  0.09925787  0.31036121  0.69686877  1
  Sc  Sc61  1  0.10219988  0.10095821  0.10204245  1
  Sc  Sc62  1  0.50275692  0.29532460  0.90792350  1
  Sc  Sc63  1  0.71026432  0.91195402  0.29959762  1
  Sc  Sc64  1  0.90158300  0.30568200  0.49527936  1
  Sc  Sc65  1  0.30008264  0.69139512  0.90167965  1
  Sc  Sc66  1  0.29555870  0.09481575  0.89679938  1
  Sc  Sc67  1  0.89383738  0.70281673  0.89155827  1
  Sc  Sc68  1  0.70068457  0.49835641  0.30418325  1
  Sc  Sc69  1  0.49479518  0.90115682  0.09951473  1
  Sc  Sc70  1  0.90710497  0.89865902  0.70830353  1
  Sc  Sc71  1  0.90366905  0.69752862  0.69749230  1
  Sc  Sc72  1  0.91628783  0.09950842  0.49555073  1
  Sc  Sc73  1  0.69519248  0.09476171  0.90164770  1
  Sc  Sc74  1  0.09701769  0.30240486  0.50342729  1
  Sc  Sc75  1  0.69259937  0.09661248  0.48638943  1
  Sc  Sc76  1  0.28833396  0.89527551  0.49769534  1
  Sc  Sc77  1  0.69558448  0.09512832  0.10397604  1
  Sc  Sc78  1  0.89642144  0.90163215  0.10182341  1
  Sc  Sc79  1  0.50032386  0.09539194  0.69178815  1
  Sc  Sc80  1  0.69459063  0.29894590  0.09118060  1
  Sc  Sc81  1  0.49574157  0.49050895  0.89489969  1
  Sc  Sc82  1  0.90202487  0.29859045  0.88882169  1
  Sc  Sc83  1  0.69325879  0.09930100  0.70802355  1
  Sc  Sc84  1  0.70671613  0.49600754  0.51375598  1
  Sc  Sc85  1  0.49669365  0.70457944  0.90650421  1
  Sc  Sc86  1  0.09718277  0.09869355  0.90276375  1
  Sc  Sc87  1  0.09322595  0.70150962  0.09827176  1
  Sc  Sc88  1  0.69627321  0.30518401  0.70006225  1
  Sc  Sc89  1  0.30234411  0.09611779  0.10077413  1
  Sc  Sc90  1  0.50468172  0.90464494  0.90625999  1
  Sc  Sc91  1  0.09898751  0.30261045  0.29856444  1
  Sc  Sc92  1  0.70308762  0.30041780  0.50165188  1
  Sc  Sc93  1  0.10002297  0.49843763  0.30829416  1
  Sc  Sc94  1  0.10766622  0.29848759  0.89610011  1
  Sc  Sc95  1  0.50521263  0.70454632  0.10829568  1
  Sc  Sc96  1  0.29898630  0.49807375  0.91170886  1
  Sc  Sc97  1  0.89971791  0.49822190  0.50416172  1
  Sc  Sc98  1  0.09870693  0.09088518  0.69692693  1
  Sc  Sc99  1  0.30935376  0.69051099  0.08672266  1
  Nb  Nb100  1  0.49896640  0.28773334  0.10814033  1
  Nb  Nb101  1  0.29432511  0.90018599  0.89620634  1
  Nb  Nb102  1  0.30358698  0.09587644  0.69518593  1
  Nb  Nb103  1  0.69799784  0.69685548  0.89978569  1
  Nb  Nb104  1  0.50187427  0.29856562  0.69178940  1
  Nb  Nb105  1  0.29461105  0.90518262  0.70678641  1
  Nb  Nb106  1  0.89641215  0.09442898  0.29808581  1
  Nb  Nb107  1  0.70173603  0.90211571  0.50005673  1
  Nb  Nb108  1  0.09541854  0.70076705  0.89807658  1
  Nb  Nb109  1  0.50124360  0.50367944  0.50831658  1
  Nb  Nb110  1  0.09230948  0.50405854  0.70007886  1
  Nb  Nb111  1  0.89742080  0.30315850  0.30003518  1
  Nb  Nb112  1  0.09843339  0.50426211  0.90356891  1
  Nb  Nb113  1  0.50298770  0.30159322  0.30027732  1
  Nb  Nb114  1  0.89672568  0.90456017  0.30083186  1
  Nb  Nb115  1  0.50872316  0.49829282  0.69215918  1
  Nb  Nb116  1  0.89549271  0.70290553  0.30392063  1
  Nb  Nb117  1  0.51082332  0.70035717  0.30326911  1
  Nb  Nb118  1  0.10202818  0.49574166  0.50855175  1
  Nb  Nb119  1  0.09563171  0.70171415  0.70637277  1
  Nb  Nb120  1  0.69767985  0.69627312  0.30152496  1
  Nb  Nb121  1  0.49858733  0.29849195  0.50074552  1
  Nb  Nb122  1  0.69617852  0.49493404  0.70030511  1
  Nb  Nb123  1  0.29501161  0.90087552  0.09956277  1
  Nb  Nb124  1  0.90718871  0.29882623  0.10008057  1
  Nb  Nb125  1  0.81048698  0.20426356  0.19707638  1
  Nb  Nb126  1  0.39282816  0.80828671  0.79823823  1
  Nb  Nb127  1  0.60607455  0.79698668  0.39871685  1
  Nb  Nb128  1  0.60580776  0.59973310  -0.00710738  1
  Nb  Nb129  1  0.18911110  0.59674792  0.60721490  1
  Nb  Nb130  1  0.20328784  0.79839348  0.19242494  1
  Nb  Nb131  1  0.39775655  0.19954226  0.79107102  1
  Nb  Nb132  1  0.79831173  0.00201995  0.59578175  1
  Nb  Nb133  1  0.58980092  0.40280623  0.40483525  1
  Nb  Nb134  1  -0.00008575  0.59778266  -0.00594106  1
  Nb  Nb135  1  0.59742184  0.39471594  0.20402621  1
  Nb  Nb136  1  0.40143096  -0.00148222  0.39814866  1
  Nb  Nb137  1  0.80336868  0.19114292  0.59985142  1
  Nb  Nb138  1  0.59986832  0.60170672  0.40372130  1
  Nb  Nb139  1  0.60270172  0.59551880  0.79891173  1
  Nb  Nb140  1  0.80640153  0.20022305  0.00200616  1
  Nb  Nb141  1  0.20483503  0.19744954  0.60119209  1
  Nb  Nb142  1  0.39467352  0.80555371  0.60737956  1
  Nb  Nb143  1  0.40941983  0.40106805  0.59773964  1
  Nb  Nb144  1  0.80462328  0.60260065  0.20769672  1
  Nb  Nb145  1  0.18610111  0.59886974  0.79991681  1
  Nb  Nb146  1  0.20111693  0.60757313  0.20261987  1
  Nb  Nb147  1  0.80233292  0.39510496  0.20089739  1
  Nb  Nb148  1  0.00141238  0.40314493  -0.00113060  1
  Nb  Nb149  1  0.20129395  0.80349174  -0.00125254  1
  Pd  Pd150  1  0.80989136  0.38752515  -0.00123481  1
  Pd  Pd151  1  0.00070258  0.40440341  0.19754929  1
  Pd  Pd152  1  0.00135810  0.59682318  0.19803101  1
  Pd  Pd153  1  0.80762578  0.81158415  0.61147264  1
  Pd  Pd154  1  0.19696464  -0.00117969  -0.00035416  1
  Pd  Pd155  1  0.39184735  -0.00900667  0.59048174  1
  Pd  Pd156  1  0.60924888  0.81046907  0.20564769  1
  Pd  Pd157  1  0.79896209  0.00904016  0.00182987  1
  Pd  Pd158  1  0.79294931  -0.00789580  0.79146992  1
  Pd  Pd159  1  0.40370997  0.00339203  0.80661135  1
  Pd  Pd160  1  0.79573682  0.59867627  0.79170057  1
  Pd  Pd161  1  0.00056200  0.40356243  0.80623241  1
  Pd  Pd162  1  0.19358987  0.39340040  0.40061127  1
  Pd  Pd163  1  0.39868459  0.00153312  -0.00385514  1
  Pd  Pd164  1  0.19861315  0.19979229  0.20110878  1
  Pd  Pd165  1  -0.00719408  -0.00817287  0.60092127  1
  Pd  Pd166  1  0.40324183  0.60037482  0.80598108  1
  Pd  Pd167  1  0.79476051  0.59297214  0.40183822  1
  Pd  Pd168  1  0.58860595  0.79283394  0.80167388  1
  Pd  Pd169  1  0.40511870  0.40394267  0.40702789  1
  Pd  Pd170  1  0.00073985  0.20667669  0.39553085  1
  Pd  Pd171  1  0.40661286  0.19005980  0.38984793  1
  Pd  Pd172  1  0.61227357  0.60599575  0.59877312  1
  Pd  Pd173  1  0.01482992  0.20004582  0.79627308  1
  Pd  Pd174  1  0.59334154  -0.00737193  0.20211587  1
  Pd  Pd175  1  -0.00026738  0.19897935  0.21046290  1
  Pd  Pd176  1  0.00139733  -0.00506292  0.20305443  1
  Pd  Pd177  1  0.39038530  0.78996119  0.19329551  1
  Pd  Pd178  1  0.40385258  0.01006380  0.20555459  1
  Pd  Pd179  1  0.79387552  0.20260078  0.79882562  1
  Pd  Pd180  1  0.20522833  0.19452754  0.00023587  1
  Pd  Pd181  1  0.00132516  0.60545508  0.59299076  1
  Pd  Pd182  1  0.40230227  0.59879273  0.40000226  1
  Pd  Pd183  1  0.58878003  0.40328901  0.00803045  1
  Pd  Pd184  1  0.58941292  0.19982370  0.79913201  1
  Pd  Pd185  1  0.59145219  -0.00649676  0.38866384  1
  Pd  Pd186  1  0.40784690  0.39607960  0.00845217  1
  Pd  Pd187  1  0.40440292  0.39696709  0.19397897  1
  Pd  Pd188  1  0.00507018  0.59699328  0.41223735  1
  Pd  Pd189  1  0.40909780  0.39084084  0.79347156  1
  Pd  Pd190  1  0.00290589  0.80892721  0.20844773  1
  Pd  Pd191  1  0.19871323  0.41118278  0.80315931  1
  Pd  Pd192  1  0.20034048  0.19179998  0.79090517  1
  Pd  Pd193  1  0.81020735  0.19288034  0.40602961  1
  Pd  Pd194  1  0.80297095  0.79678736  -0.00463797  1
  Pd  Pd195  1  0.39520667  0.19216823  0.20649875  1
  Pd  Pd196  1  0.79367326  0.79966062  0.20651803  1
  Pd  Pd197  1  0.38965792  0.61374473  0.20799466  1
  Pd  Pd198  1  0.61106644  0.19670633  0.59562784  1
  Pd  Pd199  1  0.39517124  0.80577061  -0.00425252  1
  Rh  Rh200  1  -0.00310578  0.80005341  0.60196429  1
  Rh  Rh201  1  0.80158649  0.39060587  0.60416393  1
  Rh  Rh202  1  0.00251476  -0.00072217  -0.00425438  1
  Rh  Rh203  1  0.20420388  0.40320941  0.60301644  1
  Rh  Rh204  1  0.79413201  0.80488659  0.38855449  1
  Rh  Rh205  1  0.61237928  0.01006970  0.60072021  1
  Rh  Rh206  1  0.19603515  0.00585151  0.79666996  1
  Rh  Rh207  1  0.39525562  0.20736352  0.60697809  1
  Rh  Rh208  1  0.80758068  0.00780589  0.19102717  1
  Rh  Rh209  1  0.20009429  0.79544658  0.59979629  1
  Rh  Rh210  1  0.59821287  0.79474805  0.00225306  1
  Rh  Rh211  1  0.20080345  0.40234849  0.20502888  1
  Rh  Rh212  1  0.20551747  -0.00211844  0.40173426  1
  Rh  Rh213  1  -0.00149440  0.79599727  -0.00730401  1
  Rh  Rh214  1  0.19344004  0.80066848  0.39316271  1
  Rh  Rh215  1  0.39476157  0.19696028  -0.00712142  1
  Rh  Rh216  1  -0.00254467  0.40158769  0.59694124  1
  Rh  Rh217  1  0.19329806  0.20614050  0.40448545  1
  Rh  Rh218  1  0.19623128  0.39215680  -0.00462274  1
  Rh  Rh219  1  0.80711954  0.00543987  0.40836939  1
  Rh  Rh220  1  0.41524111  0.59484001  -0.00769742  1
  Rh  Rh221  1  0.61186636  0.20744091  0.19693382  1
  Rh  Rh222  1  -0.00289853  0.20948072  -0.01180239  1
  Rh  Rh223  1  0.59688147  0.39426426  0.59470394  1
  Rh  Rh224  1  0.19380757  -0.00327553  0.19542684  1
  Rh  Rh225  1  0.40805186  0.81036086  0.41571609  1
  Rh  Rh226  1  0.60822123  0.19752699  0.00090117  1
  Rh  Rh227  1  0.00256033  0.40054608  0.40538887  1
  Rh  Rh228  1  0.79481559  0.40429811  0.39995490  1
  Rh  Rh229  1  0.59651247  0.79373845  0.59403851  1
  Rh  Rh230  1  0.20578357  0.79053046  0.81066926  1
  Rh  Rh231  1  0.19155499  0.60389442  0.40449203  1
  Rh  Rh232  1  0.80029602  0.80379189  0.79868243  1
  Rh  Rh233  1  0.79982143  0.39594585  0.79167412  1
  Rh  Rh234  1  -0.00222583  0.80624619  0.39333606  1
  Rh  Rh235  1  0.59505191  0.40143606  0.79677819  1
  Rh  Rh236  1  -0.00444669  -0.00452806  0.39490611  1
  Rh  Rh237  1  0.60953235  0.59261631  0.20100972  1
  Rh  Rh238  1  0.59497401  0.20623081  0.40533393  1
  Rh  Rh239  1  0.20245066  0.00393940  0.59999711  1
  Rh  Rh240  1  0.59907417  -0.00212801  0.00217995  1
  Rh  Rh241  1  0.00477198  0.20229281  0.60083775  1
  Rh  Rh242  1  0.80034703  0.59963772  0.60491252  1
  Rh  Rh243  1  -0.00492069  0.79800809  0.80016970  1
  Rh  Rh244  1  -0.00051033  0.59964324  0.80622649  1
  Rh  Rh245  1  0.19035659  0.61177475  0.00090254  1
  Rh  Rh246  1  0.80288426  0.61070073  0.00467421  1
  Rh  Rh247  1  0.00618991  -0.00049013  0.79810312  1
  Rh  Rh248  1  0.59747893  -0.00007043  0.80320555  1
  Rh  Rh249  1  0.38642309  0.59376372  0.60204552  1
