# generated using pymatgen
data_ZrScNbPdRh
_symmetry_space_group_name_H-M   'P 1'
_cell_length_a   16.56038600
_cell_length_b   16.56351173
_cell_length_c   16.56741145
_cell_angle_alpha   90.01504091
_cell_angle_beta   89.95536837
_cell_angle_gamma   89.98300628
_symmetry_Int_Tables_number   1
_chemical_formula_structural   ZrScNbPdRh
_chemical_formula_sum   'Zr50 Sc50 Nb50 Pd50 Rh50'
_cell_volume   4544.40853607
_cell_formula_units_Z   50
loop_
 _symmetry_equiv_pos_site_id
 _symmetry_equiv_pos_as_xyz
  1  'x, y, z'
loop_
 _atom_site_type_symbol
 _atom_site_label
 _atom_site_symmetry_multiplicity
 _atom_site_fract_x
 _atom_site_fract_y
 _atom_site_fract_z
 _atom_site_occupancy
  Zr  Zr0  1  0.70430706  0.90398390  0.50118070  1
  Zr  Zr1  1  0.49958962  0.69632080  0.90221227  1
  Zr  Zr2  1  0.49868664  0.89608899  0.10115900  1
  Zr  Zr3  1  0.89966420  0.09752726  0.09625497  1
  Zr  Zr4  1  0.29451591  0.09545784  0.70046488  1
  Zr  Zr5  1  0.09827207  0.29996059  0.49934539  1
  Zr  Zr6  1  0.29554218  0.89827099  0.69452320  1
  Zr  Zr7  1  0.70671823  0.10903384  0.49968106  1
  Zr  Zr8  1  0.10045060  0.90330186  0.29972316  1
  Zr  Zr9  1  0.70034293  0.89502032  0.70208256  1
  Zr  Zr10  1  0.10533575  0.30059576  0.29739741  1
  Zr  Zr11  1  0.69955337  0.10966227  0.69130390  1
  Zr  Zr12  1  0.69995785  0.90069870  0.89970200  1
  Zr  Zr13  1  0.30166425  0.29712397  0.89944086  1
  Zr  Zr14  1  0.28968414  0.09517727  0.29541290  1
  Zr  Zr15  1  0.50119769  0.30567065  0.90115546  1
  Zr  Zr16  1  0.49972441  0.89549314  0.68943979  1
  Zr  Zr17  1  0.50318224  0.88695088  0.90240002  1
  Zr  Zr18  1  0.29977154  0.48936973  0.29672970  1
  Zr  Zr19  1  0.28883752  0.10501328  0.90021318  1
  Zr  Zr20  1  0.10373819  0.89686590  0.69843917  1
  Zr  Zr21  1  0.90384491  0.89206491  0.10907644  1
  Zr  Zr22  1  0.29682668  0.30522134  0.49644587  1
  Zr  Zr23  1  0.29714746  0.49723330  0.90376698  1
  Zr  Zr24  1  0.49783001  0.49736418  0.29985316  1
  Zr  Zr25  1  0.49357196  0.11956443  0.89590692  1
  Zr  Zr26  1  0.89706868  0.49162070  0.90170588  1
  Zr  Zr27  1  0.30242776  0.89142888  0.10321545  1
  Zr  Zr28  1  0.48867161  0.70588689  0.09690759  1
  Zr  Zr29  1  0.50185207  0.69620605  0.50260348  1
  Zr  Zr30  1  0.29922391  0.10060372  0.50091809  1
  Zr  Zr31  1  0.90515632  0.90591415  0.69304928  1
  Zr  Zr32  1  0.70196847  0.10401550  0.90098713  1
  Zr  Zr33  1  0.29857872  0.69689611  0.90460971  1
  Zr  Zr34  1  0.09253786  0.10112477  0.70516410  1
  Zr  Zr35  1  0.10688555  0.49950111  0.70539051  1
  Zr  Zr36  1  0.49731091  0.89694137  0.30138443  1
  Zr  Zr37  1  0.69954219  0.49756874  0.50183923  1
  Zr  Zr38  1  0.88882233  0.29555514  0.49280632  1
  Zr  Zr39  1  0.28769575  0.69973061  0.69774056  1
  Zr  Zr40  1  0.69751552  0.71265911  0.89428256  1
  Zr  Zr41  1  0.90923089  0.69497601  0.89536024  1
  Zr  Zr42  1  0.49848423  0.11210143  0.69920844  1
  Zr  Zr43  1  0.71855377  0.70483055  0.10934600  1
  Zr  Zr44  1  0.49938468  0.49940102  0.68637374  1
  Zr  Zr45  1  0.29274875  0.30941325  0.10227199  1
  Zr  Zr46  1  0.50428820  0.69497140  0.70109528  1
  Zr  Zr47  1  0.30155230  0.89551588  0.30491618  1
  Zr  Zr48  1  0.71445346  0.30373354  0.30710248  1
  Zr  Zr49  1  0.50115115  0.10354645  0.10611360  1
  Sc  Sc50  1  0.09683964  0.50519106  0.49269698  1
  Sc  Sc51  1  0.90614161  0.31055463  0.29964894  1
  Sc  Sc52  1  0.69677320  0.09706507  0.30065348  1
  Sc  Sc53  1  0.49593557  0.09676652  0.29901247  1
  Sc  Sc54  1  0.28492142  0.30444419  0.69953491  1
  Sc  Sc55  1  0.48929123  0.29764067  0.29432880  1
  Sc  Sc56  1  0.48925897  0.30528475  0.51167964  1
  Sc  Sc57  1  0.29775939  0.89334191  0.50409120  1
  Sc  Sc58  1  0.10320754  0.09444594  0.50177141  1
  Sc  Sc59  1  0.71043589  0.90354413  0.09188435  1
  Sc  Sc60  1  0.90927910  0.69571341  0.49450386  1
  Sc  Sc61  1  0.10804258  0.10885686  0.10866980  1
  Sc  Sc62  1  0.69522873  0.30756160  0.89385729  1
  Sc  Sc63  1  0.10895663  0.29084317  0.90016057  1
  Sc  Sc64  1  0.90445755  0.09108261  0.29815129  1
  Sc  Sc65  1  0.90541482  0.49227746  0.09517060  1
  Sc  Sc66  1  0.69793243  0.09880063  0.10255783  1
  Sc  Sc67  1  0.70028823  0.49953866  0.69805457  1
  Sc  Sc68  1  0.09386487  0.89383681  0.49719575  1
  Sc  Sc69  1  0.29699969  0.50026072  0.69724686  1
  Sc  Sc70  1  0.90434177  0.10999985  0.89174041  1
  Sc  Sc71  1  0.29784441  0.30166433  0.30125260  1
  Sc  Sc72  1  0.09534720  0.30076002  0.10358856  1
  Sc  Sc73  1  0.50304343  0.70097273  0.31052624  1
  Sc  Sc74  1  0.90365888  0.50108792  0.49886586  1
  Sc  Sc75  1  0.90260326  0.50134668  0.30350924  1
  Sc  Sc76  1  0.71209235  0.49384078  0.10021148  1
  Sc  Sc77  1  0.71127794  0.50847223  0.30401308  1
  Sc  Sc78  1  0.29182302  0.70251754  0.49899455  1
  Sc  Sc79  1  0.69991353  0.49286828  0.89999816  1
  Sc  Sc80  1  0.10037210  0.89539560  0.09921076  1
  Sc  Sc81  1  0.70247322  0.89822749  0.31163002  1
  Sc  Sc82  1  0.10214648  0.69576771  0.31306989  1
  Sc  Sc83  1  0.50108618  0.30116077  0.09440970  1
  Sc  Sc84  1  0.10370744  0.89531531  0.89729605  1
  Sc  Sc85  1  0.89708456  0.09254690  0.50474495  1
  Sc  Sc86  1  0.89249781  0.90670000  0.90336807  1
  Sc  Sc87  1  0.88959519  0.50778788  0.69967998  1
  Sc  Sc88  1  0.09706861  0.50866871  0.90523306  1
  Sc  Sc89  1  0.30230380  0.69776350  0.30874891  1
  Sc  Sc90  1  0.28704475  0.90135786  0.89856352  1
  Sc  Sc91  1  0.69862518  0.70190866  0.48461753  1
  Sc  Sc92  1  0.50332251  0.50023137  0.90261200  1
  Sc  Sc93  1  0.50031334  0.89156377  0.49686295  1
  Sc  Sc94  1  0.10109159  0.69578748  0.50119396  1
  Sc  Sc95  1  0.09278337  0.70516349  0.08015334  1
  Sc  Sc96  1  0.09861326  0.49647658  0.30732169  1
  Sc  Sc97  1  0.48918539  0.49742645  0.09741786  1
  Sc  Sc98  1  0.49859521  0.10563854  0.50703914  1
  Sc  Sc99  1  0.90727117  0.89691866  0.30279960  1
  Nb  Nb100  1  0.88955839  0.70223499  0.28418743  1
  Nb  Nb101  1  0.70400660  0.30516188  0.10408279  1
  Nb  Nb102  1  0.89492677  0.30370754  0.89995501  1
  Nb  Nb103  1  0.50115464  0.50003295  0.50031294  1
  Nb  Nb104  1  0.50215794  0.29728248  0.70778371  1
  Nb  Nb105  1  0.71264474  0.70389145  0.70641647  1
  Nb  Nb106  1  0.29675196  0.09640572  0.10100849  1
  Nb  Nb107  1  0.70349050  0.29848675  0.49904833  1
  Nb  Nb108  1  0.30291973  0.69741069  0.09978642  1
  Nb  Nb109  1  0.10149033  0.70117822  0.88734828  1
  Nb  Nb110  1  0.29738522  0.50421106  0.09935472  1
  Nb  Nb111  1  0.09512338  0.30299775  0.69924537  1
  Nb  Nb112  1  0.89764602  0.28890058  0.70908746  1
  Nb  Nb113  1  0.70394937  0.69900070  0.29750925  1
  Nb  Nb114  1  0.89598969  0.89585562  0.49749948  1
  Nb  Nb115  1  0.10393445  0.09570440  0.90589502  1
  Nb  Nb116  1  0.89665680  0.10343402  0.70115745  1
  Nb  Nb117  1  0.89634287  0.70326956  0.70195804  1
  Nb  Nb118  1  0.70167437  0.29903992  0.69368646  1
  Nb  Nb119  1  0.90565599  0.70095438  0.10558131  1
  Nb  Nb120  1  0.89669354  0.30346725  0.09649759  1
  Nb  Nb121  1  0.30806407  0.49250617  0.49785730  1
  Nb  Nb122  1  0.10247230  0.50375169  0.10059152  1
  Nb  Nb123  1  0.09309664  0.70032046  0.70961323  1
  Nb  Nb124  1  0.10017614  0.09744746  0.30254952  1
  Nb  Nb125  1  0.39710775  0.79978870  0.79609667  1
  Nb  Nb126  1  0.59970387  0.39749819  0.40178580  1
  Nb  Nb127  1  0.40140775  0.58933392  0.40806792  1
  Nb  Nb128  1  0.00462640  0.00646602  -0.00118338  1
  Nb  Nb129  1  0.40418049  -0.00247566  0.80382312  1
  Nb  Nb130  1  -0.00274075  0.39272817  0.60935207  1
  Nb  Nb131  1  0.00407555  0.19557746  0.39554184  1
  Nb  Nb132  1  0.60478303  0.40228961  0.20493728  1
  Nb  Nb133  1  0.58957011  0.00367839  -0.00584040  1
  Nb  Nb134  1  -0.00293368  0.39232742  0.79681985  1
  Nb  Nb135  1  0.80668969  0.79658136  0.59965589  1
  Nb  Nb136  1  0.60223625  0.21062910  0.40405369  1
  Nb  Nb137  1  0.20122712  0.78890886  0.19820951  1
  Nb  Nb138  1  0.00422073  0.60421592  0.19528800  1
  Nb  Nb139  1  0.40308790  0.39677572  0.79619424  1
  Nb  Nb140  1  0.59587629  0.00366371  0.79989052  1
  Nb  Nb141  1  0.80506373  0.20594876  0.19449004  1
  Nb  Nb142  1  0.39984695  0.00467508  -0.00253397  1
  Nb  Nb143  1  0.19974070  0.60093268  0.19228807  1
  Nb  Nb144  1  0.60521215  0.79451128  0.20193891  1
  Nb  Nb145  1  0.80299836  0.21117457  0.00294703  1
  Nb  Nb146  1  0.80380143  0.60527780  -0.00058943  1
  Nb  Nb147  1  0.60328985  0.60254039  0.19730613  1
  Nb  Nb148  1  0.60853236  0.60665623  0.00919900  1
  Nb  Nb149  1  0.79790328  0.00816483  0.79133033  1
  Pd  Pd150  1  0.19198019  0.40776533  0.59144057  1
  Pd  Pd151  1  0.39952150  0.60465850  0.20858673  1
  Pd  Pd152  1  0.38918574  0.20932639  0.60640463  1
  Pd  Pd153  1  0.60111609  0.39180471  0.59707413  1
  Pd  Pd154  1  0.60794336  0.59476276  0.80456702  1
  Pd  Pd155  1  0.79454989  0.59711173  0.80926606  1
  Pd  Pd156  1  0.00661271  0.20410338  0.80735114  1
  Pd  Pd157  1  0.81226318  0.79351445  -0.00464037  1
  Pd  Pd158  1  -0.00209980  0.58957667  0.79458197  1
  Pd  Pd159  1  -0.00065493  0.79243734  0.59908698  1
  Pd  Pd160  1  0.19713588  0.59531304  0.59380685  1
  Pd  Pd161  1  -0.00393430  0.80859641  -0.01021132  1
  Pd  Pd162  1  0.79610265  0.61109359  0.59116602  1
  Pd  Pd163  1  0.80734135  0.60219119  0.40395702  1
  Pd  Pd164  1  0.39568869  0.59505836  0.79941574  1
  Pd  Pd165  1  -0.00082929  0.19877998  -0.00245667  1
  Pd  Pd166  1  0.59913547  0.00411005  0.59848085  1
  Pd  Pd167  1  0.19741427  0.19741971  0.60271885  1
  Pd  Pd168  1  0.39075022  0.60443598  0.59416976  1
  Pd  Pd169  1  -0.00303267  -0.00357055  0.80781076  1
  Pd  Pd170  1  0.00252434  0.40835846  0.20054321  1
  Pd  Pd171  1  0.00333441  0.00136609  0.59297872  1
  Pd  Pd172  1  -0.00508604  0.80987977  0.80474721  1
  Pd  Pd173  1  0.60769627  -0.01257229  0.19540302  1
  Pd  Pd174  1  0.19615425  0.60532371  0.00196730  1
  Pd  Pd175  1  0.59404953  0.00898947  0.40668946  1
  Pd  Pd176  1  -0.00375534  0.79389139  0.39395571  1
  Pd  Pd177  1  0.80844969  0.39605440  0.60554128  1
  Pd  Pd178  1  0.19632166  0.19870859  0.39856390  1
  Pd  Pd179  1  0.80572394  0.00230909  0.39672442  1
  Pd  Pd180  1  0.19692825  -0.00239634  0.00893074  1
  Pd  Pd181  1  0.60824658  0.21098389  0.21092163  1
  Pd  Pd182  1  0.39108750  0.19974191  0.01205918  1
  Pd  Pd183  1  0.40436203  0.19880409  0.39957658  1
  Pd  Pd184  1  0.01050440  0.39364056  -0.00795707  1
  Pd  Pd185  1  0.20000885  -0.00662191  0.40831996  1
  Pd  Pd186  1  0.40155158  0.00178946  0.40825139  1
  Pd  Pd187  1  0.19102035  0.39826636  -0.00216262  1
  Pd  Pd188  1  -0.00639521  0.20098636  0.59125803  1
  Pd  Pd189  1  0.39597599  0.00100576  0.19759592  1
  Pd  Pd190  1  0.61439154  0.60813962  0.60091534  1
  Pd  Pd191  1  0.79639956  -0.00061668  0.20564084  1
  Pd  Pd192  1  0.39054961  0.20311372  0.19603437  1
  Pd  Pd193  1  -0.00638811  0.20030960  0.20714797  1
  Pd  Pd194  1  0.40152134  -0.00080715  0.59724957  1
  Pd  Pd195  1  0.61292830  0.78908397  0.59774810  1
  Pd  Pd196  1  0.00197610  0.59474133  0.60806254  1
  Pd  Pd197  1  0.59606682  0.40557116  0.79180198  1
  Pd  Pd198  1  0.00897815  0.00149400  0.19066103  1
  Pd  Pd199  1  0.60910884  0.20252182  0.00340329  1
  Rh  Rh200  1  0.18717126  0.79539770  0.59909371  1
  Rh  Rh201  1  0.80569142  0.18908541  0.38714613  1
  Rh  Rh202  1  0.40013200  0.79082098  0.40797694  1
  Rh  Rh203  1  0.38496278  0.80796978  -0.01272761  1
  Rh  Rh204  1  0.60047203  0.80243518  0.39517372  1
  Rh  Rh205  1  0.19643304  0.00213862  0.79643841  1
  Rh  Rh206  1  0.79515873  0.81598945  0.20964806  1
  Rh  Rh207  1  0.19681463  0.80422794  0.39659889  1
  Rh  Rh208  1  0.19779233  0.40083488  0.80804715  1
  Rh  Rh209  1  -0.00713723  0.59963235  0.00381254  1
  Rh  Rh210  1  0.40437966  0.59445702  -0.00222053  1
  Rh  Rh211  1  0.19817790  -0.00871480  0.19832154  1
  Rh  Rh212  1  0.38720380  0.20720514  0.78967281  1
  Rh  Rh213  1  0.39690118  0.40269295  -0.00439325  1
  Rh  Rh214  1  0.40273651  0.39419363  0.19040462  1
  Rh  Rh215  1  0.59154063  0.79947600  0.78992757  1
  Rh  Rh216  1  0.80017318  0.41142714  0.40345017  1
  Rh  Rh217  1  0.80043669  -0.00549926  0.60324175  1
  Rh  Rh218  1  0.80688185  0.20454740  0.60247651  1
  Rh  Rh219  1  -0.00192353  0.39224650  0.41020299  1
  Rh  Rh220  1  0.21324438  0.58957217  0.39707782  1
  Rh  Rh221  1  0.19763305  0.40310245  0.40266358  1
  Rh  Rh222  1  0.79279559  0.20223582  0.80333594  1
  Rh  Rh223  1  0.01311667  0.78790054  0.20842999  1
  Rh  Rh224  1  0.39690322  0.79096315  0.60365966  1
  Rh  Rh225  1  0.19364551  0.40705872  0.19800862  1
  Rh  Rh226  1  0.80176037  0.39527784  0.79144591  1
  Rh  Rh227  1  0.80962037  0.58904308  0.19200956  1
  Rh  Rh228  1  0.59875093  0.21069498  0.59373221  1
  Rh  Rh229  1  0.60935954  0.79735045  0.01765222  1
  Rh  Rh230  1  -0.00715322  0.60552624  0.38724266  1
  Rh  Rh231  1  0.40575050  0.39910685  0.40124684  1
  Rh  Rh232  1  0.19383297  -0.00355380  0.59713852  1
  Rh  Rh233  1  0.81392126  0.80961364  0.79363581  1
  Rh  Rh234  1  0.59680302  0.59087672  0.39252357  1
  Rh  Rh235  1  0.20114126  0.79430733  0.00160354  1
  Rh  Rh236  1  0.39906670  0.79159589  0.21225698  1
  Rh  Rh237  1  0.80542339  0.01495914  -0.00971241  1
  Rh  Rh238  1  0.80327452  0.40103542  0.20446883  1
  Rh  Rh239  1  0.20431074  0.20196522  0.20155704  1
  Rh  Rh240  1  0.80774561  0.79527303  0.40174397  1
  Rh  Rh241  1  0.19394032  0.19708864  0.79431464  1
  Rh  Rh242  1  0.39613424  0.39561411  0.61081272  1
  Rh  Rh243  1  0.20069348  0.20215802  0.00843381  1
  Rh  Rh244  1  0.20320994  0.79579068  0.80065877  1
  Rh  Rh245  1  0.19931208  0.59962723  0.80285029  1
  Rh  Rh246  1  -0.00186895  0.00424196  0.40596926  1
  Rh  Rh247  1  0.60924799  0.20432321  0.79599134  1
  Rh  Rh248  1  0.60230203  0.40776924  0.01176386  1
  Rh  Rh249  1  0.79496995  0.39828026  -0.00428666  1
