# generated using pymatgen
data_ZrScNbPdRh
_symmetry_space_group_name_H-M   'P 1'
_cell_length_a   16.55569483
_cell_length_b   16.55279555
_cell_length_c   16.55460130
_cell_angle_alpha   90.00167843
_cell_angle_beta   89.97962779
_cell_angle_gamma   90.00044610
_symmetry_Int_Tables_number   1
_chemical_formula_structural   ZrScNbPdRh
_chemical_formula_sum   'Zr50 Sc50 Nb50 Pd50 Rh50'
_cell_volume   4536.67284089
_cell_formula_units_Z   50
loop_
 _symmetry_equiv_pos_site_id
 _symmetry_equiv_pos_as_xyz
  1  'x, y, z'
loop_
 _atom_site_type_symbol
 _atom_site_label
 _atom_site_symmetry_multiplicity
 _atom_site_fract_x
 _atom_site_fract_y
 _atom_site_fract_z
 _atom_site_occupancy
  Zr  Zr0  1  0.31152391  0.29679069  0.10479588  1
  Zr  Zr1  1  0.50440352  0.70757529  0.90667741  1
  Zr  Zr2  1  0.89822989  0.09175317  0.69302320  1
  Zr  Zr3  1  0.09391194  0.89557743  0.49839420  1
  Zr  Zr4  1  0.28950332  0.10622750  0.09956390  1
  Zr  Zr5  1  0.89702700  0.69805557  0.90830871  1
  Zr  Zr6  1  0.69259030  0.31671822  0.70434610  1
  Zr  Zr7  1  0.70128171  0.90074768  0.29636020  1
  Zr  Zr8  1  0.68855788  0.29365711  0.10484207  1
  Zr  Zr9  1  0.10463992  0.29856141  0.50685014  1
  Zr  Zr10  1  0.70070244  0.50271731  0.51134528  1
  Zr  Zr11  1  0.69987466  0.30476950  0.50440473  1
  Zr  Zr12  1  0.10369651  0.88945049  0.70463614  1
  Zr  Zr13  1  0.70209435  0.69400877  0.70333995  1
  Zr  Zr14  1  0.49753243  0.89341654  0.09499531  1
  Zr  Zr15  1  0.48991567  0.29707159  0.50972889  1
  Zr  Zr16  1  0.89679888  0.69999728  0.29870278  1
  Zr  Zr17  1  0.69800903  0.70620946  0.30186232  1
  Zr  Zr18  1  0.09877259  0.10274690  0.50590703  1
  Zr  Zr19  1  0.50482739  0.70465809  0.70189512  1
  Zr  Zr20  1  0.70258461  0.50559987  0.89119009  1
  Zr  Zr21  1  0.09322153  0.69919851  0.69773188  1
  Zr  Zr22  1  0.49928838  0.91369655  0.49533772  1
  Zr  Zr23  1  0.50339133  0.48736348  0.10654402  1
  Zr  Zr24  1  0.89900676  0.69810870  0.10261364  1
  Zr  Zr25  1  0.29828922  0.29181552  0.90002567  1
  Zr  Zr26  1  0.10190643  0.89564607  0.29816280  1
  Zr  Zr27  1  0.30258437  0.89433905  0.29815230  1
  Zr  Zr28  1  0.30044540  0.09795103  0.29475155  1
  Zr  Zr29  1  0.70728271  0.69795095  0.10372303  1
  Zr  Zr30  1  0.09822852  0.49890420  0.11386843  1
  Zr  Zr31  1  0.10127597  0.49671275  0.48481185  1
  Zr  Zr32  1  0.90417528  0.30113636  0.90258748  1
  Zr  Zr33  1  0.29714988  0.30249170  0.50931782  1
  Zr  Zr34  1  0.89633836  0.09929859  0.90655606  1
  Zr  Zr35  1  0.90875349  0.30599455  0.50456539  1
  Zr  Zr36  1  0.89055643  0.50642034  0.70256288  1
  Zr  Zr37  1  0.30386246  0.69642761  0.90833616  1
  Zr  Zr38  1  0.08976868  0.89306959  0.90259409  1
  Zr  Zr39  1  0.50376006  0.29423140  0.90226701  1
  Zr  Zr40  1  0.30533029  0.90143543  0.50035345  1
  Zr  Zr41  1  0.70035233  0.09829780  0.29234081  1
  Zr  Zr42  1  0.09873883  0.09174290  0.10100914  1
  Zr  Zr43  1  0.69900796  0.29571328  0.90147519  1
  Zr  Zr44  1  0.90348195  0.90801216  0.50812600  1
  Zr  Zr45  1  0.30510903  0.50299873  0.10107468  1
  Zr  Zr46  1  0.90117858  0.69405601  0.49940967  1
  Zr  Zr47  1  0.29097689  0.50278978  0.89508927  1
  Zr  Zr48  1  0.49598288  0.70454120  0.09211040  1
  Zr  Zr49  1  0.49927560  0.50660100  0.90926044  1
  Sc  Sc50  1  0.69024923  0.51152544  0.29486807  1
  Sc  Sc51  1  0.89650095  0.89753500  0.30467477  1
  Sc  Sc52  1  0.50697812  0.70345870  0.49080945  1
  Sc  Sc53  1  0.49619433  0.09098390  0.30236284  1
  Sc  Sc54  1  0.49587030  0.30288797  0.28003187  1
  Sc  Sc55  1  0.69570762  0.90107010  0.49696543  1
  Sc  Sc56  1  0.10615743  0.30120876  0.70046604  1
  Sc  Sc57  1  0.70065104  0.70053348  0.49792893  1
  Sc  Sc58  1  0.29969445  0.29653017  0.69650613  1
  Sc  Sc59  1  0.10175935  0.70006190  0.09121303  1
  Sc  Sc60  1  0.30009226  0.10068517  0.89429576  1
  Sc  Sc61  1  0.69841553  0.90138439  0.10174982  1
  Sc  Sc62  1  0.90035053  0.70299169  0.69622836  1
  Sc  Sc63  1  0.90213970  0.29747797  0.09764178  1
  Sc  Sc64  1  0.09289016  0.49812578  0.89971709  1
  Sc  Sc65  1  0.49889550  0.09511457  0.09510724  1
  Sc  Sc66  1  0.09615193  0.69634732  0.89784829  1
  Sc  Sc67  1  0.50218153  0.90922561  0.69810290  1
  Sc  Sc68  1  0.28645900  0.70214953  0.70212839  1
  Sc  Sc69  1  0.70153029  0.08566307  0.70495417  1
  Sc  Sc70  1  0.90489745  0.51014679  0.10048630  1
  Sc  Sc71  1  0.90159917  0.90569753  0.09018847  1
  Sc  Sc72  1  0.89237282  0.09005181  0.29810699  1
  Sc  Sc73  1  0.31214021  0.10954978  0.50136740  1
  Sc  Sc74  1  0.91236598  0.50623165  0.29427778  1
  Sc  Sc75  1  0.30244477  0.89614309  0.09943651  1
  Sc  Sc76  1  0.30065062  0.70676565  0.09753319  1
  Sc  Sc77  1  0.50309645  0.50275373  0.50409942  1
  Sc  Sc78  1  0.90157342  0.30409993  0.29523180  1
  Sc  Sc79  1  0.49727331  0.29844367  0.70298334  1
  Sc  Sc80  1  0.69622207  0.09700209  0.90560914  1
  Sc  Sc81  1  0.89484812  0.09668019  0.09589142  1
  Sc  Sc82  1  0.10230843  0.31261421  0.29918528  1
  Sc  Sc83  1  0.09648365  0.29673996  0.89415685  1
  Sc  Sc84  1  0.10486027  0.29477247  0.10177581  1
  Sc  Sc85  1  0.91266856  0.30590171  0.70097214  1
  Sc  Sc86  1  0.30180223  0.69859994  0.48511440  1
  Sc  Sc87  1  0.50174554  0.89931133  0.29948240  1
  Sc  Sc88  1  0.08997049  0.70328513  0.49605279  1
  Sc  Sc89  1  0.70906587  0.89470409  0.70105100  1
  Sc  Sc90  1  0.10072027  0.49819436  0.71137566  1
  Sc  Sc91  1  0.30169443  0.29154977  0.29545734  1
  Sc  Sc92  1  0.28754718  0.50902668  0.30468889  1
  Sc  Sc93  1  0.30524184  0.09594902  0.71022724  1
  Sc  Sc94  1  0.10462103  0.10788244  0.70319389  1
  Sc  Sc95  1  0.50403372  0.90442061  0.90687014  1
  Sc  Sc96  1  0.49584308  0.09640127  0.70111988  1
  Sc  Sc97  1  0.10831215  0.09279271  0.29364575  1
  Sc  Sc98  1  0.50182665  0.50308717  0.30025492  1
  Sc  Sc99  1  0.29123494  0.48856836  0.69837074  1
  Nb  Nb100  1  0.70342549  0.49874184  0.10051686  1
  Nb  Nb101  1  0.89969754  0.10310586  0.50299493  1
  Nb  Nb102  1  0.89770367  0.50015585  0.90406723  1
  Nb  Nb103  1  0.49601825  0.30332532  0.09855060  1
  Nb  Nb104  1  0.29372174  0.90747148  0.88436597  1
  Nb  Nb105  1  0.90023350  0.90299347  0.70680876  1
  Nb  Nb106  1  0.30080021  0.49788985  0.50376804  1
  Nb  Nb107  1  0.89747044  0.90056867  0.89674118  1
  Nb  Nb108  1  0.69929686  0.70523458  0.90349077  1
  Nb  Nb109  1  0.69948638  0.29836565  0.30110939  1
  Nb  Nb110  1  0.09731209  0.90178882  0.09868878  1
  Nb  Nb111  1  0.30199061  0.70094404  0.29605073  1
  Nb  Nb112  1  0.70132960  0.10164875  0.49857417  1
  Nb  Nb113  1  0.69198781  0.50195367  0.70102893  1
  Nb  Nb114  1  0.50051112  0.69708464  0.30149282  1
  Nb  Nb115  1  0.50520234  0.09948775  0.49998550  1
  Nb  Nb116  1  0.49645704  0.09988884  0.89048260  1
  Nb  Nb117  1  0.89867693  0.50273464  0.49707908  1
  Nb  Nb118  1  0.10268633  0.09849890  0.90001004  1
  Nb  Nb119  1  0.50466865  0.49901407  0.70212509  1
  Nb  Nb120  1  0.71136328  0.89679631  0.89837868  1
  Nb  Nb121  1  0.10115310  0.51076924  0.29478440  1
  Nb  Nb122  1  0.29939736  0.90184838  0.70181544  1
  Nb  Nb123  1  0.10632459  0.69257939  0.29940849  1
  Nb  Nb124  1  0.70980344  0.10030888  0.10048391  1
  Nb  Nb125  1  0.20127132  0.59584656  0.59179606  1
  Nb  Nb126  1  0.20281526  -0.00245747  0.40637582  1
  Nb  Nb127  1  0.39808294  0.79902446  0.60406359  1
  Nb  Nb128  1  0.39922794  0.40026679  0.40381613  1
  Nb  Nb129  1  -0.00301078  -0.00304964  0.80309885  1
  Nb  Nb130  1  0.40290835  0.40567031  0.80310986  1
  Nb  Nb131  1  0.00083537  0.19526513  0.20510434  1
  Nb  Nb132  1  0.60447774  0.19454937  0.59649558  1
  Nb  Nb133  1  0.39654067  0.80215447  0.79767582  1
  Nb  Nb134  1  0.00562332  0.80082789  0.19822416  1
  Nb  Nb135  1  0.20265045  0.39711554  0.00254035  1
  Nb  Nb136  1  0.79327985  0.40258323  0.19852844  1
  Nb  Nb137  1  0.39648294  0.60206847  0.60491392  1
  Nb  Nb138  1  0.79737525  0.40526531  0.00292544  1
  Nb  Nb139  1  0.20391483  -0.00500210  0.60049601  1
  Nb  Nb140  1  0.40042831  0.60796236  0.20421074  1
  Nb  Nb141  1  0.60185573  0.20078547  0.40187104  1
  Nb  Nb142  1  0.79735915  0.19974315  0.60144802  1
  Nb  Nb143  1  0.79995123  0.20144725  0.79525550  1
  Nb  Nb144  1  0.79665573  0.40248625  0.39635038  1
  Nb  Nb145  1  -0.00344242  0.19729436  0.39886796  1
  Nb  Nb146  1  0.80039867  0.20243259  0.40485283  1
  Nb  Nb147  1  0.40087379  0.60091738  0.79355480  1
  Nb  Nb148  1  0.59986979  0.39300661  0.39965807  1
  Nb  Nb149  1  0.19446687  -0.00407139  -0.00570705  1
  Pd  Pd150  1  0.00276428  0.40268415  0.00729748  1
  Pd  Pd151  1  0.00560514  0.00823192  0.39367396  1
  Pd  Pd152  1  0.20610740  0.79440102  0.59019118  1
  Pd  Pd153  1  0.79657154  0.59167174  0.39458168  1
  Pd  Pd154  1  0.19860539  0.79813025  0.40264981  1
  Pd  Pd155  1  -0.00786593  0.60123944  0.80390939  1
  Pd  Pd156  1  0.80447519  0.79201635  0.80054386  1
  Pd  Pd157  1  0.79597075  0.00080168  0.40475480  1
  Pd  Pd158  1  0.00737619  0.41285801  0.60596527  1
  Pd  Pd159  1  -0.00519707  0.19291680  0.79566409  1
  Pd  Pd160  1  0.19110657  0.59192569  0.00377016  1
  Pd  Pd161  1  0.79952893  0.80588209  0.00589884  1
  Pd  Pd162  1  0.80552097  0.40039429  0.60133566  1
  Pd  Pd163  1  0.59339038  0.60651838  0.19246377  1
  Pd  Pd164  1  0.39734406  -0.00147243  0.19317886  1
  Pd  Pd165  1  0.20295489  0.80736455  -0.00595795  1
  Pd  Pd166  1  0.01245776  -0.00266994  0.61150420  1
  Pd  Pd167  1  0.40461618  0.19093788  -0.00097604  1
  Pd  Pd168  1  0.40996598  0.20609906  0.39113017  1
  Pd  Pd169  1  0.80193086  0.80079535  0.59581779  1
  Pd  Pd170  1  0.59585853  0.19006351  0.00451676  1
  Pd  Pd171  1  0.80311823  0.80441379  0.40934344  1
  Pd  Pd172  1  0.19475781  0.79592565  0.19397398  1
  Pd  Pd173  1  0.59546960  0.60656359  0.59613576  1
  Pd  Pd174  1  0.40165167  0.59253223  0.39975592  1
  Pd  Pd175  1  0.59850504  0.81187327  0.80322195  1
  Pd  Pd176  1  -0.00515637  0.39919121  0.39152912  1
  Pd  Pd177  1  0.40827837  0.80099460  0.40119839  1
  Pd  Pd178  1  0.80601611  0.39669893  0.80369535  1
  Pd  Pd179  1  0.00681649  0.58996441  0.59698111  1
  Pd  Pd180  1  0.59625707  0.80499658  0.59586606  1
  Pd  Pd181  1  0.60538533  0.19182481  0.78998324  1
  Pd  Pd182  1  0.80915636  0.20473001  0.20227942  1
  Pd  Pd183  1  0.39401894  0.39846192  -0.00761609  1
  Pd  Pd184  1  0.00493043  0.19739146  0.00777296  1
  Pd  Pd185  1  0.38928154  0.00089145  -0.00678465  1
  Pd  Pd186  1  0.19270612  0.19629334  0.39563795  1
  Pd  Pd187  1  0.60669065  0.00090178  0.60111494  1
  Pd  Pd188  1  0.59082018  0.19039131  0.20149154  1
  Pd  Pd189  1  -0.00963590  -0.00362802  0.20341739  1
  Pd  Pd190  1  0.60723228  0.40136717  -0.00352619  1
  Pd  Pd191  1  0.59609116  0.79721620  0.19939224  1
  Pd  Pd192  1  0.20750677  0.39708048  0.19890863  1
  Pd  Pd193  1  0.60192782  -0.00656377  0.80444716  1
  Pd  Pd194  1  0.20121991  0.79114505  0.81014893  1
  Pd  Pd195  1  0.20943111  0.39687814  0.39514472  1
  Pd  Pd196  1  0.60563669  -0.00021567  0.00035612  1
  Pd  Pd197  1  0.59668742  0.60298878  0.80417733  1
  Pd  Pd198  1  0.60663199  0.60023231  0.00731520  1
  Pd  Pd199  1  0.59720217  0.00208127  0.19445629  1
  Rh  Rh200  1  0.00373764  0.00249652  -0.00834131  1
  Rh  Rh201  1  0.40161140  0.59831489  0.00717536  1
  Rh  Rh202  1  -0.00276512  0.79257615  0.38921602  1
  Rh  Rh203  1  0.00149649  0.60234636  0.39643610  1
  Rh  Rh204  1  0.39546092  0.00054692  0.60057392  1
  Rh  Rh205  1  0.19028860  0.40709623  0.59952776  1
  Rh  Rh206  1  -0.00944769  0.80274686  0.60264031  1
  Rh  Rh207  1  0.79881631  0.60112553  0.60220009  1
  Rh  Rh208  1  0.20301168  0.39070113  0.80916085  1
  Rh  Rh209  1  0.79154709  -0.00332703  -0.00036881  1
  Rh  Rh210  1  0.39185373  0.41498926  0.21540844  1
  Rh  Rh211  1  0.80319212  0.00415577  0.80780314  1
  Rh  Rh212  1  0.79517791  -0.00269032  0.59493187  1
  Rh  Rh213  1  0.19124153  0.20437271  0.20568146  1
  Rh  Rh214  1  -0.00568970  0.79509722  0.00619289  1
  Rh  Rh215  1  0.40415688  0.19139912  0.60876872  1
  Rh  Rh216  1  -0.00517718  0.39471565  0.19688289  1
  Rh  Rh217  1  0.40739564  0.19062722  0.19534568  1
  Rh  Rh218  1  0.38991472  0.81413386  -0.01442417  1
  Rh  Rh219  1  0.20857752  -0.01012524  0.19638657  1
  Rh  Rh220  1  0.20974869  0.18958232  0.60639247  1
  Rh  Rh221  1  0.20006705  0.60320626  0.79364294  1
  Rh  Rh222  1  0.18702057  0.00201337  0.79807433  1
  Rh  Rh223  1  0.58984880  0.40511018  0.80717272  1
  Rh  Rh224  1  0.39358160  0.00430019  0.39841329  1
  Rh  Rh225  1  0.59910298  0.80328176  0.39622410  1
  Rh  Rh226  1  -0.00226728  0.20211349  0.59905281  1
  Rh  Rh227  1  0.40716721  0.79401718  0.20536392  1
  Rh  Rh228  1  0.81051802  0.80767605  0.19468823  1
  Rh  Rh229  1  0.60358430  0.59705736  0.40465689  1
  Rh  Rh230  1  0.00661205  0.61263287  0.19911900  1
  Rh  Rh231  1  0.79512023  0.59556656  -0.00334704  1
  Rh  Rh232  1  0.80122341  -0.00629443  0.19270123  1
  Rh  Rh233  1  0.40837521  -0.00654521  0.80498707  1
  Rh  Rh234  1  0.60587517  0.39874741  0.20513984  1
  Rh  Rh235  1  0.80091112  0.60577956  0.80149230  1
  Rh  Rh236  1  0.60549294  0.00388023  0.39439376  1
  Rh  Rh237  1  0.00322862  0.59769172  0.00010778  1
  Rh  Rh238  1  0.61381054  0.80529447  -0.00050730  1
  Rh  Rh239  1  0.79884538  0.59341205  0.20523962  1
  Rh  Rh240  1  0.40196669  0.20546302  0.79970087  1
  Rh  Rh241  1  -0.01024778  0.79909948  0.80024002  1
  Rh  Rh242  1  0.20629554  0.60900970  0.19515381  1
  Rh  Rh243  1  0.20187279  0.20058499  0.79817805  1
  Rh  Rh244  1  0.59029684  0.39804348  0.59866442  1
  Rh  Rh245  1  0.19480415  0.19845184  -0.00441030  1
  Rh  Rh246  1  -0.00354013  0.40486760  0.80019364  1
  Rh  Rh247  1  0.79625648  0.20476859  -0.00277437  1
  Rh  Rh248  1  0.19763502  0.60511272  0.40410515  1
  Rh  Rh249  1  0.40352801  0.41045026  0.60494634  1
