# generated using pymatgen
data_ZrScNbPdRh
_symmetry_space_group_name_H-M   'P 1'
_cell_length_a   16.56071394
_cell_length_b   16.55887847
_cell_length_c   16.55894441
_cell_angle_alpha   89.99080013
_cell_angle_beta   90.00888402
_cell_angle_gamma   90.01810344
_symmetry_Int_Tables_number   1
_chemical_formula_structural   ZrScNbPdRh
_chemical_formula_sum   'Zr50 Sc50 Nb50 Pd50 Rh50'
_cell_volume   4540.90681533
_cell_formula_units_Z   50
loop_
 _symmetry_equiv_pos_site_id
 _symmetry_equiv_pos_as_xyz
  1  'x, y, z'
loop_
 _atom_site_type_symbol
 _atom_site_label
 _atom_site_symmetry_multiplicity
 _atom_site_fract_x
 _atom_site_fract_y
 _atom_site_fract_z
 _atom_site_occupancy
  Zr  Zr0  1  0.69872573  0.90587443  0.89170403  1
  Zr  Zr1  1  0.10100431  0.90499016  0.70646859  1
  Zr  Zr2  1  0.29609503  0.90479441  0.10505304  1
  Zr  Zr3  1  0.50501119  0.09643743  0.90877360  1
  Zr  Zr4  1  0.30169477  0.89938843  0.30468761  1
  Zr  Zr5  1  0.90291227  0.89780749  0.69448444  1
  Zr  Zr6  1  0.68745245  0.30700179  0.69446483  1
  Zr  Zr7  1  0.89561920  0.31066443  0.49392003  1
  Zr  Zr8  1  0.11135134  0.10737273  0.50369059  1
  Zr  Zr9  1  0.90072803  0.89760508  0.10244868  1
  Zr  Zr10  1  0.49014255  0.09741933  0.70063693  1
  Zr  Zr11  1  0.69671140  0.30259313  0.90115598  1
  Zr  Zr12  1  0.49425272  0.50005644  0.89347881  1
  Zr  Zr13  1  0.69629734  0.50140948  0.10931966  1
  Zr  Zr14  1  0.49830669  0.88612428  0.89765357  1
  Zr  Zr15  1  0.30164359  0.70429937  0.49597002  1
  Zr  Zr16  1  0.89844541  0.10096118  0.49226237  1
  Zr  Zr17  1  0.10420742  0.51174564  0.69726831  1
  Zr  Zr18  1  0.89943138  0.50183457  0.69619766  1
  Zr  Zr19  1  0.09813702  0.90085264  0.10533324  1
  Zr  Zr20  1  0.10356273  0.10957391  0.70480913  1
  Zr  Zr21  1  0.10660682  0.69559306  0.50669910  1
  Zr  Zr22  1  0.09588430  0.69738659  0.29070558  1
  Zr  Zr23  1  0.70250945  0.89698830  0.50913415  1
  Zr  Zr24  1  0.10726620  0.50520811  0.91202538  1
  Zr  Zr25  1  0.89635839  0.90196497  0.49846643  1
  Zr  Zr26  1  0.70197340  0.50532738  0.29488247  1
  Zr  Zr27  1  0.70327704  0.69915805  0.11165533  1
  Zr  Zr28  1  0.30810224  0.09528417  0.09751419  1
  Zr  Zr29  1  0.89639484  0.29835921  0.29607905  1
  Zr  Zr30  1  0.09872376  0.70710761  0.70451793  1
  Zr  Zr31  1  0.90268704  0.69964987  0.90714049  1
  Zr  Zr32  1  0.09135781  0.50104870  0.49900279  1
  Zr  Zr33  1  0.50359429  0.09025621  0.09327810  1
  Zr  Zr34  1  0.30171700  0.90182088  0.49386188  1
  Zr  Zr35  1  0.49551306  0.49014638  0.69089603  1
  Zr  Zr36  1  0.69854272  0.31259280  0.29892821  1
  Zr  Zr37  1  0.69687650  0.29548249  0.49059676  1
  Zr  Zr38  1  0.50257160  0.29795628  0.30458290  1
  Zr  Zr39  1  0.50011462  0.69939667  0.08942577  1
  Zr  Zr40  1  0.10847376  0.90310569  0.29489518  1
  Zr  Zr41  1  0.49441795  0.30397603  0.70229098  1
  Zr  Zr42  1  0.50206332  0.30586794  0.50744258  1
  Zr  Zr43  1  0.10357497  0.31351650  0.09986518  1
  Zr  Zr44  1  0.70473380  0.09822234  0.90974009  1
  Zr  Zr45  1  0.51131411  0.49691784  0.29689948  1
  Zr  Zr46  1  0.90445583  0.90302302  0.30362671  1
  Zr  Zr47  1  0.09795557  0.51110925  0.10842782  1
  Zr  Zr48  1  0.70374332  0.88405650  0.30606864  1
  Zr  Zr49  1  0.90671968  0.29435238  0.09164047  1
  Sc  Sc50  1  0.70195225  0.69536091  0.90819311  1
  Sc  Sc51  1  0.50676988  0.09472314  0.49824601  1
  Sc  Sc52  1  0.30238684  0.09586562  0.31028737  1
  Sc  Sc53  1  0.89609949  0.50148353  0.10451722  1
  Sc  Sc54  1  0.91416399  0.09506743  0.70137481  1
  Sc  Sc55  1  0.89164039  0.50567336  0.90815014  1
  Sc  Sc56  1  0.30718764  0.70842209  0.30241153  1
  Sc  Sc57  1  0.69740061  0.49830897  0.49214669  1
  Sc  Sc58  1  0.49795816  0.09718901  0.30782120  1
  Sc  Sc59  1  0.09268744  0.29625159  0.90195383  1
  Sc  Sc60  1  0.30618308  0.49837696  0.50296266  1
  Sc  Sc61  1  0.09909421  0.90223974  0.89498003  1
  Sc  Sc62  1  0.29742783  0.50677526  0.89640889  1
  Sc  Sc63  1  0.50194643  0.70113334  0.30356989  1
  Sc  Sc64  1  0.90536765  0.29914580  0.69248144  1
  Sc  Sc65  1  0.28579098  0.50132045  0.09511564  1
  Sc  Sc66  1  0.69877253  0.89256781  0.09441059  1
  Sc  Sc67  1  0.29562142  0.29647818  0.49184693  1
  Sc  Sc68  1  0.51026467  0.89582611  0.70310966  1
  Sc  Sc69  1  0.10001282  0.30942950  0.29814617  1
  Sc  Sc70  1  0.30721554  0.69661080  0.09989766  1
  Sc  Sc71  1  0.10477415  0.89257425  0.49503569  1
  Sc  Sc72  1  0.90045728  0.90539728  0.89801359  1
  Sc  Sc73  1  0.09897293  0.09760576  0.29996659  1
  Sc  Sc74  1  0.70510638  0.10430799  0.32023805  1
  Sc  Sc75  1  0.49750431  0.28050212  0.09325199  1
  Sc  Sc76  1  0.30263134  0.09191160  0.89347996  1
  Sc  Sc77  1  0.49529859  0.89635640  0.09545850  1
  Sc  Sc78  1  0.29461653  0.89981501  0.89488395  1
  Sc  Sc79  1  0.70203901  0.30616257  0.10138854  1
  Sc  Sc80  1  0.89968279  0.50355026  0.30248970  1
  Sc  Sc81  1  0.69784678  0.08412306  0.70043620  1
  Sc  Sc82  1  0.70089912  0.50399730  0.90266753  1
  Sc  Sc83  1  0.29861182  0.29393592  0.70819418  1
  Sc  Sc84  1  0.89101077  0.70288921  0.29949173  1
  Sc  Sc85  1  0.49426711  0.29775628  0.89150700  1
  Sc  Sc86  1  0.30357971  0.69795103  0.89449209  1
  Sc  Sc87  1  0.50147552  0.90139032  0.49886029  1
  Sc  Sc88  1  0.49624868  0.50194942  0.49915586  1
  Sc  Sc89  1  0.90797674  0.09877339  0.30162051  1
  Sc  Sc90  1  0.09580815  0.09806981  0.11133828  1
  Sc  Sc91  1  0.09838231  0.29867501  0.49824106  1
  Sc  Sc92  1  0.28911479  0.69413634  0.70270144  1
  Sc  Sc93  1  0.29805583  0.49552972  0.29657194  1
  Sc  Sc94  1  0.90285899  0.69909908  0.09973580  1
  Sc  Sc95  1  0.29565097  0.30583962  0.89543157  1
  Sc  Sc96  1  0.69252587  0.70731748  0.68419162  1
  Sc  Sc97  1  0.50507090  0.69587222  0.50047095  1
  Sc  Sc98  1  0.49992201  0.51127094  0.10537567  1
  Sc  Sc99  1  0.90605680  0.70174887  0.49797924  1
  Nb  Nb100  1  0.70467139  0.10136407  0.50228175  1
  Nb  Nb101  1  0.09467265  0.69800118  0.08924210  1
  Nb  Nb102  1  0.69760367  0.09655072  0.09639520  1
  Nb  Nb103  1  0.30223199  0.09663465  0.50570097  1
  Nb  Nb104  1  0.10461065  0.50509901  0.29672742  1
  Nb  Nb105  1  0.90385502  0.11687612  0.90736964  1
  Nb  Nb106  1  0.89802665  0.29638076  0.89835140  1
  Nb  Nb107  1  0.09937737  0.70076889  0.90452355  1
  Nb  Nb108  1  0.89802568  0.69854853  0.70164934  1
  Nb  Nb109  1  0.09199630  0.10087368  0.89880930  1
  Nb  Nb110  1  0.30369093  0.29913993  0.29399593  1
  Nb  Nb111  1  0.89642641  0.10320051  0.09839806  1
  Nb  Nb112  1  0.29966609  0.29820129  0.09835072  1
  Nb  Nb113  1  0.49334327  0.69612537  0.89251104  1
  Nb  Nb114  1  0.90108594  0.50170662  0.50742992  1
  Nb  Nb115  1  0.30384628  0.90496187  0.70249361  1
  Nb  Nb116  1  0.70734579  0.89302150  0.69835359  1
  Nb  Nb117  1  0.10267596  0.29839951  0.70258548  1
  Nb  Nb118  1  0.29692816  0.49406956  0.69812389  1
  Nb  Nb119  1  0.69725439  0.50034936  0.70402467  1
  Nb  Nb120  1  0.70017946  0.70400970  0.49302955  1
  Nb  Nb121  1  0.69890996  0.69763683  0.30856636  1
  Nb  Nb122  1  0.49752746  0.70389062  0.70138760  1
  Nb  Nb123  1  0.50163230  0.89876802  0.30536535  1
  Nb  Nb124  1  0.30059212  0.09634932  0.69847373  1
  Nb  Nb125  1  0.79337186  0.00489476  0.19915153  1
  Nb  Nb126  1  0.60393858  0.19554931  0.79944404  1
  Nb  Nb127  1  0.79691718  0.19275843  0.19594116  1
  Nb  Nb128  1  0.60789654  0.18970133  0.20026738  1
  Nb  Nb129  1  0.79884743  0.59964892  0.59759777  1
  Nb  Nb130  1  0.19851543  0.19596183  0.00425357  1
  Nb  Nb131  1  0.20953734  0.20551750  0.19740715  1
  Nb  Nb132  1  0.20705952  0.00331180  0.60386935  1
  Nb  Nb133  1  0.39743769  0.39177970  0.19333378  1
  Nb  Nb134  1  0.80273716  0.39609847  0.79767948  1
  Nb  Nb135  1  0.60655189  -0.00036182  0.20369371  1
  Nb  Nb136  1  0.58982108  0.40196098  0.00139691  1
  Nb  Nb137  1  -0.00237679  0.40406449  0.80103464  1
  Nb  Nb138  1  -0.00372388  0.01001833  0.00013832  1
  Nb  Nb139  1  0.79932870  0.20191311  0.79697808  1
  Nb  Nb140  1  0.39465302  0.19337298  0.59958013  1
  Nb  Nb141  1  0.19280133  0.79579922  0.00221075  1
  Nb  Nb142  1  0.39892735  0.80084112  0.60692444  1
  Nb  Nb143  1  0.59396700  0.60340263  0.79222501  1
  Nb  Nb144  1  0.00009095  0.60104302  0.80305128  1
  Nb  Nb145  1  0.39968464  0.40074848  0.00500360  1
  Nb  Nb146  1  0.79872866  0.79862427  0.79234838  1
  Nb  Nb147  1  0.19773774  0.39846572  0.60641831  1
  Nb  Nb148  1  0.79518400  0.19728889  0.59985564  1
  Nb  Nb149  1  0.19547379  0.59718914  0.39666751  1
  Pd  Pd150  1  0.80287453  0.59828750  0.40798535  1
  Pd  Pd151  1  -0.00604135  0.20336231  0.59491241  1
  Pd  Pd152  1  0.59847054  -0.00382467  0.60178369  1
  Pd  Pd153  1  0.40034910  0.59679353  0.78681328  1
  Pd  Pd154  1  -0.00227146  0.40369944  0.39269345  1
  Pd  Pd155  1  0.40370719  0.19656816  0.20306477  1
  Pd  Pd156  1  0.40651580  -0.00648417  0.80540698  1
  Pd  Pd157  1  0.20935769  0.60896134  0.20398688  1
  Pd  Pd158  1  0.39641874  0.59501576  0.39304448  1
  Pd  Pd159  1  0.60460213  0.59556426  0.60054681  1
  Pd  Pd160  1  0.79092354  0.40085155  0.60044082  1
  Pd  Pd161  1  0.01115153  0.00019479  0.40668856  1
  Pd  Pd162  1  -0.00707893  0.79784974  0.80595683  1
  Pd  Pd163  1  0.60382014  0.79653244  -0.00502969  1
  Pd  Pd164  1  0.79353270  0.60482783  0.79278982  1
  Pd  Pd165  1  0.81135995  0.00438299  0.79761746  1
  Pd  Pd166  1  0.80644946  -0.00291635  0.00346329  1
  Pd  Pd167  1  0.20261683  0.19530946  0.81109210  1
  Pd  Pd168  1  0.59822325  0.19011371  0.60538843  1
  Pd  Pd169  1  0.39609400  0.59362710  0.20350063  1
  Pd  Pd170  1  0.19259996  0.40113328  0.79947175  1
  Pd  Pd171  1  0.38867077  0.20361869  -0.01486993  1
  Pd  Pd172  1  0.20209545  0.40577605  0.40477969  1
  Pd  Pd173  1  -0.00484405  0.40658887  0.20372301  1
  Pd  Pd174  1  0.79857222  0.80084464  -0.00637284  1
  Pd  Pd175  1  0.40360285  0.19699090  0.41039374  1
  Pd  Pd176  1  0.01327756  -0.00043624  0.59080820  1
  Pd  Pd177  1  0.59447033  0.00240618  0.79969272  1
  Pd  Pd178  1  0.20778173  0.80972203  0.60671906  1
  Pd  Pd179  1  0.80483054  0.00758844  0.60313822  1
  Pd  Pd180  1  0.59778368  0.59580059  -0.00602380  1
  Pd  Pd181  1  0.19011011  0.00142637  -0.00286831  1
  Pd  Pd182  1  0.00008638  0.60184118  0.39599802  1
  Pd  Pd183  1  0.39921944  0.40322335  0.39468469  1
  Pd  Pd184  1  0.60754844  -0.00528543  0.39735926  1
  Pd  Pd185  1  0.00529336  0.79750963  0.39812556  1
  Pd  Pd186  1  0.59259635  0.80145565  0.20089552  1
  Pd  Pd187  1  0.00095219  0.79940551  0.59704290  1
  Pd  Pd188  1  0.61081349  0.78808387  0.80292000  1
  Pd  Pd189  1  -0.00477692  0.79487042  0.20095184  1
  Pd  Pd190  1  0.39478294  0.60817256  0.60541892  1
  Pd  Pd191  1  0.38621713  0.80051734  -0.00370153  1
  Pd  Pd192  1  0.00952481  0.39500126  0.60495540  1
  Pd  Pd193  1  0.40781275  0.80201812  0.20032764  1
  Pd  Pd194  1  0.40802558  -0.00278411  0.20840112  1
  Pd  Pd195  1  0.79547617  0.40224373  -0.00056027  1
  Pd  Pd196  1  -0.00406842  0.40763912  -0.00617386  1
  Pd  Pd197  1  0.00536843  0.20383199  0.39592938  1
  Pd  Pd198  1  0.19840199  0.20181687  0.38796252  1
  Pd  Pd199  1  0.20322030  0.78995493  0.19283027  1
  Rh  Rh200  1  0.59807130  0.61371749  0.20560320  1
  Rh  Rh201  1  0.01373010  0.19570133  0.00947466  1
  Rh  Rh202  1  -0.00431618  0.59406424  -0.00173791  1
  Rh  Rh203  1  0.80826679  0.39506105  0.19830543  1
  Rh  Rh204  1  0.39371503  0.79949905  0.79202586  1
  Rh  Rh205  1  0.20473779  0.39665108  0.20356029  1
  Rh  Rh206  1  -0.00592139  0.60151163  0.20033950  1
  Rh  Rh207  1  0.00670258  0.81319113  -0.00253374  1
  Rh  Rh208  1  0.59862723  -0.01594686  0.00384643  1
  Rh  Rh209  1  0.80256222  0.80281377  0.20219465  1
  Rh  Rh210  1  -0.00486911  0.20906323  0.79696702  1
  Rh  Rh211  1  0.40080433  -0.01251017  -0.00849072  1
  Rh  Rh212  1  0.80444669  0.20338425  0.39967596  1
  Rh  Rh213  1  0.19733934  0.00478407  0.79565480  1
  Rh  Rh214  1  0.59248332  0.80316587  0.59397652  1
  Rh  Rh215  1  0.20797269  0.20399952  0.60368684  1
  Rh  Rh216  1  0.79564031  -0.00645780  0.39643847  1
  Rh  Rh217  1  0.80175218  0.60376150  0.20296776  1
  Rh  Rh218  1  0.60592348  0.20765834  -0.00099212  1
  Rh  Rh219  1  0.20832913  0.59008270  0.58890108  1
  Rh  Rh220  1  0.79769642  0.60053892  0.01386690  1
  Rh  Rh221  1  0.80242038  0.40985580  0.39777800  1
  Rh  Rh222  1  0.39801234  -0.00394811  0.59897026  1
  Rh  Rh223  1  0.39815831  0.59491901  0.00042706  1
  Rh  Rh224  1  0.80525978  0.79053165  0.59906739  1
  Rh  Rh225  1  0.80397953  0.79755018  0.40683639  1
  Rh  Rh226  1  0.19267699  0.78847183  0.39055156  1
  Rh  Rh227  1  -0.00417986  0.00540309  0.80947516  1
  Rh  Rh228  1  0.60564556  0.40659266  0.80901819  1
  Rh  Rh229  1  0.40231548  -0.00126950  0.40147482  1
  Rh  Rh230  1  0.19742084  0.00289778  0.40570368  1
  Rh  Rh231  1  0.20686077  0.61259892  0.00006084  1
  Rh  Rh232  1  0.00081415  0.20242391  0.19953402  1
  Rh  Rh233  1  -0.00713737  0.60942408  0.60468899  1
  Rh  Rh234  1  0.20535745  0.39472925  -0.00353151  1
  Rh  Rh235  1  0.58221425  0.38363892  0.18524649  1
  Rh  Rh236  1  0.59694284  0.79736123  0.40625758  1
  Rh  Rh237  1  0.20364653  0.79933853  0.80573459  1
  Rh  Rh238  1  0.41090377  0.80182700  0.40723357  1
  Rh  Rh239  1  0.38362977  0.38464839  0.60097186  1
  Rh  Rh240  1  0.20793533  0.01161471  0.20599109  1
  Rh  Rh241  1  0.59740192  0.40444808  0.40494651  1
  Rh  Rh242  1  0.59648577  0.19894296  0.39857244  1
  Rh  Rh243  1  0.60333424  0.40975789  0.59053723  1
  Rh  Rh244  1  0.19355985  0.60336413  0.80522602  1
  Rh  Rh245  1  0.40233275  0.19629395  0.79950894  1
  Rh  Rh246  1  0.60028949  0.60020666  0.39816589  1
  Rh  Rh247  1  -0.01044187  0.00293610  0.19640581  1
  Rh  Rh248  1  0.39007573  0.40527899  0.80285124  1
  Rh  Rh249  1  0.79293996  0.20577531  0.00307587  1
