# generated using pymatgen
data_ZrScNbPdRh
_symmetry_space_group_name_H-M   'P 1'
_cell_length_a   16.56330281
_cell_length_b   16.56455346
_cell_length_c   16.56033745
_cell_angle_alpha   90.00315670
_cell_angle_beta   89.99086345
_cell_angle_gamma   90.02489875
_symmetry_Int_Tables_number   1
_chemical_formula_structural   ZrScNbPdRh
_chemical_formula_sum   'Zr50 Sc50 Nb50 Pd50 Rh50'
_cell_volume   4543.55520927
_cell_formula_units_Z   50
loop_
 _symmetry_equiv_pos_site_id
 _symmetry_equiv_pos_as_xyz
  1  'x, y, z'
loop_
 _atom_site_type_symbol
 _atom_site_label
 _atom_site_symmetry_multiplicity
 _atom_site_fract_x
 _atom_site_fract_y
 _atom_site_fract_z
 _atom_site_occupancy
  Zr  Zr0  1  0.10479808  0.09888442  0.49694196  1
  Zr  Zr1  1  0.29922369  0.89823777  0.10270946  1
  Zr  Zr2  1  0.30052364  0.69717044  0.70250176  1
  Zr  Zr3  1  0.29772257  0.69768817  0.29820374  1
  Zr  Zr4  1  0.09252613  0.30173370  0.50439224  1
  Zr  Zr5  1  0.29915191  0.69993590  0.50516581  1
  Zr  Zr6  1  0.48754071  0.09462838  0.89617798  1
  Zr  Zr7  1  0.09701373  0.10233591  0.09905792  1
  Zr  Zr8  1  0.70887761  0.49858559  0.68886426  1
  Zr  Zr9  1  0.69900479  0.70682294  0.69659699  1
  Zr  Zr10  1  0.90973449  0.50090914  0.69825094  1
  Zr  Zr11  1  0.89277516  0.50267796  0.29497622  1
  Zr  Zr12  1  0.90024002  0.49363849  0.10151792  1
  Zr  Zr13  1  0.49858029  0.49384904  0.49529839  1
  Zr  Zr14  1  0.08819232  0.09342785  0.30055177  1
  Zr  Zr15  1  0.29712847  0.68835360  0.90185445  1
  Zr  Zr16  1  0.30438872  0.90769745  0.90867887  1
  Zr  Zr17  1  0.90990260  0.70267209  0.49305012  1
  Zr  Zr18  1  0.30282777  0.11255967  0.30379191  1
  Zr  Zr19  1  0.49653749  0.90120359  0.51023975  1
  Zr  Zr20  1  0.29831065  0.29863070  0.10114474  1
  Zr  Zr21  1  0.10216636  0.09729684  0.70287375  1
  Zr  Zr22  1  0.09939933  0.89942769  0.49886142  1
  Zr  Zr23  1  0.49825239  0.30385789  0.89820352  1
  Zr  Zr24  1  0.89959156  0.28317331  0.89826138  1
  Zr  Zr25  1  0.11153617  0.70192657  0.10208601  1
  Zr  Zr26  1  0.49955598  0.89889266  0.09613749  1
  Zr  Zr27  1  0.70111159  0.10666240  0.30012354  1
  Zr  Zr28  1  0.69511701  0.70219169  0.09944581  1
  Zr  Zr29  1  0.69759309  0.30265036  0.29392244  1
  Zr  Zr30  1  0.90348878  0.29468745  0.29690909  1
  Zr  Zr31  1  0.69815650  0.89380745  0.30002812  1
  Zr  Zr32  1  0.10437058  0.30993423  0.70305012  1
  Zr  Zr33  1  0.89697108  0.09857867  0.71720730  1
  Zr  Zr34  1  0.49528002  0.29915379  0.49932499  1
  Zr  Zr35  1  0.30325392  0.69390745  0.09667764  1
  Zr  Zr36  1  0.29589567  0.10376890  0.90854901  1
  Zr  Zr37  1  0.08983276  0.09528845  0.90339542  1
  Zr  Zr38  1  0.29914638  0.29898516  0.89522973  1
  Zr  Zr39  1  0.30481408  0.09557123  0.49992656  1
  Zr  Zr40  1  0.90430484  0.90468362  0.89215272  1
  Zr  Zr41  1  0.91021667  0.30261926  0.69059843  1
  Zr  Zr42  1  0.90047160  0.89831892  0.30298556  1
  Zr  Zr43  1  0.50723504  0.69969788  0.29728812  1
  Zr  Zr44  1  0.90850896  0.11108390  0.48748276  1
  Zr  Zr45  1  0.49266900  0.30252197  0.70149835  1
  Zr  Zr46  1  0.90696202  0.49939201  0.90618869  1
  Zr  Zr47  1  0.69833830  0.29556221  0.69825645  1
  Zr  Zr48  1  0.70463555  0.69240001  0.30125577  1
  Zr  Zr49  1  0.29494608  0.49391393  0.70389717  1
  Sc  Sc50  1  0.70452710  0.49524281  0.10904215  1
  Sc  Sc51  1  0.70004556  0.89434448  0.89746382  1
  Sc  Sc52  1  0.50146645  0.89882246  0.30141199  1
  Sc  Sc53  1  0.70057054  0.09303725  0.69793453  1
  Sc  Sc54  1  0.29929678  0.90604268  0.29859759  1
  Sc  Sc55  1  0.90715335  0.70500430  0.69503166  1
  Sc  Sc56  1  0.29636373  0.90214005  0.69433246  1
  Sc  Sc57  1  0.48842515  0.49471187  0.70010312  1
  Sc  Sc58  1  0.48677909  0.10201901  0.10700549  1
  Sc  Sc59  1  0.10090496  0.89524162  0.70922745  1
  Sc  Sc60  1  0.09600055  0.69303586  0.31514632  1
  Sc  Sc61  1  0.09663481  0.29970702  0.09968257  1
  Sc  Sc62  1  0.70467765  0.70861928  0.90593948  1
  Sc  Sc63  1  0.88945999  0.69400480  0.09399913  1
  Sc  Sc64  1  0.49191332  0.30405973  0.29650192  1
  Sc  Sc65  1  0.11288019  0.90614585  0.10534994  1
  Sc  Sc66  1  0.70356024  0.90135715  0.70194784  1
  Sc  Sc67  1  0.10486495  0.69646336  0.89546297  1
  Sc  Sc68  1  0.29996650  0.09810638  0.10054624  1
  Sc  Sc69  1  0.90551259  0.30139397  0.09979664  1
  Sc  Sc70  1  0.50256791  0.08852160  0.70248660  1
  Sc  Sc71  1  0.10369610  0.69904310  0.70275995  1
  Sc  Sc72  1  0.30324554  0.90403399  0.50500692  1
  Sc  Sc73  1  0.10225275  0.29732413  0.90411637  1
  Sc  Sc74  1  0.69952311  0.48480375  0.90566463  1
  Sc  Sc75  1  0.70202949  0.89531591  0.50923251  1
  Sc  Sc76  1  0.70479993  0.70597890  0.49319163  1
  Sc  Sc77  1  0.10598419  0.30108338  0.29321708  1
  Sc  Sc78  1  0.09426534  0.49036816  0.09058201  1
  Sc  Sc79  1  0.89472965  0.89141402  0.50267019  1
  Sc  Sc80  1  0.69508874  0.30738426  0.09838044  1
  Sc  Sc81  1  0.50106224  0.70373936  0.90361010  1
  Sc  Sc82  1  0.69729447  0.89382401  0.10001499  1
  Sc  Sc83  1  0.89144961  0.89747569  0.10366061  1
  Sc  Sc84  1  0.89986899  0.50822293  0.50990702  1
  Sc  Sc85  1  0.90252886  0.70202478  0.90023321  1
  Sc  Sc86  1  0.50339553  0.49911819  0.29327375  1
  Sc  Sc87  1  0.69612617  0.29913143  0.89769770  1
  Sc  Sc88  1  0.49730192  0.70461693  0.69300899  1
  Sc  Sc89  1  0.50363259  0.69488099  0.10245200  1
  Sc  Sc90  1  0.30110875  0.30643245  0.48942256  1
  Sc  Sc91  1  0.10545589  0.49971226  0.89472809  1
  Sc  Sc92  1  0.69727706  0.10185448  0.11032427  1
  Sc  Sc93  1  0.49338237  0.10348320  0.29738452  1
  Sc  Sc94  1  0.68807778  0.30024798  0.49918295  1
  Sc  Sc95  1  0.29339185  0.49694355  0.50229811  1
  Sc  Sc96  1  0.70817528  0.10773596  0.88646201  1
  Sc  Sc97  1  0.50095140  0.71203263  0.49968616  1
  Sc  Sc98  1  0.29972382  0.09144161  0.70633840  1
  Sc  Sc99  1  0.50213091  0.49893930  0.10933238  1
  Nb  Nb100  1  0.30490814  0.50455703  0.90301064  1
  Nb  Nb101  1  0.09904702  0.50141136  0.30415438  1
  Nb  Nb102  1  0.49946916  0.10146947  0.50159690  1
  Nb  Nb103  1  0.49607222  0.30435135  0.09712746  1
  Nb  Nb104  1  0.90067517  0.90422514  0.69964059  1
  Nb  Nb105  1  0.90235446  0.10388511  0.09862589  1
  Nb  Nb106  1  0.70013029  0.50282677  0.49319648  1
  Nb  Nb107  1  0.90105327  0.09845774  0.90606942  1
  Nb  Nb108  1  0.89869127  0.10085254  0.29319586  1
  Nb  Nb109  1  0.29801717  0.30417663  0.69431256  1
  Nb  Nb110  1  0.10113332  0.89371630  0.29836408  1
  Nb  Nb111  1  0.10102629  0.49482690  0.69495254  1
  Nb  Nb112  1  0.50230196  0.90005085  0.70884522  1
  Nb  Nb113  1  0.90451690  0.30301195  0.49573050  1
  Nb  Nb114  1  0.50237831  0.90580708  0.89822962  1
  Nb  Nb115  1  0.50195120  0.49612284  0.89753706  1
  Nb  Nb116  1  0.30365415  0.30871651  0.29871273  1
  Nb  Nb117  1  0.70207425  0.50251114  0.30384035  1
  Nb  Nb118  1  0.29967497  0.49432092  0.29774757  1
  Nb  Nb119  1  0.09998631  0.69339798  0.49624813  1
  Nb  Nb120  1  0.30205714  0.50385635  0.10158450  1
  Nb  Nb121  1  0.69754809  0.10303896  0.49967780  1
  Nb  Nb122  1  0.09844727  0.51306729  0.49361920  1
  Nb  Nb123  1  0.90017313  0.69961485  0.30359973  1
  Nb  Nb124  1  0.09543712  0.89926900  0.90525550  1
  Nb  Nb125  1  -0.00480779  -0.00055988  0.60375140  1
  Nb  Nb126  1  0.60427905  0.59544055  0.79951784  1
  Nb  Nb127  1  0.60090079  0.00680054  -0.00503461  1
  Nb  Nb128  1  0.39667287  0.19845427  0.59938682  1
  Nb  Nb129  1  -0.00293281  0.40546074  0.39982315  1
  Nb  Nb130  1  0.39672450  0.79680527  0.19789687  1
  Nb  Nb131  1  0.79723240  0.59395903  0.79920788  1
  Nb  Nb132  1  0.60056725  0.59118293  -0.00629194  1
  Nb  Nb133  1  0.80729513  0.40033989  0.79470344  1
  Nb  Nb134  1  0.00216595  0.60162272  0.20292405  1
  Nb  Nb135  1  0.79999923  0.40236461  0.40311179  1
  Nb  Nb136  1  0.00543071  0.80340687  0.00431067  1
  Nb  Nb137  1  0.60339011  0.00705091  0.40729957  1
  Nb  Nb138  1  0.00290726  0.79355321  0.20197146  1
  Nb  Nb139  1  0.19624324  0.79794086  0.40240939  1
  Nb  Nb140  1  0.59204716  0.19630786  -0.00077197  1
  Nb  Nb141  1  0.80137242  0.00863151  -0.00108262  1
  Nb  Nb142  1  0.60317375  0.59623622  0.59769347  1
  Nb  Nb143  1  0.79656938  0.00979057  0.39833788  1
  Nb  Nb144  1  0.20665228  0.20340420  0.60153671  1
  Nb  Nb145  1  0.19748285  0.58976498  0.20346360  1
  Nb  Nb146  1  0.39780246  0.40743568  -0.00091599  1
  Nb  Nb147  1  0.80363188  0.19870411  0.59247787  1
  Nb  Nb148  1  0.40045975  0.80645472  0.80405801  1
  Nb  Nb149  1  0.39742668  0.59788012  0.39656806  1
  Pd  Pd150  1  0.20394105  0.00994592  0.20708063  1
  Pd  Pd151  1  0.60188207  0.39877848  0.39178328  1
  Pd  Pd152  1  -0.00105480  0.39495103  0.80964441  1
  Pd  Pd153  1  0.19222679  0.39941779  0.40286909  1
  Pd  Pd154  1  0.41046284  0.60669355  0.79942316  1
  Pd  Pd155  1  0.80786925  0.79480434  0.79640145  1
  Pd  Pd156  1  -0.00640596  -0.00996665  0.01290918  1
  Pd  Pd157  1  0.40744975  0.59745289  0.59183023  1
  Pd  Pd158  1  0.19933138  -0.00596479  0.80808891  1
  Pd  Pd159  1  0.40367654  0.79731780  -0.00070701  1
  Pd  Pd160  1  0.00689585  0.60908735  0.00636207  1
  Pd  Pd161  1  0.20561248  0.40246962  -0.00266502  1
  Pd  Pd162  1  0.19542546  0.59766343  0.60522239  1
  Pd  Pd163  1  0.20247664  -0.00597704  0.39472230  1
  Pd  Pd164  1  0.80482223  0.79182948  0.20099701  1
  Pd  Pd165  1  0.60072725  -0.00370600  0.59930300  1
  Pd  Pd166  1  0.80870963  0.00914001  0.59033142  1
  Pd  Pd167  1  -0.00029846  0.60510763  0.79789466  1
  Pd  Pd168  1  0.00629678  0.80394507  0.60383060  1
  Pd  Pd169  1  0.39648918  0.19614008  0.79013173  1
  Pd  Pd170  1  0.39250905  0.79777690  0.39492348  1
  Pd  Pd171  1  0.19703190  0.80110020  -0.00819830  1
  Pd  Pd172  1  -0.00325445  -0.00964229  0.19236580  1
  Pd  Pd173  1  0.59014227  0.19853287  0.39410357  1
  Pd  Pd174  1  0.80426442  0.39032174  -0.00501042  1
  Pd  Pd175  1  0.59403656  0.79399609  0.80107996  1
  Pd  Pd176  1  0.19592598  0.40475765  0.19484322  1
  Pd  Pd177  1  0.78866449  0.19676744  0.00861036  1
  Pd  Pd178  1  0.19794748  0.20706185  0.40254644  1
  Pd  Pd179  1  0.40846295  -0.00124192  0.39661527  1
  Pd  Pd180  1  0.59549456  0.40525217  0.60287246  1
  Pd  Pd181  1  0.19963815  0.19708752  0.20004900  1
  Pd  Pd182  1  0.19571843  0.79952257  0.59622889  1
  Pd  Pd183  1  0.58975217  0.20460927  0.19300053  1
  Pd  Pd184  1  -0.00845439  -0.00919284  0.40522819  1
  Pd  Pd185  1  0.20858897  0.80301810  0.80808363  1
  Pd  Pd186  1  0.79856033  0.61213740  0.59660357  1
  Pd  Pd187  1  0.79964290  0.00119076  0.19898169  1
  Pd  Pd188  1  0.00171134  0.19043037  0.60589976  1
  Pd  Pd189  1  0.59537850  0.00022957  0.20052418  1
  Pd  Pd190  1  0.79602482  0.20681307  0.40402060  1
  Pd  Pd191  1  0.79968338  0.39064679  0.59234353  1
  Pd  Pd192  1  0.80249458  0.20649373  0.18870747  1
  Pd  Pd193  1  0.59259939  0.60338834  0.40697837  1
  Pd  Pd194  1  0.59593631  0.19459626  0.60600144  1
  Pd  Pd195  1  0.59461243  0.19334058  0.80110625  1
  Pd  Pd196  1  0.19772979  0.20092731  0.79644127  1
  Pd  Pd197  1  0.60696846  0.40661174  0.79053996  1
  Pd  Pd198  1  0.78905503  0.59419524  -0.00762402  1
  Pd  Pd199  1  0.41424858  0.59311122  0.00101000  1
  Rh  Rh200  1  0.80517836  0.59712774  0.40551546  1
  Rh  Rh201  1  0.40113065  0.20425830  0.40271008  1
  Rh  Rh202  1  0.60319757  0.81046839  0.40474890  1
  Rh  Rh203  1  0.80449901  0.79708575  0.60301370  1
  Rh  Rh204  1  0.40047724  0.80768714  0.61264983  1
  Rh  Rh205  1  0.60794311  -0.00015249  0.80650333  1
  Rh  Rh206  1  0.19446347  0.59061753  0.00533106  1
  Rh  Rh207  1  0.19517956  0.40018579  0.59241520  1
  Rh  Rh208  1  0.39429215  0.20771085  0.20129940  1
  Rh  Rh209  1  0.39412782  0.60048449  0.20704832  1
  Rh  Rh210  1  0.00658336  0.20157609  0.80155806  1
  Rh  Rh211  1  0.79570034  -0.00480884  0.80817950  1
  Rh  Rh212  1  0.00124213  0.19826320  0.19944608  1
  Rh  Rh213  1  0.21078664  0.60160926  0.39757586  1
  Rh  Rh214  1  0.00998392  0.60179887  0.60460782  1
  Rh  Rh215  1  0.79825342  0.39494231  0.20498939  1
  Rh  Rh216  1  0.79783573  0.80476882  0.39909206  1
  Rh  Rh217  1  0.59989940  0.40087635  0.20263857  1
  Rh  Rh218  1  0.39447185  0.39467870  0.59564386  1
  Rh  Rh219  1  0.19229356  0.00426712  0.60049169  1
  Rh  Rh220  1  0.00580822  0.80334588  0.39587108  1
  Rh  Rh221  1  0.80070117  0.20917594  0.78864238  1
  Rh  Rh222  1  0.00953802  0.20928614  0.38808147  1
  Rh  Rh223  1  0.19714008  0.00389726  -0.00081291  1
  Rh  Rh224  1  0.40447372  0.00224137  0.00719224  1
  Rh  Rh225  1  0.00406563  -0.00324410  0.79480731  1
  Rh  Rh226  1  0.19590006  0.19786239  0.00260521  1
  Rh  Rh227  1  0.59732360  0.80166756  -0.00028215  1
  Rh  Rh228  1  0.80093279  0.60418829  0.19776307  1
  Rh  Rh229  1  0.81065606  0.81292079  -0.00517953  1
  Rh  Rh230  1  0.00376761  0.40646639  0.20563741  1
  Rh  Rh231  1  0.00209626  0.20124904  0.00253465  1
  Rh  Rh232  1  0.59089321  0.39892177  0.00634473  1
  Rh  Rh233  1  0.00836140  0.41386215  0.58822342  1
  Rh  Rh234  1  0.59325756  0.79909658  0.19807912  1
  Rh  Rh235  1  0.19822569  0.59224612  0.79597061  1
  Rh  Rh236  1  0.61100702  0.59640926  0.19397923  1
  Rh  Rh237  1  0.60041756  0.79960576  0.60119359  1
  Rh  Rh238  1  0.39941176  0.40709328  0.39449770  1
  Rh  Rh239  1  0.40195578  0.20841878  0.00379529  1
  Rh  Rh240  1  0.40389108  0.00295260  0.60637299  1
  Rh  Rh241  1  0.39428136  -0.00899375  0.79495453  1
  Rh  Rh242  1  -0.00209844  0.39153014  -0.00624162  1
  Rh  Rh243  1  0.20301713  0.40303595  0.80638282  1
  Rh  Rh244  1  0.39827356  0.39845264  0.19428870  1
  Rh  Rh245  1  -0.01070922  0.59185367  0.39629764  1
  Rh  Rh246  1  0.19790440  0.79222096  0.21230589  1
  Rh  Rh247  1  0.39052042  0.40216423  0.80593710  1
  Rh  Rh248  1  0.39751644  -0.00816368  0.20127884  1
  Rh  Rh249  1  0.00047147  0.79961944  0.80582978  1
