# generated using pymatgen
data_ZrScNbPdRh
_symmetry_space_group_name_H-M   'P 1'
_cell_length_a   16.55530222
_cell_length_b   16.55691281
_cell_length_c   16.56047365
_cell_angle_alpha   90.01178834
_cell_angle_beta   89.98999044
_cell_angle_gamma   90.04396525
_symmetry_Int_Tables_number   1
_chemical_formula_structural   ZrScNbPdRh
_chemical_formula_sum   'Zr50 Sc50 Nb50 Pd50 Rh50'
_cell_volume   4539.30208540
_cell_formula_units_Z   50
loop_
 _symmetry_equiv_pos_site_id
 _symmetry_equiv_pos_as_xyz
  1  'x, y, z'
loop_
 _atom_site_type_symbol
 _atom_site_label
 _atom_site_symmetry_multiplicity
 _atom_site_fract_x
 _atom_site_fract_y
 _atom_site_fract_z
 _atom_site_occupancy
  Zr  Zr0  1  0.90095274  0.70564003  0.71017044  1
  Zr  Zr1  1  0.70271720  0.29414473  0.49882867  1
  Zr  Zr2  1  0.90012802  0.49729265  0.89981964  1
  Zr  Zr3  1  0.50543954  0.71556848  0.70035206  1
  Zr  Zr4  1  0.90617036  0.49874292  0.29693050  1
  Zr  Zr5  1  0.89297320  0.50503439  0.69651876  1
  Zr  Zr6  1  0.10473277  0.71404214  0.10167604  1
  Zr  Zr7  1  0.90552043  0.71028580  0.30441358  1
  Zr  Zr8  1  0.09527080  0.28849945  0.69351692  1
  Zr  Zr9  1  0.29269370  0.50022928  0.70449755  1
  Zr  Zr10  1  0.29893472  0.30089739  0.90021690  1
  Zr  Zr11  1  0.29684093  0.50087002  0.49900594  1
  Zr  Zr12  1  0.30875309  0.28973957  0.29879393  1
  Zr  Zr13  1  0.29715641  0.49813807  0.89613957  1
  Zr  Zr14  1  0.08953659  0.70775865  0.89692384  1
  Zr  Zr15  1  0.70297389  0.90179430  0.29868724  1
  Zr  Zr16  1  0.11465122  0.09797879  0.29507418  1
  Zr  Zr17  1  0.69974907  0.90269121  0.90151896  1
  Zr  Zr18  1  0.88916590  0.69643202  0.89909805  1
  Zr  Zr19  1  0.90458148  0.30410923  0.69837205  1
  Zr  Zr20  1  0.30207178  0.29621576  0.09338023  1
  Zr  Zr21  1  0.70757695  0.29706435  0.69553911  1
  Zr  Zr22  1  0.09730999  0.50089801  0.10143481  1
  Zr  Zr23  1  0.30984258  0.49912493  0.30507875  1
  Zr  Zr24  1  0.90456924  0.09837720  0.69180204  1
  Zr  Zr25  1  0.49695654  0.71090673  0.10714617  1
  Zr  Zr26  1  0.10643020  0.09527822  0.90015712  1
  Zr  Zr27  1  0.89149400  0.09394462  0.09692373  1
  Zr  Zr28  1  0.70467076  0.29582800  0.89968014  1
  Zr  Zr29  1  0.29561977  0.70707307  0.70192677  1
  Zr  Zr30  1  0.89403816  0.28983758  0.88993028  1
  Zr  Zr31  1  0.10593219  0.50287981  0.30321133  1
  Zr  Zr32  1  0.90372923  0.88717653  0.88718567  1
  Zr  Zr33  1  0.69534553  0.69768443  0.89602658  1
  Zr  Zr34  1  0.09260593  0.29835078  0.89388307  1
  Zr  Zr35  1  0.10060506  0.90513186  0.90360004  1
  Zr  Zr36  1  0.90127437  0.28944328  0.50558363  1
  Zr  Zr37  1  0.50140353  0.69801712  0.30519938  1
  Zr  Zr38  1  0.49508010  0.90280504  0.09704723  1
  Zr  Zr39  1  0.49868713  0.89866251  0.29982618  1
  Zr  Zr40  1  0.89955082  0.70466424  0.50124025  1
  Zr  Zr41  1  0.30065816  0.49911714  0.09436207  1
  Zr  Zr42  1  0.49311598  0.10612617  0.30892406  1
  Zr  Zr43  1  0.70292810  0.09643878  0.09608538  1
  Zr  Zr44  1  0.50533963  0.10323793  0.50100429  1
  Zr  Zr45  1  0.90179954  0.91444482  0.48958193  1
  Zr  Zr46  1  0.31426783  0.29941502  0.70176815  1
  Zr  Zr47  1  0.70243000  0.49621382  0.30661803  1
  Zr  Zr48  1  0.69953639  0.69415243  0.70006845  1
  Zr  Zr49  1  0.09218890  0.49825894  0.69672579  1
  Sc  Sc50  1  0.10314442  0.91681756  0.69893457  1
  Sc  Sc51  1  0.89592192  0.30202715  0.29893995  1
  Sc  Sc52  1  0.10374408  0.29685576  0.09703129  1
  Sc  Sc53  1  0.30447723  0.29314355  0.50333673  1
  Sc  Sc54  1  0.49228168  0.90271411  0.50200040  1
  Sc  Sc55  1  0.49840760  0.29888667  0.51226742  1
  Sc  Sc56  1  0.50639401  0.49789017  0.90334258  1
  Sc  Sc57  1  0.49590805  0.09587062  0.09205514  1
  Sc  Sc58  1  0.30747289  0.70091033  0.30786160  1
  Sc  Sc59  1  0.89443222  0.90090824  0.09941281  1
  Sc  Sc60  1  0.30526936  0.10496460  0.90234152  1
  Sc  Sc61  1  0.29453306  0.70717294  0.50299768  1
  Sc  Sc62  1  0.69319419  0.09896606  0.29841820  1
  Sc  Sc63  1  0.30564499  0.90484048  0.69253212  1
  Sc  Sc64  1  0.89297343  0.30031447  0.10095640  1
  Sc  Sc65  1  0.29453482  0.70737110  0.89997601  1
  Sc  Sc66  1  0.90176672  0.08862432  0.31014320  1
  Sc  Sc67  1  0.28729920  0.10213934  0.09681305  1
  Sc  Sc68  1  0.69524712  0.70482009  0.09214218  1
  Sc  Sc69  1  0.29627915  0.90202011  0.31549208  1
  Sc  Sc70  1  0.69300925  0.69754316  0.50793665  1
  Sc  Sc71  1  0.09603221  0.10245326  0.50049663  1
  Sc  Sc72  1  0.70738578  0.09678007  0.89850803  1
  Sc  Sc73  1  0.69284724  0.90636691  0.10128733  1
  Sc  Sc74  1  0.30698994  0.90568140  0.90304880  1
  Sc  Sc75  1  0.49730470  0.90869206  0.89579181  1
  Sc  Sc76  1  0.69784705  0.50264577  0.51166694  1
  Sc  Sc77  1  0.68842576  0.89749518  0.69855700  1
  Sc  Sc78  1  0.10169971  0.50064520  0.89804106  1
  Sc  Sc79  1  0.90558115  0.70050702  0.09579664  1
  Sc  Sc80  1  0.90228738  0.49839694  0.09838639  1
  Sc  Sc81  1  0.49626450  0.49762106  0.09898446  1
  Sc  Sc82  1  0.10135305  0.89769094  0.30388623  1
  Sc  Sc83  1  0.09557228  0.70010714  0.30001564  1
  Sc  Sc84  1  0.49284315  0.30054047  0.09567756  1
  Sc  Sc85  1  0.70023516  0.49658005  0.08896396  1
  Sc  Sc86  1  0.70246392  0.50551222  0.90014498  1
  Sc  Sc87  1  0.10188042  0.69322386  0.69579289  1
  Sc  Sc88  1  0.49751010  0.48597824  0.69285701  1
  Sc  Sc89  1  0.30582457  0.09687417  0.49756122  1
  Sc  Sc90  1  0.10962691  0.29115347  0.30483101  1
  Sc  Sc91  1  0.10174184  0.50823671  0.50230774  1
  Sc  Sc92  1  0.70322888  0.90781767  0.49883532  1
  Sc  Sc93  1  0.50390319  0.70130601  0.50423252  1
  Sc  Sc94  1  0.10542389  0.69759063  0.50272992  1
  Sc  Sc95  1  0.70232486  0.28976393  0.29707026  1
  Sc  Sc96  1  0.48330857  0.29673693  0.89874012  1
  Sc  Sc97  1  0.50368152  0.50121694  0.50338908  1
  Sc  Sc98  1  0.90005872  0.49800927  0.50978901  1
  Sc  Sc99  1  0.69669291  0.09297362  0.69219604  1
  Nb  Nb100  1  0.89466546  0.09507655  0.90056056  1
  Nb  Nb101  1  0.50064519  0.29694476  0.70245907  1
  Nb  Nb102  1  0.49988555  0.90722225  0.70320448  1
  Nb  Nb103  1  0.49598104  0.09573161  0.70515552  1
  Nb  Nb104  1  0.11037881  0.10080581  0.69512518  1
  Nb  Nb105  1  0.30256141  0.10040553  0.29584453  1
  Nb  Nb106  1  0.09970196  0.09463182  0.09789107  1
  Nb  Nb107  1  0.69557816  0.29208687  0.09956890  1
  Nb  Nb108  1  0.70916189  0.10291526  0.49887417  1
  Nb  Nb109  1  0.10954757  0.90814749  0.10467776  1
  Nb  Nb110  1  0.30070666  0.70343434  0.10049432  1
  Nb  Nb111  1  0.50296619  0.29874538  0.30281031  1
  Nb  Nb112  1  0.50311442  0.49924834  0.30374695  1
  Nb  Nb113  1  0.29466681  0.10777996  0.69349225  1
  Nb  Nb114  1  0.89402851  0.09431648  0.50202309  1
  Nb  Nb115  1  0.69735487  0.49878349  0.69484897  1
  Nb  Nb116  1  0.09714326  0.30010324  0.50266515  1
  Nb  Nb117  1  0.90073985  0.89806373  0.30189735  1
  Nb  Nb118  1  0.29277801  0.89767638  0.50258781  1
  Nb  Nb119  1  0.90057481  0.90241532  0.69277203  1
  Nb  Nb120  1  0.50229544  0.09657146  0.89833958  1
  Nb  Nb121  1  0.49768570  0.69872110  0.89634199  1
  Nb  Nb122  1  0.69967854  0.69930883  0.30578490  1
  Nb  Nb123  1  0.29698734  0.89810916  0.10119748  1
  Nb  Nb124  1  0.10793626  0.90453612  0.50619018  1
  Nb  Nb125  1  0.20708198  0.40302399  0.20292560  1
  Nb  Nb126  1  0.00462711  0.39506763  0.40548625  1
  Nb  Nb127  1  0.79961755  0.79677810  0.20783084  1
  Nb  Nb128  1  0.00240311  0.18849846  0.19517183  1
  Nb  Nb129  1  0.39720759  0.60303605  0.60953017  1
  Nb  Nb130  1  0.60224312  0.80011344  0.39687698  1
  Nb  Nb131  1  -0.00081780  0.81041361  0.59915893  1
  Nb  Nb132  1  0.20778669  0.60062401  0.19547638  1
  Nb  Nb133  1  0.40404456  0.60595521  0.80069834  1
  Nb  Nb134  1  0.19756166  0.80673834  0.79816925  1
  Nb  Nb135  1  0.59379777  0.19759898  0.79919124  1
  Nb  Nb136  1  0.19635865  0.39311554  0.59910830  1
  Nb  Nb137  1  0.39013609  0.00100972  0.20303229  1
  Nb  Nb138  1  0.60170606  0.59555839  0.20624962  1
  Nb  Nb139  1  0.60177879  0.39008903  0.79552208  1
  Nb  Nb140  1  0.00516571  -0.00165422  0.19797836  1
  Nb  Nb141  1  0.79581101  0.60543423  0.20551262  1
  Nb  Nb142  1  0.59787639  0.39628651  0.39567097  1
  Nb  Nb143  1  0.80647886  -0.00505987  0.79474258  1
  Nb  Nb144  1  0.39926621  0.60971810  -0.00194928  1
  Nb  Nb145  1  0.59784518  0.39763013  0.20461100  1
  Nb  Nb146  1  0.60058603  0.19933888  -0.00642798  1
  Nb  Nb147  1  -0.00378237  0.18965096  0.00019072  1
  Nb  Nb148  1  0.80085701  0.60331843  0.39801833  1
  Nb  Nb149  1  0.80502401  0.80606406  0.60114579  1
  Pd  Pd150  1  -0.00504212  0.59293335  0.40862408  1
  Pd  Pd151  1  0.00128911  0.60706845  0.19529374  1
  Pd  Pd152  1  0.59716405  0.38906935  -0.00260783  1
  Pd  Pd153  1  -0.00248832  0.00523805  0.79712226  1
  Pd  Pd154  1  -0.00114273  0.81010346  0.00822679  1
  Pd  Pd155  1  0.58795063  0.00835750  0.20038033  1
  Pd  Pd156  1  -0.00247847  0.20000129  0.39285352  1
  Pd  Pd157  1  0.40906078  0.39328382  0.40977518  1
  Pd  Pd158  1  0.59187140  0.80539185  -0.00766148  1
  Pd  Pd159  1  0.20044865  0.00561893  0.40734380  1
  Pd  Pd160  1  0.80295746  0.19291459  0.39160804  1
  Pd  Pd161  1  0.79792419  0.80183696  0.00743403  1
  Pd  Pd162  1  0.59919415  0.19774493  0.60459132  1
  Pd  Pd163  1  0.20236891  0.80699080  -0.00568981  1
  Pd  Pd164  1  0.40167700  0.79962794  -0.00744505  1
  Pd  Pd165  1  0.39176714  0.00485047  0.79669506  1
  Pd  Pd166  1  0.19767223  0.39484467  0.40302850  1
  Pd  Pd167  1  0.40127979  0.79957296  0.59619164  1
  Pd  Pd168  1  0.59754257  -0.00276420  0.59594670  1
  Pd  Pd169  1  0.60153675  -0.00253892  0.40339397  1
  Pd  Pd170  1  0.21323970  -0.00249748  0.79831789  1
  Pd  Pd171  1  0.00097279  0.60125117  0.00009250  1
  Pd  Pd172  1  0.01253702  0.80790141  0.41072203  1
  Pd  Pd173  1  0.19137614  0.38988641  0.79062978  1
  Pd  Pd174  1  0.80288014  0.39582059  0.00134369  1
  Pd  Pd175  1  0.40176648  0.39752297  0.19983109  1
  Pd  Pd176  1  0.80689274  0.19227072  0.20640318  1
  Pd  Pd177  1  0.40173246  0.60029267  0.19447393  1
  Pd  Pd178  1  -0.00026910  0.18577213  0.80178194  1
  Pd  Pd179  1  0.59120485  0.19943618  0.19064964  1
  Pd  Pd180  1  0.39827287  0.00437573  0.59805541  1
  Pd  Pd181  1  0.79369821  0.40781485  0.79798323  1
  Pd  Pd182  1  0.20471180  0.20165821  0.79989195  1
  Pd  Pd183  1  0.79006368  0.40442684  0.19210472  1
  Pd  Pd184  1  0.20658742  0.19538207  0.40978534  1
  Pd  Pd185  1  0.40197138  0.60444166  0.41506252  1
  Pd  Pd186  1  0.20725795  0.79774691  0.21184734  1
  Pd  Pd187  1  0.00014393  0.59604518  0.80198561  1
  Pd  Pd188  1  0.20063135  0.60765715  0.00041301  1
  Pd  Pd189  1  0.59190299  0.60291824  0.00940796  1
  Pd  Pd190  1  0.59132632  0.58735795  0.79097253  1
  Pd  Pd191  1  0.19473395  0.79427912  0.39902277  1
  Pd  Pd192  1  -0.00548571  0.38921523  -0.00160246  1
  Pd  Pd193  1  0.40435595  0.19129082  0.19025698  1
  Pd  Pd194  1  0.01184283  0.38385347  0.20794422  1
  Pd  Pd195  1  -0.00575594  -0.00378462  0.00271167  1
  Pd  Pd196  1  0.19367590  0.39624512  0.00131862  1
  Pd  Pd197  1  0.59803760  0.80725753  0.80648600  1
  Pd  Pd198  1  0.38787614  0.80970551  0.20851848  1
  Pd  Pd199  1  0.80255114  0.40436798  0.41031864  1
  Rh  Rh200  1  0.00019636  0.19006921  0.59641027  1
  Rh  Rh201  1  0.40069523  0.40910564  -0.00735162  1
  Rh  Rh202  1  0.79572983  0.59467008  0.80062383  1
  Rh  Rh203  1  0.40565796  0.80171279  0.40806652  1
  Rh  Rh204  1  0.00634158  0.00216912  0.59352268  1
  Rh  Rh205  1  0.60112264  0.00641447  -0.00355423  1
  Rh  Rh206  1  0.79934016  0.39858253  0.59723322  1
  Rh  Rh207  1  0.40264729  0.19337420  0.00026516  1
  Rh  Rh208  1  0.39254399  0.00194210  0.00955862  1
  Rh  Rh209  1  0.60525489  0.00489038  0.80058643  1
  Rh  Rh210  1  0.79064117  0.79700329  0.40458159  1
  Rh  Rh211  1  0.19161688  0.20112370  -0.00499773  1
  Rh  Rh212  1  0.80453957  -0.01166107  -0.01090889  1
  Rh  Rh213  1  0.80233074  0.60083957  0.00584322  1
  Rh  Rh214  1  0.19776822  0.20721178  0.19472318  1
  Rh  Rh215  1  0.40996863  0.40998383  0.80583705  1
  Rh  Rh216  1  0.40088651  0.20251605  0.40575441  1
  Rh  Rh217  1  0.20183900  0.60814788  0.39264378  1
  Rh  Rh218  1  0.20585049  0.00654924  0.59607381  1
  Rh  Rh219  1  0.20522964  -0.00580318  0.20090227  1
  Rh  Rh220  1  0.79571230  -0.00329889  0.60360219  1
  Rh  Rh221  1  0.01609205  0.80711714  0.78447683  1
  Rh  Rh222  1  0.00457395  0.40104510  0.59402985  1
  Rh  Rh223  1  0.20816144  -0.00116785  -0.00071530  1
  Rh  Rh224  1  0.20603317  0.59280377  0.59846844  1
  Rh  Rh225  1  0.79269815  0.00689789  0.39422424  1
  Rh  Rh226  1  0.40149270  0.19160235  0.79843039  1
  Rh  Rh227  1  0.01055871  -0.00012782  0.39527005  1
  Rh  Rh228  1  0.60992010  0.79216388  0.20541509  1
  Rh  Rh229  1  0.60523641  0.59744129  0.40131735  1
  Rh  Rh230  1  0.78927692  0.80685032  0.78988694  1
  Rh  Rh231  1  0.60378585  0.81077556  0.59043006  1
  Rh  Rh232  1  0.39679909  0.80211290  0.80090520  1
  Rh  Rh233  1  0.80625813  -0.00652576  0.20718364  1
  Rh  Rh234  1  -0.00376070  0.60929594  0.60045190  1
  Rh  Rh235  1  -0.00220172  0.40472914  0.79926745  1
  Rh  Rh236  1  0.60698414  0.39497161  0.59984451  1
  Rh  Rh237  1  0.79596526  0.18259729  0.78859133  1
  Rh  Rh238  1  0.60055557  0.20477885  0.40607640  1
  Rh  Rh239  1  0.40409808  0.19051897  0.60356725  1
  Rh  Rh240  1  0.80228814  0.19428097  0.60279680  1
  Rh  Rh241  1  0.38948429  0.40717142  0.59680052  1
  Rh  Rh242  1  0.80008921  0.20292957  0.00287984  1
  Rh  Rh243  1  0.19119477  0.80895784  0.60767042  1
  Rh  Rh244  1  0.39601055  -0.00115530  0.39871099  1
  Rh  Rh245  1  0.20274804  0.20159564  0.59517691  1
  Rh  Rh246  1  0.58802857  0.59771253  0.60925199  1
  Rh  Rh247  1  0.19882135  0.61333844  0.80767753  1
  Rh  Rh248  1  0.80125700  0.60896788  0.59776773  1
  Rh  Rh249  1  -0.00534827  0.81253455  0.19440742  1
