# generated using pymatgen
data_ZrScNbPdRh
_symmetry_space_group_name_H-M   'P 1'
_cell_length_a   16.56279388
_cell_length_b   16.56153368
_cell_length_c   16.56206299
_cell_angle_alpha   89.96268600
_cell_angle_beta   89.98272196
_cell_angle_gamma   89.99700520
_symmetry_Int_Tables_number   1
_chemical_formula_structural   ZrScNbPdRh
_chemical_formula_sum   'Zr50 Sc50 Nb50 Pd50 Rh50'
_cell_volume   4543.05996402
_cell_formula_units_Z   50
loop_
 _symmetry_equiv_pos_site_id
 _symmetry_equiv_pos_as_xyz
  1  'x, y, z'
loop_
 _atom_site_type_symbol
 _atom_site_label
 _atom_site_symmetry_multiplicity
 _atom_site_fract_x
 _atom_site_fract_y
 _atom_site_fract_z
 _atom_site_occupancy
  Zr  Zr0  1  0.09693639  0.50278639  0.30375229  1
  Zr  Zr1  1  0.90037510  0.70331916  0.70094077  1
  Zr  Zr2  1  0.49656908  0.50093953  0.10063077  1
  Zr  Zr3  1  0.50295261  0.29948610  0.30306677  1
  Zr  Zr4  1  0.90528543  0.70647040  0.89148044  1
  Zr  Zr5  1  0.89809619  0.49076214  0.49623405  1
  Zr  Zr6  1  0.68864488  0.50562868  0.50419308  1
  Zr  Zr7  1  0.29124827  0.29765935  0.10282040  1
  Zr  Zr8  1  0.11612902  0.30343649  0.29940197  1
  Zr  Zr9  1  0.28819299  0.50537832  0.69692929  1
  Zr  Zr10  1  0.29763207  0.49169679  0.30865400  1
  Zr  Zr11  1  0.90332833  0.90022399  0.89412490  1
  Zr  Zr12  1  0.29640002  0.70123842  0.30518518  1
  Zr  Zr13  1  0.10187033  0.49301905  0.70028493  1
  Zr  Zr14  1  0.30613104  0.29357184  0.90721061  1
  Zr  Zr15  1  0.29809971  0.69907161  0.70624435  1
  Zr  Zr16  1  0.90211370  0.10738827  0.70413045  1
  Zr  Zr17  1  0.10614046  0.49298940  0.09443032  1
  Zr  Zr18  1  0.08965553  0.69727117  0.29212825  1
  Zr  Zr19  1  0.69968064  0.90836018  0.30459613  1
  Zr  Zr20  1  0.09859015  0.89875239  0.90045096  1
  Zr  Zr21  1  0.50019197  0.89788711  0.10754602  1
  Zr  Zr22  1  0.90525785  0.49484195  0.89608907  1
  Zr  Zr23  1  0.90029578  0.09611432  0.90283476  1
  Zr  Zr24  1  0.69981722  0.49747482  0.10600145  1
  Zr  Zr25  1  0.68757255  0.89222279  0.69676942  1
  Zr  Zr26  1  0.69350146  0.10557674  0.29789650  1
  Zr  Zr27  1  0.50070187  0.29041005  0.69798701  1
  Zr  Zr28  1  0.69826948  0.49406972  0.30120113  1
  Zr  Zr29  1  0.50419751  0.68857281  0.50620429  1
  Zr  Zr30  1  0.89680159  0.30358150  0.31632994  1
  Zr  Zr31  1  0.09895014  0.30325417  0.90023308  1
  Zr  Zr32  1  0.90513918  0.90145246  0.30173031  1
  Zr  Zr33  1  0.09899481  0.30049926  0.50119157  1
  Zr  Zr34  1  0.90207150  0.69728921  0.30430254  1
  Zr  Zr35  1  0.90054497  0.10938911  0.50821638  1
  Zr  Zr36  1  0.50111107  0.48889206  0.30004036  1
  Zr  Zr37  1  0.70218368  0.89999914  0.50144733  1
  Zr  Zr38  1  0.10378270  0.49846994  0.89351636  1
  Zr  Zr39  1  0.30036716  0.90299521  0.29559036  1
  Zr  Zr40  1  0.70903959  0.49529913  0.90355611  1
  Zr  Zr41  1  0.10204823  0.10586132  0.70421842  1
  Zr  Zr42  1  0.89240609  0.48373230  0.08994372  1
  Zr  Zr43  1  0.29991397  0.68689643  0.50272425  1
  Zr  Zr44  1  0.49313933  0.69611075  0.90043550  1
  Zr  Zr45  1  0.70888576  0.70644075  0.88304492  1
  Zr  Zr46  1  0.69476921  0.10119831  0.10148352  1
  Zr  Zr47  1  0.29940946  0.89660738  0.49416425  1
  Zr  Zr48  1  0.10044177  0.10214783  0.50199160  1
  Zr  Zr49  1  0.29678517  0.10000360  0.70544692  1
  Sc  Sc50  1  0.50178595  0.29654437  0.49624944  1
  Sc  Sc51  1  0.30150561  0.50458928  0.90049876  1
  Sc  Sc52  1  0.91856926  0.70925275  0.10926680  1
  Sc  Sc53  1  0.89788978  0.91378252  0.49872542  1
  Sc  Sc54  1  0.29995491  0.10123899  0.49446154  1
  Sc  Sc55  1  0.69957132  0.09821207  0.89613999  1
  Sc  Sc56  1  0.49419411  0.70310869  0.10156263  1
  Sc  Sc57  1  0.09852090  0.69320486  0.49570431  1
  Sc  Sc58  1  0.69633080  0.29145981  0.89233527  1
  Sc  Sc59  1  0.89411615  0.50596561  0.30487182  1
  Sc  Sc60  1  0.50638038  0.48972934  0.69856222  1
  Sc  Sc61  1  0.90363290  0.29563636  0.90527552  1
  Sc  Sc62  1  0.70196794  0.30254708  0.49987133  1
  Sc  Sc63  1  0.90632006  0.90144215  0.69882613  1
  Sc  Sc64  1  0.90610927  0.09843355  0.31929982  1
  Sc  Sc65  1  0.49362596  0.29907105  0.89374895  1
  Sc  Sc66  1  0.50386155  0.10965236  0.30188047  1
  Sc  Sc67  1  0.30508659  0.29631296  0.29934286  1
  Sc  Sc68  1  0.09704631  0.90418906  0.50264276  1
  Sc  Sc69  1  0.29606316  0.69896316  0.90245307  1
  Sc  Sc70  1  0.10037337  0.89838451  0.09225250  1
  Sc  Sc71  1  0.29636649  0.90442770  0.70959899  1
  Sc  Sc72  1  0.10472484  0.90535577  0.29849208  1
  Sc  Sc73  1  0.70815609  0.30473279  0.10427646  1
  Sc  Sc74  1  0.09840840  0.09775958  0.89898994  1
  Sc  Sc75  1  0.29216767  0.90039082  0.90080262  1
  Sc  Sc76  1  0.29876775  0.29722011  0.48847725  1
  Sc  Sc77  1  0.10603395  0.49968096  0.50293257  1
  Sc  Sc78  1  0.48768466  0.30301759  0.10895924  1
  Sc  Sc79  1  0.49441449  0.10039908  0.89846849  1
  Sc  Sc80  1  0.90840976  0.50015984  0.69333756  1
  Sc  Sc81  1  0.69422678  0.69288270  0.11545226  1
  Sc  Sc82  1  0.50364585  0.91418741  0.50779498  1
  Sc  Sc83  1  0.10199055  0.90412353  0.70735768  1
  Sc  Sc84  1  0.49015973  0.49456089  0.90078684  1
  Sc  Sc85  1  0.89107209  0.69655417  0.50353656  1
  Sc  Sc86  1  0.69050503  0.91117965  0.10251563  1
  Sc  Sc87  1  0.69732646  0.10571086  0.70464235  1
  Sc  Sc88  1  0.50574841  0.70730559  0.70061720  1
  Sc  Sc89  1  0.69175546  0.29819211  0.69502649  1
  Sc  Sc90  1  0.29241552  0.29820979  0.70706739  1
  Sc  Sc91  1  0.91147706  0.90407875  0.08793548  1
  Sc  Sc92  1  0.70687469  0.68971595  0.30694509  1
  Sc  Sc93  1  0.49405428  0.10627919  0.50304626  1
  Sc  Sc94  1  0.70244449  0.09954703  0.49785046  1
  Sc  Sc95  1  0.29820802  0.90167576  0.09266195  1
  Sc  Sc96  1  0.49853055  0.90354308  0.89321319  1
  Sc  Sc97  1  0.11160517  0.09979780  0.30187061  1
  Sc  Sc98  1  0.70197662  0.90655916  0.89096238  1
  Sc  Sc99  1  0.50432319  0.70069554  0.28820788  1
  Nb  Nb100  1  0.10342791  0.70405378  0.90293607  1
  Nb  Nb101  1  0.09996025  0.29828758  0.10161469  1
  Nb  Nb102  1  0.69228798  0.29943626  0.30088954  1
  Nb  Nb103  1  0.90086568  0.10454518  0.09564523  1
  Nb  Nb104  1  0.49695533  0.89576184  0.29792287  1
  Nb  Nb105  1  0.30738320  0.50326421  0.50051610  1
  Nb  Nb106  1  0.50239560  0.09953586  0.10213870  1
  Nb  Nb107  1  0.69819434  0.49737571  0.70033086  1
  Nb  Nb108  1  0.29722601  0.10112564  0.91656426  1
  Nb  Nb109  1  0.49645410  0.09065605  0.70016735  1
  Nb  Nb110  1  0.09615726  0.30458496  0.70633878  1
  Nb  Nb111  1  0.90570343  0.29491929  0.09898379  1
  Nb  Nb112  1  0.10414307  0.69902677  0.09370070  1
  Nb  Nb113  1  0.49435925  0.49565863  0.49834517  1
  Nb  Nb114  1  0.10991274  0.10217863  0.10109535  1
  Nb  Nb115  1  0.29806683  0.09717845  0.29209291  1
  Nb  Nb116  1  0.10245782  0.69868640  0.70233613  1
  Nb  Nb117  1  0.29830183  0.69779212  0.09611050  1
  Nb  Nb118  1  0.90233771  0.30159713  0.69230299  1
  Nb  Nb119  1  0.49653569  0.90989653  0.69800413  1
  Nb  Nb120  1  0.29858215  0.10161478  0.09536093  1
  Nb  Nb121  1  0.89785065  0.29970678  0.50770568  1
  Nb  Nb122  1  0.69293428  0.70334373  0.51119296  1
  Nb  Nb123  1  0.69873020  0.69674944  0.68726723  1
  Nb  Nb124  1  0.30283058  0.50041793  0.09696610  1
  Nb  Nb125  1  0.81008261  0.00629586  0.19876599  1
  Nb  Nb126  1  0.00252940  0.60115848  -0.00293809  1
  Nb  Nb127  1  0.59806320  0.79989497  0.40474321  1
  Nb  Nb128  1  0.80182905  0.39844472  0.79219062  1
  Nb  Nb129  1  0.60784200  0.59743769  0.79867150  1
  Nb  Nb130  1  0.00053799  0.20141722  0.19772455  1
  Nb  Nb131  1  0.80462703  0.61128042  -0.00007587  1
  Nb  Nb132  1  0.39626268  0.40291053  0.59443031  1
  Nb  Nb133  1  0.79494183  0.79664323  0.00700177  1
  Nb  Nb134  1  0.00040533  0.01337372  0.19310141  1
  Nb  Nb135  1  0.20254344  0.59980732  0.19291140  1
  Nb  Nb136  1  0.39970894  0.00650746  0.19815052  1
  Nb  Nb137  1  -0.00257758  0.79949109  0.39919070  1
  Nb  Nb138  1  0.39756810  0.80351672  0.59863113  1
  Nb  Nb139  1  0.80309285  0.80883663  0.19842246  1
  Nb  Nb140  1  -0.00058831  0.39054456  0.19790547  1
  Nb  Nb141  1  0.38902537  0.59756951  0.19894941  1
  Nb  Nb142  1  0.19958466  0.79116903  0.19343233  1
  Nb  Nb143  1  0.59929332  0.39839844  0.00145434  1
  Nb  Nb144  1  0.59325442  0.20157699  0.00669859  1
  Nb  Nb145  1  0.60619165  0.60116285  -0.00670467  1
  Nb  Nb146  1  0.20271858  0.79496509  0.60185454  1
  Nb  Nb147  1  0.41000497  0.80080812  0.40299851  1
  Nb  Nb148  1  0.81082981  0.19825815  0.20174400  1
  Nb  Nb149  1  0.60587956  0.79474187  -0.00312748  1
  Pd  Pd150  1  0.39762667  0.19428127  0.20005950  1
  Pd  Pd151  1  0.79935642  0.79718728  0.39984047  1
  Pd  Pd152  1  0.39259258  0.00359908  0.80738027  1
  Pd  Pd153  1  0.00588787  0.79919960  0.59309585  1
  Pd  Pd154  1  0.20769827  0.39202699  0.59517729  1
  Pd  Pd155  1  0.80653072  0.39157348  0.20999558  1
  Pd  Pd156  1  0.00973176  0.20228849  0.39604718  1
  Pd  Pd157  1  0.40215445  0.80400844  -0.00328338  1
  Pd  Pd158  1  0.81401847  0.60714412  0.18957006  1
  Pd  Pd159  1  0.00433665  0.40036855  0.39923553  1
  Pd  Pd160  1  0.59178009  0.00122411  0.39962560  1
  Pd  Pd161  1  0.59440925  0.00007417  -0.00940861  1
  Pd  Pd162  1  -0.00207383  0.58333904  0.18675833  1
  Pd  Pd163  1  0.20444499  0.20634076  0.59936671  1
  Pd  Pd164  1  0.80066028  0.59216289  0.79337889  1
  Pd  Pd165  1  0.38869221  -0.00106367  0.60061136  1
  Pd  Pd166  1  0.39086840  0.20731397  0.59949217  1
  Pd  Pd167  1  0.00772956  0.60294012  0.80023610  1
  Pd  Pd168  1  0.79704290  -0.00741148  0.00397258  1
  Pd  Pd169  1  0.20308592  -0.00610792  0.60071218  1
  Pd  Pd170  1  0.39954909  0.19174429  0.79921411  1
  Pd  Pd171  1  0.80222141  0.59471143  0.59964256  1
  Pd  Pd172  1  0.60302677  0.19410656  0.59548729  1
  Pd  Pd173  1  0.40893260  0.59608533  0.61406816  1
  Pd  Pd174  1  0.79543340  0.39853522  0.60392167  1
  Pd  Pd175  1  0.80638602  0.80654010  0.60145454  1
  Pd  Pd176  1  0.00476511  0.20486618  0.60485365  1
  Pd  Pd177  1  0.00222726  0.59881876  0.59570451  1
  Pd  Pd178  1  0.61229363  0.80083169  0.20474893  1
  Pd  Pd179  1  0.19790530  0.00222430  0.40319685  1
  Pd  Pd180  1  0.59707042  0.60370092  0.39368310  1
  Pd  Pd181  1  0.40971286  0.60456944  0.38836171  1
  Pd  Pd182  1  0.00898478  0.19456803  0.00019304  1
  Pd  Pd183  1  0.79559832  0.00312187  0.60841301  1
  Pd  Pd184  1  0.40435272  -0.00300247  0.00373631  1
  Pd  Pd185  1  0.19073851  0.79749647  0.40062600  1
  Pd  Pd186  1  0.19918051  0.19858564  0.81012791  1
  Pd  Pd187  1  0.39965441  0.80621787  0.79643726  1
  Pd  Pd188  1  0.80450653  0.20902727  0.79707144  1
  Pd  Pd189  1  0.78939493  0.20345655  0.00195323  1
  Pd  Pd190  1  0.40694812  0.00223137  0.39246936  1
  Pd  Pd191  1  0.20745232  0.39941226  -0.00678452  1
  Pd  Pd192  1  0.79837725  -0.00301090  0.78936241  1
  Pd  Pd193  1  0.60610216  0.01145617  0.60158651  1
  Pd  Pd194  1  0.39231555  0.40358539  0.78912082  1
  Pd  Pd195  1  0.79297397  0.20019809  0.40102023  1
  Pd  Pd196  1  0.40912979  0.59288182  0.79146845  1
  Pd  Pd197  1  0.00322972  0.00245991  0.60602919  1
  Pd  Pd198  1  0.60479916  0.40161829  0.80721815  1
  Pd  Pd199  1  0.59420258  0.79909213  0.80247052  1
  Rh  Rh200  1  0.58905279  0.59438176  0.20085312  1
  Rh  Rh201  1  0.19583701  0.00186086  0.00018094  1
  Rh  Rh202  1  0.20262991  0.80148831  0.00076975  1
  Rh  Rh203  1  0.60204707  0.39733254  0.40554607  1
  Rh  Rh204  1  0.19617554  0.59405913  0.39776844  1
  Rh  Rh205  1  -0.00207404  0.20440726  0.80137055  1
  Rh  Rh206  1  -0.00679382  0.60237467  0.41088732  1
  Rh  Rh207  1  0.79131488  0.40172651  0.40366103  1
  Rh  Rh208  1  0.80003272  0.00925590  0.39934503  1
  Rh  Rh209  1  0.79440016  0.38502699  -0.01157407  1
  Rh  Rh210  1  0.19650350  0.59880047  -0.00276117  1
  Rh  Rh211  1  0.39832900  0.19587929  0.39449368  1
  Rh  Rh212  1  0.19536698  0.79585177  0.79725163  1
  Rh  Rh213  1  0.00817676  -0.00333995  0.39857090  1
  Rh  Rh214  1  0.00704093  0.81501537  0.20415088  1
  Rh  Rh215  1  0.59103328  0.00188966  0.20988956  1
  Rh  Rh216  1  0.38823401  0.79919653  0.20439647  1
  Rh  Rh217  1  0.20355349  0.19491737  0.39765809  1
  Rh  Rh218  1  0.20122139  0.19618260  0.20106139  1
  Rh  Rh219  1  0.58962493  0.19216520  0.80313980  1
  Rh  Rh220  1  0.79643812  0.20304313  0.60127349  1
  Rh  Rh221  1  0.40349269  0.60211203  0.00562452  1
  Rh  Rh222  1  -0.00858004  0.39195268  0.79511103  1
  Rh  Rh223  1  0.00397943  0.40083521  0.00266290  1
  Rh  Rh224  1  0.59656263  0.00393792  0.79563153  1
  Rh  Rh225  1  0.00030246  0.00435365  0.79873777  1
  Rh  Rh226  1  0.60198974  0.20226615  0.40647920  1
  Rh  Rh227  1  0.58850889  0.80514935  0.59419420  1
  Rh  Rh228  1  0.40670023  0.20038873  0.00692870  1
  Rh  Rh229  1  0.60020082  0.39397268  0.19442548  1
  Rh  Rh230  1  0.59479836  0.59320282  0.60999127  1
  Rh  Rh231  1  0.60457032  0.20978909  0.19260448  1
  Rh  Rh232  1  0.20058567  0.40534990  0.20006019  1
  Rh  Rh233  1  0.00320188  0.39673131  0.59791282  1
  Rh  Rh234  1  0.40137476  0.39381531  0.40679665  1
  Rh  Rh235  1  0.39045903  0.40459515  0.20020804  1
  Rh  Rh236  1  0.19482398  0.19998214  -0.00301806  1
  Rh  Rh237  1  0.00708232  0.00698742  0.00145588  1
  Rh  Rh238  1  -0.00246462  0.79497003  -0.00591090  1
  Rh  Rh239  1  0.20229687  -0.00486643  0.18948027  1
  Rh  Rh240  1  0.00810148  0.80128997  0.79530233  1
  Rh  Rh241  1  0.59156285  0.39827738  0.59430184  1
  Rh  Rh242  1  0.19565423  0.60374956  0.80450946  1
  Rh  Rh243  1  0.40001622  0.39503902  0.00156117  1
  Rh  Rh244  1  0.80050659  0.80895130  0.78604954  1
  Rh  Rh245  1  0.20358158  0.00848003  0.80862091  1
  Rh  Rh246  1  0.20701423  0.39665520  0.80594487  1
  Rh  Rh247  1  0.20170008  0.40334745  0.40859588  1
  Rh  Rh248  1  0.19192174  0.60358179  0.59993359  1
  Rh  Rh249  1  0.79312401  0.59696071  0.41167135  1
